LAQ.pdb
     RDKit          3D

 23 22  0  0  1  0  0  0  0  0999 V2000
    9.2946  -12.1496   19.1847 C   0  0  0  0  0  0  0  0  0  0  0  0
    8.3788  -13.2637   18.6788 C   0  0  2  0  0  0  0  0  0  0  0  0
    7.1033  -12.6726   18.1191 C   0  0  0  0  0  0  0  0  0  0  0  0
    8.0796  -14.1644   19.8602 C   0  0  0  0  0  0  0  0  0  0  0  0
    9.4026  -14.6048   20.4604 C   0  0  2  0  0  0  0  0  0  0  0  0
   10.1700  -15.3028   19.4723 N   0  0  0  0  0  0  0  0  0  0  0  0
    9.0820  -15.4405   21.6417 C   0  0  0  0  0  0  0  0  0  0  0  0
    8.1661  -15.0198   22.4020 O   0  0  0  0  0  0  0  0  0  0  0  0
   10.2927  -18.5773   23.2779 C   0  0  0  0  0  0  0  0  0  0  0  0
    9.4527  -17.3069   23.1848 C   0  0  2  0  0  0  0  0  0  0  0  0
    9.7451  -16.6612   21.9442 N   0  0  0  0  0  0  0  0  0  0  0  0
    9.8393  -16.4681   24.3649 C   0  0  0  0  0  0  0  0  0  0  0  0
   10.9218  -15.8426   24.3142 O   0  0  0  0  0  0  0  0  0  0  0  0
    5.8180  -13.2354   27.3777 N   0  0  0  0  0  0  0  0  0  0  0  0
    6.9914  -12.4998   27.0685 C   0  0  0  0  0  0  0  0  0  0  0  0
    6.9403  -11.2647   27.0092 O   0  0  0  0  0  0  0  0  0  0  0  0
    8.2430  -13.2310   26.8245 C   0  0  0  0  0  0  0  0  0  0  0  0
    8.0836  -14.6991   26.9417 C   0  0  0  0  0  0  0  0  0  0  0  0
    9.2632  -15.5435   26.6628 C   0  0  2  0  0  0  0  0  0  0  0  0
    9.0128  -16.3741   25.5160 N   0  0  0  0  0  0  0  0  0  0  0  0
    9.7820  -16.3094   27.8273 C   0  0  0  0  0  0  0  0  0  0  0  0
   10.3590  -15.6065   28.8652 O   0  0  0  0  0  0  0  0  0  0  0  0
    9.7216  -17.5455   27.9164 O   0  0  0  0  0  0  0  0  0  0  0  0
  2  1  1  1
  2  3  1  0
  4  2  1  0
  5  4  1  0
  5  6  1  6
  7  8  2  0
  7  5  1  0
 10  9  1  6
 10 12  1  0
 10 11  1  0
 11  7  1  0
 12 20  1  0
 13 12  2  0
 15 14  1  0
 16 15  2  0
 17 15  1  0
 18 17  1  0
 19 18  1  1
 20 19  1  0
 21 22  1  0
 21 19  1  0
 23 21  2  0
M  END
$$$$
