ILH.pdb
     RDKit          3D

 27 27  0  0  1  0  0  0  0  0999 V2000
    8.2545  -19.7997   20.5573 C   0  0  0  0  0  0  0  0  0  0  0  0
    8.2075  -18.3074   20.4374 C   0  0  0  0  0  0  0  0  0  0  0  0
    8.2993  -17.6146   21.7792 C   0  0  2  0  0  0  0  0  0  0  0  0
    7.1770  -18.0815   22.6609 C   0  0  0  0  0  0  0  0  0  0  0  0
    8.2281  -16.1114   21.6277 C   0  0  2  0  0  0  0  0  0  0  0  0
    9.1696  -15.6852   20.6115 N   0  0  0  0  0  0  0  0  0  0  0  0
    8.5457  -15.4350   22.9354 C   0  0  0  0  0  0  0  0  0  0  0  0
    9.7335  -15.3936   23.3594 O   0  0  0  0  0  0  0  0  0  0  0  0
    7.8027  -11.3916   25.9506 C   0  0  0  0  0  0  0  0  0  0  0  0
    6.8965  -12.4707   26.5529 C   0  0  1  0  0  0  0  0  0  0  0  0
    5.6081  -11.7345   26.9554 C   0  0  0  0  0  0  0  0  0  0  0  0
    6.6104  -13.4721   25.4936 C   0  0  0  0  0  0  0  0  0  0  0  0
    7.7723  -14.3041   25.0691 C   0  0  2  0  0  0  0  0  0  0  0  0
    7.5308  -14.8311   23.7200 N   0  0  0  0  0  0  0  0  0  0  0  0
    8.0974  -15.4109   26.0068 C   0  0  0  0  0  0  0  0  0  0  0  0
    8.6498  -15.1581   27.1061 O   0  0  0  0  0  0  0  0  0  0  0  0
    7.8083  -16.7703   25.7163 N   0  0  0  0  0  0  0  0  0  0  0  0
    8.1250  -17.7912   26.6763 C   0  0  1  0  0  0  0  0  0  0  0  0
    7.3623  -19.0600   26.4522 C   0  0  0  0  0  0  0  0  0  0  0  0
    7.7264  -20.1621   27.3699 C   0  0  0  0  0  0  0  0  0  0  0  0
    8.6807  -20.2055   28.3720 C   0  0  0  0  0  0  0  0  0  0  0  0
    8.6489  -21.4282   28.9169 N   0  0  0  0  0  0  0  0  0  0  0  0
    7.7167  -22.1674   28.3069 C   0  0  0  0  0  0  0  0  0  0  0  0
    7.1641  -21.4052   27.3786 N   0  0  0  0  0  0  0  0  0  0  0  0
    9.5949  -18.0469   26.7484 C   0  0  0  0  0  0  0  0  0  0  0  0
    9.9660  -18.8766   27.6509 O   0  0  0  0  0  0  0  0  0  0  0  0
   10.5179  -17.4547   25.9215 O   0  0  0  0  0  0  0  0  0  0  0  0
  1  2  1  0
  2  3  1  0
  3  4  1  1
  5  3  1  0
  5  6  1  6
  7  8  2  0
  7  5  1  0
 10  9  1  6
 10 12  1  0
 11 10  1  0
 13 12  1  1
 13 14  1  0
 14  7  1  0
 15 17  1  0
 15 13  1  0
 16 15  2  0
 18 17  1  0
 18 25  1  0
 19 20  1  0
 18 19  1  6
 20 21  2  0
 21 22  1  0
 23 22  1  0
 24 20  1  0
 24 23  2  0
 25 27  1  0
 26 25  2  0
M  END
$$$$
