ILH.pdb
     RDKit          3D

 27 27  0  0  1  0  0  0  0  0999 V2000
    8.5870  -13.3085   28.0422 C   0  0  0  0  0  0  0  0  0  0  0  0
    7.4529  -13.9902   27.3403 C   0  0  0  0  0  0  0  0  0  0  0  0
    7.8823  -14.6471   26.0468 C   0  0  2  0  0  0  0  0  0  0  0  0
    8.5724  -13.6357   25.1774 C   0  0  0  0  0  0  0  0  0  0  0  0
    6.6980  -15.2246   25.3041 C   0  0  2  0  0  0  0  0  0  0  0  0
    6.0675  -16.2423   26.1210 N   0  0  0  0  0  0  0  0  0  0  0  0
    7.1390  -15.8213   23.9933 C   0  0  0  0  0  0  0  0  0  0  0  0
    7.2789  -17.0699   23.8765 O   0  0  0  0  0  0  0  0  0  0  0  0
    7.4869  -12.3783   19.4058 C   0  0  0  0  0  0  0  0  0  0  0  0
    8.0975  -13.3286   20.4415 C   0  0  1  0  0  0  0  0  0  0  0  0
    8.0254  -12.5683   21.7759 C   0  0  0  0  0  0  0  0  0  0  0  0
    7.2537  -14.5499   20.4960 C   0  0  0  0  0  0  0  0  0  0  0  0
    7.6488  -15.5551   21.5237 C   0  0  2  0  0  0  0  0  0  0  0  0
    7.4068  -15.0067   22.8641 N   0  0  0  0  0  0  0  0  0  0  0  0
    9.0545  -16.0231   21.4018 C   0  0  0  0  0  0  0  0  0  0  0  0
    9.4967  -16.3925   20.2857 O   0  0  0  0  0  0  0  0  0  0  0  0
    9.9430  -16.0747   22.5080 N   0  0  0  0  0  0  0  0  0  0  0  0
   11.2931  -16.5294   22.3223 C   0  0  1  0  0  0  0  0  0  0  0  0
   12.0491  -15.7184   21.3161 C   0  0  0  0  0  0  0  0  0  0  0  0
   12.1871  -16.3626   19.9912 C   0  0  0  0  0  0  0  0  0  0  0  0
   11.7236  -17.5892   19.5469 C   0  0  0  0  0  0  0  0  0  0  0  0
   12.1124  -17.7388   18.2743 N   0  0  0  0  0  0  0  0  0  0  0  0
   12.8037  -16.6621   17.8866 C   0  0  0  0  0  0  0  0  0  0  0  0
   12.8472  -15.8372   18.9189 N   0  0  0  0  0  0  0  0  0  0  0  0
   12.0323  -16.6137   23.6175 C   0  0  0  0  0  0  0  0  0  0  0  0
   13.2350  -17.0471   23.5382 O   0  0  0  0  0  0  0  0  0  0  0  0
   11.4960  -16.2592   24.8313 O   0  0  0  0  0  0  0  0  0  0  0  0
  1  2  1  0
  2  3  1  0
  3  4  1  6
  5  3  1  0
  5  6  1  1
  7  8  2  0
  7  5  1  0
 10  9  1  6
 10 12  1  0
 11 10  1  0
 13 12  1  6
 13 14  1  0
 14  7  1  0
 15 17  1  0
 15 13  1  0
 16 15  2  0
 18 17  1  0
 18 25  1  0
 19 20  1  0
 18 19  1  6
 20 21  2  0
 21 22  1  0
 23 22  1  0
 24 20  1  0
 24 23  2  0
 25 27  1  0
 26 25  2  0
M  END
$$$$
