ILH.pdb
     RDKit          3D

 27 27  0  0  1  0  0  0  0  0999 V2000
    8.7790  -12.2822   27.4955 C   0  0  0  0  0  0  0  0  0  0  0  0
    8.1130  -13.5575   27.0787 C   0  0  0  0  0  0  0  0  0  0  0  0
    7.0376  -13.3369   26.0377 C   0  0  2  0  0  0  0  0  0  0  0  0
    5.9505  -12.4773   26.6160 C   0  0  0  0  0  0  0  0  0  0  0  0
    6.4470  -14.6487   25.5710 C   0  0  2  0  0  0  0  0  0  0  0  0
    6.2342  -15.5141   26.7141 N   0  0  0  0  0  0  0  0  0  0  0  0
    7.3678  -15.3196   24.5859 C   0  0  0  0  0  0  0  0  0  0  0  0
    7.8022  -16.4829   24.8098 O   0  0  0  0  0  0  0  0  0  0  0  0
    7.5342  -12.8344   19.6576 C   0  0  0  0  0  0  0  0  0  0  0  0
    7.2696  -13.8983   20.7284 C   0  0  1  0  0  0  0  0  0  0  0  0
    6.3904  -14.9536   20.0375 C   0  0  0  0  0  0  0  0  0  0  0  0
    8.5752  -14.4889   21.1197 C   0  0  0  0  0  0  0  0  0  0  0  0
    8.5513  -15.3402   22.3433 C   0  0  2  0  0  0  0  0  0  0  0  0
    7.7693  -14.6710   23.3906 N   0  0  0  0  0  0  0  0  0  0  0  0
    9.8997  -15.7008   22.8548 C   0  0  0  0  0  0  0  0  0  0  0  0
   10.4959  -14.9291   23.6464 O   0  0  0  0  0  0  0  0  0  0  0  0
   10.5631  -16.9006   22.4856 N   0  0  0  0  0  0  0  0  0  0  0  0
   11.8821  -17.1733   22.9855 C   0  0  1  0  0  0  0  0  0  0  0  0
   12.0612  -18.5965   23.4144 C   0  0  0  0  0  0  0  0  0  0  0  0
   11.2122  -19.0020   24.5564 C   0  0  0  0  0  0  0  0  0  0  0  0
   10.8677  -18.3021   25.7001 C   0  0  0  0  0  0  0  0  0  0  0  0
   10.0909  -19.0953   26.4488 N   0  0  0  0  0  0  0  0  0  0  0  0
    9.9243  -20.2706   25.8337 C   0  0  0  0  0  0  0  0  0  0  0  0
   10.5984  -20.2123   24.6977 N   0  0  0  0  0  0  0  0  0  0  0  0
   12.9388  -16.7623   22.0131 C   0  0  0  0  0  0  0  0  0  0  0  0
   12.5120  -16.3344   20.8839 O   0  0  0  0  0  0  0  0  0  0  0  0
   14.2861  -16.8221   22.2737 O   0  0  0  0  0  0  0  0  0  0  0  0
  1  2  1  0
  2  3  1  0
  3  4  1  1
  5  3  1  0
  5  6  1  1
  7  8  2  0
  7  5  1  0
 10  9  1  6
 10 12  1  0
 11 10  1  0
 13 12  1  6
 13 14  1  0
 14  7  1  0
 15 17  1  0
 15 13  1  0
 16 15  2  0
 18 17  1  0
 18 25  1  0
 19 20  1  0
 18 19  1  6
 20 21  2  0
 21 22  1  0
 23 22  1  0
 24 20  1  0
 24 23  2  0
 25 27  1  0
 26 25  2  0
M  END
$$$$
