ILH.pdb
     RDKit          3D

 27 27  0  0  1  0  0  0  0  0999 V2000
    9.6368  -20.7948   20.0210 C   0  0  0  0  0  0  0  0  0  0  0  0
    9.0198  -19.4552   19.7595 C   0  0  0  0  0  0  0  0  0  0  0  0
    9.3414  -18.4475   20.8412 C   0  0  2  0  0  0  0  0  0  0  0  0
    8.9300  -18.9985   22.1762 C   0  0  0  0  0  0  0  0  0  0  0  0
    8.6308  -17.1347   20.5981 C   0  0  2  0  0  0  0  0  0  0  0  0
    8.9937  -16.6262   19.2903 N   0  0  0  0  0  0  0  0  0  0  0  0
    9.0019  -16.1313   21.6583 C   0  0  0  0  0  0  0  0  0  0  0  0
   10.1993  -15.7556   21.7888 O   0  0  0  0  0  0  0  0  0  0  0  0
    7.5807  -12.0671   25.0876 C   0  0  0  0  0  0  0  0  0  0  0  0
    7.3402  -13.4907   25.6014 C   0  0  1  0  0  0  0  0  0  0  0  0
    6.0504  -13.4049   26.4336 C   0  0  0  0  0  0  0  0  0  0  0  0
    7.1384  -14.3743   24.4245 C   0  0  0  0  0  0  0  0  0  0  0  0
    8.3613  -14.6586   23.6206 C   0  0  2  0  0  0  0  0  0  0  0  0
    8.0273  -15.5849   22.5313 N   0  0  0  0  0  0  0  0  0  0  0  0
    9.4993  -15.1863   24.4183 C   0  0  0  0  0  0  0  0  0  0  0  0
   10.6251  -14.6343   24.3439 O   0  0  0  0  0  0  0  0  0  0  0  0
    9.3755  -16.3081   25.2798 N   0  0  0  0  0  0  0  0  0  0  0  0
   10.0899  -16.3369   26.5260 C   0  0  1  0  0  0  0  0  0  0  0  0
    9.8007  -15.1506   27.3923 C   0  0  0  0  0  0  0  0  0  0  0  0
   10.4429  -15.1956   28.7245 C   0  0  0  0  0  0  0  0  0  0  0  0
   11.2398  -16.1739   29.2942 C   0  0  0  0  0  0  0  0  0  0  0  0
   11.5700  -15.7684   30.5269 N   0  0  0  0  0  0  0  0  0  0  0  0
   11.0191  -14.5747   30.7694 C   0  0  0  0  0  0  0  0  0  0  0  0
   10.3430  -14.2327   29.6859 N   0  0  0  0  0  0  0  0  0  0  0  0
    9.8647  -17.6159   27.2640 C   0  0  0  0  0  0  0  0  0  0  0  0
    8.8312  -18.2831   26.9072 O   0  0  0  0  0  0  0  0  0  0  0  0
   10.6863  -18.0807   28.2618 O   0  0  0  0  0  0  0  0  0  0  0  0
  1  2  1  0
  2  3  1  0
  3  4  1  1
  5  3  1  0
  5  6  1  6
  7  8  2  0
  7  5  1  0
 10  9  1  6
 10 12  1  0
 11 10  1  0
 13 12  1  1
 13 14  1  0
 14  7  1  0
 15 17  1  0
 15 13  1  0
 16 15  2  0
 18 17  1  0
 18 25  1  0
 19 20  1  0
 18 19  1  1
 20 21  2  0
 21 22  1  0
 23 22  1  0
 24 20  1  0
 24 23  2  0
 25 27  1  0
 26 25  2  0
M  END
$$$$
