ILH.pdb
     RDKit          3D

 27 27  0  0  1  0  0  0  0  0999 V2000
    7.5988  -15.4750   17.3161 C   0  0  0  0  0  0  0  0  0  0  0  0
    7.6156  -14.2776   18.2158 C   0  0  0  0  0  0  0  0  0  0  0  0
    7.9634  -14.6310   19.6452 C   0  0  2  0  0  0  0  0  0  0  0  0
    7.0477  -15.7187   20.1283 C   0  0  0  0  0  0  0  0  0  0  0  0
    7.8397  -13.4285   20.5543 C   0  0  2  0  0  0  0  0  0  0  0  0
    8.5648  -12.3135   19.9784 N   0  0  0  0  0  0  0  0  0  0  0  0
    8.3875  -13.7439   21.9214 C   0  0  0  0  0  0  0  0  0  0  0  0
    9.6309  -13.8675   22.0967 O   0  0  0  0  0  0  0  0  0  0  0  0
    5.5169  -12.2759   26.4835 C   0  0  0  0  0  0  0  0  0  0  0  0
    6.6838  -12.4368   25.5033 C   0  0  1  0  0  0  0  0  0  0  0  0
    7.8580  -11.6834   26.1495 C   0  0  0  0  0  0  0  0  0  0  0  0
    6.9953  -13.8853   25.3959 C   0  0  0  0  0  0  0  0  0  0  0  0
    8.0265  -14.2444   24.3809 C   0  0  2  0  0  0  0  0  0  0  0  0
    7.5316  -13.9090   23.0397 N   0  0  0  0  0  0  0  0  0  0  0  0
    8.4563  -15.6665   24.4334 C   0  0  0  0  0  0  0  0  0  0  0  0
    8.2732  -16.4129   23.4400 O   0  0  0  0  0  0  0  0  0  0  0  0
    9.0775  -16.2370   25.5756 N   0  0  0  0  0  0  0  0  0  0  0  0
   10.0447  -17.2873   25.4158 C   0  0  1  0  0  0  0  0  0  0  0  0
   11.1390  -16.9324   24.4575 C   0  0  0  0  0  0  0  0  0  0  0  0
   10.8860  -17.3479   23.0602 C   0  0  0  0  0  0  0  0  0  0  0  0
    9.7904  -17.9895   22.5083 C   0  0  0  0  0  0  0  0  0  0  0  0
   10.0325  -18.1670   21.2033 N   0  0  0  0  0  0  0  0  0  0  0  0
   11.2343  -17.6672   20.8977 C   0  0  0  0  0  0  0  0  0  0  0  0
   11.7449  -17.1759   22.0140 N   0  0  0  0  0  0  0  0  0  0  0  0
   10.5974  -17.7357   26.7291 C   0  0  0  0  0  0  0  0  0  0  0  0
   10.2268  -17.0503   27.7456 O   0  0  0  0  0  0  0  0  0  0  0  0
   11.4462  -18.8051   26.8791 O   0  0  0  0  0  0  0  0  0  0  0  0
  1  2  1  0
  2  3  1  0
  3  4  1  1
  5  3  1  0
  5  6  1  6
  7  8  2  0
  7  5  1  0
 10  9  1  1
 10 12  1  0
 11 10  1  0
 13 12  1  1
 13 14  1  0
 14  7  1  0
 15 17  1  0
 15 13  1  0
 16 15  2  0
 18 17  1  0
 18 25  1  0
 19 20  1  0
 18 19  1  6
 20 21  2  0
 21 22  1  0
 23 22  1  0
 24 20  1  0
 24 23  2  0
 25 27  1  0
 26 25  2  0
M  END
$$$$
