ILH.pdb
     RDKit          3D

 27 27  0  0  1  0  0  0  0  0999 V2000
    7.6518  -19.7449   21.5750 C   0  0  0  0  0  0  0  0  0  0  0  0
    8.3933  -18.4443   21.5277 C   0  0  0  0  0  0  0  0  0  0  0  0
    7.5592  -17.3219   20.9503 C   0  0  2  0  0  0  0  0  0  0  0  0
    7.1098  -17.6937   19.5665 C   0  0  0  0  0  0  0  0  0  0  0  0
    8.3414  -16.0285   20.8947 C   0  0  2  0  0  0  0  0  0  0  0  0
    9.5741  -16.2429   20.1632 N   0  0  0  0  0  0  0  0  0  0  0  0
    8.6501  -15.5401   22.2857 C   0  0  0  0  0  0  0  0  0  0  0  0
    9.7645  -15.7973   22.8186 O   0  0  0  0  0  0  0  0  0  0  0  0
    8.1933  -11.9215   26.3498 C   0  0  0  0  0  0  0  0  0  0  0  0
    6.9981  -12.8700   26.2084 C   0  0  1  0  0  0  0  0  0  0  0  0
    5.7652  -12.0158   26.5462 C   0  0  0  0  0  0  0  0  0  0  0  0
    6.9399  -13.3259   24.7958 C   0  0  0  0  0  0  0  0  0  0  0  0
    7.9381  -14.3667   24.4178 C   0  0  2  0  0  0  0  0  0  0  0  0
    7.7081  -14.7849   23.0292 N   0  0  0  0  0  0  0  0  0  0  0  0
    7.9491  -15.5487   25.3193 C   0  0  0  0  0  0  0  0  0  0  0  0
    6.9558  -16.3165   25.3571 O   0  0  0  0  0  0  0  0  0  0  0  0
    9.0507  -15.8611   26.1589 N   0  0  0  0  0  0  0  0  0  0  0  0
    9.3301  -17.2297   26.4949 C   0  0  1  0  0  0  0  0  0  0  0  0
    9.9651  -17.9888   25.3714 C   0  0  0  0  0  0  0  0  0  0  0  0
   10.3034  -19.3921   25.6964 C   0  0  0  0  0  0  0  0  0  0  0  0
   10.2273  -20.0682   26.9021 C   0  0  0  0  0  0  0  0  0  0  0  0
   10.6590  -21.3194   26.6995 N   0  0  0  0  0  0  0  0  0  0  0  0
   11.0074  -21.4720   25.4178 C   0  0  0  0  0  0  0  0  0  0  0  0
   10.7930  -20.3137   24.8174 N   0  0  0  0  0  0  0  0  0  0  0  0
   10.1363  -17.3389   27.7477 C   0  0  0  0  0  0  0  0  0  0  0  0
   10.4889  -18.5262   28.0741 O   0  0  0  0  0  0  0  0  0  0  0  0
   10.4968  -16.2646   28.5240 O   0  0  0  0  0  0  0  0  0  0  0  0
  1  2  1  0
  2  3  1  0
  3  4  1  6
  5  3  1  0
  5  6  1  6
  7  8  2  0
  7  5  1  0
 10  9  1  6
 10 12  1  0
 11 10  1  0
 13 12  1  1
 13 14  1  0
 14  7  1  0
 15 17  1  0
 15 13  1  0
 16 15  2  0
 18 17  1  0
 18 25  1  0
 19 20  1  0
 18 19  1  6
 20 21  2  0
 21 22  1  0
 23 22  1  0
 24 20  1  0
 24 23  2  0
 25 27  1  0
 26 25  2  0
M  END
$$$$
