ILH.pdb
     RDKit          3D

 27 27  0  0  1  0  0  0  0  0999 V2000
    7.1439  -17.5597   18.5972 C   0  0  0  0  0  0  0  0  0  0  0  0
    7.1080  -16.1484   19.0978 C   0  0  0  0  0  0  0  0  0  0  0  0
    7.6877  -16.0115   20.4885 C   0  0  2  0  0  0  0  0  0  0  0  0
    7.0588  -17.0302   21.3950 C   0  0  0  0  0  0  0  0  0  0  0  0
    7.4520  -14.6263   21.0483 C   0  0  2  0  0  0  0  0  0  0  0  0
    7.9806  -13.6392   20.1280 N   0  0  0  0  0  0  0  0  0  0  0  0
    8.1172  -14.4814   22.3918 C   0  0  0  0  0  0  0  0  0  0  0  0
    9.3650  -14.3106   22.4698 O   0  0  0  0  0  0  0  0  0  0  0  0
    5.7733  -11.8528   26.6061 C   0  0  0  0  0  0  0  0  0  0  0  0
    6.8078  -12.3542   25.5927 C   0  0  1  0  0  0  0  0  0  0  0  0
    8.0705  -11.5191   25.8610 C   0  0  0  0  0  0  0  0  0  0  0  0
    7.0674  -13.7893   25.8751 C   0  0  0  0  0  0  0  0  0  0  0  0
    7.9909  -14.4716   24.9243 C   0  0  2  0  0  0  0  0  0  0  0  0
    7.3693  -14.5316   23.5953 N   0  0  0  0  0  0  0  0  0  0  0  0
    8.4123  -15.8288   25.3605 C   0  0  0  0  0  0  0  0  0  0  0  0
    7.5482  -16.7174   25.5639 O   0  0  0  0  0  0  0  0  0  0  0  0
    9.7731  -16.1798   25.5633 N   0  0  0  0  0  0  0  0  0  0  0  0
   10.1151  -17.5110   25.9818 C   0  0  1  0  0  0  0  0  0  0  0  0
   11.3579  -18.0279   25.3261 C   0  0  0  0  0  0  0  0  0  0  0  0
   11.3259  -17.9986   23.8471 C   0  0  0  0  0  0  0  0  0  0  0  0
   10.3571  -18.4556   22.9700 C   0  0  0  0  0  0  0  0  0  0  0  0
   10.7876  -18.2212   21.7239 N   0  0  0  0  0  0  0  0  0  0  0  0
   11.9884  -17.6348   21.7667 C   0  0  0  0  0  0  0  0  0  0  0  0
   12.3095  -17.5021   23.0424 N   0  0  0  0  0  0  0  0  0  0  0  0
   10.2009  -17.6191   27.4691 C   0  0  0  0  0  0  0  0  0  0  0  0
   10.0097  -16.5283   28.1126 O   0  0  0  0  0  0  0  0  0  0  0  0
   10.4631  -18.7890   28.1393 O   0  0  0  0  0  0  0  0  0  0  0  0
  1  2  1  0
  2  3  1  0
  3  4  1  1
  5  3  1  0
  5  6  1  6
  7  8  2  0
  7  5  1  0
 10  9  1  1
 10 12  1  0
 11 10  1  0
 13 12  1  1
 13 14  1  0
 14  7  1  0
 15 17  1  0
 15 13  1  0
 16 15  2  0
 18 17  1  0
 18 25  1  0
 19 20  1  0
 18 19  1  6
 20 21  2  0
 21 22  1  0
 23 22  1  0
 24 20  1  0
 24 23  2  0
 25 27  1  0
 26 25  2  0
M  END
$$$$
