ILH.pdb
     RDKit          3D

 27 27  0  0  1  0  0  0  0  0999 V2000
    6.6515  -19.6754   20.4857 C   0  0  0  0  0  0  0  0  0  0  0  0
    6.9081  -18.2090   20.3204 C   0  0  0  0  0  0  0  0  0  0  0  0
    7.6721  -17.6191   21.4854 C   0  0  2  0  0  0  0  0  0  0  0  0
    6.9322  -17.8990   22.7618 C   0  0  0  0  0  0  0  0  0  0  0  0
    7.8517  -16.1259   21.3251 C   0  0  2  0  0  0  0  0  0  0  0  0
    8.3875  -15.8444   20.0081 N   0  0  0  0  0  0  0  0  0  0  0  0
    8.7832  -15.5916   22.3813 C   0  0  0  0  0  0  0  0  0  0  0  0
   10.0325  -15.6325   22.2090 O   0  0  0  0  0  0  0  0  0  0  0  0
    7.4774  -12.7739   27.4466 C   0  0  0  0  0  0  0  0  0  0  0  0
    7.3865  -13.7129   26.2390 C   0  0  1  0  0  0  0  0  0  0  0  0
    5.9643  -13.5212   25.6872 C   0  0  0  0  0  0  0  0  0  0  0  0
    8.3928  -13.2720   25.2392 C   0  0  0  0  0  0  0  0  0  0  0  0
    9.1526  -14.3666   24.5706 C   0  0  2  0  0  0  0  0  0  0  0  0
    8.2892  -15.0326   23.5871 N   0  0  0  0  0  0  0  0  0  0  0  0
    9.7302  -15.3626   25.5109 C   0  0  0  0  0  0  0  0  0  0  0  0
   10.5790  -15.0004   26.3629 O   0  0  0  0  0  0  0  0  0  0  0  0
    9.3627  -16.7340   25.4946 N   0  0  0  0  0  0  0  0  0  0  0  0
   10.0179  -17.6620   26.3742 C   0  0  1  0  0  0  0  0  0  0  0  0
   11.4947  -17.7435   26.1418 C   0  0  0  0  0  0  0  0  0  0  0  0
   11.8760  -18.1708   24.7775 C   0  0  0  0  0  0  0  0  0  0  0  0
   11.0793  -18.5040   23.6955 C   0  0  0  0  0  0  0  0  0  0  0  0
   11.8850  -18.8422   22.6808 N   0  0  0  0  0  0  0  0  0  0  0  0
   13.1607  -18.7397   23.0672 C   0  0  0  0  0  0  0  0  0  0  0  0
   13.1530  -18.3364   24.3263 N   0  0  0  0  0  0  0  0  0  0  0  0
    9.7087  -17.3789   27.8078 C   0  0  0  0  0  0  0  0  0  0  0  0
   10.2271  -18.1891   28.6536 O   0  0  0  0  0  0  0  0  0  0  0  0
    8.9278  -16.3314   28.2317 O   0  0  0  0  0  0  0  0  0  0  0  0
  1  2  1  0
  2  3  1  0
  3  4  1  1
  5  3  1  0
  5  6  1  6
  7  8  2  0
  7  5  1  0
 10  9  1  1
 10 12  1  0
 11 10  1  0
 13 12  1  1
 13 14  1  0
 14  7  1  0
 15 17  1  0
 15 13  1  0
 16 15  2  0
 18 17  1  0
 18 25  1  0
 19 20  1  0
 18 19  1  1
 20 21  2  0
 21 22  1  0
 23 22  1  0
 24 20  1  0
 24 23  2  0
 25 27  1  0
 26 25  2  0
M  END
$$$$
