ILH.pdb
     RDKit          3D

 27 27  0  0  1  0  0  0  0  0999 V2000
    7.4526  -12.1257   28.6390 C   0  0  0  0  0  0  0  0  0  0  0  0
    6.4889  -12.8229   27.7288 C   0  0  0  0  0  0  0  0  0  0  0  0
    7.1768  -13.4950   26.5609 C   0  0  2  0  0  0  0  0  0  0  0  0
    7.9216  -12.4661   25.7597 C   0  0  0  0  0  0  0  0  0  0  0  0
    6.1808  -14.2025   25.6693 C   0  0  2  0  0  0  0  0  0  0  0  0
    5.5035  -15.2345   26.4289 N   0  0  0  0  0  0  0  0  0  0  0  0
    6.8784  -14.8147   24.4831 C   0  0  0  0  0  0  0  0  0  0  0  0
    6.8939  -16.0670   24.3294 O   0  0  0  0  0  0  0  0  0  0  0  0
    7.2288  -14.3403   19.1947 C   0  0  0  0  0  0  0  0  0  0  0  0
    8.4434  -13.6852   19.8610 C   0  0  1  0  0  0  0  0  0  0  0  0
    8.7090  -12.4089   19.0459 C   0  0  0  0  0  0  0  0  0  0  0  0
    8.0692  -13.3392   21.2563 C   0  0  0  0  0  0  0  0  0  0  0  0
    7.8747  -14.4988   22.1728 C   0  0  2  0  0  0  0  0  0  0  0  0
    7.5309  -14.0108   23.5144 N   0  0  0  0  0  0  0  0  0  0  0  0
    9.0410  -15.4182   22.2396 C   0  0  0  0  0  0  0  0  0  0  0  0
    9.4249  -16.0184   21.2052 O   0  0  0  0  0  0  0  0  0  0  0  0
    9.7594  -15.6577   23.4406 N   0  0  0  0  0  0  0  0  0  0  0  0
   10.7843  -16.6640   23.4740 C   0  0  1  0  0  0  0  0  0  0  0  0
   10.4137  -17.9001   22.7148 C   0  0  0  0  0  0  0  0  0  0  0  0
    9.2969  -18.6692   23.3070 C   0  0  0  0  0  0  0  0  0  0  0  0
    8.6006  -18.4605   24.4852 C   0  0  0  0  0  0  0  0  0  0  0  0
    7.6871  -19.4328   24.6003 N   0  0  0  0  0  0  0  0  0  0  0  0
    7.7695  -20.2530   23.5478 C   0  0  0  0  0  0  0  0  0  0  0  0
    8.7366  -19.7926   22.7726 N   0  0  0  0  0  0  0  0  0  0  0  0
   12.1035  -16.1262   23.0250 C   0  0  0  0  0  0  0  0  0  0  0  0
   13.0850  -16.9462   23.0940 O   0  0  0  0  0  0  0  0  0  0  0  0
   12.2928  -14.8470   22.5620 O   0  0  0  0  0  0  0  0  0  0  0  0
  1  2  1  0
  2  3  1  0
  3  4  1  6
  5  3  1  0
  5  6  1  1
  7  8  2  0
  7  5  1  0
 10  9  1  6
 10 12  1  0
 11 10  1  0
 13 12  1  6
 13 14  1  0
 14  7  1  0
 15 17  1  0
 15 13  1  0
 16 15  2  0
 18 17  1  0
 18 25  1  0
 19 20  1  0
 18 19  1  6
 20 21  2  0
 21 22  1  0
 23 22  1  0
 24 20  1  0
 24 23  2  0
 25 27  1  0
 26 25  2  0
M  END
$$$$
