ILH.pdb
     RDKit          3D

 27 27  0  0  1  0  0  0  0  0999 V2000
   10.0028  -21.7377   17.1751 C   0  0  0  0  0  0  0  0  0  0  0  0
    9.7975  -20.2904   16.8484 C   0  0  0  0  0  0  0  0  0  0  0  0
    9.9763  -19.3929   18.0531 C   0  0  2  0  0  0  0  0  0  0  0  0
    9.0403  -19.8277   19.1440 C   0  0  0  0  0  0  0  0  0  0  0  0
    9.7061  -17.9459   17.7054 C   0  0  2  0  0  0  0  0  0  0  0  0
   10.5311  -17.5600   16.5780 N   0  0  0  0  0  0  0  0  0  0  0  0
   10.0029  -17.0571   18.8846 C   0  0  0  0  0  0  0  0  0  0  0  0
   11.1886  -16.9127   19.2913 O   0  0  0  0  0  0  0  0  0  0  0  0
    6.4387  -12.9513   20.0745 C   0  0  0  0  0  0  0  0  0  0  0  0
    7.7560  -13.6729   19.7708 C   0  0  1  0  0  0  0  0  0  0  0  0
    8.8118  -12.5591   19.6775 C   0  0  0  0  0  0  0  0  0  0  0  0
    8.0569  -14.5763   20.9109 C   0  0  0  0  0  0  0  0  0  0  0  0
    9.2212  -15.4868   20.7157 C   0  0  2  0  0  0  0  0  0  0  0  0
    8.9701  -16.3636   19.5649 N   0  0  0  0  0  0  0  0  0  0  0  0
    9.5649  -16.2936   21.9160 C   0  0  0  0  0  0  0  0  0  0  0  0
    8.7814  -17.1921   22.3118 O   0  0  0  0  0  0  0  0  0  0  0  0
   10.7612  -16.0959   22.6547 N   0  0  0  0  0  0  0  0  0  0  0  0
   10.9937  -16.8475   23.8569 C   0  0  1  0  0  0  0  0  0  0  0  0
   12.3798  -17.4078   23.9362 C   0  0  0  0  0  0  0  0  0  0  0  0
   12.6587  -18.4883   22.9646 C   0  0  0  0  0  0  0  0  0  0  0  0
   11.7853  -19.2466   22.2039 C   0  0  0  0  0  0  0  0  0  0  0  0
   12.5114  -20.1123   21.4853 N   0  0  0  0  0  0  0  0  0  0  0  0
   13.8098  -19.9403   21.7537 C   0  0  0  0  0  0  0  0  0  0  0  0
   13.8959  -18.9648   22.6420 N   0  0  0  0  0  0  0  0  0  0  0  0
   10.6572  -16.0565   25.0784 C   0  0  0  0  0  0  0  0  0  0  0  0
   10.2805  -14.8506   24.8673 O   0  0  0  0  0  0  0  0  0  0  0  0
   10.7320  -16.5514   26.3575 O   0  0  0  0  0  0  0  0  0  0  0  0
  1  2  1  0
  2  3  1  0
  3  4  1  1
  5  3  1  0
  5  6  1  6
  7  8  2  0
  7  5  1  0
 10  9  1  1
 10 12  1  0
 11 10  1  0
 13 12  1  1
 13 14  1  0
 14  7  1  0
 15 17  1  0
 15 13  1  0
 16 15  2  0
 18 17  1  0
 18 25  1  0
 19 20  1  0
 18 19  1  1
 20 21  2  0
 21 22  1  0
 23 22  1  0
 24 20  1  0
 24 23  2  0
 25 27  1  0
 26 25  2  0
M  END
$$$$
