ILH.pdb
     RDKit          3D

 27 27  0  0  1  0  0  0  0  0999 V2000
    8.4954  -19.8606   20.1460 C   0  0  0  0  0  0  0  0  0  0  0  0
    8.4532  -18.3734   19.9732 C   0  0  0  0  0  0  0  0  0  0  0  0
    8.6329  -17.6324   21.2800 C   0  0  2  0  0  0  0  0  0  0  0  0
    7.5669  -18.0594   22.2477 C   0  0  0  0  0  0  0  0  0  0  0  0
    8.5584  -16.1354   21.0777 C   0  0  2  0  0  0  0  0  0  0  0  0
    9.4855  -15.7442   20.0345 N   0  0  0  0  0  0  0  0  0  0  0  0
    8.8934  -15.4142   22.3568 C   0  0  0  0  0  0  0  0  0  0  0  0
   10.0852  -15.3673   22.7686 O   0  0  0  0  0  0  0  0  0  0  0  0
    5.8031  -11.7110   26.2488 C   0  0  0  0  0  0  0  0  0  0  0  0
    7.1643  -12.3345   25.9225 C   0  0  1  0  0  0  0  0  0  0  0  0
    7.5052  -13.2132   27.1372 C   0  0  0  0  0  0  0  0  0  0  0  0
    7.0045  -13.1728   24.7066 C   0  0  0  0  0  0  0  0  0  0  0  0
    8.1875  -14.0037   24.3423 C   0  0  2  0  0  0  0  0  0  0  0  0
    7.8905  -14.7733   23.1275 N   0  0  0  0  0  0  0  0  0  0  0  0
    8.6480  -14.9081   25.4285 C   0  0  0  0  0  0  0  0  0  0  0  0
    9.0439  -14.4262   26.5187 O   0  0  0  0  0  0  0  0  0  0  0  0
    8.6631  -16.3215   25.2932 N   0  0  0  0  0  0  0  0  0  0  0  0
    9.2094  -17.1361   26.3429 C   0  0  1  0  0  0  0  0  0  0  0  0
    9.2217  -18.5944   26.0039 C   0  0  0  0  0  0  0  0  0  0  0  0
    9.7681  -19.4646   27.0685 C   0  0  0  0  0  0  0  0  0  0  0  0
   10.2593  -19.1358   28.3203 C   0  0  0  0  0  0  0  0  0  0  0  0
   10.6556  -20.2674   28.9165 N   0  0  0  0  0  0  0  0  0  0  0  0
   10.4392  -21.3041   28.1006 C   0  0  0  0  0  0  0  0  0  0  0  0
    9.9063  -20.8199   26.9917 N   0  0  0  0  0  0  0  0  0  0  0  0
   10.5635  -16.6648   26.7620 C   0  0  0  0  0  0  0  0  0  0  0  0
   11.3762  -16.4046   25.8069 O   0  0  0  0  0  0  0  0  0  0  0  0
   10.9496  -16.5065   28.0706 O   0  0  0  0  0  0  0  0  0  0  0  0
  1  2  1  0
  2  3  1  0
  3  4  1  1
  5  3  1  0
  5  6  1  6
  7  8  2  0
  7  5  1  0
 10  9  1  1
 10 12  1  0
 11 10  1  0
 13 12  1  1
 13 14  1  0
 14  7  1  0
 15 17  1  0
 15 13  1  0
 16 15  2  0
 18 17  1  0
 18 25  1  0
 19 20  1  0
 18 19  1  6
 20 21  2  0
 21 22  1  0
 23 22  1  0
 24 20  1  0
 24 23  2  0
 25 27  1  0
 26 25  2  0
M  END
$$$$
