ILH.pdb
     RDKit          3D

 27 27  0  0  1  0  0  0  0  0999 V2000
    9.0312  -13.7604   28.4424 C   0  0  0  0  0  0  0  0  0  0  0  0
    7.9054  -14.0745   27.5057 C   0  0  0  0  0  0  0  0  0  0  0  0
    8.3796  -14.7346   26.2297 C   0  0  2  0  0  0  0  0  0  0  0  0
    9.4227  -13.8726   25.5785 C   0  0  0  0  0  0  0  0  0  0  0  0
    7.2347  -14.9536   25.2659 C   0  0  2  0  0  0  0  0  0  0  0  0
    6.2753  -15.8647   25.8578 N   0  0  0  0  0  0  0  0  0  0  0  0
    7.7424  -15.5191   23.9655 C   0  0  0  0  0  0  0  0  0  0  0  0
    7.7181  -16.7637   23.7591 O   0  0  0  0  0  0  0  0  0  0  0  0
    7.8000  -11.7973   20.1184 C   0  0  0  0  0  0  0  0  0  0  0  0
    7.4601  -13.0742   20.8946 C   0  0  1  0  0  0  0  0  0  0  0  0
    6.1180  -13.5510   20.3157 C   0  0  0  0  0  0  0  0  0  0  0  0
    8.5250  -14.0732   20.6217 C   0  0  0  0  0  0  0  0  0  0  0  0
    8.6375  -15.1767   21.6178 C   0  0  2  0  0  0  0  0  0  0  0  0
    8.2568  -14.6789   22.9458 N   0  0  0  0  0  0  0  0  0  0  0  0
    9.9813  -15.8103   21.6682 C   0  0  0  0  0  0  0  0  0  0  0  0
   10.3780  -16.5142   20.7066 O   0  0  0  0  0  0  0  0  0  0  0  0
   10.8595  -15.6565   22.7733 N   0  0  0  0  0  0  0  0  0  0  0  0
   12.0375  -16.4730   22.8716 C   0  0  1  0  0  0  0  0  0  0  0  0
   13.2797  -15.7607   22.4344 C   0  0  0  0  0  0  0  0  0  0  0  0
   13.4079  -15.5992   20.9693 C   0  0  0  0  0  0  0  0  0  0  0  0
   12.5895  -16.0550   19.9499 C   0  0  0  0  0  0  0  0  0  0  0  0
   13.1302  -15.6718   18.7864 N   0  0  0  0  0  0  0  0  0  0  0  0
   14.2576  -14.9916   19.0178 C   0  0  0  0  0  0  0  0  0  0  0  0
   14.4224  -14.9491   20.3289 N   0  0  0  0  0  0  0  0  0  0  0  0
   12.1969  -17.0529   24.2389 C   0  0  0  0  0  0  0  0  0  0  0  0
   13.2404  -17.7751   24.4127 O   0  0  0  0  0  0  0  0  0  0  0  0
   11.3093  -16.8487   25.2670 O   0  0  0  0  0  0  0  0  0  0  0  0
  1  2  1  0
  2  3  1  0
  3  4  1  6
  5  3  1  0
  5  6  1  1
  7  8  2  0
  7  5  1  0
 10  9  1  6
 10 12  1  0
 11 10  1  0
 13 12  1  6
 13 14  1  0
 14  7  1  0
 15 17  1  0
 15 13  1  0
 16 15  2  0
 18 17  1  0
 18 25  1  0
 19 20  1  0
 18 19  1  1
 20 21  2  0
 21 22  1  0
 23 22  1  0
 24 20  1  0
 24 23  2  0
 25 27  1  0
 26 25  2  0
M  END
$$$$
