ILH.pdb
     RDKit          3D

 27 27  0  0  1  0  0  0  0  0999 V2000
    7.4503  -12.0882   18.8680 C   0  0  0  0  0  0  0  0  0  0  0  0
    7.4965  -13.5007   19.3642 C   0  0  0  0  0  0  0  0  0  0  0  0
    8.1988  -13.6240   20.6985 C   0  0  2  0  0  0  0  0  0  0  0  0
    9.6119  -13.1334   20.5672 C   0  0  0  0  0  0  0  0  0  0  0  0
    8.2066  -15.0560   21.1852 C   0  0  2  0  0  0  0  0  0  0  0  0
    6.8673  -15.6026   21.0936 N   0  0  0  0  0  0  0  0  0  0  0  0
    8.6911  -15.1250   22.6097 C   0  0  0  0  0  0  0  0  0  0  0  0
    9.9246  -15.2150   22.8596 O   0  0  0  0  0  0  0  0  0  0  0  0
    5.4645  -12.9600   26.5377 C   0  0  0  0  0  0  0  0  0  0  0  0
    6.7542  -13.2321   25.7561 C   0  0  1  0  0  0  0  0  0  0  0  0
    7.8014  -12.2868   26.3674 C   0  0  0  0  0  0  0  0  0  0  0  0
    7.1391  -14.6482   25.9862 C   0  0  0  0  0  0  0  0  0  0  0  0
    8.2192  -15.1696   25.1007 C   0  0  2  0  0  0  0  0  0  0  0  0
    7.7854  -15.0910   23.7001 N   0  0  0  0  0  0  0  0  0  0  0  0
    8.6561  -16.5518   25.4306 C   0  0  0  0  0  0  0  0  0  0  0  0
    8.4833  -17.4779   24.5999 O   0  0  0  0  0  0  0  0  0  0  0  0
    9.2731  -16.8858   26.6650 N   0  0  0  0  0  0  0  0  0  0  0  0
   10.3849  -17.7954   26.6875 C   0  0  1  0  0  0  0  0  0  0  0  0
   11.4960  -17.3819   25.7731 C   0  0  0  0  0  0  0  0  0  0  0  0
   11.4127  -17.9560   24.4119 C   0  0  0  0  0  0  0  0  0  0  0  0
   10.4472  -18.7735   23.8497 C   0  0  0  0  0  0  0  0  0  0  0  0
   10.8196  -19.0445   22.5924 N   0  0  0  0  0  0  0  0  0  0  0  0
   11.9802  -18.4363   22.3270 C   0  0  0  0  0  0  0  0  0  0  0  0
   12.3344  -17.7834   23.4208 N   0  0  0  0  0  0  0  0  0  0  0  0
   10.8828  -18.0272   28.0766 C   0  0  0  0  0  0  0  0  0  0  0  0
   10.8160  -17.0171   28.8614 O   0  0  0  0  0  0  0  0  0  0  0  0
   11.3841  -19.2260   28.5217 O   0  0  0  0  0  0  0  0  0  0  0  0
  1  2  1  0
  2  3  1  0
  3  4  1  6
  5  3  1  0
  5  6  1  1
  7  8  2  0
  7  5  1  0
 10  9  1  1
 10 12  1  0
 11 10  1  0
 13 12  1  1
 13 14  1  0
 14  7  1  0
 15 17  1  0
 15 13  1  0
 16 15  2  0
 18 17  1  0
 18 25  1  0
 19 20  1  0
 18 19  1  6
 20 21  2  0
 21 22  1  0
 23 22  1  0
 24 20  1  0
 24 23  2  0
 25 27  1  0
 26 25  2  0
M  END
$$$$
