HPQ.pdb
     RDKit          3D

 27 28  0  0  1  0  0  0  0  0999 V2000
   27.8347  -20.7807  -18.0615 N   0  0  0  0  0  0  0  0  0  0  0  0
   27.3695  -19.8247  -17.0547 C   0  0  1  0  0  0  0  0  0  0  0  0
   26.7911  -18.6716  -17.8746 C   0  0  0  0  0  0  0  0  0  0  0  0
   26.2178  -17.6257  -17.0147 C   0  0  0  0  0  0  0  0  0  0  0  0
   24.9139  -17.2860  -16.7844 C   0  0  0  0  0  0  0  0  0  0  0  0
   24.8899  -16.2578  -15.9158 N   0  0  0  0  0  0  0  0  0  0  0  0
   26.1559  -15.9329  -15.5855 C   0  0  0  0  0  0  0  0  0  0  0  0
   26.9467  -16.7665  -16.2560 N   0  0  0  0  0  0  0  0  0  0  0  0
   26.3288  -20.4252  -16.1935 C   0  0  0  0  0  0  0  0  0  0  0  0
   25.2157  -20.6827  -16.7183 O   0  0  0  0  0  0  0  0  0  0  0  0
   26.5386  -20.7142  -14.8277 N   0  0  0  0  0  0  0  0  0  0  0  0
   27.8965  -20.9289  -14.2882 C   0  0  0  0  0  0  0  0  0  0  0  0
   27.8702  -19.9885  -13.1267 C   0  0  0  0  0  0  0  0  0  0  0  0
   26.4638  -20.2464  -12.5681 C   0  0  0  0  0  0  0  0  0  0  0  0
   25.6907  -20.9167  -13.7186 C   0  0  1  0  0  0  0  0  0  0  0  0
   24.3675  -20.2941  -13.7314 C   0  0  0  0  0  0  0  0  0  0  0  0
   24.1069  -19.0681  -13.7449 O   0  0  0  0  0  0  0  0  0  0  0  0
   20.4586  -21.4597  -17.8476 N   0  0  0  0  0  0  0  0  0  0  0  0
   20.9883  -20.1812  -17.5440 C   0  0  0  0  0  0  0  0  0  0  0  0
   21.0375  -19.3211  -18.4494 O   0  0  0  0  0  0  0  0  0  0  0  0
   21.4645  -19.8825  -16.2036 C   0  0  0  0  0  0  0  0  0  0  0  0
   21.3576  -20.9619  -15.1914 C   0  0  0  0  0  0  0  0  0  0  0  0
   21.8566  -20.6170  -13.8126 C   0  0  2  0  0  0  0  0  0  0  0  0
   23.2187  -21.1558  -13.7286 N   0  0  0  0  0  0  0  0  0  0  0  0
   21.0004  -21.2109  -12.7555 C   0  0  0  0  0  0  0  0  0  0  0  0
   21.3562  -22.2595  -12.1718 O   0  0  0  0  0  0  0  0  0  0  0  0
   19.8045  -20.6216  -12.3990 O   0  0  0  0  0  0  0  0  0  0  0  0
  2  1  1  6
  2  9  1  0
  3  2  1  0
  4  5  2  0
  4  3  1  0
  6  5  1  0
  7  8  2  0
  7  6  1  0
  8  4  1  0
  9 11  1  0
 10  9  2  0
 11 15  1  0
 11 12  1  0
 12 13  1  0
 14 15  1  0
 14 13  1  0
 15 16  1  6
 16 17  2  0
 18 19  1  0
 19 21  1  0
 20 19  2  0
 21 22  1  0
 23 22  1  6
 23 24  1  0
 24 16  1  0
 25 23  1  0
 26 25  2  0
 27 25  1  0
M  END
$$$$
