HPQ.pdb
     RDKit          3D

 27 28  0  0  1  0  0  0  0  0999 V2000
   24.2827  -19.1784  -18.3402 N   0  0  0  0  0  0  0  0  0  0  0  0
   24.9540  -18.4835  -17.2399 C   0  0  1  0  0  0  0  0  0  0  0  0
   24.0375  -17.2995  -16.9324 C   0  0  0  0  0  0  0  0  0  0  0  0
   24.1086  -16.2694  -17.9792 C   0  0  0  0  0  0  0  0  0  0  0  0
   23.6622  -16.2885  -19.2710 C   0  0  0  0  0  0  0  0  0  0  0  0
   23.9590  -15.1053  -19.8405 N   0  0  0  0  0  0  0  0  0  0  0  0
   24.5879  -14.3285  -18.9359 C   0  0  0  0  0  0  0  0  0  0  0  0
   24.6713  -15.0437  -17.8172 N   0  0  0  0  0  0  0  0  0  0  0  0
   25.0844  -19.3622  -16.0583 C   0  0  0  0  0  0  0  0  0  0  0  0
   24.0347  -19.8788  -15.5978 O   0  0  0  0  0  0  0  0  0  0  0  0
   26.3243  -19.6360  -15.4413 N   0  0  0  0  0  0  0  0  0  0  0  0
   27.5880  -19.5907  -16.2042 C   0  0  0  0  0  0  0  0  0  0  0  0
   28.3990  -18.7016  -15.3176 C   0  0  0  0  0  0  0  0  0  0  0  0
   28.0265  -19.2454  -13.9314 C   0  0  0  0  0  0  0  0  0  0  0  0
   26.7178  -20.0281  -14.1446 C   0  0  1  0  0  0  0  0  0  0  0  0
   25.8517  -19.6792  -13.0191 C   0  0  0  0  0  0  0  0  0  0  0  0
   25.4557  -18.5353  -12.6937 O   0  0  0  0  0  0  0  0  0  0  0  0
   20.6708  -22.1558  -12.0046 N   0  0  0  0  0  0  0  0  0  0  0  0
   20.9739  -20.8206  -12.3690 C   0  0  0  0  0  0  0  0  0  0  0  0
   20.0955  -20.1401  -12.9410 O   0  0  0  0  0  0  0  0  0  0  0  0
   22.2835  -20.2596  -12.0811 C   0  0  0  0  0  0  0  0  0  0  0  0
   23.2140  -21.0908  -11.2782 C   0  0  0  0  0  0  0  0  0  0  0  0
   24.5588  -20.4756  -10.9919 C   0  0  2  0  0  0  0  0  0  0  0  0
   25.3860  -20.7427  -12.1739 N   0  0  0  0  0  0  0  0  0  0  0  0
   25.1837  -21.0639   -9.7808 C   0  0  0  0  0  0  0  0  0  0  0  0
   25.8024  -22.1495   -9.8553 O   0  0  0  0  0  0  0  0  0  0  0  0
   25.0950  -20.4288   -8.5588 O   0  0  0  0  0  0  0  0  0  0  0  0
  2  1  1  6
  2  9  1  0
  3  2  1  0
  4  5  2  0
  4  3  1  0
  6  5  1  0
  7  8  2  0
  7  6  1  0
  8  4  1  0
  9 11  1  0
 10  9  2  0
 11 15  1  0
 11 12  1  0
 12 13  1  0
 14 15  1  0
 14 13  1  0
 15 16  1  1
 16 17  2  0
 18 19  1  0
 19 21  1  0
 20 19  2  0
 21 22  1  0
 23 22  1  6
 23 24  1  0
 24 16  1  0
 25 23  1  0
 26 25  2  0
 27 25  1  0
M  END
$$$$
