HPQ.pdb
     RDKit          3D

 27 28  0  0  1  0  0  0  0  0999 V2000
   22.2325  -19.8237  -16.6397 N   0  0  0  0  0  0  0  0  0  0  0  0
   23.3254  -19.0435  -16.0556 C   0  0  1  0  0  0  0  0  0  0  0  0
   22.6379  -17.7963  -15.5006 C   0  0  0  0  0  0  0  0  0  0  0  0
   22.0386  -16.9835  -16.5694 C   0  0  0  0  0  0  0  0  0  0  0  0
   20.7467  -16.9163  -17.0109 C   0  0  0  0  0  0  0  0  0  0  0  0
   20.6873  -16.0226  -18.0160 N   0  0  0  0  0  0  0  0  0  0  0  0
   21.9189  -15.5160  -18.2260 C   0  0  0  0  0  0  0  0  0  0  0  0
   22.7243  -16.1049  -17.3459 N   0  0  0  0  0  0  0  0  0  0  0  0
   23.9944  -19.7953  -14.9727 C   0  0  0  0  0  0  0  0  0  0  0  0
   23.2763  -20.2344  -14.0387 O   0  0  0  0  0  0  0  0  0  0  0  0
   25.3859  -20.0326  -14.9522 N   0  0  0  0  0  0  0  0  0  0  0  0
   26.1614  -20.1597  -16.2026 C   0  0  0  0  0  0  0  0  0  0  0  0
   27.2639  -19.1883  -15.9286 C   0  0  0  0  0  0  0  0  0  0  0  0
   27.5783  -19.5032  -14.4595 C   0  0  0  0  0  0  0  0  0  0  0  0
   26.3372  -20.2467  -13.9329 C   0  0  1  0  0  0  0  0  0  0  0  0
   26.0704  -19.6951  -12.6050 C   0  0  0  0  0  0  0  0  0  0  0  0
   25.6375  -18.5507  -12.3327 O   0  0  0  0  0  0  0  0  0  0  0  0
   21.8216  -19.3030   -9.8304 N   0  0  0  0  0  0  0  0  0  0  0  0
   22.2867  -20.6115  -10.1115 C   0  0  0  0  0  0  0  0  0  0  0  0
   21.4496  -21.5283  -10.2555 O   0  0  0  0  0  0  0  0  0  0  0  0
   23.7111  -20.8759  -10.2282 C   0  0  0  0  0  0  0  0  0  0  0  0
   24.6319  -19.7350  -10.0001 C   0  0  0  0  0  0  0  0  0  0  0  0
   26.1014  -20.0513  -10.0975 C   0  0  2  0  0  0  0  0  0  0  0  0
   26.3220  -20.5326  -11.4659 N   0  0  0  0  0  0  0  0  0  0  0  0
   26.5051  -21.0876   -9.1144 C   0  0  0  0  0  0  0  0  0  0  0  0
   26.5236  -20.8222   -7.8912 O   0  0  0  0  0  0  0  0  0  0  0  0
   26.8644  -22.3542   -9.5280 O   0  0  0  0  0  0  0  0  0  0  0  0
  2  1  1  1
  2  9  1  0
  3  2  1  0
  4  5  2  0
  4  3  1  0
  6  5  1  0
  7  8  2  0
  7  6  1  0
  8  4  1  0
  9 11  1  0
 10  9  2  0
 11 15  1  0
 11 12  1  0
 12 13  1  0
 14 15  1  0
 14 13  1  0
 15 16  1  1
 16 17  2  0
 18 19  1  0
 19 21  1  0
 20 19  2  0
 21 22  1  0
 23 22  1  6
 23 24  1  0
 24 16  1  0
 25 23  1  0
 26 25  2  0
 27 25  1  0
M  END
$$$$
