HPQ.pdb
     RDKit          3D

 27 28  0  0  1  0  0  0  0  0999 V2000
   15.9784  -17.6578    3.4780 N   0  0  0  0  0  0  0  0  0  0  0  0
   15.9339  -16.3156    4.0617 C   0  0  1  0  0  0  0  0  0  0  0  0
   14.7175  -16.3515    4.9866 C   0  0  0  0  0  0  0  0  0  0  0  0
   13.4587  -16.4117    4.2291 C   0  0  0  0  0  0  0  0  0  0  0  0
   12.4924  -15.4630    4.0423 C   0  0  0  0  0  0  0  0  0  0  0  0
   11.5241  -15.9896    3.2694 N   0  0  0  0  0  0  0  0  0  0  0  0
   11.8534  -17.2592    2.9577 C   0  0  0  0  0  0  0  0  0  0  0  0
   13.0232  -17.5005    3.5435 N   0  0  0  0  0  0  0  0  0  0  0  0
   17.1643  -16.0298    4.8296 C   0  0  0  0  0  0  0  0  0  0  0  0
   17.6173  -16.9433    5.5650 O   0  0  0  0  0  0  0  0  0  0  0  0
   17.8352  -14.7893    4.7661 N   0  0  0  0  0  0  0  0  0  0  0  0
   17.7104  -13.9084    3.5874 C   0  0  0  0  0  0  0  0  0  0  0  0
   17.3473  -12.6224    4.2570 C   0  0  0  0  0  0  0  0  0  0  0  0
   18.2971  -12.6373    5.4628 C   0  0  0  0  0  0  0  0  0  0  0  0
   18.7325  -14.1064    5.6138 C   0  0  1  0  0  0  0  0  0  0  0  0
   18.6910  -14.3936    7.0472 C   0  0  0  0  0  0  0  0  0  0  0  0
   17.6729  -14.5892    7.7518 O   0  0  0  0  0  0  0  0  0  0  0  0
   23.3714  -17.3752    9.7439 N   0  0  0  0  0  0  0  0  0  0  0  0
   22.1802  -17.8644    9.1530 C   0  0  0  0  0  0  0  0  0  0  0  0
   22.1396  -19.0573    8.7825 O   0  0  0  0  0  0  0  0  0  0  0  0
   21.0315  -16.9902    8.9832 C   0  0  0  0  0  0  0  0  0  0  0  0
   21.1747  -15.5874    9.4448 C   0  0  0  0  0  0  0  0  0  0  0  0
   19.9853  -14.6951    9.2033 C   0  0  2  0  0  0  0  0  0  0  0  0
   19.9385  -14.4663    7.7548 N   0  0  0  0  0  0  0  0  0  0  0  0
   20.1128  -13.4048    9.9260 C   0  0  0  0  0  0  0  0  0  0  0  0
   20.5343  -12.3880    9.3300 O   0  0  0  0  0  0  0  0  0  0  0  0
   19.7709  -13.3032   11.2591 O   0  0  0  0  0  0  0  0  0  0  0  0
  2  1  1  1
  2  9  1  0
  3  2  1  0
  4  5  2  0
  4  3  1  0
  6  5  1  0
  7  8  2  0
  7  6  1  0
  8  4  1  0
  9 11  1  0
 10  9  2  0
 11 15  1  0
 11 12  1  0
 12 13  1  0
 14 15  1  0
 14 13  1  0
 15 16  1  1
 16 17  2  0
 18 19  1  0
 19 21  1  0
 20 19  2  0
 21 22  1  0
 23 22  1  6
 23 24  1  0
 24 16  1  0
 25 23  1  0
 26 25  2  0
 27 25  1  0
M  END
$$$$
