HPQ.pdb
     RDKit          3D

 27 28  0  0  1  0  0  0  0  0999 V2000
   27.5300  -21.4101  -15.4589 N   0  0  0  0  0  0  0  0  0  0  0  0
   26.8391  -20.4774  -14.5662 C   0  0  1  0  0  0  0  0  0  0  0  0
   26.4563  -19.3079  -15.4729 C   0  0  0  0  0  0  0  0  0  0  0  0
   27.6389  -18.6790  -16.0794 C   0  0  0  0  0  0  0  0  0  0  0  0
   28.6459  -17.9527  -15.5075 C   0  0  0  0  0  0  0  0  0  0  0  0
   29.5075  -17.5864  -16.4748 N   0  0  0  0  0  0  0  0  0  0  0  0
   29.0700  -18.0654  -17.6566 C   0  0  0  0  0  0  0  0  0  0  0  0
   27.9415  -18.7227  -17.4029 N   0  0  0  0  0  0  0  0  0  0  0  0
   25.6328  -21.0989  -13.9799 C   0  0  0  0  0  0  0  0  0  0  0  0
   24.7058  -21.4248  -14.7642 O   0  0  0  0  0  0  0  0  0  0  0  0
   25.4893  -21.3346  -12.5954 N   0  0  0  0  0  0  0  0  0  0  0  0
   26.6461  -21.7063  -11.7560 C   0  0  0  0  0  0  0  0  0  0  0  0
   26.5046  -20.7056  -10.6547 C   0  0  0  0  0  0  0  0  0  0  0  0
   24.9872  -20.7303  -10.4245 C   0  0  0  0  0  0  0  0  0  0  0  0
   24.3963  -21.3511  -11.7037 C   0  0  1  0  0  0  0  0  0  0  0  0
   23.2176  -20.5505  -12.0327 C   0  0  0  0  0  0  0  0  0  0  0  0
   23.1738  -19.3145  -12.2369 O   0  0  0  0  0  0  0  0  0  0  0  0
   18.6480  -20.9965  -15.9283 N   0  0  0  0  0  0  0  0  0  0  0  0
   19.5891  -22.0266  -15.6822 C   0  0  0  0  0  0  0  0  0  0  0  0
   19.4962  -23.0920  -16.3289 O   0  0  0  0  0  0  0  0  0  0  0  0
   20.6394  -21.8418  -14.6947 C   0  0  0  0  0  0  0  0  0  0  0  0
   20.7335  -20.5097  -14.0483 C   0  0  0  0  0  0  0  0  0  0  0  0
   20.7368  -20.5127  -12.5419 C   0  0  2  0  0  0  0  0  0  0  0  0
   21.9549  -21.2257  -12.1412 N   0  0  0  0  0  0  0  0  0  0  0  0
   19.5366  -21.1921  -11.9929 C   0  0  0  0  0  0  0  0  0  0  0  0
   19.6286  -22.3460  -11.5164 O   0  0  0  0  0  0  0  0  0  0  0  0
   18.3057  -20.5681  -11.9972 O   0  0  0  0  0  0  0  0  0  0  0  0
  2  1  1  6
  2  9  1  0
  3  2  1  0
  4  5  2  0
  4  3  1  0
  6  5  1  0
  7  8  2  0
  7  6  1  0
  8  4  1  0
  9 11  1  0
 10  9  2  0
 11 15  1  0
 11 12  1  0
 12 13  1  0
 14 15  1  0
 14 13  1  0
 15 16  1  6
 16 17  2  0
 18 19  1  0
 19 21  1  0
 20 19  2  0
 21 22  1  0
 23 22  1  6
 23 24  1  0
 24 16  1  0
 25 23  1  0
 26 25  2  0
 27 25  1  0
M  END
$$$$
