HPQ.pdb
     RDKit          3D

 27 28  0  0  1  0  0  0  0  0999 V2000
   20.9134  -16.8210  -16.3881 N   0  0  0  0  0  0  0  0  0  0  0  0
   21.6219  -15.6948  -16.9995 C   0  0  1  0  0  0  0  0  0  0  0  0
   20.8901  -15.4678  -18.3221 C   0  0  0  0  0  0  0  0  0  0  0  0
   21.0349  -16.6163  -19.2288 C   0  0  0  0  0  0  0  0  0  0  0  0
   22.0460  -16.9424  -20.0890 C   0  0  0  0  0  0  0  0  0  0  0  0
   21.7228  -18.0937  -20.7073 N   0  0  0  0  0  0  0  0  0  0  0  0
   20.5221  -18.5109  -20.2582 C   0  0  0  0  0  0  0  0  0  0  0  0
   20.1187  -17.6097  -19.3665 N   0  0  0  0  0  0  0  0  0  0  0  0
   21.5411  -14.4906  -16.1459 C   0  0  0  0  0  0  0  0  0  0  0  0
   20.4208  -13.9314  -16.0319 O   0  0  0  0  0  0  0  0  0  0  0  0
   22.6581  -13.9574  -15.4670 N   0  0  0  0  0  0  0  0  0  0  0  0
   23.7944  -14.8125  -15.0687 C   0  0  0  0  0  0  0  0  0  0  0  0
   24.9301  -14.0202  -15.6313 C   0  0  0  0  0  0  0  0  0  0  0  0
   24.5081  -12.5919  -15.2598 C   0  0  0  0  0  0  0  0  0  0  0  0
   22.9978  -12.6802  -14.9736 C   0  0  1  0  0  0  0  0  0  0  0  0
   22.3982  -11.5069  -15.6081 C   0  0  0  0  0  0  0  0  0  0  0  0
   22.0907  -11.3726  -16.8158 O   0  0  0  0  0  0  0  0  0  0  0  0
   17.1565  -10.0632  -15.3806 N   0  0  0  0  0  0  0  0  0  0  0  0
   17.6218   -8.8176  -15.8698 C   0  0  0  0  0  0  0  0  0  0  0  0
   16.7868   -7.9865  -16.2872 O   0  0  0  0  0  0  0  0  0  0  0  0
   19.0441   -8.5187  -15.8841 C   0  0  0  0  0  0  0  0  0  0  0  0
   19.9618   -9.5715  -15.3832 C   0  0  0  0  0  0  0  0  0  0  0  0
   21.4174   -9.1904  -15.3128 C   0  0  2  0  0  0  0  0  0  0  0  0
   22.1182  -10.3655  -14.7829 N   0  0  0  0  0  0  0  0  0  0  0  0
   21.6347   -8.0177  -14.4292 C   0  0  0  0  0  0  0  0  0  0  0  0
   21.9126   -8.1830  -13.2199 O   0  0  0  0  0  0  0  0  0  0  0  0
   21.5352   -6.7323  -14.9213 O   0  0  0  0  0  0  0  0  0  0  0  0
  2  1  1  1
  2  9  1  0
  3  2  1  0
  4  5  2  0
  4  3  1  0
  6  5  1  0
  7  8  2  0
  7  6  1  0
  8  4  1  0
  9 11  1  0
 10  9  2  0
 11 15  1  0
 11 12  1  0
 12 13  1  0
 14 15  1  0
 14 13  1  0
 15 16  1  6
 16 17  2  0
 18 19  1  0
 19 21  1  0
 20 19  2  0
 21 22  1  0
 23 22  1  1
 23 24  1  0
 24 16  1  0
 25 23  1  0
 26 25  2  0
 27 25  1  0
M  END
$$$$
