HPQ.pdb
     RDKit          3D

 27 28  0  0  1  0  0  0  0  0999 V2000
   22.7212  -22.0022  -17.0421 N   0  0  0  0  0  0  0  0  0  0  0  0
   21.4795  -21.4082  -16.5427 C   0  0  1  0  0  0  0  0  0  0  0  0
   20.3993  -21.9705  -17.4665 C   0  0  0  0  0  0  0  0  0  0  0  0
   20.5104  -21.4271  -18.8283 C   0  0  0  0  0  0  0  0  0  0  0  0
   19.8140  -20.4219  -19.4392 C   0  0  0  0  0  0  0  0  0  0  0  0
   20.2765  -20.2880  -20.6963 N   0  0  0  0  0  0  0  0  0  0  0  0
   21.2572  -21.1900  -20.9015 C   0  0  0  0  0  0  0  0  0  0  0  0
   21.3876  -21.8706  -19.7658 N   0  0  0  0  0  0  0  0  0  0  0  0
   21.2263  -21.8069  -15.1419 C   0  0  0  0  0  0  0  0  0  0  0  0
   21.1151  -23.0350  -14.8968 O   0  0  0  0  0  0  0  0  0  0  0  0
   21.1077  -20.8730  -14.0898 N   0  0  0  0  0  0  0  0  0  0  0  0
   21.7058  -19.5262  -14.1878 C   0  0  0  0  0  0  0  0  0  0  0  0
   20.5246  -18.6864  -13.8221 C   0  0  0  0  0  0  0  0  0  0  0  0
   19.9363  -19.4935  -12.6564 C   0  0  0  0  0  0  0  0  0  0  0  0
   20.5366  -20.9040  -12.8003 C   0  0  1  0  0  0  0  0  0  0  0  0
   19.4390  -21.8367  -12.5475 C   0  0  0  0  0  0  0  0  0  0  0  0
   18.6008  -22.2632  -13.3763 O   0  0  0  0  0  0  0  0  0  0  0  0
   18.9476  -24.6989   -6.8060 N   0  0  0  0  0  0  0  0  0  0  0  0
   17.9188  -25.2954   -7.5761 C   0  0  0  0  0  0  0  0  0  0  0  0
   17.2148  -26.1849   -7.0515 O   0  0  0  0  0  0  0  0  0  0  0  0
   17.6922  -24.8769   -8.9494 C   0  0  0  0  0  0  0  0  0  0  0  0
   18.5759  -23.8132   -9.4871 C   0  0  0  0  0  0  0  0  0  0  0  0
   18.2812  -23.3686  -10.8959 C   0  0  2  0  0  0  0  0  0  0  0  0
   19.2767  -22.3382  -11.2117 N   0  0  0  0  0  0  0  0  0  0  0  0
   16.9090  -22.8163  -11.0203 C   0  0  0  0  0  0  0  0  0  0  0  0
   16.6905  -21.6096  -10.7690 O   0  0  0  0  0  0  0  0  0  0  0  0
   15.8563  -23.6174  -11.4131 O   0  0  0  0  0  0  0  0  0  0  0  0
  2  1  1  6
  2  9  1  0
  3  2  1  0
  4  5  2  0
  4  3  1  0
  6  5  1  0
  7  8  2  0
  7  6  1  0
  8  4  1  0
  9 11  1  0
 10  9  2  0
 11 15  1  0
 11 12  1  0
 12 13  1  0
 14 15  1  0
 14 13  1  0
 15 16  1  6
 16 17  2  0
 18 19  1  0
 19 21  1  0
 20 19  2  0
 21 22  1  0
 23 22  1  1
 23 24  1  0
 24 16  1  0
 25 23  1  0
 26 25  2  0
 27 25  1  0
M  END
$$$$
