FHP.pdb
     RDKit          3D

 29 31  0  0  1  0  0  0  0  0999 V2000
    8.0742  -18.3561   20.6337 N   0  0  0  0  0  0  0  0  0  0  0  0
    8.1853  -16.9319   20.7688 C   0  0  1  0  0  0  0  0  0  0  0  0
    7.5208  -16.2371   19.5904 C   0  0  0  0  0  0  0  0  0  0  0  0
    7.6634  -14.7741   19.6600 C   0  0  0  0  0  0  0  0  0  0  0  0
    6.6166  -14.0239   20.1343 C   0  0  0  0  0  0  0  0  0  0  0  0
    6.7394  -12.6616   20.2027 C   0  0  0  0  0  0  0  0  0  0  0  0
    7.8982  -12.0239   19.8031 C   0  0  0  0  0  0  0  0  0  0  0  0
    8.9310  -12.7788   19.3339 C   0  0  0  0  0  0  0  0  0  0  0  0
    8.8155  -14.1476   19.2621 C   0  0  0  0  0  0  0  0  0  0  0  0
    7.5388  -16.4128   22.0007 C   0  0  0  0  0  0  0  0  0  0  0  0
    6.4372  -15.8255   21.8742 O   0  0  0  0  0  0  0  0  0  0  0  0
    8.0766  -16.5350   23.2936 N   0  0  0  0  0  0  0  0  0  0  0  0
    7.5745  -15.7938   24.4516 C   0  0  1  0  0  0  0  0  0  0  0  0
    6.4451  -16.6719   24.9763 C   0  0  0  0  0  0  0  0  0  0  0  0
    6.9739  -17.9601   25.5071 C   0  0  0  0  0  0  0  0  0  0  0  0
    7.9356  -18.7393   24.9169 C   0  0  0  0  0  0  0  0  0  0  0  0
    8.1395  -19.8091   25.6899 N   0  0  0  0  0  0  0  0  0  0  0  0
    7.3183  -19.6997   26.7458 C   0  0  0  0  0  0  0  0  0  0  0  0
    6.6035  -18.5700   26.6379 N   0  0  0  0  0  0  0  0  0  0  0  0
    8.6674  -15.6077   25.4143 C   0  0  0  0  0  0  0  0  0  0  0  0
    9.7518  -16.2690   25.1827 O   0  0  0  0  0  0  0  0  0  0  0  0
    8.6465  -14.7892   26.5464 N   0  0  0  0  0  0  0  0  0  0  0  0
    7.4777  -14.1567   27.1021 C   0  0  0  0  0  0  0  0  0  0  0  0
    8.0139  -12.8523   27.6245 C   0  0  0  0  0  0  0  0  0  0  0  0
    9.5396  -12.9181   27.4667 C   0  0  0  0  0  0  0  0  0  0  0  0
    9.7347  -14.4330   27.4031 C   0  0  1  0  0  0  0  0  0  0  0  0
    9.6484  -15.0414   28.7428 C   0  0  0  0  0  0  0  0  0  0  0  0
   10.5262  -14.7924   29.5903 O   0  0  0  0  0  0  0  0  0  0  0  0
    8.6052  -15.8765   29.0481 O   0  0  0  0  0  0  0  0  0  0  0  0
  2  1  1  6
  2 10  1  0
  2  3  1  0
  4  3  1  0
  4  9  1  0
  5  4  2  0
  6  5  1  0
  6  7  2  0
  7  8  1  0
  8  9  2  0
 10 11  2  0
 12 13  1  0
 12 10  1  0
 13 14  1  1
 14 15  1  0
 15 19  1  0
 15 16  2  0
 16 17  1  0
 18 17  1  0
 19 18  2  0
 20 13  1  0
 21 20  2  0
 22 20  1  0
 23 22  1  0
 24 25  1  0
 24 23  1  0
 25 26  1  0
 26 22  1  0
 26 27  1  1
 28 27  2  0
 29 27  1  0
M  END
$$$$
