FHP.pdb
     RDKit          3D

 29 31  0  0  1  0  0  0  0  0999 V2000
    5.8188  -16.4865   19.9743 N   0  0  0  0  0  0  0  0  0  0  0  0
    6.9952  -16.8667   20.7026 C   0  0  1  0  0  0  0  0  0  0  0  0
    8.1910  -16.0515   20.2354 C   0  0  0  0  0  0  0  0  0  0  0  0
    7.9387  -14.6041   20.3179 C   0  0  0  0  0  0  0  0  0  0  0  0
    7.5132  -13.9363   19.1970 C   0  0  0  0  0  0  0  0  0  0  0  0
    7.2759  -12.5892   19.2635 C   0  0  0  0  0  0  0  0  0  0  0  0
    7.4564  -11.8852   20.4387 C   0  0  0  0  0  0  0  0  0  0  0  0
    7.8792  -12.5585   21.5453 C   0  0  0  0  0  0  0  0  0  0  0  0
    8.1197  -13.9116   21.4867 C   0  0  0  0  0  0  0  0  0  0  0  0
    6.8673  -16.6516   22.1663 C   0  0  0  0  0  0  0  0  0  0  0  0
    6.0324  -15.8002   22.5566 O   0  0  0  0  0  0  0  0  0  0  0  0
    7.6163  -17.3355   23.1395 N   0  0  0  0  0  0  0  0  0  0  0  0
    7.4567  -17.1238   24.5789 C   0  0  1  0  0  0  0  0  0  0  0  0
    7.4919  -18.5343   25.1543 C   0  0  0  0  0  0  0  0  0  0  0  0
    7.5505  -18.5016   26.6430 C   0  0  0  0  0  0  0  0  0  0  0  0
    8.6858  -18.5995   27.4059 C   0  0  0  0  0  0  0  0  0  0  0  0
    8.3327  -18.5302   28.6919 N   0  0  0  0  0  0  0  0  0  0  0  0
    6.9984  -18.3912   28.7316 C   0  0  0  0  0  0  0  0  0  0  0  0
    6.5160  -18.3733   27.4803 N   0  0  0  0  0  0  0  0  0  0  0  0
    8.5463  -16.2665   25.0627 C   0  0  0  0  0  0  0  0  0  0  0  0
    9.6857  -16.4019   24.4709 O   0  0  0  0  0  0  0  0  0  0  0  0
    8.4677  -15.3254   26.0923 N   0  0  0  0  0  0  0  0  0  0  0  0
    7.2695  -14.9569   26.8017 C   0  0  0  0  0  0  0  0  0  0  0  0
    7.4767  -13.4937   27.0806 C   0  0  0  0  0  0  0  0  0  0  0  0
    8.9093  -13.1676   26.6349 C   0  0  0  0  0  0  0  0  0  0  0  0
    9.5263  -14.5655   26.6815 C   0  0  1  0  0  0  0  0  0  0  0  0
    9.8367  -14.9687   28.0647 C   0  0  0  0  0  0  0  0  0  0  0  0
   10.7299  -14.3720   28.6948 O   0  0  0  0  0  0  0  0  0  0  0  0
    9.1429  -15.9964   28.6490 O   0  0  0  0  0  0  0  0  0  0  0  0
  2  1  1  6
  2 10  1  0
  2  3  1  0
  4  3  1  0
  4  9  1  0
  5  4  2  0
  6  5  1  0
  6  7  2  0
  7  8  1  0
  8  9  2  0
 10 11  2  0
 12 13  1  0
 12 10  1  0
 13 14  1  1
 14 15  1  0
 15 19  1  0
 15 16  2  0
 16 17  1  0
 18 17  1  0
 19 18  2  0
 20 13  1  0
 21 20  2  0
 22 20  1  0
 23 22  1  0
 24 25  1  0
 24 23  1  0
 25 26  1  0
 26 22  1  0
 26 27  1  1
 28 27  2  0
 29 27  1  0
M  END
$$$$
