FHP.pdb
     RDKit          3D

 29 31  0  0  1  0  0  0  0  0999 V2000
    6.4263  -18.1049   20.0359 N   0  0  0  0  0  0  0  0  0  0  0  0
    6.9167  -16.8784   20.5965 C   0  0  1  0  0  0  0  0  0  0  0  0
    6.1454  -15.6953   20.0325 C   0  0  0  0  0  0  0  0  0  0  0  0
    6.7905  -14.4121   20.3531 C   0  0  0  0  0  0  0  0  0  0  0  0
    6.4226  -13.7481   21.4964 C   0  0  0  0  0  0  0  0  0  0  0  0
    7.0169  -12.5531   21.8034 C   0  0  0  0  0  0  0  0  0  0  0  0
    7.9822  -11.9995   20.9843 C   0  0  0  0  0  0  0  0  0  0  0  0
    8.3396  -12.6676   19.8518 C   0  0  0  0  0  0  0  0  0  0  0  0
    7.7473  -13.8684   19.5364 C   0  0  0  0  0  0  0  0  0  0  0  0
    6.7827  -16.8204   22.0742 C   0  0  0  0  0  0  0  0  0  0  0  0
    5.6348  -16.9684   22.5587 O   0  0  0  0  0  0  0  0  0  0  0  0
    7.8518  -16.6115   22.9626 N   0  0  0  0  0  0  0  0  0  0  0  0
    7.7182  -16.6787   24.4186 C   0  0  1  0  0  0  0  0  0  0  0  0
    7.8842  -18.1621   24.7251 C   0  0  0  0  0  0  0  0  0  0  0  0
    7.9059  -18.4034   26.1956 C   0  0  0  0  0  0  0  0  0  0  0  0
    6.8172  -18.6821   26.9814 C   0  0  0  0  0  0  0  0  0  0  0  0
    7.2376  -18.8331   28.2400 N   0  0  0  0  0  0  0  0  0  0  0  0
    8.5674  -18.6517   28.2401 C   0  0  0  0  0  0  0  0  0  0  0  0
    8.9803  -18.3886   26.9914 N   0  0  0  0  0  0  0  0  0  0  0  0
    8.7487  -15.8342   25.0357 C   0  0  0  0  0  0  0  0  0  0  0  0
    9.9221  -15.8804   24.4992 O   0  0  0  0  0  0  0  0  0  0  0  0
    8.5815  -14.9916   26.1376 N   0  0  0  0  0  0  0  0  0  0  0  0
    7.3439  -14.7634   26.8383 C   0  0  0  0  0  0  0  0  0  0  0  0
    7.4455  -13.3190   27.2448 C   0  0  0  0  0  0  0  0  0  0  0  0
    8.8637  -12.8640   26.8719 C   0  0  0  0  0  0  0  0  0  0  0  0
    9.5717  -14.2179   26.8203 C   0  0  1  0  0  0  0  0  0  0  0  0
    9.8739  -14.7169   28.1737 C   0  0  0  0  0  0  0  0  0  0  0  0
   10.6601  -14.0834   28.9028 O   0  0  0  0  0  0  0  0  0  0  0  0
    9.2899  -15.8731   28.6220 O   0  0  0  0  0  0  0  0  0  0  0  0
  2  1  1  6
  2 10  1  0
  2  3  1  0
  4  3  1  0
  4  9  1  0
  5  4  2  0
  6  5  1  0
  6  7  2  0
  7  8  1  0
  8  9  2  0
 10 11  2  0
 12 13  1  0
 12 10  1  0
 13 14  1  1
 14 15  1  0
 15 19  1  0
 15 16  2  0
 16 17  1  0
 18 17  1  0
 19 18  2  0
 20 13  1  0
 21 20  2  0
 22 20  1  0
 23 22  1  0
 24 25  1  0
 24 23  1  0
 25 26  1  0
 26 22  1  0
 26 27  1  1
 28 27  2  0
 29 27  1  0
M  END
$$$$
