FHP.pdb
     RDKit          3D

 29 31  0  0  1  0  0  0  0  0999 V2000
    7.8202  -17.2272   19.8120 N   0  0  0  0  0  0  0  0  0  0  0  0
    8.8172  -16.9059   20.7926 C   0  0  1  0  0  0  0  0  0  0  0  0
    9.6176  -15.6901   20.3521 C   0  0  0  0  0  0  0  0  0  0  0  0
    8.7667  -14.5021   20.1788 C   0  0  0  0  0  0  0  0  0  0  0  0
    7.6049  -14.4026   20.9024 C   0  0  0  0  0  0  0  0  0  0  0  0
    6.8061  -13.3010   20.7480 C   0  0  0  0  0  0  0  0  0  0  0  0
    7.1456  -12.2840   19.8764 C   0  0  0  0  0  0  0  0  0  0  0  0
    8.3014  -12.3934   19.1631 C   0  0  0  0  0  0  0  0  0  0  0  0
    9.1092  -13.4968   19.3126 C   0  0  0  0  0  0  0  0  0  0  0  0
    8.2415  -16.5885   22.1241 C   0  0  0  0  0  0  0  0  0  0  0  0
    7.1496  -15.9708   22.1516 O   0  0  0  0  0  0  0  0  0  0  0  0
    8.8359  -16.9324   23.3506 N   0  0  0  0  0  0  0  0  0  0  0  0
    8.1920  -16.7227   24.6481 C   0  0  1  0  0  0  0  0  0  0  0  0
    8.2341  -18.1014   25.2956 C   0  0  0  0  0  0  0  0  0  0  0  0
    7.3365  -19.0532   24.5819 C   0  0  0  0  0  0  0  0  0  0  0  0
    5.9909  -19.2059   24.7978 C   0  0  0  0  0  0  0  0  0  0  0  0
    5.5391  -20.1510   23.9696 N   0  0  0  0  0  0  0  0  0  0  0  0
    6.5856  -20.5816   23.2480 C   0  0  0  0  0  0  0  0  0  0  0  0
    7.6871  -19.9126   23.6195 N   0  0  0  0  0  0  0  0  0  0  0  0
    8.9370  -15.7016   25.3954 C   0  0  0  0  0  0  0  0  0  0  0  0
   10.1529  -15.4896   25.0164 O   0  0  0  0  0  0  0  0  0  0  0  0
    8.4593  -14.9432   26.4672 N   0  0  0  0  0  0  0  0  0  0  0  0
    7.1062  -14.9489   26.9610 C   0  0  0  0  0  0  0  0  0  0  0  0
    6.8987  -13.5251   27.3985 C   0  0  0  0  0  0  0  0  0  0  0  0
    8.2612  -12.8298   27.2670 C   0  0  0  0  0  0  0  0  0  0  0  0
    9.1855  -14.0467   27.3121 C   0  0  1  0  0  0  0  0  0  0  0  0
    9.3499  -14.5443   28.6896 C   0  0  0  0  0  0  0  0  0  0  0  0
    8.7372  -15.5659   29.0530 O   0  0  0  0  0  0  0  0  0  0  0  0
   10.1738  -13.8816   29.5619 O   0  0  0  0  0  0  0  0  0  0  0  0
  2  1  1  6
  2 10  1  0
  2  3  1  0
  4  3  1  0
  4  9  1  0
  5  4  2  0
  6  5  1  0
  6  7  2  0
  7  8  1  0
  8  9  2  0
 10 11  2  0
 12 13  1  0
 12 10  1  0
 13 14  1  1
 14 15  1  0
 15 19  1  0
 15 16  2  0
 16 17  1  0
 18 17  1  0
 19 18  2  0
 20 13  1  0
 21 20  2  0
 22 20  1  0
 23 22  1  0
 24 25  1  0
 24 23  1  0
 25 26  1  0
 26 22  1  0
 26 27  1  1
 28 27  2  0
 29 27  1  0
M  END
$$$$
