FHP.pdb
     RDKit          3D

 29 31  0  0  1  0  0  0  0  0999 V2000
    6.2141  -17.7742   20.7184 N   0  0  0  0  0  0  0  0  0  0  0  0
    6.7407  -16.5744   21.3032 C   0  0  1  0  0  0  0  0  0  0  0  0
    6.0126  -15.3570   20.7549 C   0  0  0  0  0  0  0  0  0  0  0  0
    6.9454  -14.3337   20.2567 C   0  0  0  0  0  0  0  0  0  0  0  0
    7.3123  -14.3528   18.9344 C   0  0  0  0  0  0  0  0  0  0  0  0
    8.1801  -13.4050   18.4612 C   0  0  0  0  0  0  0  0  0  0  0  0
    8.6962  -12.4265   19.2890 C   0  0  0  0  0  0  0  0  0  0  0  0
    8.3251  -12.4172   20.6000 C   0  0  0  0  0  0  0  0  0  0  0  0
    7.4538  -13.3658   21.0831 C   0  0  0  0  0  0  0  0  0  0  0  0
    6.5984  -16.5372   22.7809 C   0  0  0  0  0  0  0  0  0  0  0  0
    5.4395  -16.6222   23.2543 O   0  0  0  0  0  0  0  0  0  0  0  0
    7.6711  -16.4135   23.6808 N   0  0  0  0  0  0  0  0  0  0  0  0
    7.5011  -16.1491   25.1102 C   0  0  1  0  0  0  0  0  0  0  0  0
    6.6911  -17.3428   25.6011 C   0  0  0  0  0  0  0  0  0  0  0  0
    7.5809  -18.4931   25.9270 C   0  0  0  0  0  0  0  0  0  0  0  0
    7.9808  -19.4732   25.0552 C   0  0  0  0  0  0  0  0  0  0  0  0
    8.7691  -20.3246   25.7163 N   0  0  0  0  0  0  0  0  0  0  0  0
    8.8601  -19.8834   26.9805 C   0  0  0  0  0  0  0  0  0  0  0  0
    8.1346  -18.7632   27.1137 N   0  0  0  0  0  0  0  0  0  0  0  0
    8.8230  -16.0395   25.7398 C   0  0  0  0  0  0  0  0  0  0  0  0
    9.7976  -16.6250   25.1281 O   0  0  0  0  0  0  0  0  0  0  0  0
    9.1244  -15.3665   26.9265 N   0  0  0  0  0  0  0  0  0  0  0  0
    8.1620  -14.8084   27.8414 C   0  0  0  0  0  0  0  0  0  0  0  0
    8.8569  -13.5778   28.3557 C   0  0  0  0  0  0  0  0  0  0  0  0
   10.2855  -13.6221   27.7951 C   0  0  0  0  0  0  0  0  0  0  0  0
   10.4094  -15.1175   27.5027 C   0  0  1  0  0  0  0  0  0  0  0  0
   10.6570  -15.8862   28.7355 C   0  0  0  0  0  0  0  0  0  0  0  0
    9.7549  -16.6048   29.2053 O   0  0  0  0  0  0  0  0  0  0  0  0
   11.8758  -15.8060   29.3576 O   0  0  0  0  0  0  0  0  0  0  0  0
  2  1  1  6
  2 10  1  0
  2  3  1  0
  4  3  1  0
  4  9  1  0
  5  4  2  0
  6  5  1  0
  6  7  2  0
  7  8  1  0
  8  9  2  0
 10 11  2  0
 12 13  1  0
 12 10  1  0
 13 14  1  1
 14 15  1  0
 15 19  1  0
 15 16  2  0
 16 17  1  0
 18 17  1  0
 19 18  2  0
 20 13  1  0
 21 20  2  0
 22 20  1  0
 23 22  1  0
 24 25  1  0
 24 23  1  0
 25 26  1  0
 26 22  1  0
 26 27  1  1
 28 27  2  0
 29 27  1  0
M  END
$$$$
