FHP.pdb
     RDKit          3D

 29 31  0  0  1  0  0  0  0  0999 V2000
    6.1705  -14.8467   22.3095 N   0  0  0  0  0  0  0  0  0  0  0  0
    7.5884  -14.8698   22.5284 C   0  0  1  0  0  0  0  0  0  0  0  0
    8.1006  -13.4669   22.8151 C   0  0  0  0  0  0  0  0  0  0  0  0
    7.5304  -12.9133   24.0536 C   0  0  0  0  0  0  0  0  0  0  0  0
    6.1767  -12.6994   24.1272 C   0  0  0  0  0  0  0  0  0  0  0  0
    5.6365  -12.1842   25.2753 C   0  0  0  0  0  0  0  0  0  0  0  0
    6.4274  -11.8741   26.3650 C   0  0  0  0  0  0  0  0  0  0  0  0
    7.7700  -12.0905   26.2808 C   0  0  0  0  0  0  0  0  0  0  0  0
    8.3203  -12.6077   25.1310 C   0  0  0  0  0  0  0  0  0  0  0  0
    7.9849  -15.7211   23.6787 C   0  0  0  0  0  0  0  0  0  0  0  0
    7.1339  -15.9098   24.5812 O   0  0  0  0  0  0  0  0  0  0  0  0
    9.2451  -16.3270   23.8232 N   0  0  0  0  0  0  0  0  0  0  0  0
    9.6105  -17.1715   24.9613 C   0  0  1  0  0  0  0  0  0  0  0  0
   10.1528  -18.4370   24.3085 C   0  0  0  0  0  0  0  0  0  0  0  0
   10.6484  -19.3964   25.3355 C   0  0  0  0  0  0  0  0  0  0  0  0
   11.9630  -19.6793   25.6044 C   0  0  0  0  0  0  0  0  0  0  0  0
   12.0038  -20.5849   26.5850 N   0  0  0  0  0  0  0  0  0  0  0  0
   10.7351  -20.8631   26.9231 C   0  0  0  0  0  0  0  0  0  0  0  0
    9.9028  -20.1382   26.1611 N   0  0  0  0  0  0  0  0  0  0  0  0
   10.6009  -16.4666   25.7849 C   0  0  0  0  0  0  0  0  0  0  0  0
   11.5560  -15.8750   25.1489 O   0  0  0  0  0  0  0  0  0  0  0  0
   10.6073  -16.3747   27.1790 N   0  0  0  0  0  0  0  0  0  0  0  0
    9.5277  -16.7633   28.0498 C   0  0  0  0  0  0  0  0  0  0  0  0
    9.6128  -15.7581   29.1651 C   0  0  0  0  0  0  0  0  0  0  0  0
   10.8898  -14.9431   28.9158 C   0  0  0  0  0  0  0  0  0  0  0  0
   11.6620  -15.9235   28.0329 C   0  0  1  0  0  0  0  0  0  0  0  0
   12.2691  -17.0020   28.8332 C   0  0  0  0  0  0  0  0  0  0  0  0
   11.7433  -18.1309   28.8456 O   0  0  0  0  0  0  0  0  0  0  0  0
   13.4062  -16.7576   29.5585 O   0  0  0  0  0  0  0  0  0  0  0  0
  2  1  1  1
  2 10  1  0
  2  3  1  0
  4  3  1  0
  4  9  1  0
  5  4  2  0
  6  5  1  0
  6  7  2  0
  7  8  1  0
  8  9  2  0
 10 11  2  0
 12 13  1  0
 12 10  1  0
 13 14  1  6
 14 15  1  0
 15 19  1  0
 15 16  2  0
 16 17  1  0
 18 17  1  0
 19 18  2  0
 20 13  1  0
 21 20  2  0
 22 20  1  0
 23 22  1  0
 24 25  1  0
 24 23  1  0
 25 26  1  0
 26 22  1  0
 26 27  1  1
 28 27  2  0
 29 27  1  0
M  END
$$$$
