FHP.pdb
     RDKit          3D

 29 31  0  0  1  0  0  0  0  0999 V2000
    6.3223  -18.1038   19.9912 N   0  0  0  0  0  0  0  0  0  0  0  0
    6.8723  -16.8835   20.5082 C   0  0  1  0  0  0  0  0  0  0  0  0
    6.1835  -15.6847   19.8750 C   0  0  0  0  0  0  0  0  0  0  0  0
    6.9090  -14.4308   20.1335 C   0  0  0  0  0  0  0  0  0  0  0  0
    6.5303  -13.6478   21.1951 C   0  0  0  0  0  0  0  0  0  0  0  0
    7.1991  -12.4790   21.4438 C   0  0  0  0  0  0  0  0  0  0  0  0
    8.2505  -12.0693   20.6463 C   0  0  0  0  0  0  0  0  0  0  0  0
    8.6178  -12.8545   19.5952 C   0  0  0  0  0  0  0  0  0  0  0  0
    7.9511  -14.0301   19.3387 C   0  0  0  0  0  0  0  0  0  0  0  0
    6.7118  -16.7509   21.9785 C   0  0  0  0  0  0  0  0  0  0  0  0
    5.5524  -16.8546   22.4470 O   0  0  0  0  0  0  0  0  0  0  0  0
    7.7677  -16.5177   22.8765 N   0  0  0  0  0  0  0  0  0  0  0  0
    7.6244  -16.5955   24.3310 C   0  0  1  0  0  0  0  0  0  0  0  0
    7.9080  -18.0603   24.6408 C   0  0  0  0  0  0  0  0  0  0  0  0
    7.9157  -18.3024   26.1112 C   0  0  0  0  0  0  0  0  0  0  0  0
    6.8135  -18.5267   26.8956 C   0  0  0  0  0  0  0  0  0  0  0  0
    7.2242  -18.6984   28.1546 N   0  0  0  0  0  0  0  0  0  0  0  0
    8.5613  -18.5833   28.1566 C   0  0  0  0  0  0  0  0  0  0  0  0
    8.9884  -18.3410   26.9085 N   0  0  0  0  0  0  0  0  0  0  0  0
    8.5755  -15.6693   24.9584 C   0  0  0  0  0  0  0  0  0  0  0  0
    9.7408  -15.5878   24.4087 O   0  0  0  0  0  0  0  0  0  0  0  0
    8.3411  -14.8737   26.0826 N   0  0  0  0  0  0  0  0  0  0  0  0
    7.1164  -14.8323   26.8398 C   0  0  0  0  0  0  0  0  0  0  0  0
    7.0319  -13.3936   27.2698 C   0  0  0  0  0  0  0  0  0  0  0  0
    8.3537  -12.7376   26.8458 C   0  0  0  0  0  0  0  0  0  0  0  0
    9.2421  -13.9769   26.7376 C   0  0  1  0  0  0  0  0  0  0  0  0
    9.6721  -14.4462   28.0669 C   0  0  0  0  0  0  0  0  0  0  0  0
   10.4546  -13.7516   28.7422 O   0  0  0  0  0  0  0  0  0  0  0  0
    9.2101  -15.6421   28.5517 O   0  0  0  0  0  0  0  0  0  0  0  0
  2  1  1  6
  2 10  1  0
  2  3  1  0
  4  3  1  0
  4  9  1  0
  5  4  2  0
  6  5  1  0
  6  7  2  0
  7  8  1  0
  8  9  2  0
 10 11  2  0
 12 13  1  0
 12 10  1  0
 13 14  1  1
 14 15  1  0
 15 19  1  0
 15 16  2  0
 16 17  1  0
 18 17  1  0
 19 18  2  0
 20 13  1  0
 21 20  2  0
 22 20  1  0
 23 22  1  0
 24 25  1  0
 24 23  1  0
 25 26  1  0
 26 22  1  0
 26 27  1  1
 28 27  2  0
 29 27  1  0
M  END
$$$$
