FHP.pdb
     RDKit          3D

 29 31  0  0  1  0  0  0  0  0999 V2000
    5.7706  -16.4742   22.2965 N   0  0  0  0  0  0  0  0  0  0  0  0
    6.5794  -15.7879   23.2629 C   0  0  1  0  0  0  0  0  0  0  0  0
    5.7546  -15.4476   24.4944 C   0  0  0  0  0  0  0  0  0  0  0  0
    6.4120  -14.4361   25.3370 C   0  0  0  0  0  0  0  0  0  0  0  0
    6.5419  -14.6714   26.6828 C   0  0  0  0  0  0  0  0  0  0  0  0
    7.1519  -13.7360   27.4755 C   0  0  0  0  0  0  0  0  0  0  0  0
    7.6411  -12.5563   26.9479 C   0  0  0  0  0  0  0  0  0  0  0  0
    7.5066  -12.3333   25.6105 C   0  0  0  0  0  0  0  0  0  0  0  0
    6.8950  -13.2680   24.8075 C   0  0  0  0  0  0  0  0  0  0  0  0
    7.7398  -16.5911   23.7249 C   0  0  0  0  0  0  0  0  0  0  0  0
    7.5171  -17.7651   24.1075 O   0  0  0  0  0  0  0  0  0  0  0  0
    9.0656  -16.1255   23.7619 N   0  0  0  0  0  0  0  0  0  0  0  0
   10.2091  -16.9685   24.1138 C   0  0  1  0  0  0  0  0  0  0  0  0
   11.3672  -16.3377   23.3504 C   0  0  0  0  0  0  0  0  0  0  0  0
   11.3032  -16.6846   21.9025 C   0  0  0  0  0  0  0  0  0  0  0  0
   11.5942  -17.9075   21.3545 C   0  0  0  0  0  0  0  0  0  0  0  0
   11.4216  -17.8253   20.0328 N   0  0  0  0  0  0  0  0  0  0  0  0
   11.0292  -16.5712   19.7598 C   0  0  0  0  0  0  0  0  0  0  0  0
   10.9555  -15.8701   20.9008 N   0  0  0  0  0  0  0  0  0  0  0  0
   10.3893  -16.9510   25.5709 C   0  0  0  0  0  0  0  0  0  0  0  0
   10.2179  -15.8121   26.1543 O   0  0  0  0  0  0  0  0  0  0  0  0
   10.7241  -18.0402   26.3794 N   0  0  0  0  0  0  0  0  0  0  0  0
   10.9854  -19.3789   25.9165 C   0  0  0  0  0  0  0  0  0  0  0  0
   10.4418  -20.2343   27.0276 C   0  0  0  0  0  0  0  0  0  0  0  0
   10.0461  -19.2738   28.1582 C   0  0  0  0  0  0  0  0  0  0  0  0
   10.9127  -18.0674   27.7967 C   0  0  1  0  0  0  0  0  0  0  0  0
   12.3157  -18.2759   28.1968 C   0  0  0  0  0  0  0  0  0  0  0  0
   13.1561  -18.6154   27.3426 O   0  0  0  0  0  0  0  0  0  0  0  0
   12.6876  -18.0962   29.5037 O   0  0  0  0  0  0  0  0  0  0  0  0
  2  1  1  6
  2 10  1  0
  2  3  1  0
  4  3  1  0
  4  9  1  0
  5  4  2  0
  6  5  1  0
  6  7  2  0
  7  8  1  0
  8  9  2  0
 10 11  2  0
 12 13  1  0
 12 10  1  0
 13 14  1  6
 14 15  1  0
 15 19  1  0
 15 16  2  0
 16 17  1  0
 18 17  1  0
 19 18  2  0
 20 13  1  0
 21 20  2  0
 22 20  1  0
 23 22  1  0
 24 25  1  0
 24 23  1  0
 25 26  1  0
 26 22  1  0
 26 27  1  6
 28 27  2  0
 29 27  1  0
M  END
$$$$
