FHP.pdb
     RDKit          3D

 29 31  0  0  1  0  0  0  0  0999 V2000
    6.5611  -18.3375   20.6079 N   0  0  0  0  0  0  0  0  0  0  0  0
    7.1011  -17.1029   21.1010 C   0  0  1  0  0  0  0  0  0  0  0  0
    6.2544  -15.9311   20.6287 C   0  0  0  0  0  0  0  0  0  0  0  0
    6.9206  -14.6397   20.8607 C   0  0  0  0  0  0  0  0  0  0  0  0
    7.7776  -14.1505   19.9068 C   0  0  0  0  0  0  0  0  0  0  0  0
    8.4026  -12.9497   20.1135 C   0  0  0  0  0  0  0  0  0  0  0  0
    8.1886  -12.2174   21.2655 C   0  0  0  0  0  0  0  0  0  0  0  0
    7.3358  -12.7128   22.2057 C   0  0  0  0  0  0  0  0  0  0  0  0
    6.7040  -13.9182   22.0056 C   0  0  0  0  0  0  0  0  0  0  0  0
    7.1442  -17.0386   22.5839 C   0  0  0  0  0  0  0  0  0  0  0  0
    6.0488  -17.0124   23.1953 O   0  0  0  0  0  0  0  0  0  0  0  0
    8.3255  -17.0052   23.3450 N   0  0  0  0  0  0  0  0  0  0  0  0
    8.3442  -16.9843   24.8083 C   0  0  1  0  0  0  0  0  0  0  0  0
    8.6849  -18.4216   25.1825 C   0  0  0  0  0  0  0  0  0  0  0  0
    7.4506  -19.2020   25.4796 C   0  0  0  0  0  0  0  0  0  0  0  0
    6.7794  -20.0119   24.5997 C   0  0  0  0  0  0  0  0  0  0  0  0
    5.7268  -20.5356   25.2330 N   0  0  0  0  0  0  0  0  0  0  0  0
    5.7403  -20.0606   26.4882 C   0  0  0  0  0  0  0  0  0  0  0  0
    6.7932  -19.2443   26.6432 N   0  0  0  0  0  0  0  0  0  0  0  0
    9.3428  -16.0083   25.2627 C   0  0  0  0  0  0  0  0  0  0  0  0
   10.4512  -15.9749   24.6017 O   0  0  0  0  0  0  0  0  0  0  0  0
    9.2082  -15.1191   26.3319 N   0  0  0  0  0  0  0  0  0  0  0  0
    7.9835  -14.8300   27.0329 C   0  0  0  0  0  0  0  0  0  0  0  0
    8.1276  -13.3742   27.3814 C   0  0  0  0  0  0  0  0  0  0  0  0
    9.5541  -12.9729   26.9798 C   0  0  0  0  0  0  0  0  0  0  0  0
   10.2249  -14.3466   26.9758 C   0  0  1  0  0  0  0  0  0  0  0  0
   10.5256  -14.8004   28.3455 C   0  0  0  0  0  0  0  0  0  0  0  0
   11.2499  -14.1032   29.0805 O   0  0  0  0  0  0  0  0  0  0  0  0
   10.0083  -15.9848   28.8020 O   0  0  0  0  0  0  0  0  0  0  0  0
  2  1  1  1
  2 10  1  0
  2  3  1  0
  4  3  1  0
  4  9  1  0
  5  4  2  0
  6  5  1  0
  6  7  2  0
  7  8  1  0
  8  9  2  0
 10 11  2  0
 12 13  1  0
 12 10  1  0
 13 14  1  1
 14 15  1  0
 15 19  1  0
 15 16  2  0
 16 17  1  0
 18 17  1  0
 19 18  2  0
 20 13  1  0
 21 20  2  0
 22 20  1  0
 23 22  1  0
 24 25  1  0
 24 23  1  0
 25 26  1  0
 26 22  1  0
 26 27  1  1
 28 27  2  0
 29 27  1  0
M  END
$$$$
