FHP.pdb
     RDKit          3D

 29 31  0  0  1  0  0  0  0  0999 V2000
    7.9618  -17.0829   19.6238 N   0  0  0  0  0  0  0  0  0  0  0  0
    8.8569  -16.7425   20.6925 C   0  0  1  0  0  0  0  0  0  0  0  0
    9.6542  -15.4975   20.3361 C   0  0  0  0  0  0  0  0  0  0  0  0
    8.7853  -14.3875   19.9136 C   0  0  0  0  0  0  0  0  0  0  0  0
    8.4655  -13.4084   20.8206 C   0  0  0  0  0  0  0  0  0  0  0  0
    7.6573  -12.3715   20.4371 C   0  0  0  0  0  0  0  0  0  0  0  0
    7.1550  -12.2894   19.1525 C   0  0  0  0  0  0  0  0  0  0  0  0
    7.4791  -13.2670   18.2605 C   0  0  0  0  0  0  0  0  0  0  0  0
    8.2903  -14.3119   18.6378 C   0  0  0  0  0  0  0  0  0  0  0  0
    8.1552  -16.4587   21.9700 C   0  0  0  0  0  0  0  0  0  0  0  0
    7.0281  -15.9114   21.9035 O   0  0  0  0  0  0  0  0  0  0  0  0
    8.6676  -16.7611   23.2435 N   0  0  0  0  0  0  0  0  0  0  0  0
    7.9789  -16.4297   24.4918 C   0  0  1  0  0  0  0  0  0  0  0  0
    7.7485  -17.7871   25.1447 C   0  0  0  0  0  0  0  0  0  0  0  0
    6.8911  -18.6528   24.2866 C   0  0  0  0  0  0  0  0  0  0  0  0
    5.5479  -18.4880   24.0651 C   0  0  0  0  0  0  0  0  0  0  0  0
    5.1372  -19.4586   23.2448 N   0  0  0  0  0  0  0  0  0  0  0  0
    6.2067  -20.2173   22.9587 C   0  0  0  0  0  0  0  0  0  0  0  0
    7.2817  -19.7278   23.5940 N   0  0  0  0  0  0  0  0  0  0  0  0
    8.8285  -15.5340   25.2868 C   0  0  0  0  0  0  0  0  0  0  0  0
   10.0797  -15.5027   24.9699 O   0  0  0  0  0  0  0  0  0  0  0  0
    8.4152  -14.7183   26.3431 N   0  0  0  0  0  0  0  0  0  0  0  0
    7.0622  -14.5831   26.8182 C   0  0  0  0  0  0  0  0  0  0  0  0
    6.9921  -13.1403   27.2366 C   0  0  0  0  0  0  0  0  0  0  0  0
    8.4186  -12.5857   27.1160 C   0  0  0  0  0  0  0  0  0  0  0  0
    9.2164  -13.8877   27.1877 C   0  0  1  0  0  0  0  0  0  0  0  0
    9.3131  -14.3817   28.5729 C   0  0  0  0  0  0  0  0  0  0  0  0
    9.9903  -13.7509   29.4063 O   0  0  0  0  0  0  0  0  0  0  0  0
    8.6592  -15.5304   28.9360 O   0  0  0  0  0  0  0  0  0  0  0  0
  2  1  1  6
  2 10  1  0
  2  3  1  0
  4  3  1  0
  4  9  1  0
  5  4  2  0
  6  5  1  0
  6  7  2  0
  7  8  1  0
  8  9  2  0
 10 11  2  0
 12 13  1  0
 12 10  1  0
 13 14  1  1
 14 15  1  0
 15 19  1  0
 15 16  2  0
 16 17  1  0
 18 17  1  0
 19 18  2  0
 20 13  1  0
 21 20  2  0
 22 20  1  0
 23 22  1  0
 24 25  1  0
 24 23  1  0
 25 26  1  0
 26 22  1  0
 26 27  1  1
 28 27  2  0
 29 27  1  0
M  END
$$$$
