FHP.pdb
     RDKit          3D

 29 31  0  0  1  0  0  0  0  0999 V2000
    5.1862  -17.4663   24.5149 N   0  0  0  0  0  0  0  0  0  0  0  0
    6.0151  -16.3055   24.6711 C   0  0  1  0  0  0  0  0  0  0  0  0
    6.3650  -16.1008   26.1369 C   0  0  0  0  0  0  0  0  0  0  0  0
    6.7288  -14.7050   26.4280 C   0  0  0  0  0  0  0  0  0  0  0  0
    5.7684  -13.7301   26.3250 C   0  0  0  0  0  0  0  0  0  0  0  0
    6.0972  -12.4281   26.5936 C   0  0  0  0  0  0  0  0  0  0  0  0
    7.3793  -12.0734   26.9671 C   0  0  0  0  0  0  0  0  0  0  0  0
    8.3247  -13.0496   27.0661 C   0  0  0  0  0  0  0  0  0  0  0  0
    8.0024  -14.3597   26.7981 C   0  0  0  0  0  0  0  0  0  0  0  0
    7.2967  -16.4023   23.9274 C   0  0  0  0  0  0  0  0  0  0  0  0
    7.9246  -17.4867   23.9927 O   0  0  0  0  0  0  0  0  0  0  0  0
    7.8510  -15.3643   23.1586 N   0  0  0  0  0  0  0  0  0  0  0  0
    9.0831  -15.5033   22.3809 C   0  0  1  0  0  0  0  0  0  0  0  0
    9.2011  -14.1684   21.6556 C   0  0  0  0  0  0  0  0  0  0  0  0
    8.4257  -14.1828   20.3830 C   0  0  0  0  0  0  0  0  0  0  0  0
    8.6107  -15.0511   19.3378 C   0  0  0  0  0  0  0  0  0  0  0  0
    7.7289  -14.7485   18.3817 N   0  0  0  0  0  0  0  0  0  0  0  0
    7.0048  -13.7081   18.8226 C   0  0  0  0  0  0  0  0  0  0  0  0
    7.4279  -13.3589   20.0465 N   0  0  0  0  0  0  0  0  0  0  0  0
   10.2005  -15.7744   23.2942 C   0  0  0  0  0  0  0  0  0  0  0  0
   10.1535  -15.1892   24.4441 O   0  0  0  0  0  0  0  0  0  0  0  0
   11.2992  -16.5992   23.0403 N   0  0  0  0  0  0  0  0  0  0  0  0
   11.5188  -17.3555   21.8343 C   0  0  0  0  0  0  0  0  0  0  0  0
   12.1997  -18.6000   22.3335 C   0  0  0  0  0  0  0  0  0  0  0  0
   12.4747  -18.3726   23.8268 C   0  0  0  0  0  0  0  0  0  0  0  0
   12.4346  -16.8452   23.8743 C   0  0  1  0  0  0  0  0  0  0  0  0
   13.6822  -16.2595   23.3523 C   0  0  0  0  0  0  0  0  0  0  0  0
   14.6988  -16.2336   24.0712 O   0  0  0  0  0  0  0  0  0  0  0  0
   13.7172  -15.7471   22.0815 O   0  0  0  0  0  0  0  0  0  0  0  0
  2  1  1  1
  2 10  1  0
  2  3  1  0
  4  3  1  0
  4  9  1  0
  5  4  2  0
  6  5  1  0
  6  7  2  0
  7  8  1  0
  8  9  2  0
 10 11  2  0
 12 13  1  0
 12 10  1  0
 13 14  1  1
 14 15  1  0
 15 19  1  0
 15 16  2  0
 16 17  1  0
 18 17  1  0
 19 18  2  0
 20 13  1  0
 21 20  2  0
 22 20  1  0
 23 22  1  0
 24 25  1  0
 24 23  1  0
 25 26  1  0
 26 22  1  0
 26 27  1  6
 28 27  2  0
 29 27  1  0
M  END
$$$$
