FHP.pdb
     RDKit          3D

 29 31  0  0  1  0  0  0  0  0999 V2000
    5.5431  -16.6917   24.8675 N   0  0  0  0  0  0  0  0  0  0  0  0
    6.6066  -15.7476   24.6763 C   0  0  1  0  0  0  0  0  0  0  0  0
    7.2446  -15.3945   26.0109 C   0  0  0  0  0  0  0  0  0  0  0  0
    7.0043  -13.9914   26.3837 C   0  0  0  0  0  0  0  0  0  0  0  0
    8.0752  -13.1431   26.5136 C   0  0  0  0  0  0  0  0  0  0  0  0
    7.8620  -11.8356   26.8605 C   0  0  0  0  0  0  0  0  0  0  0  0
    6.5876  -11.3502   27.0834 C   0  0  0  0  0  0  0  0  0  0  0  0
    5.5319  -12.2014   26.9516 C   0  0  0  0  0  0  0  0  0  0  0  0
    5.7377  -13.5162   26.6034 C   0  0  0  0  0  0  0  0  0  0  0  0
    7.6891  -16.2614   23.7992 C   0  0  0  0  0  0  0  0  0  0  0  0
    7.9062  -17.4972   23.8092 O   0  0  0  0  0  0  0  0  0  0  0  0
    8.4834  -15.4589   22.9620 N   0  0  0  0  0  0  0  0  0  0  0  0
    9.5140  -15.9927   22.0704 C   0  0  1  0  0  0  0  0  0  0  0  0
    9.8810  -14.8015   21.1939 C   0  0  0  0  0  0  0  0  0  0  0  0
    8.7625  -14.4524   20.2731 C   0  0  0  0  0  0  0  0  0  0  0  0
    8.0391  -15.3364   19.5143 C   0  0  0  0  0  0  0  0  0  0  0  0
    7.1283  -14.6464   18.8231 N   0  0  0  0  0  0  0  0  0  0  0  0
    7.2803  -13.3524   19.1450 C   0  0  0  0  0  0  0  0  0  0  0  0
    8.2790  -13.2293   20.0318 N   0  0  0  0  0  0  0  0  0  0  0  0
   10.6344  -16.4944   22.8761 C   0  0  0  0  0  0  0  0  0  0  0  0
   10.7867  -15.9573   24.0402 O   0  0  0  0  0  0  0  0  0  0  0  0
   11.5424  -17.4900   22.5069 N   0  0  0  0  0  0  0  0  0  0  0  0
   11.5746  -18.1656   21.2351 C   0  0  0  0  0  0  0  0  0  0  0  0
   12.0126  -19.5570   21.6011 C   0  0  0  0  0  0  0  0  0  0  0  0
   12.3698  -19.5189   23.0937 C   0  0  0  0  0  0  0  0  0  0  0  0
   12.6312  -18.0225   23.2659 C   0  0  1  0  0  0  0  0  0  0  0  0
   13.9538  -17.6449   22.7365 C   0  0  0  0  0  0  0  0  0  0  0  0
   14.0386  -17.1074   21.6163 O   0  0  0  0  0  0  0  0  0  0  0  0
   15.0811  -17.8870   23.4778 O   0  0  0  0  0  0  0  0  0  0  0  0
  2  1  1  1
  2 10  1  0
  2  3  1  0
  4  3  1  0
  4  9  1  0
  5  4  2  0
  6  5  1  0
  6  7  2  0
  7  8  1  0
  8  9  2  0
 10 11  2  0
 12 13  1  0
 12 10  1  0
 13 14  1  6
 14 15  1  0
 15 19  1  0
 15 16  2  0
 16 17  1  0
 18 17  1  0
 19 18  2  0
 20 13  1  0
 21 20  2  0
 22 20  1  0
 23 22  1  0
 24 25  1  0
 24 23  1  0
 25 26  1  0
 26 22  1  0
 26 27  1  6
 28 27  2  0
 29 27  1  0
M  END
$$$$
