AVQ.pdb
     RDKit          3D

 22 21  0  0  1  0  0  0  0  0999 V2000
    7.5327  -18.6713   18.0764 C   0  0  0  0  0  0  0  0  0  0  0  0
    7.5732  -17.2736   17.5349 C   0  0  2  0  0  0  0  0  0  0  0  0
    8.0409  -17.2464   16.1626 N   0  0  0  0  0  0  0  0  0  0  0  0
    8.5014  -16.4763   18.3832 C   0  0  0  0  0  0  0  0  0  0  0  0
    9.7380  -16.5080   18.1714 O   0  0  0  0  0  0  0  0  0  0  0  0
    7.3942  -12.8929   19.7512 C   0  0  0  0  0  0  0  0  0  0  0  0
    8.0190  -13.7282   20.8308 C   0  0  1  0  0  0  0  0  0  0  0  0
    6.8728  -14.3279   21.6485 C   0  0  0  0  0  0  0  0  0  0  0  0
    8.8274  -14.8746   20.3072 C   0  0  2  0  0  0  0  0  0  0  0  0
    8.0003  -15.6735   19.4381 N   0  0  0  0  0  0  0  0  0  0  0  0
    9.4441  -15.6940   21.3629 C   0  0  0  0  0  0  0  0  0  0  0  0
    8.8569  -16.7391   21.7337 O   0  0  0  0  0  0  0  0  0  0  0  0
   15.6992  -15.8306   24.0681 N   0  0  0  0  0  0  0  0  0  0  0  0
   15.1097  -16.9088   23.3576 C   0  0  0  0  0  0  0  0  0  0  0  0
   15.8765  -17.6305   22.6851 O   0  0  0  0  0  0  0  0  0  0  0  0
   13.6323  -17.1323   23.4378 C   0  0  0  0  0  0  0  0  0  0  0  0
   12.8601  -16.1235   22.6484 C   0  0  0  0  0  0  0  0  0  0  0  0
   11.3947  -16.3355   22.7617 C   0  0  2  0  0  0  0  0  0  0  0  0
   10.6725  -15.3207   21.9540 N   0  0  0  0  0  0  0  0  0  0  0  0
   10.9516  -16.1290   24.1585 C   0  0  0  0  0  0  0  0  0  0  0  0
   11.2469  -17.0975   25.1450 O   0  0  0  0  0  0  0  0  0  0  0  0
   10.3133  -15.1288   24.5482 O   0  0  0  0  0  0  0  0  0  0  0  0
  2  3  1  0
  2  1  1  1
  4  5  2  0
  4  2  1  0
  7  6  1  6
  7  9  1  0
  8  7  1  0
  9 11  1  0
  9 10  1  1
 10  4  1  0
 11 19  1  0
 12 11  2  0
 14 15  2  0
 14 13  1  0
 16 14  1  0
 18 17  1  1
 17 16  1  0
 18 20  1  0
 19 18  1  0
 20 22  2  0
 20 21  1  0
M  END
$$$$
