AVQ.pdb
     RDKit          3D

 22 21  0  0  1  0  0  0  0  0999 V2000
    8.2465  -18.4773   17.9453 C   0  0  0  0  0  0  0  0  0  0  0  0
    8.1117  -17.0648   17.4603 C   0  0  2  0  0  0  0  0  0  0  0  0
    8.6424  -16.9080   16.1201 N   0  0  0  0  0  0  0  0  0  0  0  0
    8.8678  -16.1826   18.3915 C   0  0  0  0  0  0  0  0  0  0  0  0
   10.1031  -16.0172   18.2443 O   0  0  0  0  0  0  0  0  0  0  0  0
    7.4207  -12.7698   19.7377 C   0  0  0  0  0  0  0  0  0  0  0  0
    7.9330  -13.6116   20.8702 C   0  0  1  0  0  0  0  0  0  0  0  0
    6.7178  -14.2953   21.5011 C   0  0  0  0  0  0  0  0  0  0  0  0
    8.8662  -14.6978   20.4333 C   0  0  2  0  0  0  0  0  0  0  0  0
    8.2024  -15.5203   19.4531 N   0  0  0  0  0  0  0  0  0  0  0  0
    9.3931  -15.5069   21.5441 C   0  0  0  0  0  0  0  0  0  0  0  0
    8.7711  -16.5432   21.8815 O   0  0  0  0  0  0  0  0  0  0  0  0
   15.3085  -14.9037   21.5037 N   0  0  0  0  0  0  0  0  0  0  0  0
   14.7654  -15.7107   22.5375 C   0  0  0  0  0  0  0  0  0  0  0  0
   15.5103  -15.9653   23.5077 O   0  0  0  0  0  0  0  0  0  0  0  0
   13.3602  -16.2133   22.4273 C   0  0  0  0  0  0  0  0  0  0  0  0
   12.5027  -15.7608   23.5661 C   0  0  0  0  0  0  0  0  0  0  0  0
   11.0626  -16.0184   23.3115 C   0  0  2  0  0  0  0  0  0  0  0  0
   10.5746  -15.1337   22.2240 N   0  0  0  0  0  0  0  0  0  0  0  0
   10.2592  -15.6713   24.5049 C   0  0  0  0  0  0  0  0  0  0  0  0
   10.2980  -16.4998   25.6495 O   0  0  0  0  0  0  0  0  0  0  0  0
    9.5220  -14.6661   24.5824 O   0  0  0  0  0  0  0  0  0  0  0  0
  2  3  1  0
  2  1  1  1
  4  5  2  0
  4  2  1  0
  7  6  1  6
  7  9  1  0
  8  7  1  0
  9 11  1  0
  9 10  1  6
 10  4  1  0
 11 19  1  0
 12 11  2  0
 14 15  2  0
 14 13  1  0
 16 14  1  0
 18 17  1  1
 17 16  1  0
 18 20  1  0
 19 18  1  0
 20 22  2  0
 20 21  1  0
M  END
$$$$
