AVQ.pdb
     RDKit          3D

 22 21  0  0  1  0  0  0  0  0999 V2000
    8.3637  -16.6744   20.6035 C   0  0  0  0  0  0  0  0  0  0  0  0
    8.3631  -15.1819   20.7478 C   0  0  2  0  0  0  0  0  0  0  0  0
    9.3366  -14.5607   19.8708 N   0  0  0  0  0  0  0  0  0  0  0  0
    8.6991  -14.8542   22.1608 C   0  0  0  0  0  0  0  0  0  0  0  0
    9.8870  -14.6204   22.4913 O   0  0  0  0  0  0  0  0  0  0  0  0
    6.7783  -13.8694   26.6641 C   0  0  0  0  0  0  0  0  0  0  0  0
    6.6955  -13.9917   25.1701 C   0  0  1  0  0  0  0  0  0  0  0  0
    6.5371  -12.5739   24.6160 C   0  0  0  0  0  0  0  0  0  0  0  0
    7.9298  -14.5674   24.5481 C   0  0  2  0  0  0  0  0  0  0  0  0
    7.6832  -14.8025   23.1474 N   0  0  0  0  0  0  0  0  0  0  0  0
    8.4173  -15.7837   25.2183 C   0  0  0  0  0  0  0  0  0  0  0  0
    7.9820  -16.8968   24.8361 O   0  0  0  0  0  0  0  0  0  0  0  0
   12.6110  -15.4730   29.6710 N   0  0  0  0  0  0  0  0  0  0  0  0
   11.2339  -15.2030   29.8836 C   0  0  0  0  0  0  0  0  0  0  0  0
   10.9452  -14.4478   30.8362 O   0  0  0  0  0  0  0  0  0  0  0  0
   10.2085  -15.8181   28.9839 C   0  0  0  0  0  0  0  0  0  0  0  0
   10.8204  -16.7002   27.9425 C   0  0  0  0  0  0  0  0  0  0  0  0
    9.8760  -16.9838   26.8323 C   0  0  2  0  0  0  0  0  0  0  0  0
    9.3566  -15.7110   26.2719 N   0  0  0  0  0  0  0  0  0  0  0  0
    8.6925  -17.7145   27.3377 C   0  0  0  0  0  0  0  0  0  0  0  0
    8.7152  -19.1254   27.4228 O   0  0  0  0  0  0  0  0  0  0  0  0
    7.6359  -17.1614   27.7086 O   0  0  0  0  0  0  0  0  0  0  0  0
  2  3  1  0
  2  1  1  1
  4  5  2  0
  4  2  1  0
  7  6  1  1
  7  9  1  0
  8  7  1  0
  9 11  1  0
  9 10  1  6
 10  4  1  0
 11 19  1  0
 12 11  2  0
 14 15  2  0
 14 13  1  0
 16 14  1  0
 18 17  1  1
 17 16  1  0
 18 20  1  0
 19 18  1  0
 20 22  2  0
 20 21  1  0
M  END
$$$$
