AVQ.pdb
     RDKit          3D

 22 21  0  0  1  0  0  0  0  0999 V2000
    8.5190  -18.8958   19.4528 C   0  0  0  0  0  0  0  0  0  0  0  0
    8.0283  -17.6421   18.7927 C   0  0  2  0  0  0  0  0  0  0  0  0
    8.2165  -17.6870   17.3557 N   0  0  0  0  0  0  0  0  0  0  0  0
    8.7966  -16.4952   19.3505 C   0  0  0  0  0  0  0  0  0  0  0  0
   10.0394  -16.4273   19.1892 O   0  0  0  0  0  0  0  0  0  0  0  0
    7.1603  -12.9112   19.3640 C   0  0  0  0  0  0  0  0  0  0  0  0
    7.8398  -13.1733   20.6767 C   0  0  1  0  0  0  0  0  0  0  0  0
    6.7441  -13.5457   21.6781 C   0  0  0  0  0  0  0  0  0  0  0  0
    8.8000  -14.3214   20.6342 C   0  0  2  0  0  0  0  0  0  0  0  0
    8.1348  -15.4685   20.0688 N   0  0  0  0  0  0  0  0  0  0  0  0
    9.3998  -14.6391   21.9401 C   0  0  0  0  0  0  0  0  0  0  0  0
    9.7992  -13.6953   22.6644 O   0  0  0  0  0  0  0  0  0  0  0  0
    8.2898  -17.7767   26.8145 N   0  0  0  0  0  0  0  0  0  0  0  0
    7.4984  -17.6958   25.6390 C   0  0  0  0  0  0  0  0  0  0  0  0
    6.4263  -18.3373   25.6328 O   0  0  0  0  0  0  0  0  0  0  0  0
    7.9671  -16.8691   24.4831 C   0  0  0  0  0  0  0  0  0  0  0  0
    9.2301  -16.1283   24.7879 C   0  0  0  0  0  0  0  0  0  0  0  0
   10.2094  -16.2221   23.6755 C   0  0  2  0  0  0  0  0  0  0  0  0
    9.5284  -15.9762   22.3795 N   0  0  0  0  0  0  0  0  0  0  0  0
   10.7592  -17.5933   23.5885 C   0  0  0  0  0  0  0  0  0  0  0  0
   11.7395  -18.0225   24.5120 O   0  0  0  0  0  0  0  0  0  0  0  0
   10.4118  -18.4320   22.7307 O   0  0  0  0  0  0  0  0  0  0  0  0
  2  3  1  0
  2  1  1  1
  4  5  2  0
  4  2  1  0
  7  6  1  6
  7  9  1  0
  8  7  1  0
  9 11  1  0
  9 10  1  1
 10  4  1  0
 11 19  1  0
 12 11  2  0
 14 15  2  0
 14 13  1  0
 16 14  1  0
 18 17  1  1
 17 16  1  0
 18 20  1  0
 19 18  1  0
 20 22  2  0
 20 21  1  0
M  END
$$$$
