AVQ.pdb
     RDKit          3D

 22 21  0  0  1  0  0  0  0  0999 V2000
    6.5265  -18.3523   18.3625 C   0  0  0  0  0  0  0  0  0  0  0  0
    7.1092  -17.1103   17.7571 C   0  0  2  0  0  0  0  0  0  0  0  0
    7.7515  -17.3868   16.4868 N   0  0  0  0  0  0  0  0  0  0  0  0
    8.1180  -16.5634   18.7058 C   0  0  0  0  0  0  0  0  0  0  0  0
    9.2573  -17.0833   18.7879 O   0  0  0  0  0  0  0  0  0  0  0  0
    7.8204  -12.6289   19.4759 C   0  0  0  0  0  0  0  0  0  0  0  0
    8.2436  -13.4066   20.6883 C   0  0  1  0  0  0  0  0  0  0  0  0
    6.9969  -13.5891   21.5570 C   0  0  0  0  0  0  0  0  0  0  0  0
    8.7577  -14.7765   20.3704 C   0  0  2  0  0  0  0  0  0  0  0  0
    7.8041  -15.4511   19.5258 N   0  0  0  0  0  0  0  0  0  0  0  0
    9.0802  -15.5781   21.5619 C   0  0  0  0  0  0  0  0  0  0  0  0
    8.1454  -16.1492   22.1739 O   0  0  0  0  0  0  0  0  0  0  0  0
   12.8435  -20.0151   21.2170 N   0  0  0  0  0  0  0  0  0  0  0  0
   12.5125  -20.1156   22.5936 C   0  0  0  0  0  0  0  0  0  0  0  0
   12.8973  -21.1407   23.1953 O   0  0  0  0  0  0  0  0  0  0  0  0
   11.7348  -19.0201   23.2527 C   0  0  0  0  0  0  0  0  0  0  0  0
   11.3911  -17.9157   22.3045 C   0  0  0  0  0  0  0  0  0  0  0  0
   10.7138  -16.7867   22.9913 C   0  0  2  0  0  0  0  0  0  0  0  0
   10.4121  -15.7087   22.0164 N   0  0  0  0  0  0  0  0  0  0  0  0
   11.6153  -16.1808   23.9964 C   0  0  0  0  0  0  0  0  0  0  0  0
   11.7829  -16.7953   25.2584 O   0  0  0  0  0  0  0  0  0  0  0  0
   12.2637  -15.1298   23.8097 O   0  0  0  0  0  0  0  0  0  0  0  0
  2  3  1  0
  2  1  1  1
  4  5  2  0
  4  2  1  0
  7  6  1  6
  7  9  1  0
  8  7  1  0
  9 11  1  0
  9 10  1  1
 10  4  1  0
 11 19  1  0
 12 11  2  0
 14 15  2  0
 14 13  1  0
 16 14  1  0
 18 17  1  6
 17 16  1  0
 18 20  1  0
 19 18  1  0
 20 22  2  0
 20 21  1  0
M  END
$$$$
