AVQ.pdb
     RDKit          3D

 22 21  0  0  1  0  0  0  0  0999 V2000
    6.5790  -16.3865   22.2217 C   0  0  0  0  0  0  0  0  0  0  0  0
    6.9253  -14.9367   22.0586 C   0  0  2  0  0  0  0  0  0  0  0  0
    7.5890  -14.6857   20.7940 N   0  0  0  0  0  0  0  0  0  0  0  0
    7.8347  -14.5507   23.1726 C   0  0  0  0  0  0  0  0  0  0  0  0
    9.0746  -14.7098   23.0619 O   0  0  0  0  0  0  0  0  0  0  0  0
    7.2117  -11.2624   25.3454 C   0  0  0  0  0  0  0  0  0  0  0  0
    7.4343  -12.4722   26.2060 C   0  0  1  0  0  0  0  0  0  0  0  0
    6.0527  -12.9840   26.6196 C   0  0  0  0  0  0  0  0  0  0  0  0
    8.1197  -13.5958   25.4921 C   0  0  2  0  0  0  0  0  0  0  0  0
    7.3116  -14.0001   24.3690 N   0  0  0  0  0  0  0  0  0  0  0  0
    8.4412  -14.7394   26.3609 C   0  0  0  0  0  0  0  0  0  0  0  0
    7.5498  -15.5934   26.5858 O   0  0  0  0  0  0  0  0  0  0  0  0
   13.5137  -19.8112   27.1767 N   0  0  0  0  0  0  0  0  0  0  0  0
   12.9858  -18.5568   26.7735 C   0  0  0  0  0  0  0  0  0  0  0  0
   13.5817  -17.9618   25.8506 O   0  0  0  0  0  0  0  0  0  0  0  0
   11.7698  -18.0095   27.4525 C   0  0  0  0  0  0  0  0  0  0  0  0
   11.2866  -16.7428   26.8209 C   0  0  0  0  0  0  0  0  0  0  0  0
   10.0877  -16.2022   27.5107 C   0  0  2  0  0  0  0  0  0  0  0  0
    9.7246  -14.8828   26.9354 N   0  0  0  0  0  0  0  0  0  0  0  0
   10.3852  -15.9515   28.9385 C   0  0  0  0  0  0  0  0  0  0  0  0
   10.3340  -14.6352   29.4514 O   0  0  0  0  0  0  0  0  0  0  0  0
   10.6892  -16.8453   29.7561 O   0  0  0  0  0  0  0  0  0  0  0  0
  2  3  1  0
  2  1  1  1
  4  5  2  0
  4  2  1  0
  7  6  1  6
  7  9  1  0
  8  7  1  0
  9 11  1  0
  9 10  1  6
 10  4  1  0
 11 19  1  0
 12 11  2  0
 14 15  2  0
 14 13  1  0
 16 14  1  0
 18 17  1  6
 17 16  1  0
 18 20  1  0
 19 18  1  0
 20 22  2  0
 20 21  1  0
M  END
$$$$
