AVQ.pdb
     RDKit          3D

 22 21  0  0  1  0  0  0  0  0999 V2000
    7.8489  -18.6021   18.0810 C   0  0  0  0  0  0  0  0  0  0  0  0
    7.8744  -17.2069   17.5321 C   0  0  2  0  0  0  0  0  0  0  0  0
    8.4403  -17.1690   16.1976 N   0  0  0  0  0  0  0  0  0  0  0  0
    8.7058  -16.3687   18.4393 C   0  0  0  0  0  0  0  0  0  0  0  0
    9.9575  -16.3876   18.3490 O   0  0  0  0  0  0  0  0  0  0  0  0
    7.5027  -12.7396   19.6374 C   0  0  0  0  0  0  0  0  0  0  0  0
    7.9724  -13.5848   20.7858 C   0  0  1  0  0  0  0  0  0  0  0  0
    6.7225  -14.1680   21.4490 C   0  0  0  0  0  0  0  0  0  0  0  0
    8.8242  -14.7427   20.3668 C   0  0  2  0  0  0  0  0  0  0  0  0
    8.0946  -15.5410   19.4137 N   0  0  0  0  0  0  0  0  0  0  0  0
    9.3069  -15.5592   21.4922 C   0  0  0  0  0  0  0  0  0  0  0  0
    8.6752  -16.6003   21.7948 O   0  0  0  0  0  0  0  0  0  0  0  0
   15.3488  -15.7880   23.1518 N   0  0  0  0  0  0  0  0  0  0  0  0
   14.7618  -16.7536   24.0106 C   0  0  0  0  0  0  0  0  0  0  0  0
   15.5375  -17.4162   24.7320 O   0  0  0  0  0  0  0  0  0  0  0  0
   13.2767  -16.9372   24.0173 C   0  0  0  0  0  0  0  0  0  0  0  0
   12.5835  -16.0052   23.0751 C   0  0  0  0  0  0  0  0  0  0  0  0
   11.1144  -16.2211   23.0631 C   0  0  2  0  0  0  0  0  0  0  0  0
   10.4576  -15.1876   22.2241 N   0  0  0  0  0  0  0  0  0  0  0  0
   10.5582  -16.0493   24.4237 C   0  0  0  0  0  0  0  0  0  0  0  0
   10.6512  -17.1005   25.3642 O   0  0  0  0  0  0  0  0  0  0  0  0
    9.9918  -15.0093   24.8206 O   0  0  0  0  0  0  0  0  0  0  0  0
  2  3  1  0
  2  1  1  1
  4  5  2  0
  4  2  1  0
  7  6  1  6
  7  9  1  0
  8  7  1  0
  9 11  1  0
  9 10  1  6
 10  4  1  0
 11 19  1  0
 12 11  2  0
 14 15  2  0
 14 13  1  0
 16 14  1  0
 18 17  1  1
 17 16  1  0
 18 20  1  0
 19 18  1  0
 20 22  2  0
 20 21  1  0
M  END
$$$$
