AVQ.pdb
     RDKit          3D

 22 21  0  0  1  0  0  0  0  0999 V2000
    6.7581  -16.1258   21.9504 C   0  0  0  0  0  0  0  0  0  0  0  0
    6.9636  -14.6412   21.9038 C   0  0  2  0  0  0  0  0  0  0  0  0
    7.6092  -14.2305   20.6721 N   0  0  0  0  0  0  0  0  0  0  0  0
    7.8231  -14.2574   23.0575 C   0  0  0  0  0  0  0  0  0  0  0  0
    9.0642  -14.4376   23.0101 O   0  0  0  0  0  0  0  0  0  0  0  0
    7.0583  -11.0030   25.3772 C   0  0  0  0  0  0  0  0  0  0  0  0
    7.2521  -12.2738   26.1526 C   0  0  1  0  0  0  0  0  0  0  0  0
    5.8582  -12.8377   26.4375 C   0  0  0  0  0  0  0  0  0  0  0  0
    8.0023  -13.3266   25.3973 C   0  0  2  0  0  0  0  0  0  0  0  0
    7.2507  -13.6850   24.2206 N   0  0  0  0  0  0  0  0  0  0  0  0
    8.3317  -14.5120   26.2049 C   0  0  0  0  0  0  0  0  0  0  0  0
    7.4772  -15.4249   26.3101 O   0  0  0  0  0  0  0  0  0  0  0  0
   13.2174  -17.8961   25.7381 N   0  0  0  0  0  0  0  0  0  0  0  0
   12.5886  -18.5214   26.8464 C   0  0  0  0  0  0  0  0  0  0  0  0
   13.0664  -19.6108   27.2283 O   0  0  0  0  0  0  0  0  0  0  0  0
   11.4083  -17.8701   27.4960 C   0  0  0  0  0  0  0  0  0  0  0  0
   11.0459  -16.5719   26.8476 C   0  0  0  0  0  0  0  0  0  0  0  0
    9.9001  -15.9147   27.5261 C   0  0  2  0  0  0  0  0  0  0  0  0
    9.5821  -14.6303   26.8532 N   0  0  0  0  0  0  0  0  0  0  0  0
   10.2595  -15.5627   28.9179 C   0  0  0  0  0  0  0  0  0  0  0  0
   10.4467  -16.5816   29.8797 O   0  0  0  0  0  0  0  0  0  0  0  0
   10.4160  -14.3921   29.3241 O   0  0  0  0  0  0  0  0  0  0  0  0
  2  3  1  0
  2  1  1  6
  4  5  2  0
  4  2  1  0
  7  6  1  6
  7  9  1  0
  8  7  1  0
  9 11  1  0
  9 10  1  6
 10  4  1  0
 11 19  1  0
 12 11  2  0
 14 15  2  0
 14 13  1  0
 16 14  1  0
 18 17  1  6
 17 16  1  0
 18 20  1  0
 19 18  1  0
 20 22  2  0
 20 21  1  0
M  END
$$$$
