AVQ.pdb
     RDKit          3D

 22 21  0  0  1  0  0  0  0  0999 V2000
    7.0982  -16.7758   22.0469 C   0  0  0  0  0  0  0  0  0  0  0  0
    7.2060  -15.2986   21.8130 C   0  0  2  0  0  0  0  0  0  0  0  0
    7.8339  -15.0045   20.5395 N   0  0  0  0  0  0  0  0  0  0  0  0
    8.0281  -14.7160   22.9092 C   0  0  0  0  0  0  0  0  0  0  0  0
    9.2805  -14.7848   22.8665 O   0  0  0  0  0  0  0  0  0  0  0  0
    6.0797  -13.2603   26.5825 C   0  0  0  0  0  0  0  0  0  0  0  0
    7.2410  -12.6068   25.8911 C   0  0  1  0  0  0  0  0  0  0  0  0
    8.1003  -11.9603   26.9800 C   0  0  0  0  0  0  0  0  0  0  0  0
    8.1201  -13.5717   25.1576 C   0  0  2  0  0  0  0  0  0  0  0  0
    7.4071  -14.0781   24.0117 N   0  0  0  0  0  0  0  0  0  0  0  0
    8.6282  -14.6665   25.9999 C   0  0  0  0  0  0  0  0  0  0  0  0
    7.8902  -15.6605   26.2044 O   0  0  0  0  0  0  0  0  0  0  0  0
   13.3024  -16.1652   23.3342 N   0  0  0  0  0  0  0  0  0  0  0  0
   13.0446  -15.8427   24.6922 C   0  0  0  0  0  0  0  0  0  0  0  0
   13.7991  -15.0034   25.2282 O   0  0  0  0  0  0  0  0  0  0  0  0
   11.9106  -16.5040   25.4106 C   0  0  0  0  0  0  0  0  0  0  0  0
   11.8279  -16.0915   26.8459 C   0  0  0  0  0  0  0  0  0  0  0  0
   10.4292  -15.8198   27.2644 C   0  0  2  0  0  0  0  0  0  0  0  0
    9.9195  -14.6098   26.5717 N   0  0  0  0  0  0  0  0  0  0  0  0
   10.3761  -15.5092   28.7103 C   0  0  0  0  0  0  0  0  0  0  0  0
   10.0299  -14.2085   29.1424 O   0  0  0  0  0  0  0  0  0  0  0  0
   10.6225  -16.3373   29.6122 O   0  0  0  0  0  0  0  0  0  0  0  0
  2  3  1  0
  2  1  1  1
  4  5  2  0
  4  2  1  0
  7  6  1  1
  7  9  1  0
  8  7  1  0
  9 11  1  0
  9 10  1  6
 10  4  1  0
 11 19  1  0
 12 11  2  0
 14 15  2  0
 14 13  1  0
 16 14  1  0
 18 17  1  6
 17 16  1  0
 18 20  1  0
 19 18  1  0
 20 22  2  0
 20 21  1  0
M  END
$$$$
