AVQ.pdb
     RDKit          3D

 22 21  0  0  1  0  0  0  0  0999 V2000
    6.4441  -17.2880   22.7526 C   0  0  0  0  0  0  0  0  0  0  0  0
    6.6047  -15.8403   22.3967 C   0  0  2  0  0  0  0  0  0  0  0  0
    7.0978  -15.6752   21.0431 N   0  0  0  0  0  0  0  0  0  0  0  0
    7.5775  -15.2358   23.3481 C   0  0  0  0  0  0  0  0  0  0  0  0
    8.8098  -15.4171   23.1943 O   0  0  0  0  0  0  0  0  0  0  0  0
    7.2649  -11.5492   24.5606 C   0  0  0  0  0  0  0  0  0  0  0  0
    7.4247  -12.4655   25.7390 C   0  0  1  0  0  0  0  0  0  0  0  0
    6.0233  -12.7160   26.3007 C   0  0  0  0  0  0  0  0  0  0  0  0
    7.9972  -13.8025   25.3835 C   0  0  2  0  0  0  0  0  0  0  0  0
    7.1241  -14.4499   24.4367 N   0  0  0  0  0  0  0  0  0  0  0  0
    8.2570  -14.6631   26.5488 C   0  0  0  0  0  0  0  0  0  0  0  0
    7.3372  -15.4098   26.9624 O   0  0  0  0  0  0  0  0  0  0  0  0
   12.7947  -18.4385   26.9534 N   0  0  0  0  0  0  0  0  0  0  0  0
   12.1761  -18.6644   28.2108 C   0  0  0  0  0  0  0  0  0  0  0  0
   12.5594  -19.6609   28.8597 O   0  0  0  0  0  0  0  0  0  0  0  0
   11.1161  -17.7266   28.6967 C   0  0  0  0  0  0  0  0  0  0  0  0
   10.8314  -16.6326   27.7174 C   0  0  0  0  0  0  0  0  0  0  0  0
    9.7801  -15.7071   28.2110 C   0  0  2  0  0  0  0  0  0  0  0  0
    9.5132  -14.6568   27.1965 N   0  0  0  0  0  0  0  0  0  0  0  0
   10.2502  -14.9917   29.4182 C   0  0  0  0  0  0  0  0  0  0  0  0
   10.4110  -13.5875   29.3908 O   0  0  0  0  0  0  0  0  0  0  0  0
   10.5264  -15.5525   30.4994 O   0  0  0  0  0  0  0  0  0  0  0  0
  2  3  1  0
  2  1  1  1
  4  5  2  0
  4  2  1  0
  7  6  1  6
  7  9  1  0
  8  7  1  0
  9 11  1  0
  9 10  1  6
 10  4  1  0
 11 19  1  0
 12 11  2  0
 14 15  2  0
 14 13  1  0
 16 14  1  0
 18 17  1  6
 17 16  1  0
 18 20  1  0
 19 18  1  0
 20 22  2  0
 20 21  1  0
M  END
$$$$
