AVQ.pdb
     RDKit          3D

 22 21  0  0  1  0  0  0  0  0999 V2000
    5.4494  -18.4909   24.0947 C   0  0  0  0  0  0  0  0  0  0  0  0
    5.8075  -17.3902   23.1415 C   0  0  2  0  0  0  0  0  0  0  0  0
    6.3552  -17.9126   21.9047 N   0  0  0  0  0  0  0  0  0  0  0  0
    6.8243  -16.5230   23.7981 C   0  0  0  0  0  0  0  0  0  0  0  0
    8.0320  -16.8637   23.8139 O   0  0  0  0  0  0  0  0  0  0  0  0
    5.5347  -13.0918   26.2181 C   0  0  0  0  0  0  0  0  0  0  0  0
    6.7131  -13.0950   25.2881 C   0  0  1  0  0  0  0  0  0  0  0  0
    7.7697  -12.1763   25.9059 C   0  0  0  0  0  0  0  0  0  0  0  0
    7.3461  -14.4426   25.1297 C   0  0  2  0  0  0  0  0  0  0  0  0
    6.4408  -15.3046   24.4120 N   0  0  0  0  0  0  0  0  0  0  0  0
    7.7698  -15.0499   26.4016 C   0  0  0  0  0  0  0  0  0  0  0  0
    6.9138  -15.6480   27.0974 O   0  0  0  0  0  0  0  0  0  0  0  0
   11.2190  -19.5127   26.9868 N   0  0  0  0  0  0  0  0  0  0  0  0
   11.0823  -19.2059   28.3658 C   0  0  0  0  0  0  0  0  0  0  0  0
   11.4661  -20.0726   29.1797 O   0  0  0  0  0  0  0  0  0  0  0  0
   10.4976  -17.8922   28.7804 C   0  0  0  0  0  0  0  0  0  0  0  0
   10.0753  -17.0622   27.6100 C   0  0  0  0  0  0  0  0  0  0  0  0
    9.5047  -15.7581   28.0330 C   0  0  2  0  0  0  0  0  0  0  0  0
    9.1109  -14.9671   26.8402 N   0  0  0  0  0  0  0  0  0  0  0  0
   10.5293  -14.9508   28.7319 C   0  0  0  0  0  0  0  0  0  0  0  0
   10.7658  -15.1483   30.1116 O   0  0  0  0  0  0  0  0  0  0  0  0
   11.2273  -14.0761   28.1774 O   0  0  0  0  0  0  0  0  0  0  0  0
  2  3  1  0
  2  1  1  1
  4  5  2  0
  4  2  1  0
  7  6  1  1
  7  9  1  0
  8  7  1  0
  9 11  1  0
  9 10  1  1
 10  4  1  0
 11 19  1  0
 12 11  2  0
 14 15  2  0
 14 13  1  0
 16 14  1  0
 18 17  1  6
 17 16  1  0
 18 20  1  0
 19 18  1  0
 20 22  2  0
 20 21  1  0
M  END
$$$$
