AVQ.pdb
     RDKit          3D

 22 21  0  0  1  0  0  0  0  0999 V2000
    9.7369  -19.2688   19.6808 C   0  0  0  0  0  0  0  0  0  0  0  0
    9.5416  -17.8785   19.1543 C   0  0  2  0  0  0  0  0  0  0  0  0
   10.4062  -17.6107   18.0215 N   0  0  0  0  0  0  0  0  0  0  0  0
    9.8601  -16.9209   20.2490 C   0  0  0  0  0  0  0  0  0  0  0  0
   11.0470  -16.5712   20.4591 O   0  0  0  0  0  0  0  0  0  0  0  0
    7.5296  -13.8186   21.0824 C   0  0  0  0  0  0  0  0  0  0  0  0
    7.8562  -14.6036   22.3197 C   0  0  1  0  0  0  0  0  0  0  0  0
    6.6583  -15.5145   22.5975 C   0  0  0  0  0  0  0  0  0  0  0  0
    9.0524  -15.4910   22.1664 C   0  0  2  0  0  0  0  0  0  0  0  0
    8.8285  -16.3940   21.0653 N   0  0  0  0  0  0  0  0  0  0  0  0
    9.4087  -16.2202   23.3941 C   0  0  0  0  0  0  0  0  0  0  0  0
    9.2121  -17.4588   23.4368 O   0  0  0  0  0  0  0  0  0  0  0  0
   10.2986  -13.2724   28.0202 N   0  0  0  0  0  0  0  0  0  0  0  0
   10.2585  -14.5193   28.6972 C   0  0  0  0  0  0  0  0  0  0  0  0
    9.8675  -14.5072   29.8838 O   0  0  0  0  0  0  0  0  0  0  0  0
   10.6767  -15.7662   27.9834 C   0  0  0  0  0  0  0  0  0  0  0  0
   11.1898  -15.4891   26.6061 C   0  0  0  0  0  0  0  0  0  0  0  0
   10.5577  -16.3705   25.5919 C   0  0  2  0  0  0  0  0  0  0  0  0
    9.9617  -15.5492   24.5084 N   0  0  0  0  0  0  0  0  0  0  0  0
    9.4337  -17.1225   26.1928 C   0  0  0  0  0  0  0  0  0  0  0  0
    9.6880  -18.2831   26.9587 O   0  0  0  0  0  0  0  0  0  0  0  0
    8.2333  -16.7998   26.0714 O   0  0  0  0  0  0  0  0  0  0  0  0
  2  3  1  0
  2  1  1  1
  4  5  2  0
  4  2  1  0
  7  6  1  6
  7  9  1  0
  8  7  1  0
  9 11  1  0
  9 10  1  6
 10  4  1  0
 11 19  1  0
 12 11  2  0
 14 15  2  0
 14 13  1  0
 16 14  1  0
 18 17  1  1
 17 16  1  0
 18 20  1  0
 19 18  1  0
 20 22  2  0
 20 21  1  0
M  END
$$$$
