AVQ.pdb
     RDKit          3D

 22 21  0  0  1  0  0  0  0  0999 V2000
    7.1110  -18.5912   18.4201 C   0  0  0  0  0  0  0  0  0  0  0  0
    7.5418  -17.2955   17.8003 C   0  0  2  0  0  0  0  0  0  0  0  0
    8.2688  -17.5110   16.5644 N   0  0  0  0  0  0  0  0  0  0  0  0
    8.4247  -16.5906   18.7701 C   0  0  0  0  0  0  0  0  0  0  0  0
    9.6395  -16.8937   18.8566 O   0  0  0  0  0  0  0  0  0  0  0  0
    7.7817  -12.7519   19.6563 C   0  0  0  0  0  0  0  0  0  0  0  0
    8.0402  -13.5600   20.8948 C   0  0  1  0  0  0  0  0  0  0  0  0
    6.6792  -13.8354   21.5382 C   0  0  0  0  0  0  0  0  0  0  0  0
    8.6697  -14.8904   20.6201 C   0  0  2  0  0  0  0  0  0  0  0  0
    7.9047  -15.5707   19.6054 N   0  0  0  0  0  0  0  0  0  0  0  0
    8.8320  -15.7267   21.8203 C   0  0  0  0  0  0  0  0  0  0  0  0
    7.9407  -16.5666   22.0933 O   0  0  0  0  0  0  0  0  0  0  0  0
   13.6437  -20.3997   22.5522 N   0  0  0  0  0  0  0  0  0  0  0  0
   12.3973  -19.8394   22.1683 C   0  0  0  0  0  0  0  0  0  0  0  0
   11.9650  -20.1422   21.0359 O   0  0  0  0  0  0  0  0  0  0  0  0
   11.6699  -18.9307   23.1087 C   0  0  0  0  0  0  0  0  0  0  0  0
   11.2091  -17.6731   22.4432 C   0  0  0  0  0  0  0  0  0  0  0  0
   10.4465  -16.8018   23.3729 C   0  0  2  0  0  0  0  0  0  0  0  0
    9.9647  -15.5949   22.6553 N   0  0  0  0  0  0  0  0  0  0  0  0
   11.3287  -16.3042   24.4518 C   0  0  0  0  0  0  0  0  0  0  0  0
   11.9487  -15.0394   24.3321 O   0  0  0  0  0  0  0  0  0  0  0  0
   11.5776  -16.9380   25.4987 O   0  0  0  0  0  0  0  0  0  0  0  0
  2  3  1  0
  2  1  1  1
  4  5  2  0
  4  2  1  0
  7  6  1  6
  7  9  1  0
  8  7  1  0
  9 11  1  0
  9 10  1  6
 10  4  1  0
 11 19  1  0
 12 11  2  0
 14 15  2  0
 14 13  1  0
 16 14  1  0
 18 17  1  6
 17 16  1  0
 18 20  1  0
 19 18  1  0
 20 22  2  0
 20 21  1  0
M  END
$$$$
