AVQ.pdb
     RDKit          3D

 22 21  0  0  1  0  0  0  0  0999 V2000
    6.3813  -15.6427   21.4769 C   0  0  0  0  0  0  0  0  0  0  0  0
    6.7545  -14.1953   21.5967 C   0  0  2  0  0  0  0  0  0  0  0  0
    7.3712  -13.7010   20.3811 N   0  0  0  0  0  0  0  0  0  0  0  0
    7.7176  -14.0584   22.7239 C   0  0  0  0  0  0  0  0  0  0  0  0
    8.9487  -14.2010   22.5257 O   0  0  0  0  0  0  0  0  0  0  0  0
    7.2005  -11.4416   25.8081 C   0  0  0  0  0  0  0  0  0  0  0  0
    7.4414  -12.8597   26.2380 C   0  0  1  0  0  0  0  0  0  0  0  0
    6.0689  -13.4845   26.4990 C   0  0  0  0  0  0  0  0  0  0  0  0
    8.1095  -13.6964   25.1914 C   0  0  2  0  0  0  0  0  0  0  0  0
    7.2564  -13.7660   24.0315 N   0  0  0  0  0  0  0  0  0  0  0  0
    8.4873  -15.0393   25.6605 C   0  0  0  0  0  0  0  0  0  0  0  0
    7.6147  -15.9410   25.6698 O   0  0  0  0  0  0  0  0  0  0  0  0
   10.4748  -20.1221   25.0380 N   0  0  0  0  0  0  0  0  0  0  0  0
   11.7027  -19.4123   25.0948 C   0  0  0  0  0  0  0  0  0  0  0  0
   12.5405  -19.6576   24.2010 O   0  0  0  0  0  0  0  0  0  0  0  0
   11.9406  -18.4256   26.1944 C   0  0  0  0  0  0  0  0  0  0  0  0
   11.4937  -17.0461   25.8281 C   0  0  0  0  0  0  0  0  0  0  0  0
   10.1555  -16.7302   26.3891 C   0  0  2  0  0  0  0  0  0  0  0  0
    9.8033  -15.3186   26.0939 N   0  0  0  0  0  0  0  0  0  0  0  0
   10.1773  -16.8403   27.8647 C   0  0  0  0  0  0  0  0  0  0  0  0
   10.1170  -18.1114   28.4803 O   0  0  0  0  0  0  0  0  0  0  0  0
   10.2472  -15.8615   28.6372 O   0  0  0  0  0  0  0  0  0  0  0  0
  2  3  1  0
  2  1  1  6
  4  5  2  0
  4  2  1  0
  7  6  1  6
  7  9  1  0
  8  7  1  0
  9 11  1  0
  9 10  1  6
 10  4  1  0
 11 19  1  0
 12 11  2  0
 14 15  2  0
 14 13  1  0
 16 14  1  0
 18 17  1  1
 17 16  1  0
 18 20  1  0
 19 18  1  0
 20 22  2  0
 20 21  1  0
M  END
$$$$
