AVQ.pdb
     RDKit          3D

 22 21  0  0  1  0  0  0  0  0999 V2000
    6.8555  -14.9399   20.5586 C   0  0  0  0  0  0  0  0  0  0  0  0
    7.2179  -13.5213   20.8822 C   0  0  2  0  0  0  0  0  0  0  0  0
    8.0608  -12.9387   19.8562 N   0  0  0  0  0  0  0  0  0  0  0  0
    7.9512  -13.5159   22.1781 C   0  0  0  0  0  0  0  0  0  0  0  0
    9.1764  -13.7851   22.2134 O   0  0  0  0  0  0  0  0  0  0  0  0
    5.7115  -13.1634   25.9465 C   0  0  0  0  0  0  0  0  0  0  0  0
    7.0381  -12.5197   25.6640 C   0  0  1  0  0  0  0  0  0  0  0  0
    7.8064  -12.4854   26.9871 C   0  0  0  0  0  0  0  0  0  0  0  0
    7.8794  -13.2862   24.6911 C   0  0  2  0  0  0  0  0  0  0  0  0
    7.2752  -13.2073   23.3847 N   0  0  0  0  0  0  0  0  0  0  0  0
    8.1181  -14.6831   25.0882 C   0  0  0  0  0  0  0  0  0  0  0  0
    7.2593  -15.5483   24.7907 O   0  0  0  0  0  0  0  0  0  0  0  0
   12.9284  -19.9793   24.7018 N   0  0  0  0  0  0  0  0  0  0  0  0
   12.4221  -18.6554   24.6259 C   0  0  0  0  0  0  0  0  0  0  0  0
   13.0555  -17.8467   23.9146 O   0  0  0  0  0  0  0  0  0  0  0  0
   11.1838  -18.2889   25.3818 C   0  0  0  0  0  0  0  0  0  0  0  0
   10.7822  -16.8652   25.1609 C   0  0  0  0  0  0  0  0  0  0  0  0
    9.5769  -16.5012   25.9481 C   0  0  2  0  0  0  0  0  0  0  0  0
    9.2873  -15.0538   25.7904 N   0  0  0  0  0  0  0  0  0  0  0  0
    9.8241  -16.7080   27.3924 C   0  0  0  0  0  0  0  0  0  0  0  0
    9.8349  -18.0160   27.9283 O   0  0  0  0  0  0  0  0  0  0  0  0
   10.0315  -15.7826   28.2051 O   0  0  0  0  0  0  0  0  0  0  0  0
  2  3  1  0
  2  1  1  6
  4  5  2  0
  4  2  1  0
  7  6  1  1
  7  9  1  0
  8  7  1  0
  9 11  1  0
  9 10  1  6
 10  4  1  0
 11 19  1  0
 12 11  2  0
 14 15  2  0
 14 13  1  0
 16 14  1  0
 18 17  1  6
 17 16  1  0
 18 20  1  0
 19 18  1  0
 20 22  2  0
 20 21  1  0
M  END
$$$$
