GNV.pdb
     RDKit          3D

 20 19  0  0  1  0  0  0  0  0999 V2000
   15.2940  -10.2778  -14.5543 N   0  0  0  0  0  0  0  0  0  0  0  0
   16.6539  -10.1812  -14.1129 C   0  0  0  0  0  0  0  0  0  0  0  0
   17.0332   -8.8637  -13.5756 C   0  0  0  0  0  0  0  0  0  0  0  0
   16.9246   -7.8800  -14.3547 O   0  0  0  0  0  0  0  0  0  0  0  0
   16.7196   -4.8543  -10.4353 N   0  0  0  0  0  0  0  0  0  0  0  0
   17.0438   -6.0610   -9.7825 C   0  0  0  0  0  0  0  0  0  0  0  0
   16.8009   -6.0963   -8.5290 O   0  0  0  0  0  0  0  0  0  0  0  0
   17.6168   -7.2653  -10.3552 C   0  0  0  0  0  0  0  0  0  0  0  0
   17.8717   -7.2832  -11.8168 C   0  0  2  0  0  0  0  0  0  0  0  0
   17.5004   -8.6254  -12.2778 N   0  0  0  0  0  0  0  0  0  0  0  0
   19.3196   -7.1455  -12.1044 C   0  0  0  0  0  0  0  0  0  0  0  0
   20.1684   -7.8504  -11.5076 O   0  0  0  0  0  0  0  0  0  0  0  0
   20.7895   -5.7890  -15.7484 C   0  0  0  0  0  0  0  0  0  0  0  0
   21.5859   -6.5653  -14.7372 C   0  0  2  0  0  0  0  0  0  0  0  0
   21.2451   -8.0267  -14.9001 C   0  0  0  0  0  0  0  0  0  0  0  0
   21.2573   -6.1302  -13.3227 C   0  0  2  0  0  0  0  0  0  0  0  0
   19.8338   -6.2088  -13.0709 N   0  0  0  0  0  0  0  0  0  0  0  0
   21.7116   -4.7573  -13.0508 C   0  0  0  0  0  0  0  0  0  0  0  0
   23.0602   -4.4924  -12.9040 O   0  0  0  0  0  0  0  0  0  0  0  0
   20.9008   -3.8020  -12.9459 O   0  0  0  0  0  0  0  0  0  0  0  0
  2  1  1  0
  3  2  1  0
  4  3  2  0
  6  7  2  0
  6  5  1  0
  8  6  1  0
  9  8  1  1
  9 10  1  0
 10  3  1  0
 11 17  1  0
 11  9  1  0
 12 11  2  0
 14 13  1  6
 14 15  1  0
 16 14  1  0
 16 17  1  6
 18 16  1  0
 18 19  1  0
 20 18  2  0
M  END
$$$$
