GNV.pdb
     RDKit          3D

 20 19  0  0  1  0  0  0  0  0999 V2000
   17.7210  -11.5789    4.6210 N   0  0  0  0  0  0  0  0  0  0  0  0
   18.3837  -12.6924    4.0090 C   0  0  0  0  0  0  0  0  0  0  0  0
   17.7150  -13.9894    4.2065 C   0  0  0  0  0  0  0  0  0  0  0  0
   16.7262  -14.0056    4.9866 O   0  0  0  0  0  0  0  0  0  0  0  0
   16.0025  -19.1193    3.3950 N   0  0  0  0  0  0  0  0  0  0  0  0
   16.8636  -18.5130    2.4578 C   0  0  0  0  0  0  0  0  0  0  0  0
   17.0375  -19.1554    1.3675 O   0  0  0  0  0  0  0  0  0  0  0  0
   17.5747  -17.2533    2.5762 C   0  0  0  0  0  0  0  0  0  0  0  0
   17.3337  -16.4337    3.7894 C   0  0  2  0  0  0  0  0  0  0  0  0
   18.0920  -15.1926    3.5988 N   0  0  0  0  0  0  0  0  0  0  0  0
   17.9154  -17.0800    4.9902 C   0  0  0  0  0  0  0  0  0  0  0  0
   19.1575  -17.1434    5.1542 O   0  0  0  0  0  0  0  0  0  0  0  0
   15.6760  -17.6897    8.4644 C   0  0  0  0  0  0  0  0  0  0  0  0
   17.1790  -17.7105    8.4692 C   0  0  2  0  0  0  0  0  0  0  0  0
   17.6628  -16.2896    8.6280 C   0  0  0  0  0  0  0  0  0  0  0  0
   17.7280  -18.2840    7.1777 C   0  0  2  0  0  0  0  0  0  0  0  0
   17.1041  -17.6661    6.0267 N   0  0  0  0  0  0  0  0  0  0  0  0
   17.5340  -19.7404    7.0972 C   0  0  0  0  0  0  0  0  0  0  0  0
   16.6229  -20.2673    6.2012 O   0  0  0  0  0  0  0  0  0  0  0  0
   18.1798  -20.5339    7.8280 O   0  0  0  0  0  0  0  0  0  0  0  0
  2  1  1  0
  3  2  1  0
  4  3  2  0
  6  7  2  0
  6  5  1  0
  8  6  1  0
  9  8  1  6
  9 10  1  0
 10  3  1  0
 11 17  1  0
 11  9  1  0
 12 11  2  0
 14 13  1  6
 14 15  1  0
 16 14  1  0
 16 17  1  6
 18 16  1  0
 18 19  1  0
 20 18  2  0
M  END
$$$$
