GNV.pdb
     RDKit          3D

 20 19  0  0  1  0  0  0  0  0999 V2000
   18.3478  -13.3021  -19.6362 N   0  0  0  0  0  0  0  0  0  0  0  0
   19.7510  -13.5923  -19.6449 C   0  0  0  0  0  0  0  0  0  0  0  0
   20.6116  -12.4774  -19.2150 C   0  0  0  0  0  0  0  0  0  0  0  0
   21.6323  -12.7754  -18.5398 O   0  0  0  0  0  0  0  0  0  0  0  0
   23.5373   -8.9166  -20.7971 N   0  0  0  0  0  0  0  0  0  0  0  0
   22.2110   -8.4389  -20.7856 C   0  0  0  0  0  0  0  0  0  0  0  0
   21.9731   -7.4437  -21.5502 O   0  0  0  0  0  0  0  0  0  0  0  0
   21.0849   -8.9355  -20.0163 C   0  0  0  0  0  0  0  0  0  0  0  0
   21.3238  -10.0748  -19.0961 C   0  0  2  0  0  0  0  0  0  0  0  0
   20.3825  -11.1258  -19.4975 N   0  0  0  0  0  0  0  0  0  0  0  0
   20.9585   -9.7179  -17.7043 C   0  0  0  0  0  0  0  0  0  0  0  0
   19.7603   -9.5554  -17.3704 O   0  0  0  0  0  0  0  0  0  0  0  0
   23.7564  -10.0138  -14.4460 C   0  0  0  0  0  0  0  0  0  0  0  0
   22.2704  -10.2137  -14.3398 C   0  0  2  0  0  0  0  0  0  0  0  0
   21.9701  -11.6541  -14.6767 C   0  0  0  0  0  0  0  0  0  0  0  0
   21.5211   -9.3096  -15.2987 C   0  0  2  0  0  0  0  0  0  0  0  0
   21.9406   -9.5381  -16.6654 N   0  0  0  0  0  0  0  0  0  0  0  0
   21.7128   -7.8870  -14.9756 C   0  0  0  0  0  0  0  0  0  0  0  0
   21.1564   -7.3588  -13.8258 O   0  0  0  0  0  0  0  0  0  0  0  0
   22.3764   -7.1237  -15.7225 O   0  0  0  0  0  0  0  0  0  0  0  0
  2  1  1  0
  3  2  1  0
  4  3  2  0
  6  7  2  0
  6  5  1  0
  8  6  1  0
  9  8  1  6
  9 10  1  0
 10  3  1  0
 11 17  1  0
 11  9  1  0
 12 11  2  0
 14 13  1  6
 14 15  1  0
 16 14  1  0
 16 17  1  6
 18 16  1  0
 18 19  1  0
 20 18  2  0
M  END
$$$$
