GNV.pdb
     RDKit          3D

 20 19  0  0  1  0  0  0  0  0999 V2000
   18.3976  -14.4415  -17.4852 N   0  0  0  0  0  0  0  0  0  0  0  0
   18.5418  -13.7507  -18.7324 C   0  0  0  0  0  0  0  0  0  0  0  0
   19.4147  -12.5658  -18.6809 C   0  0  0  0  0  0  0  0  0  0  0  0
   20.6566  -12.7753  -18.6705 O   0  0  0  0  0  0  0  0  0  0  0  0
   21.2151   -7.3978  -18.8517 N   0  0  0  0  0  0  0  0  0  0  0  0
   19.9606   -7.7323  -19.4009 C   0  0  0  0  0  0  0  0  0  0  0  0
   19.3795   -6.8064  -20.0617 O   0  0  0  0  0  0  0  0  0  0  0  0
   19.2489   -8.9940  -19.3103 C   0  0  0  0  0  0  0  0  0  0  0  0
   19.9038  -10.1072  -18.5799 C   0  0  2  0  0  0  0  0  0  0  0  0
   18.9720  -11.2385  -18.6428 N   0  0  0  0  0  0  0  0  0  0  0  0
   20.0478   -9.7846  -17.1400 C   0  0  0  0  0  0  0  0  0  0  0  0
   19.0485   -9.7400  -16.3830 O   0  0  0  0  0  0  0  0  0  0  0  0
   23.8334   -9.8219  -15.0694 C   0  0  0  0  0  0  0  0  0  0  0  0
   22.4853  -10.0872  -14.4598 C   0  0  2  0  0  0  0  0  0  0  0  0
   22.1617  -11.5471  -14.6651 C   0  0  0  0  0  0  0  0  0  0  0  0
   21.4086   -9.2405  -15.1097 C   0  0  2  0  0  0  0  0  0  0  0  0
   21.3233   -9.5065  -16.5302 N   0  0  0  0  0  0  0  0  0  0  0  0
   21.6459   -7.8021  -14.9102 C   0  0  0  0  0  0  0  0  0  0  0  0
   21.4554   -7.2371  -13.6633 O   0  0  0  0  0  0  0  0  0  0  0  0
   22.0221   -7.0582  -15.8514 O   0  0  0  0  0  0  0  0  0  0  0  0
  2  1  1  0
  3  2  1  0
  4  3  2  0
  6  7  2  0
  6  5  1  0
  8  6  1  0
  9  8  1  6
  9 10  1  0
 10  3  1  0
 11 17  1  0
 11  9  1  0
 12 11  2  0
 14 13  1  6
 14 15  1  0
 16 14  1  0
 16 17  1  6
 18 16  1  0
 18 19  1  0
 20 18  2  0
M  END
$$$$
