GNV.pdb
     RDKit          3D

 20 19  0  0  1  0  0  0  0  0999 V2000
   14.7179  -10.7792  -11.9535 N   0  0  0  0  0  0  0  0  0  0  0  0
   15.9164  -10.4322  -11.2487 C   0  0  0  0  0  0  0  0  0  0  0  0
   16.2205   -8.9915  -11.2263 C   0  0  0  0  0  0  0  0  0  0  0  0
   16.0052   -8.3491  -12.2881 O   0  0  0  0  0  0  0  0  0  0  0  0
   14.5826   -6.6981   -7.4236 N   0  0  0  0  0  0  0  0  0  0  0  0
   15.3011   -6.1297   -8.4950 C   0  0  0  0  0  0  0  0  0  0  0  0
   14.6351   -5.3525   -9.2594 O   0  0  0  0  0  0  0  0  0  0  0  0
   16.6993   -6.3158   -8.8368 C   0  0  0  0  0  0  0  0  0  0  0  0
   17.0173   -6.8539  -10.1825 C   0  0  2  0  0  0  0  0  0  0  0  0
   16.7257   -8.2904  -10.1253 N   0  0  0  0  0  0  0  0  0  0  0  0
   18.4687   -6.7492  -10.4662 C   0  0  0  0  0  0  0  0  0  0  0  0
   19.3218   -7.0287   -9.5900 O   0  0  0  0  0  0  0  0  0  0  0  0
   20.0299   -7.1926  -14.2655 C   0  0  0  0  0  0  0  0  0  0  0  0
   20.8314   -7.3152  -12.9998 C   0  0  2  0  0  0  0  0  0  0  0  0
   20.5995   -8.6957  -12.4350 C   0  0  0  0  0  0  0  0  0  0  0  0
   20.4100   -6.2793  -11.9763 C   0  0  2  0  0  0  0  0  0  0  0  0
   18.9817   -6.3268  -11.7446 N   0  0  0  0  0  0  0  0  0  0  0  0
   20.7779   -4.9162  -12.3909 C   0  0  0  0  0  0  0  0  0  0  0  0
   22.1072   -4.5388  -12.4218 O   0  0  0  0  0  0  0  0  0  0  0  0
   19.9094   -4.0701  -12.7233 O   0  0  0  0  0  0  0  0  0  0  0  0
  2  1  1  0
  3  2  1  0
  4  3  2  0
  6  7  2  0
  6  5  1  0
  8  6  1  0
  9  8  1  1
  9 10  1  0
 10  3  1  0
 11 17  1  0
 11  9  1  0
 12 11  2  0
 14 13  1  6
 14 15  1  0
 16 14  1  0
 16 17  1  6
 18 16  1  0
 18 19  1  0
 20 18  2  0
M  END
$$$$
