GNV.pdb
     RDKit          3D

 20 19  0  0  1  0  0  0  0  0999 V2000
   23.3099  -16.3007  -17.3327 N   0  0  0  0  0  0  0  0  0  0  0  0
   23.8394  -17.4623  -17.9836 C   0  0  0  0  0  0  0  0  0  0  0  0
   23.8520  -18.6790  -17.1542 C   0  0  0  0  0  0  0  0  0  0  0  0
   22.7729  -19.3239  -17.0755 O   0  0  0  0  0  0  0  0  0  0  0  0
   25.5275  -23.2278  -14.7201 N   0  0  0  0  0  0  0  0  0  0  0  0
   26.0837  -22.6691  -15.8887 C   0  0  0  0  0  0  0  0  0  0  0  0
   26.8635  -23.4329  -16.5521 O   0  0  0  0  0  0  0  0  0  0  0  0
   25.8810  -21.3383  -16.4315 C   0  0  0  0  0  0  0  0  0  0  0  0
   24.9277  -20.4428  -15.7308 C   0  0  2  0  0  0  0  0  0  0  0  0
   24.9616  -19.1671  -16.4543 N   0  0  0  0  0  0  0  0  0  0  0  0
   25.3971  -20.1388  -14.3577 C   0  0  0  0  0  0  0  0  0  0  0  0
   26.4159  -19.4335  -14.1627 O   0  0  0  0  0  0  0  0  0  0  0  0
   24.7320  -20.1887   -9.4320 C   0  0  0  0  0  0  0  0  0  0  0  0
   24.1842  -20.4764  -10.8019 C   0  0  2  0  0  0  0  0  0  0  0  0
   23.6599  -21.8919  -10.8047 C   0  0  0  0  0  0  0  0  0  0  0  0
   25.2554  -20.3382  -11.8657 C   0  0  2  0  0  0  0  0  0  0  0  0
   24.7237  -20.6266  -13.1810 N   0  0  0  0  0  0  0  0  0  0  0  0
   26.3998  -21.2275  -11.6117 C   0  0  0  0  0  0  0  0  0  0  0  0
   27.4486  -20.7951  -10.8220 O   0  0  0  0  0  0  0  0  0  0  0  0
   26.4563  -22.3861  -12.0968 O   0  0  0  0  0  0  0  0  0  0  0  0
  2  1  1  0
  3  2  1  0
  4  3  2  0
  6  7  2  0
  6  5  1  0
  8  6  1  0
  9  8  1  6
  9 10  1  0
 10  3  1  0
 11 17  1  0
 11  9  1  0
 12 11  2  0
 14 13  1  1
 14 15  1  0
 16 14  1  0
 16 17  1  6
 18 16  1  0
 18 19  1  0
 20 18  2  0
M  END
$$$$
