GNV.pdb
     RDKit          3D

 20 19  0  0  1  0  0  0  0  0999 V2000
   26.6277  -34.2543  -13.4793 N   0  0  0  0  0  0  0  0  0  0  0  0
   25.9435  -34.6835  -12.2956 C   0  0  0  0  0  0  0  0  0  0  0  0
   26.1549  -33.8246  -11.1183 C   0  0  0  0  0  0  0  0  0  0  0  0
   27.1307  -33.0294  -11.1633 O   0  0  0  0  0  0  0  0  0  0  0  0
   24.4989  -29.8506   -7.8877 N   0  0  0  0  0  0  0  0  0  0  0  0
   24.4013  -31.2104   -7.5288 C   0  0  0  0  0  0  0  0  0  0  0  0
   24.3367  -31.4503   -6.2759 O   0  0  0  0  0  0  0  0  0  0  0  0
   24.3642  -32.3687   -8.4026 C   0  0  0  0  0  0  0  0  0  0  0  0
   25.6581  -32.9677   -8.8134 C   0  0  2  0  0  0  0  0  0  0  0  0
   25.3613  -33.8259   -9.9654 N   0  0  0  0  0  0  0  0  0  0  0  0
   26.1810  -33.8727   -7.7619 C   0  0  0  0  0  0  0  0  0  0  0  0
   25.7578  -35.0482   -7.6498 O   0  0  0  0  0  0  0  0  0  0  0  0
   29.8475  -35.2487   -4.8180 C   0  0  0  0  0  0  0  0  0  0  0  0
   29.2638  -34.3129   -5.8392 C   0  0  2  0  0  0  0  0  0  0  0  0
   29.6434  -32.9048   -5.4497 C   0  0  0  0  0  0  0  0  0  0  0  0
   27.7530  -34.4264   -5.8931 C   0  0  2  0  0  0  0  0  0  0  0  0
   27.1911  -33.4653   -6.8186 N   0  0  0  0  0  0  0  0  0  0  0  0
   27.1395  -34.2258   -4.5708 C   0  0  0  0  0  0  0  0  0  0  0  0
   26.5320  -33.0221   -4.2667 O   0  0  0  0  0  0  0  0  0  0  0  0
   27.1498  -35.1273   -3.6945 O   0  0  0  0  0  0  0  0  0  0  0  0
  2  1  1  0
  3  2  1  0
  4  3  2  0
  6  7  2  0
  6  5  1  0
  8  6  1  0
  9  8  1  1
  9 10  1  0
 10  3  1  0
 11 17  1  0
 11  9  1  0
 12 11  2  0
 14 13  1  1
 14 15  1  0
 16 14  1  0
 16 17  1  6
 18 16  1  0
 18 19  1  0
 20 18  2  0
M  END
$$$$
