GNV.pdb
     RDKit          3D

 20 19  0  0  1  0  0  0  0  0999 V2000
   18.4546  -22.2299  -11.3699 N   0  0  0  0  0  0  0  0  0  0  0  0
   19.2245  -22.6843  -12.4899 C   0  0  0  0  0  0  0  0  0  0  0  0
   20.3315  -21.7934  -12.8763 C   0  0  0  0  0  0  0  0  0  0  0  0
   20.3668  -20.6604  -12.3271 O   0  0  0  0  0  0  0  0  0  0  0  0
   26.2048  -21.8764  -14.5347 N   0  0  0  0  0  0  0  0  0  0  0  0
   24.9263  -21.3175  -14.3333 C   0  0  0  0  0  0  0  0  0  0  0  0
   24.8868  -20.0447  -14.2328 O   0  0  0  0  0  0  0  0  0  0  0  0
   23.6528  -22.0054  -14.2269 C   0  0  0  0  0  0  0  0  0  0  0  0
   22.4266  -21.1780  -14.1115 C   0  0  2  0  0  0  0  0  0  0  0  0
   21.3364  -22.1082  -13.7983 N   0  0  0  0  0  0  0  0  0  0  0  0
   22.0731  -20.5688  -15.4161 C   0  0  0  0  0  0  0  0  0  0  0  0
   21.5930  -21.2611  -16.3454 O   0  0  0  0  0  0  0  0  0  0  0  0
   22.1280  -16.3302  -16.0199 C   0  0  0  0  0  0  0  0  0  0  0  0
   21.2309  -17.2462  -16.8044 C   0  0  2  0  0  0  0  0  0  0  0  0
   19.9289  -17.3778  -16.0522 C   0  0  0  0  0  0  0  0  0  0  0  0
   21.8525  -18.6188  -16.9714 C   0  0  2  0  0  0  0  0  0  0  0  0
   22.2562  -19.1668  -15.6937 N   0  0  0  0  0  0  0  0  0  0  0  0
   23.0216  -18.5874  -17.8644 C   0  0  0  0  0  0  0  0  0  0  0  0
   22.8472  -18.4150  -19.2246 O   0  0  0  0  0  0  0  0  0  0  0  0
   24.1924  -18.7144  -17.4241 O   0  0  0  0  0  0  0  0  0  0  0  0
  2  1  1  0
  3  2  1  0
  4  3  2  0
  6  7  2  0
  6  5  1  0
  8  6  1  0
  9  8  1  6
  9 10  1  0
 10  3  1  0
 11 17  1  0
 11  9  1  0
 12 11  2  0
 14 13  1  1
 14 15  1  0
 16 14  1  0
 16 17  1  1
 18 16  1  0
 18 19  1  0
 20 18  2  0
M  END
$$$$
