GNV.pdb
     RDKit          3D

 20 19  0  0  1  0  0  0  0  0999 V2000
   26.2984  -21.8287  -10.9938 N   0  0  0  0  0  0  0  0  0  0  0  0
   25.1885  -20.9295  -11.1090 C   0  0  0  0  0  0  0  0  0  0  0  0
   24.7035  -20.7254  -12.4843 C   0  0  0  0  0  0  0  0  0  0  0  0
   25.3497  -21.2931  -13.4045 O   0  0  0  0  0  0  0  0  0  0  0  0
   19.8933  -19.9156  -12.3984 N   0  0  0  0  0  0  0  0  0  0  0  0
   20.7078  -20.2127  -13.5100 C   0  0  0  0  0  0  0  0  0  0  0  0
   20.5399  -21.3683  -14.0277 O   0  0  0  0  0  0  0  0  0  0  0  0
   21.7098  -19.3717  -14.1388 C   0  0  0  0  0  0  0  0  0  0  0  0
   23.0970  -19.8918  -14.2216 C   0  0  2  0  0  0  0  0  0  0  0  0
   23.5902  -19.9560  -12.8416 N   0  0  0  0  0  0  0  0  0  0  0  0
   23.9829  -18.9305  -14.9210 C   0  0  0  0  0  0  0  0  0  0  0  0
   23.8121  -17.6928  -14.8094 O   0  0  0  0  0  0  0  0  0  0  0  0
   27.8554  -19.9068  -15.9890 C   0  0  0  0  0  0  0  0  0  0  0  0
   27.3613  -18.4908  -15.8877 C   0  0  2  0  0  0  0  0  0  0  0  0
   27.4200  -18.0810  -14.4362 C   0  0  0  0  0  0  0  0  0  0  0  0
   25.9345  -18.3664  -16.3848 C   0  0  2  0  0  0  0  0  0  0  0  0
   25.0771  -19.3508  -15.7589 N   0  0  0  0  0  0  0  0  0  0  0  0
   25.8463  -18.5212  -17.8454 C   0  0  0  0  0  0  0  0  0  0  0  0
   25.1502  -19.5858  -18.3864 O   0  0  0  0  0  0  0  0  0  0  0  0
   26.3918  -17.7043  -18.6302 O   0  0  0  0  0  0  0  0  0  0  0  0
  2  1  1  0
  3  2  1  0
  4  3  2  0
  6  7  2  0
  6  5  1  0
  8  6  1  0
  9  8  1  1
  9 10  1  0
 10  3  1  0
 11 17  1  0
 11  9  1  0
 12 11  2  0
 14 13  1  1
 14 15  1  0
 16 14  1  0
 16 17  1  1
 18 16  1  0
 18 19  1  0
 20 18  2  0
M  END
$$$$
