GNV.pdb
     RDKit          3D

 20 19  0  0  1  0  0  0  0  0999 V2000
   15.6325  -12.9891  -13.9320 N   0  0  0  0  0  0  0  0  0  0  0  0
   15.7677  -11.6888  -14.5189 C   0  0  0  0  0  0  0  0  0  0  0  0
   16.4758  -10.7070  -13.6804 C   0  0  0  0  0  0  0  0  0  0  0  0
   17.7187  -10.8637  -13.5491 O   0  0  0  0  0  0  0  0  0  0  0  0
   18.4400   -6.2457  -11.6708 N   0  0  0  0  0  0  0  0  0  0  0  0
   18.2387   -6.7500  -12.9717 C   0  0  0  0  0  0  0  0  0  0  0  0
   18.8648   -6.1430  -13.9051 O   0  0  0  0  0  0  0  0  0  0  0  0
   17.4119   -7.8701  -13.3820 C   0  0  0  0  0  0  0  0  0  0  0  0
   16.6656   -8.6019  -12.3289 C   0  0  2  0  0  0  0  0  0  0  0  0
   15.8774   -9.6245  -13.0253 N   0  0  0  0  0  0  0  0  0  0  0  0
   15.6788   -7.7163  -11.6655 C   0  0  0  0  0  0  0  0  0  0  0  0
   14.6797   -7.2802  -12.2862 O   0  0  0  0  0  0  0  0  0  0  0  0
   13.3299   -6.1588   -7.6826 C   0  0  0  0  0  0  0  0  0  0  0  0
   14.3077   -7.0691   -8.3715 C   0  0  2  0  0  0  0  0  0  0  0  0
   15.4890   -7.2632   -7.4521 C   0  0  0  0  0  0  0  0  0  0  0  0
   14.7865   -6.4759   -9.6818 C   0  0  2  0  0  0  0  0  0  0  0  0
   15.8037   -7.3077  -10.2895 N   0  0  0  0  0  0  0  0  0  0  0  0
   15.3270   -5.1187   -9.5054 C   0  0  0  0  0  0  0  0  0  0  0  0
   14.4756   -4.0300   -9.5118 O   0  0  0  0  0  0  0  0  0  0  0  0
   16.5572   -4.9134   -9.3466 O   0  0  0  0  0  0  0  0  0  0  0  0
  2  1  1  0
  3  2  1  0
  4  3  2  0
  6  7  2  0
  6  5  1  0
  8  6  1  0
  9  8  1  6
  9 10  1  0
 10  3  1  0
 11 17  1  0
 11  9  1  0
 12 11  2  0
 14 13  1  1
 14 15  1  0
 16 14  1  0
 16 17  1  1
 18 16  1  0
 18 19  1  0
 20 18  2  0
M  END
$$$$
