GNV.pdb
     RDKit          3D

 20 19  0  0  1  0  0  0  0  0999 V2000
   14.6104  -10.6183  -14.2738 N   0  0  0  0  0  0  0  0  0  0  0  0
   14.3520   -9.2277  -14.5035 C   0  0  0  0  0  0  0  0  0  0  0  0
   14.6107   -8.3554  -13.3456 C   0  0  0  0  0  0  0  0  0  0  0  0
   13.6773   -8.2302  -12.5091 O   0  0  0  0  0  0  0  0  0  0  0  0
   17.2485   -5.4813   -9.5083 N   0  0  0  0  0  0  0  0  0  0  0  0
   17.7642   -6.6446  -10.1149 C   0  0  0  0  0  0  0  0  0  0  0  0
   18.7926   -7.1537   -9.5537 O   0  0  0  0  0  0  0  0  0  0  0  0
   17.2737   -7.3349  -11.2937 C   0  0  0  0  0  0  0  0  0  0  0  0
   16.0082   -6.8540  -11.9010 C   0  0  2  0  0  0  0  0  0  0  0  0
   15.8034   -7.6625  -13.1077 N   0  0  0  0  0  0  0  0  0  0  0  0
   16.1443   -5.4550  -12.3726 C   0  0  0  0  0  0  0  0  0  0  0  0
   16.9030   -5.1646  -13.3284 O   0  0  0  0  0  0  0  0  0  0  0  0
   14.2185   -1.1521  -13.3440 C   0  0  0  0  0  0  0  0  0  0  0  0
   14.1813   -2.5911  -12.9114 C   0  0  2  0  0  0  0  0  0  0  0  0
   13.1167   -2.7300  -11.8504 C   0  0  0  0  0  0  0  0  0  0  0  0
   15.5153   -3.0315  -12.3414 C   0  0  2  0  0  0  0  0  0  0  0  0
   15.4257   -4.3598  -11.7725 N   0  0  0  0  0  0  0  0  0  0  0  0
   16.0037   -2.1051  -11.3078 C   0  0  0  0  0  0  0  0  0  0  0  0
   16.6335   -0.9308  -11.6748 O   0  0  0  0  0  0  0  0  0  0  0  0
   15.8651   -2.3502  -10.0825 O   0  0  0  0  0  0  0  0  0  0  0  0
  2  1  1  0
  3  2  1  0
  4  3  2  0
  6  7  2  0
  6  5  1  0
  8  6  1  0
  9  8  1  6
  9 10  1  0
 10  3  1  0
 11 17  1  0
 11  9  1  0
 12 11  2  0
 14 13  1  1
 14 15  1  0
 16 14  1  0
 16 17  1  1
 18 16  1  0
 18 19  1  0
 20 18  2  0
M  END
$$$$
