RCV.pdb
     RDKit          3D

 25 24  0  0  1  0  0  0  0  0999 V2000
   22.0140  -24.6719  -16.3892 N   0  0  0  0  0  0  0  0  0  0  0  0
   21.0547  -25.6807  -16.1309 C   0  0  0  0  0  0  0  0  0  0  0  0
   21.0887  -26.7582  -16.8662 N   0  0  0  0  0  0  0  0  0  0  0  0
   20.0805  -25.5699  -15.1257 N   0  0  0  0  0  0  0  0  0  0  0  0
   20.0546  -24.4140  -14.2269 C   0  0  0  0  0  0  0  0  0  0  0  0
   19.3578  -23.2838  -14.9224 C   0  0  0  0  0  0  0  0  0  0  0  0
   19.2841  -22.0215  -14.1412 C   0  0  0  0  0  0  0  0  0  0  0  0
   20.4008  -21.7440  -13.2000 C   0  0  2  0  0  0  0  0  0  0  0  0
   20.0228  -21.6666  -11.8062 N   0  0  0  0  0  0  0  0  0  0  0  0
   20.9907  -20.4211  -13.6326 C   0  0  0  0  0  0  0  0  0  0  0  0
   20.6701  -19.3374  -13.0884 O   0  0  0  0  0  0  0  0  0  0  0  0
   20.4294  -27.5389  -16.7568 N   0  0  0  0  0  0  0  0  0  0  0  0
   21.9393  -20.3536  -14.6801 C   0  0  2  0  0  0  0  0  0  0  0  0
   22.6400  -19.1259  -15.0537 C   0  0  0  0  0  0  0  0  0  0  0  0
   24.1441  -19.3605  -14.8891 S   0  0  0  0  0  0  0  0  0  0  0  0
   25.0177  -17.8367  -15.2619 C   0  0  0  0  0  0  0  0  0  0  0  0
   22.2464  -18.6709  -16.3818 O   0  0  0  0  0  0  0  0  0  0  0  0
   22.2425  -19.5291  -17.3321 C   0  0  0  0  0  0  0  0  0  0  0  0
   19.1751  -16.6423  -17.3680 C   0  0  1  0  0  0  0  0  0  0  0  0
   20.3902  -15.9977  -18.0273 C   0  0  0  0  0  0  0  0  0  0  0  0
   20.0319  -15.4217  -19.3765 C   0  0  2  0  0  0  0  0  0  0  0  0
   21.5249  -16.9930  -18.1142 N   0  0  0  0  0  0  0  0  0  0  0  0
   21.8604  -17.3708  -16.7438 C   0  0  0  0  0  0  0  0  0  0  0  0
   22.7129  -16.4421  -18.8165 O   0  0  0  0  0  0  0  0  0  0  0  0
   23.6479  -15.6997  -18.0866 O   0  0  0  0  0  0  0  0  0  0  0  0
  2  1  1  0
  3  2  2  0
  4  2  1  0
  5  6  1  0
  5  4  1  0
  7  6  1  0
  8  7  1  0
  8 10  1  0
  8  9  1  1
 10 12  1  0
 10 11  2  0
 12 13  1  0
 13 14  1  1
 14 15  1  0
 16 17  2  0
 16 13  1  0
 19 18  1  1
 19 21  1  0
 19 20  1  0
 21 22  1  6
 22 16  1  0
 23 21  1  0
 24 23  1  0
 25 23  2  0
M  END
$$$$
