RCV.pdb
     RDKit          3D

 25 24  0  0  1  0  0  0  0  0999 V2000
   18.5085  -24.1036   -8.5744 N   0  0  0  0  0  0  0  0  0  0  0  0
   17.8141  -24.6622   -9.6746 C   0  0  0  0  0  0  0  0  0  0  0  0
   16.5790  -25.0400   -9.4889 N   0  0  0  0  0  0  0  0  0  0  0  0
   18.3942  -24.8225  -10.9433 N   0  0  0  0  0  0  0  0  0  0  0  0
   19.6807  -24.2018  -11.2664 C   0  0  0  0  0  0  0  0  0  0  0  0
   19.4219  -22.8676  -11.8985 C   0  0  0  0  0  0  0  0  0  0  0  0
   20.6428  -22.1128  -12.2841 C   0  0  0  0  0  0  0  0  0  0  0  0
   21.1816  -21.1475  -11.2901 C   0  0  2  0  0  0  0  0  0  0  0  0
   20.2990  -20.0503  -10.9606 N   0  0  0  0  0  0  0  0  0  0  0  0
   22.4570  -20.6009  -11.8899 C   0  0  0  0  0  0  0  0  0  0  0  0
   22.4631  -19.6033  -12.6502 O   0  0  0  0  0  0  0  0  0  0  0  0
   16.0148  -25.5050  -10.2111 N   0  0  0  0  0  0  0  0  0  0  0  0
   23.7082  -21.2003  -11.6127 C   0  0  2  0  0  0  0  0  0  0  0  0
   24.9747  -20.7047  -12.1497 C   0  0  0  0  0  0  0  0  0  0  0  0
   26.1150  -21.2886  -11.3111 S   0  0  0  0  0  0  0  0  0  0  0  0
   25.9598  -20.6993   -9.6221 C   0  0  0  0  0  0  0  0  0  0  0  0
   25.0866  -20.9682  -13.5793 O   0  0  0  0  0  0  0  0  0  0  0  0
   24.8587  -22.1601  -13.9883 C   0  0  0  0  0  0  0  0  0  0  0  0
   22.9771  -20.2462  -16.0928 C   0  0  1  0  0  0  0  0  0  0  0  0
   24.2852  -19.6934  -16.6496 C   0  0  0  0  0  0  0  0  0  0  0  0
   24.3208  -19.8013  -18.1555 C   0  0  2  0  0  0  0  0  0  0  0  0
   25.4618  -20.3852  -15.9994 N   0  0  0  0  0  0  0  0  0  0  0  0
   25.4208  -20.0424  -14.5802 C   0  0  0  0  0  0  0  0  0  0  0  0
   26.7603  -19.9871  -16.6020 O   0  0  0  0  0  0  0  0  0  0  0  0
   27.3413  -18.7729  -16.2196 O   0  0  0  0  0  0  0  0  0  0  0  0
  2  1  1  0
  3  2  2  0
  4  2  1  0
  5  6  1  0
  5  4  1  0
  7  6  1  0
  8  7  1  0
  8 10  1  0
  8  9  1  6
 10 12  1  0
 10 11  2  0
 12 13  1  0
 13 14  1  1
 14 15  1  0
 16 17  2  0
 16 13  1  0
 19 18  1  6
 19 21  1  0
 19 20  1  0
 21 22  1  6
 22 16  1  0
 23 21  1  0
 24 23  1  0
 25 23  2  0
M  END
$$$$
