RCV.pdb
     RDKit          3D

 25 24  0  0  1  0  0  0  0  0999 V2000
   32.2632  -23.0687  -12.8001 N   0  0  0  0  0  0  0  0  0  0  0  0
   32.1978  -21.9097  -11.9896 C   0  0  0  0  0  0  0  0  0  0  0  0
   32.4545  -22.0394  -10.7168 N   0  0  0  0  0  0  0  0  0  0  0  0
   31.8731  -20.6405  -12.4952 N   0  0  0  0  0  0  0  0  0  0  0  0
   30.5010  -20.1330  -12.4303 C   0  0  0  0  0  0  0  0  0  0  0  0
   30.0233  -19.8679  -13.8260 C   0  0  0  0  0  0  0  0  0  0  0  0
   28.5927  -20.1909  -14.0675 C   0  0  0  0  0  0  0  0  0  0  0  0
   28.1743  -21.6017  -13.8561 C   0  0  2  0  0  0  0  0  0  0  0  0
   28.3281  -22.4654  -15.0058 N   0  0  0  0  0  0  0  0  0  0  0  0
   26.7160  -21.5485  -13.4617 C   0  0  0  0  0  0  0  0  0  0  0  0
   25.7925  -21.6676  -14.3020 O   0  0  0  0  0  0  0  0  0  0  0  0
   32.5305  -21.2437  -10.0709 N   0  0  0  0  0  0  0  0  0  0  0  0
   26.3320  -21.3610  -12.1129 C   0  0  1  0  0  0  0  0  0  0  0  0
   24.9395  -21.3466  -11.6670 C   0  0  0  0  0  0  0  0  0  0  0  0
   24.9172  -21.0429  -10.1665 S   0  0  0  0  0  0  0  0  0  0  0  0
   23.2113  -20.9090   -9.6223 C   0  0  0  0  0  0  0  0  0  0  0  0
   24.1312  -20.4403  -12.4739 O   0  0  0  0  0  0  0  0  0  0  0  0
   24.5140  -19.2222  -12.5713 C   0  0  0  0  0  0  0  0  0  0  0  0
   23.3396  -20.3563  -15.9776 C   0  0  1  0  0  0  0  0  0  0  0  0
   21.9813  -20.2536  -15.2913 C   0  0  0  0  0  0  0  0  0  0  0  0
   21.0370  -19.3846  -16.0875 C   0  0  2  0  0  0  0  0  0  0  0  0
   22.1506  -19.7617  -13.8718 N   0  0  0  0  0  0  0  0  0  0  0  0
   22.9567  -20.7595  -13.1732 C   0  0  0  0  0  0  0  0  0  0  0  0
   20.8509  -19.5549  -13.1820 O   0  0  0  0  0  0  0  0  0  0  0  0
   20.3348  -20.5835  -12.3859 O   0  0  0  0  0  0  0  0  0  0  0  0
  2  1  1  0
  3  2  2  0
  4  2  1  0
  5  6  1  0
  5  4  1  0
  7  6  1  0
  8  7  1  0
  8 10  1  0
  8  9  1  6
 10 12  1  0
 10 11  2  0
 12 13  1  0
 13 14  1  1
 14 15  1  0
 16 17  2  0
 16 13  1  0
 19 18  1  6
 19 21  1  0
 19 20  1  0
 21 22  1  1
 22 16  1  0
 23 21  1  0
 24 23  1  0
 25 23  2  0
M  END
$$$$
