RCV.pdb
     RDKit          3D

 25 24  0  0  1  0  0  0  0  0999 V2000
   23.8315  -23.9663  -14.4701 N   0  0  0  0  0  0  0  0  0  0  0  0
   24.6799  -24.8416  -15.1903 C   0  0  0  0  0  0  0  0  0  0  0  0
   24.2938  -26.0788  -15.3419 N   0  0  0  0  0  0  0  0  0  0  0  0
   25.9053  -24.4357  -15.7429 N   0  0  0  0  0  0  0  0  0  0  0  0
   26.2468  -23.0160  -15.8552 C   0  0  0  0  0  0  0  0  0  0  0  0
   25.4641  -22.4247  -16.9885 C   0  0  0  0  0  0  0  0  0  0  0  0
   25.7113  -20.9791  -17.2298 C   0  0  0  0  0  0  0  0  0  0  0  0
   26.8274  -20.3502  -16.4757 C   0  0  2  0  0  0  0  0  0  0  0  0
   27.3709  -21.1527  -15.4024 N   0  0  0  0  0  0  0  0  0  0  0  0
   26.2728  -19.0639  -15.9072 C   0  0  0  0  0  0  0  0  0  0  0  0
   25.5573  -19.0432  -14.8772 O   0  0  0  0  0  0  0  0  0  0  0  0
   24.8322  -26.7793  -15.8668 N   0  0  0  0  0  0  0  0  0  0  0  0
   26.5433  -17.8188  -16.5222 C   0  0  1  0  0  0  0  0  0  0  0  0
   26.0178  -16.5465  -16.0290 C   0  0  0  0  0  0  0  0  0  0  0  0
   27.1980  -15.6068  -15.7673 S   0  0  0  0  0  0  0  0  0  0  0  0
   26.5740  -14.0469  -15.1337 C   0  0  0  0  0  0  0  0  0  0  0  0
   25.0074  -16.0030  -16.9287 O   0  0  0  0  0  0  0  0  0  0  0  0
   25.2373  -16.0523  -18.1874 C   0  0  0  0  0  0  0  0  0  0  0  0
   21.6220  -16.9796  -17.5698 C   0  0  1  0  0  0  0  0  0  0  0  0
   21.5206  -15.4784  -17.3191 C   0  0  0  0  0  0  0  0  0  0  0  0
   20.4431  -14.8580  -18.1764 C   0  0  2  0  0  0  0  0  0  0  0  0
   22.8665  -14.8229  -17.5301 N   0  0  0  0  0  0  0  0  0  0  0  0
   23.7832  -15.4213  -16.5632 C   0  0  0  0  0  0  0  0  0  0  0  0
   22.8133  -13.3472  -17.3648 O   0  0  0  0  0  0  0  0  0  0  0  0
   22.5116  -12.5511  -18.4753 O   0  0  0  0  0  0  0  0  0  0  0  0
  2  1  1  0
  3  2  2  0
  4  2  1  0
  5  6  1  0
  5  4  1  0
  7  6  1  0
  8  7  1  0
  8 10  1  0
  8  9  1  1
 10 12  1  0
 10 11  2  0
 12 13  1  0
 13 14  1  6
 14 15  1  0
 16 17  2  0
 16 13  1  0
 19 18  1  1
 19 21  1  0
 19 20  1  0
 21 22  1  6
 22 16  1  0
 23 21  1  0
 24 23  1  0
 25 23  2  0
M  END
$$$$
