RCV.pdb
     RDKit          3D

 25 24  0  0  1  0  0  0  0  0999 V2000
   27.2332  -36.2273  -15.2257 N   0  0  0  0  0  0  0  0  0  0  0  0
   26.5812  -35.1249  -14.6224 C   0  0  0  0  0  0  0  0  0  0  0  0
   25.8906  -34.3284  -15.3915 N   0  0  0  0  0  0  0  0  0  0  0  0
   26.6460  -34.8583  -13.2452 N   0  0  0  0  0  0  0  0  0  0  0  0
   26.9034  -35.9312  -12.2823 C   0  0  0  0  0  0  0  0  0  0  0  0
   26.9192  -35.3423  -10.9041 C   0  0  0  0  0  0  0  0  0  0  0  0
   25.6181  -34.7870  -10.4482 C   0  0  0  0  0  0  0  0  0  0  0  0
   25.6128  -33.3752   -9.9827 C   0  0  2  0  0  0  0  0  0  0  0  0
   26.2341  -32.4302  -10.8840 N   0  0  0  0  0  0  0  0  0  0  0  0
   26.3519  -33.3690   -8.6640 C   0  0  0  0  0  0  0  0  0  0  0  0
   27.4613  -32.8010   -8.5232 O   0  0  0  0  0  0  0  0  0  0  0  0
   25.3912  -33.4997  -15.0450 N   0  0  0  0  0  0  0  0  0  0  0  0
   25.8137  -34.0107   -7.5237 C   0  0  1  0  0  0  0  0  0  0  0  0
   26.4435  -33.9698   -6.2047 C   0  0  0  0  0  0  0  0  0  0  0  0
   26.6081  -32.5038   -5.7948 S   0  0  0  0  0  0  0  0  0  0  0  0
   27.1007  -32.4308   -4.0696 C   0  0  0  0  0  0  0  0  0  0  0  0
   25.7129  -34.7831   -5.2402 O   0  0  0  0  0  0  0  0  0  0  0  0
   24.4397  -34.6557   -5.1917 C   0  0  0  0  0  0  0  0  0  0  0  0
   25.5274  -38.3827   -5.0281 C   0  0  1  0  0  0  0  0  0  0  0  0
   25.8329  -37.9404   -3.6006 C   0  0  0  0  0  0  0  0  0  0  0  0
   25.1603  -38.8470   -2.5974 C   0  0  2  0  0  0  0  0  0  0  0  0
   25.4462  -36.4913   -3.4102 N   0  0  0  0  0  0  0  0  0  0  0  0
   26.2590  -35.7122   -4.3407 C   0  0  0  0  0  0  0  0  0  0  0  0
   25.6498  -36.0265   -2.0136 O   0  0  0  0  0  0  0  0  0  0  0  0
   24.6102  -36.1803   -1.0897 O   0  0  0  0  0  0  0  0  0  0  0  0
  2  1  1  0
  3  2  2  0
  4  2  1  0
  5  6  1  0
  5  4  1  0
  7  6  1  0
  8  7  1  0
  8 10  1  0
  8  9  1  6
 10 12  1  0
 10 11  2  0
 12 13  1  0
 13 14  1  6
 14 15  1  0
 16 17  2  0
 16 13  1  0
 19 18  1  1
 19 21  1  0
 19 20  1  0
 21 22  1  6
 22 16  1  0
 23 21  1  0
 24 23  1  0
 25 23  2  0
M  END
$$$$
