RCV.pdb
     RDKit          3D

 25 24  0  0  1  0  0  0  0  0999 V2000
   22.8008  -20.1877  -15.8710 N   0  0  0  0  0  0  0  0  0  0  0  0
   21.7128  -19.7721  -15.0659 C   0  0  0  0  0  0  0  0  0  0  0  0
   20.5063  -19.9578  -15.5269 N   0  0  0  0  0  0  0  0  0  0  0  0
   21.8784  -19.1766  -13.8050 N   0  0  0  0  0  0  0  0  0  0  0  0
   22.9941  -19.5544  -12.9349 C   0  0  0  0  0  0  0  0  0  0  0  0
   22.5872  -20.7509  -12.1290 C   0  0  0  0  0  0  0  0  0  0  0  0
   23.6082  -21.2259  -11.1589 C   0  0  0  0  0  0  0  0  0  0  0  0
   24.9235  -20.5330  -11.1698 C   0  0  2  0  0  0  0  0  0  0  0  0
   25.7484  -20.8021  -12.3268 N   0  0  0  0  0  0  0  0  0  0  0  0
   25.6454  -20.9910   -9.9232 C   0  0  0  0  0  0  0  0  0  0  0  0
   25.0327  -21.4228   -8.9175 O   0  0  0  0  0  0  0  0  0  0  0  0
   19.6565  -19.7138  -15.0029 N   0  0  0  0  0  0  0  0  0  0  0  0
   27.0574  -20.9506   -9.8421 C   0  0  1  0  0  0  0  0  0  0  0  0
   27.8128  -21.4595   -8.6983 C   0  0  0  0  0  0  0  0  0  0  0  0
   29.1770  -21.9425   -9.1983 S   0  0  0  0  0  0  0  0  0  0  0  0
   29.9785  -20.6071  -10.0919 C   0  0  0  0  0  0  0  0  0  0  0  0
   27.8823  -20.4749   -7.6252 O   0  0  0  0  0  0  0  0  0  0  0  0
   27.6899  -19.2455   -7.9270 C   0  0  0  0  0  0  0  0  0  0  0  0
   28.6858  -21.2894   -3.4281 C   0  0  1  0  0  0  0  0  0  0  0  0
   27.7749  -20.1934   -3.9718 C   0  0  0  0  0  0  0  0  0  0  0  0
   26.3529  -20.6857   -4.1002 C   0  0  1  0  0  0  0  0  0  0  0  0
   28.3175  -19.6668   -5.2810 N   0  0  0  0  0  0  0  0  0  0  0  0
   28.1394  -20.7281   -6.2686 C   0  0  0  0  0  0  0  0  0  0  0  0
   29.7455  -19.2675   -5.1860 O   0  0  0  0  0  0  0  0  0  0  0  0
   30.0756  -18.0853   -4.5140 O   0  0  0  0  0  0  0  0  0  0  0  0
  2  1  1  0
  3  2  2  0
  4  2  1  0
  5  6  1  0
  5  4  1  0
  7  6  1  0
  8  7  1  0
  8 10  1  0
  8  9  1  6
 10 12  1  0
 10 11  2  0
 12 13  1  0
 13 14  1  6
 14 15  1  0
 16 17  2  0
 16 13  1  0
 19 18  1  1
 19 21  1  0
 19 20  1  0
 21 22  1  6
 22 16  1  0
 23 21  1  0
 24 23  1  0
 25 23  2  0
M  END
$$$$
