RCV.pdb
     RDKit          3D

 25 24  0  0  1  0  0  0  0  0999 V2000
   12.1318  -10.9905  -13.3709 N   0  0  0  0  0  0  0  0  0  0  0  0
   11.8391  -12.0593  -14.2522 C   0  0  0  0  0  0  0  0  0  0  0  0
   10.8562  -12.8580  -13.9380 N   0  0  0  0  0  0  0  0  0  0  0  0
   12.5552  -12.2905  -15.4378 N   0  0  0  0  0  0  0  0  0  0  0  0
   13.8832  -11.7075  -15.6407 C   0  0  0  0  0  0  0  0  0  0  0  0
   14.9006  -12.6025  -15.0000 C   0  0  0  0  0  0  0  0  0  0  0  0
   16.3145  -12.2181  -15.2493 C   0  0  0  0  0  0  0  0  0  0  0  0
   16.9990  -12.8700  -16.3967 C   0  0  2  0  0  0  0  0  0  0  0  0
   17.2683  -14.2809  -16.2284 N   0  0  0  0  0  0  0  0  0  0  0  0
   18.3044  -12.1296  -16.5778 C   0  0  0  0  0  0  0  0  0  0  0  0
   19.3456  -12.4505  -15.9563 O   0  0  0  0  0  0  0  0  0  0  0  0
   10.5963  -13.6816  -14.4949 N   0  0  0  0  0  0  0  0  0  0  0  0
   18.4035  -11.0334  -17.4667 C   0  0  2  0  0  0  0  0  0  0  0  0
   19.6591  -10.3419  -17.7552 C   0  0  0  0  0  0  0  0  0  0  0  0
   19.5898   -9.7929  -19.1828 S   0  0  0  0  0  0  0  0  0  0  0  0
   21.0612   -8.8157  -19.5055 C   0  0  0  0  0  0  0  0  0  0  0  0
   19.9596   -9.3382  -16.7413 O   0  0  0  0  0  0  0  0  0  0  0  0
   18.9926   -8.6240  -16.3003 C   0  0  0  0  0  0  0  0  0  0  0  0
   23.4834   -9.2438  -14.4720 C   0  0  1  0  0  0  0  0  0  0  0  0
   22.1409   -8.6840  -14.0127 C   0  0  0  0  0  0  0  0  0  0  0  0
   21.3019   -9.7569  -13.3602 C   0  0  1  0  0  0  0  0  0  0  0  0
   21.4267   -8.0263  -15.1716 N   0  0  0  0  0  0  0  0  0  0  0  0
   21.2162   -9.0619  -16.1797 C   0  0  0  0  0  0  0  0  0  0  0  0
   22.1915   -6.8850  -15.7379 O   0  0  0  0  0  0  0  0  0  0  0  0
   22.2188   -5.6735  -15.0382 O   0  0  0  0  0  0  0  0  0  0  0  0
  2  1  1  0
  3  2  2  0
  4  2  1  0
  5  6  1  0
  5  4  1  0
  7  6  1  0
  8  7  1  0
  8 10  1  0
  8  9  1  1
 10 12  1  0
 10 11  2  0
 12 13  1  0
 13 14  1  6
 14 15  1  0
 16 17  2  0
 16 13  1  0
 19 18  1  1
 19 21  1  0
 19 20  1  0
 21 22  1  6
 22 16  1  0
 23 21  1  0
 24 23  1  0
 25 23  2  0
M  END
$$$$
