RCV.pdb
     RDKit          3D

 25 24  0  0  1  0  0  0  0  0999 V2000
   25.9298  -25.3736  -15.1142 N   0  0  0  0  0  0  0  0  0  0  0  0
   25.2513  -25.7055  -16.3117 C   0  0  0  0  0  0  0  0  0  0  0  0
   25.1787  -26.9655  -16.6432 N   0  0  0  0  0  0  0  0  0  0  0  0
   24.6589  -24.7442  -17.1464 N   0  0  0  0  0  0  0  0  0  0  0  0
   25.0639  -23.3384  -17.0807 C   0  0  0  0  0  0  0  0  0  0  0  0
   26.5519  -23.2619  -17.2439 C   0  0  0  0  0  0  0  0  0  0  0  0
   27.1225  -21.8944  -17.1280 C   0  0  0  0  0  0  0  0  0  0  0  0
   26.4489  -20.8146  -17.8963 C   0  0  2  0  0  0  0  0  0  0  0  0
   27.3268  -19.9999  -18.7069 N   0  0  0  0  0  0  0  0  0  0  0  0
   25.7608  -19.9418  -16.8717 C   0  0  0  0  0  0  0  0  0  0  0  0
   26.3663  -19.0333  -16.2542 O   0  0  0  0  0  0  0  0  0  0  0  0
   24.6981  -27.3018  -17.4870 N   0  0  0  0  0  0  0  0  0  0  0  0
   24.3905  -20.1176  -16.5668 C   0  0  2  0  0  0  0  0  0  0  0  0
   23.6589  -19.2667  -15.6294 C   0  0  0  0  0  0  0  0  0  0  0  0
   22.5368  -18.5602  -16.3949 S   0  0  0  0  0  0  0  0  0  0  0  0
   21.5302  -17.6325  -15.2329 C   0  0  0  0  0  0  0  0  0  0  0  0
   23.2078  -20.0209  -14.4660 O   0  0  0  0  0  0  0  0  0  0  0  0
   22.5185  -21.0806  -14.6696 C   0  0  0  0  0  0  0  0  0  0  0  0
   25.1792  -20.4020  -10.9760 C   0  0  1  0  0  0  0  0  0  0  0  0
   23.6961  -20.1057  -10.7780 C   0  0  0  0  0  0  0  0  0  0  0  0
   23.1714  -20.7786   -9.5321 C   0  0  2  0  0  0  0  0  0  0  0  0
   22.9167  -20.5005  -12.0119 N   0  0  0  0  0  0  0  0  0  0  0  0
   23.4511  -19.7112  -13.1186 C   0  0  0  0  0  0  0  0  0  0  0  0
   21.4560  -20.2751  -11.8589 O   0  0  0  0  0  0  0  0  0  0  0  0
   20.9295  -19.0141  -12.1598 O   0  0  0  0  0  0  0  0  0  0  0  0
  2  1  1  0
  3  2  2  0
  4  2  1  0
  5  6  1  0
  5  4  1  0
  7  6  1  0
  8  7  1  0
  8 10  1  0
  8  9  1  1
 10 12  1  0
 10 11  2  0
 12 13  1  0
 13 14  1  6
 14 15  1  0
 16 17  2  0
 16 13  1  0
 19 18  1  1
 19 21  1  0
 19 20  1  0
 21 22  1  6
 22 16  1  0
 23 21  1  0
 24 23  1  0
 25 23  2  0
M  END
$$$$
