RCV.pdb
     RDKit          3D

 25 24  0  0  1  0  0  0  0  0999 V2000
   18.3453  -23.6973   -8.3977 N   0  0  0  0  0  0  0  0  0  0  0  0
   18.2165  -24.2032   -9.7138 C   0  0  0  0  0  0  0  0  0  0  0  0
   17.4237  -25.2225   -9.9012 N   0  0  0  0  0  0  0  0  0  0  0  0
   18.8989  -23.6571  -10.8129 N   0  0  0  0  0  0  0  0  0  0  0  0
   19.8743  -22.5797  -10.6335 C   0  0  0  0  0  0  0  0  0  0  0  0
   20.3779  -22.1620  -11.9820 C   0  0  0  0  0  0  0  0  0  0  0  0
   21.4849  -21.1705  -11.9547 C   0  0  0  0  0  0  0  0  0  0  0  0
   22.8007  -21.6416  -11.4482 C   0  0  2  0  0  0  0  0  0  0  0  0
   23.1240  -21.2251  -10.1015 N   0  0  0  0  0  0  0  0  0  0  0  0
   23.8353  -21.0925  -12.4037 C   0  0  0  0  0  0  0  0  0  0  0  0
   24.2033  -19.8938  -12.3723 O   0  0  0  0  0  0  0  0  0  0  0  0
   17.2637  -25.6534  -10.8204 N   0  0  0  0  0  0  0  0  0  0  0  0
   24.4363  -21.9196  -13.3816 C   0  0  2  0  0  0  0  0  0  0  0  0
   25.4807  -21.4579  -14.2949 C   0  0  0  0  0  0  0  0  0  0  0  0
   26.6652  -22.4234  -14.1998 S   0  0  0  0  0  0  0  0  0  0  0  0
   27.9134  -21.9371  -15.3955 C   0  0  0  0  0  0  0  0  0  0  0  0
   24.9641  -21.2748  -15.6459 O   0  0  0  0  0  0  0  0  0  0  0  0
   24.2121  -22.1917  -16.1290 C   0  0  0  0  0  0  0  0  0  0  0  0
   22.6415  -18.9931  -17.0857 C   0  0  1  0  0  0  0  0  0  0  0  0
   23.8690  -18.8771  -17.9836 C   0  0  0  0  0  0  0  0  0  0  0  0
   23.4701  -18.5850  -19.4106 C   0  0  2  0  0  0  0  0  0  0  0  0
   24.7165  -20.1240  -17.8712 N   0  0  0  0  0  0  0  0  0  0  0  0
   25.2009  -20.1819  -16.4945 C   0  0  0  0  0  0  0  0  0  0  0  0
   25.8506  -20.1300  -18.8312 O   0  0  0  0  0  0  0  0  0  0  0  0
   25.6709  -20.7162  -20.0890 O   0  0  0  0  0  0  0  0  0  0  0  0
  2  1  1  0
  3  2  2  0
  4  2  1  0
  5  6  1  0
  5  4  1  0
  7  6  1  0
  8  7  1  0
  8 10  1  0
  8  9  1  1
 10 12  1  0
 10 11  2  0
 12 13  1  0
 13 14  1  1
 14 15  1  0
 16 17  2  0
 16 13  1  0
 19 18  1  1
 19 21  1  0
 19 20  1  0
 21 22  1  6
 22 16  1  0
 23 21  1  0
 24 23  1  0
 25 23  2  0
M  END
$$$$
