NTS.pdb
     RDKit          3D

 22 21  0  0  1  0  0  0  0  0999 V2000
    8.8373  -15.1104   13.5863 N   0  0  0  0  0  0  0  0  0  0  0  0
    8.0462  -15.4391   14.7396 C   0  0  0  0  0  0  0  0  0  0  0  0
    7.0965  -16.2349   14.6275 O   0  0  0  0  0  0  0  0  0  0  0  0
    8.4421  -14.7801   16.0072 C   0  0  0  0  0  0  0  0  0  0  0  0
    8.8082  -15.8662   17.0052 C   0  0  2  0  0  0  0  0  0  0  0  0
    7.6688  -16.7047   17.2882 N   0  0  0  0  0  0  0  0  0  0  0  0
    9.3118  -15.2452   18.2793 C   0  0  0  0  0  0  0  0  0  0  0  0
   10.2952  -14.4758   18.2726 O   0  0  0  0  0  0  0  0  0  0  0  0
    7.1620  -13.5167   20.8414 C   0  0  0  0  0  0  0  0  0  0  0  0
    7.8784  -14.6343   21.5673 C   0  0  1  0  0  0  0  0  0  0  0  0
    7.0257  -15.7020   21.7106 O   0  0  0  0  0  0  0  0  0  0  0  0
    9.1040  -15.0638   20.7854 C   0  0  2  0  0  0  0  0  0  0  0  0
    8.6728  -15.5290   19.4994 N   0  0  0  0  0  0  0  0  0  0  0  0
    9.9372  -16.0177   21.5141 C   0  0  0  0  0  0  0  0  0  0  0  0
    9.8470  -17.2386   21.2358 O   0  0  0  0  0  0  0  0  0  0  0  0
   13.6049  -16.0166   22.1863 O   0  0  0  0  0  0  0  0  0  0  0  0
   13.0347  -16.2608   23.4322 C   0  0  0  0  0  0  0  0  0  0  0  0
   11.5661  -16.6529   23.2497 C   0  0  2  0  0  0  0  0  0  0  0  0
   10.8491  -15.6298   22.5275 N   0  0  0  0  0  0  0  0  0  0  0  0
   11.0091  -16.9342   24.5697 C   0  0  0  0  0  0  0  0  0  0  0  0
   11.5676  -17.9173   25.3596 O   0  0  0  0  0  0  0  0  0  0  0  0
   10.0283  -16.2922   24.9945 O   0  0  0  0  0  0  0  0  0  0  0  0
  2  1  1  0
  3  2  2  0
  4  2  1  0
  4  5  1  0
  5  7  1  0
  5  6  1  1
  7 13  1  0
  8  7  2  0
 10  9  1  6
 10 12  1  0
 11 10  1  0
 12 14  1  0
 12 13  1  6
 14 15  2  0
 14 19  1  0
 16 17  1  0
 18 17  1  1
 18 20  1  0
 19 18  1  0
 20 21  1  0
 22 20  2  0
M  END
$$$$
