NTS.pdb
     RDKit          3D

 22 21  0  0  1  0  0  0  0  0999 V2000
    9.3147  -15.2765   13.0671 N   0  0  0  0  0  0  0  0  0  0  0  0
    8.1659  -14.9048   13.8456 C   0  0  0  0  0  0  0  0  0  0  0  0
    7.0246  -15.1146   13.3966 O   0  0  0  0  0  0  0  0  0  0  0  0
    8.4475  -14.2822   15.1613 C   0  0  0  0  0  0  0  0  0  0  0  0
    8.8813  -15.3818   16.1164 C   0  0  2  0  0  0  0  0  0  0  0  0
    7.7857  -16.2783   16.3945 N   0  0  0  0  0  0  0  0  0  0  0  0
    9.3841  -14.7794   17.3997 C   0  0  0  0  0  0  0  0  0  0  0  0
   10.3343  -13.9693   17.3987 O   0  0  0  0  0  0  0  0  0  0  0  0
    7.1638  -13.2522   19.9543 C   0  0  0  0  0  0  0  0  0  0  0  0
    7.9709  -14.2875   20.7065 C   0  0  1  0  0  0  0  0  0  0  0  0
    7.1967  -15.4033   20.9141 O   0  0  0  0  0  0  0  0  0  0  0  0
    9.2054  -14.6657   19.9120 C   0  0  2  0  0  0  0  0  0  0  0  0
    8.7821  -15.1271   18.6221 N   0  0  0  0  0  0  0  0  0  0  0  0
   10.0736  -15.6016   20.6228 C   0  0  0  0  0  0  0  0  0  0  0  0
   10.0768  -16.8086   20.2772 O   0  0  0  0  0  0  0  0  0  0  0  0
   13.6667  -16.6057   23.6495 O   0  0  0  0  0  0  0  0  0  0  0  0
   12.8595  -15.5961   23.1334 C   0  0  0  0  0  0  0  0  0  0  0  0
   11.6811  -16.2226   22.3834 C   0  0  2  0  0  0  0  0  0  0  0  0
   10.9188  -15.2112   21.6916 N   0  0  0  0  0  0  0  0  0  0  0  0
   10.8944  -16.9904   23.3444 C   0  0  0  0  0  0  0  0  0  0  0  0
   11.3380  -18.2250   23.7702 O   0  0  0  0  0  0  0  0  0  0  0  0
    9.8193  -16.5407   23.7878 O   0  0  0  0  0  0  0  0  0  0  0  0
  2  1  1  0
  3  2  2  0
  4  2  1  0
  4  5  1  0
  5  7  1  0
  5  6  1  1
  7 13  1  0
  8  7  2  0
 10  9  1  6
 10 12  1  0
 11 10  1  0
 12 14  1  0
 12 13  1  6
 14 15  2  0
 14 19  1  0
 16 17  1  0
 18 17  1  1
 18 20  1  0
 19 18  1  0
 20 21  1  0
 22 20  2  0
M  END
$$$$
