NTS.pdb
     RDKit          3D

 22 21  0  0  1  0  0  0  0  0999 V2000
    1.5862  -26.7776   32.4613 N   0  0  0  0  0  0  0  0  0  0  0  0
    0.6847  -27.4482   31.5659 C   0  0  0  0  0  0  0  0  0  0  0  0
    0.5637  -28.6849   31.6272 O   0  0  0  0  0  0  0  0  0  0  0  0
   -0.0489  -26.5805   30.6136 C   0  0  0  0  0  0  0  0  0  0  0  0
   -1.5369  -26.7710   30.8573 C   0  0  2  0  0  0  0  0  0  0  0  0
   -1.9834  -28.0360   30.3265 N   0  0  0  0  0  0  0  0  0  0  0  0
   -2.3101  -25.6499   30.2188 C   0  0  0  0  0  0  0  0  0  0  0  0
   -1.9318  -24.4651   30.3304 O   0  0  0  0  0  0  0  0  0  0  0  0
   -3.5194  -25.9281   26.5885 C   0  0  0  0  0  0  0  0  0  0  0  0
   -4.7097  -25.6038   27.4644 C   0  0  1  0  0  0  0  0  0  0  0  0
   -5.3967  -26.7605   27.7428 O   0  0  0  0  0  0  0  0  0  0  0  0
   -4.2471  -24.9633   28.7582 C   0  0  2  0  0  0  0  0  0  0  0  0
   -3.4761  -25.9300   29.4843 N   0  0  0  0  0  0  0  0  0  0  0  0
   -5.3440  -24.3791   29.5267 C   0  0  0  0  0  0  0  0  0  0  0  0
   -5.9456  -25.0940   30.3653 O   0  0  0  0  0  0  0  0  0  0  0  0
   -8.2101  -20.6523   30.6733 O   0  0  0  0  0  0  0  0  0  0  0  0
   -7.1447  -21.0787   29.8859 C   0  0  0  0  0  0  0  0  0  0  0  0
   -6.9260  -22.5791   30.0978 C   0  0  2  0  0  0  0  0  0  0  0  0
   -5.7656  -23.0349   29.3710 N   0  0  0  0  0  0  0  0  0  0  0  0
   -8.1570  -23.2694   29.7236 C   0  0  0  0  0  0  0  0  0  0  0  0
   -8.3576  -23.6638   28.4172 O   0  0  0  0  0  0  0  0  0  0  0  0
   -9.0348  -23.5084   30.5761 O   0  0  0  0  0  0  0  0  0  0  0  0
  2  1  1  0
  3  2  2  0
  4  2  1  0
  4  5  1  0
  5  7  1  0
  5  6  1  6
  7 13  1  0
  8  7  2  0
 10  9  1  6
 10 12  1  0
 11 10  1  0
 12 14  1  0
 12 13  1  1
 14 15  2  0
 14 19  1  0
 16 17  1  0
 18 17  1  6
 18 20  1  0
 19 18  1  0
 20 21  1  0
 22 20  2  0
M  END
$$$$
