NTS.pdb
     RDKit          3D

 22 21  0  0  1  0  0  0  0  0999 V2000
    8.9519  -13.8363   14.6582 N   0  0  0  0  0  0  0  0  0  0  0  0
    7.9866  -14.5081   15.4833 C   0  0  0  0  0  0  0  0  0  0  0  0
    7.2165  -15.3421   14.9741 O   0  0  0  0  0  0  0  0  0  0  0  0
    7.9905  -14.1380   16.9189 C   0  0  0  0  0  0  0  0  0  0  0  0
    8.6739  -15.2560   17.6889 C   0  0  2  0  0  0  0  0  0  0  0  0
    7.7834  -16.3784   17.8575 N   0  0  0  0  0  0  0  0  0  0  0  0
    9.1212  -14.7547   19.0346 C   0  0  0  0  0  0  0  0  0  0  0  0
    9.9456  -13.8217   19.1298 O   0  0  0  0  0  0  0  0  0  0  0  0
    7.0157  -13.6742   21.8866 C   0  0  0  0  0  0  0  0  0  0  0  0
    7.8344  -14.8339   22.4100 C   0  0  1  0  0  0  0  0  0  0  0  0
    7.0634  -15.9711   22.4079 O   0  0  0  0  0  0  0  0  0  0  0  0
    9.0562  -15.0463   21.5381 C   0  0  2  0  0  0  0  0  0  0  0  0
    8.6096  -15.3385   20.2072 N   0  0  0  0  0  0  0  0  0  0  0  0
    9.9798  -16.0370   22.0862 C   0  0  0  0  0  0  0  0  0  0  0  0
   10.0710  -17.1570   21.5263 O   0  0  0  0  0  0  0  0  0  0  0  0
   14.0109  -17.3898   23.8363 O   0  0  0  0  0  0  0  0  0  0  0  0
   13.1481  -16.3302   23.5718 C   0  0  0  0  0  0  0  0  0  0  0  0
   11.7004  -16.8193   23.6664 C   0  0  2  0  0  0  0  0  0  0  0  0
   10.7842  -15.7942   23.2277 N   0  0  0  0  0  0  0  0  0  0  0  0
   11.4654  -17.2639   25.0372 C   0  0  0  0  0  0  0  0  0  0  0  0
   12.1799  -18.3261   25.5506 O   0  0  0  0  0  0  0  0  0  0  0  0
   10.6211  -16.6914   25.7540 O   0  0  0  0  0  0  0  0  0  0  0  0
  2  1  1  0
  3  2  2  0
  4  2  1  0
  4  5  1  0
  5  7  1  0
  5  6  1  1
  7 13  1  0
  8  7  2  0
 10  9  1  6
 10 12  1  0
 11 10  1  0
 12 14  1  0
 12 13  1  6
 14 15  2  0
 14 19  1  0
 16 17  1  0
 18 17  1  1
 18 20  1  0
 19 18  1  0
 20 21  1  0
 22 20  2  0
M  END
$$$$
