NTS.pdb
     RDKit          3D

 22 21  0  0  1  0  0  0  0  0999 V2000
   11.5206  -24.3366   14.0974 N   0  0  0  0  0  0  0  0  0  0  0  0
   10.9223  -23.0369   13.9675 C   0  0  0  0  0  0  0  0  0  0  0  0
    9.8638  -22.9084   13.3263 O   0  0  0  0  0  0  0  0  0  0  0  0
   11.6410  -21.9226   14.6305 C   0  0  0  0  0  0  0  0  0  0  0  0
   10.7556  -20.6891   14.5645 C   0  0  2  0  0  0  0  0  0  0  0  0
   11.1015  -19.8726   13.4265 N   0  0  0  0  0  0  0  0  0  0  0  0
   10.8970  -19.8863   15.8286 C   0  0  0  0  0  0  0  0  0  0  0  0
   11.8538  -19.0993   15.9847 O   0  0  0  0  0  0  0  0  0  0  0  0
    7.9936  -17.9438   17.1854 C   0  0  0  0  0  0  0  0  0  0  0  0
    8.4876  -18.8161   18.3187 C   0  0  1  0  0  0  0  0  0  0  0  0
    7.6848  -19.9265   18.4196 O   0  0  0  0  0  0  0  0  0  0  0  0
    9.9188  -19.2450   18.0621 C   0  0  2  0  0  0  0  0  0  0  0  0
    9.9437  -20.0172   16.8541 N   0  0  0  0  0  0  0  0  0  0  0  0
   10.5249  -19.9165   19.2095 C   0  0  0  0  0  0  0  0  0  0  0  0
   10.5087  -21.1710   19.2568 O   0  0  0  0  0  0  0  0  0  0  0  0
   13.7636  -18.9595   21.2507 O   0  0  0  0  0  0  0  0  0  0  0  0
   12.7236  -19.2031   22.1430 C   0  0  0  0  0  0  0  0  0  0  0  0
   11.6051  -19.9613   21.4232 C   0  0  2  0  0  0  0  0  0  0  0  0
   11.1350  -19.2162   20.2802 N   0  0  0  0  0  0  0  0  0  0  0  0
   10.5595  -20.2525   22.3999 C   0  0  0  0  0  0  0  0  0  0  0  0
   10.8086  -21.1248   23.4388 O   0  0  0  0  0  0  0  0  0  0  0  0
    9.4366  -19.7187   22.3056 O   0  0  0  0  0  0  0  0  0  0  0  0
  2  1  1  0
  3  2  2  0
  4  2  1  0
  4  5  1  0
  5  7  1  0
  5  6  1  6
  7 13  1  0
  8  7  2  0
 10  9  1  6
 10 12  1  0
 11 10  1  0
 12 14  1  0
 12 13  1  6
 14 15  2  0
 14 19  1  0
 16 17  1  0
 18 17  1  1
 18 20  1  0
 19 18  1  0
 20 21  1  0
 22 20  2  0
M  END
$$$$
