NTS.pdb
     RDKit          3D

 22 21  0  0  1  0  0  0  0  0999 V2000
   16.1045  -14.8527   17.1883 N   0  0  0  0  0  0  0  0  0  0  0  0
   15.1658  -15.6774   17.8973 C   0  0  0  0  0  0  0  0  0  0  0  0
   15.1082  -16.8954   17.6506 O   0  0  0  0  0  0  0  0  0  0  0  0
   14.3175  -14.9835   18.8958 C   0  0  0  0  0  0  0  0  0  0  0  0
   12.8650  -15.1823   18.4952 C   0  0  2  0  0  0  0  0  0  0  0  0
   12.6398  -14.7232   17.1462 N   0  0  0  0  0  0  0  0  0  0  0  0
   11.9639  -14.4388   19.4428 C   0  0  0  0  0  0  0  0  0  0  0  0
   12.2200  -13.2650   19.7831 O   0  0  0  0  0  0  0  0  0  0  0  0
    8.5993  -13.4572   18.9741 C   0  0  0  0  0  0  0  0  0  0  0  0
    8.5302  -14.3976   20.1573 C   0  0  1  0  0  0  0  0  0  0  0  0
    8.1796  -15.6519   19.7201 O   0  0  0  0  0  0  0  0  0  0  0  0
    9.8750  -14.4596   20.8544 C   0  0  2  0  0  0  0  0  0  0  0  0
   10.8153  -15.0659   19.9575 N   0  0  0  0  0  0  0  0  0  0  0  0
    9.8060  -15.1004   22.1658 C   0  0  0  0  0  0  0  0  0  0  0  0
   10.3704  -16.2098   22.3296 O   0  0  0  0  0  0  0  0  0  0  0  0
    7.1928  -13.8365   25.0500 O   0  0  0  0  0  0  0  0  0  0  0  0
    8.3120  -14.4734   25.5781 C   0  0  0  0  0  0  0  0  0  0  0  0
    8.9900  -15.2993   24.4817 C   0  0  2  0  0  0  0  0  0  0  0  0
    9.1280  -14.5270   23.2706 N   0  0  0  0  0  0  0  0  0  0  0  0
    8.2215  -16.5283   24.3054 C   0  0  0  0  0  0  0  0  0  0  0  0
    7.6430  -16.8119   23.0858 O   0  0  0  0  0  0  0  0  0  0  0  0
    8.0809  -17.3298   25.2500 O   0  0  0  0  0  0  0  0  0  0  0  0
  2  1  1  0
  3  2  2  0
  4  2  1  0
  4  5  1  0
  5  7  1  0
  5  6  1  6
  7 13  1  0
  8  7  2  0
 10  9  1  6
 10 12  1  0
 11 10  1  0
 12 14  1  0
 12 13  1  6
 14 15  2  0
 14 19  1  0
 16 17  1  0
 18 17  1  1
 18 20  1  0
 19 18  1  0
 20 21  1  0
 22 20  2  0
M  END
$$$$
