NTS.pdb
     RDKit          3D

 22 21  0  0  1  0  0  0  0  0999 V2000
    8.7720  -15.2593   12.2829 N   0  0  0  0  0  0  0  0  0  0  0  0
    8.2511  -16.5401   12.6732 C   0  0  0  0  0  0  0  0  0  0  0  0
    8.2101  -17.4662   11.8434 O   0  0  0  0  0  0  0  0  0  0  0  0
    7.7915  -16.6527   14.0782 C   0  0  0  0  0  0  0  0  0  0  0  0
    9.0128  -16.5676   14.9787 C   0  0  2  0  0  0  0  0  0  0  0  0
    9.8826  -17.6991   14.7678 N   0  0  0  0  0  0  0  0  0  0  0  0
    8.5863  -16.5154   16.4201 C   0  0  0  0  0  0  0  0  0  0  0  0
    7.7345  -15.6885   16.8072 O   0  0  0  0  0  0  0  0  0  0  0  0
    7.6038  -19.6242   18.0747 C   0  0  0  0  0  0  0  0  0  0  0  0
    8.5798  -18.9937   19.0438 C   0  0  1  0  0  0  0  0  0  0  0  0
    9.7919  -19.6332   18.9475 O   0  0  0  0  0  0  0  0  0  0  0  0
    8.7547  -17.5219   18.7256 C   0  0  2  0  0  0  0  0  0  0  0  0
    9.1488  -17.4059   17.3518 N   0  0  0  0  0  0  0  0  0  0  0  0
    9.6482  -16.8411   19.6600 C   0  0  0  0  0  0  0  0  0  0  0  0
   10.8231  -16.5850   19.2989 O   0  0  0  0  0  0  0  0  0  0  0  0
    8.5232  -15.7022   23.5041 O   0  0  0  0  0  0  0  0  0  0  0  0
    9.5748  -15.0076   22.9136 C   0  0  0  0  0  0  0  0  0  0  0  0
   10.2382  -15.8944   21.8565 C   0  0  2  0  0  0  0  0  0  0  0  0
    9.2511  -16.4524   20.9639 N   0  0  0  0  0  0  0  0  0  0  0  0
   11.0329  -16.9031   22.5513 C   0  0  0  0  0  0  0  0  0  0  0  0
   12.1367  -16.5260   23.2874 O   0  0  0  0  0  0  0  0  0  0  0  0
   10.7239  -18.1093   22.4870 O   0  0  0  0  0  0  0  0  0  0  0  0
  2  1  1  0
  3  2  2  0
  4  2  1  0
  4  5  1  0
  5  7  1  0
  5  6  1  1
  7 13  1  0
  8  7  2  0
 10  9  1  6
 10 12  1  0
 11 10  1  0
 12 14  1  0
 12 13  1  6
 14 15  2  0
 14 19  1  0
 16 17  1  0
 18 17  1  1
 18 20  1  0
 19 18  1  0
 20 21  1  0
 22 20  2  0
M  END
$$$$
