NTS.pdb
     RDKit          3D

 22 21  0  0  1  0  0  0  0  0999 V2000
    8.2933  -16.6254   13.4001 N   0  0  0  0  0  0  0  0  0  0  0  0
    9.0317  -15.3991   13.2784 C   0  0  0  0  0  0  0  0  0  0  0  0
    9.2015  -14.8923   12.1549 O   0  0  0  0  0  0  0  0  0  0  0  0
    9.5456  -14.8229   14.5440 C   0  0  0  0  0  0  0  0  0  0  0  0
    9.1220  -15.7378   15.6812 C   0  0  2  0  0  0  0  0  0  0  0  0
    7.6840  -15.7969   15.7805 N   0  0  0  0  0  0  0  0  0  0  0  0
    9.7019  -15.2469   16.9793 C   0  0  0  0  0  0  0  0  0  0  0  0
   10.9321  -15.0752   17.1079 O   0  0  0  0  0  0  0  0  0  0  0  0
    7.6670  -12.7046   19.1594 C   0  0  0  0  0  0  0  0  0  0  0  0
    8.1509  -13.8320   20.0449 C   0  0  1  0  0  0  0  0  0  0  0  0
    7.1135  -14.7016   20.2798 O   0  0  0  0  0  0  0  0  0  0  0  0
    9.2916  -14.5708   19.3734 C   0  0  2  0  0  0  0  0  0  0  0  0
    8.8552  -14.9750   18.0686 N   0  0  0  0  0  0  0  0  0  0  0  0
    9.8190  -15.6628   20.1886 C   0  0  0  0  0  0  0  0  0  0  0  0
    9.5845  -16.8466   19.8424 O   0  0  0  0  0  0  0  0  0  0  0  0
   13.2789  -15.8566   22.3905 O   0  0  0  0  0  0  0  0  0  0  0  0
   12.5049  -16.8869   21.8648 C   0  0  0  0  0  0  0  0  0  0  0  0
   11.0251  -16.5930   22.1249 C   0  0  2  0  0  0  0  0  0  0  0  0
   10.5882  -15.4499   21.3599 N   0  0  0  0  0  0  0  0  0  0  0  0
   10.8453  -16.4341   23.5651 C   0  0  0  0  0  0  0  0  0  0  0  0
   11.1243  -17.4836   24.4156 O   0  0  0  0  0  0  0  0  0  0  0  0
   10.4400  -15.3544   24.0388 O   0  0  0  0  0  0  0  0  0  0  0  0
  2  1  1  0
  3  2  2  0
  4  2  1  0
  4  5  1  0
  5  7  1  0
  5  6  1  1
  7 13  1  0
  8  7  2  0
 10  9  1  6
 10 12  1  0
 11 10  1  0
 12 14  1  0
 12 13  1  6
 14 15  2  0
 14 19  1  0
 16 17  1  0
 18 17  1  1
 18 20  1  0
 19 18  1  0
 20 21  1  0
 22 20  2  0
M  END
$$$$
