NTS.pdb
     RDKit          3D

 22 21  0  0  1  0  0  0  0  0999 V2000
   11.8081  -16.9353   13.6524 N   0  0  0  0  0  0  0  0  0  0  0  0
   10.7352  -16.0232   13.9369 C   0  0  0  0  0  0  0  0  0  0  0  0
    9.7899  -15.9163   13.1351 O   0  0  0  0  0  0  0  0  0  0  0  0
   10.8497  -15.2617   15.2038 C   0  0  0  0  0  0  0  0  0  0  0  0
   10.1680  -16.0671   16.2976 C   0  0  2  0  0  0  0  0  0  0  0  0
    8.7434  -16.1242   16.0771 N   0  0  0  0  0  0  0  0  0  0  0  0
   10.4508  -15.4523   17.6409 C   0  0  0  0  0  0  0  0  0  0  0  0
   11.6121  -15.1291   17.9666 O   0  0  0  0  0  0  0  0  0  0  0  0
    8.0403  -12.8481   19.2839 C   0  0  0  0  0  0  0  0  0  0  0  0
    8.2806  -13.9863   20.2514 C   0  0  1  0  0  0  0  0  0  0  0  0
    7.2139  -14.8510   20.2086 O   0  0  0  0  0  0  0  0  0  0  0  0
    9.5506  -14.7269   19.8815 C   0  0  2  0  0  0  0  0  0  0  0  0
    9.3994  -15.2348   18.5491 N   0  0  0  0  0  0  0  0  0  0  0  0
    9.9240  -15.7406   20.8654 C   0  0  0  0  0  0  0  0  0  0  0  0
    9.5346  -16.9222   20.6969 O   0  0  0  0  0  0  0  0  0  0  0  0
   13.0355  -15.3151   23.4712 O   0  0  0  0  0  0  0  0  0  0  0  0
   12.5785  -16.5815   23.1186 C   0  0  0  0  0  0  0  0  0  0  0  0
   11.0639  -16.5317   22.9010 C   0  0  2  0  0  0  0  0  0  0  0  0
   10.7101  -15.4536   22.0093 N   0  0  0  0  0  0  0  0  0  0  0  0
   10.4250  -16.4388   24.2107 C   0  0  0  0  0  0  0  0  0  0  0  0
    9.5457  -15.4105   24.4786 O   0  0  0  0  0  0  0  0  0  0  0  0
   10.6661  -17.2833   25.0956 O   0  0  0  0  0  0  0  0  0  0  0  0
  2  1  1  0
  3  2  2  0
  4  2  1  0
  4  5  1  0
  5  7  1  0
  5  6  1  6
  7 13  1  0
  8  7  2  0
 10  9  1  6
 10 12  1  0
 11 10  1  0
 12 14  1  0
 12 13  1  6
 14 15  2  0
 14 19  1  0
 16 17  1  0
 18 17  1  1
 18 20  1  0
 19 18  1  0
 20 21  1  0
 22 20  2  0
M  END
$$$$
