NTS.pdb
     RDKit          3D

 22 21  0  0  1  0  0  0  0  0999 V2000
    8.5941  -18.3840   14.6064 N   0  0  0  0  0  0  0  0  0  0  0  0
   10.0166  -18.2428   14.7498 C   0  0  0  0  0  0  0  0  0  0  0  0
   10.7703  -18.6729   13.8583 O   0  0  0  0  0  0  0  0  0  0  0  0
   10.4806  -17.5742   15.9890 C   0  0  0  0  0  0  0  0  0  0  0  0
    9.5740  -16.3817   16.2453 C   0  0  2  0  0  0  0  0  0  0  0  0
    9.6458  -15.4416   15.1534 N   0  0  0  0  0  0  0  0  0  0  0  0
    9.9682  -15.7025   17.5282 C   0  0  0  0  0  0  0  0  0  0  0  0
   11.0957  -15.1817   17.6579 O   0  0  0  0  0  0  0  0  0  0  0  0
    8.0431  -12.9980   19.2250 C   0  0  0  0  0  0  0  0  0  0  0  0
    8.1367  -14.1427   20.2099 C   0  0  1  0  0  0  0  0  0  0  0  0
    6.9782  -14.8796   20.1606 O   0  0  0  0  0  0  0  0  0  0  0  0
    9.3182  -15.0294   19.8694 C   0  0  2  0  0  0  0  0  0  0  0  0
    9.0614  -15.6482   18.6016 N   0  0  0  0  0  0  0  0  0  0  0  0
    9.6462  -15.9729   20.9359 C   0  0  0  0  0  0  0  0  0  0  0  0
    9.0539  -17.0793   20.9708 O   0  0  0  0  0  0  0  0  0  0  0  0
   12.5101  -15.0915   23.5706 O   0  0  0  0  0  0  0  0  0  0  0  0
   12.1546  -16.4317   23.6908 C   0  0  0  0  0  0  0  0  0  0  0  0
   10.8120  -16.6648   22.9930 C   0  0  2  0  0  0  0  0  0  0  0  0
   10.6075  -15.6986   21.9407 N   0  0  0  0  0  0  0  0  0  0  0  0
    9.7670  -16.6467   24.0126 C   0  0  0  0  0  0  0  0  0  0  0  0
    9.7864  -17.5694   25.0376 O   0  0  0  0  0  0  0  0  0  0  0  0
    8.8512  -15.8017   23.9677 O   0  0  0  0  0  0  0  0  0  0  0  0
  2  1  1  0
  3  2  2  0
  4  2  1  0
  4  5  1  0
  5  7  1  0
  5  6  1  6
  7 13  1  0
  8  7  2  0
 10  9  1  6
 10 12  1  0
 11 10  1  0
 12 14  1  0
 12 13  1  6
 14 15  2  0
 14 19  1  0
 16 17  1  0
 18 17  1  1
 18 20  1  0
 19 18  1  0
 20 21  1  0
 22 20  2  0
M  END
$$$$
