NTS.pdb
     RDKit          3D

 22 21  0  0  1  0  0  0  0  0999 V2000
    6.9460  -17.4396   14.3123 N   0  0  0  0  0  0  0  0  0  0  0  0
    8.1983  -18.1178   14.5013 C   0  0  0  0  0  0  0  0  0  0  0  0
    8.3261  -19.2930   14.1132 O   0  0  0  0  0  0  0  0  0  0  0  0
    9.2672  -17.3336   15.1649 C   0  0  0  0  0  0  0  0  0  0  0  0
    8.6939  -15.9736   15.5274 C   0  0  2  0  0  0  0  0  0  0  0  0
    8.8617  -15.0420   14.4387 N   0  0  0  0  0  0  0  0  0  0  0  0
    9.3712  -15.4422   16.7608 C   0  0  0  0  0  0  0  0  0  0  0  0
   10.5892  -15.1670   16.7554 O   0  0  0  0  0  0  0  0  0  0  0  0
    7.6903  -12.7476   18.9248 C   0  0  0  0  0  0  0  0  0  0  0  0
    8.0827  -13.8942   19.8305 C   0  0  1  0  0  0  0  0  0  0  0  0
    6.9784  -14.6718   20.0825 O   0  0  0  0  0  0  0  0  0  0  0  0
    9.1577  -14.7360   19.1717 C   0  0  2  0  0  0  0  0  0  0  0  0
    8.6309  -15.2493   17.9408 N   0  0  0  0  0  0  0  0  0  0  0  0
    9.6999  -15.7617   20.0600 C   0  0  0  0  0  0  0  0  0  0  0  0
    9.2370  -16.9269   19.9953 O   0  0  0  0  0  0  0  0  0  0  0  0
   12.9183  -15.1203   22.6183 O   0  0  0  0  0  0  0  0  0  0  0  0
   12.7086  -16.4047   22.1250 C   0  0  0  0  0  0  0  0  0  0  0  0
   11.2218  -16.5908   21.8108 C   0  0  2  0  0  0  0  0  0  0  0  0
   10.7305  -15.5041   20.9983 N   0  0  0  0  0  0  0  0  0  0  0  0
   10.5105  -16.7401   23.0771 C   0  0  0  0  0  0  0  0  0  0  0  0
    9.5063  -15.8564   23.4133 O   0  0  0  0  0  0  0  0  0  0  0  0
   10.8017  -17.6628   23.8635 O   0  0  0  0  0  0  0  0  0  0  0  0
  2  1  1  0
  3  2  2  0
  4  2  1  0
  4  5  1  0
  5  7  1  0
  5  6  1  6
  7 13  1  0
  8  7  2  0
 10  9  1  6
 10 12  1  0
 11 10  1  0
 12 14  1  0
 12 13  1  6
 14 15  2  0
 14 19  1  0
 16 17  1  0
 18 17  1  1
 18 20  1  0
 19 18  1  0
 20 21  1  0
 22 20  2  0
M  END
$$$$
