NTS.pdb
     RDKit          3D

 22 21  0  0  1  0  0  0  0  0999 V2000
   11.2211  -20.5762   17.3081 N   0  0  0  0  0  0  0  0  0  0  0  0
   10.1708  -19.6764   17.6969 C   0  0  0  0  0  0  0  0  0  0  0  0
    9.0299  -19.8211   17.2223 O   0  0  0  0  0  0  0  0  0  0  0  0
   10.5485  -18.6169   18.6627 C   0  0  0  0  0  0  0  0  0  0  0  0
   10.0017  -17.2962   18.1466 C   0  0  2  0  0  0  0  0  0  0  0  0
   10.8049  -16.8029   17.0543 N   0  0  0  0  0  0  0  0  0  0  0  0
    9.9747  -16.2818   19.2568 C   0  0  0  0  0  0  0  0  0  0  0  0
   10.9325  -15.5008   19.4353 O   0  0  0  0  0  0  0  0  0  0  0  0
    7.2626  -13.7790   19.9021 C   0  0  0  0  0  0  0  0  0  0  0  0
    7.3551  -14.6552   21.1321 C   0  0  1  0  0  0  0  0  0  0  0  0
    6.3911  -15.6320   21.0669 O   0  0  0  0  0  0  0  0  0  0  0  0
    8.7256  -15.2980   21.2135 C   0  0  2  0  0  0  0  0  0  0  0  0
    8.8599  -16.2044   20.1105 N   0  0  0  0  0  0  0  0  0  0  0  0
    8.9925  -15.9034   22.5164 C   0  0  0  0  0  0  0  0  0  0  0  0
    9.0031  -17.1551   22.6133 O   0  0  0  0  0  0  0  0  0  0  0  0
    9.9364  -15.5324   27.2521 O   0  0  0  0  0  0  0  0  0  0  0  0
    9.7506  -14.8375   26.0606 C   0  0  0  0  0  0  0  0  0  0  0  0
    9.4272  -15.8295   24.9402 C   0  0  2  0  0  0  0  0  0  0  0  0
    9.2419  -15.1414   23.6852 N   0  0  0  0  0  0  0  0  0  0  0  0
    8.2653  -16.6109   25.3540 C   0  0  0  0  0  0  0  0  0  0  0  0
    8.4169  -17.6570   26.2401 O   0  0  0  0  0  0  0  0  0  0  0  0
    7.1303  -16.3425   24.9132 O   0  0  0  0  0  0  0  0  0  0  0  0
  2  1  1  0
  3  2  2  0
  4  2  1  0
  4  5  1  0
  5  7  1  0
  5  6  1  6
  7 13  1  0
  8  7  2  0
 10  9  1  6
 10 12  1  0
 11 10  1  0
 12 14  1  0
 12 13  1  6
 14 15  2  0
 14 19  1  0
 16 17  1  0
 18 17  1  1
 18 20  1  0
 19 18  1  0
 20 21  1  0
 22 20  2  0
M  END
$$$$
