NTS.pdb
     RDKit          3D

 22 21  0  0  1  0  0  0  0  0999 V2000
    9.2965  -18.5299   14.3922 N   0  0  0  0  0  0  0  0  0  0  0  0
    9.1690  -17.7505   15.5923 C   0  0  0  0  0  0  0  0  0  0  0  0
   10.0495  -17.8216   16.4684 O   0  0  0  0  0  0  0  0  0  0  0  0
    7.9587  -16.8996   15.6877 C   0  0  0  0  0  0  0  0  0  0  0  0
    8.3920  -15.4506   15.5377 C   0  0  2  0  0  0  0  0  0  0  0  0
    9.1003  -15.2553   14.2961 N   0  0  0  0  0  0  0  0  0  0  0  0
    9.2706  -15.0545   16.6925 C   0  0  0  0  0  0  0  0  0  0  0  0
   10.5062  -14.9445   16.5499 O   0  0  0  0  0  0  0  0  0  0  0  0
    7.7136  -12.4735   19.1750 C   0  0  0  0  0  0  0  0  0  0  0  0
    8.4153  -13.5530   19.9697 C   0  0  1  0  0  0  0  0  0  0  0  0
    7.4833  -14.4396   20.4522 O   0  0  0  0  0  0  0  0  0  0  0  0
    9.4081  -14.2872   19.0902 C   0  0  2  0  0  0  0  0  0  0  0  0
    8.7018  -14.8026   17.9537 N   0  0  0  0  0  0  0  0  0  0  0  0
   10.1768  -15.2936   19.8191 C   0  0  0  0  0  0  0  0  0  0  0  0
    9.8964  -16.5066   19.6566 O   0  0  0  0  0  0  0  0  0  0  0  0
   13.7381  -14.5038   21.7788 O   0  0  0  0  0  0  0  0  0  0  0  0
   13.4653  -15.7789   21.2922 C   0  0  0  0  0  0  0  0  0  0  0  0
   11.9568  -16.0330   21.3533 C   0  0  2  0  0  0  0  0  0  0  0  0
   11.2314  -14.9657   20.7074 N   0  0  0  0  0  0  0  0  0  0  0  0
   11.5900  -16.2234   22.7537 C   0  0  0  0  0  0  0  0  0  0  0  0
   12.1795  -17.2289   23.4913 O   0  0  0  0  0  0  0  0  0  0  0  0
   10.7449  -15.4833   23.2946 O   0  0  0  0  0  0  0  0  0  0  0  0
  2  1  1  0
  3  2  2  0
  4  2  1  0
  4  5  1  0
  5  7  1  0
  5  6  1  6
  7 13  1  0
  8  7  2  0
 10  9  1  6
 10 12  1  0
 11 10  1  0
 12 14  1  0
 12 13  1  6
 14 15  2  0
 14 19  1  0
 16 17  1  0
 18 17  1  1
 18 20  1  0
 19 18  1  0
 20 21  1  0
 22 20  2  0
M  END
$$$$
