NTS.pdb
     RDKit          3D

 22 21  0  0  1  0  0  0  0  0999 V2000
    5.6823  -17.2286   14.5309 N   0  0  0  0  0  0  0  0  0  0  0  0
    6.9929  -17.8122   14.4550 C   0  0  0  0  0  0  0  0  0  0  0  0
    7.2060  -18.7441   13.6586 O   0  0  0  0  0  0  0  0  0  0  0  0
    8.0136  -17.2350   15.3621 C   0  0  0  0  0  0  0  0  0  0  0  0
    8.1802  -15.7670   15.0060 C   0  0  2  0  0  0  0  0  0  0  0  0
    8.6236  -15.6197   13.6410 N   0  0  0  0  0  0  0  0  0  0  0  0
    9.1714  -15.1217   15.9353 C   0  0  0  0  0  0  0  0  0  0  0  0
   10.2726  -14.7111   15.5135 O   0  0  0  0  0  0  0  0  0  0  0  0
    7.8768  -12.6940   18.6819 C   0  0  0  0  0  0  0  0  0  0  0  0
    8.8039  -13.7040   19.3217 C   0  0  1  0  0  0  0  0  0  0  0  0
    8.0572  -14.6812   19.9340 O   0  0  0  0  0  0  0  0  0  0  0  0
    9.6984  -14.3312   18.2707 C   0  0  2  0  0  0  0  0  0  0  0  0
    8.8626  -14.9746   17.2993 N   0  0  0  0  0  0  0  0  0  0  0  0
   10.7232  -15.2015   18.8430 C   0  0  0  0  0  0  0  0  0  0  0  0
   10.4844  -16.4291   18.9534 O   0  0  0  0  0  0  0  0  0  0  0  0
   14.5137  -13.8806   19.6699 O   0  0  0  0  0  0  0  0  0  0  0  0
   14.3678  -15.2492   19.4630 C   0  0  0  0  0  0  0  0  0  0  0  0
   12.9379  -15.6660   19.8169 C   0  0  2  0  0  0  0  0  0  0  0  0
   11.9833  -14.7246   19.2830 N   0  0  0  0  0  0  0  0  0  0  0  0
   12.8600  -15.8164   21.2672 C   0  0  0  0  0  0  0  0  0  0  0  0
   13.7071  -16.6896   21.9172 O   0  0  0  0  0  0  0  0  0  0  0  0
   12.0318  -15.1608   21.9296 O   0  0  0  0  0  0  0  0  0  0  0  0
  2  1  1  0
  3  2  2  0
  4  2  1  0
  4  5  1  0
  5  7  1  0
  5  6  1  6
  7 13  1  0
  8  7  2  0
 10  9  1  6
 10 12  1  0
 11 10  1  0
 12 14  1  0
 12 13  1  6
 14 15  2  0
 14 19  1  0
 16 17  1  0
 18 17  1  1
 18 20  1  0
 19 18  1  0
 20 21  1  0
 22 20  2  0
M  END
$$$$
