VKY.pdb
     RDKit          3D

 29 29  0  0  1  0  0  0  0  0999 V2000
   29.9975  -29.7886  -19.5862 C   0  0  0  0  0  0  0  0  0  0  0  0
   29.9092  -28.5077  -18.8130 C   0  0  1  0  0  0  0  0  0  0  0  0
   29.3664  -27.3643  -19.6393 C   0  0  0  0  0  0  0  0  0  0  0  0
   29.0447  -28.6575  -17.5735 C   0  0  2  0  0  0  0  0  0  0  0  0
   29.2736  -27.4819  -16.7634 N   0  0  0  0  0  0  0  0  0  0  0  0
   29.5406  -29.8410  -16.8419 C   0  0  0  0  0  0  0  0  0  0  0  0
   30.6189  -29.7476  -16.1704 O   0  0  0  0  0  0  0  0  0  0  0  0
   28.8100  -31.0456  -16.9035 N   0  0  0  0  0  0  0  0  0  0  0  0
   29.2804  -32.2173  -16.0969 C   0  0  1  0  0  0  0  0  0  0  0  0
   28.0602  -32.6397  -15.3670 C   0  0  0  0  0  0  0  0  0  0  0  0
   28.0596  -33.8597  -14.5369 C   0  0  0  0  0  0  0  0  0  0  0  0
   26.7566  -34.0804  -13.8356 C   0  0  0  0  0  0  0  0  0  0  0  0
   26.7410  -35.4040  -13.0817 C   0  0  0  0  0  0  0  0  0  0  0  0
   25.3873  -35.6181  -12.5673 N   0  0  0  0  0  0  0  0  0  0  0  0
   29.9370  -33.1254  -17.0079 C   0  0  0  0  0  0  0  0  0  0  0  0
   29.7423  -33.0135  -18.2734 O   0  0  0  0  0  0  0  0  0  0  0  0
   35.1570  -38.1546  -21.6509 O   0  0  0  0  0  0  0  0  0  0  0  0
   34.5515  -37.2539  -20.7823 C   0  0  0  0  0  0  0  0  0  0  0  0
   34.4225  -37.5612  -19.4510 C   0  0  0  0  0  0  0  0  0  0  0  0
   33.8224  -36.6928  -18.5348 C   0  0  0  0  0  0  0  0  0  0  0  0
   33.3388  -35.4835  -18.9666 C   0  0  0  0  0  0  0  0  0  0  0  0
   32.6906  -34.5154  -18.0696 C   0  0  0  0  0  0  0  0  0  0  0  0
   31.3586  -35.0660  -17.5698 C   0  0  2  0  0  0  0  0  0  0  0  0
   30.8201  -34.1519  -16.5843 N   0  0  0  0  0  0  0  0  0  0  0  0
   31.4825  -36.3980  -16.9553 C   0  0  0  0  0  0  0  0  0  0  0  0
   31.6522  -37.5150  -17.7244 O   0  0  0  0  0  0  0  0  0  0  0  0
   33.4727  -35.1747  -20.3245 C   0  0  0  0  0  0  0  0  0  0  0  0
   34.0683  -36.0467  -21.2102 C   0  0  0  0  0  0  0  0  0  0  0  0
   31.4298  -36.5016  -15.7083 O   0  0  0  0  0  0  0  0  0  0  0  0
  2  1  1  6
  2  3  1  0
  4  2  1  0
  4  5  1  1
  6  7  2  0
  6  4  1  0
  8  6  1  0
  9  8  1  0
  9 10  1  6
 11 12  1  0
 11 10  1  0
 13 12  1  0
 14 13  1  0
 15  9  1  0
 16 15  2  0
 17 18  1  0
 18 28  2  0
 19 20  2  0
 19 18  1  0
 20 21  1  0
 21 22  1  0
 21 27  2  0
 23 22  1  1
 23 24  1  0
 24 15  1  0
 25 26  1  0
 25 23  1  0
 28 27  1  0
 29 25  2  0
M  END
$$$$
