VKY.pdb
     RDKit          3D

 29 29  0  0  1  0  0  0  0  0999 V2000
   20.2719  -16.6738  -16.4902 C   0  0  0  0  0  0  0  0  0  0  0  0
   20.8451  -18.0194  -16.1631 C   0  0  1  0  0  0  0  0  0  0  0  0
   19.8796  -19.1482  -16.4437 C   0  0  0  0  0  0  0  0  0  0  0  0
   22.1296  -18.2846  -16.9285 C   0  0  2  0  0  0  0  0  0  0  0  0
   21.7427  -18.6760  -18.2655 N   0  0  0  0  0  0  0  0  0  0  0  0
   22.7938  -19.4298  -16.2731 C   0  0  0  0  0  0  0  0  0  0  0  0
   22.0992  -20.4475  -15.9504 O   0  0  0  0  0  0  0  0  0  0  0  0
   24.1798  -19.3701  -16.0200 N   0  0  0  0  0  0  0  0  0  0  0  0
   24.8375  -20.5245  -15.3275 C   0  0  1  0  0  0  0  0  0  0  0  0
   25.7937  -21.0302  -16.3424 C   0  0  0  0  0  0  0  0  0  0  0  0
   25.3255  -21.8311  -17.4899 C   0  0  0  0  0  0  0  0  0  0  0  0
   26.4346  -22.2126  -18.4188 C   0  0  0  0  0  0  0  0  0  0  0  0
   25.9019  -22.8098  -19.7151 C   0  0  0  0  0  0  0  0  0  0  0  0
   27.0452  -23.1290  -20.5718 N   0  0  0  0  0  0  0  0  0  0  0  0
   25.3140  -20.0411  -14.0528 C   0  0  0  0  0  0  0  0  0  0  0  0
   25.5091  -18.7827  -13.8786 O   0  0  0  0  0  0  0  0  0  0  0  0
   20.2696  -21.6424   -9.6917 O   0  0  0  0  0  0  0  0  0  0  0  0
   21.4792  -21.0587  -10.0504 C   0  0  0  0  0  0  0  0  0  0  0  0
   21.6720  -20.6042  -11.3309 C   0  0  0  0  0  0  0  0  0  0  0  0
   22.8675  -20.0098  -11.7446 C   0  0  0  0  0  0  0  0  0  0  0  0
   23.8972  -19.8678  -10.8488 C   0  0  0  0  0  0  0  0  0  0  0  0
   25.1872  -19.2582  -11.2038 C   0  0  0  0  0  0  0  0  0  0  0  0
   26.1434  -20.3179  -11.7424 C   0  0  2  0  0  0  0  0  0  0  0  0
   25.5728  -20.8885  -12.9446 N   0  0  0  0  0  0  0  0  0  0  0  0
   26.3957  -21.4046  -10.7818 C   0  0  0  0  0  0  0  0  0  0  0  0
   26.9760  -21.1526   -9.5703 O   0  0  0  0  0  0  0  0  0  0  0  0
   23.6959  -20.3325   -9.5447 C   0  0  0  0  0  0  0  0  0  0  0  0
   22.5081  -20.9156   -9.1588 C   0  0  0  0  0  0  0  0  0  0  0  0
   26.0718  -22.5753  -11.0866 O   0  0  0  0  0  0  0  0  0  0  0  0
  2  1  1  6
  2  3  1  0
  4  2  1  0
  4  5  1  6
  6  7  2  0
  6  4  1  0
  8  6  1  0
  9  8  1  0
  9 10  1  6
 11 12  1  0
 11 10  1  0
 13 12  1  0
 14 13  1  0
 15  9  1  0
 16 15  2  0
 17 18  1  0
 18 28  2  0
 19 20  2  0
 19 18  1  0
 20 21  1  0
 21 22  1  0
 21 27  2  0
 23 22  1  1
 23 24  1  0
 24 15  1  0
 25 26  1  0
 25 23  1  0
 28 27  1  0
 29 25  2  0
M  END
$$$$
