VKY.pdb
     RDKit          3D

 29 29  0  0  1  0  0  0  0  0999 V2000
   22.5173  -25.4801  -21.5804 C   0  0  0  0  0  0  0  0  0  0  0  0
   22.6129  -26.8458  -20.9704 C   0  0  1  0  0  0  0  0  0  0  0  0
   23.6083  -27.7336  -21.6817 C   0  0  0  0  0  0  0  0  0  0  0  0
   22.9916  -26.7803  -19.5013 C   0  0  2  0  0  0  0  0  0  0  0  0
   24.2958  -26.1595  -19.4363 N   0  0  0  0  0  0  0  0  0  0  0  0
   23.1054  -28.1731  -19.0225 C   0  0  0  0  0  0  0  0  0  0  0  0
   22.0931  -28.9417  -19.1056 O   0  0  0  0  0  0  0  0  0  0  0  0
   24.3304  -28.6193  -18.4850 N   0  0  0  0  0  0  0  0  0  0  0  0
   24.4116  -30.0083  -17.9292 C   0  0  1  0  0  0  0  0  0  0  0  0
   25.7792  -30.4447  -18.3026 C   0  0  0  0  0  0  0  0  0  0  0  0
   26.3131  -31.7395  -17.8382 C   0  0  0  0  0  0  0  0  0  0  0  0
   27.4818  -31.5853  -16.9169 C   0  0  0  0  0  0  0  0  0  0  0  0
   28.0905  -32.9328  -16.5504 C   0  0  0  0  0  0  0  0  0  0  0  0
   29.2648  -32.6879  -15.7114 N   0  0  0  0  0  0  0  0  0  0  0  0
   24.0227  -29.9347  -16.5404 C   0  0  0  0  0  0  0  0  0  0  0  0
   24.6785  -29.1810  -15.7318 O   0  0  0  0  0  0  0  0  0  0  0  0
   20.4573  -29.8819   -8.6741 O   0  0  0  0  0  0  0  0  0  0  0  0
   20.7496  -29.8193  -10.0317 C   0  0  0  0  0  0  0  0  0  0  0  0
   20.0752  -30.6199  -10.9192 C   0  0  0  0  0  0  0  0  0  0  0  0
   20.3291  -30.5973  -12.2935 C   0  0  0  0  0  0  0  0  0  0  0  0
   21.2858  -29.7482  -12.7902 C   0  0  0  0  0  0  0  0  0  0  0  0
   21.6168  -29.6660  -14.2205 C   0  0  0  0  0  0  0  0  0  0  0  0
   22.7257  -30.6552  -14.5652 C   0  0  2  0  0  0  0  0  0  0  0  0
   22.9224  -30.6490  -15.9997 N   0  0  0  0  0  0  0  0  0  0  0  0
   22.4200  -32.0311  -14.1399 C   0  0  0  0  0  0  0  0  0  0  0  0
   21.6093  -32.8361  -14.8901 O   0  0  0  0  0  0  0  0  0  0  0  0
   21.9705  -28.9340  -11.8816 C   0  0  0  0  0  0  0  0  0  0  0  0
   21.7033  -28.9732  -10.5301 C   0  0  0  0  0  0  0  0  0  0  0  0
   22.9131  -32.4632  -13.0729 O   0  0  0  0  0  0  0  0  0  0  0  0
  2  1  1  6
  2  3  1  0
  4  2  1  0
  4  5  1  6
  6  7  2  0
  6  4  1  0
  8  6  1  0
  9  8  1  0
  9 10  1  1
 11 12  1  0
 11 10  1  0
 13 12  1  0
 14 13  1  0
 15  9  1  0
 16 15  2  0
 17 18  1  0
 18 28  2  0
 19 20  2  0
 19 18  1  0
 20 21  1  0
 21 22  1  0
 21 27  2  0
 23 22  1  6
 23 24  1  0
 24 15  1  0
 25 26  1  0
 25 23  1  0
 28 27  1  0
 29 25  2  0
M  END
$$$$
