VKY.pdb
     RDKit          3D

 29 29  0  0  1  0  0  0  0  0999 V2000
   29.4858  -33.2521  -15.1649 C   0  0  0  0  0  0  0  0  0  0  0  0
   28.2279  -32.9762  -15.9316 C   0  0  1  0  0  0  0  0  0  0  0  0
   26.9945  -33.0061  -15.0583 C   0  0  0  0  0  0  0  0  0  0  0  0
   28.2835  -31.6334  -16.6387 C   0  0  2  0  0  0  0  0  0  0  0  0
   27.0666  -31.5207  -17.4115 N   0  0  0  0  0  0  0  0  0  0  0  0
   29.4315  -31.6817  -17.5669 C   0  0  0  0  0  0  0  0  0  0  0  0
   29.3251  -32.3426  -18.6505 O   0  0  0  0  0  0  0  0  0  0  0  0
   30.6175  -30.9958  -17.2326 N   0  0  0  0  0  0  0  0  0  0  0  0
   31.7539  -31.0007  -18.2090 C   0  0  1  0  0  0  0  0  0  0  0  0
   32.0393  -29.5586  -18.4061 C   0  0  0  0  0  0  0  0  0  0  0  0
   33.0238  -29.1128  -19.4109 C   0  0  0  0  0  0  0  0  0  0  0  0
   34.0799  -28.2260  -18.8308 C   0  0  0  0  0  0  0  0  0  0  0  0
   35.0818  -27.7791  -19.8878 C   0  0  0  0  0  0  0  0  0  0  0  0
   35.9381  -26.7499  -19.2959 N   0  0  0  0  0  0  0  0  0  0  0  0
   32.7689  -31.8794  -17.6767 C   0  0  0  0  0  0  0  0  0  0  0  0
   33.2589  -31.6573  -16.5095 O   0  0  0  0  0  0  0  0  0  0  0  0
   32.9357  -37.9861  -22.3823 O   0  0  0  0  0  0  0  0  0  0  0  0
   33.1208  -37.3028  -21.1859 C   0  0  0  0  0  0  0  0  0  0  0  0
   34.3681  -37.2341  -20.6176 C   0  0  0  0  0  0  0  0  0  0  0  0
   34.6100  -36.5608  -19.4168 C   0  0  0  0  0  0  0  0  0  0  0  0
   33.5719  -35.9399  -18.7691 C   0  0  0  0  0  0  0  0  0  0  0  0
   33.7402  -35.2148  -17.5011 C   0  0  0  0  0  0  0  0  0  0  0  0
   34.2974  -33.8184  -17.7595 C   0  0  2  0  0  0  0  0  0  0  0  0
   33.2623  -33.0130  -18.3730 N   0  0  0  0  0  0  0  0  0  0  0  0
   35.4734  -33.8245  -18.6451 C   0  0  0  0  0  0  0  0  0  0  0  0
   36.5979  -34.5288  -18.3173 O   0  0  0  0  0  0  0  0  0  0  0  0
   32.3024  -36.0126  -19.3523 C   0  0  0  0  0  0  0  0  0  0  0  0
   32.0871  -36.6824  -20.5375 C   0  0  0  0  0  0  0  0  0  0  0  0
   35.4358  -33.1713  -19.7130 O   0  0  0  0  0  0  0  0  0  0  0  0
  2  1  1  1
  2  3  1  0
  4  2  1  0
  4  5  1  6
  6  7  2  0
  6  4  1  0
  8  6  1  0
  9  8  1  0
  9 10  1  1
 11 12  1  0
 11 10  1  0
 13 12  1  0
 14 13  1  0
 15  9  1  0
 16 15  2  0
 17 18  1  0
 18 28  2  0
 19 20  2  0
 19 18  1  0
 20 21  1  0
 21 22  1  0
 21 27  2  0
 23 22  1  6
 23 24  1  0
 24 15  1  0
 25 26  1  0
 25 23  1  0
 28 27  1  0
 29 25  2  0
M  END
$$$$
