VKY.pdb
     RDKit          3D

 29 29  0  0  1  0  0  0  0  0999 V2000
   26.3031  -13.6495  -15.6270 C   0  0  0  0  0  0  0  0  0  0  0  0
   26.1889  -15.1437  -15.6484 C   0  0  1  0  0  0  0  0  0  0  0  0
   25.0057  -15.6493  -14.8552 C   0  0  0  0  0  0  0  0  0  0  0  0
   26.0815  -15.6793  -17.0653 C   0  0  2  0  0  0  0  0  0  0  0  0
   24.8353  -15.1816  -17.6037 N   0  0  0  0  0  0  0  0  0  0  0  0
   26.0004  -17.1508  -16.9654 C   0  0  0  0  0  0  0  0  0  0  0  0
   24.8650  -17.6980  -16.7820 O   0  0  0  0  0  0  0  0  0  0  0  0
   27.1804  -17.9152  -17.0753 N   0  0  0  0  0  0  0  0  0  0  0  0
   27.0879  -19.4063  -16.9613 C   0  0  1  0  0  0  0  0  0  0  0  0
   28.3201  -19.8765  -17.6400 C   0  0  0  0  0  0  0  0  0  0  0  0
   28.6440  -21.3145  -17.7088 C   0  0  0  0  0  0  0  0  0  0  0  0
   29.2757  -21.7026  -19.0083 C   0  0  0  0  0  0  0  0  0  0  0  0
   29.4603  -23.2110  -19.1153 C   0  0  0  0  0  0  0  0  0  0  0  0
   29.8807  -23.5215  -20.4827 N   0  0  0  0  0  0  0  0  0  0  0  0
   26.8590  -19.7136  -15.5690 C   0  0  0  0  0  0  0  0  0  0  0  0
   27.4789  -19.0521  -14.6579 O   0  0  0  0  0  0  0  0  0  0  0  0
   24.3969  -21.4266   -7.5811 O   0  0  0  0  0  0  0  0  0  0  0  0
   24.7067  -21.0505   -8.8830 C   0  0  0  0  0  0  0  0  0  0  0  0
   25.9911  -20.6941   -9.2100 C   0  0  0  0  0  0  0  0  0  0  0  0
   26.3570  -20.3080  -10.5026 C   0  0  0  0  0  0  0  0  0  0  0  0
   25.4082  -20.2787  -11.4934 C   0  0  0  0  0  0  0  0  0  0  0  0
   25.7089  -19.8807  -12.8766 C   0  0  0  0  0  0  0  0  0  0  0  0
   25.9704  -21.1129  -13.7372 C   0  0  2  0  0  0  0  0  0  0  0  0
   25.9565  -20.7166  -15.1298 N   0  0  0  0  0  0  0  0  0  0  0  0
   24.9679  -22.1730  -13.5415 C   0  0  0  0  0  0  0  0  0  0  0  0
   25.1247  -23.1191  -12.5676 O   0  0  0  0  0  0  0  0  0  0  0  0
   24.1005  -20.6430  -11.1552 C   0  0  0  0  0  0  0  0  0  0  0  0
   23.7623  -21.0205   -9.8735 C   0  0  0  0  0  0  0  0  0  0  0  0
   23.9590  -22.2025  -14.2830 O   0  0  0  0  0  0  0  0  0  0  0  0
  2  1  1  6
  2  3  1  0
  4  2  1  0
  4  5  1  1
  6  7  2  0
  6  4  1  0
  8  6  1  0
  9  8  1  0
  9 10  1  1
 11 12  1  0
 11 10  1  0
 13 12  1  0
 14 13  1  0
 15  9  1  0
 16 15  2  0
 17 18  1  0
 18 28  2  0
 19 20  2  0
 19 18  1  0
 20 21  1  0
 21 22  1  0
 21 27  2  0
 23 22  1  1
 23 24  1  0
 24 15  1  0
 25 26  1  0
 25 23  1  0
 28 27  1  0
 29 25  2  0
M  END
$$$$
