VKY.pdb
     RDKit          3D

 29 29  0  0  1  0  0  0  0  0999 V2000
   27.0468  -10.0032  -15.4802 C   0  0  0  0  0  0  0  0  0  0  0  0
   27.1092  -11.3099  -16.2116 C   0  0  1  0  0  0  0  0  0  0  0  0
   28.3151  -12.1362  -15.8270 C   0  0  0  0  0  0  0  0  0  0  0  0
   25.8616  -12.1441  -15.9800 C   0  0  2  0  0  0  0  0  0  0  0  0
   26.0370  -13.3695  -16.7272 N   0  0  0  0  0  0  0  0  0  0  0  0
   24.7278  -11.3946  -16.5585 C   0  0  0  0  0  0  0  0  0  0  0  0
   24.6114  -11.3268  -17.8251 O   0  0  0  0  0  0  0  0  0  0  0  0
   23.8014  -10.7721  -15.6965 N   0  0  0  0  0  0  0  0  0  0  0  0
   22.6384  -10.0404  -16.2938 C   0  0  1  0  0  0  0  0  0  0  0  0
   21.4647  -10.7762  -15.7635 C   0  0  0  0  0  0  0  0  0  0  0  0
   20.0996  -10.2396  -15.9244 C   0  0  0  0  0  0  0  0  0  0  0  0
   19.0709  -11.0526  -15.2039 C   0  0  0  0  0  0  0  0  0  0  0  0
   17.6807  -10.4431  -15.3336 C   0  0  0  0  0  0  0  0  0  0  0  0
   16.7221  -11.3633  -14.7195 N   0  0  0  0  0  0  0  0  0  0  0  0
   22.8175   -8.6390  -15.9943 C   0  0  0  0  0  0  0  0  0  0  0  0
   23.2648   -8.2834  -14.8430 O   0  0  0  0  0  0  0  0  0  0  0  0
   23.4862    0.0913  -16.3969 O   0  0  0  0  0  0  0  0  0  0  0  0
   23.3718   -1.2521  -16.7357 C   0  0  0  0  0  0  0  0  0  0  0  0
   22.1373   -1.7968  -16.9861 C   0  0  0  0  0  0  0  0  0  0  0  0
   21.9653   -3.1404  -17.3304 C   0  0  0  0  0  0  0  0  0  0  0  0
   23.0621   -3.9594  -17.4258 C   0  0  0  0  0  0  0  0  0  0  0  0
   22.9679   -5.3839  -17.7780 C   0  0  0  0  0  0  0  0  0  0  0  0
   22.7591   -6.2268  -16.5237 C   0  0  2  0  0  0  0  0  0  0  0  0
   22.5384   -7.6015  -16.9210 N   0  0  0  0  0  0  0  0  0  0  0  0
   21.6105   -5.7816  -15.7177 C   0  0  0  0  0  0  0  0  0  0  0  0
   21.7884   -5.0042  -14.6078 O   0  0  0  0  0  0  0  0  0  0  0  0
   24.3184   -3.3996  -17.1698 C   0  0  0  0  0  0  0  0  0  0  0  0
   24.4642   -2.0714  -16.8318 C   0  0  0  0  0  0  0  0  0  0  0  0
   20.4557   -6.1251  -16.0599 O   0  0  0  0  0  0  0  0  0  0  0  0
  2  1  1  1
  2  3  1  0
  4  2  1  0
  4  5  1  6
  6  7  2  0
  6  4  1  0
  8  6  1  0
  9  8  1  0
  9 10  1  1
 11 12  1  0
 11 10  1  0
 13 12  1  0
 14 13  1  0
 15  9  1  0
 16 15  2  0
 17 18  1  0
 18 28  2  0
 19 20  2  0
 19 18  1  0
 20 21  1  0
 21 22  1  0
 21 27  2  0
 23 22  1  6
 23 24  1  0
 24 15  1  0
 25 26  1  0
 25 23  1  0
 28 27  1  0
 29 25  2  0
M  END
$$$$
