VKY.pdb
     RDKit          3D

 29 29  0  0  1  0  0  0  0  0999 V2000
   27.2495  -11.6084  -15.3238 C   0  0  0  0  0  0  0  0  0  0  0  0
   26.0893  -10.7228  -15.6641 C   0  0  1  0  0  0  0  0  0  0  0  0
   26.4400   -9.6721  -16.6927 C   0  0  0  0  0  0  0  0  0  0  0  0
   24.9041  -11.5212  -16.1778 C   0  0  2  0  0  0  0  0  0  0  0  0
   25.3335  -12.1604  -17.4016 N   0  0  0  0  0  0  0  0  0  0  0  0
   23.8371  -10.5514  -16.4989 C   0  0  0  0  0  0  0  0  0  0  0  0
   23.8351   -9.9877  -17.6410 O   0  0  0  0  0  0  0  0  0  0  0  0
   22.8464  -10.2724  -15.5349 N   0  0  0  0  0  0  0  0  0  0  0  0
   21.7783   -9.2750  -15.8652 C   0  0  1  0  0  0  0  0  0  0  0  0
   20.5416  -10.0937  -15.8819 C   0  0  0  0  0  0  0  0  0  0  0  0
   20.2542  -11.0070  -17.0047 C   0  0  0  0  0  0  0  0  0  0  0  0
   18.9918  -11.7854  -16.8073 C   0  0  0  0  0  0  0  0  0  0  0  0
   18.6595  -12.6364  -18.0264 C   0  0  0  0  0  0  0  0  0  0  0  0
   18.3615  -13.9936  -17.5657 N   0  0  0  0  0  0  0  0  0  0  0  0
   21.9159   -8.1796  -14.9343 C   0  0  0  0  0  0  0  0  0  0  0  0
   22.1766   -8.4194  -13.6988 O   0  0  0  0  0  0  0  0  0  0  0  0
   22.5793   -2.1276  -19.4187 O   0  0  0  0  0  0  0  0  0  0  0  0
   22.6930   -2.8188  -18.2180 C   0  0  0  0  0  0  0  0  0  0  0  0
   22.2654   -2.2425  -17.0481 C   0  0  0  0  0  0  0  0  0  0  0  0
   22.3562   -2.8924  -15.8140 C   0  0  0  0  0  0  0  0  0  0  0  0
   22.8907   -4.1546  -15.7525 C   0  0  0  0  0  0  0  0  0  0  0  0
   23.0260   -4.9051  -14.4953 C   0  0  0  0  0  0  0  0  0  0  0  0
   21.8096   -5.8000  -14.2792 C   0  0  2  0  0  0  0  0  0  0  0  0
   21.7938   -6.8168  -15.3099 N   0  0  0  0  0  0  0  0  0  0  0  0
   20.5373   -5.0612  -14.3299 C   0  0  0  0  0  0  0  0  0  0  0  0
   19.6042   -5.3313  -15.2914 O   0  0  0  0  0  0  0  0  0  0  0  0
   23.3250   -4.7380  -16.9476 C   0  0  0  0  0  0  0  0  0  0  0  0
   23.2256   -4.0782  -18.1536 C   0  0  0  0  0  0  0  0  0  0  0  0
   20.3138   -4.1725  -13.4762 O   0  0  0  0  0  0  0  0  0  0  0  0
  2  1  1  6
  2  3  1  0
  4  2  1  0
  4  5  1  6
  6  7  2  0
  6  4  1  0
  8  6  1  0
  9  8  1  0
  9 10  1  1
 11 12  1  0
 11 10  1  0
 13 12  1  0
 14 13  1  0
 15  9  1  0
 16 15  2  0
 17 18  1  0
 18 28  2  0
 19 20  2  0
 19 18  1  0
 20 21  1  0
 21 22  1  0
 21 27  2  0
 23 22  1  6
 23 24  1  0
 24 15  1  0
 25 26  1  0
 25 23  1  0
 28 27  1  0
 29 25  2  0
M  END
$$$$
