VKY.pdb
     RDKit          3D

 29 29  0  0  1  0  0  0  0  0999 V2000
   28.1927  -16.8024  -18.7273 C   0  0  0  0  0  0  0  0  0  0  0  0
   26.8046  -16.6746  -18.1767 C   0  0  1  0  0  0  0  0  0  0  0  0
   25.7554  -16.5682  -19.2596 C   0  0  0  0  0  0  0  0  0  0  0  0
   26.4476  -17.8433  -17.2750 C   0  0  2  0  0  0  0  0  0  0  0  0
   26.3508  -19.0088  -18.1251 N   0  0  0  0  0  0  0  0  0  0  0  0
   25.1138  -17.5587  -16.7075 C   0  0  0  0  0  0  0  0  0  0  0  0
   24.9650  -16.5432  -15.9532 O   0  0  0  0  0  0  0  0  0  0  0  0
   24.0372  -18.4165  -17.0135 N   0  0  0  0  0  0  0  0  0  0  0  0
   22.7110  -18.1717  -16.3607 C   0  0  1  0  0  0  0  0  0  0  0  0
   21.7498  -18.3060  -17.4824 C   0  0  0  0  0  0  0  0  0  0  0  0
   21.1071  -17.1168  -18.0742 C   0  0  0  0  0  0  0  0  0  0  0  0
   20.1146  -17.4661  -19.1379 C   0  0  0  0  0  0  0  0  0  0  0  0
   19.4668  -16.2222  -19.7327 C   0  0  0  0  0  0  0  0  0  0  0  0
   18.6515  -16.6368  -20.8757 N   0  0  0  0  0  0  0  0  0  0  0  0
   22.6288  -19.0530  -15.2196 C   0  0  0  0  0  0  0  0  0  0  0  0
   23.0716  -20.2563  -15.3079 O   0  0  0  0  0  0  0  0  0  0  0  0
   21.8747  -22.2654   -7.0956 O   0  0  0  0  0  0  0  0  0  0  0  0
   21.9911  -21.4230   -8.1952 C   0  0  0  0  0  0  0  0  0  0  0  0
   23.2250  -21.1641   -8.7373 C   0  0  0  0  0  0  0  0  0  0  0  0
   23.3989  -20.3254   -9.8418 C   0  0  0  0  0  0  0  0  0  0  0  0
   22.3047  -19.7305  -10.4177 C   0  0  0  0  0  0  0  0  0  0  0  0
   22.4011  -18.8325  -11.5780 C   0  0  0  0  0  0  0  0  0  0  0  0
   22.1148  -19.5986  -12.8658 C   0  0  2  0  0  0  0  0  0  0  0  0
   22.0898  -18.6594  -13.9675 N   0  0  0  0  0  0  0  0  0  0  0  0
   20.8301  -20.3168  -12.8328 C   0  0  0  0  0  0  0  0  0  0  0  0
   20.7572  -21.6091  -12.3938 O   0  0  0  0  0  0  0  0  0  0  0  0
   21.0490  -19.9975   -9.8617 C   0  0  0  0  0  0  0  0  0  0  0  0
   20.9013  -20.8283   -8.7719 C   0  0  0  0  0  0  0  0  0  0  0  0
   19.7927  -19.7286  -13.2151 O   0  0  0  0  0  0  0  0  0  0  0  0
  2  1  1  6
  2  3  1  0
  4  2  1  0
  4  5  1  6
  6  7  2  0
  6  4  1  0
  8  6  1  0
  9  8  1  0
  9 10  1  6
 11 12  1  0
 11 10  1  0
 13 12  1  0
 14 13  1  0
 15  9  1  0
 16 15  2  0
 17 18  1  0
 18 28  2  0
 19 20  2  0
 19 18  1  0
 20 21  1  0
 21 22  1  0
 21 27  2  0
 23 22  1  1
 23 24  1  0
 24 15  1  0
 25 26  1  0
 25 23  1  0
 28 27  1  0
 29 25  2  0
M  END
$$$$
