VKY.pdb
     RDKit          3D

 29 29  0  0  1  0  0  0  0  0999 V2000
   24.1653  -14.5141  -19.3437 C   0  0  0  0  0  0  0  0  0  0  0  0
   24.9459  -14.7188  -20.6067 C   0  0  1  0  0  0  0  0  0  0  0  0
   25.4457  -13.4214  -21.1998 C   0  0  0  0  0  0  0  0  0  0  0  0
   26.1353  -15.6376  -20.3900 C   0  0  2  0  0  0  0  0  0  0  0  0
   26.7000  -15.9003  -21.6950 N   0  0  0  0  0  0  0  0  0  0  0  0
   25.6086  -16.9026  -19.8384 C   0  0  0  0  0  0  0  0  0  0  0  0
   24.8614  -17.6329  -20.5668 O   0  0  0  0  0  0  0  0  0  0  0  0
   25.9446  -17.2723  -18.5196 N   0  0  0  0  0  0  0  0  0  0  0  0
   25.4843  -18.6012  -18.0029 C   0  0  1  0  0  0  0  0  0  0  0  0
   26.6293  -19.0614  -17.1801 C   0  0  0  0  0  0  0  0  0  0  0  0
   26.6050  -20.3815  -16.5211 C   0  0  0  0  0  0  0  0  0  0  0  0
   26.9563  -21.4984  -17.4525 C   0  0  0  0  0  0  0  0  0  0  0  0
   26.8624  -22.8545  -16.7648 C   0  0  0  0  0  0  0  0  0  0  0  0
   27.2343  -23.8838  -17.7371 N   0  0  0  0  0  0  0  0  0  0  0  0
   24.1876  -18.3981  -17.4005 C   0  0  0  0  0  0  0  0  0  0  0  0
   23.9936  -17.3919  -16.6247 O   0  0  0  0  0  0  0  0  0  0  0  0
   19.5683  -21.7540  -22.2283 O   0  0  0  0  0  0  0  0  0  0  0  0
   19.8959  -20.8930  -21.1872 C   0  0  0  0  0  0  0  0  0  0  0  0
   20.6161  -19.7519  -21.4375 C   0  0  0  0  0  0  0  0  0  0  0  0
   20.9722  -18.8524  -20.4287 C   0  0  0  0  0  0  0  0  0  0  0  0
   20.5953  -19.1051  -19.1338 C   0  0  0  0  0  0  0  0  0  0  0  0
   20.9325  -18.2133  -18.0145 C   0  0  0  0  0  0  0  0  0  0  0  0
   21.8111  -18.9423  -17.0026 C   0  0  2  0  0  0  0  0  0  0  0  0
   23.0788  -19.2533  -17.6292 N   0  0  0  0  0  0  0  0  0  0  0  0
   21.2087  -20.1946  -16.5166 C   0  0  0  0  0  0  0  0  0  0  0  0
   20.0101  -20.1908  -15.8599 O   0  0  0  0  0  0  0  0  0  0  0  0
   19.8612  -20.2695  -18.8836 C   0  0  0  0  0  0  0  0  0  0  0  0
   19.5211  -21.1425  -19.8945 C   0  0  0  0  0  0  0  0  0  0  0  0
   21.8100  -21.2759  -16.7107 O   0  0  0  0  0  0  0  0  0  0  0  0
  2  1  1  1
  2  3  1  0
  4  2  1  0
  4  5  1  6
  6  7  2  0
  6  4  1  0
  8  6  1  0
  9  8  1  0
  9 10  1  1
 11 12  1  0
 11 10  1  0
 13 12  1  0
 14 13  1  0
 15  9  1  0
 16 15  2  0
 17 18  1  0
 18 28  2  0
 19 20  2  0
 19 18  1  0
 20 21  1  0
 21 22  1  0
 21 27  2  0
 23 22  1  6
 23 24  1  0
 24 15  1  0
 25 26  1  0
 25 23  1  0
 28 27  1  0
 29 25  2  0
M  END
$$$$
