VKY.pdb
     RDKit          3D

 29 29  0  0  1  0  0  0  0  0999 V2000
   26.9485  -11.4183  -15.3024 C   0  0  0  0  0  0  0  0  0  0  0  0
   27.3614  -11.8231  -16.6851 C   0  0  1  0  0  0  0  0  0  0  0  0
   28.5391  -12.7707  -16.6878 C   0  0  0  0  0  0  0  0  0  0  0  0
   26.2193  -12.4743  -17.4451 C   0  0  2  0  0  0  0  0  0  0  0  0
   26.7341  -12.8211  -18.7510 N   0  0  0  0  0  0  0  0  0  0  0  0
   25.1687  -11.4486  -17.6071 C   0  0  0  0  0  0  0  0  0  0  0  0
   25.4254  -10.3996  -18.2824 O   0  0  0  0  0  0  0  0  0  0  0  0
   23.9072  -11.6540  -17.0112 N   0  0  0  0  0  0  0  0  0  0  0  0
   22.8270  -10.6413  -17.2405 C   0  0  1  0  0  0  0  0  0  0  0  0
   21.6825  -11.4635  -17.7034 C   0  0  0  0  0  0  0  0  0  0  0  0
   20.3522  -10.8596  -17.9106 C   0  0  0  0  0  0  0  0  0  0  0  0
   19.3577  -11.8298  -18.4656 C   0  0  0  0  0  0  0  0  0  0  0  0
   18.0111  -11.1670  -18.7269 C   0  0  0  0  0  0  0  0  0  0  0  0
   17.2023  -12.0835  -19.5325 N   0  0  0  0  0  0  0  0  0  0  0  0
   22.7192   -9.8532  -16.0352 C   0  0  0  0  0  0  0  0  0  0  0  0
   22.8170  -10.4234  -14.8875 O   0  0  0  0  0  0  0  0  0  0  0  0
   22.4638   -1.5191  -15.9664 O   0  0  0  0  0  0  0  0  0  0  0  0
   22.7418   -2.8335  -15.6096 C   0  0  0  0  0  0  0  0  0  0  0  0
   23.5187   -3.6189  -16.4239 C   0  0  0  0  0  0  0  0  0  0  0  0
   23.8289   -4.9459  -16.1133 C   0  0  0  0  0  0  0  0  0  0  0  0
   23.3462   -5.4995  -14.9543 C   0  0  0  0  0  0  0  0  0  0  0  0
   23.6220   -6.8878  -14.5561 C   0  0  0  0  0  0  0  0  0  0  0  0
   22.3865   -7.7561  -14.7726 C   0  0  2  0  0  0  0  0  0  0  0  0
   22.5224   -8.4480  -16.0372 N   0  0  0  0  0  0  0  0  0  0  0  0
   21.1360   -6.9795  -14.7951 C   0  0  0  0  0  0  0  0  0  0  0  0
   20.4647   -6.7599  -15.9652 O   0  0  0  0  0  0  0  0  0  0  0  0
   22.5549   -4.6949  -14.1274 C   0  0  0  0  0  0  0  0  0  0  0  0
   22.2618   -3.3883  -14.4538 C   0  0  0  0  0  0  0  0  0  0  0  0
   20.6871   -6.5154  -13.7220 O   0  0  0  0  0  0  0  0  0  0  0  0
  2  1  1  1
  2  3  1  0
  4  2  1  0
  4  5  1  6
  6  7  2  0
  6  4  1  0
  8  6  1  0
  9  8  1  0
  9 10  1  1
 11 12  1  0
 11 10  1  0
 13 12  1  0
 14 13  1  0
 15  9  1  0
 16 15  2  0
 17 18  1  0
 18 28  2  0
 19 20  2  0
 19 18  1  0
 20 21  1  0
 21 22  1  0
 21 27  2  0
 23 22  1  6
 23 24  1  0
 24 15  1  0
 25 26  1  0
 25 23  1  0
 28 27  1  0
 29 25  2  0
M  END
$$$$
