VKY.pdb
     RDKit          3D

 29 29  0  0  1  0  0  0  0  0999 V2000
   24.5651  -21.0578  -17.9849 C   0  0  0  0  0  0  0  0  0  0  0  0
   25.5007  -19.9945  -18.4751 C   0  0  1  0  0  0  0  0  0  0  0  0
   26.3525  -20.4572  -19.6350 C   0  0  0  0  0  0  0  0  0  0  0  0
   24.7554  -18.7404  -18.8967 C   0  0  2  0  0  0  0  0  0  0  0  0
   25.7585  -17.7554  -19.2346 N   0  0  0  0  0  0  0  0  0  0  0  0
   24.0053  -18.2667  -17.7156 C   0  0  0  0  0  0  0  0  0  0  0  0
   24.6280  -17.6468  -16.7935 O   0  0  0  0  0  0  0  0  0  0  0  0
   22.6187  -18.5113  -17.6361 N   0  0  0  0  0  0  0  0  0  0  0  0
   21.8587  -17.9822  -16.4582 C   0  0  1  0  0  0  0  0  0  0  0  0
   20.9613  -16.9665  -17.0608 C   0  0  0  0  0  0  0  0  0  0  0  0
   19.9676  -16.2512  -16.2371 C   0  0  0  0  0  0  0  0  0  0  0  0
   19.0855  -15.3536  -17.0462 C   0  0  0  0  0  0  0  0  0  0  0  0
   18.1303  -14.5599  -16.1639 C   0  0  0  0  0  0  0  0  0  0  0  0
   17.4060  -13.6140  -17.0144 N   0  0  0  0  0  0  0  0  0  0  0  0
   21.3083  -19.1203  -15.7604 C   0  0  0  0  0  0  0  0  0  0  0  0
   20.8709  -20.1287  -16.4267 O   0  0  0  0  0  0  0  0  0  0  0  0
   18.4706  -24.6662   -9.5528 O   0  0  0  0  0  0  0  0  0  0  0  0
   19.1354  -23.6517  -10.2320 C   0  0  0  0  0  0  0  0  0  0  0  0
   20.0436  -23.9599  -11.2136 C   0  0  0  0  0  0  0  0  0  0  0  0
   20.7395  -22.9800  -11.9271 C   0  0  0  0  0  0  0  0  0  0  0  0
   20.5179  -21.6550  -11.6476 C   0  0  0  0  0  0  0  0  0  0  0  0
   21.2108  -20.5635  -12.3480 C   0  0  0  0  0  0  0  0  0  0  0  0
   20.6271  -20.3759  -13.7449 C   0  0  2  0  0  0  0  0  0  0  0  0
   21.2316  -19.2057  -14.3461 N   0  0  0  0  0  0  0  0  0  0  0  0
   19.1658  -20.1970  -13.7370 C   0  0  0  0  0  0  0  0  0  0  0  0
   18.3251  -21.2636  -13.8904 O   0  0  0  0  0  0  0  0  0  0  0  0
   19.5912  -21.3458  -10.6462 C   0  0  0  0  0  0  0  0  0  0  0  0
   18.9162  -22.3291   -9.9554 C   0  0  0  0  0  0  0  0  0  0  0  0
   18.6932  -19.0468  -13.5879 O   0  0  0  0  0  0  0  0  0  0  0  0
  2  1  1  6
  2  3  1  0
  4  2  1  0
  4  5  1  1
  6  7  2  0
  6  4  1  0
  8  6  1  0
  9  8  1  0
  9 10  1  6
 11 12  1  0
 11 10  1  0
 13 12  1  0
 14 13  1  0
 15  9  1  0
 16 15  2  0
 17 18  1  0
 18 28  2  0
 19 20  2  0
 19 18  1  0
 20 21  1  0
 21 22  1  0
 21 27  2  0
 23 22  1  1
 23 24  1  0
 24 15  1  0
 25 26  1  0
 25 23  1  0
 28 27  1  0
 29 25  2  0
M  END
$$$$
