VKY.pdb
     RDKit          3D

 29 29  0  0  1  0  0  0  0  0999 V2000
   28.8954  -26.6392  -18.5207 C   0  0  0  0  0  0  0  0  0  0  0  0
   28.3057  -25.4985  -17.7477 C   0  0  1  0  0  0  0  0  0  0  0  0
   27.9959  -25.8642  -16.3141 C   0  0  0  0  0  0  0  0  0  0  0  0
   29.2210  -24.2867  -17.7474 C   0  0  2  0  0  0  0  0  0  0  0  0
   30.4159  -24.6694  -17.0288 N   0  0  0  0  0  0  0  0  0  0  0  0
   28.5306  -23.2248  -16.9873 C   0  0  0  0  0  0  0  0  0  0  0  0
   28.8576  -23.0187  -15.7737 O   0  0  0  0  0  0  0  0  0  0  0  0
   27.5268  -22.4644  -17.6219 N   0  0  0  0  0  0  0  0  0  0  0  0
   26.9126  -21.3169  -16.8796 C   0  0  1  0  0  0  0  0  0  0  0  0
   26.6749  -20.3115  -17.9438 C   0  0  0  0  0  0  0  0  0  0  0  0
   27.4816  -19.0778  -18.0127 C   0  0  0  0  0  0  0  0  0  0  0  0
   27.0553  -18.1703  -19.1231 C   0  0  0  0  0  0  0  0  0  0  0  0
   27.9270  -16.9231  -19.1960 C   0  0  0  0  0  0  0  0  0  0  0  0
   27.4307  -16.0851  -20.2889 N   0  0  0  0  0  0  0  0  0  0  0  0
   25.8072  -21.8465  -16.1159 C   0  0  0  0  0  0  0  0  0  0  0  0
   25.1320  -22.8400  -16.5730 O   0  0  0  0  0  0  0  0  0  0  0  0
   21.5067  -19.2331   -9.1007 O   0  0  0  0  0  0  0  0  0  0  0  0
   22.3155  -19.9556   -9.9704 C   0  0  0  0  0  0  0  0  0  0  0  0
   21.8725  -20.2561  -11.2341 C   0  0  0  0  0  0  0  0  0  0  0  0
   22.6442  -20.9790  -12.1481 C   0  0  0  0  0  0  0  0  0  0  0  0
   23.8942  -21.4122  -11.7838 C   0  0  0  0  0  0  0  0  0  0  0  0
   24.7673  -22.1812  -12.6828 C   0  0  0  0  0  0  0  0  0  0  0  0
   24.3394  -21.9834  -14.1336 C   0  0  2  0  0  0  0  0  0  0  0  0
   25.4181  -21.3361  -14.8505 N   0  0  0  0  0  0  0  0  0  0  0  0
   23.1268  -21.1593  -14.2671 C   0  0  0  0  0  0  0  0  0  0  0  0
   21.8837  -21.7056  -14.1117 O   0  0  0  0  0  0  0  0  0  0  0  0
   24.3414  -21.1034  -10.4946 C   0  0  0  0  0  0  0  0  0  0  0  0
   23.5630  -20.3888   -9.6097 C   0  0  0  0  0  0  0  0  0  0  0  0
   23.2440  -19.9400  -14.5280 O   0  0  0  0  0  0  0  0  0  0  0  0
  2  1  1  1
  2  3  1  0
  4  2  1  0
  4  5  1  1
  6  7  2  0
  6  4  1  0
  8  6  1  0
  9  8  1  0
  9 10  1  6
 11 12  1  0
 11 10  1  0
 13 12  1  0
 14 13  1  0
 15  9  1  0
 16 15  2  0
 17 18  1  0
 18 28  2  0
 19 20  2  0
 19 18  1  0
 20 21  1  0
 21 22  1  0
 21 27  2  0
 23 22  1  1
 23 24  1  0
 24 15  1  0
 25 26  1  0
 25 23  1  0
 28 27  1  0
 29 25  2  0
M  END
$$$$
