VKY.pdb
     RDKit          3D

 29 29  0  0  1  0  0  0  0  0999 V2000
   24.1078  -10.7558  -21.2902 C   0  0  0  0  0  0  0  0  0  0  0  0
   23.3567   -9.7982  -20.4154 C   0  0  1  0  0  0  0  0  0  0  0  0
   23.8002   -8.3656  -20.6043 C   0  0  0  0  0  0  0  0  0  0  0  0
   21.8592   -9.8732  -20.6557 C   0  0  2  0  0  0  0  0  0  0  0  0
   21.6313   -9.4053  -22.0047 N   0  0  0  0  0  0  0  0  0  0  0  0
   21.2232   -8.9300  -19.7133 C   0  0  0  0  0  0  0  0  0  0  0  0
   21.0990   -7.7076  -20.0490 O   0  0  0  0  0  0  0  0  0  0  0  0
   20.7688   -9.4038  -18.4653 N   0  0  0  0  0  0  0  0  0  0  0  0
   20.0378   -8.4617  -17.5581 C   0  0  1  0  0  0  0  0  0  0  0  0
   18.6760   -9.0453  -17.4875 C   0  0  0  0  0  0  0  0  0  0  0  0
   17.6904   -8.5491  -16.5077 C   0  0  0  0  0  0  0  0  0  0  0  0
   16.3886   -9.2833  -16.5759 C   0  0  0  0  0  0  0  0  0  0  0  0
   15.3560   -8.6859  -15.6284 C   0  0  0  0  0  0  0  0  0  0  0  0
   14.1374   -9.4922  -15.7175 N   0  0  0  0  0  0  0  0  0  0  0  0
   20.8337   -8.3192  -16.3615 C   0  0  0  0  0  0  0  0  0  0  0  0
   21.4485   -9.3387  -15.8773 O   0  0  0  0  0  0  0  0  0  0  0  0
   20.6760   -0.8558  -15.4023 O   0  0  0  0  0  0  0  0  0  0  0  0
   21.2255   -2.1223  -15.2401 C   0  0  0  0  0  0  0  0  0  0  0  0
   21.5449   -2.5794  -13.9861 C   0  0  0  0  0  0  0  0  0  0  0  0
   22.0992   -3.8435  -13.7664 C   0  0  0  0  0  0  0  0  0  0  0  0
   22.3395   -4.6711  -14.8342 C   0  0  0  0  0  0  0  0  0  0  0  0
   22.9235   -6.0128  -14.6902 C   0  0  0  0  0  0  0  0  0  0  0  0
   21.8236   -7.0502  -14.4874 C   0  0  2  0  0  0  0  0  0  0  0  0
   20.9976   -7.0878  -15.6760 N   0  0  0  0  0  0  0  0  0  0  0  0
   20.9644   -6.7566  -13.3285 C   0  0  0  0  0  0  0  0  0  0  0  0
   21.4168   -6.9410  -12.0521 O   0  0  0  0  0  0  0  0  0  0  0  0
   22.0122   -4.2008  -16.1105 C   0  0  0  0  0  0  0  0  0  0  0  0
   21.4661   -2.9501  -16.3035 C   0  0  0  0  0  0  0  0  0  0  0  0
   19.8021   -6.3326  -13.5231 O   0  0  0  0  0  0  0  0  0  0  0  0
  2  1  1  6
  2  3  1  0
  4  2  1  0
  4  5  1  6
  6  7  2  0
  6  4  1  0
  8  6  1  0
  9  8  1  0
  9 10  1  1
 11 12  1  0
 11 10  1  0
 13 12  1  0
 14 13  1  0
 15  9  1  0
 16 15  2  0
 17 18  1  0
 18 28  2  0
 19 20  2  0
 19 18  1  0
 20 21  1  0
 21 22  1  0
 21 27  2  0
 23 22  1  6
 23 24  1  0
 24 15  1  0
 25 26  1  0
 25 23  1  0
 28 27  1  0
 29 25  2  0
M  END
$$$$
