VKY.pdb
     RDKit          3D

 29 29  0  0  1  0  0  0  0  0999 V2000
   24.4571  -13.4296  -22.4719 C   0  0  0  0  0  0  0  0  0  0  0  0
   25.5408  -13.1043  -21.4891 C   0  0  1  0  0  0  0  0  0  0  0  0
   26.7628  -12.5044  -22.1461 C   0  0  0  0  0  0  0  0  0  0  0  0
   25.0560  -12.1485  -20.4132 C   0  0  2  0  0  0  0  0  0  0  0  0
   26.2010  -11.8391  -19.5862 N   0  0  0  0  0  0  0  0  0  0  0  0
   24.0670  -12.8826  -19.5977 C   0  0  0  0  0  0  0  0  0  0  0  0
   23.0315  -13.3628  -20.1629 O   0  0  0  0  0  0  0  0  0  0  0  0
   24.2916  -13.0347  -18.2138 N   0  0  0  0  0  0  0  0  0  0  0  0
   23.3446  -13.8795  -17.4174 C   0  0  1  0  0  0  0  0  0  0  0  0
   24.1011  -14.1569  -16.1721 C   0  0  0  0  0  0  0  0  0  0  0  0
   24.8116  -15.4370  -15.9879 C   0  0  0  0  0  0  0  0  0  0  0  0
   23.8857  -16.6118  -15.9548 C   0  0  0  0  0  0  0  0  0  0  0  0
   24.6377  -17.9136  -15.7084 C   0  0  0  0  0  0  0  0  0  0  0  0
   23.7118  -19.0238  -15.9388 N   0  0  0  0  0  0  0  0  0  0  0  0
   22.0857  -13.1740  -17.3647 C   0  0  0  0  0  0  0  0  0  0  0  0
   22.0437  -11.9745  -16.9048 O   0  0  0  0  0  0  0  0  0  0  0  0
   13.8891  -10.3671  -18.5171 O   0  0  0  0  0  0  0  0  0  0  0  0
   15.1177  -11.0065  -18.6362 C   0  0  0  0  0  0  0  0  0  0  0  0
   16.2522  -10.2772  -18.8901 C   0  0  0  0  0  0  0  0  0  0  0  0
   17.5119  -10.8690  -19.0191 C   0  0  0  0  0  0  0  0  0  0  0  0
   17.6360  -12.2294  -18.8901 C   0  0  0  0  0  0  0  0  0  0  0  0
   18.9225  -12.9303  -19.0159 C   0  0  0  0  0  0  0  0  0  0  0  0
   19.6440  -12.9580  -17.6720 C   0  0  2  0  0  0  0  0  0  0  0  0
   20.8605  -13.7300  -17.8154 N   0  0  0  0  0  0  0  0  0  0  0  0
   18.8337  -13.5551  -16.5977 C   0  0  0  0  0  0  0  0  0  0  0  0
   17.8999  -12.8163  -15.9267 O   0  0  0  0  0  0  0  0  0  0  0  0
   16.4767  -12.9685  -18.6313 C   0  0  0  0  0  0  0  0  0  0  0  0
   15.2445  -12.3635  -18.5078 C   0  0  0  0  0  0  0  0  0  0  0  0
   19.0088  -14.7587  -16.2991 O   0  0  0  0  0  0  0  0  0  0  0  0
  2  1  1  6
  2  3  1  0
  4  2  1  0
  4  5  1  1
  6  7  2  0
  6  4  1  0
  8  6  1  0
  9  8  1  0
  9 10  1  1
 11 12  1  0
 11 10  1  0
 13 12  1  0
 14 13  1  0
 15  9  1  0
 16 15  2  0
 17 18  1  0
 18 28  2  0
 19 20  2  0
 19 18  1  0
 20 21  1  0
 21 22  1  0
 21 27  2  0
 23 22  1  6
 23 24  1  0
 24 15  1  0
 25 26  1  0
 25 23  1  0
 28 27  1  0
 29 25  2  0
M  END
$$$$
