VKY.pdb
     RDKit          3D

 29 29  0  0  1  0  0  0  0  0999 V2000
   22.5190  -26.4672  -15.6077 C   0  0  0  0  0  0  0  0  0  0  0  0
   23.2078  -25.2289  -15.1196 C   0  0  1  0  0  0  0  0  0  0  0  0
   24.6312  -25.4878  -14.6816 C   0  0  0  0  0  0  0  0  0  0  0  0
   23.2213  -24.1390  -16.1770 C   0  0  2  0  0  0  0  0  0  0  0  0
   23.9873  -24.6512  -17.2912 N   0  0  0  0  0  0  0  0  0  0  0  0
   23.9399  -22.9854  -15.5984 C   0  0  0  0  0  0  0  0  0  0  0  0
   25.2049  -22.9141  -15.7292 O   0  0  0  0  0  0  0  0  0  0  0  0
   23.2100  -21.9907  -14.9154 N   0  0  0  0  0  0  0  0  0  0  0  0
   23.9383  -20.7876  -14.3988 C   0  0  1  0  0  0  0  0  0  0  0  0
   23.0346  -19.6654  -14.7513 C   0  0  0  0  0  0  0  0  0  0  0  0
   23.4871  -18.5820  -15.6450 C   0  0  0  0  0  0  0  0  0  0  0  0
   22.8396  -18.6367  -16.9927 C   0  0  0  0  0  0  0  0  0  0  0  0
   23.4028  -17.5766  -17.9305 C   0  0  0  0  0  0  0  0  0  0  0  0
   22.7871  -17.7602  -19.2459 N   0  0  0  0  0  0  0  0  0  0  0  0
   24.2705  -21.0511  -13.0183 C   0  0  0  0  0  0  0  0  0  0  0  0
   23.4414  -21.6893  -12.2718 O   0  0  0  0  0  0  0  0  0  0  0  0
   27.3943  -19.6340   -4.9559 O   0  0  0  0  0  0  0  0  0  0  0  0
   27.2907  -19.7477   -6.3375 C   0  0  0  0  0  0  0  0  0  0  0  0
   27.4485  -20.9697   -6.9420 C   0  0  0  0  0  0  0  0  0  0  0  0
   27.3546  -21.1403   -8.3261 C   0  0  0  0  0  0  0  0  0  0  0  0
   27.0953  -20.0552   -9.1249 C   0  0  0  0  0  0  0  0  0  0  0  0
   26.9851  -20.1478  -10.5882 C   0  0  0  0  0  0  0  0  0  0  0  0
   25.6310  -20.7300  -10.9815 C   0  0  2  0  0  0  0  0  0  0  0  0
   25.4944  -20.6531  -12.4209 N   0  0  0  0  0  0  0  0  0  0  0  0
   24.4994  -20.0186  -10.3645 C   0  0  0  0  0  0  0  0  0  0  0  0
   23.8872  -20.5071   -9.2445 O   0  0  0  0  0  0  0  0  0  0  0  0
   26.9351  -18.8117   -8.5041 C   0  0  0  0  0  0  0  0  0  0  0  0
   27.0319  -18.6670   -7.1369 C   0  0  0  0  0  0  0  0  0  0  0  0
   24.0966  -18.9506  -10.8799 O   0  0  0  0  0  0  0  0  0  0  0  0
  2  1  1  6
  2  3  1  0
  4  2  1  0
  4  5  1  6
  6  7  2  0
  6  4  1  0
  8  6  1  0
  9  8  1  0
  9 10  1  1
 11 12  1  0
 11 10  1  0
 13 12  1  0
 14 13  1  0
 15  9  1  0
 16 15  2  0
 17 18  1  0
 18 28  2  0
 19 20  2  0
 19 18  1  0
 20 21  1  0
 21 22  1  0
 21 27  2  0
 23 22  1  6
 23 24  1  0
 24 15  1  0
 25 26  1  0
 25 23  1  0
 28 27  1  0
 29 25  2  0
M  END
$$$$
