VKY.pdb
     RDKit          3D

 29 29  0  0  1  0  0  0  0  0999 V2000
   19.6699  -15.3971  -18.7608 C   0  0  0  0  0  0  0  0  0  0  0  0
   19.6780  -13.8999  -18.6932 C   0  0  1  0  0  0  0  0  0  0  0  0
   18.5389  -13.2753  -19.4658 C   0  0  0  0  0  0  0  0  0  0  0  0
   19.6168  -13.4014  -17.2601 C   0  0  2  0  0  0  0  0  0  0  0  0
   18.3303  -13.8023  -16.7358 N   0  0  0  0  0  0  0  0  0  0  0  0
   19.6676  -11.9261  -17.3139 C   0  0  0  0  0  0  0  0  0  0  0  0
   20.7128  -11.3581  -17.7692 O   0  0  0  0  0  0  0  0  0  0  0  0
   18.5592  -11.1812  -16.8606 N   0  0  0  0  0  0  0  0  0  0  0  0
   18.6409   -9.6852  -16.8733 C   0  0  1  0  0  0  0  0  0  0  0  0
   17.3304   -9.2776  -17.4358 C   0  0  0  0  0  0  0  0  0  0  0  0
   17.1634   -9.0636  -18.8862 C   0  0  0  0  0  0  0  0  0  0  0  0
   15.7817   -8.6190  -19.2490 C   0  0  0  0  0  0  0  0  0  0  0  0
   15.6353   -8.4076  -20.7506 C   0  0  0  0  0  0  0  0  0  0  0  0
   14.2221   -8.1560  -21.0383 N   0  0  0  0  0  0  0  0  0  0  0  0
   19.0266   -9.2685  -15.5454 C   0  0  0  0  0  0  0  0  0  0  0  0
   18.4941   -9.8300  -14.5192 O   0  0  0  0  0  0  0  0  0  0  0  0
   24.8688   -4.9128  -17.2116 O   0  0  0  0  0  0  0  0  0  0  0  0
   24.1198   -5.7171  -16.3604 C   0  0  0  0  0  0  0  0  0  0  0  0
   23.6057   -5.1992  -15.1981 C   0  0  0  0  0  0  0  0  0  0  0  0
   22.8463   -5.9628  -14.3072 C   0  0  0  0  0  0  0  0  0  0  0  0
   22.5963   -7.2819  -14.5905 C   0  0  0  0  0  0  0  0  0  0  0  0
   21.8111   -8.1548  -13.7054 C   0  0  0  0  0  0  0  0  0  0  0  0
   20.3187   -7.9258  -13.9237 C   0  0  2  0  0  0  0  0  0  0  0  0
   19.9943   -8.2617  -15.2942 N   0  0  0  0  0  0  0  0  0  0  0  0
   19.9089   -6.5343  -13.6724 C   0  0  0  0  0  0  0  0  0  0  0  0
   19.4759   -5.7330  -14.6915 O   0  0  0  0  0  0  0  0  0  0  0  0
   23.1223   -7.8053  -15.7765 C   0  0  0  0  0  0  0  0  0  0  0  0
   23.8686   -7.0333  -16.6406 C   0  0  0  0  0  0  0  0  0  0  0  0
   19.9613   -6.0847  -12.5047 O   0  0  0  0  0  0  0  0  0  0  0  0
  2  1  1  1
  2  3  1  0
  4  2  1  0
  4  5  1  6
  6  7  2  0
  6  4  1  0
  8  6  1  0
  9  8  1  0
  9 10  1  1
 11 12  1  0
 11 10  1  0
 13 12  1  0
 14 13  1  0
 15  9  1  0
 16 15  2  0
 17 18  1  0
 18 28  2  0
 19 20  2  0
 19 18  1  0
 20 21  1  0
 21 22  1  0
 21 27  2  0
 23 22  1  6
 23 24  1  0
 24 15  1  0
 25 26  1  0
 25 23  1  0
 28 27  1  0
 29 25  2  0
M  END
$$$$
