VKY.pdb
     RDKit          3D

 29 29  0  0  1  0  0  0  0  0999 V2000
   28.2345  -18.1619  -18.2170 C   0  0  0  0  0  0  0  0  0  0  0  0
   27.0747  -19.0049  -17.7805 C   0  0  1  0  0  0  0  0  0  0  0  0
   26.7654  -20.1196  -18.7535 C   0  0  0  0  0  0  0  0  0  0  0  0
   27.3075  -19.6149  -16.4094 C   0  0  2  0  0  0  0  0  0  0  0  0
   28.3858  -20.5669  -16.5564 N   0  0  0  0  0  0  0  0  0  0  0  0
   26.0760  -20.3461  -16.0477 C   0  0  0  0  0  0  0  0  0  0  0  0
   24.9715  -19.7136  -15.9985 O   0  0  0  0  0  0  0  0  0  0  0  0
   26.1511  -21.7257  -15.7657 N   0  0  0  0  0  0  0  0  0  0  0  0
   24.9490  -22.4118  -15.1920 C   0  0  1  0  0  0  0  0  0  0  0  0
   24.9972  -23.7581  -15.8127 C   0  0  0  0  0  0  0  0  0  0  0  0
   24.0541  -24.1311  -16.8845 C   0  0  0  0  0  0  0  0  0  0  0  0
   24.2258  -25.5464  -17.3382 C   0  0  0  0  0  0  0  0  0  0  0  0
   23.3150  -25.8742  -18.5145 C   0  0  0  0  0  0  0  0  0  0  0  0
   23.5311  -27.2752  -18.8799 N   0  0  0  0  0  0  0  0  0  0  0  0
   25.0202  -22.2668  -13.7570 C   0  0  0  0  0  0  0  0  0  0  0  0
   25.7519  -23.0686  -13.0688 O   0  0  0  0  0  0  0  0  0  0  0  0
   26.9754  -19.9556   -5.8640 O   0  0  0  0  0  0  0  0  0  0  0  0
   26.7460  -20.2177   -7.2098 C   0  0  0  0  0  0  0  0  0  0  0  0
   26.8315  -19.2059   -8.1331 C   0  0  0  0  0  0  0  0  0  0  0  0
   26.6107  -19.4139   -9.4975 C   0  0  0  0  0  0  0  0  0  0  0  0
   26.2954  -20.6713   -9.9472 C   0  0  0  0  0  0  0  0  0  0  0  0
   26.0440  -20.9739  -11.3639 C   0  0  0  0  0  0  0  0  0  0  0  0
   24.5474  -21.1320  -11.6142 C   0  0  2  0  0  0  0  0  0  0  0  0
   24.3270  -21.2577  -13.0397 N   0  0  0  0  0  0  0  0  0  0  0  0
   23.7589  -19.9927  -11.1166 C   0  0  0  0  0  0  0  0  0  0  0  0
   23.3401  -19.0037  -11.9618 O   0  0  0  0  0  0  0  0  0  0  0  0
   26.2094  -21.6994   -9.0023 C   0  0  0  0  0  0  0  0  0  0  0  0
   26.4313  -21.4711   -7.6613 C   0  0  0  0  0  0  0  0  0  0  0  0
   23.4720  -19.9354   -9.8988 O   0  0  0  0  0  0  0  0  0  0  0  0
  2  1  1  6
  2  3  1  0
  4  2  1  0
  4  5  1  6
  6  7  2  0
  6  4  1  0
  8  6  1  0
  9  8  1  0
  9 10  1  1
 11 12  1  0
 11 10  1  0
 13 12  1  0
 14 13  1  0
 15  9  1  0
 16 15  2  0
 17 18  1  0
 18 28  2  0
 19 20  2  0
 19 18  1  0
 20 21  1  0
 21 22  1  0
 21 27  2  0
 23 22  1  6
 23 24  1  0
 24 15  1  0
 25 26  1  0
 25 23  1  0
 28 27  1  0
 29 25  2  0
M  END
$$$$
