VKY.pdb
     RDKit          3D

 29 29  0  0  1  0  0  0  0  0999 V2000
   23.1277  -10.3425  -20.6934 C   0  0  0  0  0  0  0  0  0  0  0  0
   22.9272  -11.3004  -19.5583 C   0  0  1  0  0  0  0  0  0  0  0  0
   23.5635  -12.6477  -19.8132 C   0  0  0  0  0  0  0  0  0  0  0  0
   23.4755  -10.7493  -18.2538 C   0  0  2  0  0  0  0  0  0  0  0  0
   23.5009  -11.8498  -17.3164 N   0  0  0  0  0  0  0  0  0  0  0  0
   22.5109   -9.7393  -17.7727 C   0  0  0  0  0  0  0  0  0  0  0  0
   22.3205   -8.6859  -18.4629 O   0  0  0  0  0  0  0  0  0  0  0  0
   21.8236   -9.9643  -16.5621 N   0  0  0  0  0  0  0  0  0  0  0  0
   20.7993   -8.9655  -16.1171 C   0  0  1  0  0  0  0  0  0  0  0  0
   19.8520   -9.7820  -15.3195 C   0  0  0  0  0  0  0  0  0  0  0  0
   18.5861  -10.2613  -15.9071 C   0  0  0  0  0  0  0  0  0  0  0  0
   17.7194  -10.9682  -14.9134 C   0  0  0  0  0  0  0  0  0  0  0  0
   16.4711  -11.5469  -15.5674 C   0  0  0  0  0  0  0  0  0  0  0  0
   15.8099  -12.4173  -14.5936 N   0  0  0  0  0  0  0  0  0  0  0  0
   21.5119   -7.8686  -15.5050 C   0  0  0  0  0  0  0  0  0  0  0  0
   22.4509   -8.1079  -14.6606 O   0  0  0  0  0  0  0  0  0  0  0  0
   26.9095   -6.5714  -18.9433 O   0  0  0  0  0  0  0  0  0  0  0  0
   25.8354   -6.0485  -18.2325 C   0  0  0  0  0  0  0  0  0  0  0  0
   24.5496   -6.3263  -18.6237 C   0  0  0  0  0  0  0  0  0  0  0  0
   23.4340   -5.8269  -17.9455 C   0  0  0  0  0  0  0  0  0  0  0  0
   23.6140   -5.0271  -16.8452 C   0  0  0  0  0  0  0  0  0  0  0  0
   22.4955   -4.4582  -16.0789 C   0  0  0  0  0  0  0  0  0  0  0  0
   21.9676   -5.4789  -15.0755 C   0  0  2  0  0  0  0  0  0  0  0  0
   21.2448   -6.5058  -15.7963 N   0  0  0  0  0  0  0  0  0  0  0  0
   21.0658   -4.8860  -14.0742 C   0  0  0  0  0  0  0  0  0  0  0  0
   19.7514   -5.2539  -14.0051 O   0  0  0  0  0  0  0  0  0  0  0  0
   24.9265   -4.7469  -16.4502 C   0  0  0  0  0  0  0  0  0  0  0  0
   26.0119   -5.2505  -17.1343 C   0  0  0  0  0  0  0  0  0  0  0  0
   21.5170   -4.0314  -13.2775 O   0  0  0  0  0  0  0  0  0  0  0  0
  2  1  1  6
  2  3  1  0
  4  2  1  0
  4  5  1  1
  6  7  2  0
  6  4  1  0
  8  6  1  0
  9  8  1  0
  9 10  1  1
 11 12  1  0
 11 10  1  0
 13 12  1  0
 14 13  1  0
 15  9  1  0
 16 15  2  0
 17 18  1  0
 18 28  2  0
 19 20  2  0
 19 18  1  0
 20 21  1  0
 21 22  1  0
 21 27  2  0
 23 22  1  6
 23 24  1  0
 24 15  1  0
 25 26  1  0
 25 23  1  0
 28 27  1  0
 29 25  2  0
M  END
$$$$
