YFA.pdb
     RDKit          3D

 29 30  0  0  1  0  0  0  0  0999 V2000
    6.7353  -13.2463   17.7332 O   0  0  0  0  0  0  0  0  0  0  0  0
    7.8017  -13.9052   18.3641 C   0  0  0  0  0  0  0  0  0  0  0  0
    8.7074  -13.1754   19.0701 C   0  0  0  0  0  0  0  0  0  0  0  0
    9.7548  -13.8136   19.6910 C   0  0  0  0  0  0  0  0  0  0  0  0
    9.8999  -15.1987   19.6061 C   0  0  0  0  0  0  0  0  0  0  0  0
   11.0419  -15.8106   20.2943 C   0  0  0  0  0  0  0  0  0  0  0  0
   10.5459  -16.7324   21.3943 C   0  0  2  0  0  0  0  0  0  0  0  0
    9.3087  -17.3876   21.0133 N   0  0  0  0  0  0  0  0  0  0  0  0
   10.2442  -15.8515   22.5671 C   0  0  0  0  0  0  0  0  0  0  0  0
   11.1021  -15.0580   23.0337 O   0  0  0  0  0  0  0  0  0  0  0  0
    8.9829  -15.9240   18.8931 C   0  0  0  0  0  0  0  0  0  0  0  0
    7.9338  -15.2725   18.2728 C   0  0  0  0  0  0  0  0  0  0  0  0
    8.9701  -15.8836   23.1952 N   0  0  0  0  0  0  0  0  0  0  0  0
    8.7323  -15.1038   24.3684 C   0  0  1  0  0  0  0  0  0  0  0  0
    7.2731  -14.7273   24.5331 C   0  0  0  0  0  0  0  0  0  0  0  0
    7.0665  -13.7145   25.5719 C   0  0  0  0  0  0  0  0  0  0  0  0
    7.4623  -12.3981   25.4452 C   0  0  0  0  0  0  0  0  0  0  0  0
    7.2548  -11.4687   26.4387 C   0  0  0  0  0  0  0  0  0  0  0  0
    6.6282  -11.8403   27.6192 C   0  0  0  0  0  0  0  0  0  0  0  0
    6.2248  -13.1484   27.7675 C   0  0  0  0  0  0  0  0  0  0  0  0
    6.4444  -14.0666   26.7537 C   0  0  0  0  0  0  0  0  0  0  0  0
    9.2519  -15.7724   25.5975 C   0  0  0  0  0  0  0  0  0  0  0  0
    9.1531  -17.0211   25.7055 O   0  0  0  0  0  0  0  0  0  0  0  0
   10.8694  -14.4992   28.7437 C   0  0  0  0  0  0  0  0  0  0  0  0
   10.6178  -15.5968   27.7050 C   0  0  2  0  0  0  0  0  0  0  0  0
    9.8526  -15.0150   26.6381 N   0  0  0  0  0  0  0  0  0  0  0  0
    9.8793  -16.6713   28.4146 C   0  0  0  0  0  0  0  0  0  0  0  0
    8.6689  -16.9463   28.2276 O   0  0  0  0  0  0  0  0  0  0  0  0
   10.5757  -17.4235   29.3492 O   0  0  0  0  0  0  0  0  0  0  0  0
  2  1  1  0
  3  2  2  0
  4  3  1  0
  5 11  1  0
  5  4  2  0
  6  5  1  0
  7  6  1  0
  7  8  1  6
  9  7  1  0
  9 10  2  0
 11 12  2  0
 12  2  1  0
 13  9  1  0
 14 13  1  0
 14 15  1  1
 16 15  1  0
 16 17  2  0
 18 17  1  0
 19 18  2  0
 20 21  2  0
 20 19  1  0
 21 16  1  0
 22 14  1  0
 23 22  2  0
 25 24  1  1
 25 27  1  0
 25 26  1  0
 26 22  1  0
 27 29  1  0
 28 27  2  0
M  END
$$$$
