YFA.pdb
     RDKit          3D

 29 30  0  0  1  0  0  0  0  0999 V2000
    2.3423  -23.3326   22.7140 O   0  0  0  0  0  0  0  0  0  0  0  0
    3.4225  -22.4581   22.9078 C   0  0  0  0  0  0  0  0  0  0  0  0
    3.5629  -21.8338   24.1085 C   0  0  0  0  0  0  0  0  0  0  0  0
    4.6186  -20.9756   24.3061 C   0  0  0  0  0  0  0  0  0  0  0  0
    5.5463  -20.7375   23.2917 C   0  0  0  0  0  0  0  0  0  0  0  0
    6.6469  -19.8096   23.5747 C   0  0  0  0  0  0  0  0  0  0  0  0
    6.3233  -18.4391   23.0065 C   0  0  2  0  0  0  0  0  0  0  0  0
    6.3138  -18.4601   21.5558 N   0  0  0  0  0  0  0  0  0  0  0  0
    7.4413  -17.5396   23.4347 C   0  0  0  0  0  0  0  0  0  0  0  0
    8.3942  -17.2588   22.6623 O   0  0  0  0  0  0  0  0  0  0  0  0
    5.3960  -21.3708   22.0869 C   0  0  0  0  0  0  0  0  0  0  0  0
    4.3313  -22.2315   21.8987 C   0  0  0  0  0  0  0  0  0  0  0  0
    7.4621  -16.9701   24.7363 N   0  0  0  0  0  0  0  0  0  0  0  0
    8.5450  -16.1249   25.1289 C   0  0  1  0  0  0  0  0  0  0  0  0
    8.2193  -15.2887   26.3506 C   0  0  0  0  0  0  0  0  0  0  0  0
    7.4531  -14.0839   26.0207 C   0  0  0  0  0  0  0  0  0  0  0  0
    7.7714  -13.2375   24.9779 C   0  0  0  0  0  0  0  0  0  0  0  0
    7.0326  -12.1122   24.6919 C   0  0  0  0  0  0  0  0  0  0  0  0
    5.9240  -11.7935   25.4625 C   0  0  0  0  0  0  0  0  0  0  0  0
    5.5877  -12.6237   26.5081 C   0  0  0  0  0  0  0  0  0  0  0  0
    6.3464  -13.7511   26.7772 C   0  0  0  0  0  0  0  0  0  0  0  0
    9.8080  -16.8940   25.3309 C   0  0  0  0  0  0  0  0  0  0  0  0
    9.7972  -17.9079   26.0743 O   0  0  0  0  0  0  0  0  0  0  0  0
   11.9651  -18.2493   23.3753 C   0  0  0  0  0  0  0  0  0  0  0  0
   12.1722  -17.3332   24.5856 C   0  0  2  0  0  0  0  0  0  0  0  0
   11.0129  -16.4927   24.6949 N   0  0  0  0  0  0  0  0  0  0  0  0
   13.4101  -16.5621   24.3091 C   0  0  0  0  0  0  0  0  0  0  0  0
   13.4412  -15.3335   24.0534 O   0  0  0  0  0  0  0  0  0  0  0  0
   14.6160  -17.2472   24.3350 O   0  0  0  0  0  0  0  0  0  0  0  0
  2  1  1  0
  3  2  2  0
  4  3  1  0
  5 11  1  0
  5  4  2  0
  6  5  1  0
  7  6  1  0
  7  8  1  6
  9  7  1  0
  9 10  2  0
 11 12  2  0
 12  2  1  0
 13  9  1  0
 14 13  1  0
 14 15  1  1
 16 15  1  0
 16 17  2  0
 18 17  1  0
 19 18  2  0
 20 21  2  0
 20 19  1  0
 21 16  1  0
 22 14  1  0
 23 22  2  0
 25 24  1  6
 25 27  1  0
 25 26  1  0
 26 22  1  0
 27 29  1  0
 28 27  2  0
M  END
$$$$
