YFA.pdb
     RDKit          3D

 29 30  0  0  1  0  0  0  0  0999 V2000
    7.8000  -15.0896   14.8537 O   0  0  0  0  0  0  0  0  0  0  0  0
    8.2024  -14.7946   16.1653 C   0  0  0  0  0  0  0  0  0  0  0  0
    8.8908  -15.7302   16.8738 C   0  0  0  0  0  0  0  0  0  0  0  0
    9.2885  -15.4487   18.1594 C   0  0  0  0  0  0  0  0  0  0  0  0
    8.9951  -14.2169   18.7452 C   0  0  0  0  0  0  0  0  0  0  0  0
    9.4515  -13.9871   20.1205 C   0  0  0  0  0  0  0  0  0  0  0  0
    9.6563  -15.3173   20.8235 C   0  0  2  0  0  0  0  0  0  0  0  0
    8.5317  -16.2072   20.6034 N   0  0  0  0  0  0  0  0  0  0  0  0
    9.7034  -15.0079   22.2880 C   0  0  0  0  0  0  0  0  0  0  0  0
   10.6667  -14.3796   22.7985 O   0  0  0  0  0  0  0  0  0  0  0  0
    8.3018  -13.2821   18.0236 C   0  0  0  0  0  0  0  0  0  0  0  0
    7.9068  -13.5753   16.7322 C   0  0  0  0  0  0  0  0  0  0  0  0
    8.6541  -15.4169   23.1543 N   0  0  0  0  0  0  0  0  0  0  0  0
    8.5572  -14.8653   24.4687 C   0  0  1  0  0  0  0  0  0  0  0  0
    7.1218  -14.6804   24.9197 C   0  0  0  0  0  0  0  0  0  0  0  0
    6.9251  -13.4429   25.6796 C   0  0  0  0  0  0  0  0  0  0  0  0
    7.4920  -12.2336   25.3309 C   0  0  0  0  0  0  0  0  0  0  0  0
    7.2892  -11.0873   26.0648 C   0  0  0  0  0  0  0  0  0  0  0  0
    6.4916  -11.1195   27.1993 C   0  0  0  0  0  0  0  0  0  0  0  0
    5.9158  -12.3151   27.5662 C   0  0  0  0  0  0  0  0  0  0  0  0
    6.1341  -13.4564   26.8119 C   0  0  0  0  0  0  0  0  0  0  0  0
    9.3305  -15.6617   25.4663 C   0  0  0  0  0  0  0  0  0  0  0  0
    9.7790  -16.7893   25.1371 O   0  0  0  0  0  0  0  0  0  0  0  0
   10.9810  -14.4551   28.5703 C   0  0  0  0  0  0  0  0  0  0  0  0
   10.6360  -15.6047   27.6182 C   0  0  2  0  0  0  0  0  0  0  0  0
    9.5623  -15.1598   26.7747 N   0  0  0  0  0  0  0  0  0  0  0  0
   10.2458  -16.7482   28.4806 C   0  0  0  0  0  0  0  0  0  0  0  0
   11.0333  -17.3754   29.2304 O   0  0  0  0  0  0  0  0  0  0  0  0
    8.9187  -17.1512   28.4558 O   0  0  0  0  0  0  0  0  0  0  0  0
  2  1  1  0
  3  2  2  0
  4  3  1  0
  5 11  1  0
  5  4  2  0
  6  5  1  0
  7  6  1  0
  7  8  1  1
  9  7  1  0
  9 10  2  0
 11 12  2  0
 12  2  1  0
 13  9  1  0
 14 13  1  0
 14 15  1  1
 16 15  1  0
 16 17  2  0
 18 17  1  0
 19 18  2  0
 20 21  2  0
 20 19  1  0
 21 16  1  0
 22 14  1  0
 23 22  2  0
 25 24  1  1
 25 27  1  0
 25 26  1  0
 26 22  1  0
 27 29  1  0
 28 27  2  0
M  END
$$$$
