YFA.pdb
     RDKit          3D

 29 30  0  0  1  0  0  0  0  0999 V2000
    8.2921  -25.4206   24.8395 O   0  0  0  0  0  0  0  0  0  0  0  0
    8.5752  -24.0567   24.6692 C   0  0  0  0  0  0  0  0  0  0  0  0
    7.6314  -23.1366   25.0064 C   0  0  0  0  0  0  0  0  0  0  0  0
    7.9011  -21.7986   24.8426 C   0  0  0  0  0  0  0  0  0  0  0  0
    9.1294  -21.3735   24.3354 C   0  0  0  0  0  0  0  0  0  0  0  0
    9.3465  -19.9300   24.1883 C   0  0  0  0  0  0  0  0  0  0  0  0
    8.2388  -19.3267   23.3430 C   0  0  2  0  0  0  0  0  0  0  0  0
    8.4804  -19.5412   21.9285 N   0  0  0  0  0  0  0  0  0  0  0  0
    8.2894  -17.8503   23.5878 C   0  0  0  0  0  0  0  0  0  0  0  0
    9.0260  -17.0934   22.9036 O   0  0  0  0  0  0  0  0  0  0  0  0
   10.0726  -22.3076   23.9991 C   0  0  0  0  0  0  0  0  0  0  0  0
    9.7912  -23.6500   24.1678 C   0  0  0  0  0  0  0  0  0  0  0  0
    7.5017  -17.2522   24.6079 N   0  0  0  0  0  0  0  0  0  0  0  0
    7.6163  -15.8526   24.8708 C   0  0  1  0  0  0  0  0  0  0  0  0
    6.4526  -15.3133   25.6788 C   0  0  0  0  0  0  0  0  0  0  0  0
    6.4351  -13.8489   25.7329 C   0  0  0  0  0  0  0  0  0  0  0  0
    5.9781  -13.1297   26.8188 C   0  0  0  0  0  0  0  0  0  0  0  0
    5.9737  -11.7537   26.8407 C   0  0  0  0  0  0  0  0  0  0  0  0
    6.4392  -11.0390   25.7467 C   0  0  0  0  0  0  0  0  0  0  0  0
    6.8999  -11.7357   24.6522 C   0  0  0  0  0  0  0  0  0  0  0  0
    6.8947  -13.1210   24.6527 C   0  0  0  0  0  0  0  0  0  0  0  0
    8.9174  -15.5113   25.5174 C   0  0  0  0  0  0  0  0  0  0  0  0
    9.9540  -15.4370   24.8097 O   0  0  0  0  0  0  0  0  0  0  0  0
   10.0467  -13.7958   28.4796 C   0  0  0  0  0  0  0  0  0  0  0  0
   10.2260  -15.0499   27.6181 C   0  0  2  0  0  0  0  0  0  0  0  0
    8.9934  -15.2714   26.9153 N   0  0  0  0  0  0  0  0  0  0  0  0
   10.5502  -16.1510   28.5594 C   0  0  0  0  0  0  0  0  0  0  0  0
   11.6067  -16.2235   29.2333 O   0  0  0  0  0  0  0  0  0  0  0  0
    9.6206  -17.1705   28.7039 O   0  0  0  0  0  0  0  0  0  0  0  0
  2  1  1  0
  3  2  2  0
  4  3  1  0
  5 11  1  0
  5  4  2  0
  6  5  1  0
  7  6  1  0
  7  8  1  6
  9  7  1  0
  9 10  2  0
 11 12  2  0
 12  2  1  0
 13  9  1  0
 14 13  1  0
 14 15  1  1
 16 15  1  0
 16 17  2  0
 18 17  1  0
 19 18  2  0
 20 21  2  0
 20 19  1  0
 21 16  1  0
 22 14  1  0
 23 22  2  0
 25 24  1  1
 25 27  1  0
 25 26  1  0
 26 22  1  0
 27 29  1  0
 28 27  2  0
M  END
$$$$
