YFA.pdb
     RDKit          3D

 29 30  0  0  1  0  0  0  0  0999 V2000
    9.6417  -22.8873   18.3410 O   0  0  0  0  0  0  0  0  0  0  0  0
    9.8410  -21.8348   19.2476 C   0  0  0  0  0  0  0  0  0  0  0  0
    8.7660  -21.1266   19.6880 C   0  0  0  0  0  0  0  0  0  0  0  0
    8.9531  -20.0941   20.5762 C   0  0  0  0  0  0  0  0  0  0  0  0
   10.2302  -19.7643   21.0308 C   0  0  0  0  0  0  0  0  0  0  0  0
   10.3531  -18.6507   21.9779 C   0  0  0  0  0  0  0  0  0  0  0  0
    9.8231  -17.3762   21.3451 C   0  0  2  0  0  0  0  0  0  0  0  0
   10.7212  -16.8871   20.3159 N   0  0  0  0  0  0  0  0  0  0  0  0
    9.7940  -16.3530   22.4381 C   0  0  0  0  0  0  0  0  0  0  0  0
   10.8481  -15.8149   22.8657 O   0  0  0  0  0  0  0  0  0  0  0  0
   11.3056  -20.4833   20.5815 C   0  0  0  0  0  0  0  0  0  0  0  0
   11.1064  -21.5192   19.6887 C   0  0  0  0  0  0  0  0  0  0  0  0
    8.5663  -15.9541   23.0318 N   0  0  0  0  0  0  0  0  0  0  0  0
    8.5604  -14.9707   24.0682 C   0  0  1  0  0  0  0  0  0  0  0  0
    7.2717  -14.1736   24.1091 C   0  0  0  0  0  0  0  0  0  0  0  0
    7.2115  -13.2584   25.2520 C   0  0  0  0  0  0  0  0  0  0  0  0
    6.4461  -13.4902   26.3771 C   0  0  0  0  0  0  0  0  0  0  0  0
    6.4094  -12.6116   27.4357 C   0  0  0  0  0  0  0  0  0  0  0  0
    7.1580  -11.4444   27.3974 C   0  0  0  0  0  0  0  0  0  0  0  0
    7.9291  -11.1925   26.2848 C   0  0  0  0  0  0  0  0  0  0  0  0
    7.9503  -12.0916   25.2311 C   0  0  0  0  0  0  0  0  0  0  0  0
    8.8612  -15.5659   25.4035 C   0  0  0  0  0  0  0  0  0  0  0  0
    8.0463  -16.3773   25.9117 O   0  0  0  0  0  0  0  0  0  0  0  0
   12.0904  -15.7926   27.2200 C   0  0  0  0  0  0  0  0  0  0  0  0
   10.5701  -15.9812   27.2050 C   0  0  2  0  0  0  0  0  0  0  0  0
   10.0517  -15.2254   26.0994 N   0  0  0  0  0  0  0  0  0  0  0  0
   10.0820  -15.4814   28.5147 C   0  0  0  0  0  0  0  0  0  0  0  0
   10.1940  -16.1020   29.6000 O   0  0  0  0  0  0  0  0  0  0  0  0
    9.4587  -14.2424   28.5404 O   0  0  0  0  0  0  0  0  0  0  0  0
  2  1  1  0
  3  2  2  0
  4  3  1  0
  5 11  1  0
  5  4  2  0
  6  5  1  0
  7  6  1  0
  7  8  1  6
  9  7  1  0
  9 10  2  0
 11 12  2  0
 12  2  1  0
 13  9  1  0
 14 13  1  0
 14 15  1  1
 16 15  1  0
 16 17  2  0
 18 17  1  0
 19 18  2  0
 20 21  2  0
 20 19  1  0
 21 16  1  0
 22 14  1  0
 23 22  2  0
 25 24  1  1
 25 27  1  0
 25 26  1  0
 26 22  1  0
 27 29  1  0
 28 27  2  0
M  END
$$$$
