YFA.pdb
     RDKit          3D

 29 30  0  0  1  0  0  0  0  0999 V2000
    7.6350  -12.7416   16.0069 O   0  0  0  0  0  0  0  0  0  0  0  0
    7.5462  -13.4095   17.2379 C   0  0  0  0  0  0  0  0  0  0  0  0
    7.1286  -14.7042   17.2611 C   0  0  0  0  0  0  0  0  0  0  0  0
    7.0390  -15.3654   18.4631 C   0  0  0  0  0  0  0  0  0  0  0  0
    7.3708  -14.7256   19.6577 C   0  0  0  0  0  0  0  0  0  0  0  0
    7.2509  -15.4939   20.9018 C   0  0  0  0  0  0  0  0  0  0  0  0
    8.5083  -16.3163   21.1216 C   0  0  2  0  0  0  0  0  0  0  0  0
    8.3596  -17.6574   20.5882 N   0  0  0  0  0  0  0  0  0  0  0  0
    8.6678  -16.4390   22.6055 C   0  0  0  0  0  0  0  0  0  0  0  0
    8.0220  -17.2906   23.2698 O   0  0  0  0  0  0  0  0  0  0  0  0
    7.7900  -13.4224   19.6235 C   0  0  0  0  0  0  0  0  0  0  0  0
    7.8765  -12.7671   18.4099 C   0  0  0  0  0  0  0  0  0  0  0  0
    9.5599  -15.5917   23.3162 N   0  0  0  0  0  0  0  0  0  0  0  0
    9.1003  -14.8693   24.4599 C   0  0  1  0  0  0  0  0  0  0  0  0
    7.7748  -14.1750   24.2177 C   0  0  0  0  0  0  0  0  0  0  0  0
    7.3374  -13.3791   25.3679 C   0  0  0  0  0  0  0  0  0  0  0  0
    7.8864  -12.1585   25.7057 C   0  0  0  0  0  0  0  0  0  0  0  0
    7.4548  -11.4333   26.7927 C   0  0  0  0  0  0  0  0  0  0  0  0
    6.4337  -11.9222   27.5942 C   0  0  0  0  0  0  0  0  0  0  0  0
    5.8711  -13.1380   27.2761 C   0  0  0  0  0  0  0  0  0  0  0  0
    6.3220  -13.8504   26.1769 C   0  0  0  0  0  0  0  0  0  0  0  0
    9.0352  -15.7325   25.6757 C   0  0  0  0  0  0  0  0  0  0  0  0
    8.7889  -15.2056   26.7904 O   0  0  0  0  0  0  0  0  0  0  0  0
    9.1338  -19.4507   26.1786 C   0  0  0  0  0  0  0  0  0  0  0  0
    9.2170  -18.0182   26.7154 C   0  0  2  0  0  0  0  0  0  0  0  0
    9.2475  -17.1340   25.5842 N   0  0  0  0  0  0  0  0  0  0  0  0
   10.4617  -17.9541   27.5215 C   0  0  0  0  0  0  0  0  0  0  0  0
   11.4669  -17.2630   27.2253 O   0  0  0  0  0  0  0  0  0  0  0  0
   10.5176  -18.7106   28.6829 O   0  0  0  0  0  0  0  0  0  0  0  0
  2  1  1  0
  3  2  2  0
  4  3  1  0
  5 11  1  0
  5  4  2  0
  6  5  1  0
  7  6  1  0
  7  8  1  6
  9  7  1  0
  9 10  2  0
 11 12  2  0
 12  2  1  0
 13  9  1  0
 14 13  1  0
 14 15  1  6
 16 15  1  0
 16 17  2  0
 18 17  1  0
 19 18  2  0
 20 21  2  0
 20 19  1  0
 21 16  1  0
 22 14  1  0
 23 22  2  0
 25 24  1  6
 25 27  1  0
 25 26  1  0
 26 22  1  0
 27 29  1  0
 28 27  2  0
M  END
$$$$
