YFA.pdb
     RDKit          3D

 29 30  0  0  1  0  0  0  0  0999 V2000
    7.3595  -13.0944   16.2467 O   0  0  0  0  0  0  0  0  0  0  0  0
    7.7856  -13.2861   17.5699 C   0  0  0  0  0  0  0  0  0  0  0  0
    6.8556  -13.3829   18.5584 C   0  0  0  0  0  0  0  0  0  0  0  0
    7.2651  -13.5707   19.8573 C   0  0  0  0  0  0  0  0  0  0  0  0
    8.6208  -13.6631   20.1735 C   0  0  0  0  0  0  0  0  0  0  0  0
    8.9832  -13.8637   21.5809 C   0  0  0  0  0  0  0  0  0  0  0  0
    9.2156  -15.3405   21.8468 C   0  0  2  0  0  0  0  0  0  0  0  0
    8.0316  -16.1222   21.5434 N   0  0  0  0  0  0  0  0  0  0  0  0
    9.4677  -15.4610   23.3180 C   0  0  0  0  0  0  0  0  0  0  0  0
   10.4809  -14.9456   23.8577 O   0  0  0  0  0  0  0  0  0  0  0  0
    9.5488  -13.5643   19.1713 C   0  0  0  0  0  0  0  0  0  0  0  0
    9.1264  -13.3756   17.8691 C   0  0  0  0  0  0  0  0  0  0  0  0
    8.5644  -16.1663   24.1578 N   0  0  0  0  0  0  0  0  0  0  0  0
    8.8166  -16.2574   25.5611 C   0  0  1  0  0  0  0  0  0  0  0  0
    7.6324  -15.8137   26.3969 C   0  0  0  0  0  0  0  0  0  0  0  0
    7.4662  -14.3578   26.4102 C   0  0  0  0  0  0  0  0  0  0  0  0
    6.3804  -13.7075   25.8593 C   0  0  0  0  0  0  0  0  0  0  0  0
    6.2517  -12.3376   25.8869 C   0  0  0  0  0  0  0  0  0  0  0  0
    7.2325  -11.5585   26.4827 C   0  0  0  0  0  0  0  0  0  0  0  0
    8.3248  -12.1858   27.0388 C   0  0  0  0  0  0  0  0  0  0  0  0
    8.4329  -13.5663   26.9992 C   0  0  0  0  0  0  0  0  0  0  0  0
    9.2678  -17.6232   25.9592 C   0  0  0  0  0  0  0  0  0  0  0  0
    8.5202  -18.6078   25.7304 O   0  0  0  0  0  0  0  0  0  0  0  0
   12.5259  -19.1076   26.8528 C   0  0  0  0  0  0  0  0  0  0  0  0
   11.0042  -19.0983   27.0303 C   0  0  2  0  0  0  0  0  0  0  0  0
   10.5256  -17.8180   26.5897 N   0  0  0  0  0  0  0  0  0  0  0  0
   10.7585  -19.3312   28.4755 C   0  0  0  0  0  0  0  0  0  0  0  0
   10.2346  -18.4958   29.2522 O   0  0  0  0  0  0  0  0  0  0  0  0
   11.1342  -20.5575   29.0041 O   0  0  0  0  0  0  0  0  0  0  0  0
  2  1  1  0
  3  2  2  0
  4  3  1  0
  5 11  1  0
  5  4  2  0
  6  5  1  0
  7  6  1  0
  7  8  1  1
  9  7  1  0
  9 10  2  0
 11 12  2  0
 12  2  1  0
 13  9  1  0
 14 13  1  0
 14 15  1  1
 16 15  1  0
 16 17  2  0
 18 17  1  0
 19 18  2  0
 20 21  2  0
 20 19  1  0
 21 16  1  0
 22 14  1  0
 23 22  2  0
 25 24  1  1
 25 27  1  0
 25 26  1  0
 26 22  1  0
 27 29  1  0
 28 27  2  0
M  END
$$$$
