YFA.pdb
     RDKit          3D

 29 30  0  0  1  0  0  0  0  0999 V2000
    8.2174  -22.0415   17.1353 O   0  0  0  0  0  0  0  0  0  0  0  0
    8.5636  -21.1988   18.2027 C   0  0  0  0  0  0  0  0  0  0  0  0
    8.5562  -19.8516   18.0131 C   0  0  0  0  0  0  0  0  0  0  0  0
    8.8942  -19.0194   19.0540 C   0  0  0  0  0  0  0  0  0  0  0  0
    9.2442  -19.5392   20.3005 C   0  0  0  0  0  0  0  0  0  0  0  0
    9.5930  -18.5908   21.3641 C   0  0  0  0  0  0  0  0  0  0  0  0
    9.5776  -17.1748   20.8160 C   0  0  2  0  0  0  0  0  0  0  0  0
   10.7673  -16.9015   20.0317 N   0  0  0  0  0  0  0  0  0  0  0  0
    9.6089  -16.2696   22.0085 C   0  0  0  0  0  0  0  0  0  0  0  0
   10.6925  -15.8359   22.4788 O   0  0  0  0  0  0  0  0  0  0  0  0
    9.2486  -20.8967   20.4809 C   0  0  0  0  0  0  0  0  0  0  0  0
    8.9072  -21.7241   19.4280 C   0  0  0  0  0  0  0  0  0  0  0  0
    8.4073  -15.8685   22.6520 N   0  0  0  0  0  0  0  0  0  0  0  0
    8.4560  -14.9620   23.7552 C   0  0  1  0  0  0  0  0  0  0  0  0
    7.2616  -14.0296   23.7976 C   0  0  0  0  0  0  0  0  0  0  0  0
    7.2393  -13.1973   25.0036 C   0  0  0  0  0  0  0  0  0  0  0  0
    6.4090  -13.4345   26.0805 C   0  0  0  0  0  0  0  0  0  0  0  0
    6.4103  -12.6347   27.2005 C   0  0  0  0  0  0  0  0  0  0  0  0
    7.2658  -11.5454   27.2766 C   0  0  0  0  0  0  0  0  0  0  0  0
    8.1031  -11.2898   26.2139 C   0  0  0  0  0  0  0  0  0  0  0  0
    8.0843  -12.1087   25.0967 C   0  0  0  0  0  0  0  0  0  0  0  0
    8.6218  -15.6749   25.0559 C   0  0  0  0  0  0  0  0  0  0  0  0
    7.6570  -16.3317   25.5234 O   0  0  0  0  0  0  0  0  0  0  0  0
   11.7063  -16.8669   26.6201 C   0  0  0  0  0  0  0  0  0  0  0  0
   10.2185  -16.5468   26.7961 C   0  0  2  0  0  0  0  0  0  0  0  0
    9.8515  -15.6176   25.7645 N   0  0  0  0  0  0  0  0  0  0  0  0
   10.0815  -15.9697   28.1569 C   0  0  0  0  0  0  0  0  0  0  0  0
   10.2981  -16.5981   29.2217 O   0  0  0  0  0  0  0  0  0  0  0  0
    9.6866  -14.6437   28.2582 O   0  0  0  0  0  0  0  0  0  0  0  0
  2  1  1  0
  3  2  2  0
  4  3  1  0
  5 11  1  0
  5  4  2  0
  6  5  1  0
  7  6  1  0
  7  8  1  6
  9  7  1  0
  9 10  2  0
 11 12  2  0
 12  2  1  0
 13  9  1  0
 14 13  1  0
 14 15  1  1
 16 15  1  0
 16 17  2  0
 18 17  1  0
 19 18  2  0
 20 21  2  0
 20 19  1  0
 21 16  1  0
 22 14  1  0
 23 22  2  0
 25 24  1  6
 25 27  1  0
 25 26  1  0
 26 22  1  0
 27 29  1  0
 28 27  2  0
M  END
$$$$
