YFA.pdb
     RDKit          3D

 29 30  0  0  1  0  0  0  0  0999 V2000
    7.4688  -13.6137   16.1400 O   0  0  0  0  0  0  0  0  0  0  0  0
    7.8305  -13.7112   17.4923 C   0  0  0  0  0  0  0  0  0  0  0  0
    8.8813  -14.5015   17.8422 C   0  0  0  0  0  0  0  0  0  0  0  0
    9.2419  -14.6022   19.1650 C   0  0  0  0  0  0  0  0  0  0  0  0
    8.5442  -13.9047   20.1516 C   0  0  0  0  0  0  0  0  0  0  0  0
    8.9858  -14.0605   21.5419 C   0  0  0  0  0  0  0  0  0  0  0  0
    8.9823  -15.5308   21.9211 C   0  0  2  0  0  0  0  0  0  0  0  0
    7.7148  -16.1557   21.5924 N   0  0  0  0  0  0  0  0  0  0  0  0
    9.1305  -15.5739   23.4106 C   0  0  0  0  0  0  0  0  0  0  0  0
   10.1422  -15.0963   23.9866 O   0  0  0  0  0  0  0  0  0  0  0  0
    7.4881  -13.1120   19.7890 C   0  0  0  0  0  0  0  0  0  0  0  0
    7.1340  -13.0178   18.4565 C   0  0  0  0  0  0  0  0  0  0  0  0
    8.1262  -16.1598   24.2273 N   0  0  0  0  0  0  0  0  0  0  0  0
    8.3088  -16.2326   25.6424 C   0  0  1  0  0  0  0  0  0  0  0  0
    7.1095  -15.7171   26.4130 C   0  0  0  0  0  0  0  0  0  0  0  0
    7.1342  -14.2621   26.5862 C   0  0  0  0  0  0  0  0  0  0  0  0
    8.1847  -13.5792   27.1654 C   0  0  0  0  0  0  0  0  0  0  0  0
    8.1796  -12.2112   27.3148 C   0  0  0  0  0  0  0  0  0  0  0  0
    7.0936  -11.4676   26.8769 C   0  0  0  0  0  0  0  0  0  0  0  0
    6.0341  -12.1279   26.2960 C   0  0  0  0  0  0  0  0  0  0  0  0
    6.0615  -13.5058   26.1561 C   0  0  0  0  0  0  0  0  0  0  0  0
    8.6763  -17.6091   26.0873 C   0  0  0  0  0  0  0  0  0  0  0  0
    7.7699  -18.4661   26.2443 O   0  0  0  0  0  0  0  0  0  0  0  0
   11.9082  -19.4423   26.2818 C   0  0  0  0  0  0  0  0  0  0  0  0
   10.4560  -19.2668   26.7373 C   0  0  2  0  0  0  0  0  0  0  0  0
   10.0316  -17.9559   26.3328 N   0  0  0  0  0  0  0  0  0  0  0  0
   10.4663  -19.4316   28.2125 C   0  0  0  0  0  0  0  0  0  0  0  0
   10.7042  -20.5116   28.8064 O   0  0  0  0  0  0  0  0  0  0  0  0
   10.1942  -18.3143   28.9882 O   0  0  0  0  0  0  0  0  0  0  0  0
  2  1  1  0
  3  2  2  0
  4  3  1  0
  5 11  1  0
  5  4  2  0
  6  5  1  0
  7  6  1  0
  7  8  1  1
  9  7  1  0
  9 10  2  0
 11 12  2  0
 12  2  1  0
 13  9  1  0
 14 13  1  0
 14 15  1  1
 16 15  1  0
 16 17  2  0
 18 17  1  0
 19 18  2  0
 20 21  2  0
 20 19  1  0
 21 16  1  0
 22 14  1  0
 23 22  2  0
 25 24  1  1
 25 27  1  0
 25 26  1  0
 26 22  1  0
 27 29  1  0
 28 27  2  0
M  END
$$$$
