YFA.pdb
     RDKit          3D

 29 30  0  0  1  0  0  0  0  0999 V2000
    6.6373  -19.9813   15.6102 O   0  0  0  0  0  0  0  0  0  0  0  0
    7.1655  -19.4877   16.8130 C   0  0  0  0  0  0  0  0  0  0  0  0
    6.3154  -19.1330   17.8143 C   0  0  0  0  0  0  0  0  0  0  0  0
    6.8251  -18.6486   18.9956 C   0  0  0  0  0  0  0  0  0  0  0  0
    8.2018  -18.5165   19.1797 C   0  0  0  0  0  0  0  0  0  0  0  0
    8.6731  -17.9927   20.4665 C   0  0  0  0  0  0  0  0  0  0  0  0
    9.1938  -16.5778   20.2863 C   0  0  2  0  0  0  0  0  0  0  0  0
   10.5304  -16.5772   19.7217 N   0  0  0  0  0  0  0  0  0  0  0  0
    9.2878  -15.9936   21.6619 C   0  0  0  0  0  0  0  0  0  0  0  0
   10.3371  -16.0916   22.3496 O   0  0  0  0  0  0  0  0  0  0  0  0
    9.0489  -18.8763   18.1657 C   0  0  0  0  0  0  0  0  0  0  0  0
    8.5260  -19.3621   16.9823 C   0  0  0  0  0  0  0  0  0  0  0  0
    8.1872  -15.3048   22.2390 N   0  0  0  0  0  0  0  0  0  0  0  0
    8.3052  -14.7370   23.5447 C   0  0  1  0  0  0  0  0  0  0  0  0
    7.2178  -13.7230   23.8406 C   0  0  0  0  0  0  0  0  0  0  0  0
    7.2710  -13.2259   25.2181 C   0  0  0  0  0  0  0  0  0  0  0  0
    8.2531  -12.3767   25.6868 C   0  0  0  0  0  0  0  0  0  0  0  0
    8.2770  -11.9262   26.9869 C   0  0  0  0  0  0  0  0  0  0  0  0
    7.2920  -12.3235   27.8792 C   0  0  0  0  0  0  0  0  0  0  0  0
    6.3022  -13.1705   27.4335 C   0  0  0  0  0  0  0  0  0  0  0  0
    6.2985  -13.6112   26.1202 C   0  0  0  0  0  0  0  0  0  0  0  0
    8.3592  -15.7850   24.6060 C   0  0  0  0  0  0  0  0  0  0  0  0
    7.3441  -16.4955   24.8196 O   0  0  0  0  0  0  0  0  0  0  0  0
   10.8279  -17.9414   25.8652 C   0  0  0  0  0  0  0  0  0  0  0  0
    9.6901  -17.0326   26.3411 C   0  0  2  0  0  0  0  0  0  0  0  0
    9.5394  -15.9847   25.3707 N   0  0  0  0  0  0  0  0  0  0  0  0
   10.1033  -16.5208   27.6717 C   0  0  0  0  0  0  0  0  0  0  0  0
   10.3572  -15.3176   27.9243 O   0  0  0  0  0  0  0  0  0  0  0  0
   10.2168  -17.4361   28.7079 O   0  0  0  0  0  0  0  0  0  0  0  0
  2  1  1  0
  3  2  2  0
  4  3  1  0
  5 11  1  0
  5  4  2  0
  6  5  1  0
  7  6  1  0
  7  8  1  1
  9  7  1  0
  9 10  2  0
 11 12  2  0
 12  2  1  0
 13  9  1  0
 14 13  1  0
 14 15  1  1
 16 15  1  0
 16 17  2  0
 18 17  1  0
 19 18  2  0
 20 21  2  0
 20 19  1  0
 21 16  1  0
 22 14  1  0
 23 22  2  0
 25 24  1  6
 25 27  1  0
 25 26  1  0
 26 22  1  0
 27 29  1  0
 28 27  2  0
M  END
$$$$
