YFA.pdb
     RDKit          3D

 29 30  0  0  1  0  0  0  0  0999 V2000
    7.7114  -14.0661   15.4232 O   0  0  0  0  0  0  0  0  0  0  0  0
    7.9942  -14.1326   16.7961 C   0  0  0  0  0  0  0  0  0  0  0  0
    7.9295  -12.9966   17.5421 C   0  0  0  0  0  0  0  0  0  0  0  0
    8.2052  -13.0535   18.8878 C   0  0  0  0  0  0  0  0  0  0  0  0
    8.5501  -14.2605   19.4967 C   0  0  0  0  0  0  0  0  0  0  0  0
    8.8307  -14.2450   20.9366 C   0  0  0  0  0  0  0  0  0  0  0  0
    7.9827  -15.2917   21.6372 C   0  0  2  0  0  0  0  0  0  0  0  0
    6.5734  -14.9518   21.5792 N   0  0  0  0  0  0  0  0  0  0  0  0
    8.3927  -15.2597   23.0772 C   0  0  0  0  0  0  0  0  0  0  0  0
    9.0676  -14.3085   23.5495 O   0  0  0  0  0  0  0  0  0  0  0  0
    8.6124  -15.3981   18.7370 C   0  0  0  0  0  0  0  0  0  0  0  0
    8.3334  -15.3298   17.3852 C   0  0  0  0  0  0  0  0  0  0  0  0
    8.0302  -16.3101   23.9627 N   0  0  0  0  0  0  0  0  0  0  0  0
    8.4452  -16.2676   25.3291 C   0  0  1  0  0  0  0  0  0  0  0  0
    7.3279  -15.8529   26.2658 C   0  0  0  0  0  0  0  0  0  0  0  0
    7.2080  -14.3976   26.3900 C   0  0  0  0  0  0  0  0  0  0  0  0
    6.1495  -13.6719   25.8817 C   0  0  0  0  0  0  0  0  0  0  0  0
    6.0642  -12.3047   26.0138 C   0  0  0  0  0  0  0  0  0  0  0  0
    7.0628  -11.6060   26.6762 C   0  0  0  0  0  0  0  0  0  0  0  0
    8.1284  -12.3095   27.1914 C   0  0  0  0  0  0  0  0  0  0  0  0
    8.1930  -13.6857   27.0463 C   0  0  0  0  0  0  0  0  0  0  0  0
    9.0563  -17.5571   25.7668 C   0  0  0  0  0  0  0  0  0  0  0  0
    8.3320  -18.5810   25.8552 O   0  0  0  0  0  0  0  0  0  0  0  0
   12.5915  -18.6041   26.4858 C   0  0  0  0  0  0  0  0  0  0  0  0
   11.0780  -18.8291   26.5623 C   0  0  2  0  0  0  0  0  0  0  0  0
   10.4390  -17.6361   26.0818 N   0  0  0  0  0  0  0  0  0  0  0  0
   10.7755  -19.1011   27.9898 C   0  0  0  0  0  0  0  0  0  0  0  0
   10.0969  -18.3477   28.7298 O   0  0  0  0  0  0  0  0  0  0  0  0
   11.2779  -20.2693   28.5442 O   0  0  0  0  0  0  0  0  0  0  0  0
  2  1  1  0
  3  2  2  0
  4  3  1  0
  5 11  1  0
  5  4  2  0
  6  5  1  0
  7  6  1  0
  7  8  1  1
  9  7  1  0
  9 10  2  0
 11 12  2  0
 12  2  1  0
 13  9  1  0
 14 13  1  0
 14 15  1  1
 16 15  1  0
 16 17  2  0
 18 17  1  0
 19 18  2  0
 20 21  2  0
 20 19  1  0
 21 16  1  0
 22 14  1  0
 23 22  2  0
 25 24  1  1
 25 27  1  0
 25 26  1  0
 26 22  1  0
 27 29  1  0
 28 27  2  0
M  END
$$$$
