YFA.pdb
     RDKit          3D

 29 30  0  0  1  0  0  0  0  0999 V2000
    7.2827  -12.9229   16.3566 O   0  0  0  0  0  0  0  0  0  0  0  0
    7.6175  -13.9566   17.2447 C   0  0  0  0  0  0  0  0  0  0  0  0
    8.7310  -13.8327   18.0167 C   0  0  0  0  0  0  0  0  0  0  0  0
    9.0656  -14.8411   18.8892 C   0  0  0  0  0  0  0  0  0  0  0  0
    8.2783  -15.9883   18.9923 C   0  0  0  0  0  0  0  0  0  0  0  0
    8.6971  -17.0224   19.9448 C   0  0  0  0  0  0  0  0  0  0  0  0
    9.9772  -16.5936   20.6399 C   0  0  2  0  0  0  0  0  0  0  0  0
   10.9527  -17.6676   20.6550 N   0  0  0  0  0  0  0  0  0  0  0  0
    9.6008  -16.3097   22.0612 C   0  0  0  0  0  0  0  0  0  0  0  0
   10.0560  -16.9951   23.0133 O   0  0  0  0  0  0  0  0  0  0  0  0
    7.1597  -16.1032   18.2108 C   0  0  0  0  0  0  0  0  0  0  0  0
    6.8324  -15.0837   17.3371 C   0  0  0  0  0  0  0  0  0  0  0  0
    8.7110  -15.2496   22.3826 N   0  0  0  0  0  0  0  0  0  0  0  0
    8.5273  -14.8595   23.7447 C   0  0  1  0  0  0  0  0  0  0  0  0
    7.6440  -13.6358   23.8873 C   0  0  0  0  0  0  0  0  0  0  0  0
    7.5394  -13.1752   25.2745 C   0  0  0  0  0  0  0  0  0  0  0  0
    8.5959  -12.6407   25.9841 C   0  0  0  0  0  0  0  0  0  0  0  0
    8.4674  -12.2165   27.2869 C   0  0  0  0  0  0  0  0  0  0  0  0
    7.2447  -12.3177   27.9342 C   0  0  0  0  0  0  0  0  0  0  0  0
    6.1767  -12.8479   27.2457 C   0  0  0  0  0  0  0  0  0  0  0  0
    6.3297  -13.2685   25.9347 C   0  0  0  0  0  0  0  0  0  0  0  0
    8.0185  -15.9844   24.5834 C   0  0  0  0  0  0  0  0  0  0  0  0
    6.8234  -16.3535   24.4558 O   0  0  0  0  0  0  0  0  0  0  0  0
    8.9332  -19.0110   25.8165 C   0  0  0  0  0  0  0  0  0  0  0  0
    8.4273  -17.6852   26.3939 C   0  0  2  0  0  0  0  0  0  0  0  0
    8.8672  -16.6363   25.5173 N   0  0  0  0  0  0  0  0  0  0  0  0
    9.0178  -17.5773   27.7515 C   0  0  0  0  0  0  0  0  0  0  0  0
    8.7691  -18.3608   28.7002 O   0  0  0  0  0  0  0  0  0  0  0  0
    9.9060  -16.5384   27.9877 O   0  0  0  0  0  0  0  0  0  0  0  0
  2  1  1  0
  3  2  2  0
  4  3  1  0
  5 11  1  0
  5  4  2  0
  6  5  1  0
  7  6  1  0
  7  8  1  1
  9  7  1  0
  9 10  2  0
 11 12  2  0
 12  2  1  0
 13  9  1  0
 14 13  1  0
 14 15  1  6
 16 15  1  0
 16 17  2  0
 18 17  1  0
 19 18  2  0
 20 21  2  0
 20 19  1  0
 21 16  1  0
 22 14  1  0
 23 22  2  0
 25 24  1  6
 25 27  1  0
 25 26  1  0
 26 22  1  0
 27 29  1  0
 28 27  2  0
M  END
$$$$
