YFA.pdb
     RDKit          3D

 29 30  0  0  1  0  0  0  0  0999 V2000
   10.8107  -21.1796   16.7572 O   0  0  0  0  0  0  0  0  0  0  0  0
   10.2046  -20.2018   17.5609 C   0  0  0  0  0  0  0  0  0  0  0  0
   10.7917  -18.9797   17.6743 C   0  0  0  0  0  0  0  0  0  0  0  0
   10.2041  -18.0164   18.4598 C   0  0  0  0  0  0  0  0  0  0  0  0
    9.0146  -18.2767   19.1409 C   0  0  0  0  0  0  0  0  0  0  0  0
    8.4456  -17.2009   19.9601 C   0  0  0  0  0  0  0  0  0  0  0  0
    9.2508  -17.0467   21.2382 C   0  0  2  0  0  0  0  0  0  0  0  0
    9.2195  -18.2624   22.0295 N   0  0  0  0  0  0  0  0  0  0  0  0
    8.5660  -15.9772   22.0317 C   0  0  0  0  0  0  0  0  0  0  0  0
    7.3148  -15.9530   22.1634 O   0  0  0  0  0  0  0  0  0  0  0  0
    8.4317  -19.5100   19.0200 C   0  0  0  0  0  0  0  0  0  0  0  0
    9.0307  -20.4710   18.2280 C   0  0  0  0  0  0  0  0  0  0  0  0
    9.3125  -14.9481   22.6662 N   0  0  0  0  0  0  0  0  0  0  0  0
    8.8877  -14.4324   23.9290 C   0  0  1  0  0  0  0  0  0  0  0  0
    7.4070  -14.1092   23.9593 C   0  0  0  0  0  0  0  0  0  0  0  0
    7.0227  -13.3389   25.1453 C   0  0  0  0  0  0  0  0  0  0  0  0
    6.7318  -11.9898   25.1191 C   0  0  0  0  0  0  0  0  0  0  0  0
    6.3736  -11.2925   26.2502 C   0  0  0  0  0  0  0  0  0  0  0  0
    6.2943  -11.9431   27.4727 C   0  0  0  0  0  0  0  0  0  0  0  0
    6.5802  -13.2891   27.5225 C   0  0  0  0  0  0  0  0  0  0  0  0
    6.9387  -13.9704   26.3709 C   0  0  0  0  0  0  0  0  0  0  0  0
    9.2581  -15.3393   25.0550 C   0  0  0  0  0  0  0  0  0  0  0  0
    9.4982  -14.8468   26.1866 O   0  0  0  0  0  0  0  0  0  0  0  0
    9.3836  -19.0729   25.4140 C   0  0  0  0  0  0  0  0  0  0  0  0
    9.7683  -17.6638   25.8762 C   0  0  2  0  0  0  0  0  0  0  0  0
    9.3408  -16.7438   24.8599 N   0  0  0  0  0  0  0  0  0  0  0  0
   11.2427  -17.6770   26.0481 C   0  0  0  0  0  0  0  0  0  0  0  0
   11.8524  -18.3511   26.9139 O   0  0  0  0  0  0  0  0  0  0  0  0
   11.9988  -16.8896   25.1923 O   0  0  0  0  0  0  0  0  0  0  0  0
  2  1  1  0
  3  2  2  0
  4  3  1  0
  5 11  1  0
  5  4  2  0
  6  5  1  0
  7  6  1  0
  7  8  1  1
  9  7  1  0
  9 10  2  0
 11 12  2  0
 12  2  1  0
 13  9  1  0
 14 13  1  0
 14 15  1  6
 16 15  1  0
 16 17  2  0
 18 17  1  0
 19 18  2  0
 20 21  2  0
 20 19  1  0
 21 16  1  0
 22 14  1  0
 23 22  2  0
 25 24  1  6
 25 27  1  0
 25 26  1  0
 26 22  1  0
 27 29  1  0
 28 27  2  0
M  END
$$$$
