SYR.pdb
     RDKit          3D

 30 30  0  0  1  0  0  0  0  0999 V2000
   12.0205  -18.0992   28.0391 O   0  0  0  0  0  0  0  0  0  0  0  0
   10.9459  -18.1988   27.1818 C   0  0  0  0  0  0  0  0  0  0  0  0
    9.6708  -18.6189   27.9211 C   0  0  2  0  0  0  0  0  0  0  0  0
    9.8063  -20.0066   28.2932 N   0  0  0  0  0  0  0  0  0  0  0  0
    8.5618  -18.4468   26.9271 C   0  0  0  0  0  0  0  0  0  0  0  0
    8.0957  -19.4596   26.3498 O   0  0  0  0  0  0  0  0  0  0  0  0
    8.1047  -10.6660   25.7892 O   0  0  0  0  0  0  0  0  0  0  0  0
    7.5731  -11.9586   25.8618 C   0  0  0  0  0  0  0  0  0  0  0  0
    7.8164  -12.7877   26.9360 C   0  0  0  0  0  0  0  0  0  0  0  0
    7.3079  -14.0642   27.0366 C   0  0  0  0  0  0  0  0  0  0  0  0
    6.5183  -14.5398   26.0185 C   0  0  0  0  0  0  0  0  0  0  0  0
    5.9642  -15.9068   26.1173 C   0  0  0  0  0  0  0  0  0  0  0  0
    6.9239  -16.9882   25.6766 C   0  0  2  0  0  0  0  0  0  0  0  0
    8.0094  -17.1842   26.6052 N   0  0  0  0  0  0  0  0  0  0  0  0
    7.3826  -16.7280   24.3097 C   0  0  0  0  0  0  0  0  0  0  0  0
    6.5838  -16.3786   23.4161 O   0  0  0  0  0  0  0  0  0  0  0  0
    6.2483  -13.7509   24.9286 C   0  0  0  0  0  0  0  0  0  0  0  0
    6.7757  -12.4784   24.8644 C   0  0  0  0  0  0  0  0  0  0  0  0
    8.0604  -11.9303   18.1596 N   0  0  0  0  0  0  0  0  0  0  0  0
    7.7150  -13.2176   17.6375 C   0  0  0  0  0  0  0  0  0  0  0  0
    7.3715  -13.3047   16.4019 N   0  0  0  0  0  0  0  0  0  0  0  0
    7.7612  -14.3538   18.4925 N   0  0  0  0  0  0  0  0  0  0  0  0
    8.2646  -14.1568   19.8283 C   0  0  0  0  0  0  0  0  0  0  0  0
    8.1261  -15.3849   20.6897 C   0  0  0  0  0  0  0  0  0  0  0  0
    8.7136  -15.1817   22.0707 C   0  0  0  0  0  0  0  0  0  0  0  0
    9.2517  -16.4509   22.6283 C   0  0  2  0  0  0  0  0  0  0  0  0
    8.7451  -16.8481   23.8913 N   0  0  0  0  0  0  0  0  0  0  0  0
   10.7338  -16.3995   22.7140 C   0  0  0  0  0  0  0  0  0  0  0  0
   11.4572  -16.3883   21.6880 O   0  0  0  0  0  0  0  0  0  0  0  0
   11.3654  -16.3620   23.9469 O   0  0  0  0  0  0  0  0  0  0  0  0
  1  2  1  0
  3  4  1  6
  3  2  1  0
  5  3  1  0
  6  5  2  0
  8  9  2  0
  8  7  1  0
 10  9  1  0
 11 10  2  0
 12 11  1  0
 13 12  1  1
 13 14  1  0
 14  5  1  0
 15 27  1  0
 15 13  1  0
 16 15  2  0
 17 11  1  0
 17 18  2  0
 18  8  1  0
 20 19  1  0
 21 20  2  0
 22 20  1  0
 23 22  1  0
 24 25  1  0
 24 23  1  0
 26 25  1  1
 26 27  1  0
 28 26  1  0
 28 30  1  0
 29 28  2  0
M  END
$$$$
