SYR.pdb
     RDKit          3D

 30 30  0  0  1  0  0  0  0  0999 V2000
    8.4607  -22.5006   21.7752 O   0  0  0  0  0  0  0  0  0  0  0  0
    8.8915  -21.2167   21.5183 C   0  0  0  0  0  0  0  0  0  0  0  0
    8.5698  -20.7901   20.0818 C   0  0  2  0  0  0  0  0  0  0  0  0
    9.3924  -21.5704   19.1889 N   0  0  0  0  0  0  0  0  0  0  0  0
    8.9418  -19.3398   20.0067 C   0  0  0  0  0  0  0  0  0  0  0  0
   10.0558  -19.0184   19.5251 O   0  0  0  0  0  0  0  0  0  0  0  0
    8.4307  -10.4898   19.8864 O   0  0  0  0  0  0  0  0  0  0  0  0
    8.1323  -11.8535   19.9859 C   0  0  0  0  0  0  0  0  0  0  0  0
    7.7380  -12.4287   21.1751 C   0  0  0  0  0  0  0  0  0  0  0  0
    7.4375  -13.7670   21.3050 C   0  0  0  0  0  0  0  0  0  0  0  0
    7.5340  -14.5733   20.1974 C   0  0  0  0  0  0  0  0  0  0  0  0
    7.2107  -16.0103   20.3241 C   0  0  0  0  0  0  0  0  0  0  0  0
    8.4261  -16.9035   20.4222 C   0  0  2  0  0  0  0  0  0  0  0  0
    8.0883  -18.3048   20.4576 N   0  0  0  0  0  0  0  0  0  0  0  0
    9.2649  -16.4903   21.5501 C   0  0  0  0  0  0  0  0  0  0  0  0
    8.8086  -15.7756   22.4664 O   0  0  0  0  0  0  0  0  0  0  0  0
    7.9226  -14.0458   18.9917 C   0  0  0  0  0  0  0  0  0  0  0  0
    8.2150  -12.7011   18.9017 C   0  0  0  0  0  0  0  0  0  0  0  0
    9.4921  -16.7188   28.6772 N   0  0  0  0  0  0  0  0  0  0  0  0
   10.8740  -17.0855   28.7467 C   0  0  0  0  0  0  0  0  0  0  0  0
   11.4722  -17.0045   29.8816 N   0  0  0  0  0  0  0  0  0  0  0  0
   11.5404  -17.5252   27.5691 N   0  0  0  0  0  0  0  0  0  0  0  0
   10.7885  -17.5141   26.3399 C   0  0  0  0  0  0  0  0  0  0  0  0
   11.5805  -18.0327   25.1681 C   0  0  0  0  0  0  0  0  0  0  0  0
   10.7835  -17.9974   23.8809 C   0  0  0  0  0  0  0  0  0  0  0  0
   11.3249  -16.9906   22.9297 C   0  0  2  0  0  0  0  0  0  0  0  0
   10.6394  -16.8581   21.6960 N   0  0  0  0  0  0  0  0  0  0  0  0
   12.7576  -17.2577   22.6425 C   0  0  0  0  0  0  0  0  0  0  0  0
   13.1156  -18.0714   21.7561 O   0  0  0  0  0  0  0  0  0  0  0  0
   13.7507  -16.6059   23.3562 O   0  0  0  0  0  0  0  0  0  0  0  0
  1  2  1  0
  3  4  1  6
  3  2  1  0
  5  3  1  0
  6  5  2  0
  8  9  2  0
  8  7  1  0
 10  9  1  0
 11 10  2  0
 12 11  1  0
 13 12  1  1
 13 14  1  0
 14  5  1  0
 15 27  1  0
 15 13  1  0
 16 15  2  0
 17 11  1  0
 17 18  2  0
 18  8  1  0
 20 19  1  0
 21 20  2  0
 22 20  1  0
 23 22  1  0
 24 25  1  0
 24 23  1  0
 26 25  1  6
 26 27  1  0
 28 26  1  0
 28 30  1  0
 29 28  2  0
M  END
$$$$
