SYR.pdb
     RDKit          3D

 30 30  0  0  1  0  0  0  0  0999 V2000
    9.1768  -20.5479   21.0694 O   0  0  0  0  0  0  0  0  0  0  0  0
    9.7201  -19.8565   20.0080 C   0  0  0  0  0  0  0  0  0  0  0  0
    9.0489  -18.4915   19.8203 C   0  0  2  0  0  0  0  0  0  0  0  0
    9.6792  -17.8335   18.7012 N   0  0  0  0  0  0  0  0  0  0  0  0
    9.3162  -17.7409   21.0902 C   0  0  0  0  0  0  0  0  0  0  0  0
   10.4599  -17.2624   21.2885 O   0  0  0  0  0  0  0  0  0  0  0  0
    7.9497  -11.9436   19.1659 O   0  0  0  0  0  0  0  0  0  0  0  0
    7.8788  -12.8483   20.2313 C   0  0  0  0  0  0  0  0  0  0  0  0
    6.9321  -13.8494   20.2760 C   0  0  0  0  0  0  0  0  0  0  0  0
    6.8368  -14.7547   21.3102 C   0  0  0  0  0  0  0  0  0  0  0  0
    7.7270  -14.6598   22.3517 C   0  0  0  0  0  0  0  0  0  0  0  0
    7.6365  -15.6280   23.4651 C   0  0  0  0  0  0  0  0  0  0  0  0
    8.5531  -16.8202   23.3138 C   0  0  2  0  0  0  0  0  0  0  0  0
    8.3307  -17.5439   22.0866 N   0  0  0  0  0  0  0  0  0  0  0  0
    8.4702  -17.6733   24.5020 C   0  0  0  0  0  0  0  0  0  0  0  0
    7.3929  -18.2056   24.8407 O   0  0  0  0  0  0  0  0  0  0  0  0
    8.6873  -13.6795   22.3513 C   0  0  0  0  0  0  0  0  0  0  0  0
    8.7507  -12.7918   21.2978 C   0  0  0  0  0  0  0  0  0  0  0  0
   13.4876  -20.1113   31.3457 N   0  0  0  0  0  0  0  0  0  0  0  0
   13.9466  -20.4867   30.0428 C   0  0  0  0  0  0  0  0  0  0  0  0
   15.1918  -20.7665   29.8900 N   0  0  0  0  0  0  0  0  0  0  0  0
   13.0206  -20.5393   28.9640 N   0  0  0  0  0  0  0  0  0  0  0  0
   11.6798  -20.0775   29.2196 C   0  0  0  0  0  0  0  0  0  0  0  0
   10.7468  -20.3299   28.0641 C   0  0  0  0  0  0  0  0  0  0  0  0
   10.8886  -19.2841   26.9779 C   0  0  0  0  0  0  0  0  0  0  0  0
    9.5647  -18.8648   26.4462 C   0  0  2  0  0  0  0  0  0  0  0  0
    9.5827  -17.9621   25.3533 N   0  0  0  0  0  0  0  0  0  0  0  0
    8.7285  -18.2775   27.5243 C   0  0  0  0  0  0  0  0  0  0  0  0
    8.7544  -17.0507   27.7895 O   0  0  0  0  0  0  0  0  0  0  0  0
    7.8858  -19.0805   28.2763 O   0  0  0  0  0  0  0  0  0  0  0  0
  1  2  1  0
  3  4  1  6
  3  2  1  0
  5  3  1  0
  6  5  2  0
  8  9  2  0
  8  7  1  0
 10  9  1  0
 11 10  2  0
 12 11  1  0
 13 12  1  1
 13 14  1  0
 14  5  1  0
 15 27  1  0
 15 13  1  0
 16 15  2  0
 17 11  1  0
 17 18  2  0
 18  8  1  0
 20 19  1  0
 21 20  2  0
 22 20  1  0
 23 22  1  0
 24 25  1  0
 24 23  1  0
 26 25  1  1
 26 27  1  0
 28 26  1  0
 28 30  1  0
 29 28  2  0
M  END
$$$$
