SYR.pdb
     RDKit          3D

 30 30  0  0  1  0  0  0  0  0999 V2000
    8.5796  -16.5821   18.3644 O   0  0  0  0  0  0  0  0  0  0  0  0
    9.3338  -17.4830   19.0852 C   0  0  0  0  0  0  0  0  0  0  0  0
    8.7018  -17.7853   20.4483 C   0  0  2  0  0  0  0  0  0  0  0  0
    7.2691  -17.6814   20.3097 N   0  0  0  0  0  0  0  0  0  0  0  0
    9.2194  -16.7217   21.3694 C   0  0  0  0  0  0  0  0  0  0  0  0
   10.4596  -16.5699   21.4923 O   0  0  0  0  0  0  0  0  0  0  0  0
    6.0881  -12.1374   28.1087 O   0  0  0  0  0  0  0  0  0  0  0  0
    6.5320  -12.4928   26.8299 C   0  0  0  0  0  0  0  0  0  0  0  0
    6.0698  -13.6202   26.1849 C   0  0  0  0  0  0  0  0  0  0  0  0
    6.4872  -13.9965   24.9270 C   0  0  0  0  0  0  0  0  0  0  0  0
    7.4098  -13.2129   24.2782 C   0  0  0  0  0  0  0  0  0  0  0  0
    7.8623  -13.6050   22.9265 C   0  0  0  0  0  0  0  0  0  0  0  0
    8.8285  -14.7673   22.9191 C   0  0  2  0  0  0  0  0  0  0  0  0
    8.3679  -15.8718   22.1147 N   0  0  0  0  0  0  0  0  0  0  0  0
    9.1554  -15.1592   24.2925 C   0  0  0  0  0  0  0  0  0  0  0  0
    9.9295  -14.4741   24.9925 O   0  0  0  0  0  0  0  0  0  0  0  0
    7.8988  -12.0809   24.8803 C   0  0  0  0  0  0  0  0  0  0  0  0
    7.4565  -11.7373   26.1405 C   0  0  0  0  0  0  0  0  0  0  0  0
   13.1093  -22.2853   23.9654 N   0  0  0  0  0  0  0  0  0  0  0  0
   13.5869  -20.9796   23.6249 C   0  0  0  0  0  0  0  0  0  0  0  0
   14.6141  -20.8846   22.8578 N   0  0  0  0  0  0  0  0  0  0  0  0
   12.9179  -19.8345   24.1398 N   0  0  0  0  0  0  0  0  0  0  0  0
   11.8487  -20.0594   25.0793 C   0  0  0  0  0  0  0  0  0  0  0  0
   11.3771  -18.7901   25.7395 C   0  0  0  0  0  0  0  0  0  0  0  0
   10.4519  -17.9920   24.8449 C   0  0  0  0  0  0  0  0  0  0  0  0
    9.4013  -17.2915   25.6304 C   0  0  2  0  0  0  0  0  0  0  0  0
    8.6323  -16.3265   24.9326 N   0  0  0  0  0  0  0  0  0  0  0  0
    9.9887  -16.6428   26.8306 C   0  0  0  0  0  0  0  0  0  0  0  0
   10.6805  -17.2840   27.6591 O   0  0  0  0  0  0  0  0  0  0  0  0
    9.7852  -15.2931   27.0703 O   0  0  0  0  0  0  0  0  0  0  0  0
  1  2  1  0
  3  4  1  6
  3  2  1  0
  5  3  1  0
  6  5  2  0
  8  9  2  0
  8  7  1  0
 10  9  1  0
 11 10  2  0
 12 11  1  0
 13 12  1  1
 13 14  1  0
 14  5  1  0
 15 27  1  0
 15 13  1  0
 16 15  2  0
 17 11  1  0
 17 18  2  0
 18  8  1  0
 20 19  1  0
 21 20  2  0
 22 20  1  0
 23 22  1  0
 24 25  1  0
 24 23  1  0
 26 25  1  6
 26 27  1  0
 28 26  1  0
 28 30  1  0
 29 28  2  0
M  END
$$$$
