SYR.pdb
     RDKit          3D

 30 30  0  0  1  0  0  0  0  0999 V2000
    8.2704  -16.5271   19.1560 O   0  0  0  0  0  0  0  0  0  0  0  0
    8.7499  -15.5368   18.3257 C   0  0  0  0  0  0  0  0  0  0  0  0
    8.1374  -14.1727   18.6616 C   0  0  2  0  0  0  0  0  0  0  0  0
    8.7403  -13.1868   17.7972 N   0  0  0  0  0  0  0  0  0  0  0  0
    8.5062  -13.9142   20.0915 C   0  0  0  0  0  0  0  0  0  0  0  0
    9.6200  -13.3961   20.3515 O   0  0  0  0  0  0  0  0  0  0  0  0
    7.6920  -12.3274   28.7755 O   0  0  0  0  0  0  0  0  0  0  0  0
    7.4366  -12.6656   27.4417 C   0  0  0  0  0  0  0  0  0  0  0  0
    7.7135  -11.8008   26.4044 C   0  0  0  0  0  0  0  0  0  0  0  0
    7.4737  -12.1044   25.0821 C   0  0  0  0  0  0  0  0  0  0  0  0
    6.9317  -13.3287   24.7761 C   0  0  0  0  0  0  0  0  0  0  0  0
    6.6734  -13.6668   23.3603 C   0  0  0  0  0  0  0  0  0  0  0  0
    7.9276  -13.8977   22.5489 C   0  0  2  0  0  0  0  0  0  0  0  0
    7.6501  -14.2294   21.1734 N   0  0  0  0  0  0  0  0  0  0  0  0
    8.7821  -14.8855   23.2127 C   0  0  0  0  0  0  0  0  0  0  0  0
    9.2927  -14.6522   24.3278 O   0  0  0  0  0  0  0  0  0  0  0  0
    6.6392  -14.2229   25.7750 C   0  0  0  0  0  0  0  0  0  0  0  0
    6.8937  -13.8823   27.0869 C   0  0  0  0  0  0  0  0  0  0  0  0
   14.4569  -13.3856   18.9262 N   0  0  0  0  0  0  0  0  0  0  0  0
   14.5180  -14.6804   19.5335 C   0  0  0  0  0  0  0  0  0  0  0  0
   15.6732  -15.1779   19.7987 N   0  0  0  0  0  0  0  0  0  0  0  0
   13.3101  -15.3737   19.8239 N   0  0  0  0  0  0  0  0  0  0  0  0
   13.1130  -15.8204   21.1797 C   0  0  0  0  0  0  0  0  0  0  0  0
   11.6850  -16.2069   21.4636 C   0  0  0  0  0  0  0  0  0  0  0  0
   11.4978  -16.6928   22.8857 C   0  0  0  0  0  0  0  0  0  0  0  0
   10.0815  -17.0548   23.1581 C   0  0  2  0  0  0  0  0  0  0  0  0
    9.0973  -16.1656   22.6579 N   0  0  0  0  0  0  0  0  0  0  0  0
    9.8559  -17.2302   24.6158 C   0  0  0  0  0  0  0  0  0  0  0  0
    9.0152  -16.5415   25.2442 O   0  0  0  0  0  0  0  0  0  0  0  0
   10.5784  -18.1726   25.3302 O   0  0  0  0  0  0  0  0  0  0  0  0
  1  2  1  0
  3  4  1  6
  3  2  1  0
  5  3  1  0
  6  5  2  0
  8  9  2  0
  8  7  1  0
 10  9  1  0
 11 10  2  0
 12 11  1  0
 13 12  1  1
 13 14  1  0
 14  5  1  0
 15 27  1  0
 15 13  1  0
 16 15  2  0
 17 11  1  0
 17 18  2  0
 18  8  1  0
 20 19  1  0
 21 20  2  0
 22 20  1  0
 23 22  1  0
 24 25  1  0
 24 23  1  0
 26 25  1  1
 26 27  1  0
 28 26  1  0
 28 30  1  0
 29 28  2  0
M  END
$$$$
