SYR.pdb
     RDKit          3D

 30 30  0  0  1  0  0  0  0  0999 V2000
    7.7017  -16.4932   19.6011 O   0  0  0  0  0  0  0  0  0  0  0  0
    6.6437  -15.7297   20.0456 C   0  0  0  0  0  0  0  0  0  0  0  0
    7.1093  -14.3599   20.5515 C   0  0  2  0  0  0  0  0  0  0  0  0
    7.7529  -13.6741   19.4569 N   0  0  0  0  0  0  0  0  0  0  0  0
    8.0965  -14.6546   21.6405 C   0  0  0  0  0  0  0  0  0  0  0  0
    9.3243  -14.5654   21.3934 O   0  0  0  0  0  0  0  0  0  0  0  0
    6.7304   -9.7487   26.7505 O   0  0  0  0  0  0  0  0  0  0  0  0
    7.0484  -11.0699   26.4160 C   0  0  0  0  0  0  0  0  0  0  0  0
    6.0754  -12.0264   26.2185 C   0  0  0  0  0  0  0  0  0  0  0  0
    6.3564  -13.3342   25.8886 C   0  0  0  0  0  0  0  0  0  0  0  0
    7.6701  -13.7096   25.7482 C   0  0  0  0  0  0  0  0  0  0  0  0
    7.9833  -15.1094   25.3909 C   0  0  0  0  0  0  0  0  0  0  0  0
    8.6278  -15.2634   24.0324 C   0  0  2  0  0  0  0  0  0  0  0  0
    7.7066  -15.0324   22.9475 N   0  0  0  0  0  0  0  0  0  0  0  0
    9.3043  -16.5597   23.9400 C   0  0  0  0  0  0  0  0  0  0  0  0
    8.6562  -17.6266   23.9241 O   0  0  0  0  0  0  0  0  0  0  0  0
    8.6735  -12.7923   25.9350 C   0  0  0  0  0  0  0  0  0  0  0  0
    8.3521  -11.4923   26.2645 C   0  0  0  0  0  0  0  0  0  0  0  0
   15.2591  -14.7403   20.1823 N   0  0  0  0  0  0  0  0  0  0  0  0
   13.8683  -14.4043   20.2241 C   0  0  0  0  0  0  0  0  0  0  0  0
   13.4845  -13.3159   19.6581 N   0  0  0  0  0  0  0  0  0  0  0  0
   12.9584  -15.2761   20.8845 N   0  0  0  0  0  0  0  0  0  0  0  0
   13.1090  -16.6901   20.6512 C   0  0  0  0  0  0  0  0  0  0  0  0
   12.0621  -17.5115   21.3573 C   0  0  0  0  0  0  0  0  0  0  0  0
   12.5218  -17.9658   22.7268 C   0  0  0  0  0  0  0  0  0  0  0  0
   11.4084  -17.9448   23.7124 C   0  0  2  0  0  0  0  0  0  0  0  0
   10.7244  -16.7123   23.8627 N   0  0  0  0  0  0  0  0  0  0  0  0
   11.8836  -18.3823   25.0500 C   0  0  0  0  0  0  0  0  0  0  0  0
   11.7255  -17.6737   26.0742 O   0  0  0  0  0  0  0  0  0  0  0  0
   12.5230  -19.6021   25.2041 O   0  0  0  0  0  0  0  0  0  0  0  0
  1  2  1  0
  3  4  1  6
  3  2  1  0
  5  3  1  0
  6  5  2  0
  8  9  2  0
  8  7  1  0
 10  9  1  0
 11 10  2  0
 12 11  1  0
 13 12  1  1
 13 14  1  0
 14  5  1  0
 15 27  1  0
 15 13  1  0
 16 15  2  0
 17 11  1  0
 17 18  2  0
 18  8  1  0
 20 19  1  0
 21 20  2  0
 22 20  1  0
 23 22  1  0
 24 25  1  0
 24 23  1  0
 26 25  1  6
 26 27  1  0
 28 26  1  0
 28 30  1  0
 29 28  2  0
M  END
$$$$
