SYR.pdb
     RDKit          3D

 30 30  0  0  1  0  0  0  0  0999 V2000
    6.1952  -19.1405   22.3162 O   0  0  0  0  0  0  0  0  0  0  0  0
    5.2139  -18.1726   22.3208 C   0  0  0  0  0  0  0  0  0  0  0  0
    5.8070  -16.7664   22.1801 C   0  0  2  0  0  0  0  0  0  0  0  0
    6.4163  -16.6668   20.8757 N   0  0  0  0  0  0  0  0  0  0  0  0
    6.8470  -16.6659   23.2552 C   0  0  0  0  0  0  0  0  0  0  0  0
    8.0414  -16.9356   22.9777 O   0  0  0  0  0  0  0  0  0  0  0  0
    6.9680   -9.7963   24.7457 O   0  0  0  0  0  0  0  0  0  0  0  0
    6.9977  -11.1102   25.2267 C   0  0  0  0  0  0  0  0  0  0  0  0
    7.9712  -12.0064   24.8401 C   0  0  0  0  0  0  0  0  0  0  0  0
    8.0274  -13.3055   25.2957 C   0  0  0  0  0  0  0  0  0  0  0  0
    7.0678  -13.7346   26.1795 C   0  0  0  0  0  0  0  0  0  0  0  0
    7.1201  -15.1254   26.6778 C   0  0  0  0  0  0  0  0  0  0  0  0
    7.5250  -16.1353   25.6286 C   0  0  2  0  0  0  0  0  0  0  0  0
    6.5435  -16.2776   24.5819 N   0  0  0  0  0  0  0  0  0  0  0  0
    7.8708  -17.4097   26.2632 C   0  0  0  0  0  0  0  0  0  0  0  0
    6.9860  -18.1743   26.7006 O   0  0  0  0  0  0  0  0  0  0  0  0
    6.0785  -12.8784   26.5933 C   0  0  0  0  0  0  0  0  0  0  0  0
    6.0560  -11.5852   26.1147 C   0  0  0  0  0  0  0  0  0  0  0  0
   14.6282  -21.6292   23.5541 N   0  0  0  0  0  0  0  0  0  0  0  0
   14.2600  -20.3208   23.1052 C   0  0  0  0  0  0  0  0  0  0  0  0
   14.7443  -19.8970   21.9924 N   0  0  0  0  0  0  0  0  0  0  0  0
   13.3769  -19.5337   23.8954 N   0  0  0  0  0  0  0  0  0  0  0  0
   12.3212  -20.2227   24.5934 C   0  0  0  0  0  0  0  0  0  0  0  0
   11.5444  -19.3179   25.5138 C   0  0  0  0  0  0  0  0  0  0  0  0
   10.3815  -20.0336   26.1690 C   0  0  0  0  0  0  0  0  0  0  0  0
    9.5814  -19.1126   27.0192 C   0  0  2  0  0  0  0  0  0  0  0  0
    9.2124  -17.8758   26.4328 N   0  0  0  0  0  0  0  0  0  0  0  0
   10.2860  -18.8328   28.2966 C   0  0  0  0  0  0  0  0  0  0  0  0
   10.6576  -19.7540   29.0644 O   0  0  0  0  0  0  0  0  0  0  0  0
   10.5553  -17.5284   28.6795 O   0  0  0  0  0  0  0  0  0  0  0  0
  1  2  1  0
  3  4  1  6
  3  2  1  0
  5  3  1  0
  6  5  2  0
  8  9  2  0
  8  7  1  0
 10  9  1  0
 11 10  2  0
 12 11  1  0
 13 12  1  1
 13 14  1  0
 14  5  1  0
 15 27  1  0
 15 13  1  0
 16 15  2  0
 17 11  1  0
 17 18  2  0
 18  8  1  0
 20 19  1  0
 21 20  2  0
 22 20  1  0
 23 22  1  0
 24 25  1  0
 24 23  1  0
 26 25  1  6
 26 27  1  0
 28 26  1  0
 28 30  1  0
 29 28  2  0
M  END
$$$$
