SYR.pdb
     RDKit          3D

 30 30  0  0  1  0  0  0  0  0999 V2000
    7.6084  -16.0653   19.1933 O   0  0  0  0  0  0  0  0  0  0  0  0
    7.8596  -14.7586   18.8335 C   0  0  0  0  0  0  0  0  0  0  0  0
    7.3162  -13.7723   19.8731 C   0  0  2  0  0  0  0  0  0  0  0  0
    7.5653  -12.4343   19.3929 N   0  0  0  0  0  0  0  0  0  0  0  0
    8.1036  -14.0383   21.1208 C   0  0  0  0  0  0  0  0  0  0  0  0
    9.3081  -13.6873   21.1701 O   0  0  0  0  0  0  0  0  0  0  0  0
    6.3036  -10.0958   27.0098 O   0  0  0  0  0  0  0  0  0  0  0  0
    6.5976  -11.3364   26.4326 C   0  0  0  0  0  0  0  0  0  0  0  0
    5.6406  -12.3179   26.2871 C   0  0  0  0  0  0  0  0  0  0  0  0
    5.8987  -13.5484   25.7234 C   0  0  0  0  0  0  0  0  0  0  0  0
    7.1716  -13.8160   25.2827 C   0  0  0  0  0  0  0  0  0  0  0  0
    7.4593  -15.1316   24.6729 C   0  0  0  0  0  0  0  0  0  0  0  0
    8.3063  -15.0535   23.4234 C   0  0  2  0  0  0  0  0  0  0  0  0
    7.5483  -14.6727   22.2574 N   0  0  0  0  0  0  0  0  0  0  0  0
    9.0475  -16.3037   23.2386 C   0  0  0  0  0  0  0  0  0  0  0  0
    8.4558  -17.3744   22.9895 O   0  0  0  0  0  0  0  0  0  0  0  0
    8.1577  -12.8699   25.4063 C   0  0  0  0  0  0  0  0  0  0  0  0
    7.8602  -11.6497   25.9761 C   0  0  0  0  0  0  0  0  0  0  0  0
   15.5605  -21.4765   22.8225 N   0  0  0  0  0  0  0  0  0  0  0  0
   16.3032  -20.2797   22.5675 C   0  0  0  0  0  0  0  0  0  0  0  0
   17.4914  -20.3872   22.0891 N   0  0  0  0  0  0  0  0  0  0  0  0
   15.7111  -19.0168   22.8479 N   0  0  0  0  0  0  0  0  0  0  0  0
   14.4139  -19.0187   23.4752 C   0  0  0  0  0  0  0  0  0  0  0  0
   13.2932  -18.7848   22.4960 C   0  0  0  0  0  0  0  0  0  0  0  0
   12.6235  -17.4428   22.7058 C   0  0  0  0  0  0  0  0  0  0  0  0
   11.2189  -17.5989   23.1685 C   0  0  2  0  0  0  0  0  0  0  0  0
   10.4717  -16.4045   23.3252 N   0  0  0  0  0  0  0  0  0  0  0  0
   11.1686  -18.3533   24.4471 C   0  0  0  0  0  0  0  0  0  0  0  0
   11.1105  -17.7718   25.5582 O   0  0  0  0  0  0  0  0  0  0  0  0
   11.1847  -19.7390   24.4464 O   0  0  0  0  0  0  0  0  0  0  0  0
  1  2  1  0
  3  4  1  6
  3  2  1  0
  5  3  1  0
  6  5  2  0
  8  9  2  0
  8  7  1  0
 10  9  1  0
 11 10  2  0
 12 11  1  0
 13 12  1  1
 13 14  1  0
 14  5  1  0
 15 27  1  0
 15 13  1  0
 16 15  2  0
 17 11  1  0
 17 18  2  0
 18  8  1  0
 20 19  1  0
 21 20  2  0
 22 20  1  0
 23 22  1  0
 24 25  1  0
 24 23  1  0
 26 25  1  1
 26 27  1  0
 28 26  1  0
 28 30  1  0
 29 28  2  0
M  END
$$$$
