SYR.pdb
     RDKit          3D

 30 30  0  0  1  0  0  0  0  0999 V2000
    7.2282  -15.9060   18.7661 O   0  0  0  0  0  0  0  0  0  0  0  0
    7.7697  -14.8358   18.0870 C   0  0  0  0  0  0  0  0  0  0  0  0
    7.4054  -13.5032   18.7505 C   0  0  2  0  0  0  0  0  0  0  0  0
    8.0697  -12.4466   18.0259 N   0  0  0  0  0  0  0  0  0  0  0  0
    7.9388  -13.5980   20.1484 C   0  0  0  0  0  0  0  0  0  0  0  0
    9.1603  -13.3911   20.3521 O   0  0  0  0  0  0  0  0  0  0  0  0
    8.1886  -13.5219   29.0163 O   0  0  0  0  0  0  0  0  0  0  0  0
    7.7752  -13.4999   27.6794 C   0  0  0  0  0  0  0  0  0  0  0  0
    8.0801  -12.4504   26.8392 C   0  0  0  0  0  0  0  0  0  0  0  0
    7.6878  -12.3995   25.5194 C   0  0  0  0  0  0  0  0  0  0  0  0
    6.9561  -13.4442   25.0099 C   0  0  0  0  0  0  0  0  0  0  0  0
    6.5328  -13.4021   23.5941 C   0  0  0  0  0  0  0  0  0  0  0  0
    7.5802  -13.9070   22.6283 C   0  0  2  0  0  0  0  0  0  0  0  0
    7.1227  -13.9130   21.2609 N   0  0  0  0  0  0  0  0  0  0  0  0
    8.0830  -15.2112   23.0672 C   0  0  0  0  0  0  0  0  0  0  0  0
    7.3081  -16.1716   23.2565 O   0  0  0  0  0  0  0  0  0  0  0  0
    6.6284  -14.5111   25.8083 C   0  0  0  0  0  0  0  0  0  0  0  0
    7.0395  -14.5254   27.1246 C   0  0  0  0  0  0  0  0  0  0  0  0
   17.1294  -15.8804   23.1061 N   0  0  0  0  0  0  0  0  0  0  0  0
   15.9208  -15.3218   22.5807 C   0  0  0  0  0  0  0  0  0  0  0  0
   15.9592  -14.7556   21.4273 N   0  0  0  0  0  0  0  0  0  0  0  0
   14.7222  -15.4081   23.3423 N   0  0  0  0  0  0  0  0  0  0  0  0
   13.6850  -16.2777   22.8478 C   0  0  0  0  0  0  0  0  0  0  0  0
   12.4008  -16.1530   23.6253 C   0  0  0  0  0  0  0  0  0  0  0  0
   11.3305  -17.0940   23.1130 C   0  0  0  0  0  0  0  0  0  0  0  0
    9.9933  -16.7559   23.6689 C   0  0  2  0  0  0  0  0  0  0  0  0
    9.4645  -15.4904   23.3106 N   0  0  0  0  0  0  0  0  0  0  0  0
   10.0004  -16.8574   25.1508 C   0  0  0  0  0  0  0  0  0  0  0  0
   10.1577  -17.9550   25.7395 O   0  0  0  0  0  0  0  0  0  0  0  0
    9.8310  -15.7263   25.9334 O   0  0  0  0  0  0  0  0  0  0  0  0
  1  2  1  0
  3  4  1  6
  3  2  1  0
  5  3  1  0
  6  5  2  0
  8  9  2  0
  8  7  1  0
 10  9  1  0
 11 10  2  0
 12 11  1  0
 13 12  1  1
 13 14  1  0
 14  5  1  0
 15 27  1  0
 15 13  1  0
 16 15  2  0
 17 11  1  0
 17 18  2  0
 18  8  1  0
 20 19  1  0
 21 20  2  0
 22 20  1  0
 23 22  1  0
 24 25  1  0
 24 23  1  0
 26 25  1  1
 26 27  1  0
 28 26  1  0
 28 30  1  0
 29 28  2  0
M  END
$$$$
