SYR.pdb
     RDKit          3D

 30 30  0  0  1  0  0  0  0  0999 V2000
    7.8214  -14.5690   17.7821 O   0  0  0  0  0  0  0  0  0  0  0  0
    7.1944  -14.6467   19.0072 C   0  0  0  0  0  0  0  0  0  0  0  0
    7.0767  -13.2696   19.6695 C   0  0  2  0  0  0  0  0  0  0  0  0
    7.6292  -12.2899   18.7652 N   0  0  0  0  0  0  0  0  0  0  0  0
    7.9030  -13.3584   20.9172 C   0  0  0  0  0  0  0  0  0  0  0  0
    9.1086  -13.0099   20.8782 O   0  0  0  0  0  0  0  0  0  0  0  0
   10.3148  -15.0734   29.3151 O   0  0  0  0  0  0  0  0  0  0  0  0
    9.5769  -14.8425   28.1484 C   0  0  0  0  0  0  0  0  0  0  0  0
    9.1563  -15.8736   27.3358 C   0  0  0  0  0  0  0  0  0  0  0  0
    8.4291  -15.6787   26.1819 C   0  0  0  0  0  0  0  0  0  0  0  0
    8.1042  -14.3949   25.8180 C   0  0  0  0  0  0  0  0  0  0  0  0
    7.3211  -14.1740   24.5837 C   0  0  0  0  0  0  0  0  0  0  0  0
    8.1698  -13.9937   23.3461 C   0  0  2  0  0  0  0  0  0  0  0  0
    7.3837  -13.8212   22.1497 N   0  0  0  0  0  0  0  0  0  0  0  0
    9.1410  -15.0853   23.2380 C   0  0  0  0  0  0  0  0  0  0  0  0
    8.7943  -16.2226   22.8572 O   0  0  0  0  0  0  0  0  0  0  0  0
    8.5010  -13.3360   26.5955 C   0  0  0  0  0  0  0  0  0  0  0  0
    9.2278  -13.5717   27.7436 C   0  0  0  0  0  0  0  0  0  0  0  0
   15.9679  -13.9487   18.4095 N   0  0  0  0  0  0  0  0  0  0  0  0
   15.8364  -15.3733   18.4572 C   0  0  0  0  0  0  0  0  0  0  0  0
   16.4797  -16.0764   17.5946 N   0  0  0  0  0  0  0  0  0  0  0  0
   15.0055  -15.9655   19.4487 N   0  0  0  0  0  0  0  0  0  0  0  0
   14.2556  -15.0774   20.3004 C   0  0  0  0  0  0  0  0  0  0  0  0
   13.5120  -15.8052   21.3897 C   0  0  0  0  0  0  0  0  0  0  0  0
   12.5402  -14.9010   22.1188 C   0  0  0  0  0  0  0  0  0  0  0  0
   11.5815  -15.6816   22.9452 C   0  0  2  0  0  0  0  0  0  0  0  0
   10.5300  -14.9483   23.5504 N   0  0  0  0  0  0  0  0  0  0  0  0
   12.2967  -16.4360   24.0062 C   0  0  0  0  0  0  0  0  0  0  0  0
   12.3117  -16.0482   25.2001 O   0  0  0  0  0  0  0  0  0  0  0  0
   12.9759  -17.6048   23.7010 O   0  0  0  0  0  0  0  0  0  0  0  0
  1  2  1  0
  3  4  1  6
  3  2  1  0
  5  3  1  0
  6  5  2  0
  8  9  2  0
  8  7  1  0
 10  9  1  0
 11 10  2  0
 12 11  1  0
 13 12  1  1
 13 14  1  0
 14  5  1  0
 15 27  1  0
 15 13  1  0
 16 15  2  0
 17 11  1  0
 17 18  2  0
 18  8  1  0
 20 19  1  0
 21 20  2  0
 22 20  1  0
 23 22  1  0
 24 25  1  0
 24 23  1  0
 26 25  1  1
 26 27  1  0
 28 26  1  0
 28 30  1  0
 29 28  2  0
M  END
$$$$
