SYR.pdb
     RDKit          3D

 30 30  0  0  1  0  0  0  0  0999 V2000
    5.8118  -21.1801   24.3617 O   0  0  0  0  0  0  0  0  0  0  0  0
    4.6201  -20.7346   23.8312 C   0  0  0  0  0  0  0  0  0  0  0  0
    4.7014  -20.5837   22.3082 C   0  0  2  0  0  0  0  0  0  0  0  0
    5.1441  -21.8420   21.7573 N   0  0  0  0  0  0  0  0  0  0  0  0
    5.7265  -19.5159   22.0703 C   0  0  0  0  0  0  0  0  0  0  0  0
    6.9274  -19.8458   21.9111 O   0  0  0  0  0  0  0  0  0  0  0  0
    9.4426  -12.0075   19.4197 O   0  0  0  0  0  0  0  0  0  0  0  0
    8.5317  -12.9264   19.9533 C   0  0  0  0  0  0  0  0  0  0  0  0
    7.9987  -13.9480   19.1966 C   0  0  0  0  0  0  0  0  0  0  0  0
    7.1006  -14.8675   19.6926 C   0  0  0  0  0  0  0  0  0  0  0  0
    6.7133  -14.7661   21.0064 C   0  0  0  0  0  0  0  0  0  0  0  0
    5.7528  -15.7493   21.5505 C   0  0  0  0  0  0  0  0  0  0  0  0
    6.3748  -17.0819   21.8998 C   0  0  2  0  0  0  0  0  0  0  0  0
    5.4017  -18.1395   22.0160 N   0  0  0  0  0  0  0  0  0  0  0  0
    7.2164  -16.9477   23.0916 C   0  0  0  0  0  0  0  0  0  0  0  0
    6.7129  -16.8447   24.2293 O   0  0  0  0  0  0  0  0  0  0  0  0
    7.2170  -13.7655   21.7989 C   0  0  0  0  0  0  0  0  0  0  0  0
    8.1142  -12.8640   21.2658 C   0  0  0  0  0  0  0  0  0  0  0  0
    9.6998  -20.5969   29.0937 N   0  0  0  0  0  0  0  0  0  0  0  0
   11.0720  -20.1929   29.0389 C   0  0  0  0  0  0  0  0  0  0  0  0
   11.8287  -20.4590   30.0433 N   0  0  0  0  0  0  0  0  0  0  0  0
   11.5552  -19.5149   27.8853 N   0  0  0  0  0  0  0  0  0  0  0  0
   10.7485  -19.5798   26.6930 C   0  0  0  0  0  0  0  0  0  0  0  0
   10.6070  -18.2434   26.0123 C   0  0  0  0  0  0  0  0  0  0  0  0
    9.7184  -18.3183   24.7882 C   0  0  0  0  0  0  0  0  0  0  0  0
    9.4933  -16.9744   24.1927 C   0  0  2  0  0  0  0  0  0  0  0  0
    8.6461  -16.9233   23.0573 N   0  0  0  0  0  0  0  0  0  0  0  0
   10.7862  -16.3333   23.8410 C   0  0  0  0  0  0  0  0  0  0  0  0
   11.7150  -16.2117   24.6768 O   0  0  0  0  0  0  0  0  0  0  0  0
   11.0037  -15.8455   22.5622 O   0  0  0  0  0  0  0  0  0  0  0  0
  1  2  1  0
  3  4  1  6
  3  2  1  0
  5  3  1  0
  6  5  2  0
  8  9  2  0
  8  7  1  0
 10  9  1  0
 11 10  2  0
 12 11  1  0
 13 12  1  1
 13 14  1  0
 14  5  1  0
 15 27  1  0
 15 13  1  0
 16 15  2  0
 17 11  1  0
 17 18  2  0
 18  8  1  0
 20 19  1  0
 21 20  2  0
 22 20  1  0
 23 22  1  0
 24 25  1  0
 24 23  1  0
 26 25  1  6
 26 27  1  0
 28 26  1  0
 28 30  1  0
 29 28  2  0
M  END
$$$$
