SYR.pdb
     RDKit          3D

 30 30  0  0  1  0  0  0  0  0999 V2000
    8.8245  -20.2716   25.7139 O   0  0  0  0  0  0  0  0  0  0  0  0
    7.6307  -19.7725   26.1890 C   0  0  0  0  0  0  0  0  0  0  0  0
    6.5403  -19.7964   25.1123 C   0  0  2  0  0  0  0  0  0  0  0  0
    6.3917  -21.1577   24.6567 N   0  0  0  0  0  0  0  0  0  0  0  0
    7.0562  -18.9253   24.0067 C   0  0  0  0  0  0  0  0  0  0  0  0
    7.5346  -19.4624   22.9776 O   0  0  0  0  0  0  0  0  0  0  0  0
    8.6546  -12.0697   18.6753 O   0  0  0  0  0  0  0  0  0  0  0  0
    8.2207  -12.8638   19.7430 C   0  0  0  0  0  0  0  0  0  0  0  0
    7.4470  -13.9880   19.5481 C   0  0  0  0  0  0  0  0  0  0  0  0
    7.0046  -14.7895   20.5777 C   0  0  0  0  0  0  0  0  0  0  0  0
    7.3486  -14.4566   21.8650 C   0  0  0  0  0  0  0  0  0  0  0  0
    6.8825  -15.3113   22.9775 C   0  0  0  0  0  0  0  0  0  0  0  0
    7.5864  -16.6464   23.0581 C   0  0  2  0  0  0  0  0  0  0  0  0
    7.0294  -17.5116   24.0682 N   0  0  0  0  0  0  0  0  0  0  0  0
    9.0297  -16.4464   23.2111 C   0  0  0  0  0  0  0  0  0  0  0  0
    9.4856  -15.6649   24.0714 O   0  0  0  0  0  0  0  0  0  0  0  0
    8.1175  -13.3463   22.1084 C   0  0  0  0  0  0  0  0  0  0  0  0
    8.5411  -12.5689   21.0511 C   0  0  0  0  0  0  0  0  0  0  0  0
   13.9162  -15.0670   16.8964 N   0  0  0  0  0  0  0  0  0  0  0  0
   14.6641  -14.3174   17.8596 C   0  0  0  0  0  0  0  0  0  0  0  0
   15.7563  -13.7542   17.4825 N   0  0  0  0  0  0  0  0  0  0  0  0
   14.1822  -14.2175   19.1945 N   0  0  0  0  0  0  0  0  0  0  0  0
   12.8627  -14.7311   19.4619 C   0  0  0  0  0  0  0  0  0  0  0  0
   12.5045  -14.6831   20.9244 C   0  0  0  0  0  0  0  0  0  0  0  0
   11.1389  -15.2784   21.1968 C   0  0  0  0  0  0  0  0  0  0  0  0
   11.2378  -16.5380   21.9810 C   0  0  2  0  0  0  0  0  0  0  0  0
   10.0138  -17.1087   22.4119 N   0  0  0  0  0  0  0  0  0  0  0  0
   12.1098  -16.3493   23.1687 C   0  0  0  0  0  0  0  0  0  0  0  0
   13.3575  -16.4709   23.1012 O   0  0  0  0  0  0  0  0  0  0  0  0
   11.5603  -16.0294   24.4001 O   0  0  0  0  0  0  0  0  0  0  0  0
  1  2  1  0
  3  4  1  6
  3  2  1  0
  5  3  1  0
  6  5  2  0
  8  9  2  0
  8  7  1  0
 10  9  1  0
 11 10  2  0
 12 11  1  0
 13 12  1  1
 13 14  1  0
 14  5  1  0
 15 27  1  0
 15 13  1  0
 16 15  2  0
 17 11  1  0
 17 18  2  0
 18  8  1  0
 20 19  1  0
 21 20  2  0
 22 20  1  0
 23 22  1  0
 24 25  1  0
 24 23  1  0
 26 25  1  1
 26 27  1  0
 28 26  1  0
 28 30  1  0
 29 28  2  0
M  END
$$$$
