SYR.pdb
     RDKit          3D

 30 30  0  0  1  0  0  0  0  0999 V2000
    7.8871  -22.1444   23.9259 O   0  0  0  0  0  0  0  0  0  0  0  0
    7.7789  -21.1076   24.8276 C   0  0  0  0  0  0  0  0  0  0  0  0
    6.3155  -20.7273   25.0779 C   0  0  2  0  0  0  0  0  0  0  0  0
    5.5006  -21.4277   24.1146 N   0  0  0  0  0  0  0  0  0  0  0  0
    6.2461  -19.2474   24.8482 C   0  0  0  0  0  0  0  0  0  0  0  0
    5.6090  -18.8116   23.8580 O   0  0  0  0  0  0  0  0  0  0  0  0
    7.1959  -10.4784   25.7932 O   0  0  0  0  0  0  0  0  0  0  0  0
    7.2131  -11.8607   26.0117 C   0  0  0  0  0  0  0  0  0  0  0  0
    6.0652  -12.5676   26.2999 C   0  0  0  0  0  0  0  0  0  0  0  0
    6.0495  -13.9276   26.5198 C   0  0  0  0  0  0  0  0  0  0  0  0
    7.2341  -14.6190   26.4497 C   0  0  0  0  0  0  0  0  0  0  0  0
    7.2289  -16.0792   26.6803 C   0  0  0  0  0  0  0  0  0  0  0  0
    6.9369  -16.8923   25.4401 C   0  0  2  0  0  0  0  0  0  0  0  0
    6.8709  -18.3085   25.7032 N   0  0  0  0  0  0  0  0  0  0  0  0
    7.8893  -16.5530   24.3798 C   0  0  0  0  0  0  0  0  0  0  0  0
    8.9966  -17.1240   24.2995 O   0  0  0  0  0  0  0  0  0  0  0  0
    8.4028  -13.9582   26.1657 C   0  0  0  0  0  0  0  0  0  0  0  0
    8.3778  -12.5961   25.9517 C   0  0  0  0  0  0  0  0  0  0  0  0
    6.9964  -13.0177   16.5014 N   0  0  0  0  0  0  0  0  0  0  0  0
    8.3442  -13.4998   16.4910 C   0  0  0  0  0  0  0  0  0  0  0  0
    8.9262  -13.6647   15.3568 N   0  0  0  0  0  0  0  0  0  0  0  0
    8.9957  -13.7799   17.7243 N   0  0  0  0  0  0  0  0  0  0  0  0
    8.1973  -13.7225   18.9225 C   0  0  0  0  0  0  0  0  0  0  0  0
    8.9777  -14.0812   20.1601 C   0  0  0  0  0  0  0  0  0  0  0  0
    8.0922  -14.1761   21.3850 C   0  0  0  0  0  0  0  0  0  0  0  0
    8.4362  -15.3587   22.2183 C   0  0  2  0  0  0  0  0  0  0  0  0
    7.6417  -15.5669   23.3737 N   0  0  0  0  0  0  0  0  0  0  0  0
    9.8617  -15.3114   22.6331 C   0  0  0  0  0  0  0  0  0  0  0  0
   10.2266  -14.7365   23.6878 O   0  0  0  0  0  0  0  0  0  0  0  0
   10.8402  -15.9095   21.8550 O   0  0  0  0  0  0  0  0  0  0  0  0
  1  2  1  0
  3  4  1  6
  3  2  1  0
  5  3  1  0
  6  5  2  0
  8  9  2  0
  8  7  1  0
 10  9  1  0
 11 10  2  0
 12 11  1  0
 13 12  1  1
 13 14  1  0
 14  5  1  0
 15 27  1  0
 15 13  1  0
 16 15  2  0
 17 11  1  0
 17 18  2  0
 18  8  1  0
 20 19  1  0
 21 20  2  0
 22 20  1  0
 23 22  1  0
 24 25  1  0
 24 23  1  0
 26 25  1  1
 26 27  1  0
 28 26  1  0
 28 30  1  0
 29 28  2  0
M  END
$$$$
