SYR.pdb
     RDKit          3D

 30 30  0  0  1  0  0  0  0  0999 V2000
    7.8783  -19.1260   18.9989 O   0  0  0  0  0  0  0  0  0  0  0  0
    9.0081  -18.3483   19.1349 C   0  0  0  0  0  0  0  0  0  0  0  0
    8.7051  -16.8654   18.8937 C   0  0  2  0  0  0  0  0  0  0  0  0
    9.6465  -16.3696   17.9187 N   0  0  0  0  0  0  0  0  0  0  0  0
    8.9190  -16.1969   20.2184 C   0  0  0  0  0  0  0  0  0  0  0  0
   10.0729  -16.1743   20.7126 O   0  0  0  0  0  0  0  0  0  0  0  0
    7.3038  -11.9986   27.8926 O   0  0  0  0  0  0  0  0  0  0  0  0
    7.1681  -12.5745   26.6242 C   0  0  0  0  0  0  0  0  0  0  0  0
    7.6611  -11.9649   25.4903 C   0  0  0  0  0  0  0  0  0  0  0  0
    7.5434  -12.5061   24.2287 C   0  0  0  0  0  0  0  0  0  0  0  0
    6.9038  -13.7133   24.0878 C   0  0  0  0  0  0  0  0  0  0  0  0
    6.7748  -14.3053   22.7394 C   0  0  0  0  0  0  0  0  0  0  0  0
    8.0318  -14.9861   22.2485 C   0  0  2  0  0  0  0  0  0  0  0  0
    7.8714  -15.5838   20.9461 N   0  0  0  0  0  0  0  0  0  0  0  0
    8.5171  -15.9337   23.2550 C   0  0  0  0  0  0  0  0  0  0  0  0
    7.9039  -16.9951   23.4912 O   0  0  0  0  0  0  0  0  0  0  0  0
    6.3964  -14.3578   25.1879 C   0  0  0  0  0  0  0  0  0  0  0  0
    6.5341  -13.7840   26.4344 C   0  0  0  0  0  0  0  0  0  0  0  0
   15.0073  -19.4813   26.0050 N   0  0  0  0  0  0  0  0  0  0  0  0
   14.2812  -20.6468   25.6007 C   0  0  0  0  0  0  0  0  0  0  0  0
   14.8165  -21.7991   25.7954 N   0  0  0  0  0  0  0  0  0  0  0  0
   12.9998  -20.4986   25.0007 N   0  0  0  0  0  0  0  0  0  0  0  0
   12.6874  -19.2199   24.4144 C   0  0  0  0  0  0  0  0  0  0  0  0
   12.1364  -18.2390   25.4162 C   0  0  0  0  0  0  0  0  0  0  0  0
   11.7275  -16.9323   24.7691 C   0  0  0  0  0  0  0  0  0  0  0  0
   10.2696  -16.6804   24.9189 C   0  0  2  0  0  0  0  0  0  0  0  0
    9.7006  -15.7317   24.0325 N   0  0  0  0  0  0  0  0  0  0  0  0
    9.9481  -16.2721   26.3104 C   0  0  0  0  0  0  0  0  0  0  0  0
    9.9452  -17.0946   27.2589 O   0  0  0  0  0  0  0  0  0  0  0  0
    9.6384  -14.9532   26.6019 O   0  0  0  0  0  0  0  0  0  0  0  0
  1  2  1  0
  3  4  1  6
  3  2  1  0
  5  3  1  0
  6  5  2  0
  8  9  2  0
  8  7  1  0
 10  9  1  0
 11 10  2  0
 12 11  1  0
 13 12  1  1
 13 14  1  0
 14  5  1  0
 15 27  1  0
 15 13  1  0
 16 15  2  0
 17 11  1  0
 17 18  2  0
 18  8  1  0
 20 19  1  0
 21 20  2  0
 22 20  1  0
 23 22  1  0
 24 25  1  0
 24 23  1  0
 26 25  1  1
 26 27  1  0
 28 26  1  0
 28 30  1  0
 29 28  2  0
M  END
$$$$
