DAQ.pdb
     RDKit          3D

 23 22  0  0  1  0  0  0  0  0999 V2000
   20.6793  -11.1632  -20.1447 N   0  0  0  0  0  0  0  0  0  0  0  0
   21.3152  -11.1740  -18.8506 C   0  0  1  0  0  0  0  0  0  0  0  0
   22.8416  -11.1653  -18.9955 C   0  0  0  0  0  0  0  0  0  0  0  0
   23.2896  -12.4908  -19.4765 C   0  0  0  0  0  0  0  0  0  0  0  0
   22.5084  -13.4644  -19.5285 O   0  0  0  0  0  0  0  0  0  0  0  0
   20.9025  -10.0075  -18.0315 C   0  0  0  0  0  0  0  0  0  0  0  0
   21.1224   -8.8576  -18.4863 O   0  0  0  0  0  0  0  0  0  0  0  0
   24.5987  -12.6696  -19.8802 O   0  0  0  0  0  0  0  0  0  0  0  0
   18.9781   -9.6087  -14.8137 C   0  0  0  0  0  0  0  0  0  0  0  0
   19.8572   -9.1504  -15.9711 C   0  0  2  0  0  0  0  0  0  0  0  0
   20.2872  -10.2377  -16.7898 N   0  0  0  0  0  0  0  0  0  0  0  0
   21.0440   -8.4097  -15.4084 C   0  0  0  0  0  0  0  0  0  0  0  0
   22.1892   -8.9414  -15.4263 O   0  0  0  0  0  0  0  0  0  0  0  0
   24.2661   -5.6066  -18.2596 N   0  0  0  0  0  0  0  0  0  0  0  0
   24.7168   -5.0559  -17.0308 C   0  0  0  0  0  0  0  0  0  0  0  0
   25.7722   -4.3744  -17.0907 O   0  0  0  0  0  0  0  0  0  0  0  0
   24.0089   -5.2600  -15.7685 C   0  0  0  0  0  0  0  0  0  0  0  0
   22.7907   -6.0896  -15.8440 C   0  0  0  0  0  0  0  0  0  0  0  0
   22.1011   -6.3573  -14.5374 C   0  0  2  0  0  0  0  0  0  0  0  0
   20.9100   -7.1147  -14.8516 N   0  0  0  0  0  0  0  0  0  0  0  0
   21.6617   -5.0471  -13.9377 C   0  0  0  0  0  0  0  0  0  0  0  0
   22.4130   -4.3709  -12.9891 O   0  0  0  0  0  0  0  0  0  0  0  0
   20.5723   -4.5025  -14.2805 O   0  0  0  0  0  0  0  0  0  0  0  0
  2  1  1  6
  2  3  1  0
  3  4  1  0
  4  5  2  0
  6 11  1  0
  6  2  1  0
  7  6  2  0
  8  4  1  0
 10  9  1  1
 10 12  1  0
 10 11  1  0
 12 20  1  0
 13 12  2  0
 15 14  1  0
 15 17  1  0
 16 15  2  0
 18 17  1  0
 19 21  1  0
 19 18  1  6
 20 19  1  0
 21 22  1  0
 23 21  2  0
M  END
$$$$
