DAQ.pdb
     RDKit          3D

 23 22  0  0  1  0  0  0  0  0999 V2000
   13.4159   -9.9580  -10.6563 N   0  0  0  0  0  0  0  0  0  0  0  0
   14.8407   -9.8379  -10.4695 C   0  0  1  0  0  0  0  0  0  0  0  0
   15.5940  -10.7747  -11.4212 C   0  0  0  0  0  0  0  0  0  0  0  0
   15.2181  -12.1739  -11.1211 C   0  0  0  0  0  0  0  0  0  0  0  0
   14.9321  -12.5382   -9.9609 O   0  0  0  0  0  0  0  0  0  0  0  0
   15.3039   -8.4465  -10.6964 C   0  0  0  0  0  0  0  0  0  0  0  0
   14.9524   -7.8711  -11.7561 O   0  0  0  0  0  0  0  0  0  0  0  0
   15.1785  -13.1086  -12.1377 O   0  0  0  0  0  0  0  0  0  0  0  0
   16.6237   -5.6988   -8.6338 C   0  0  0  0  0  0  0  0  0  0  0  0
   16.6286   -6.5200   -9.9175 C   0  0  2  0  0  0  0  0  0  0  0  0
   16.1110   -7.8359   -9.7222 N   0  0  0  0  0  0  0  0  0  0  0  0
   18.0403   -6.5791  -10.4442 C   0  0  0  0  0  0  0  0  0  0  0  0
   18.7835   -7.5583  -10.1559 O   0  0  0  0  0  0  0  0  0  0  0  0
   20.9391   -9.3513  -12.8851 N   0  0  0  0  0  0  0  0  0  0  0  0
   21.3702   -8.2769  -13.7075 C   0  0  0  0  0  0  0  0  0  0  0  0
   22.5392   -8.3704  -14.1620 O   0  0  0  0  0  0  0  0  0  0  0  0
   20.5198   -7.1286  -14.0148 C   0  0  0  0  0  0  0  0  0  0  0  0
   19.4562   -6.8383  -13.0338 C   0  0  0  0  0  0  0  0  0  0  0  0
   19.7848   -5.7964  -12.0038 C   0  0  2  0  0  0  0  0  0  0  0  0
   18.5654   -5.5523  -11.2659 N   0  0  0  0  0  0  0  0  0  0  0  0
   20.1566   -4.5153  -12.7038 C   0  0  0  0  0  0  0  0  0  0  0  0
   21.4716   -4.1080  -12.8667 O   0  0  0  0  0  0  0  0  0  0  0  0
   19.2703   -3.7472  -13.1786 O   0  0  0  0  0  0  0  0  0  0  0  0
  2  1  1  6
  2  3  1  0
  3  4  1  0
  4  5  2  0
  6 11  1  0
  6  2  1  0
  7  6  2  0
  8  4  1  0
 10  9  1  1
 10 12  1  0
 10 11  1  0
 12 20  1  0
 13 12  2  0
 15 14  1  0
 15 17  1  0
 16 15  2  0
 18 17  1  0
 19 21  1  0
 19 18  1  6
 20 19  1  0
 21 22  1  0
 23 21  2  0
M  END
$$$$
