DAQ.pdb
     RDKit          3D

 23 22  0  0  1  0  0  0  0  0999 V2000
   27.4451  -18.7185  -17.1940 N   0  0  0  0  0  0  0  0  0  0  0  0
   26.6007  -19.7546  -16.6530 C   0  0  1  0  0  0  0  0  0  0  0  0
   27.3590  -20.5836  -15.6096 C   0  0  0  0  0  0  0  0  0  0  0  0
   27.7189  -21.8919  -16.1996 C   0  0  0  0  0  0  0  0  0  0  0  0
   27.3827  -22.1976  -17.3633 O   0  0  0  0  0  0  0  0  0  0  0  0
   25.3804  -19.1898  -16.0252 C   0  0  0  0  0  0  0  0  0  0  0  0
   25.4600  -18.7799  -14.8406 O   0  0  0  0  0  0  0  0  0  0  0  0
   28.4428  -22.8051  -15.4576 O   0  0  0  0  0  0  0  0  0  0  0  0
   22.0119  -18.1371  -17.2722 C   0  0  0  0  0  0  0  0  0  0  0  0
   22.9874  -18.6317  -16.2110 C   0  0  2  0  0  0  0  0  0  0  0  0
   24.1956  -19.1380  -16.7781 N   0  0  0  0  0  0  0  0  0  0  0  0
   22.3033  -19.6937  -15.3877 C   0  0  0  0  0  0  0  0  0  0  0  0
   22.4029  -20.9096  -15.7131 O   0  0  0  0  0  0  0  0  0  0  0  0
   21.0556  -19.1877   -9.2653 N   0  0  0  0  0  0  0  0  0  0  0  0
   20.4679  -20.4231   -9.6457 C   0  0  0  0  0  0  0  0  0  0  0  0
   19.9376  -21.0859   -8.7175 O   0  0  0  0  0  0  0  0  0  0  0  0
   20.4717  -20.9066  -11.0250 C   0  0  0  0  0  0  0  0  0  0  0  0
   21.1043  -20.0136  -12.0152 C   0  0  0  0  0  0  0  0  0  0  0  0
   20.9594  -20.4251  -13.4518 C   0  0  2  0  0  0  0  0  0  0  0  0
   21.5401  -19.3622  -14.2419 N   0  0  0  0  0  0  0  0  0  0  0  0
   19.4945  -20.4985  -13.7953 C   0  0  0  0  0  0  0  0  0  0  0  0
   18.7576  -21.6667  -13.6772 O   0  0  0  0  0  0  0  0  0  0  0  0
   18.8677  -19.4815  -14.2121 O   0  0  0  0  0  0  0  0  0  0  0  0
  2  1  1  1
  2  3  1  0
  3  4  1  0
  4  5  2  0
  6 11  1  0
  6  2  1  0
  7  6  2  0
  8  4  1  0
 10  9  1  6
 10 12  1  0
 10 11  1  0
 12 20  1  0
 13 12  2  0
 15 14  1  0
 15 17  1  0
 16 15  2  0
 18 17  1  0
 19 21  1  0
 19 18  1  1
 20 19  1  0
 21 22  1  0
 23 21  2  0
M  END
$$$$
