DAQ.pdb
     RDKit          3D

 23 22  0  0  1  0  0  0  0  0999 V2000
   23.8624  -21.0222  -16.8208 N   0  0  0  0  0  0  0  0  0  0  0  0
   23.4445  -19.8464  -17.5433 C   0  0  1  0  0  0  0  0  0  0  0  0
   22.8053  -20.2308  -18.8830 C   0  0  0  0  0  0  0  0  0  0  0  0
   23.7867  -20.9926  -19.6864 C   0  0  0  0  0  0  0  0  0  0  0  0
   24.9584  -20.5877  -19.8408 O   0  0  0  0  0  0  0  0  0  0  0  0
   22.4740  -19.0423  -16.7598 C   0  0  0  0  0  0  0  0  0  0  0  0
   21.6075  -19.6527  -16.0859 O   0  0  0  0  0  0  0  0  0  0  0  0
   23.4119  -22.1800  -20.2849 O   0  0  0  0  0  0  0  0  0  0  0  0
   22.1401  -15.3586  -16.0157 C   0  0  0  0  0  0  0  0  0  0  0  0
   21.7240  -16.8244  -15.9911 C   0  0  2  0  0  0  0  0  0  0  0  0
   22.5655  -17.6413  -16.8048 N   0  0  0  0  0  0  0  0  0  0  0  0
   20.2897  -16.9240  -16.4456 C   0  0  0  0  0  0  0  0  0  0  0  0
   20.0241  -17.1653  -17.6562 O   0  0  0  0  0  0  0  0  0  0  0  0
   15.8226  -20.2410  -14.3549 N   0  0  0  0  0  0  0  0  0  0  0  0
   16.7742  -20.3867  -15.3988 C   0  0  0  0  0  0  0  0  0  0  0  0
   16.9275  -21.5543  -15.8407 O   0  0  0  0  0  0  0  0  0  0  0  0
   17.5347  -19.2599  -15.9355 C   0  0  0  0  0  0  0  0  0  0  0  0
   17.1745  -17.9318  -15.4023 C   0  0  0  0  0  0  0  0  0  0  0  0
   17.8601  -16.7617  -16.0465 C   0  0  2  0  0  0  0  0  0  0  0  0
   19.2146  -16.7521  -15.5401 N   0  0  0  0  0  0  0  0  0  0  0  0
   17.1945  -15.4904  -15.5881 C   0  0  0  0  0  0  0  0  0  0  0  0
   16.1198  -14.9267  -16.2581 O   0  0  0  0  0  0  0  0  0  0  0  0
   17.5955  -14.8760  -14.5573 O   0  0  0  0  0  0  0  0  0  0  0  0
  2  1  1  1
  2  3  1  0
  3  4  1  0
  4  5  2  0
  6 11  1  0
  6  2  1  0
  7  6  2  0
  8  4  1  0
 10  9  1  6
 10 12  1  0
 10 11  1  0
 12 20  1  0
 13 12  2  0
 15 14  1  0
 15 17  1  0
 16 15  2  0
 18 17  1  0
 19 21  1  0
 19 18  1  1
 20 19  1  0
 21 22  1  0
 23 21  2  0
M  END
$$$$
