DAQ.pdb
     RDKit          3D

 23 22  0  0  1  0  0  0  0  0999 V2000
   16.5392  -14.5314  -15.5750 N   0  0  0  0  0  0  0  0  0  0  0  0
   16.0573  -13.2142  -15.9098 C   0  0  1  0  0  0  0  0  0  0  0  0
   15.1469  -12.6712  -14.8020 C   0  0  0  0  0  0  0  0  0  0  0  0
   13.9801  -13.5685  -14.6515 C   0  0  0  0  0  0  0  0  0  0  0  0
   13.4057  -14.0642  -15.6439 O   0  0  0  0  0  0  0  0  0  0  0  0
   17.1763  -12.2631  -16.1229 C   0  0  0  0  0  0  0  0  0  0  0  0
   18.2189  -12.4131  -15.4387 O   0  0  0  0  0  0  0  0  0  0  0  0
   13.5049  -13.8731  -13.3904 O   0  0  0  0  0  0  0  0  0  0  0  0
   17.9520   -9.6660  -18.7084 C   0  0  0  0  0  0  0  0  0  0  0  0
   18.0787  -10.3176  -17.3367 C   0  0  2  0  0  0  0  0  0  0  0  0
   17.0228  -11.2418  -17.0751 N   0  0  0  0  0  0  0  0  0  0  0  0
   18.1037   -9.2322  -16.2902 C   0  0  0  0  0  0  0  0  0  0  0  0
   17.0535   -8.9443  -15.6509 O   0  0  0  0  0  0  0  0  0  0  0  0
   23.3170   -5.9422  -14.5052 N   0  0  0  0  0  0  0  0  0  0  0  0
   22.2125   -5.2956  -13.8899 C   0  0  0  0  0  0  0  0  0  0  0  0
   22.4737   -4.2263  -13.2813 O   0  0  0  0  0  0  0  0  0  0  0  0
   20.8527   -5.8278  -13.9517 C   0  0  0  0  0  0  0  0  0  0  0  0
   20.6698   -7.0213  -14.8001 C   0  0  0  0  0  0  0  0  0  0  0  0
   19.2504   -7.4671  -15.0027 C   0  0  2  0  0  0  0  0  0  0  0  0
   19.2892   -8.5149  -15.9986 N   0  0  0  0  0  0  0  0  0  0  0  0
   18.4548   -6.3238  -15.5766 C   0  0  0  0  0  0  0  0  0  0  0  0
   18.3604   -6.0900  -16.9397 O   0  0  0  0  0  0  0  0  0  0  0  0
   17.8312   -5.5181  -14.8264 O   0  0  0  0  0  0  0  0  0  0  0  0
  2  1  1  1
  2  3  1  0
  3  4  1  0
  4  5  2  0
  6 11  1  0
  6  2  1  0
  7  6  2  0
  8  4  1  0
 10  9  1  6
 10 12  1  0
 10 11  1  0
 12 20  1  0
 13 12  2  0
 15 14  1  0
 15 17  1  0
 16 15  2  0
 18 17  1  0
 19 21  1  0
 19 18  1  6
 20 19  1  0
 21 22  1  0
 23 21  2  0
M  END
$$$$
