DAQ.pdb
     RDKit          3D

 23 22  0  0  1  0  0  0  0  0999 V2000
   14.1751  -10.4844  -11.2791 N   0  0  0  0  0  0  0  0  0  0  0  0
   15.2692  -10.0752  -10.4336 C   0  0  1  0  0  0  0  0  0  0  0  0
   16.5929  -10.6643  -10.9353 C   0  0  0  0  0  0  0  0  0  0  0  0
   16.4954  -12.1407  -10.9377 C   0  0  0  0  0  0  0  0  0  0  0  0
   16.5511  -12.7966  -11.9995 O   0  0  0  0  0  0  0  0  0  0  0  0
   15.3904   -8.5973  -10.3773 C   0  0  0  0  0  0  0  0  0  0  0  0
   15.4163   -7.9640  -11.4616 O   0  0  0  0  0  0  0  0  0  0  0  0
   16.3391  -12.8216   -9.7458 O   0  0  0  0  0  0  0  0  0  0  0  0
   15.1698   -6.0785   -7.5937 C   0  0  0  0  0  0  0  0  0  0  0  0
   15.4843   -6.5506   -9.0081 C   0  0  2  0  0  0  0  0  0  0  0  0
   15.4704   -7.9735   -9.1212 N   0  0  0  0  0  0  0  0  0  0  0  0
   16.8298   -6.0007   -9.4096 C   0  0  0  0  0  0  0  0  0  0  0  0
   17.8764   -6.3976   -8.8252 O   0  0  0  0  0  0  0  0  0  0  0  0
   20.2507   -7.9344  -12.8679 N   0  0  0  0  0  0  0  0  0  0  0  0
   20.8920   -6.6738  -12.7411 C   0  0  0  0  0  0  0  0  0  0  0  0
   22.0551   -6.6014  -13.2142 O   0  0  0  0  0  0  0  0  0  0  0  0
   20.2528   -5.5245  -12.1036 C   0  0  0  0  0  0  0  0  0  0  0  0
   18.9255   -5.7772  -11.5100 C   0  0  0  0  0  0  0  0  0  0  0  0
   18.2766   -4.6021  -10.8375 C   0  0  2  0  0  0  0  0  0  0  0  0
   16.9562   -5.0369  -10.4393 N   0  0  0  0  0  0  0  0  0  0  0  0
   18.1059   -3.4942  -11.8440 C   0  0  0  0  0  0  0  0  0  0  0  0
   19.0691   -2.5192  -12.0516 O   0  0  0  0  0  0  0  0  0  0  0  0
   17.0604   -3.4072  -12.5514 O   0  0  0  0  0  0  0  0  0  0  0  0
  2  1  1  6
  2  3  1  0
  3  4  1  0
  4  5  2  0
  6 11  1  0
  6  2  1  0
  7  6  2  0
  8  4  1  0
 10  9  1  1
 10 12  1  0
 10 11  1  0
 12 20  1  0
 13 12  2  0
 15 14  1  0
 15 17  1  0
 16 15  2  0
 18 17  1  0
 19 21  1  0
 19 18  1  6
 20 19  1  0
 21 22  1  0
 23 21  2  0
M  END
$$$$
