DAQ.pdb
     RDKit          3D

 23 22  0  0  1  0  0  0  0  0999 V2000
   15.1867  -12.8064  -12.2423 N   0  0  0  0  0  0  0  0  0  0  0  0
   15.5325  -11.5375  -12.8336 C   0  0  1  0  0  0  0  0  0  0  0  0
   14.3568  -10.9768  -13.6424 C   0  0  0  0  0  0  0  0  0  0  0  0
   14.0900  -11.8703  -14.7912 C   0  0  0  0  0  0  0  0  0  0  0  0
   14.7652  -11.8040  -15.8401 O   0  0  0  0  0  0  0  0  0  0  0  0
   15.9243  -10.5451  -11.8022 C   0  0  0  0  0  0  0  0  0  0  0  0
   15.1944  -10.4272  -10.7869 O   0  0  0  0  0  0  0  0  0  0  0  0
   13.0741  -12.8036  -14.7152 O   0  0  0  0  0  0  0  0  0  0  0  0
   18.9332   -8.3257  -11.3104 C   0  0  0  0  0  0  0  0  0  0  0  0
   17.5285   -8.8433  -11.0256 C   0  0  2  0  0  0  0  0  0  0  0  0
   17.0879   -9.7845  -12.0042 N   0  0  0  0  0  0  0  0  0  0  0  0
   16.5874   -7.6669  -10.9610 C   0  0  0  0  0  0  0  0  0  0  0  0
   15.9380   -7.3181  -11.9862 O   0  0  0  0  0  0  0  0  0  0  0  0
   14.4475   -4.9294   -5.6061 N   0  0  0  0  0  0  0  0  0  0  0  0
   13.8728   -4.1915   -6.6746 C   0  0  0  0  0  0  0  0  0  0  0  0
   13.0710   -3.2813   -6.3422 O   0  0  0  0  0  0  0  0  0  0  0  0
   14.1842   -4.4619   -8.0768 C   0  0  0  0  0  0  0  0  0  0  0  0
   15.1595   -5.5424   -8.3196 C   0  0  0  0  0  0  0  0  0  0  0  0
   15.4900   -5.8123   -9.7592 C   0  0  2  0  0  0  0  0  0  0  0  0
   16.4076   -6.9299   -9.7653 N   0  0  0  0  0  0  0  0  0  0  0  0
   16.2193   -4.6223  -10.3260 C   0  0  0  0  0  0  0  0  0  0  0  0
   15.5613   -3.5580  -10.9225 O   0  0  0  0  0  0  0  0  0  0  0  0
   17.4814   -4.5448  -10.2802 O   0  0  0  0  0  0  0  0  0  0  0  0
  2  1  1  1
  2  3  1  0
  3  4  1  0
  4  5  2  0
  6 11  1  0
  6  2  1  0
  7  6  2  0
  8  4  1  0
 10  9  1  6
 10 12  1  0
 10 11  1  0
 12 20  1  0
 13 12  2  0
 15 14  1  0
 15 17  1  0
 16 15  2  0
 18 17  1  0
 19 21  1  0
 19 18  1  1
 20 19  1  0
 21 22  1  0
 23 21  2  0
M  END
$$$$
