DAQ.pdb
     RDKit          3D

 23 22  0  0  1  0  0  0  0  0999 V2000
   13.9988   -9.2920   -9.5424 N   0  0  0  0  0  0  0  0  0  0  0  0
   15.2981   -9.3725  -10.1628 C   0  0  1  0  0  0  0  0  0  0  0  0
   15.2389  -10.2203  -11.4390 C   0  0  0  0  0  0  0  0  0  0  0  0
   14.8531  -11.6038  -11.0834 C   0  0  0  0  0  0  0  0  0  0  0  0
   13.7179  -12.0531  -11.3477 O   0  0  0  0  0  0  0  0  0  0  0  0
   15.8234   -8.0269  -10.5024 C   0  0  0  0  0  0  0  0  0  0  0  0
   15.1325   -7.2939  -11.2527 O   0  0  0  0  0  0  0  0  0  0  0  0
   15.7594  -12.4277  -10.4442 O   0  0  0  0  0  0  0  0  0  0  0  0
   18.1120   -5.5877   -9.1171 C   0  0  0  0  0  0  0  0  0  0  0  0
   17.6506   -6.3821  -10.3329 C   0  0  2  0  0  0  0  0  0  0  0  0
   17.0637   -7.6326   -9.9735 N   0  0  0  0  0  0  0  0  0  0  0  0
   18.8329   -6.5946  -11.2444 C   0  0  0  0  0  0  0  0  0  0  0  0
   19.6279   -7.5535  -11.0376 O   0  0  0  0  0  0  0  0  0  0  0  0
   19.5302   -6.7847  -17.0431 N   0  0  0  0  0  0  0  0  0  0  0  0
   20.7884   -6.2112  -16.7197 C   0  0  0  0  0  0  0  0  0  0  0  0
   21.7169   -6.4310  -17.5392 O   0  0  0  0  0  0  0  0  0  0  0  0
   21.0052   -5.4139  -15.5142 C   0  0  0  0  0  0  0  0  0  0  0  0
   19.9018   -5.4213  -14.5342 C   0  0  0  0  0  0  0  0  0  0  0  0
   20.2330   -5.9845  -13.1824 C   0  0  2  0  0  0  0  0  0  0  0  0
   19.0818   -5.7366  -12.3431 N   0  0  0  0  0  0  0  0  0  0  0  0
   21.3922   -5.2169  -12.6022 C   0  0  0  0  0  0  0  0  0  0  0  0
   22.6692   -5.7485  -12.5116 O   0  0  0  0  0  0  0  0  0  0  0  0
   21.2450   -4.0378  -12.1674 O   0  0  0  0  0  0  0  0  0  0  0  0
  2  1  1  6
  2  3  1  0
  3  4  1  0
  4  5  2  0
  6 11  1  0
  6  2  1  0
  7  6  2  0
  8  4  1  0
 10  9  1  1
 10 12  1  0
 10 11  1  0
 12 20  1  0
 13 12  2  0
 15 14  1  0
 15 17  1  0
 16 15  2  0
 18 17  1  0
 19 21  1  0
 19 18  1  6
 20 19  1  0
 21 22  1  0
 23 21  2  0
M  END
$$$$
