DAQ.pdb
     RDKit          3D

 23 22  0  0  1  0  0  0  0  0999 V2000
   16.9403  -11.3918  -17.4480 N   0  0  0  0  0  0  0  0  0  0  0  0
   16.8134  -10.6423  -16.2226 C   0  0  1  0  0  0  0  0  0  0  0  0
   17.8124  -11.1439  -15.1732 C   0  0  0  0  0  0  0  0  0  0  0  0
   17.5085  -12.5558  -14.8519 C   0  0  0  0  0  0  0  0  0  0  0  0
   16.4671  -12.8765  -14.2410 O   0  0  0  0  0  0  0  0  0  0  0  0
   17.0367   -9.1923  -16.4459 C   0  0  0  0  0  0  0  0  0  0  0  0
   18.0329   -8.8450  -17.1274 O   0  0  0  0  0  0  0  0  0  0  0  0
   18.3880  -13.5519  -15.2302 O   0  0  0  0  0  0  0  0  0  0  0  0
   15.0385   -6.0899  -15.6725 C   0  0  0  0  0  0  0  0  0  0  0  0
   16.2638   -6.8743  -16.1260 C   0  0  2  0  0  0  0  0  0  0  0  0
   16.1298   -8.2755  -15.8888 N   0  0  0  0  0  0  0  0  0  0  0  0
   17.4743   -6.3297  -15.4106 C   0  0  0  0  0  0  0  0  0  0  0  0
   18.0406   -7.0136  -14.5129 O   0  0  0  0  0  0  0  0  0  0  0  0
   21.1610   -6.4329  -13.0405 N   0  0  0  0  0  0  0  0  0  0  0  0
   22.0077   -5.5415  -13.7510 C   0  0  0  0  0  0  0  0  0  0  0  0
   23.0752   -5.2194  -13.1689 O   0  0  0  0  0  0  0  0  0  0  0  0
   21.6726   -5.0230  -15.0757 C   0  0  0  0  0  0  0  0  0  0  0  0
   20.3364   -5.3857  -15.5865 C   0  0  0  0  0  0  0  0  0  0  0  0
   19.1878   -4.5956  -15.0292 C   0  0  2  0  0  0  0  0  0  0  0  0
   18.0032   -5.0533  -15.7208 N   0  0  0  0  0  0  0  0  0  0  0  0
   19.3811   -3.1415  -15.3721 C   0  0  0  0  0  0  0  0  0  0  0  0
   19.9426   -2.2340  -14.4874 O   0  0  0  0  0  0  0  0  0  0  0  0
   19.0331   -2.6823  -16.4986 O   0  0  0  0  0  0  0  0  0  0  0  0
  2  1  1  6
  2  3  1  0
  3  4  1  0
  4  5  2  0
  6 11  1  0
  6  2  1  0
  7  6  2  0
  8  4  1  0
 10  9  1  1
 10 12  1  0
 10 11  1  0
 12 20  1  0
 13 12  2  0
 15 14  1  0
 15 17  1  0
 16 15  2  0
 18 17  1  0
 19 21  1  0
 19 18  1  6
 20 19  1  0
 21 22  1  0
 23 21  2  0
M  END
$$$$
