DAQ.pdb
     RDKit          3D

 23 22  0  0  1  0  0  0  0  0999 V2000
   15.5417  -12.2630  -15.2154 N   0  0  0  0  0  0  0  0  0  0  0  0
   16.9633  -12.0611  -15.3490 C   0  0  1  0  0  0  0  0  0  0  0  0
   17.5798  -13.1279  -16.2616 C   0  0  0  0  0  0  0  0  0  0  0  0
   17.4814  -14.4471  -15.5989 C   0  0  0  0  0  0  0  0  0  0  0  0
   16.4142  -15.0963  -15.5928 O   0  0  0  0  0  0  0  0  0  0  0  0
   17.2730  -10.7185  -15.8999 C   0  0  0  0  0  0  0  0  0  0  0  0
   18.4788  -10.4160  -16.0788 O   0  0  0  0  0  0  0  0  0  0  0  0
   18.5874  -14.9845  -14.9691 O   0  0  0  0  0  0  0  0  0  0  0  0
   15.1957   -7.8656  -17.2222 C   0  0  0  0  0  0  0  0  0  0  0  0
   16.4566   -8.5285  -16.6809 C   0  0  2  0  0  0  0  0  0  0  0  0
   16.2107   -9.8483  -16.1961 N   0  0  0  0  0  0  0  0  0  0  0  0
   17.0237   -7.6597  -15.5867 C   0  0  0  0  0  0  0  0  0  0  0  0
   16.6569   -7.8277  -14.3902 O   0  0  0  0  0  0  0  0  0  0  0  0
   22.8638   -6.2138  -14.8567 N   0  0  0  0  0  0  0  0  0  0  0  0
   22.2216   -5.3189  -13.9605 C   0  0  0  0  0  0  0  0  0  0  0  0
   22.9824   -4.6577  -13.2082 O   0  0  0  0  0  0  0  0  0  0  0  0
   20.7692   -5.1657  -13.9049 C   0  0  0  0  0  0  0  0  0  0  0  0
   19.9997   -6.0086  -14.8405 C   0  0  0  0  0  0  0  0  0  0  0  0
   18.5069   -5.8630  -14.7737 C   0  0  2  0  0  0  0  0  0  0  0  0
   17.9707   -6.6446  -15.8659 N   0  0  0  0  0  0  0  0  0  0  0  0
   18.1432   -4.4227  -15.0241 C   0  0  0  0  0  0  0  0  0  0  0  0
   18.0871   -3.4797  -14.0097 O   0  0  0  0  0  0  0  0  0  0  0  0
   17.8697   -4.0090  -16.1881 O   0  0  0  0  0  0  0  0  0  0  0  0
  2  1  1  6
  2  3  1  0
  3  4  1  0
  4  5  2  0
  6 11  1  0
  6  2  1  0
  7  6  2  0
  8  4  1  0
 10  9  1  1
 10 12  1  0
 10 11  1  0
 12 20  1  0
 13 12  2  0
 15 14  1  0
 15 17  1  0
 16 15  2  0
 18 17  1  0
 19 21  1  0
 19 18  1  6
 20 19  1  0
 21 22  1  0
 23 21  2  0
M  END
$$$$
