DAQ.pdb
     RDKit          3D

 23 22  0  0  1  0  0  0  0  0999 V2000
   42.7431   -7.9631   -7.6775 N   0  0  0  0  0  0  0  0  0  0  0  0
   43.8341   -8.8672   -7.9453 C   0  0  1  0  0  0  0  0  0  0  0  0
   44.8804   -8.8020   -6.8264 C   0  0  0  0  0  0  0  0  0  0  0  0
   45.4868   -7.4525   -6.8090 C   0  0  0  0  0  0  0  0  0  0  0  0
   45.8778   -6.9264   -5.7455 O   0  0  0  0  0  0  0  0  0  0  0  0
   43.3603  -10.2669   -8.0807 C   0  0  0  0  0  0  0  0  0  0  0  0
   43.0924  -10.9050   -7.0325 O   0  0  0  0  0  0  0  0  0  0  0  0
   45.6296   -6.7475   -7.9885 O   0  0  0  0  0  0  0  0  0  0  0  0
   42.4351  -12.4619  -11.0009 C   0  0  0  0  0  0  0  0  0  0  0  0
   42.7983  -12.1626   -9.5515 C   0  0  2  0  0  0  0  0  0  0  0  0
   43.2323  -10.8153   -9.3677 N   0  0  0  0  0  0  0  0  0  0  0  0
   43.8712  -13.1286   -9.1161 C   0  0  0  0  0  0  0  0  0  0  0  0
   45.0844  -12.7791   -9.1365 O   0  0  0  0  0  0  0  0  0  0  0  0
   42.8746  -18.8925   -6.4727 N   0  0  0  0  0  0  0  0  0  0  0  0
   44.2553  -18.8474   -6.8014 C   0  0  0  0  0  0  0  0  0  0  0  0
   44.9217  -19.8729   -6.5077 O   0  0  0  0  0  0  0  0  0  0  0  0
   44.8763  -17.6891   -7.4407 C   0  0  0  0  0  0  0  0  0  0  0  0
   43.9764  -16.5540   -7.7229 C   0  0  0  0  0  0  0  0  0  0  0  0
   44.6254  -15.3393   -8.3211 C   0  0  2  0  0  0  0  0  0  0  0  0
   43.5532  -14.4371   -8.6781 N   0  0  0  0  0  0  0  0  0  0  0  0
   45.3286  -15.7356   -9.5931 C   0  0  0  0  0  0  0  0  0  0  0  0
   46.6535  -16.1423   -9.6182 O   0  0  0  0  0  0  0  0  0  0  0  0
   44.7293  -15.7127  -10.7072 O   0  0  0  0  0  0  0  0  0  0  0  0
  2  1  1  1
  2  3  1  0
  3  4  1  0
  4  5  2  0
  6 11  1  0
  6  2  1  0
  7  6  2  0
  8  4  1  0
 10  9  1  6
 10 12  1  0
 10 11  1  0
 12 20  1  0
 13 12  2  0
 15 14  1  0
 15 17  1  0
 16 15  2  0
 18 17  1  0
 19 21  1  0
 19 18  1  6
 20 19  1  0
 21 22  1  0
 23 21  2  0
M  END
$$$$
