DAQ.pdb
     RDKit          3D

 23 22  0  0  1  0  0  0  0  0999 V2000
   19.9619  -13.4044  -18.5224 N   0  0  0  0  0  0  0  0  0  0  0  0
   19.3146  -12.1178  -18.5941 C   0  0  1  0  0  0  0  0  0  0  0  0
   17.9951  -12.1295  -17.8131 C   0  0  0  0  0  0  0  0  0  0  0  0
   17.0763  -13.1113  -18.4303 C   0  0  0  0  0  0  0  0  0  0  0  0
   16.7319  -13.0198  -19.6276 O   0  0  0  0  0  0  0  0  0  0  0  0
   20.1828  -11.0410  -18.0567 C   0  0  0  0  0  0  0  0  0  0  0  0
   20.4771  -11.0719  -16.8360 O   0  0  0  0  0  0  0  0  0  0  0  0
   16.5807  -14.1577  -17.6765 O   0  0  0  0  0  0  0  0  0  0  0  0
   22.0795   -8.1771  -19.6114 C   0  0  0  0  0  0  0  0  0  0  0  0
   21.4857   -8.9900  -18.4674 C   0  0  2  0  0  0  0  0  0  0  0  0
   20.6358  -10.0391  -18.9309 N   0  0  0  0  0  0  0  0  0  0  0  0
   20.7268   -8.0564  -17.5585 C   0  0  0  0  0  0  0  0  0  0  0  0
   19.5526   -7.6989  -17.8551 O   0  0  0  0  0  0  0  0  0  0  0  0
   19.6571   -8.4190  -11.6368 N   0  0  0  0  0  0  0  0  0  0  0  0
   18.6078   -7.9708  -12.4820 C   0  0  0  0  0  0  0  0  0  0  0  0
   17.4448   -8.0799  -12.0156 O   0  0  0  0  0  0  0  0  0  0  0  0
   18.8493   -7.4155  -13.8122 C   0  0  0  0  0  0  0  0  0  0  0  0
   20.2579   -7.3950  -14.2518 C   0  0  0  0  0  0  0  0  0  0  0  0
   20.5315   -6.6612  -15.5328 C   0  0  2  0  0  0  0  0  0  0  0  0
   21.3013   -7.5608  -16.3629 N   0  0  0  0  0  0  0  0  0  0  0  0
   21.3964   -5.4638  -15.2365 C   0  0  0  0  0  0  0  0  0  0  0  0
   20.8973   -4.3068  -14.6589 O   0  0  0  0  0  0  0  0  0  0  0  0
   22.6324   -5.4656  -15.5073 O   0  0  0  0  0  0  0  0  0  0  0  0
  2  1  1  1
  2  3  1  0
  3  4  1  0
  4  5  2  0
  6 11  1  0
  6  2  1  0
  7  6  2  0
  8  4  1  0
 10  9  1  6
 10 12  1  0
 10 11  1  0
 12 20  1  0
 13 12  2  0
 15 14  1  0
 15 17  1  0
 16 15  2  0
 18 17  1  0
 19 21  1  0
 19 18  1  1
 20 19  1  0
 21 22  1  0
 23 21  2  0
M  END
$$$$
