DAQ.pdb
     RDKit          3D

 23 22  0  0  1  0  0  0  0  0999 V2000
   20.1844   -9.0607  -17.4738 N   0  0  0  0  0  0  0  0  0  0  0  0
   21.3368   -8.2518  -17.1624 C   0  0  1  0  0  0  0  0  0  0  0  0
   22.0059   -7.7432  -18.4448 C   0  0  0  0  0  0  0  0  0  0  0  0
   22.5372   -8.8969  -19.2036 C   0  0  0  0  0  0  0  0  0  0  0  0
   22.5097  -10.0547  -18.7350 O   0  0  0  0  0  0  0  0  0  0  0  0
   20.9727   -7.0890  -16.3153 C   0  0  0  0  0  0  0  0  0  0  0  0
   19.9396   -6.4399  -16.6136 O   0  0  0  0  0  0  0  0  0  0  0  0
   23.0787   -8.7034  -20.4598 O   0  0  0  0  0  0  0  0  0  0  0  0
   22.3254   -5.6798  -13.0889 C   0  0  0  0  0  0  0  0  0  0  0  0
   21.4520   -5.6994  -14.3374 C   0  0  2  0  0  0  0  0  0  0  0  0
   21.7942   -6.7657  -15.2226 N   0  0  0  0  0  0  0  0  0  0  0  0
   21.5825   -4.3692  -15.0356 C   0  0  0  0  0  0  0  0  0  0  0  0
   22.3349   -4.2537  -16.0430 O   0  0  0  0  0  0  0  0  0  0  0  0
   19.0017   -2.6484  -19.2020 N   0  0  0  0  0  0  0  0  0  0  0  0
   19.4500   -1.3562  -18.8202 C   0  0  0  0  0  0  0  0  0  0  0  0
   19.2433   -0.4368  -19.6532 O   0  0  0  0  0  0  0  0  0  0  0  0
   20.1113   -1.0964  -17.5430 C   0  0  0  0  0  0  0  0  0  0  0  0
   20.2858   -2.2674  -16.6620 C   0  0  0  0  0  0  0  0  0  0  0  0
   20.9633   -2.0013  -15.3488 C   0  0  2  0  0  0  0  0  0  0  0  0
   20.8748   -3.2275  -14.5874 N   0  0  0  0  0  0  0  0  0  0  0  0
   20.1891   -0.9462  -14.6028 C   0  0  0  0  0  0  0  0  0  0  0  0
   20.4524    0.4081  -14.7372 O   0  0  0  0  0  0  0  0  0  0  0  0
   19.2527   -1.2579  -13.8109 O   0  0  0  0  0  0  0  0  0  0  0  0
  2  1  1  6
  2  3  1  0
  3  4  1  0
  4  5  2  0
  6 11  1  0
  6  2  1  0
  7  6  2  0
  8  4  1  0
 10  9  1  1
 10 12  1  0
 10 11  1  0
 12 20  1  0
 13 12  2  0
 15 14  1  0
 15 17  1  0
 16 15  2  0
 18 17  1  0
 19 21  1  0
 19 18  1  6
 20 19  1  0
 21 22  1  0
 23 21  2  0
M  END
$$$$
