GLS.pdb
     RDKit          3D

 19 18  0  0  1  0  0  0  0  0999 V2000
    4.7850  -19.6217   22.6736 N   0  0  0  0  0  0  0  0  0  0  0  0
    5.0811  -18.4112   23.4137 C   0  0  0  0  0  0  0  0  0  0  0  0
    6.2397  -17.7370   22.7565 C   0  0  0  0  0  0  0  0  0  0  0  0
    7.2515  -18.4130   22.3995 O   0  0  0  0  0  0  0  0  0  0  0  0
    8.4416  -14.2207   19.4830 C   0  0  0  0  0  0  0  0  0  0  0  0
    8.0996  -13.4795   20.7914 C   0  0  1  0  0  0  0  0  0  0  0  0
    7.8501  -12.0746   20.4400 C   0  0  0  0  0  0  0  0  0  0  0  0
    7.0648  -14.2623   21.4582 C   0  0  0  0  0  0  0  0  0  0  0  0
    7.3768  -15.5895   22.0283 C   0  0  2  0  0  0  0  0  0  0  0  0
    6.2373  -16.3355   22.5172 N   0  0  0  0  0  0  0  0  0  0  0  0
    8.4826  -15.6067   22.9956 C   0  0  0  0  0  0  0  0  0  0  0  0
    8.2999  -15.0885   24.1240 O   0  0  0  0  0  0  0  0  0  0  0  0
   10.5428  -18.4320   23.9931 O   0  0  0  0  0  0  0  0  0  0  0  0
   10.7941  -17.2599   24.7035 C   0  0  0  0  0  0  0  0  0  0  0  0
   10.8486  -16.1182   23.7224 C   0  0  2  0  0  0  0  0  0  0  0  0
    9.7616  -16.1673   22.7626 N   0  0  0  0  0  0  0  0  0  0  0  0
   12.1498  -16.0945   23.0219 C   0  0  0  0  0  0  0  0  0  0  0  0
   13.3375  -15.9346   23.7054 O   0  0  0  0  0  0  0  0  0  0  0  0
   12.1813  -16.2221   21.7790 O   0  0  0  0  0  0  0  0  0  0  0  0
  2  1  1  0
  2  3  1  0
  3 10  1  0
  3  4  2  0
  6  8  1  0
  6  5  1  6
  7  6  1  0
  9  8  1  1
 10  9  1  0
 11  9  1  0
 11 16  1  0
 12 11  2  0
 13 14  1  0
 15 14  1  1
 15 16  1  0
 17 15  1  0
 18 17  1  0
 19 17  2  0
M  END
$$$$
