GLS.pdb
     RDKit          3D

 19 18  0  0  1  0  0  0  0  0999 V2000
    7.7166  -14.4606   19.9713 N   0  0  0  0  0  0  0  0  0  0  0  0
    6.7705  -14.4818   21.0691 C   0  0  0  0  0  0  0  0  0  0  0  0
    7.5424  -14.5028   22.3468 C   0  0  0  0  0  0  0  0  0  0  0  0
    8.7888  -14.7363   22.3344 O   0  0  0  0  0  0  0  0  0  0  0  0
    5.7932  -11.7543   27.0839 C   0  0  0  0  0  0  0  0  0  0  0  0
    6.6172  -12.1517   25.8425 C   0  0  1  0  0  0  0  0  0  0  0  0
    7.7179  -11.1851   25.7265 C   0  0  0  0  0  0  0  0  0  0  0  0
    6.9042  -13.5765   25.9686 C   0  0  0  0  0  0  0  0  0  0  0  0
    7.5796  -14.3066   24.8756 C   0  0  2  0  0  0  0  0  0  0  0  0
    6.9060  -14.2643   23.5956 N   0  0  0  0  0  0  0  0  0  0  0  0
    8.0069  -15.6718   25.2106 C   0  0  0  0  0  0  0  0  0  0  0  0
    7.1357  -16.5726   25.2796 O   0  0  0  0  0  0  0  0  0  0  0  0
   11.5682  -17.1937   24.2574 O   0  0  0  0  0  0  0  0  0  0  0  0
   10.4938  -18.0321   24.5481 C   0  0  0  0  0  0  0  0  0  0  0  0
    9.7392  -17.4429   25.7111 C   0  0  2  0  0  0  0  0  0  0  0  0
    9.3414  -16.0690   25.4674 N   0  0  0  0  0  0  0  0  0  0  0  0
   10.5389  -17.5325   26.9507 C   0  0  0  0  0  0  0  0  0  0  0  0
   10.9744  -18.7444   27.4457 O   0  0  0  0  0  0  0  0  0  0  0  0
   10.8312  -16.4873   27.5706 O   0  0  0  0  0  0  0  0  0  0  0  0
  2  1  1  0
  2  3  1  0
  3 10  1  0
  3  4  2  0
  6  8  1  0
  6  5  1  1
  7  6  1  0
  9  8  1  1
 10  9  1  0
 11  9  1  0
 11 16  1  0
 12 11  2  0
 13 14  1  0
 15 14  1  6
 15 16  1  0
 17 15  1  0
 18 17  1  0
 19 17  2  0
M  END
$$$$
