GLS.pdb
     RDKit          3D

 19 18  0  0  1  0  0  0  0  0999 V2000
    5.3621  -19.4522   22.7775 N   0  0  0  0  0  0  0  0  0  0  0  0
    5.1959  -18.7441   24.0310 C   0  0  0  0  0  0  0  0  0  0  0  0
    6.0986  -17.5550   24.0157 C   0  0  0  0  0  0  0  0  0  0  0  0
    6.8875  -17.3666   23.0410 O   0  0  0  0  0  0  0  0  0  0  0  0
    7.3906  -12.3715   24.9266 C   0  0  0  0  0  0  0  0  0  0  0  0
    7.3496  -13.1908   26.2324 C   0  0  1  0  0  0  0  0  0  0  0  0
    7.0193  -12.2574   27.3183 C   0  0  0  0  0  0  0  0  0  0  0  0
    6.4969  -14.3463   25.9754 C   0  0  0  0  0  0  0  0  0  0  0  0
    6.9949  -15.4846   25.1753 C   0  0  2  0  0  0  0  0  0  0  0  0
    6.0959  -16.6147   25.0822 N   0  0  0  0  0  0  0  0  0  0  0  0
    8.3641  -15.9144   25.4902 C   0  0  0  0  0  0  0  0  0  0  0  0
    8.6364  -16.2280   26.6746 O   0  0  0  0  0  0  0  0  0  0  0  0
   10.3944  -18.0692   23.0632 O   0  0  0  0  0  0  0  0  0  0  0  0
   10.8224  -18.0193   24.3884 C   0  0  0  0  0  0  0  0  0  0  0  0
   10.7164  -16.5936   24.8631 C   0  0  2  0  0  0  0  0  0  0  0  0
    9.4247  -16.0081   24.5570 N   0  0  0  0  0  0  0  0  0  0  0  0
   11.8011  -15.7707   24.2883 C   0  0  0  0  0  0  0  0  0  0  0  0
   13.1273  -16.0135   24.5809 O   0  0  0  0  0  0  0  0  0  0  0  0
   11.5158  -14.8296   23.5168 O   0  0  0  0  0  0  0  0  0  0  0  0
  2  1  1  0
  2  3  1  0
  3 10  1  0
  3  4  2  0
  6  8  1  0
  6  5  1  6
  7  6  1  0
  9  8  1  1
 10  9  1  0
 11  9  1  0
 11 16  1  0
 12 11  2  0
 13 14  1  0
 15 14  1  6
 15 16  1  0
 17 15  1  0
 18 17  1  0
 19 17  2  0
M  END
$$$$
