GLS.pdb
     RDKit          3D

 19 18  0  0  1  0  0  0  0  0999 V2000
    7.3494  -14.6770   19.9530 N   0  0  0  0  0  0  0  0  0  0  0  0
    6.5204  -14.7213   21.1409 C   0  0  0  0  0  0  0  0  0  0  0  0
    7.4159  -14.6665   22.3343 C   0  0  0  0  0  0  0  0  0  0  0  0
    8.6728  -14.7558   22.1921 O   0  0  0  0  0  0  0  0  0  0  0  0
    5.9708  -11.8967   27.1018 C   0  0  0  0  0  0  0  0  0  0  0  0
    6.6917  -12.3099   25.8028 C   0  0  1  0  0  0  0  0  0  0  0  0
    7.7034  -11.2813   25.5238 C   0  0  0  0  0  0  0  0  0  0  0  0
    7.0908  -13.7032   25.9700 C   0  0  0  0  0  0  0  0  0  0  0  0
    7.6912  -14.4528   24.8469 C   0  0  2  0  0  0  0  0  0  0  0  0
    6.8872  -14.5146   23.6453 N   0  0  0  0  0  0  0  0  0  0  0  0
    8.2306  -15.7735   25.1983 C   0  0  0  0  0  0  0  0  0  0  0  0
    7.4253  -16.6973   25.4688 O   0  0  0  0  0  0  0  0  0  0  0  0
   11.8163  -17.0251   23.9339 O   0  0  0  0  0  0  0  0  0  0  0  0
   10.8675  -17.9776   24.3003 C   0  0  0  0  0  0  0  0  0  0  0  0
   10.1024  -17.4475   25.4847 C   0  0  2  0  0  0  0  0  0  0  0  0
    9.6063  -16.1027   25.2600 N   0  0  0  0  0  0  0  0  0  0  0  0
   10.9358  -17.4889   26.7045 C   0  0  0  0  0  0  0  0  0  0  0  0
   11.4987  -18.6641   27.1576 O   0  0  0  0  0  0  0  0  0  0  0  0
   11.1392  -16.4357   27.3461 O   0  0  0  0  0  0  0  0  0  0  0  0
  2  1  1  0
  2  3  1  0
  3 10  1  0
  3  4  2  0
  6  8  1  0
  6  5  1  1
  7  6  1  0
  9  8  1  1
 10  9  1  0
 11  9  1  0
 11 16  1  0
 12 11  2  0
 13 14  1  0
 15 14  1  6
 15 16  1  0
 17 15  1  0
 18 17  1  0
 19 17  2  0
M  END
$$$$
