GLS.pdb
     RDKit          3D

 19 18  0  0  1  0  0  0  0  0999 V2000
    4.9219  -18.5166   22.7481 N   0  0  0  0  0  0  0  0  0  0  0  0
    5.1848  -18.0653   24.1000 C   0  0  0  0  0  0  0  0  0  0  0  0
    6.2823  -17.0544   24.0468 C   0  0  0  0  0  0  0  0  0  0  0  0
    7.0322  -16.9815   23.0268 O   0  0  0  0  0  0  0  0  0  0  0  0
    6.4463  -12.2563   27.2200 C   0  0  0  0  0  0  0  0  0  0  0  0
    6.5849  -13.0549   25.9081 C   0  0  1  0  0  0  0  0  0  0  0  0
    6.8910  -12.0887   24.8440 C   0  0  0  0  0  0  0  0  0  0  0  0
    7.5013  -14.1563   26.1828 C   0  0  0  0  0  0  0  0  0  0  0  0
    7.6486  -15.2689   25.2213 C   0  0  2  0  0  0  0  0  0  0  0  0
    6.5112  -16.1585   25.1267 N   0  0  0  0  0  0  0  0  0  0  0  0
    8.9074  -16.0191   25.3262 C   0  0  0  0  0  0  0  0  0  0  0  0
    8.9797  -16.9551   26.1592 O   0  0  0  0  0  0  0  0  0  0  0  0
   13.2004  -17.2575   23.4108 O   0  0  0  0  0  0  0  0  0  0  0  0
   12.1308  -16.3658   23.3601 C   0  0  0  0  0  0  0  0  0  0  0  0
   11.2101  -16.6703   24.5128 C   0  0  2  0  0  0  0  0  0  0  0  0
   10.0695  -15.7746   24.5552 N   0  0  0  0  0  0  0  0  0  0  0  0
   11.9457  -16.6241   25.7938 C   0  0  0  0  0  0  0  0  0  0  0  0
   12.9852  -17.4901   26.0638 O   0  0  0  0  0  0  0  0  0  0  0  0
   11.6224  -15.7812   26.6583 O   0  0  0  0  0  0  0  0  0  0  0  0
  2  1  1  0
  2  3  1  0
  3 10  1  0
  3  4  2  0
  6  8  1  0
  6  5  1  1
  7  6  1  0
  9  8  1  1
 10  9  1  0
 11  9  1  0
 11 16  1  0
 12 11  2  0
 13 14  1  0
 15 14  1  6
 15 16  1  0
 17 15  1  0
 18 17  1  0
 19 17  2  0
M  END
$$$$
