GLS.pdb
     RDKit          3D

 19 18  0  0  1  0  0  0  0  0999 V2000
    8.1312  -20.3023   19.2820 N   0  0  0  0  0  0  0  0  0  0  0  0
    7.6810  -19.3697   20.2960 C   0  0  0  0  0  0  0  0  0  0  0  0
    8.3596  -18.0614   20.0575 C   0  0  0  0  0  0  0  0  0  0  0  0
    9.4786  -18.0234   19.4622 O   0  0  0  0  0  0  0  0  0  0  0  0
    8.0160  -12.7445   18.9349 C   0  0  0  0  0  0  0  0  0  0  0  0
    8.0724  -13.0298   20.4493 C   0  0  1  0  0  0  0  0  0  0  0  0
    7.4298  -11.8954   21.1273 C   0  0  0  0  0  0  0  0  0  0  0  0
    7.5603  -14.3824   20.6402 C   0  0  0  0  0  0  0  0  0  0  0  0
    8.4371  -15.5540   20.4335 C   0  0  2  0  0  0  0  0  0  0  0  0
    7.7742  -16.8391   20.4873 N   0  0  0  0  0  0  0  0  0  0  0  0
    9.6718  -15.5550   21.2299 C   0  0  0  0  0  0  0  0  0  0  0  0
   10.6644  -14.9201   20.7976 O   0  0  0  0  0  0  0  0  0  0  0  0
    9.6286  -16.4946   25.1874 O   0  0  0  0  0  0  0  0  0  0  0  0
   10.5938  -15.6043   24.7211 C   0  0  0  0  0  0  0  0  0  0  0  0
   10.9927  -16.0288   23.3319 C   0  0  2  0  0  0  0  0  0  0  0  0
    9.8444  -16.2224   22.4665 N   0  0  0  0  0  0  0  0  0  0  0  0
   11.8128  -17.2574   23.3776 C   0  0  0  0  0  0  0  0  0  0  0  0
   11.3898  -18.4327   22.7917 O   0  0  0  0  0  0  0  0  0  0  0  0
   12.9184  -17.2374   23.9603 O   0  0  0  0  0  0  0  0  0  0  0  0
  2  1  1  0
  2  3  1  0
  3 10  1  0
  3  4  2  0
  6  8  1  0
  6  5  1  6
  7  6  1  0
  9  8  1  1
 10  9  1  0
 11  9  1  0
 11 16  1  0
 12 11  2  0
 13 14  1  0
 15 14  1  1
 15 16  1  0
 17 15  1  0
 18 17  1  0
 19 17  2  0
M  END
$$$$
