GLS.pdb
     RDKit          3D

 19 18  0  0  1  0  0  0  0  0999 V2000
    6.3180  -16.3366   21.8767 N   0  0  0  0  0  0  0  0  0  0  0  0
    7.4026  -15.5455   21.3307 C   0  0  0  0  0  0  0  0  0  0  0  0
    8.0714  -14.8328   22.4594 C   0  0  0  0  0  0  0  0  0  0  0  0
    9.1597  -14.2118   22.2651 O   0  0  0  0  0  0  0  0  0  0  0  0
    5.3953  -12.0972   26.6472 C   0  0  0  0  0  0  0  0  0  0  0  0
    6.3257  -12.4122   25.4585 C   0  0  1  0  0  0  0  0  0  0  0  0
    6.9766  -11.1523   25.0731 C   0  0  0  0  0  0  0  0  0  0  0  0
    7.1322  -13.5628   25.8510 C   0  0  0  0  0  0  0  0  0  0  0  0
    8.0973  -14.1616   24.9055 C   0  0  2  0  0  0  0  0  0  0  0  0
    7.5104  -14.8330   23.7659 N   0  0  0  0  0  0  0  0  0  0  0  0
    9.1493  -14.9791   25.5248 C   0  0  0  0  0  0  0  0  0  0  0  0
    9.0447  -15.2691   26.7415 O   0  0  0  0  0  0  0  0  0  0  0  0
   10.7556  -19.0286   25.5612 O   0  0  0  0  0  0  0  0  0  0  0  0
   10.0301  -17.8953   25.1993 C   0  0  0  0  0  0  0  0  0  0  0  0
   10.9632  -16.7129   25.2220 C   0  0  2  0  0  0  0  0  0  0  0  0
   10.2935  -15.4786   24.8572 N   0  0  0  0  0  0  0  0  0  0  0  0
   12.1234  -16.9472   24.3370 C   0  0  0  0  0  0  0  0  0  0  0  0
   13.1995  -17.7106   24.7403 O   0  0  0  0  0  0  0  0  0  0  0  0
   12.1356  -16.4437   23.1931 O   0  0  0  0  0  0  0  0  0  0  0  0
  2  1  1  0
  2  3  1  0
  3 10  1  0
  3  4  2  0
  6  8  1  0
  6  5  1  1
  7  6  1  0
  9  8  1  1
 10  9  1  0
 11  9  1  0
 11 16  1  0
 12 11  2  0
 13 14  1  0
 15 14  1  6
 15 16  1  0
 17 15  1  0
 18 17  1  0
 19 17  2  0
M  END
$$$$
