GLS.pdb
     RDKit          3D

 19 18  0  0  1  0  0  0  0  0999 V2000
    5.8115  -18.7054   22.8296 N   0  0  0  0  0  0  0  0  0  0  0  0
    5.6432  -17.7378   23.8954 C   0  0  0  0  0  0  0  0  0  0  0  0
    6.8317  -16.8342   23.8940 C   0  0  0  0  0  0  0  0  0  0  0  0
    7.7836  -17.0350   23.0806 O   0  0  0  0  0  0  0  0  0  0  0  0
    7.3696  -12.4133   27.4371 C   0  0  0  0  0  0  0  0  0  0  0  0
    6.7279  -13.1978   26.2748 C   0  0  1  0  0  0  0  0  0  0  0  0
    5.5438  -12.4414   25.8444 C   0  0  0  0  0  0  0  0  0  0  0  0
    7.7964  -13.4881   25.3248 C   0  0  0  0  0  0  0  0  0  0  0  0
    8.0828  -14.8797   24.9183 C   0  0  2  0  0  0  0  0  0  0  0  0
    6.9245  -15.7382   24.7949 N   0  0  0  0  0  0  0  0  0  0  0  0
    9.1594  -15.5384   25.6703 C   0  0  0  0  0  0  0  0  0  0  0  0
   10.2825  -14.9804   25.7223 O   0  0  0  0  0  0  0  0  0  0  0  0
    8.5048  -18.7670   28.0522 O   0  0  0  0  0  0  0  0  0  0  0  0
    9.7069  -18.1085   28.3033 C   0  0  0  0  0  0  0  0  0  0  0  0
   10.1431  -17.4259   27.0333 C   0  0  2  0  0  0  0  0  0  0  0  0
    9.0397  -16.7717   26.3553 N   0  0  0  0  0  0  0  0  0  0  0  0
   10.8046  -18.3867   26.1258 C   0  0  0  0  0  0  0  0  0  0  0  0
   11.9130  -19.1084   26.5184 O   0  0  0  0  0  0  0  0  0  0  0  0
   10.3531  -18.5539   24.9725 O   0  0  0  0  0  0  0  0  0  0  0  0
  2  1  1  0
  2  3  1  0
  3 10  1  0
  3  4  2  0
  6  8  1  0
  6  5  1  1
  7  6  1  0
  9  8  1  1
 10  9  1  0
 11  9  1  0
 11 16  1  0
 12 11  2  0
 13 14  1  0
 15 14  1  1
 15 16  1  0
 17 15  1  0
 18 17  1  0
 19 17  2  0
M  END
$$$$
