GLS.pdb
     RDKit          3D

 19 18  0  0  1  0  0  0  0  0999 V2000
    7.5185  -14.4969   20.1222 N   0  0  0  0  0  0  0  0  0  0  0  0
    6.7692  -15.0069   21.2531 C   0  0  0  0  0  0  0  0  0  0  0  0
    7.5945  -14.8134   22.4821 C   0  0  0  0  0  0  0  0  0  0  0  0
    8.8601  -14.8531   22.4123 O   0  0  0  0  0  0  0  0  0  0  0  0
    5.7831  -11.9209   27.0531 C   0  0  0  0  0  0  0  0  0  0  0  0
    6.6197  -12.3413   25.8278 C   0  0  1  0  0  0  0  0  0  0  0  0
    7.6222  -11.2897   25.6073 C   0  0  0  0  0  0  0  0  0  0  0  0
    7.0420  -13.7181   26.0612 C   0  0  0  0  0  0  0  0  0  0  0  0
    7.7154  -14.4885   24.9949 C   0  0  2  0  0  0  0  0  0  0  0  0
    6.9884  -14.5825   23.7473 N   0  0  0  0  0  0  0  0  0  0  0  0
    8.2390  -15.7973   25.4091 C   0  0  0  0  0  0  0  0  0  0  0  0
    7.4379  -16.7579   25.5126 O   0  0  0  0  0  0  0  0  0  0  0  0
   12.0558  -17.0021   24.7597 O   0  0  0  0  0  0  0  0  0  0  0  0
   11.0134  -17.9144   24.9111 C   0  0  0  0  0  0  0  0  0  0  0  0
   10.0980  -17.4065   25.9943 C   0  0  2  0  0  0  0  0  0  0  0  0
    9.5945  -16.0762   25.7079 N   0  0  0  0  0  0  0  0  0  0  0  0
   10.7809  -17.4246   27.3048 C   0  0  0  0  0  0  0  0  0  0  0  0
   10.8732  -16.2934   28.0892 O   0  0  0  0  0  0  0  0  0  0  0  0
   11.2895  -18.4888   27.7183 O   0  0  0  0  0  0  0  0  0  0  0  0
  2  1  1  0
  2  3  1  0
  3 10  1  0
  3  4  2  0
  6  8  1  0
  6  5  1  1
  7  6  1  0
  9  8  1  1
 10  9  1  0
 11  9  1  0
 11 16  1  0
 12 11  2  0
 13 14  1  0
 15 14  1  6
 15 16  1  0
 17 15  1  0
 18 17  1  0
 19 17  2  0
M  END
$$$$
