GLS.pdb
     RDKit          3D

 19 18  0  0  1  0  0  0  0  0999 V2000
    8.3816  -15.7724   19.6815 N   0  0  0  0  0  0  0  0  0  0  0  0
    7.3469  -15.7658   20.6963 C   0  0  0  0  0  0  0  0  0  0  0  0
    7.9459  -15.2594   21.9667 C   0  0  0  0  0  0  0  0  0  0  0  0
    9.2012  -15.3026   22.1407 O   0  0  0  0  0  0  0  0  0  0  0  0
    8.2382  -11.9173   26.2562 C   0  0  0  0  0  0  0  0  0  0  0  0
    7.1051  -12.9544   26.3922 C   0  0  1  0  0  0  0  0  0  0  0  0
    6.0814  -12.3643   27.2659 C   0  0  0  0  0  0  0  0  0  0  0  0
    6.7584  -13.3761   25.0393 C   0  0  0  0  0  0  0  0  0  0  0  0
    7.6263  -14.3160   24.2996 C   0  0  2  0  0  0  0  0  0  0  0  0
    7.1323  -14.7220   23.0015 N   0  0  0  0  0  0  0  0  0  0  0  0
    8.0988  -15.4695   25.0771 C   0  0  0  0  0  0  0  0  0  0  0  0
    7.2494  -16.2708   25.5372 O   0  0  0  0  0  0  0  0  0  0  0  0
   11.9988  -16.7310   24.7018 O   0  0  0  0  0  0  0  0  0  0  0  0
   10.9406  -17.6333   24.7916 C   0  0  0  0  0  0  0  0  0  0  0  0
    9.9281  -17.0755   25.7573 C   0  0  2  0  0  0  0  0  0  0  0  0
    9.4549  -15.7631   25.3590 N   0  0  0  0  0  0  0  0  0  0  0  0
   10.4848  -17.0259   27.1255 C   0  0  0  0  0  0  0  0  0  0  0  0
   10.4906  -15.8601   27.8632 O   0  0  0  0  0  0  0  0  0  0  0  0
   10.9638  -18.0631   27.6323 O   0  0  0  0  0  0  0  0  0  0  0  0
  2  1  1  0
  2  3  1  0
  3 10  1  0
  3  4  2  0
  6  8  1  0
  6  5  1  6
  7  6  1  0
  9  8  1  1
 10  9  1  0
 11  9  1  0
 11 16  1  0
 12 11  2  0
 13 14  1  0
 15 14  1  6
 15 16  1  0
 17 15  1  0
 18 17  1  0
 19 17  2  0
M  END
$$$$
