PAC.pdb
     RDKit          3D

 19 19  0  0  1  0  0  0  0  0999 V2000
    7.4432  -15.0617   19.2486 N   0  0  0  0  0  0  0  0  0  0  0  0
    7.8540  -14.2046   18.1383 C   0  0  0  0  0  0  0  0  0  0  0  0
    8.0808  -12.8365   18.7121 C   0  0  0  0  0  0  0  0  0  0  0  0
    8.1318  -13.0663   20.2020 C   0  0  0  0  0  0  0  0  0  0  0  0
    8.2763  -14.5816   20.3273 C   0  0  1  0  0  0  0  0  0  0  0  0
    7.7045  -15.0311   21.6128 C   0  0  0  0  0  0  0  0  0  0  0  0
    6.4749  -14.8537   21.8162 O   0  0  0  0  0  0  0  0  0  0  0  0
    8.2053  -17.3625   24.3091 C   0  0  0  0  0  0  0  0  0  0  0  0
    7.8767  -15.9312   23.9081 C   0  0  2  0  0  0  0  0  0  0  0  0
    8.4924  -15.6556   22.6257 N   0  0  0  0  0  0  0  0  0  0  0  0
    8.3811  -14.9872   24.9466 C   0  0  0  0  0  0  0  0  0  0  0  0
    9.5876  -14.6349   24.9163 O   0  0  0  0  0  0  0  0  0  0  0  0
    7.5600  -14.4660   25.9712 N   0  0  0  0  0  0  0  0  0  0  0  0
    8.0897  -13.5139   26.9191 C   0  0  1  0  0  0  0  0  0  0  0  0
    6.9728  -12.6970   27.5365 C   0  0  0  0  0  0  0  0  0  0  0  0
    5.8215  -12.0821   26.2957 S   0  0  0  0  0  0  0  0  0  0  0  0
    8.7498  -14.2502   28.0130 C   0  0  0  0  0  0  0  0  0  0  0  0
    9.4666  -13.5529   28.9700 O   0  0  0  0  0  0  0  0  0  0  0  0
    8.7028  -15.5006   28.1360 O   0  0  0  0  0  0  0  0  0  0  0  0
  1  2  1  0
  3  2  1  0
  4  3  1  0
  4  5  1  0
  5  1  1  0
  5  6  1  1
  7  6  2  0
  9  8  1  1
  9 10  1  0
  9 11  1  0
 10  6  1  0
 11 13  1  0
 12 11  2  0
 13 14  1  0
 14 15  1  1
 14 17  1  0
 15 16  1  0
 17 19  2  0
 17 18  1  0
M  END
$$$$
