PAC.pdb
     RDKit          3D

 19 19  0  0  1  0  0  0  0  0999 V2000
    9.8485  -16.8629   16.2374 N   0  0  0  0  0  0  0  0  0  0  0  0
    9.6031  -18.0604   15.4363 C   0  0  0  0  0  0  0  0  0  0  0  0
    8.9221  -19.0487   16.3374 C   0  0  0  0  0  0  0  0  0  0  0  0
    8.4883  -18.2257   17.5248 C   0  0  0  0  0  0  0  0  0  0  0  0
    8.6513  -16.7856   17.0428 C   0  0  1  0  0  0  0  0  0  0  0  0
    8.9053  -15.9005   18.1977 C   0  0  0  0  0  0  0  0  0  0  0  0
   10.0974  -15.6083   18.4778 O   0  0  0  0  0  0  0  0  0  0  0  0
    6.9336  -14.0647   20.8140 C   0  0  0  0  0  0  0  0  0  0  0  0
    8.2032  -14.6464   20.2083 C   0  0  2  0  0  0  0  0  0  0  0  0
    7.8532  -15.3685   19.0018 N   0  0  0  0  0  0  0  0  0  0  0  0
    8.8618  -15.5542   21.1912 C   0  0  0  0  0  0  0  0  0  0  0  0
   10.0129  -15.9928   20.9402 O   0  0  0  0  0  0  0  0  0  0  0  0
    8.2479  -15.9474   22.4013 N   0  0  0  0  0  0  0  0  0  0  0  0
    9.0520  -16.3070   23.5458 C   0  0  1  0  0  0  0  0  0  0  0  0
    9.7353  -15.0844   24.1237 C   0  0  0  0  0  0  0  0  0  0  0  0
   10.9011  -15.5159   25.4268 S   0  0  0  0  0  0  0  0  0  0  0  0
    8.1692  -16.8516   24.5938 C   0  0  0  0  0  0  0  0  0  0  0  0
    8.6008  -17.9178   25.3638 O   0  0  0  0  0  0  0  0  0  0  0  0
    7.0220  -16.3996   24.8396 O   0  0  0  0  0  0  0  0  0  0  0  0
  1  2  1  0
  3  2  1  0
  4  3  1  0
  4  5  1  0
  5  1  1  0
  5  6  1  1
  7  6  2  0
  9  8  1  1
  9 10  1  0
  9 11  1  0
 10  6  1  0
 11 13  1  0
 12 11  2  0
 13 14  1  0
 14 15  1  1
 14 17  1  0
 15 16  1  0
 17 19  2  0
 17 18  1  0
M  END
$$$$
