PAC.pdb
     RDKit          3D

 19 19  0  0  1  0  0  0  0  0999 V2000
    8.0551  -17.6125   17.1822 N   0  0  0  0  0  0  0  0  0  0  0  0
    7.3922  -18.9133   17.2482 C   0  0  0  0  0  0  0  0  0  0  0  0
    7.1302  -19.1895   18.6999 C   0  0  0  0  0  0  0  0  0  0  0  0
    7.3401  -17.8554   19.3718 C   0  0  0  0  0  0  0  0  0  0  0  0
    7.3630  -16.8665   18.2082 C   0  0  1  0  0  0  0  0  0  0  0  0
    8.1732  -15.6869   18.5739 C   0  0  0  0  0  0  0  0  0  0  0  0
    9.4149  -15.7262   18.3698 O   0  0  0  0  0  0  0  0  0  0  0  0
    7.6940  -12.1806   19.7690 C   0  0  0  0  0  0  0  0  0  0  0  0
    8.4905  -13.4689   19.6170 C   0  0  2  0  0  0  0  0  0  0  0  0
    7.6011  -14.5117   19.1469 N   0  0  0  0  0  0  0  0  0  0  0  0
    9.0960  -13.8459   20.9267 C   0  0  0  0  0  0  0  0  0  0  0  0
   10.0160  -13.1325   21.4012 O   0  0  0  0  0  0  0  0  0  0  0  0
    8.6809  -14.9764   21.6651 N   0  0  0  0  0  0  0  0  0  0  0  0
    9.2810  -15.2745   22.9445 C   0  0  1  0  0  0  0  0  0  0  0  0
    8.2360  -15.7747   23.9210 C   0  0  0  0  0  0  0  0  0  0  0  0
    7.0423  -14.4949   24.3459 S   0  0  0  0  0  0  0  0  0  0  0  0
   10.2667  -16.3566   22.7658 C   0  0  0  0  0  0  0  0  0  0  0  0
   10.9787  -16.8188   23.8591 O   0  0  0  0  0  0  0  0  0  0  0  0
   10.5085  -16.8999   21.6580 O   0  0  0  0  0  0  0  0  0  0  0  0
  1  2  1  0
  3  2  1  0
  4  3  1  0
  4  5  1  0
  5  1  1  0
  5  6  1  1
  7  6  2  0
  9  8  1  1
  9 10  1  0
  9 11  1  0
 10  6  1  0
 11 13  1  0
 12 11  2  0
 13 14  1  0
 14 15  1  1
 14 17  1  0
 15 16  1  0
 17 19  2  0
 17 18  1  0
M  END
$$$$
