PAC.pdb
     RDKit          3D

 19 19  0  0  1  0  0  0  0  0999 V2000
    5.5702  -18.3396   23.2126 N   0  0  0  0  0  0  0  0  0  0  0  0
    4.8028  -19.5627   22.9867 C   0  0  0  0  0  0  0  0  0  0  0  0
    5.5583  -20.3620   21.9655 C   0  0  0  0  0  0  0  0  0  0  0  0
    6.9180  -19.7105   21.9208 C   0  0  0  0  0  0  0  0  0  0  0  0
    6.9316  -18.8214   23.1626 C   0  0  1  0  0  0  0  0  0  0  0  0
    7.8389  -17.6765   22.9446 C   0  0  0  0  0  0  0  0  0  0  0  0
    9.0582  -17.8164   23.2251 O   0  0  0  0  0  0  0  0  0  0  0  0
    7.9231  -14.5854   20.9626 C   0  0  0  0  0  0  0  0  0  0  0  0
    8.3613  -15.3844   22.1819 C   0  0  2  0  0  0  0  0  0  0  0  0
    7.3843  -16.4253   22.4304 N   0  0  0  0  0  0  0  0  0  0  0  0
    8.4779  -14.4809   23.3627 C   0  0  0  0  0  0  0  0  0  0  0  0
    9.4193  -13.6487   23.4032 O   0  0  0  0  0  0  0  0  0  0  0  0
    7.5727  -14.5167   24.4467 N   0  0  0  0  0  0  0  0  0  0  0  0
    7.7308  -13.6119   25.5612 C   0  0  1  0  0  0  0  0  0  0  0  0
    6.3894  -13.0521   25.9890 C   0  0  0  0  0  0  0  0  0  0  0  0
    6.5262  -12.0232   27.4607 S   0  0  0  0  0  0  0  0  0  0  0  0
    8.2780  -14.3615   26.7071 C   0  0  0  0  0  0  0  0  0  0  0  0
    8.3642  -15.7414   26.6417 O   0  0  0  0  0  0  0  0  0  0  0  0
    8.6813  -13.8155   27.7654 O   0  0  0  0  0  0  0  0  0  0  0  0
  1  2  1  0
  3  2  1  0
  4  3  1  0
  4  5  1  0
  5  1  1  0
  5  6  1  6
  7  6  2  0
  9  8  1  6
  9 10  1  0
  9 11  1  0
 10  6  1  0
 11 13  1  0
 12 11  2  0
 13 14  1  0
 14 15  1  1
 14 17  1  0
 15 16  1  0
 17 19  2  0
 17 18  1  0
M  END
$$$$
