PAC.pdb
     RDKit          3D

 19 19  0  0  1  0  0  0  0  0999 V2000
    8.7003  -15.1673   19.5482 N   0  0  0  0  0  0  0  0  0  0  0  0
    8.8872  -14.7377   18.1639 C   0  0  0  0  0  0  0  0  0  0  0  0
    7.9028  -13.6313   17.9202 C   0  0  0  0  0  0  0  0  0  0  0  0
    7.4405  -13.2394   19.3015 C   0  0  0  0  0  0  0  0  0  0  0  0
    8.4531  -13.9144   20.2244 C   0  0  1  0  0  0  0  0  0  0  0  0
    7.8264  -14.1901   21.5332 C   0  0  0  0  0  0  0  0  0  0  0  0
    7.4494  -13.2149   22.2343 O   0  0  0  0  0  0  0  0  0  0  0  0
    7.0451  -17.1691   23.6846 C   0  0  0  0  0  0  0  0  0  0  0  0
    7.0714  -15.6840   23.3516 C   0  0  2  0  0  0  0  0  0  0  0  0
    7.6347  -15.5152   22.0273 N   0  0  0  0  0  0  0  0  0  0  0  0
    7.8852  -14.9533   24.3655 C   0  0  0  0  0  0  0  0  0  0  0  0
    9.1258  -14.8482   24.1913 O   0  0  0  0  0  0  0  0  0  0  0  0
    7.3227  -14.3690   25.5222 N   0  0  0  0  0  0  0  0  0  0  0  0
    8.1389  -13.5757   26.4111 C   0  0  1  0  0  0  0  0  0  0  0  0
    7.3324  -12.4386   27.0047 C   0  0  0  0  0  0  0  0  0  0  0  0
    5.6432  -12.9353   27.3830 S   0  0  0  0  0  0  0  0  0  0  0  0
    8.5865  -14.4256   27.5299 C   0  0  0  0  0  0  0  0  0  0  0  0
    9.5024  -13.9285   28.4409 O   0  0  0  0  0  0  0  0  0  0  0  0
    8.1804  -15.6011   27.7147 O   0  0  0  0  0  0  0  0  0  0  0  0
  1  2  1  0
  3  2  1  0
  4  3  1  0
  4  5  1  0
  5  1  1  0
  5  6  1  1
  7  6  2  0
  9  8  1  1
  9 10  1  0
  9 11  1  0
 10  6  1  0
 11 13  1  0
 12 11  2  0
 13 14  1  0
 14 15  1  1
 14 17  1  0
 15 16  1  0
 17 19  2  0
 17 18  1  0
M  END
$$$$
