PAC.pdb
     RDKit          3D

 19 19  0  0  1  0  0  0  0  0999 V2000
    8.5666  -15.1111   19.6422 N   0  0  0  0  0  0  0  0  0  0  0  0
    8.5557  -14.5623   18.2878 C   0  0  0  0  0  0  0  0  0  0  0  0
    7.5954  -13.4089   18.2986 C   0  0  0  0  0  0  0  0  0  0  0  0
    7.3704  -13.1314   19.7641 C   0  0  0  0  0  0  0  0  0  0  0  0
    8.4828  -13.9185   20.4540 C   0  0  1  0  0  0  0  0  0  0  0  0
    8.0548  -14.2939   21.8168 C   0  0  0  0  0  0  0  0  0  0  0  0
    7.8296  -13.3759   22.6483 O   0  0  0  0  0  0  0  0  0  0  0  0
    7.2904  -17.4228   23.7501 C   0  0  0  0  0  0  0  0  0  0  0  0
    7.4937  -15.9228   23.5889 C   0  0  2  0  0  0  0  0  0  0  0  0
    7.8888  -15.6524   22.2213 N   0  0  0  0  0  0  0  0  0  0  0  0
    8.5394  -15.4496   24.5410 C   0  0  0  0  0  0  0  0  0  0  0  0
    9.7489  -15.5275   24.2068 O   0  0  0  0  0  0  0  0  0  0  0  0
    8.2322  -14.9134   25.8114 N   0  0  0  0  0  0  0  0  0  0  0  0
    9.2824  -14.4125   26.6669 C   0  0  1  0  0  0  0  0  0  0  0  0
    8.7379  -13.3790   27.6317 C   0  0  0  0  0  0  0  0  0  0  0  0
    7.6934  -12.1676   26.8042 S   0  0  0  0  0  0  0  0  0  0  0  0
    9.8107  -15.5285   27.4730 C   0  0  0  0  0  0  0  0  0  0  0  0
   10.9233  -15.3270   28.2714 O   0  0  0  0  0  0  0  0  0  0  0  0
    9.3042  -16.6792   27.4825 O   0  0  0  0  0  0  0  0  0  0  0  0
  1  2  1  0
  3  2  1  0
  4  3  1  0
  4  5  1  0
  5  1  1  0
  5  6  1  1
  7  6  2  0
  9  8  1  6
  9 10  1  0
  9 11  1  0
 10  6  1  0
 11 13  1  0
 12 11  2  0
 13 14  1  0
 14 15  1  1
 14 17  1  0
 15 16  1  0
 17 19  2  0
 17 18  1  0
M  END
$$$$
