PAC.pdb
     RDKit          3D

 19 19  0  0  1  0  0  0  0  0999 V2000
    8.4716  -15.0173   19.4358 N   0  0  0  0  0  0  0  0  0  0  0  0
    8.3662  -14.3303   18.1503 C   0  0  0  0  0  0  0  0  0  0  0  0
    7.5062  -13.1215   18.3778 C   0  0  0  0  0  0  0  0  0  0  0  0
    7.4544  -12.9842   19.8790 C   0  0  0  0  0  0  0  0  0  0  0  0
    8.5656  -13.9134   20.3635 C   0  0  1  0  0  0  0  0  0  0  0  0
    8.2504  -14.3992   21.7222 C   0  0  0  0  0  0  0  0  0  0  0  0
    8.2516  -13.5708   22.6701 O   0  0  0  0  0  0  0  0  0  0  0  0
    7.1855  -17.6021   23.3676 C   0  0  0  0  0  0  0  0  0  0  0  0
    7.6138  -16.1414   23.3556 C   0  0  2  0  0  0  0  0  0  0  0  0
    7.9465  -15.7665   21.9961 N   0  0  0  0  0  0  0  0  0  0  0  0
    8.7883  -15.9520   24.2550 C   0  0  0  0  0  0  0  0  0  0  0  0
    9.8841  -15.5869   23.7585 O   0  0  0  0  0  0  0  0  0  0  0  0
    8.7267  -16.1652   25.6501 N   0  0  0  0  0  0  0  0  0  0  0  0
    9.5869  -15.4231   26.5417 C   0  0  1  0  0  0  0  0  0  0  0  0
    8.8658  -14.2096   27.0924 C   0  0  0  0  0  0  0  0  0  0  0  0
    9.8871  -13.2875   28.2542 S   0  0  0  0  0  0  0  0  0  0  0  0
    9.9367  -16.2821   27.6881 C   0  0  0  0  0  0  0  0  0  0  0  0
    9.0933  -17.3195   28.0461 O   0  0  0  0  0  0  0  0  0  0  0  0
   10.9765  -16.1298   28.3783 O   0  0  0  0  0  0  0  0  0  0  0  0
  1  2  1  0
  3  2  1  0
  4  3  1  0
  4  5  1  0
  5  1  1  0
  5  6  1  1
  7  6  2  0
  9  8  1  6
  9 10  1  0
  9 11  1  0
 10  6  1  0
 11 13  1  0
 12 11  2  0
 13 14  1  0
 14 15  1  1
 14 17  1  0
 15 16  1  0
 17 19  2  0
 17 18  1  0
M  END
$$$$
