PAC.pdb
     RDKit          3D

 19 19  0  0  1  0  0  0  0  0999 V2000
    7.0642  -14.7918   20.8725 N   0  0  0  0  0  0  0  0  0  0  0  0
    6.9134  -14.5292   19.4428 C   0  0  0  0  0  0  0  0  0  0  0  0
    7.4772  -13.1606   19.1949 C   0  0  0  0  0  0  0  0  0  0  0  0
    8.2538  -12.8498   20.4501 C   0  0  0  0  0  0  0  0  0  0  0  0
    8.3521  -14.2008   21.1558 C   0  0  1  0  0  0  0  0  0  0  0  0
    8.4755  -13.9930   22.6128 C   0  0  0  0  0  0  0  0  0  0  0  0
    9.6137  -13.7403   23.0878 O   0  0  0  0  0  0  0  0  0  0  0  0
    6.3156  -13.0566   25.4249 C   0  0  0  0  0  0  0  0  0  0  0  0
    7.5592  -13.7574   24.8961 C   0  0  2  0  0  0  0  0  0  0  0  0
    7.3565  -14.0681   23.4954 N   0  0  0  0  0  0  0  0  0  0  0  0
    7.8094  -15.0016   25.6792 C   0  0  0  0  0  0  0  0  0  0  0  0
    7.8542  -14.9340   26.9338 O   0  0  0  0  0  0  0  0  0  0  0  0
    8.0000  -16.2630   25.0725 N   0  0  0  0  0  0  0  0  0  0  0  0
    8.2055  -17.4405   25.8830 C   0  0  1  0  0  0  0  0  0  0  0  0
    7.5456  -18.6477   25.2482 C   0  0  0  0  0  0  0  0  0  0  0  0
    5.8932  -18.2710   24.6392 S   0  0  0  0  0  0  0  0  0  0  0  0
    9.6515  -17.7200   25.9563 C   0  0  0  0  0  0  0  0  0  0  0  0
   10.1046  -18.7743   26.7303 O   0  0  0  0  0  0  0  0  0  0  0  0
   10.5208  -17.0466   25.3467 O   0  0  0  0  0  0  0  0  0  0  0  0
  1  2  1  0
  3  2  1  0
  4  3  1  0
  4  5  1  0
  5  1  1  0
  5  6  1  1
  7  6  2  0
  9  8  1  1
  9 10  1  0
  9 11  1  0
 10  6  1  0
 11 13  1  0
 12 11  2  0
 13 14  1  0
 14 15  1  6
 14 17  1  0
 15 16  1  0
 17 19  2  0
 17 18  1  0
M  END
$$$$
