PAC.pdb
     RDKit          3D

 19 19  0  0  1  0  0  0  0  0999 V2000
    7.5403  -14.9950   18.7967 N   0  0  0  0  0  0  0  0  0  0  0  0
    7.7844  -14.0464   17.7121 C   0  0  0  0  0  0  0  0  0  0  0  0
    7.9654  -12.7003   18.3504 C   0  0  0  0  0  0  0  0  0  0  0  0
    8.1705  -13.0109   19.8122 C   0  0  0  0  0  0  0  0  0  0  0  0
    8.4334  -14.5154   19.8265 C   0  0  1  0  0  0  0  0  0  0  0  0
    8.0165  -15.0807   21.1258 C   0  0  0  0  0  0  0  0  0  0  0  0
    6.7864  -15.2319   21.3464 O   0  0  0  0  0  0  0  0  0  0  0  0
    9.1275  -17.1936   23.8040 C   0  0  0  0  0  0  0  0  0  0  0  0
    8.4480  -15.8860   23.4222 C   0  0  2  0  0  0  0  0  0  0  0  0
    8.9538  -15.4591   22.1333 N   0  0  0  0  0  0  0  0  0  0  0  0
    8.7210  -14.8525   24.4621 C   0  0  0  0  0  0  0  0  0  0  0  0
    9.9124  -14.5383   24.7118 O   0  0  0  0  0  0  0  0  0  0  0  0
    7.6952  -14.2046   25.1858 N   0  0  0  0  0  0  0  0  0  0  0  0
    8.0205  -13.2432   26.2131 C   0  0  1  0  0  0  0  0  0  0  0  0
    6.8304  -12.3527   26.5074 C   0  0  0  0  0  0  0  0  0  0  0  0
    5.3292  -13.3055   26.7932 S   0  0  0  0  0  0  0  0  0  0  0  0
    8.3432  -13.9677   27.4562 C   0  0  0  0  0  0  0  0  0  0  0  0
    8.9694  -13.2983   28.4934 O   0  0  0  0  0  0  0  0  0  0  0  0
    8.0803  -15.1834   27.6399 O   0  0  0  0  0  0  0  0  0  0  0  0
  1  2  1  0
  3  2  1  0
  4  3  1  0
  4  5  1  0
  5  1  1  0
  5  6  1  1
  7  6  2  0
  9  8  1  1
  9 10  1  0
  9 11  1  0
 10  6  1  0
 11 13  1  0
 12 11  2  0
 13 14  1  0
 14 15  1  1
 14 17  1  0
 15 16  1  0
 17 19  2  0
 17 18  1  0
M  END
$$$$
