PAC.pdb
     RDKit          3D

 19 19  0  0  1  0  0  0  0  0999 V2000
    8.5157  -15.2367   19.7788 N   0  0  0  0  0  0  0  0  0  0  0  0
    8.5211  -14.6843   18.4258 C   0  0  0  0  0  0  0  0  0  0  0  0
    7.6232  -13.4819   18.4485 C   0  0  0  0  0  0  0  0  0  0  0  0
    7.4270  -13.1970   19.9167 C   0  0  0  0  0  0  0  0  0  0  0  0
    8.5026  -14.0436   20.5941 C   0  0  1  0  0  0  0  0  0  0  0  0
    8.0682  -14.3997   21.9601 C   0  0  0  0  0  0  0  0  0  0  0  0
    7.9230  -13.4757   22.8026 O   0  0  0  0  0  0  0  0  0  0  0  0
    7.1003  -17.4833   23.8754 C   0  0  0  0  0  0  0  0  0  0  0  0
    7.3946  -15.9978   23.7209 C   0  0  2  0  0  0  0  0  0  0  0  0
    7.8091  -15.7463   22.3555 N   0  0  0  0  0  0  0  0  0  0  0  0
    8.4644  -15.5928   24.6777 C   0  0  0  0  0  0  0  0  0  0  0  0
    9.6652  -15.6493   24.3096 O   0  0  0  0  0  0  0  0  0  0  0  0
    8.1896  -15.1448   25.9890 N   0  0  0  0  0  0  0  0  0  0  0  0
    9.2526  -14.6423   26.8276 C   0  0  1  0  0  0  0  0  0  0  0  0
    8.7568  -13.5004   27.6914 C   0  0  0  0  0  0  0  0  0  0  0  0
    7.8979  -12.2469   26.7249 S   0  0  0  0  0  0  0  0  0  0  0  0
    9.6910  -15.7190   27.7346 C   0  0  0  0  0  0  0  0  0  0  0  0
   10.8115  -15.5316   28.5253 O   0  0  0  0  0  0  0  0  0  0  0  0
    9.0989  -16.8233   27.8391 O   0  0  0  0  0  0  0  0  0  0  0  0
  1  2  1  0
  3  2  1  0
  4  3  1  0
  4  5  1  0
  5  1  1  0
  5  6  1  1
  7  6  2  0
  9  8  1  6
  9 10  1  0
  9 11  1  0
 10  6  1  0
 11 13  1  0
 12 11  2  0
 13 14  1  0
 14 15  1  1
 14 17  1  0
 15 16  1  0
 17 19  2  0
 17 18  1  0
M  END
$$$$
