PAC.pdb
     RDKit          3D

 19 19  0  0  1  0  0  0  0  0999 V2000
    7.2422  -14.8035   19.9044 N   0  0  0  0  0  0  0  0  0  0  0  0
    7.2220  -13.8645   18.7848 C   0  0  0  0  0  0  0  0  0  0  0  0
    7.9417  -12.6305   19.2450 C   0  0  0  0  0  0  0  0  0  0  0  0
    8.6550  -13.0674   20.5002 C   0  0  0  0  0  0  0  0  0  0  0  0
    8.5612  -14.5912   20.4551 C   0  0  1  0  0  0  0  0  0  0  0  0
    8.6014  -15.1328   21.8287 C   0  0  0  0  0  0  0  0  0  0  0  0
    9.6752  -15.0380   22.4789 O   0  0  0  0  0  0  0  0  0  0  0  0
    8.5275  -17.4277   23.8266 C   0  0  0  0  0  0  0  0  0  0  0  0
    7.5971  -16.2231   23.8062 C   0  0  2  0  0  0  0  0  0  0  0  0
    7.4726  -15.7558   22.4404 N   0  0  0  0  0  0  0  0  0  0  0  0
    8.1447  -15.1470   24.6816 C   0  0  0  0  0  0  0  0  0  0  0  0
    9.2804  -14.6721   24.4264 O   0  0  0  0  0  0  0  0  0  0  0  0
    7.4414  -14.6322   25.7934 N   0  0  0  0  0  0  0  0  0  0  0  0
    7.9913  -13.5427   26.5656 C   0  0  1  0  0  0  0  0  0  0  0  0
    6.8836  -12.6887   27.1483 C   0  0  0  0  0  0  0  0  0  0  0  0
    5.3099  -12.9660   26.3177 S   0  0  0  0  0  0  0  0  0  0  0  0
    8.7551  -14.1007   27.6968 C   0  0  0  0  0  0  0  0  0  0  0  0
    9.4641  -13.2503   28.5273 O   0  0  0  0  0  0  0  0  0  0  0  0
    8.8054  -15.3286   27.9624 O   0  0  0  0  0  0  0  0  0  0  0  0
  1  2  1  0
  3  2  1  0
  4  3  1  0
  4  5  1  0
  5  1  1  0
  5  6  1  1
  7  6  2  0
  9  8  1  6
  9 10  1  0
  9 11  1  0
 10  6  1  0
 11 13  1  0
 12 11  2  0
 13 14  1  0
 14 15  1  1
 14 17  1  0
 15 16  1  0
 17 19  2  0
 17 18  1  0
M  END
$$$$
