PAC.pdb
     RDKit          3D

 19 19  0  0  1  0  0  0  0  0999 V2000
    8.9848  -15.0859   19.1845 N   0  0  0  0  0  0  0  0  0  0  0  0
    9.1529  -14.5940   17.8187 C   0  0  0  0  0  0  0  0  0  0  0  0
    8.0259  -13.6362   17.5645 C   0  0  0  0  0  0  0  0  0  0  0  0
    7.4652  -13.3555   18.9364 C   0  0  0  0  0  0  0  0  0  0  0  0
    8.5343  -13.9022   19.8804 C   0  0  1  0  0  0  0  0  0  0  0  0
    7.9114  -14.3036   21.1580 C   0  0  0  0  0  0  0  0  0  0  0  0
    7.3538  -13.4176   21.8572 O   0  0  0  0  0  0  0  0  0  0  0  0
    7.5943  -17.3888   23.2703 C   0  0  0  0  0  0  0  0  0  0  0  0
    7.2739  -15.9509   22.8867 C   0  0  2  0  0  0  0  0  0  0  0  0
    7.9196  -15.6524   21.6244 N   0  0  0  0  0  0  0  0  0  0  0  0
    7.7524  -15.0249   23.9533 C   0  0  0  0  0  0  0  0  0  0  0  0
    8.9595  -14.6735   23.9595 O   0  0  0  0  0  0  0  0  0  0  0  0
    6.9060  -14.5200   24.9654 N   0  0  0  0  0  0  0  0  0  0  0  0
    7.3937  -13.5350   25.9022 C   0  0  1  0  0  0  0  0  0  0  0  0
    6.2505  -12.7012   26.4441 C   0  0  0  0  0  0  0  0  0  0  0  0
    6.8135  -11.4843   27.6462 S   0  0  0  0  0  0  0  0  0  0  0  0
    8.0083  -14.2320   27.0470 C   0  0  0  0  0  0  0  0  0  0  0  0
    7.6772  -15.5519   27.3003 O   0  0  0  0  0  0  0  0  0  0  0  0
    8.8335  -13.6925   27.8272 O   0  0  0  0  0  0  0  0  0  0  0  0
  1  2  1  0
  3  2  1  0
  4  3  1  0
  4  5  1  0
  5  1  1  0
  5  6  1  1
  7  6  2  0
  9  8  1  1
  9 10  1  0
  9 11  1  0
 10  6  1  0
 11 13  1  0
 12 11  2  0
 13 14  1  0
 14 15  1  1
 14 17  1  0
 15 16  1  0
 17 19  2  0
 17 18  1  0
M  END
$$$$
