PCI.pdb
     RDKit          3D

 22 22  0  0  1  0  0  0  0  0999 V2000
   27.9979  -21.3237  -15.3906 N   0  0  0  0  0  0  0  0  0  0  0  0
   28.3120  -21.4242  -16.7865 C   0  0  0  0  0  0  0  0  0  0  0  0
   28.8166  -20.0778  -17.2376 C   0  0  0  0  0  0  0  0  0  0  0  0
   28.2899  -19.1629  -16.1504 C   0  0  0  0  0  0  0  0  0  0  0  0
   28.4474  -20.0379  -14.9307 C   0  0  1  0  0  0  0  0  0  0  0  0
   27.5848  -19.6099  -13.8091 C   0  0  0  0  0  0  0  0  0  0  0  0
   27.7926  -18.5018  -13.2622 O   0  0  0  0  0  0  0  0  0  0  0  0
   26.5120  -20.4046  -13.3095 N   0  0  0  0  0  0  0  0  0  0  0  0
   25.6016  -19.9534  -12.2849 C   0  0  1  0  0  0  0  0  0  0  0  0
   24.1931  -20.3148  -12.7759 C   0  0  0  0  0  0  0  0  0  0  0  0
   22.9712  -19.8871  -11.5079 S   0  0  0  0  0  0  0  0  0  0  0  0
   25.7886  -20.7153  -11.0145 C   0  0  0  0  0  0  0  0  0  0  0  0
   25.9091  -21.9659  -11.0383 O   0  0  0  0  0  0  0  0  0  0  0  0
   28.4773  -18.5832   -6.7601 C   0  0  0  0  0  0  0  0  0  0  0  0
   27.9612  -19.5448   -7.7869 C   0  0  0  0  0  0  0  0  0  0  0  0
   26.5496  -19.9437   -7.4153 C   0  0  2  0  0  0  0  0  0  0  0  0
   26.4906  -20.6853   -6.1136 C   0  0  0  0  0  0  0  0  0  0  0  0
   25.9129  -20.7933   -8.4966 C   0  0  2  0  0  0  0  0  0  0  0  0
   25.8370  -20.0699   -9.7522 N   0  0  0  0  0  0  0  0  0  0  0  0
   24.5475  -21.1845   -8.1067 C   0  0  0  0  0  0  0  0  0  0  0  0
   23.5732  -20.4848   -8.4538 O   0  0  0  0  0  0  0  0  0  0  0  0
   24.3453  -22.3144   -7.3644 O   0  0  0  0  0  0  0  0  0  0  0  0
  2  1  1  0
  3  2  1  0
  4  3  1  0
  4  5  1  0
  5  1  1  0
  5  6  1  1
  6  8  1  0
  7  6  2  0
  9  8  1  0
  9 12  1  0
  9 10  1  6
 11 10  1  0
 12 19  1  0
 13 12  2  0
 15 14  1  0
 16 17  1  1
 16 15  1  0
 18 16  1  0
 18 19  1  6
 20 18  1  0
 20 22  1  0
 21 20  2  0
M  END
$$$$
