PCI.pdb
     RDKit          3D

 22 22  0  0  1  0  0  0  0  0999 V2000
   28.4158  -20.5871  -15.8151 N   0  0  0  0  0  0  0  0  0  0  0  0
   28.6813  -19.5833  -16.8046 C   0  0  0  0  0  0  0  0  0  0  0  0
   28.2926  -18.2511  -16.2171 C   0  0  0  0  0  0  0  0  0  0  0  0
   27.3699  -18.6615  -15.0872 C   0  0  0  0  0  0  0  0  0  0  0  0
   28.0490  -19.9172  -14.5971 C   0  0  1  0  0  0  0  0  0  0  0  0
   27.1377  -20.7943  -13.8320 C   0  0  0  0  0  0  0  0  0  0  0  0
   26.5746  -21.7514  -14.4126 O   0  0  0  0  0  0  0  0  0  0  0  0
   26.8619  -20.6051  -12.4463 N   0  0  0  0  0  0  0  0  0  0  0  0
   25.6892  -21.1335  -11.7921 C   0  0  1  0  0  0  0  0  0  0  0  0
   25.8017  -20.7234  -10.3174 C   0  0  0  0  0  0  0  0  0  0  0  0
   24.3837  -21.3668   -9.3904 S   0  0  0  0  0  0  0  0  0  0  0  0
   24.4436  -20.4804  -12.2937 C   0  0  0  0  0  0  0  0  0  0  0  0
   24.3574  -19.2272  -12.3322 O   0  0  0  0  0  0  0  0  0  0  0  0
   22.8832  -20.7669  -16.9541 C   0  0  0  0  0  0  0  0  0  0  0  0
   23.0490  -20.3296  -15.5305 C   0  0  0  0  0  0  0  0  0  0  0  0
   21.9153  -20.9036  -14.7090 C   0  0  2  0  0  0  0  0  0  0  0  0
   20.5781  -20.3771  -15.1361 C   0  0  0  0  0  0  0  0  0  0  0  0
   22.1069  -20.6240  -13.2319 C   0  0  2  0  0  0  0  0  0  0  0  0
   23.3276  -21.2343  -12.7389 N   0  0  0  0  0  0  0  0  0  0  0  0
   20.9766  -21.1615  -12.4554 C   0  0  0  0  0  0  0  0  0  0  0  0
   20.1114  -20.3887  -11.9933 O   0  0  0  0  0  0  0  0  0  0  0  0
   20.8734  -22.5074  -12.2399 O   0  0  0  0  0  0  0  0  0  0  0  0
  2  1  1  0
  3  2  1  0
  4  3  1  0
  4  5  1  0
  5  1  1  0
  5  6  1  6
  6  8  1  0
  7  6  2  0
  9  8  1  0
  9 12  1  0
  9 10  1  1
 11 10  1  0
 12 19  1  0
 13 12  2  0
 15 14  1  0
 16 17  1  6
 16 15  1  0
 18 16  1  0
 18 19  1  1
 20 18  1  0
 20 22  1  0
 21 20  2  0
M  END
$$$$
