PCI.pdb
     RDKit          3D

 22 22  0  0  1  0  0  0  0  0999 V2000
   20.6569  -12.2160  -16.3360 N   0  0  0  0  0  0  0  0  0  0  0  0
   20.4824  -13.6079  -16.6348 C   0  0  0  0  0  0  0  0  0  0  0  0
   20.0941  -13.7165  -18.0868 C   0  0  0  0  0  0  0  0  0  0  0  0
   19.6022  -12.3151  -18.3877 C   0  0  0  0  0  0  0  0  0  0  0  0
   20.5640  -11.4865  -17.5713 C   0  0  1  0  0  0  0  0  0  0  0  0
   20.0443  -10.1331  -17.2822 C   0  0  0  0  0  0  0  0  0  0  0  0
   20.0304   -9.2727  -18.1930 O   0  0  0  0  0  0  0  0  0  0  0  0
   19.5503   -9.7499  -16.0011 N   0  0  0  0  0  0  0  0  0  0  0  0
   19.0822   -8.4192  -15.6976 C   0  0  1  0  0  0  0  0  0  0  0  0
   17.8601   -8.5940  -14.7857 C   0  0  0  0  0  0  0  0  0  0  0  0
   17.3743   -6.9909  -14.0943 S   0  0  0  0  0  0  0  0  0  0  0  0
   20.0803   -7.6614  -14.8858 C   0  0  0  0  0  0  0  0  0  0  0  0
   20.6419   -8.2070  -13.9028 O   0  0  0  0  0  0  0  0  0  0  0  0
   25.0641   -5.1168  -16.1965 C   0  0  0  0  0  0  0  0  0  0  0  0
   23.9865   -5.0241  -15.1594 C   0  0  0  0  0  0  0  0  0  0  0  0
   22.7338   -5.6800  -15.6980 C   0  0  2  0  0  0  0  0  0  0  0  0
   22.2392   -5.0221  -16.9510 C   0  0  0  0  0  0  0  0  0  0  0  0
   21.6225   -5.6777  -14.6676 C   0  0  2  0  0  0  0  0  0  0  0  0
   20.4287   -6.3194  -15.1858 N   0  0  0  0  0  0  0  0  0  0  0  0
   21.2759   -4.2976  -14.2875 C   0  0  0  0  0  0  0  0  0  0  0  0
   20.2624   -3.7513  -14.7711 O   0  0  0  0  0  0  0  0  0  0  0  0
   22.0634   -3.6129  -13.4045 O   0  0  0  0  0  0  0  0  0  0  0  0
  2  1  1  0
  3  2  1  0
  4  3  1  0
  4  5  1  0
  5  1  1  0
  5  6  1  1
  6  8  1  0
  7  6  2  0
  9  8  1  0
  9 12  1  0
  9 10  1  1
 11 10  1  0
 12 19  1  0
 13 12  2  0
 15 14  1  0
 16 17  1  6
 16 15  1  0
 18 16  1  0
 18 19  1  6
 20 18  1  0
 20 22  1  0
 21 20  2  0
M  END
$$$$
