PCI.pdb
     RDKit          3D

 22 22  0  0  1  0  0  0  0  0999 V2000
   25.0866  -22.4848  -13.7096 N   0  0  0  0  0  0  0  0  0  0  0  0
   24.3665  -22.7965  -14.9103 C   0  0  0  0  0  0  0  0  0  0  0  0
   24.7413  -21.7678  -15.9458 C   0  0  0  0  0  0  0  0  0  0  0  0
   25.2942  -20.6457  -15.0903 C   0  0  0  0  0  0  0  0  0  0  0  0
   26.0090  -21.4248  -14.0132 C   0  0  1  0  0  0  0  0  0  0  0  0
   26.2318  -20.6277  -12.7883 C   0  0  0  0  0  0  0  0  0  0  0  0
   27.0309  -19.6631  -12.8196 O   0  0  0  0  0  0  0  0  0  0  0  0
   25.5744  -20.9037  -11.5538 N   0  0  0  0  0  0  0  0  0  0  0  0
   25.5950  -20.0036  -10.4262 C   0  0  1  0  0  0  0  0  0  0  0  0
   24.1270  -19.7299  -10.0715 C   0  0  0  0  0  0  0  0  0  0  0  0
   23.2412  -21.2975   -9.8669 S   0  0  0  0  0  0  0  0  0  0  0  0
   26.1822  -20.6555   -9.2181 C   0  0  0  0  0  0  0  0  0  0  0  0
   26.2064  -21.9085   -9.1237 O   0  0  0  0  0  0  0  0  0  0  0  0
   29.9749  -19.3009   -4.5351 C   0  0  0  0  0  0  0  0  0  0  0  0
   28.9487  -20.2355   -5.1000 C   0  0  0  0  0  0  0  0  0  0  0  0
   28.3628  -19.6176   -6.3509 C   0  0  2  0  0  0  0  0  0  0  0  0
   27.7736  -18.2629   -6.0956 C   0  0  0  0  0  0  0  0  0  0  0  0
   27.3016  -20.5100   -6.9627 C   0  0  2  0  0  0  0  0  0  0  0  0
   26.7267  -19.9008   -8.1475 N   0  0  0  0  0  0  0  0  0  0  0  0
   26.2163  -20.7552   -5.9977 C   0  0  0  0  0  0  0  0  0  0  0  0
   25.1191  -20.1737   -6.1291 O   0  0  0  0  0  0  0  0  0  0  0  0
   26.4089  -21.6201   -4.9568 O   0  0  0  0  0  0  0  0  0  0  0  0
  2  1  1  0
  3  2  1  0
  4  3  1  0
  4  5  1  0
  5  1  1  0
  5  6  1  1
  6  8  1  0
  7  6  2  0
  9  8  1  0
  9 12  1  0
  9 10  1  1
 11 10  1  0
 12 19  1  0
 13 12  2  0
 15 14  1  0
 16 17  1  1
 16 15  1  0
 18 16  1  0
 18 19  1  6
 20 18  1  0
 20 22  1  0
 21 20  2  0
M  END
$$$$
