PCI.pdb
     RDKit          3D

 22 22  0  0  1  0  0  0  0  0999 V2000
   21.9061  -13.7897  -19.6550 N   0  0  0  0  0  0  0  0  0  0  0  0
   21.8736  -15.0593  -20.3218 C   0  0  0  0  0  0  0  0  0  0  0  0
   20.7974  -15.8884  -19.6698 C   0  0  0  0  0  0  0  0  0  0  0  0
   20.6184  -15.1841  -18.3400 C   0  0  0  0  0  0  0  0  0  0  0  0
   20.7917  -13.7413  -18.7480 C   0  0  1  0  0  0  0  0  0  0  0  0
   21.1473  -12.8677  -17.6098 C   0  0  0  0  0  0  0  0  0  0  0  0
   20.3151  -12.6866  -16.6907 O   0  0  0  0  0  0  0  0  0  0  0  0
   22.4076  -12.2102  -17.5016 N   0  0  0  0  0  0  0  0  0  0  0  0
   22.7809  -11.3930  -16.3725 C   0  0  1  0  0  0  0  0  0  0  0  0
   24.3154  -11.3802  -16.3435 C   0  0  0  0  0  0  0  0  0  0  0  0
   24.9316  -12.9619  -15.7089 S   0  0  0  0  0  0  0  0  0  0  0  0
   22.3741   -9.9700  -16.5704 C   0  0  0  0  0  0  0  0  0  0  0  0
   22.4471   -9.4433  -17.7090 O   0  0  0  0  0  0  0  0  0  0  0  0
   18.1367   -6.8194  -17.5610 C   0  0  0  0  0  0  0  0  0  0  0  0
   19.3449   -6.6404  -16.6930 C   0  0  0  0  0  0  0  0  0  0  0  0
   19.9637   -7.9966  -16.4330 C   0  0  2  0  0  0  0  0  0  0  0  0
   19.0547   -8.8980  -15.6528 C   0  0  0  0  0  0  0  0  0  0  0  0
   21.2830   -7.8701  -15.6981 C   0  0  2  0  0  0  0  0  0  0  0  0
   21.8974   -9.1697  -15.5006 N   0  0  0  0  0  0  0  0  0  0  0  0
   21.0791   -7.2511  -14.3773 C   0  0  0  0  0  0  0  0  0  0  0  0
   20.8497   -6.0268  -14.2889 O   0  0  0  0  0  0  0  0  0  0  0  0
   21.1405   -8.0164  -13.2463 O   0  0  0  0  0  0  0  0  0  0  0  0
  2  1  1  0
  3  2  1  0
  4  3  1  0
  4  5  1  0
  5  1  1  0
  5  6  1  1
  6  8  1  0
  7  6  2  0
  9  8  1  0
  9 12  1  0
  9 10  1  6
 11 10  1  0
 12 19  1  0
 13 12  2  0
 15 14  1  0
 16 17  1  1
 16 15  1  0
 18 16  1  0
 18 19  1  1
 20 18  1  0
 20 22  1  0
 21 20  2  0
M  END
$$$$
