PCI.pdb
     RDKit          3D

 22 22  0  0  1  0  0  0  0  0999 V2000
   25.1941  -18.5630  -14.7668 N   0  0  0  0  0  0  0  0  0  0  0  0
   24.8125  -17.7107  -15.8555 C   0  0  0  0  0  0  0  0  0  0  0  0
   24.1417  -18.5720  -16.8943 C   0  0  0  0  0  0  0  0  0  0  0  0
   24.6296  -19.9568  -16.5189 C   0  0  0  0  0  0  0  0  0  0  0  0
   24.6372  -19.8654  -15.0124 C   0  0  1  0  0  0  0  0  0  0  0  0
   25.5125  -20.8787  -14.3861 C   0  0  0  0  0  0  0  0  0  0  0  0
   25.1871  -22.0877  -14.4367 O   0  0  0  0  0  0  0  0  0  0  0  0
   26.7267  -20.5469  -13.7169 N   0  0  0  0  0  0  0  0  0  0  0  0
   27.5697  -21.5250  -13.0729 C   0  0  1  0  0  0  0  0  0  0  0  0
   28.9924  -20.9498  -13.1049 C   0  0  0  0  0  0  0  0  0  0  0  0
   28.9630  -19.2083  -12.6047 S   0  0  0  0  0  0  0  0  0  0  0  0
   27.2307  -21.6697  -11.6260 C   0  0  0  0  0  0  0  0  0  0  0  0
   27.8590  -22.4869  -10.9073 O   0  0  0  0  0  0  0  0  0  0  0  0
   28.5216  -19.5920   -7.4071 C   0  0  0  0  0  0  0  0  0  0  0  0
   27.8389  -20.6383   -8.2344 C   0  0  0  0  0  0  0  0  0  0  0  0
   26.5223  -20.0832   -8.7328 C   0  0  2  0  0  0  0  0  0  0  0  0
   25.6071  -19.6926   -7.6115 C   0  0  0  0  0  0  0  0  0  0  0  0
   25.8088  -21.0750   -9.6295 C   0  0  2  0  0  0  0  0  0  0  0  0
   26.2042  -20.9045  -11.0152 N   0  0  0  0  0  0  0  0  0  0  0  0
   24.3500  -20.8925   -9.5405 C   0  0  0  0  0  0  0  0  0  0  0  0
   23.7334  -20.3224  -10.4647 O   0  0  0  0  0  0  0  0  0  0  0  0
   23.6693  -21.3473   -8.4459 O   0  0  0  0  0  0  0  0  0  0  0  0
  2  1  1  0
  3  2  1  0
  4  3  1  0
  4  5  1  0
  5  1  1  0
  5  6  1  1
  6  8  1  0
  7  6  2  0
  9  8  1  0
  9 12  1  0
  9 10  1  1
 11 10  1  0
 12 19  1  0
 13 12  2  0
 15 14  1  0
 16 17  1  1
 16 15  1  0
 18 16  1  0
 18 19  1  6
 20 18  1  0
 20 22  1  0
 21 20  2  0
M  END
$$$$
