PCI.pdb
     RDKit          3D

 22 22  0  0  1  0  0  0  0  0999 V2000
   28.3825  -20.5283  -16.1213 N   0  0  0  0  0  0  0  0  0  0  0  0
   28.5997  -19.5820  -17.1771 C   0  0  0  0  0  0  0  0  0  0  0  0
   28.2393  -18.2181  -16.6471 C   0  0  0  0  0  0  0  0  0  0  0  0
   27.3723  -18.5625  -15.4529 C   0  0  0  0  0  0  0  0  0  0  0  0
   28.0746  -19.7904  -14.9265 C   0  0  1  0  0  0  0  0  0  0  0  0
   27.2016  -20.6213  -14.0705 C   0  0  0  0  0  0  0  0  0  0  0  0
   26.5530  -21.5624  -14.5841 O   0  0  0  0  0  0  0  0  0  0  0  0
   27.0568  -20.4041  -12.6691 N   0  0  0  0  0  0  0  0  0  0  0  0
   25.9903  -20.9774  -11.8841 C   0  0  1  0  0  0  0  0  0  0  0  0
   26.2670  -20.5747  -10.4292 C   0  0  0  0  0  0  0  0  0  0  0  0
   24.9435  -21.1939   -9.3574 S   0  0  0  0  0  0  0  0  0  0  0  0
   24.6721  -20.3639  -12.2238 C   0  0  0  0  0  0  0  0  0  0  0  0
   24.5661  -19.1174  -12.3437 O   0  0  0  0  0  0  0  0  0  0  0  0
   20.4500  -20.9438  -16.2389 C   0  0  0  0  0  0  0  0  0  0  0  0
   20.6468  -20.5095  -14.8183 C   0  0  0  0  0  0  0  0  0  0  0  0
   21.9738  -21.0437  -14.3247 C   0  0  2  0  0  0  0  0  0  0  0  0
   22.0461  -22.5397  -14.3901 C   0  0  0  0  0  0  0  0  0  0  0  0
   22.2546  -20.5977  -12.9038 C   0  0  2  0  0  0  0  0  0  0  0  0
   23.5072  -21.1489  -12.4214 N   0  0  0  0  0  0  0  0  0  0  0  0
   21.1779  -21.0421  -12.0024 C   0  0  0  0  0  0  0  0  0  0  0  0
   21.3348  -22.0583  -11.2939 O   0  0  0  0  0  0  0  0  0  0  0  0
   20.0053  -20.3423  -11.9403 O   0  0  0  0  0  0  0  0  0  0  0  0
  2  1  1  0
  3  2  1  0
  4  3  1  0
  4  5  1  0
  5  1  1  0
  5  6  1  1
  6  8  1  0
  7  6  2  0
  9  8  1  0
  9 12  1  0
  9 10  1  1
 11 10  1  0
 12 19  1  0
 13 12  2  0
 15 14  1  0
 16 17  1  1
 16 15  1  0
 18 16  1  0
 18 19  1  1
 20 18  1  0
 20 22  1  0
 21 20  2  0
M  END
$$$$
