PCI.pdb
     RDKit          3D

 22 22  0  0  1  0  0  0  0  0999 V2000
   26.8332  -19.4387  -17.4596 N   0  0  0  0  0  0  0  0  0  0  0  0
   27.1531  -19.2545  -18.8456 C   0  0  0  0  0  0  0  0  0  0  0  0
   27.5900  -17.8235  -19.0256 C   0  0  0  0  0  0  0  0  0  0  0  0
   27.0173  -17.1607  -17.7891 C   0  0  0  0  0  0  0  0  0  0  0  0
   27.2174  -18.2443  -16.7577 C   0  0  1  0  0  0  0  0  0  0  0  0
   26.3335  -18.0818  -15.5839 C   0  0  0  0  0  0  0  0  0  0  0  0
   26.4654  -17.0748  -14.8500 O   0  0  0  0  0  0  0  0  0  0  0  0
   25.3230  -19.0260  -15.2381 N   0  0  0  0  0  0  0  0  0  0  0  0
   24.4287  -18.8555  -14.1186 C   0  0  1  0  0  0  0  0  0  0  0  0
   23.0086  -19.0164  -14.6781 C   0  0  0  0  0  0  0  0  0  0  0  0
   21.8125  -19.0580  -13.3174 S   0  0  0  0  0  0  0  0  0  0  0  0
   24.5901  -19.9530  -13.1191 C   0  0  0  0  0  0  0  0  0  0  0  0
   24.5937  -21.1532  -13.4919 O   0  0  0  0  0  0  0  0  0  0  0  0
   26.6623  -18.3608   -8.3422 C   0  0  0  0  0  0  0  0  0  0  0  0
   26.6073  -19.2847   -9.5207 C   0  0  0  0  0  0  0  0  0  0  0  0
   25.3649  -20.1415   -9.4109 C   0  0  2  0  0  0  0  0  0  0  0  0
   25.5238  -21.2516   -8.4158 C   0  0  0  0  0  0  0  0  0  0  0  0
   24.9813  -20.7326  -10.7526 C   0  0  2  0  0  0  0  0  0  0  0  0
   24.7432  -19.6902  -11.7336 N   0  0  0  0  0  0  0  0  0  0  0  0
   23.7543  -21.5377  -10.6285 C   0  0  0  0  0  0  0  0  0  0  0  0
   23.8295  -22.7787  -10.5113 O   0  0  0  0  0  0  0  0  0  0  0  0
   22.5313  -20.9272  -10.6411 O   0  0  0  0  0  0  0  0  0  0  0  0
  2  1  1  0
  3  2  1  0
  4  3  1  0
  4  5  1  0
  5  1  1  0
  5  6  1  1
  6  8  1  0
  7  6  2  0
  9  8  1  0
  9 12  1  0
  9 10  1  6
 11 10  1  0
 12 19  1  0
 13 12  2  0
 15 14  1  0
 16 17  1  1
 16 15  1  0
 18 16  1  0
 18 19  1  6
 20 18  1  0
 20 22  1  0
 21 20  2  0
M  END
$$$$
