PCI.pdb
     RDKit          3D

 22 22  0  0  1  0  0  0  0  0999 V2000
   17.2461  -10.2262  -15.9373 N   0  0  0  0  0  0  0  0  0  0  0  0
   17.3935  -11.0825  -17.0784 C   0  0  0  0  0  0  0  0  0  0  0  0
   17.4158  -12.5046  -16.5804 C   0  0  0  0  0  0  0  0  0  0  0  0
   17.7656  -12.3213  -15.1174 C   0  0  0  0  0  0  0  0  0  0  0  0
   17.0044  -11.0595  -14.7910 C   0  0  1  0  0  0  0  0  0  0  0  0
   17.5283  -10.3743  -13.5905 C   0  0  0  0  0  0  0  0  0  0  0  0
   17.4360  -10.9348  -12.4736 O   0  0  0  0  0  0  0  0  0  0  0  0
   18.1427   -9.0888  -13.6380 N   0  0  0  0  0  0  0  0  0  0  0  0
   18.6140   -8.3917  -12.4658 C   0  0  1  0  0  0  0  0  0  0  0  0
   19.8219   -7.5609  -12.9200 C   0  0  0  0  0  0  0  0  0  0  0  0
   20.4393   -6.5664  -11.5366 S   0  0  0  0  0  0  0  0  0  0  0  0
   17.6087   -7.4007  -11.9791 C   0  0  0  0  0  0  0  0  0  0  0  0
   17.0498   -6.6171  -12.7871 O   0  0  0  0  0  0  0  0  0  0  0  0
   12.6431   -6.7234   -9.0698 C   0  0  0  0  0  0  0  0  0  0  0  0
   13.9555   -6.0240   -9.2538 C   0  0  0  0  0  0  0  0  0  0  0  0
   14.9717   -7.0212   -9.7662 C   0  0  2  0  0  0  0  0  0  0  0  0
   15.2334   -8.1240   -8.7850 C   0  0  0  0  0  0  0  0  0  0  0  0
   16.2838   -6.3453  -10.1105 C   0  0  2  0  0  0  0  0  0  0  0  0
   17.2504   -7.3053  -10.6099 N   0  0  0  0  0  0  0  0  0  0  0  0
   16.8547   -5.6930   -8.9198 C   0  0  0  0  0  0  0  0  0  0  0  0
   16.2898   -4.6976   -8.4204 O   0  0  0  0  0  0  0  0  0  0  0  0
   18.0040   -6.1768   -8.3597 O   0  0  0  0  0  0  0  0  0  0  0  0
  2  1  1  0
  3  2  1  0
  4  3  1  0
  4  5  1  0
  5  1  1  0
  5  6  1  1
  6  8  1  0
  7  6  2  0
  9  8  1  0
  9 12  1  0
  9 10  1  6
 11 10  1  0
 12 19  1  0
 13 12  2  0
 15 14  1  0
 16 17  1  1
 16 15  1  0
 18 16  1  0
 18 19  1  1
 20 18  1  0
 20 22  1  0
 21 20  2  0
M  END
$$$$
