PCI.pdb
     RDKit          3D

 22 22  0  0  1  0  0  0  0  0999 V2000
   21.2451  -17.0109  -15.7476 N   0  0  0  0  0  0  0  0  0  0  0  0
   20.7833  -18.3684  -15.7855 C   0  0  0  0  0  0  0  0  0  0  0  0
   21.2148  -18.9593  -17.1028 C   0  0  0  0  0  0  0  0  0  0  0  0
   21.4825  -17.7197  -17.9323 C   0  0  0  0  0  0  0  0  0  0  0  0
   22.0822  -16.7996  -16.8971 C   0  0  1  0  0  0  0  0  0  0  0  0
   21.9990  -15.3758  -17.2860 C   0  0  0  0  0  0  0  0  0  0  0  0
   22.7294  -14.9473  -18.2096 O   0  0  0  0  0  0  0  0  0  0  0  0
   21.1173  -14.4503  -16.6551 N   0  0  0  0  0  0  0  0  0  0  0  0
   21.0301  -13.0588  -17.0271 C   0  0  1  0  0  0  0  0  0  0  0  0
   19.5346  -12.7518  -17.1847 C   0  0  0  0  0  0  0  0  0  0  0  0
   19.2925  -10.9693  -17.4038 S   0  0  0  0  0  0  0  0  0  0  0  0
   21.5060  -12.1689  -15.9266 C   0  0  0  0  0  0  0  0  0  0  0  0
   21.1485  -12.3820  -14.7408 O   0  0  0  0  0  0  0  0  0  0  0  0
   26.4146  -11.6346  -14.9408 C   0  0  0  0  0  0  0  0  0  0  0  0
   24.9185  -11.6543  -14.8597 C   0  0  0  0  0  0  0  0  0  0  0  0
   24.3996  -10.2507  -15.0844 C   0  0  2  0  0  0  0  0  0  0  0  0
   24.8878   -9.2888  -14.0432 C   0  0  0  0  0  0  0  0  0  0  0  0
   22.8847  -10.2199  -15.1132 C   0  0  2  0  0  0  0  0  0  0  0  0
   22.3652  -11.0668  -16.1706 N   0  0  0  0  0  0  0  0  0  0  0  0
   22.4020   -8.8474  -15.3427 C   0  0  0  0  0  0  0  0  0  0  0  0
   22.2848   -8.4121  -16.5072 O   0  0  0  0  0  0  0  0  0  0  0  0
   22.0816   -8.0484  -14.2809 O   0  0  0  0  0  0  0  0  0  0  0  0
  2  1  1  0
  3  2  1  0
  4  3  1  0
  4  5  1  0
  5  1  1  0
  5  6  1  6
  6  8  1  0
  7  6  2  0
  9  8  1  0
  9 12  1  0
  9 10  1  1
 11 10  1  0
 12 19  1  0
 13 12  2  0
 15 14  1  0
 16 17  1  1
 16 15  1  0
 18 16  1  0
 18 19  1  6
 20 18  1  0
 20 22  1  0
 21 20  2  0
M  END
$$$$
