PCI.pdb
     RDKit          3D

 22 22  0  0  1  0  0  0  0  0999 V2000
   27.8157  -23.1974  -16.5750 N   0  0  0  0  0  0  0  0  0  0  0  0
   28.1801  -23.6409  -17.8895 C   0  0  0  0  0  0  0  0  0  0  0  0
   29.5063  -23.0120  -18.2306 C   0  0  0  0  0  0  0  0  0  0  0  0
   29.5679  -21.8554  -17.2534 C   0  0  0  0  0  0  0  0  0  0  0  0
   28.9311  -22.4713  -16.0315 C   0  0  1  0  0  0  0  0  0  0  0  0
   28.4184  -21.4574  -15.0858 C   0  0  0  0  0  0  0  0  0  0  0  0
   29.2179  -20.6504  -14.5569 O   0  0  0  0  0  0  0  0  0  0  0  0
   27.0401  -21.3481  -14.7387 N   0  0  0  0  0  0  0  0  0  0  0  0
   26.5258  -20.3409  -13.8425 C   0  0  1  0  0  0  0  0  0  0  0  0
   25.4361  -19.5921  -14.6219 C   0  0  0  0  0  0  0  0  0  0  0  0
   26.1992  -18.4113  -15.7652 S   0  0  0  0  0  0  0  0  0  0  0  0
   25.8291  -20.9550  -12.6733 C   0  0  0  0  0  0  0  0  0  0  0  0
   25.1253  -21.9850  -12.8253 O   0  0  0  0  0  0  0  0  0  0  0  0
   27.5448  -19.4482   -7.6703 C   0  0  0  0  0  0  0  0  0  0  0  0
   27.1028  -20.4315   -8.7111 C   0  0  0  0  0  0  0  0  0  0  0  0
   25.6180  -20.2582   -8.9460 C   0  0  2  0  0  0  0  0  0  0  0  0
   24.7949  -20.7985   -7.8154 C   0  0  0  0  0  0  0  0  0  0  0  0
   25.1816  -20.9232  -10.2359 C   0  0  2  0  0  0  0  0  0  0  0  0
   25.9315  -20.4106  -11.3674 N   0  0  0  0  0  0  0  0  0  0  0  0
   23.7503  -20.6785  -10.4826 C   0  0  0  0  0  0  0  0  0  0  0  0
   23.3895  -19.6694  -11.1235 O   0  0  0  0  0  0  0  0  0  0  0  0
   22.8149  -21.5563  -10.0102 O   0  0  0  0  0  0  0  0  0  0  0  0
  2  1  1  0
  3  2  1  0
  4  3  1  0
  4  5  1  0
  5  1  1  0
  5  6  1  1
  6  8  1  0
  7  6  2  0
  9  8  1  0
  9 12  1  0
  9 10  1  6
 11 10  1  0
 12 19  1  0
 13 12  2  0
 15 14  1  0
 16 17  1  1
 16 15  1  0
 18 16  1  0
 18 19  1  6
 20 18  1  0
 20 22  1  0
 21 20  2  0
M  END
$$$$
