PCI.pdb
     RDKit          3D

 22 22  0  0  1  0  0  0  0  0999 V2000
   17.1372  -12.9220  -15.2605 N   0  0  0  0  0  0  0  0  0  0  0  0
   16.3495  -14.0962  -15.5013 C   0  0  0  0  0  0  0  0  0  0  0  0
   16.8053  -14.6897  -16.8093 C   0  0  0  0  0  0  0  0  0  0  0  0
   17.5077  -13.5157  -17.4610 C   0  0  0  0  0  0  0  0  0  0  0  0
   18.1634  -12.8677  -16.2659 C   0  0  1  0  0  0  0  0  0  0  0  0
   18.5128  -11.4518  -16.5077 C   0  0  0  0  0  0  0  0  0  0  0  0
   19.4528  -11.1755  -17.2888 O   0  0  0  0  0  0  0  0  0  0  0  0
   17.8253  -10.3673  -15.8886 N   0  0  0  0  0  0  0  0  0  0  0  0
   18.1651   -8.9827  -16.1114 C   0  0  1  0  0  0  0  0  0  0  0  0
   16.8865   -8.1796  -15.8362 C   0  0  0  0  0  0  0  0  0  0  0  0
   17.2306   -6.4064  -15.9823 S   0  0  0  0  0  0  0  0  0  0  0  0
   19.1631   -8.4981  -15.1121 C   0  0  0  0  0  0  0  0  0  0  0  0
   19.0382   -8.7952  -13.8974 O   0  0  0  0  0  0  0  0  0  0  0  0
   23.8390  -10.0703  -15.0005 C   0  0  0  0  0  0  0  0  0  0  0  0
   22.5126   -9.4551  -14.6728 C   0  0  0  0  0  0  0  0  0  0  0  0
   22.6171   -7.9545  -14.8375 C   0  0  2  0  0  0  0  0  0  0  0  0
   23.6763   -7.3571  -13.9606 C   0  0  0  0  0  0  0  0  0  0  0  0
   21.2946   -7.2736  -14.5478 C   0  0  2  0  0  0  0  0  0  0  0  0
   20.2725   -7.6973  -15.4865 N   0  0  0  0  0  0  0  0  0  0  0  0
   21.4357   -5.8110  -14.6490 C   0  0  0  0  0  0  0  0  0  0  0  0
   21.0212   -5.2112  -15.6628 O   0  0  0  0  0  0  0  0  0  0  0  0
   22.0205   -5.1082  -13.6328 O   0  0  0  0  0  0  0  0  0  0  0  0
  2  1  1  0
  3  2  1  0
  4  3  1  0
  4  5  1  0
  5  1  1  0
  5  6  1  6
  6  8  1  0
  7  6  2  0
  9  8  1  0
  9 12  1  0
  9 10  1  1
 11 10  1  0
 12 19  1  0
 13 12  2  0
 15 14  1  0
 16 17  1  1
 16 15  1  0
 18 16  1  0
 18 19  1  6
 20 18  1  0
 20 22  1  0
 21 20  2  0
M  END
$$$$
