PCI.pdb
     RDKit          3D

 22 22  0  0  1  0  0  0  0  0999 V2000
   27.9436  -21.0251  -13.7891 N   0  0  0  0  0  0  0  0  0  0  0  0
   28.0904  -21.1185  -15.2128 C   0  0  0  0  0  0  0  0  0  0  0  0
   28.2203  -19.7165  -15.7499 C   0  0  0  0  0  0  0  0  0  0  0  0
   27.6469  -18.8900  -14.6166 C   0  0  0  0  0  0  0  0  0  0  0  0
   28.1504  -19.6525  -13.4153 C   0  0  1  0  0  0  0  0  0  0  0  0
   27.3653  -19.3723  -12.1945 C   0  0  0  0  0  0  0  0  0  0  0  0
   27.2734  -18.1934  -11.7800 O   0  0  0  0  0  0  0  0  0  0  0  0
   26.6967  -20.3896  -11.4526 N   0  0  0  0  0  0  0  0  0  0  0  0
   25.8968  -20.1210  -10.2821 C   0  0  1  0  0  0  0  0  0  0  0  0
   24.5654  -20.8535  -10.4975 C   0  0  0  0  0  0  0  0  0  0  0  0
   23.4484  -20.5196   -9.1102 S   0  0  0  0  0  0  0  0  0  0  0  0
   26.4958  -20.7339   -9.0594 C   0  0  0  0  0  0  0  0  0  0  0  0
   27.0404  -21.8648   -9.1201 O   0  0  0  0  0  0  0  0  0  0  0  0
   29.3956  -17.9953   -5.4641 C   0  0  0  0  0  0  0  0  0  0  0  0
   28.8731  -19.1073   -6.3221 C   0  0  0  0  0  0  0  0  0  0  0  0
   27.6239  -19.6717   -5.6812 C   0  0  2  0  0  0  0  0  0  0  0  0
   27.9010  -20.3011   -4.3490 C   0  0  0  0  0  0  0  0  0  0  0  0
   26.9550  -20.6924   -6.5797 C   0  0  2  0  0  0  0  0  0  0  0  0
   26.4747  -20.0764   -7.8026 N   0  0  0  0  0  0  0  0  0  0  0  0
   25.8075  -21.3094   -5.8928 C   0  0  0  0  0  0  0  0  0  0  0  0
   25.9973  -22.1055   -4.9497 O   0  0  0  0  0  0  0  0  0  0  0  0
   24.5331  -21.0110   -6.2869 O   0  0  0  0  0  0  0  0  0  0  0  0
  2  1  1  0
  3  2  1  0
  4  3  1  0
  4  5  1  0
  5  1  1  0
  5  6  1  1
  6  8  1  0
  7  6  2  0
  9  8  1  0
  9 12  1  0
  9 10  1  6
 11 10  1  0
 12 19  1  0
 13 12  2  0
 15 14  1  0
 16 17  1  1
 16 15  1  0
 18 16  1  0
 18 19  1  6
 20 18  1  0
 20 22  1  0
 21 20  2  0
M  END
$$$$
