PCI.pdb
     RDKit          3D

 22 22  0  0  1  0  0  0  0  0999 V2000
   24.5790  -12.6591  -15.6246 N   0  0  0  0  0  0  0  0  0  0  0  0
   24.9716  -14.0346  -15.7300 C   0  0  0  0  0  0  0  0  0  0  0  0
   24.7778  -14.4546  -17.1642 C   0  0  0  0  0  0  0  0  0  0  0  0
   23.8182  -13.3990  -17.6753 C   0  0  0  0  0  0  0  0  0  0  0  0
   24.3209  -12.1730  -16.9527 C   0  0  1  0  0  0  0  0  0  0  0  0
   23.3041  -11.1028  -16.8742 C   0  0  0  0  0  0  0  0  0  0  0  0
   22.9605  -10.5038  -17.9197 O   0  0  0  0  0  0  0  0  0  0  0  0
   22.6845  -10.7106  -15.6518 N   0  0  0  0  0  0  0  0  0  0  0  0
   21.6939   -9.6650  -15.5650 C   0  0  1  0  0  0  0  0  0  0  0  0
   20.6225  -10.1716  -14.5898 C   0  0  0  0  0  0  0  0  0  0  0  0
   19.4559  -11.2487  -15.4632 S   0  0  0  0  0  0  0  0  0  0  0  0
   22.2549   -8.4326  -14.9358 C   0  0  0  0  0  0  0  0  0  0  0  0
   23.1707   -8.5197  -14.0795 O   0  0  0  0  0  0  0  0  0  0  0  0
   25.4015   -4.3191  -16.9827 C   0  0  0  0  0  0  0  0  0  0  0  0
   24.3270   -4.4115  -15.9423 C   0  0  0  0  0  0  0  0  0  0  0  0
   23.5424   -5.6863  -16.1636 C   0  0  2  0  0  0  0  0  0  0  0  0
   22.8031   -5.6818  -17.4678 C   0  0  0  0  0  0  0  0  0  0  0  0
   22.5570   -5.9307  -15.0385 C   0  0  2  0  0  0  0  0  0  0  0  0
   21.7856   -7.1371  -15.2729 N   0  0  0  0  0  0  0  0  0  0  0  0
   21.6203   -4.8003  -14.9200 C   0  0  0  0  0  0  0  0  0  0  0  0
   21.9853   -3.7405  -14.3695 O   0  0  0  0  0  0  0  0  0  0  0  0
   20.3500   -4.9099  -15.4129 O   0  0  0  0  0  0  0  0  0  0  0  0
  2  1  1  0
  3  2  1  0
  4  3  1  0
  4  5  1  0
  5  1  1  0
  5  6  1  1
  6  8  1  0
  7  6  2  0
  9  8  1  0
  9 12  1  0
  9 10  1  1
 11 10  1  0
 12 19  1  0
 13 12  2  0
 15 14  1  0
 16 17  1  6
 16 15  1  0
 18 16  1  0
 18 19  1  6
 20 18  1  0
 20 22  1  0
 21 20  2  0
M  END
$$$$
