PMI.pdb
     RDKit          3D

 24 24  0  0  1  0  0  0  0  0999 V2000
   27.2927  -20.9912  -14.5860 N   0  0  0  0  0  0  0  0  0  0  0  0
   27.9274  -20.9046  -15.8887 C   0  0  0  0  0  0  0  0  0  0  0  0
   28.2380  -19.4357  -16.0815 C   0  0  0  0  0  0  0  0  0  0  0  0
   27.9084  -18.7911  -14.7288 C   0  0  0  0  0  0  0  0  0  0  0  0
   28.0092  -20.0091  -13.8307 C   0  0  1  0  0  0  0  0  0  0  0  0
   27.4739  -19.7752  -12.4899 C   0  0  0  0  0  0  0  0  0  0  0  0
   27.9998  -18.8940  -11.7656 O   0  0  0  0  0  0  0  0  0  0  0  0
   21.3234  -20.8355  -11.9236 C   0  0  0  0  0  0  0  0  0  0  0  0
   21.5800  -19.9031  -10.4050 S   0  0  0  0  0  0  0  0  0  0  0  0
   23.3116  -19.7345  -10.0148 C   0  0  0  0  0  0  0  0  0  0  0  0
   24.1859  -20.1713  -11.1363 C   0  0  0  0  0  0  0  0  0  0  0  0
   25.6707  -20.1175  -10.7621 C   0  0  2  0  0  0  0  0  0  0  0  0
   26.3791  -20.5037  -11.9652 N   0  0  0  0  0  0  0  0  0  0  0  0
   26.0302  -20.8764   -9.5791 C   0  0  0  0  0  0  0  0  0  0  0  0
   26.1276  -22.1309   -9.6199 O   0  0  0  0  0  0  0  0  0  0  0  0
   29.2252  -18.1479   -6.0632 C   0  0  0  0  0  0  0  0  0  0  0  0
   28.5484  -19.2146   -6.8708 C   0  0  0  0  0  0  0  0  0  0  0  0
   27.3161  -19.7896   -6.2472 C   0  0  2  0  0  0  0  0  0  0  0  0
   27.6013  -20.4605   -4.9209 C   0  0  0  0  0  0  0  0  0  0  0  0
   26.6341  -20.8442   -7.1481 C   0  0  2  0  0  0  0  0  0  0  0  0
   26.2810  -20.1834   -8.3663 N   0  0  0  0  0  0  0  0  0  0  0  0
   25.4288  -21.3534   -6.4255 C   0  0  0  0  0  0  0  0  0  0  0  0
   24.1901  -20.8764   -6.7861 O   0  0  0  0  0  0  0  0  0  0  0  0
   25.5231  -22.1904   -5.5113 O   0  0  0  0  0  0  0  0  0  0  0  0
  1  5  1  0
  1  2  1  0
  2  3  1  0
  4  3  1  0
  5  4  1  0
  6 13  1  0
  5  6  1  1
  7  6  2  0
  8  9  1  0
  9 10  1  0
 10 11  1  0
 12 11  1  6
 12 13  1  0
 14 15  2  0
 14 12  1  0
 16 17  1  0
 17 18  1  0
 18 20  1  0
 18 19  1  1
 20 22  1  0
 20 21  1  6
 21 14  1  0
 22 23  1  0
 24 22  2  0
M  END
$$$$
