PMI.pdb
     RDKit          3D

 24 24  0  0  1  0  0  0  0  0999 V2000
   28.1776  -20.3990  -15.6732 N   0  0  0  0  0  0  0  0  0  0  0  0
   29.1270  -20.6043  -16.7521 C   0  0  0  0  0  0  0  0  0  0  0  0
   29.5662  -22.0472  -16.6244 C   0  0  0  0  0  0  0  0  0  0  0  0
   28.6496  -22.6352  -15.5437 C   0  0  0  0  0  0  0  0  0  0  0  0
   27.4945  -21.6556  -15.6236 C   0  0  1  0  0  0  0  0  0  0  0  0
   26.5577  -21.7858  -14.5080 C   0  0  0  0  0  0  0  0  0  0  0  0
   25.7085  -22.7112  -14.5262 O   0  0  0  0  0  0  0  0  0  0  0  0
   27.3267  -20.9880   -7.5356 C   0  0  0  0  0  0  0  0  0  0  0  0
   26.3463  -19.7878   -8.4519 S   0  0  0  0  0  0  0  0  0  0  0  0
   25.5253  -20.5305   -9.8495 C   0  0  0  0  0  0  0  0  0  0  0  0
   26.3838  -20.5435  -11.0644 C   0  0  0  0  0  0  0  0  0  0  0  0
   25.6128  -20.9973  -12.3082 C   0  0  2  0  0  0  0  0  0  0  0  0
   26.5638  -20.9080  -13.3973 N   0  0  0  0  0  0  0  0  0  0  0  0
   24.3619  -20.2998  -12.5394 C   0  0  0  0  0  0  0  0  0  0  0  0
   24.3359  -19.0501  -12.6891 O   0  0  0  0  0  0  0  0  0  0  0  0
   20.2655  -23.6664  -14.3543 C   0  0  0  0  0  0  0  0  0  0  0  0
   20.9192  -22.7356  -13.3776 C   0  0  0  0  0  0  0  0  0  0  0  0
   21.1687  -21.3541  -13.8949 C   0  0  2  0  0  0  0  0  0  0  0  0
   22.0230  -21.3526  -15.1442 C   0  0  0  0  0  0  0  0  0  0  0  0
   21.8822  -20.4548  -12.8600 C   0  0  2  0  0  0  0  0  0  0  0  0
   23.1579  -21.0484  -12.6038 N   0  0  0  0  0  0  0  0  0  0  0  0
   21.0350  -20.4113  -11.6295 C   0  0  0  0  0  0  0  0  0  0  0  0
   19.8909  -19.6477  -11.6400 O   0  0  0  0  0  0  0  0  0  0  0  0
   21.3422  -21.0442  -10.6046 O   0  0  0  0  0  0  0  0  0  0  0  0
  1  5  1  0
  1  2  1  0
  2  3  1  0
  4  3  1  0
  5  4  1  0
  6 13  1  0
  5  6  1  1
  7  6  2  0
  8  9  1  0
  9 10  1  0
 10 11  1  0
 12 11  1  1
 12 13  1  0
 14 15  2  0
 14 12  1  0
 16 17  1  0
 17 18  1  0
 18 20  1  0
 18 19  1  6
 20 22  1  0
 20 21  1  1
 21 14  1  0
 22 23  1  0
 24 22  2  0
M  END
$$$$
