PMI.pdb
     RDKit          3D

 24 24  0  0  1  0  0  0  0  0999 V2000
   27.2161  -19.6955  -14.6470 N   0  0  0  0  0  0  0  0  0  0  0  0
   28.0412  -20.3775  -15.6273 C   0  0  0  0  0  0  0  0  0  0  0  0
   29.1954  -20.9583  -14.8388 C   0  0  0  0  0  0  0  0  0  0  0  0
   28.8242  -20.7085  -13.3712 C   0  0  0  0  0  0  0  0  0  0  0  0
   27.3215  -20.5548  -13.5074 C   0  0  1  0  0  0  0  0  0  0  0  0
   26.6900  -20.0279  -12.2980 C   0  0  0  0  0  0  0  0  0  0  0  0
   26.7878  -18.8024  -12.0401 O   0  0  0  0  0  0  0  0  0  0  0  0
   20.9272  -20.7399   -9.9683 C   0  0  0  0  0  0  0  0  0  0  0  0
   21.5861  -19.8528  -11.3896 S   0  0  0  0  0  0  0  0  0  0  0  0
   23.3659  -19.7569  -11.3448 C   0  0  0  0  0  0  0  0  0  0  0  0
   23.9421  -20.5244  -10.2081 C   0  0  0  0  0  0  0  0  0  0  0  0
   25.4638  -20.3687  -10.1221 C   0  0  2  0  0  0  0  0  0  0  0  0
   25.9661  -20.8436  -11.3952 N   0  0  0  0  0  0  0  0  0  0  0  0
   26.0764  -20.9877   -8.9618 C   0  0  0  0  0  0  0  0  0  0  0  0
   26.3036  -22.2256   -8.9331 O   0  0  0  0  0  0  0  0  0  0  0  0
   29.2856  -17.7907   -5.8018 C   0  0  0  0  0  0  0  0  0  0  0  0
   28.6831  -18.9876   -6.4742 C   0  0  0  0  0  0  0  0  0  0  0  0
   27.4734  -19.5484   -5.7958 C   0  0  2  0  0  0  0  0  0  0  0  0
   27.7827  -20.0779   -4.4122 C   0  0  0  0  0  0  0  0  0  0  0  0
   26.8345  -20.7100   -6.5904 C   0  0  2  0  0  0  0  0  0  0  0  0
   26.4273  -20.1749   -7.8526 N   0  0  0  0  0  0  0  0  0  0  0  0
   25.6699  -21.2176   -5.8030 C   0  0  0  0  0  0  0  0  0  0  0  0
   25.8876  -22.1806   -4.8452 O   0  0  0  0  0  0  0  0  0  0  0  0
   24.5180  -20.7923   -5.9965 O   0  0  0  0  0  0  0  0  0  0  0  0
  1  5  1  0
  1  2  1  0
  2  3  1  0
  4  3  1  0
  5  4  1  0
  6 13  1  0
  5  6  1  1
  7  6  2  0
  8  9  1  0
  9 10  1  0
 10 11  1  0
 12 11  1  6
 12 13  1  0
 14 15  2  0
 14 12  1  0
 16 17  1  0
 17 18  1  0
 18 20  1  0
 18 19  1  1
 20 22  1  0
 20 21  1  6
 21 14  1  0
 22 23  1  0
 24 22  2  0
M  END
$$$$
