PMI.pdb
     RDKit          3D

 24 24  0  0  1  0  0  0  0  0999 V2000
   30.7326  -20.7829  -10.9326 N   0  0  0  0  0  0  0  0  0  0  0  0
   32.0216  -21.1965  -11.4566 C   0  0  0  0  0  0  0  0  0  0  0  0
   32.3832  -22.4446  -10.6803 C   0  0  0  0  0  0  0  0  0  0  0  0
   31.1258  -22.7680   -9.8627 C   0  0  0  0  0  0  0  0  0  0  0  0
   30.0854  -22.0358  -10.6883 C   0  0  1  0  0  0  0  0  0  0  0  0
   28.7949  -21.9223  -10.0095 C   0  0  0  0  0  0  0  0  0  0  0  0
   28.0019  -22.8961  -10.0346 O   0  0  0  0  0  0  0  0  0  0  0  0
   28.4939  -19.4316   -4.4481 C   0  0  0  0  0  0  0  0  0  0  0  0
   26.7260  -19.2971   -4.7606 S   0  0  0  0  0  0  0  0  0  0  0  0
   26.2910  -19.9009   -6.3809 C   0  0  0  0  0  0  0  0  0  0  0  0
   27.4613  -19.9426   -7.2984 C   0  0  0  0  0  0  0  0  0  0  0  0
   27.1282  -20.6355   -8.6237 C   0  0  2  0  0  0  0  0  0  0  0  0
   28.3939  -20.7535   -9.3183 N   0  0  0  0  0  0  0  0  0  0  0  0
   26.0726  -20.0052   -9.3938 C   0  0  0  0  0  0  0  0  0  0  0  0
   26.0541  -18.7585   -9.5670 O   0  0  0  0  0  0  0  0  0  0  0  0
   26.3647  -20.9247  -14.0520 C   0  0  0  0  0  0  0  0  0  0  0  0
   25.9009  -20.4180  -12.7194 C   0  0  0  0  0  0  0  0  0  0  0  0
   24.5500  -20.9026  -12.2970 C   0  0  2  0  0  0  0  0  0  0  0  0
   23.4691  -20.5320  -13.2893 C   0  0  0  0  0  0  0  0  0  0  0  0
   24.1186  -20.3323  -10.9268 C   0  0  2  0  0  0  0  0  0  0  0  0
   25.0562  -20.8167   -9.9617 N   0  0  0  0  0  0  0  0  0  0  0  0
   22.7333  -20.8174  -10.6444 C   0  0  0  0  0  0  0  0  0  0  0  0
   21.6671  -20.0510  -11.0541 O   0  0  0  0  0  0  0  0  0  0  0  0
   22.5274  -21.8893  -10.0494 O   0  0  0  0  0  0  0  0  0  0  0  0
  1  5  1  0
  1  2  1  0
  2  3  1  0
  4  3  1  0
  5  4  1  0
  6 13  1  0
  5  6  1  1
  7  6  2  0
  8  9  1  0
  9 10  1  0
 10 11  1  0
 12 11  1  1
 12 13  1  0
 14 15  2  0
 14 12  1  0
 16 17  1  0
 17 18  1  0
 18 20  1  0
 18 19  1  6
 20 22  1  0
 20 21  1  1
 21 14  1  0
 22 23  1  0
 24 22  2  0
M  END
$$$$
