PMI.pdb
     RDKit          3D

 24 24  0  0  1  0  0  0  0  0999 V2000
   27.6553  -20.9788  -15.6115 N   0  0  0  0  0  0  0  0  0  0  0  0
   28.3686  -20.8474  -16.8689 C   0  0  0  0  0  0  0  0  0  0  0  0
   28.4392  -19.3583  -17.1309 C   0  0  0  0  0  0  0  0  0  0  0  0
   27.8971  -18.7149  -15.8479 C   0  0  0  0  0  0  0  0  0  0  0  0
   28.1311  -19.8506  -14.8705 C   0  0  1  0  0  0  0  0  0  0  0  0
   27.4577  -19.6477  -13.5881 C   0  0  0  0  0  0  0  0  0  0  0  0
   27.8015  -18.6821  -12.8619 O   0  0  0  0  0  0  0  0  0  0  0  0
   21.3742  -22.0791  -12.7162 C   0  0  0  0  0  0  0  0  0  0  0  0
   21.4999  -20.4897  -11.8797 S   0  0  0  0  0  0  0  0  0  0  0  0
   23.1710  -20.1413  -11.3651 C   0  0  0  0  0  0  0  0  0  0  0  0
   24.1580  -20.3970  -12.4484 C   0  0  0  0  0  0  0  0  0  0  0  0
   25.5997  -20.1897  -11.9732 C   0  0  2  0  0  0  0  0  0  0  0  0
   26.4258  -20.4979  -13.1226 N   0  0  0  0  0  0  0  0  0  0  0  0
   25.9536  -20.9093  -10.7642 C   0  0  0  0  0  0  0  0  0  0  0  0
   26.0871  -22.1611  -10.7719 O   0  0  0  0  0  0  0  0  0  0  0  0
   28.8319  -19.6613   -5.4792 C   0  0  0  0  0  0  0  0  0  0  0  0
   27.8380  -20.4858   -6.2409 C   0  0  0  0  0  0  0  0  0  0  0  0
   27.3646  -19.8761   -7.5224 C   0  0  2  0  0  0  0  0  0  0  0  0
   26.6282  -18.5723   -7.3022 C   0  0  0  0  0  0  0  0  0  0  0  0
   26.4092  -20.8070   -8.3031 C   0  0  2  0  0  0  0  0  0  0  0  0
   26.1573  -20.1804   -9.5637 N   0  0  0  0  0  0  0  0  0  0  0  0
   25.1577  -20.9567   -7.4998 C   0  0  0  0  0  0  0  0  0  0  0  0
   25.1424  -21.8565   -6.4595 O   0  0  0  0  0  0  0  0  0  0  0  0
   24.1382  -20.2917   -7.7525 O   0  0  0  0  0  0  0  0  0  0  0  0
  1  5  1  0
  1  2  1  0
  2  3  1  0
  4  3  1  0
  5  4  1  0
  6 13  1  0
  5  6  1  1
  7  6  2  0
  8  9  1  0
  9 10  1  0
 10 11  1  0
 12 11  1  6
 12 13  1  0
 14 15  2  0
 14 12  1  0
 16 17  1  0
 17 18  1  0
 18 20  1  0
 18 19  1  1
 20 22  1  0
 20 21  1  6
 21 14  1  0
 22 23  1  0
 24 22  2  0
M  END
$$$$
