PMI.pdb
     RDKit          3D

 24 24  0  0  1  0  0  0  0  0999 V2000
   25.4598  -14.5334  -15.2395 N   0  0  0  0  0  0  0  0  0  0  0  0
   26.6367  -15.3803  -15.3087 C   0  0  0  0  0  0  0  0  0  0  0  0
   26.7263  -15.8172  -16.7552 C   0  0  0  0  0  0  0  0  0  0  0  0
   25.6472  -14.9964  -17.4734 C   0  0  0  0  0  0  0  0  0  0  0  0
   25.5026  -13.8470  -16.4946 C   0  0  1  0  0  0  0  0  0  0  0  0
   24.3314  -13.0131  -16.7628 C   0  0  0  0  0  0  0  0  0  0  0  0
   24.3112  -12.2997  -17.7964 O   0  0  0  0  0  0  0  0  0  0  0  0
   18.6435  -14.7987  -14.7425 C   0  0  0  0  0  0  0  0  0  0  0  0
   18.1624  -13.1655  -15.3276 S   0  0  0  0  0  0  0  0  0  0  0  0
   19.5725  -12.2033  -15.8422 C   0  0  0  0  0  0  0  0  0  0  0  0
   20.8524  -12.9395  -15.6602 C   0  0  0  0  0  0  0  0  0  0  0  0
   22.0580  -12.1225  -16.1359 C   0  0  2  0  0  0  0  0  0  0  0  0
   23.2078  -12.9723  -15.9024 N   0  0  0  0  0  0  0  0  0  0  0  0
   22.1612  -10.7947  -15.5607 C   0  0  0  0  0  0  0  0  0  0  0  0
   22.7186  -10.6136  -14.4466 O   0  0  0  0  0  0  0  0  0  0  0  0
   22.7710   -5.1806  -17.8529 C   0  0  0  0  0  0  0  0  0  0  0  0
   22.3348   -6.0451  -16.7083 C   0  0  0  0  0  0  0  0  0  0  0  0
   22.0943   -7.4795  -17.0587 C   0  0  2  0  0  0  0  0  0  0  0  0
   20.9644   -7.6481  -18.0513 C   0  0  0  0  0  0  0  0  0  0  0  0
   21.7412   -8.3391  -15.8237 C   0  0  2  0  0  0  0  0  0  0  0  0
   21.6296   -9.6909  -16.2770 N   0  0  0  0  0  0  0  0  0  0  0  0
   20.4492   -7.8334  -15.2679 C   0  0  0  0  0  0  0  0  0  0  0  0
   20.4795   -6.8159  -14.3428 O   0  0  0  0  0  0  0  0  0  0  0  0
   19.3571   -8.3117  -15.6202 O   0  0  0  0  0  0  0  0  0  0  0  0
  1  5  1  0
  1  2  1  0
  2  3  1  0
  4  3  1  0
  5  4  1  0
  6 13  1  0
  5  6  1  6
  7  6  2  0
  8  9  1  0
  9 10  1  0
 10 11  1  0
 12 11  1  1
 12 13  1  0
 14 15  2  0
 14 12  1  0
 16 17  1  0
 17 18  1  0
 18 20  1  0
 18 19  1  6
 20 22  1  0
 20 21  1  6
 21 14  1  0
 22 23  1  0
 24 22  2  0
M  END
$$$$
