PMI.pdb
     RDKit          3D

 24 24  0  0  1  0  0  0  0  0999 V2000
   27.4316  -21.0322  -14.4467 N   0  0  0  0  0  0  0  0  0  0  0  0
   28.0722  -20.9255  -15.7449 C   0  0  0  0  0  0  0  0  0  0  0  0
   28.1929  -19.4395  -16.0066 C   0  0  0  0  0  0  0  0  0  0  0  0
   27.7592  -18.7799  -14.6910 C   0  0  0  0  0  0  0  0  0  0  0  0
   28.0015  -19.9303  -13.7329 C   0  0  1  0  0  0  0  0  0  0  0  0
   27.4173  -19.7048  -12.4112 C   0  0  0  0  0  0  0  0  0  0  0  0
   27.8502  -18.7621  -11.7030 O   0  0  0  0  0  0  0  0  0  0  0  0
   21.3298  -20.7108  -12.0667 C   0  0  0  0  0  0  0  0  0  0  0  0
   21.5391  -20.1350  -10.3737 S   0  0  0  0  0  0  0  0  0  0  0  0
   23.2600  -19.9984   -9.9276 C   0  0  0  0  0  0  0  0  0  0  0  0
   24.1631  -20.3225  -11.0644 C   0  0  0  0  0  0  0  0  0  0  0  0
   25.6402  -20.1725  -10.6858 C   0  0  2  0  0  0  0  0  0  0  0  0
   26.3756  -20.5082  -11.8878 N   0  0  0  0  0  0  0  0  0  0  0  0
   26.0454  -20.9094   -9.5037 C   0  0  0  0  0  0  0  0  0  0  0  0
   26.2431  -22.1517   -9.5518 O   0  0  0  0  0  0  0  0  0  0  0  0
   29.1572  -18.1828   -5.9098 C   0  0  0  0  0  0  0  0  0  0  0  0
   28.4901  -19.2453   -6.7308 C   0  0  0  0  0  0  0  0  0  0  0  0
   27.2213  -19.7854   -6.1507 C   0  0  2  0  0  0  0  0  0  0  0  0
   27.4339  -20.4232   -4.7947 C   0  0  0  0  0  0  0  0  0  0  0  0
   26.5658  -20.8547   -7.0539 C   0  0  2  0  0  0  0  0  0  0  0  0
   26.2261  -20.2079   -8.2833 N   0  0  0  0  0  0  0  0  0  0  0  0
   25.3543  -21.3711   -6.3471 C   0  0  0  0  0  0  0  0  0  0  0  0
   25.4979  -22.4164   -5.4647 O   0  0  0  0  0  0  0  0  0  0  0  0
   24.2287  -20.8805   -6.5412 O   0  0  0  0  0  0  0  0  0  0  0  0
  1  5  1  0
  1  2  1  0
  2  3  1  0
  4  3  1  0
  5  4  1  0
  6 13  1  0
  5  6  1  1
  7  6  2  0
  8  9  1  0
  9 10  1  0
 10 11  1  0
 12 11  1  6
 12 13  1  0
 14 15  2  0
 14 12  1  0
 16 17  1  0
 17 18  1  0
 18 20  1  0
 18 19  1  1
 20 22  1  0
 20 21  1  6
 21 14  1  0
 22 23  1  0
 24 22  2  0
M  END
$$$$
