PMI.pdb
     RDKit          3D

 24 24  0  0  1  0  0  0  0  0999 V2000
   27.6439  -19.4951  -15.0825 N   0  0  0  0  0  0  0  0  0  0  0  0
   28.8633  -19.4148  -15.8659 C   0  0  0  0  0  0  0  0  0  0  0  0
   29.5428  -20.7546  -15.6803 C   0  0  0  0  0  0  0  0  0  0  0  0
   28.5179  -21.6043  -14.9178 C   0  0  0  0  0  0  0  0  0  0  0  0
   27.2470  -20.8569  -15.2731 C   0  0  1  0  0  0  0  0  0  0  0  0
   26.0992  -21.2663  -14.4644 C   0  0  0  0  0  0  0  0  0  0  0  0
   25.5016  -22.3346  -14.7459 O   0  0  0  0  0  0  0  0  0  0  0  0
   26.1491  -19.4476   -8.5069 C   0  0  0  0  0  0  0  0  0  0  0  0
   26.5398  -21.1310   -9.0117 S   0  0  0  0  0  0  0  0  0  0  0  0
   26.0585  -21.4460  -10.6993 C   0  0  0  0  0  0  0  0  0  0  0  0
   24.8971  -20.6157  -11.1172 C   0  0  0  0  0  0  0  0  0  0  0  0
   24.4833  -20.8940  -12.5659 C   0  0  2  0  0  0  0  0  0  0  0  0
   25.6258  -20.5063  -13.3677 N   0  0  0  0  0  0  0  0  0  0  0  0
   23.2283  -20.2885  -12.9696 C   0  0  0  0  0  0  0  0  0  0  0  0
   23.1175  -19.0390  -13.0764 O   0  0  0  0  0  0  0  0  0  0  0  0
   19.0495  -21.3682  -17.0831 C   0  0  0  0  0  0  0  0  0  0  0  0
   19.3062  -20.8461  -15.7013 C   0  0  0  0  0  0  0  0  0  0  0  0
   20.5965  -21.2922  -15.0894 C   0  0  2  0  0  0  0  0  0  0  0  0
   20.6429  -22.7890  -14.8707 C   0  0  0  0  0  0  0  0  0  0  0  0
   20.8623  -20.6282  -13.7192 C   0  0  2  0  0  0  0  0  0  0  0  0
   22.1190  -21.1269  -13.2531 N   0  0  0  0  0  0  0  0  0  0  0  0
   19.7432  -21.0050  -12.8029 C   0  0  0  0  0  0  0  0  0  0  0  0
   19.9612  -21.9802  -11.8576 O   0  0  0  0  0  0  0  0  0  0  0  0
   18.6280  -20.4609  -12.8789 O   0  0  0  0  0  0  0  0  0  0  0  0
  1  5  1  0
  1  2  1  0
  2  3  1  0
  4  3  1  0
  5  4  1  0
  6 13  1  0
  5  6  1  1
  7  6  2  0
  8  9  1  0
  9 10  1  0
 10 11  1  0
 12 11  1  1
 12 13  1  0
 14 15  2  0
 14 12  1  0
 16 17  1  0
 17 18  1  0
 18 20  1  0
 18 19  1  1
 20 22  1  0
 20 21  1  1
 21 14  1  0
 22 23  1  0
 24 22  2  0
M  END
$$$$
