PMI.pdb
     RDKit          3D

 24 24  0  0  1  0  0  0  0  0999 V2000
   28.2412  -20.2662  -15.5685 N   0  0  0  0  0  0  0  0  0  0  0  0
   29.4284  -20.2982  -16.4032 C   0  0  0  0  0  0  0  0  0  0  0  0
   29.5874  -21.7472  -16.8109 C   0  0  0  0  0  0  0  0  0  0  0  0
   28.3115  -22.4325  -16.3048 C   0  0  0  0  0  0  0  0  0  0  0  0
   27.3942  -21.2289  -16.2042 C   0  0  1  0  0  0  0  0  0  0  0  0
   26.1575  -21.5132  -15.4771 C   0  0  0  0  0  0  0  0  0  0  0  0
   25.1772  -21.9918  -16.0998 O   0  0  0  0  0  0  0  0  0  0  0  0
   24.3464  -20.4816   -9.1192 C   0  0  0  0  0  0  0  0  0  0  0  0
   26.0597  -20.4943   -9.6721 S   0  0  0  0  0  0  0  0  0  0  0  0
   26.1870  -20.7522  -11.4317 C   0  0  0  0  0  0  0  0  0  0  0  0
   25.2872  -21.8371  -11.9076 C   0  0  0  0  0  0  0  0  0  0  0  0
   24.8143  -21.6021  -13.3459 C   0  0  2  0  0  0  0  0  0  0  0  0
   26.0126  -21.2714  -14.0897 N   0  0  0  0  0  0  0  0  0  0  0  0
   23.7334  -20.6445  -13.4845 C   0  0  0  0  0  0  0  0  0  0  0  0
   23.9294  -19.4154  -13.2952 O   0  0  0  0  0  0  0  0  0  0  0  0
   21.8245  -20.0407  -17.9193 C   0  0  0  0  0  0  0  0  0  0  0  0
   22.0971  -19.9139  -16.4505 C   0  0  0  0  0  0  0  0  0  0  0  0
   20.9692  -20.3343  -15.5622 C   0  0  2  0  0  0  0  0  0  0  0  0
   19.7275  -19.4947  -15.7718 C   0  0  0  0  0  0  0  0  0  0  0  0
   21.3299  -20.2388  -14.0624 C   0  0  2  0  0  0  0  0  0  0  0  0
   22.4429  -21.1106  -13.8468 N   0  0  0  0  0  0  0  0  0  0  0  0
   20.1328  -20.6647  -13.2753 C   0  0  0  0  0  0  0  0  0  0  0  0
   19.2976  -19.6980  -12.7653 O   0  0  0  0  0  0  0  0  0  0  0  0
   19.8804  -21.8648  -13.0720 O   0  0  0  0  0  0  0  0  0  0  0  0
  1  5  1  0
  1  2  1  0
  2  3  1  0
  4  3  1  0
  5  4  1  0
  6 13  1  0
  5  6  1  1
  7  6  2  0
  8  9  1  0
  9 10  1  0
 10 11  1  0
 12 11  1  1
 12 13  1  0
 14 15  2  0
 14 12  1  0
 16 17  1  0
 17 18  1  0
 18 20  1  0
 18 19  1  1
 20 22  1  0
 20 21  1  6
 21 14  1  0
 22 23  1  0
 24 22  2  0
M  END
$$$$
