PMI.pdb
     RDKit          3D

 24 24  0  0  1  0  0  0  0  0999 V2000
   26.9324  -20.8449  -14.5722 N   0  0  0  0  0  0  0  0  0  0  0  0
   27.5488  -20.7626  -15.8839 C   0  0  0  0  0  0  0  0  0  0  0  0
   28.1383  -19.3704  -15.9583 C   0  0  0  0  0  0  0  0  0  0  0  0
   27.9655  -18.8024  -14.5436 C   0  0  0  0  0  0  0  0  0  0  0  0
   27.8409  -20.0947  -13.7597 C   0  0  1  0  0  0  0  0  0  0  0  0
   27.3855  -19.8867  -12.3855 C   0  0  0  0  0  0  0  0  0  0  0  0
   28.0743  -19.1750  -11.6131 O   0  0  0  0  0  0  0  0  0  0  0  0
   21.0874  -19.8230  -11.4305 C   0  0  0  0  0  0  0  0  0  0  0  0
   21.5984  -20.1316   -9.7320 S   0  0  0  0  0  0  0  0  0  0  0  0
   23.3607  -19.9541   -9.5269 C   0  0  0  0  0  0  0  0  0  0  0  0
   24.1046  -20.2388  -10.7833 C   0  0  0  0  0  0  0  0  0  0  0  0
   25.6189  -20.0963  -10.5995 C   0  0  2  0  0  0  0  0  0  0  0  0
   26.1919  -20.4565  -11.8804 N   0  0  0  0  0  0  0  0  0  0  0  0
   26.1673  -20.8189   -9.4675 C   0  0  0  0  0  0  0  0  0  0  0  0
   26.3294  -22.0665   -9.5131 O   0  0  0  0  0  0  0  0  0  0  0  0
   29.5767  -19.2823   -4.5298 C   0  0  0  0  0  0  0  0  0  0  0  0
   28.6683  -20.2435   -5.2361 C   0  0  0  0  0  0  0  0  0  0  0  0
   28.0129  -19.7015   -6.4670 C   0  0  2  0  0  0  0  0  0  0  0  0
   27.1982  -18.4576   -6.1853 C   0  0  0  0  0  0  0  0  0  0  0  0
   27.0609  -20.7233   -7.1291 C   0  0  2  0  0  0  0  0  0  0  0  0
   26.5300  -20.0976   -8.3003 N   0  0  0  0  0  0  0  0  0  0  0  0
   25.9872  -21.0545   -6.1436 C   0  0  0  0  0  0  0  0  0  0  0  0
   26.2729  -21.9308   -5.1226 O   0  0  0  0  0  0  0  0  0  0  0  0
   24.8499  -20.5597   -6.2289 O   0  0  0  0  0  0  0  0  0  0  0  0
  1  5  1  0
  1  2  1  0
  2  3  1  0
  4  3  1  0
  5  4  1  0
  6 13  1  0
  5  6  1  1
  7  6  2  0
  8  9  1  0
  9 10  1  0
 10 11  1  0
 12 11  1  6
 12 13  1  0
 14 15  2  0
 14 12  1  0
 16 17  1  0
 17 18  1  0
 18 20  1  0
 18 19  1  1
 20 22  1  0
 20 21  1  6
 21 14  1  0
 22 23  1  0
 24 22  2  0
M  END
$$$$
