PMI.pdb
     RDKit          3D

 24 24  0  0  1  0  0  0  0  0999 V2000
   28.5151  -19.4771  -16.9341 N   0  0  0  0  0  0  0  0  0  0  0  0
   28.6879  -19.3870  -18.3725 C   0  0  0  0  0  0  0  0  0  0  0  0
   29.1797  -20.7535  -18.7992 C   0  0  0  0  0  0  0  0  0  0  0  0
   29.0669  -21.6158  -17.5352 C   0  0  0  0  0  0  0  0  0  0  0  0
   28.0335  -20.8145  -16.7670 C   0  0  1  0  0  0  0  0  0  0  0  0
   27.9055  -21.2365  -15.3725 C   0  0  0  0  0  0  0  0  0  0  0  0
   27.1288  -22.1816  -15.0875 O   0  0  0  0  0  0  0  0  0  0  0  0
   32.6152  -22.5093  -10.8881 C   0  0  0  0  0  0  0  0  0  0  0  0
   31.5639  -21.2116  -10.2157 S   0  0  0  0  0  0  0  0  0  0  0  0
   29.9168  -21.2735  -10.8956 C   0  0  0  0  0  0  0  0  0  0  0  0
   29.8884  -20.9010  -12.3355 C   0  0  0  0  0  0  0  0  0  0  0  0
   28.4798  -21.0066  -12.9289 C   0  0  2  0  0  0  0  0  0  0  0  0
   28.6239  -20.6226  -14.3183 N   0  0  0  0  0  0  0  0  0  0  0  0
   27.4556  -20.2787  -12.2037 C   0  0  0  0  0  0  0  0  0  0  0  0
   27.4670  -19.0208  -12.1558 O   0  0  0  0  0  0  0  0  0  0  0  0
   22.7579  -21.0547  -13.6635 C   0  0  0  0  0  0  0  0  0  0  0  0
   23.9684  -20.5265  -12.9540 C   0  0  0  0  0  0  0  0  0  0  0  0
   24.0407  -20.8614  -11.4977 C   0  0  2  0  0  0  0  0  0  0  0  0
   22.9029  -20.2499  -10.7091 C   0  0  0  0  0  0  0  0  0  0  0  0
   25.3543  -20.3761  -10.8435 C   0  0  2  0  0  0  0  0  0  0  0  0
   26.4269  -21.0054  -11.5498 N   0  0  0  0  0  0  0  0  0  0  0  0
   25.3263  -20.7808   -9.4050 C   0  0  0  0  0  0  0  0  0  0  0  0
   24.9921  -19.8400   -8.4589 O   0  0  0  0  0  0  0  0  0  0  0  0
   25.5992  -21.9403   -9.0493 O   0  0  0  0  0  0  0  0  0  0  0  0
  1  5  1  0
  1  2  1  0
  2  3  1  0
  4  3  1  0
  5  4  1  0
  6 13  1  0
  5  6  1  1
  7  6  2  0
  8  9  1  0
  9 10  1  0
 10 11  1  0
 12 11  1  1
 12 13  1  0
 14 15  2  0
 14 12  1  0
 16 17  1  0
 17 18  1  0
 18 20  1  0
 18 19  1  1
 20 22  1  0
 20 21  1  6
 21 14  1  0
 22 23  1  0
 24 22  2  0
M  END
$$$$
