PMI.pdb
     RDKit          3D

 24 24  0  0  1  0  0  0  0  0999 V2000
   27.9472  -19.8176  -19.1388 N   0  0  0  0  0  0  0  0  0  0  0  0
   28.8227  -20.1005  -20.2615 C   0  0  0  0  0  0  0  0  0  0  0  0
   30.1059  -19.3559  -19.9611 C   0  0  0  0  0  0  0  0  0  0  0  0
   29.9213  -18.8308  -18.5314 C   0  0  0  0  0  0  0  0  0  0  0  0
   28.8603  -19.7951  -18.0369 C   0  0  1  0  0  0  0  0  0  0  0  0
   28.2603  -19.3820  -16.7687 C   0  0  0  0  0  0  0  0  0  0  0  0
   28.9785  -19.3306  -15.7394 O   0  0  0  0  0  0  0  0  0  0  0  0
   23.9359  -14.9365  -16.7970 C   0  0  0  0  0  0  0  0  0  0  0  0
   24.0218  -15.1723  -15.0143 S   0  0  0  0  0  0  0  0  0  0  0  0
   24.9429  -16.6367  -14.5826 C   0  0  0  0  0  0  0  0  0  0  0  0
   25.5934  -17.2610  -15.7658 C   0  0  0  0  0  0  0  0  0  0  0  0
   26.2981  -18.5737  -15.4083 C   0  0  2  0  0  0  0  0  0  0  0  0
   26.8935  -19.0337  -16.6462 N   0  0  0  0  0  0  0  0  0  0  0  0
   25.4626  -19.5527  -14.7391 C   0  0  0  0  0  0  0  0  0  0  0  0
   24.6520  -20.2639  -15.3888 O   0  0  0  0  0  0  0  0  0  0  0  0
   27.3051  -21.1107   -9.6920 C   0  0  0  0  0  0  0  0  0  0  0  0
   26.6821  -21.1567  -11.0550 C   0  0  0  0  0  0  0  0  0  0  0  0
   25.2955  -20.6006  -11.1325 C   0  0  2  0  0  0  0  0  0  0  0  0
   24.3130  -21.3840  -10.2890 C   0  0  0  0  0  0  0  0  0  0  0  0
   24.7421  -20.5899  -12.5756 C   0  0  2  0  0  0  0  0  0  0  0  0
   25.5749  -19.7077  -13.3329 N   0  0  0  0  0  0  0  0  0  0  0  0
   23.3291  -20.1059  -12.5207 C   0  0  0  0  0  0  0  0  0  0  0  0
   23.0879  -18.7549  -12.6149 O   0  0  0  0  0  0  0  0  0  0  0  0
   22.3757  -20.8930  -12.3904 O   0  0  0  0  0  0  0  0  0  0  0  0
  1  5  1  0
  1  2  1  0
  2  3  1  0
  4  3  1  0
  5  4  1  0
  6 13  1  0
  5  6  1  1
  7  6  2  0
  8  9  1  0
  9 10  1  0
 10 11  1  0
 12 11  1  6
 12 13  1  0
 14 15  2  0
 14 12  1  0
 16 17  1  0
 17 18  1  0
 18 20  1  0
 18 19  1  1
 20 22  1  0
 20 21  1  6
 21 14  1  0
 22 23  1  0
 24 22  2  0
M  END
$$$$
