PMI.pdb
     RDKit          3D

 24 24  0  0  1  0  0  0  0  0999 V2000
   24.4673  -18.8706  -17.9954 N   0  0  0  0  0  0  0  0  0  0  0  0
   24.0976  -18.7062  -19.3895 C   0  0  0  0  0  0  0  0  0  0  0  0
   22.6123  -18.4148  -19.3741 C   0  0  0  0  0  0  0  0  0  0  0  0
   22.2684  -18.2435  -17.8887 C   0  0  0  0  0  0  0  0  0  0  0  0
   23.6414  -17.9005  -17.3434 C   0  0  1  0  0  0  0  0  0  0  0  0
   23.7026  -17.9447  -15.8828 C   0  0  0  0  0  0  0  0  0  0  0  0
   22.9610  -17.1815  -15.2154 O   0  0  0  0  0  0  0  0  0  0  0  0
   19.4385  -20.6200  -13.6337 C   0  0  0  0  0  0  0  0  0  0  0  0
   20.8043  -21.7843  -13.4912 S   0  0  0  0  0  0  0  0  0  0  0  0
   22.3412  -20.9613  -13.1173 C   0  0  0  0  0  0  0  0  0  0  0  0
   22.8543  -20.1764  -14.2723 C   0  0  0  0  0  0  0  0  0  0  0  0
   24.1901  -19.4958  -13.9566 C   0  0  2  0  0  0  0  0  0  0  0  0
   24.5679  -18.8168  -15.1792 N   0  0  0  0  0  0  0  0  0  0  0  0
   25.2093  -20.3737  -13.4131 C   0  0  0  0  0  0  0  0  0  0  0  0
   25.5874  -21.3950  -14.0446 O   0  0  0  0  0  0  0  0  0  0  0  0
   29.5297  -20.1248   -9.4791 C   0  0  0  0  0  0  0  0  0  0  0  0
   28.2429  -20.8941   -9.4640 C   0  0  0  0  0  0  0  0  0  0  0  0
   27.1021  -20.2265  -10.1648 C   0  0  2  0  0  0  0  0  0  0  0  0
   25.8229  -20.2748   -9.3575 C   0  0  0  0  0  0  0  0  0  0  0  0
   26.7937  -20.8679  -11.5368 C   0  0  2  0  0  0  0  0  0  0  0  0
   25.7866  -20.0622  -12.1547 N   0  0  0  0  0  0  0  0  0  0  0  0
   26.3141  -22.2624  -11.2930 C   0  0  0  0  0  0  0  0  0  0  0  0
   27.2427  -23.2696  -11.1683 O   0  0  0  0  0  0  0  0  0  0  0  0
   25.1030  -22.5283  -11.2039 O   0  0  0  0  0  0  0  0  0  0  0  0
  1  5  1  0
  1  2  1  0
  2  3  1  0
  4  3  1  0
  5  4  1  0
  6 13  1  0
  5  6  1  1
  7  6  2  0
  8  9  1  0
  9 10  1  0
 10 11  1  0
 12 11  1  6
 12 13  1  0
 14 15  2  0
 14 12  1  0
 16 17  1  0
 17 18  1  0
 18 20  1  0
 18 19  1  1
 20 22  1  0
 20 21  1  1
 21 14  1  0
 22 23  1  0
 24 22  2  0
M  END
$$$$
