CHR.pdb
     RDKit          3D

 28 28  0  0  1  0  0  0  0  0999 V2000
   10.3412  -17.9443   15.6530 N   0  0  0  0  0  0  0  0  0  0  0  0
    9.5153  -18.1795   16.8150 C   0  0  1  0  0  0  0  0  0  0  0  0
    9.4046  -19.6676   17.1144 C   0  0  0  0  0  0  0  0  0  0  0  0
   11.0153  -20.4448   17.3164 S   0  0  0  0  0  0  0  0  0  0  0  0
   10.0162  -17.4293   18.0049 C   0  0  0  0  0  0  0  0  0  0  0  0
   11.2142  -17.0657   18.0056 O   0  0  0  0  0  0  0  0  0  0  0  0
    9.0978  -17.1892   19.0371 N   0  0  0  0  0  0  0  0  0  0  0  0
    9.4918  -16.4859   20.2919 C   0  0  1  0  0  0  0  0  0  0  0  0
    8.2806  -15.8200   20.8302 C   0  0  0  0  0  0  0  0  0  0  0  0
    7.9121  -14.4906   20.3893 C   0  0  0  0  0  0  0  0  0  0  0  0
    8.7345  -13.7730   19.4846 C   0  0  0  0  0  0  0  0  0  0  0  0
    8.1518  -12.5996   19.2633 N   0  0  0  0  0  0  0  0  0  0  0  0
    7.0053  -12.5096   19.9655 C   0  0  0  0  0  0  0  0  0  0  0  0
    6.9077  -13.6636   20.6208 N   0  0  0  0  0  0  0  0  0  0  0  0
   10.1355  -17.5121   21.1023 C   0  0  0  0  0  0  0  0  0  0  0  0
    9.6284  -18.6838   21.1572 O   0  0  0  0  0  0  0  0  0  0  0  0
   17.9199  -22.1422   21.4737 N   0  0  0  0  0  0  0  0  0  0  0  0
   17.5687  -20.9569   22.1664 C   0  0  0  0  0  0  0  0  0  0  0  0
   18.4322  -20.0062   22.3218 N   0  0  0  0  0  0  0  0  0  0  0  0
   16.2793  -20.7381   22.7230 N   0  0  0  0  0  0  0  0  0  0  0  0
   15.3691  -19.7804   22.1980 C   0  0  0  0  0  0  0  0  0  0  0  0
   14.0494  -19.6802   22.9356 C   0  0  0  0  0  0  0  0  0  0  0  0
   13.2292  -18.6760   22.1554 C   0  0  0  0  0  0  0  0  0  0  0  0
   11.8613  -18.4338   22.6874 C   0  0  2  0  0  0  0  0  0  0  0  0
   11.3030  -17.3370   21.8503 N   0  0  0  0  0  0  0  0  0  0  0  0
   11.7924  -18.0603   24.1098 C   0  0  0  0  0  0  0  0  0  0  0  0
   12.0981  -18.9810   25.0856 O   0  0  0  0  0  0  0  0  0  0  0  0
   11.4572  -16.9070   24.4538 O   0  0  0  0  0  0  0  0  0  0  0  0
  2  1  1  6
  2  5  1  0
  3  2  1  0
  4  3  1  0
  5  6  2  0
  5  7  1  0
  7  8  1  0
  8 15  1  0
  8  9  1  1
 10  9  1  0
 10 11  2  0
 12 11  1  0
 13 12  1  0
 14 13  2  0
 14 10  1  0
 15 16  2  0
 17 18  1  0
 18 20  1  0
 19 18  2  0
 20 21  1  0
 21 22  1  0
 24 23  1  6
 23 22  1  0
 25 24  1  0
 25 15  1  0
 26 27  1  0
 26 24  1  0
 28 26  2  0
M  END
$$$$
