CHR.pdb
     RDKit          3D

 28 28  0  0  1  0  0  0  0  0999 V2000
    9.5822  -16.5380   13.9730 N   0  0  0  0  0  0  0  0  0  0  0  0
   10.8817  -16.4469   14.5980 C   0  0  1  0  0  0  0  0  0  0  0  0
   11.3417  -14.9993   14.6936 C   0  0  0  0  0  0  0  0  0  0  0  0
   11.4537  -14.2108   13.0796 S   0  0  0  0  0  0  0  0  0  0  0  0
   10.8922  -17.1021   15.9398 C   0  0  0  0  0  0  0  0  0  0  0  0
    9.7983  -17.2371   16.5335 O   0  0  0  0  0  0  0  0  0  0  0  0
   12.1370  -17.5181   16.4337 N   0  0  0  0  0  0  0  0  0  0  0  0
   12.2698  -18.2081   17.7492 C   0  0  1  0  0  0  0  0  0  0  0  0
   13.1998  -19.3486   17.5639 C   0  0  0  0  0  0  0  0  0  0  0  0
   12.7417  -20.5837   16.9621 C   0  0  0  0  0  0  0  0  0  0  0  0
   11.4406  -21.0804   17.2274 C   0  0  0  0  0  0  0  0  0  0  0  0
   11.3017  -22.2134   16.5474 N   0  0  0  0  0  0  0  0  0  0  0  0
   12.4278  -22.4838   15.8587 C   0  0  0  0  0  0  0  0  0  0  0  0
   13.2563  -21.4812   16.1398 N   0  0  0  0  0  0  0  0  0  0  0  0
   12.6456  -17.1530   18.6819 C   0  0  0  0  0  0  0  0  0  0  0  0
   13.4793  -16.2556   18.3176 O   0  0  0  0  0  0  0  0  0  0  0  0
    7.2123  -12.4982   20.1016 N   0  0  0  0  0  0  0  0  0  0  0  0
    7.8278  -13.0206   18.9370 C   0  0  0  0  0  0  0  0  0  0  0  0
    7.1949  -13.0334   17.8088 N   0  0  0  0  0  0  0  0  0  0  0  0
    9.1460  -13.5521   18.9294 N   0  0  0  0  0  0  0  0  0  0  0  0
   10.0737  -13.3188   19.9812 C   0  0  0  0  0  0  0  0  0  0  0  0
   11.4159  -14.0018   19.8139 C   0  0  0  0  0  0  0  0  0  0  0  0
   11.5236  -14.9644   20.9765 C   0  0  0  0  0  0  0  0  0  0  0  0
   12.6471  -15.9351   20.8858 C   0  0  2  0  0  0  0  0  0  0  0  0
   12.1605  -17.0158   19.9853 N   0  0  0  0  0  0  0  0  0  0  0  0
   13.0888  -16.5134   22.1656 C   0  0  0  0  0  0  0  0  0  0  0  0
   13.9139  -15.7984   23.0032 O   0  0  0  0  0  0  0  0  0  0  0  0
   12.7241  -17.6570   22.5117 O   0  0  0  0  0  0  0  0  0  0  0  0
  2  1  1  1
  2  5  1  0
  3  2  1  0
  4  3  1  0
  5  6  2  0
  5  7  1  0
  7  8  1  0
  8 15  1  0
  8  9  1  6
 10  9  1  0
 10 11  2  0
 12 11  1  0
 13 12  1  0
 14 13  2  0
 14 10  1  0
 15 16  2  0
 17 18  1  0
 18 20  1  0
 19 18  2  0
 20 21  1  0
 21 22  1  0
 24 23  1  1
 23 22  1  0
 25 24  1  0
 25 15  1  0
 26 27  1  0
 26 24  1  0
 28 26  2  0
M  END
$$$$
