CHR.pdb
     RDKit          3D

 28 28  0  0  1  0  0  0  0  0999 V2000
    8.4428  -12.9717   18.6119 N   0  0  0  0  0  0  0  0  0  0  0  0
    7.5181  -13.3740   19.6467 C   0  0  1  0  0  0  0  0  0  0  0  0
    6.8062  -14.6657   19.2711 C   0  0  0  0  0  0  0  0  0  0  0  0
    7.9550  -16.0245   19.0009 S   0  0  0  0  0  0  0  0  0  0  0  0
    8.1977  -13.5021   20.9701 C   0  0  0  0  0  0  0  0  0  0  0  0
    9.4480  -13.5649   20.9821 O   0  0  0  0  0  0  0  0  0  0  0  0
    7.3751  -13.5425   22.1052 N   0  0  0  0  0  0  0  0  0  0  0  0
    7.9396  -13.5331   23.4856 C   0  0  1  0  0  0  0  0  0  0  0  0
    6.9919  -12.7894   24.3509 C   0  0  0  0  0  0  0  0  0  0  0  0
    7.2589  -12.6227   25.7646 C   0  0  0  0  0  0  0  0  0  0  0  0
    6.3044  -13.0205   26.7344 C   0  0  0  0  0  0  0  0  0  0  0  0
    6.8170  -12.7507   27.9302 N   0  0  0  0  0  0  0  0  0  0  0  0
    8.0414  -12.2038   27.7989 C   0  0  0  0  0  0  0  0  0  0  0  0
    8.2588  -12.1490   26.4873 N   0  0  0  0  0  0  0  0  0  0  0  0
    8.1977  -14.9355   23.7872 C   0  0  0  0  0  0  0  0  0  0  0  0
    7.4762  -15.8410   23.2463 O   0  0  0  0  0  0  0  0  0  0  0  0
   10.7423  -17.0312   19.4066 N   0  0  0  0  0  0  0  0  0  0  0  0
   11.0623  -18.4007   19.5805 C   0  0  0  0  0  0  0  0  0  0  0  0
   10.9714  -19.2277   18.5899 N   0  0  0  0  0  0  0  0  0  0  0  0
   11.4924  -18.9442   20.8214 N   0  0  0  0  0  0  0  0  0  0  0  0
   11.5724  -18.1707   22.0116 C   0  0  0  0  0  0  0  0  0  0  0  0
   10.3103  -18.1535   22.8498 C   0  0  0  0  0  0  0  0  0  0  0  0
   10.5995  -17.2022   23.9906 C   0  0  0  0  0  0  0  0  0  0  0  0
    9.4257  -16.8653   24.8400 C   0  0  2  0  0  0  0  0  0  0  0  0
    9.2005  -15.4079   24.6383 N   0  0  0  0  0  0  0  0  0  0  0  0
    9.5801  -17.1524   26.2757 C   0  0  0  0  0  0  0  0  0  0  0  0
    9.3886  -16.1583   27.2076 O   0  0  0  0  0  0  0  0  0  0  0  0
    9.8859  -18.2974   26.6707 O   0  0  0  0  0  0  0  0  0  0  0  0
  2  1  1  6
  2  5  1  0
  3  2  1  0
  4  3  1  0
  5  6  2  0
  5  7  1  0
  7  8  1  0
  8 15  1  0
  8  9  1  1
 10  9  1  0
 10 11  2  0
 12 11  1  0
 13 12  1  0
 14 13  2  0
 14 10  1  0
 15 16  2  0
 17 18  1  0
 18 20  1  0
 19 18  2  0
 20 21  1  0
 21 22  1  0
 24 23  1  6
 23 22  1  0
 25 24  1  0
 25 15  1  0
 26 27  1  0
 26 24  1  0
 28 26  2  0
M  END
$$$$
