CHR.pdb
     RDKit          3D

 28 28  0  0  1  0  0  0  0  0999 V2000
   11.4932  -18.5835   14.1973 N   0  0  0  0  0  0  0  0  0  0  0  0
   10.6810  -18.7606   15.3791 C   0  0  1  0  0  0  0  0  0  0  0  0
   11.0267  -20.0614   16.0896 C   0  0  0  0  0  0  0  0  0  0  0  0
   10.3825  -21.5030   15.2258 S   0  0  0  0  0  0  0  0  0  0  0  0
   10.7999  -17.5959   16.3060 C   0  0  0  0  0  0  0  0  0  0  0  0
   11.9216  -17.0520   16.4212 O   0  0  0  0  0  0  0  0  0  0  0  0
    9.6360  -17.1996   16.9804 N   0  0  0  0  0  0  0  0  0  0  0  0
    9.6244  -16.0323   17.9087 C   0  0  1  0  0  0  0  0  0  0  0  0
    8.2340  -15.5188   17.9636 C   0  0  0  0  0  0  0  0  0  0  0  0
    7.8545  -14.5201   18.9414 C   0  0  0  0  0  0  0  0  0  0  0  0
    8.7854  -14.0604   19.9068 C   0  0  0  0  0  0  0  0  0  0  0  0
    8.1643  -13.1587   20.6596 N   0  0  0  0  0  0  0  0  0  0  0  0
    6.8915  -13.0039   20.2454 C   0  0  0  0  0  0  0  0  0  0  0  0
    6.7566  -13.8384   19.2177 N   0  0  0  0  0  0  0  0  0  0  0  0
   10.2262  -16.5336   19.1378 C   0  0  0  0  0  0  0  0  0  0  0  0
   10.1319  -17.7749   19.4267 O   0  0  0  0  0  0  0  0  0  0  0  0
   17.9646  -15.2598   19.8057 N   0  0  0  0  0  0  0  0  0  0  0  0
   17.1337  -14.1463   19.5267 C   0  0  0  0  0  0  0  0  0  0  0  0
   17.6186  -13.0912   18.9564 N   0  0  0  0  0  0  0  0  0  0  0  0
   15.7491  -14.1135   19.8462 N   0  0  0  0  0  0  0  0  0  0  0  0
   15.0466  -15.2497   20.3330 C   0  0  0  0  0  0  0  0  0  0  0  0
   13.6007  -14.9959   20.7079 C   0  0  0  0  0  0  0  0  0  0  0  0
   13.0178  -16.3605   21.0043 C   0  0  0  0  0  0  0  0  0  0  0  0
   11.5544  -16.3737   21.2711 C   0  0  2  0  0  0  0  0  0  0  0  0
   10.9302  -15.7619   20.0663 N   0  0  0  0  0  0  0  0  0  0  0  0
   11.1246  -15.6489   22.4783 C   0  0  0  0  0  0  0  0  0  0  0  0
   11.5123  -16.0837   23.7249 O   0  0  0  0  0  0  0  0  0  0  0  0
   10.4044  -14.6317   22.3923 O   0  0  0  0  0  0  0  0  0  0  0  0
  2  1  1  6
  2  5  1  0
  3  2  1  0
  4  3  1  0
  5  6  2  0
  5  7  1  0
  7  8  1  0
  8 15  1  0
  8  9  1  1
 10  9  1  0
 10 11  2  0
 12 11  1  0
 13 12  1  0
 14 13  2  0
 14 10  1  0
 15 16  2  0
 17 18  1  0
 18 20  1  0
 19 18  2  0
 20 21  1  0
 21 22  1  0
 24 23  1  6
 23 22  1  0
 25 24  1  0
 25 15  1  0
 26 27  1  0
 26 24  1  0
 28 26  2  0
M  END
$$$$
