CHR.pdb
     RDKit          3D

 28 28  0  0  1  0  0  0  0  0999 V2000
    5.6981  -19.3426   20.3545 N   0  0  0  0  0  0  0  0  0  0  0  0
    5.8759  -17.9442   20.6718 C   0  0  1  0  0  0  0  0  0  0  0  0
    4.8369  -17.4767   21.6810 C   0  0  0  0  0  0  0  0  0  0  0  0
    5.3148  -17.8503   23.3754 S   0  0  0  0  0  0  0  0  0  0  0  0
    7.2594  -17.6637   21.1583 C   0  0  0  0  0  0  0  0  0  0  0  0
    7.9276  -18.6226   21.6068 O   0  0  0  0  0  0  0  0  0  0  0  0
    7.7054  -16.3368   21.0740 N   0  0  0  0  0  0  0  0  0  0  0  0
    9.0696  -15.9360   21.5243 C   0  0  1  0  0  0  0  0  0  0  0  0
    9.6134  -14.9924   20.5174 C   0  0  0  0  0  0  0  0  0  0  0  0
    8.7244  -14.2176   19.6766 C   0  0  0  0  0  0  0  0  0  0  0  0
    7.3177  -14.3495   19.7938 C   0  0  0  0  0  0  0  0  0  0  0  0
    6.7665  -13.5268   18.9079 N   0  0  0  0  0  0  0  0  0  0  0  0
    7.7239  -12.8702   18.2240 C   0  0  0  0  0  0  0  0  0  0  0  0
    8.8745  -13.3179   18.7203 N   0  0  0  0  0  0  0  0  0  0  0  0
    8.8815  -15.4596   22.8888 C   0  0  0  0  0  0  0  0  0  0  0  0
    7.8106  -14.8345   23.1975 O   0  0  0  0  0  0  0  0  0  0  0  0
    7.1805  -22.2267   26.3372 N   0  0  0  0  0  0  0  0  0  0  0  0
    6.4772  -21.2358   27.0663 C   0  0  0  0  0  0  0  0  0  0  0  0
    5.3698  -21.5257   27.6691 N   0  0  0  0  0  0  0  0  0  0  0  0
    6.9276  -19.8927   27.1813 N   0  0  0  0  0  0  0  0  0  0  0  0
    7.4872  -19.1747   26.0892 C   0  0  0  0  0  0  0  0  0  0  0  0
    7.8283  -17.7277   26.3821 C   0  0  0  0  0  0  0  0  0  0  0  0
    8.4773  -17.2051   25.1190 C   0  0  0  0  0  0  0  0  0  0  0  0
    9.3362  -16.0049   25.3047 C   0  0  2  0  0  0  0  0  0  0  0  0
    9.7896  -15.6311   23.9372 N   0  0  0  0  0  0  0  0  0  0  0  0
   10.5024  -16.1910   26.1836 C   0  0  0  0  0  0  0  0  0  0  0  0
   11.7358  -16.4844   25.6488 O   0  0  0  0  0  0  0  0  0  0  0  0
   10.3932  -16.0862   27.4237 O   0  0  0  0  0  0  0  0  0  0  0  0
  2  1  1  1
  2  5  1  0
  3  2  1  0
  4  3  1  0
  5  6  2  0
  5  7  1  0
  7  8  1  0
  8 15  1  0
  8  9  1  6
 10  9  1  0
 10 11  2  0
 12 11  1  0
 13 12  1  0
 14 13  2  0
 14 10  1  0
 15 16  2  0
 17 18  1  0
 18 20  1  0
 19 18  2  0
 20 21  1  0
 21 22  1  0
 24 23  1  6
 23 22  1  0
 25 24  1  0
 25 15  1  0
 26 27  1  0
 26 24  1  0
 28 26  2  0
M  END
$$$$
