CHR.pdb
     RDKit          3D

 28 28  0  0  1  0  0  0  0  0999 V2000
    6.7931  -18.8412   19.2791 N   0  0  0  0  0  0  0  0  0  0  0  0
    7.9885  -18.4809   18.5518 C   0  0  1  0  0  0  0  0  0  0  0  0
    7.6425  -17.8512   17.2100 C   0  0  0  0  0  0  0  0  0  0  0  0
    5.8797  -17.9259   16.8553 S   0  0  0  0  0  0  0  0  0  0  0  0
    8.8689  -17.5811   19.3547 C   0  0  0  0  0  0  0  0  0  0  0  0
    9.9508  -17.2128   18.8437 O   0  0  0  0  0  0  0  0  0  0  0  0
    8.4110  -17.2163   20.6291 N   0  0  0  0  0  0  0  0  0  0  0  0
    9.1528  -16.2433   21.4819 C   0  0  1  0  0  0  0  0  0  0  0  0
    8.3343  -15.0092   21.5675 C   0  0  0  0  0  0  0  0  0  0  0  0
    8.2216  -14.1185   20.4311 C   0  0  0  0  0  0  0  0  0  0  0  0
    6.9559  -13.6408   20.0072 C   0  0  0  0  0  0  0  0  0  0  0  0
    7.1601  -12.8537   18.9564 N   0  0  0  0  0  0  0  0  0  0  0  0
    8.4754  -12.7900   18.6712 C   0  0  0  0  0  0  0  0  0  0  0  0
    9.0658  -13.5619   19.5802 N   0  0  0  0  0  0  0  0  0  0  0  0
    9.4358  -16.9728   22.7115 C   0  0  0  0  0  0  0  0  0  0  0  0
    8.4815  -17.5437   23.3411 O   0  0  0  0  0  0  0  0  0  0  0  0
   16.5923  -21.5427   24.6078 N   0  0  0  0  0  0  0  0  0  0  0  0
   15.5452  -22.0741   25.4009 C   0  0  0  0  0  0  0  0  0  0  0  0
   15.6335  -23.2679   25.8916 N   0  0  0  0  0  0  0  0  0  0  0  0
   14.3588  -21.3519   25.7026 N   0  0  0  0  0  0  0  0  0  0  0  0
   13.7911  -20.4014   24.8107 C   0  0  0  0  0  0  0  0  0  0  0  0
   12.5457  -19.7070   25.3232 C   0  0  0  0  0  0  0  0  0  0  0  0
   12.1190  -18.7754   24.2097 C   0  0  0  0  0  0  0  0  0  0  0  0
   10.9054  -17.9654   24.4992 C   0  0  2  0  0  0  0  0  0  0  0  0
   10.6991  -17.1216   23.2905 N   0  0  0  0  0  0  0  0  0  0  0  0
   10.9847  -17.1119   25.6960 C   0  0  0  0  0  0  0  0  0  0  0  0
   10.6782  -17.6235   26.9360 O   0  0  0  0  0  0  0  0  0  0  0  0
   11.3301  -15.9145   25.6072 O   0  0  0  0  0  0  0  0  0  0  0  0
  2  1  1  1
  2  5  1  0
  3  2  1  0
  4  3  1  0
  5  6  2  0
  5  7  1  0
  7  8  1  0
  8 15  1  0
  8  9  1  1
 10  9  1  0
 10 11  2  0
 12 11  1  0
 13 12  1  0
 14 13  2  0
 14 10  1  0
 15 16  2  0
 17 18  1  0
 18 20  1  0
 19 18  2  0
 20 21  1  0
 21 22  1  0
 24 23  1  6
 23 22  1  0
 25 24  1  0
 25 15  1  0
 26 27  1  0
 26 24  1  0
 28 26  2  0
M  END
$$$$
