CHR.pdb
     RDKit          3D

 28 28  0  0  1  0  0  0  0  0999 V2000
    4.0546  -17.3391   22.4347 N   0  0  0  0  0  0  0  0  0  0  0  0
    4.9299  -18.2519   21.7359 C   0  0  1  0  0  0  0  0  0  0  0  0
    4.3411  -18.6510   20.3904 C   0  0  0  0  0  0  0  0  0  0  0  0
    2.5454  -18.7628   20.4372 S   0  0  0  0  0  0  0  0  0  0  0  0
    6.3002  -17.6816   21.5731 C   0  0  0  0  0  0  0  0  0  0  0  0
    7.1576  -18.3780   20.9838 O   0  0  0  0  0  0  0  0  0  0  0  0
    6.5211  -16.3999   22.0975 N   0  0  0  0  0  0  0  0  0  0  0  0
    7.8484  -15.7273   21.9963 C   0  0  1  0  0  0  0  0  0  0  0  0
    7.6150  -14.3512   21.4944 C   0  0  0  0  0  0  0  0  0  0  0  0
    7.5028  -14.0932   20.0737 C   0  0  0  0  0  0  0  0  0  0  0  0
    7.7466  -15.1215   19.1288 C   0  0  0  0  0  0  0  0  0  0  0  0
    7.5707  -14.5996   17.9196 N   0  0  0  0  0  0  0  0  0  0  0  0
    7.2289  -13.3000   18.0189 C   0  0  0  0  0  0  0  0  0  0  0  0
    7.2019  -13.0466   19.3249 N   0  0  0  0  0  0  0  0  0  0  0  0
    8.4455  -15.8909   23.3157 C   0  0  0  0  0  0  0  0  0  0  0  0
    7.8257  -15.4609   24.3471 O   0  0  0  0  0  0  0  0  0  0  0  0
   12.2937  -22.7169   26.4457 N   0  0  0  0  0  0  0  0  0  0  0  0
   11.3480  -22.0873   27.2926 C   0  0  0  0  0  0  0  0  0  0  0  0
   10.6566  -22.7824   28.1366 N   0  0  0  0  0  0  0  0  0  0  0  0
   11.1008  -20.6878   27.2724 N   0  0  0  0  0  0  0  0  0  0  0  0
   11.6972  -19.8167   26.3201 C   0  0  0  0  0  0  0  0  0  0  0  0
   11.2832  -18.3636   26.4344 C   0  0  0  0  0  0  0  0  0  0  0  0
   10.6298  -18.0276   25.1116 C   0  0  0  0  0  0  0  0  0  0  0  0
   10.2124  -16.6078   24.9603 C   0  0  2  0  0  0  0  0  0  0  0  0
    9.6752  -16.5019   23.5763 N   0  0  0  0  0  0  0  0  0  0  0  0
   11.2767  -15.6105   25.1601 C   0  0  0  0  0  0  0  0  0  0  0  0
   11.8452  -14.9751   24.0800 O   0  0  0  0  0  0  0  0  0  0  0  0
   11.6800  -15.3250   26.3075 O   0  0  0  0  0  0  0  0  0  0  0  0
  2  1  1  6
  2  5  1  0
  3  2  1  0
  4  3  1  0
  5  6  2  0
  5  7  1  0
  7  8  1  0
  8 15  1  0
  8  9  1  1
 10  9  1  0
 10 11  2  0
 12 11  1  0
 13 12  1  0
 14 13  2  0
 14 10  1  0
 15 16  2  0
 17 18  1  0
 18 20  1  0
 19 18  2  0
 20 21  1  0
 21 22  1  0
 24 23  1  6
 23 22  1  0
 25 24  1  0
 25 15  1  0
 26 27  1  0
 26 24  1  0
 28 26  2  0
M  END
$$$$
