CHR.pdb
     RDKit          3D

 28 28  0  0  1  0  0  0  0  0999 V2000
    8.8112  -18.6369   16.7051 N   0  0  0  0  0  0  0  0  0  0  0  0
    8.1814  -18.7994   17.9953 C   0  0  1  0  0  0  0  0  0  0  0  0
    8.1487  -20.2644   18.4065 C   0  0  0  0  0  0  0  0  0  0  0  0
    7.5757  -20.4858   20.0982 S   0  0  0  0  0  0  0  0  0  0  0  0
    8.8466  -17.9645   19.0394 C   0  0  0  0  0  0  0  0  0  0  0  0
   10.0971  -17.9055   19.0323 O   0  0  0  0  0  0  0  0  0  0  0  0
    8.0112  -17.3067   19.9538 N   0  0  0  0  0  0  0  0  0  0  0  0
    8.5602  -16.4508   21.0449 C   0  0  1  0  0  0  0  0  0  0  0  0
    7.6417  -15.2985   21.2140 C   0  0  0  0  0  0  0  0  0  0  0  0
    7.8412  -14.0790   20.4586 C   0  0  0  0  0  0  0  0  0  0  0  0
    8.9475  -13.9416   19.5829 C   0  0  0  0  0  0  0  0  0  0  0  0
    8.8719  -12.7340   19.0339 N   0  0  0  0  0  0  0  0  0  0  0  0
    7.7889  -12.0794   19.4967 C   0  0  0  0  0  0  0  0  0  0  0  0
    7.2074  -12.9251   20.3438 N   0  0  0  0  0  0  0  0  0  0  0  0
    8.7440  -17.3603   22.1688 C   0  0  0  0  0  0  0  0  0  0  0  0
    7.7513  -18.0394   22.6006 O   0  0  0  0  0  0  0  0  0  0  0  0
   14.0438  -21.0158   27.8819 N   0  0  0  0  0  0  0  0  0  0  0  0
   14.1268  -21.8135   26.7137 C   0  0  0  0  0  0  0  0  0  0  0  0
   15.1453  -22.5865   26.5168 N   0  0  0  0  0  0  0  0  0  0  0  0
   13.1245  -21.8180   25.7059 N   0  0  0  0  0  0  0  0  0  0  0  0
   12.8936  -20.7080   24.8480 C   0  0  0  0  0  0  0  0  0  0  0  0
   11.7845  -19.7760   25.2918 C   0  0  0  0  0  0  0  0  0  0  0  0
   11.4190  -18.9736   24.0620 C   0  0  0  0  0  0  0  0  0  0  0  0
   10.0210  -18.4659   24.0363 C   0  0  2  0  0  0  0  0  0  0  0  0
    9.9479  -17.5771   22.8446 N   0  0  0  0  0  0  0  0  0  0  0  0
    9.5936  -17.7276   25.2362 C   0  0  0  0  0  0  0  0  0  0  0  0
    9.1499  -18.4060   26.3481 O   0  0  0  0  0  0  0  0  0  0  0  0
    9.6263  -16.4791   25.2657 O   0  0  0  0  0  0  0  0  0  0  0  0
  2  1  1  6
  2  5  1  0
  3  2  1  0
  4  3  1  0
  5  6  2  0
  5  7  1  0
  7  8  1  0
  8 15  1  0
  8  9  1  1
 10  9  1  0
 10 11  2  0
 12 11  1  0
 13 12  1  0
 14 13  2  0
 14 10  1  0
 15 16  2  0
 17 18  1  0
 18 20  1  0
 19 18  2  0
 20 21  1  0
 21 22  1  0
 24 23  1  1
 23 22  1  0
 25 24  1  0
 25 15  1  0
 26 27  1  0
 26 24  1  0
 28 26  2  0
M  END
$$$$
