CHR.pdb
     RDKit          3D

 28 28  0  0  1  0  0  0  0  0999 V2000
   13.6288  -14.8734   17.3193 N   0  0  0  0  0  0  0  0  0  0  0  0
   12.5951  -15.7417   17.8343 C   0  0  1  0  0  0  0  0  0  0  0  0
   13.0259  -17.2002   17.7723 C   0  0  0  0  0  0  0  0  0  0  0  0
   14.4526  -17.5354   18.8169 S   0  0  0  0  0  0  0  0  0  0  0  0
   12.1980  -15.3589   19.2218 C   0  0  0  0  0  0  0  0  0  0  0  0
   13.0083  -14.6848   19.8973 O   0  0  0  0  0  0  0  0  0  0  0  0
   10.9381  -15.7883   19.6632 N   0  0  0  0  0  0  0  0  0  0  0  0
   10.3746  -15.3543   20.9740 C   0  0  1  0  0  0  0  0  0  0  0  0
    8.9062  -15.2254   20.8086 C   0  0  0  0  0  0  0  0  0  0  0  0
    8.3478  -14.2050   19.9458 C   0  0  0  0  0  0  0  0  0  0  0  0
    9.1870  -13.2600   19.3035 C   0  0  0  0  0  0  0  0  0  0  0  0
    8.4067  -12.4587   18.5862 N   0  0  0  0  0  0  0  0  0  0  0  0
    7.1164  -12.8223   18.7218 C   0  0  0  0  0  0  0  0  0  0  0  0
    7.1348  -13.8692   19.5430 N   0  0  0  0  0  0  0  0  0  0  0  0
   10.8802  -16.3287   21.9327 C   0  0  0  0  0  0  0  0  0  0  0  0
   10.5726  -17.5620   21.8015 O   0  0  0  0  0  0  0  0  0  0  0  0
   16.4795  -13.7589   22.1196 N   0  0  0  0  0  0  0  0  0  0  0  0
   16.8970  -14.9209   21.4244 C   0  0  0  0  0  0  0  0  0  0  0  0
   17.5474  -14.8221   20.3105 N   0  0  0  0  0  0  0  0  0  0  0  0
   16.6362  -16.2381   21.8905 N   0  0  0  0  0  0  0  0  0  0  0  0
   15.8050  -16.5048   23.0126 C   0  0  0  0  0  0  0  0  0  0  0  0
   14.3523  -16.7807   22.6818 C   0  0  0  0  0  0  0  0  0  0  0  0
   13.6580  -16.9295   24.0181 C   0  0  0  0  0  0  0  0  0  0  0  0
   12.1828  -17.1051   23.9430 C   0  0  2  0  0  0  0  0  0  0  0  0
   11.7068  -16.0376   23.0214 N   0  0  0  0  0  0  0  0  0  0  0  0
   11.4680  -17.0113   25.2266 C   0  0  0  0  0  0  0  0  0  0  0  0
   11.6469  -17.9739   26.1935 O   0  0  0  0  0  0  0  0  0  0  0  0
   10.6910  -16.0611   25.4592 O   0  0  0  0  0  0  0  0  0  0  0  0
  2  1  1  1
  2  5  1  0
  3  2  1  0
  4  3  1  0
  5  6  2  0
  5  7  1  0
  7  8  1  0
  8 15  1  0
  8  9  1  6
 10  9  1  0
 10 11  2  0
 12 11  1  0
 13 12  1  0
 14 13  2  0
 14 10  1  0
 15 16  2  0
 17 18  1  0
 18 20  1  0
 19 18  2  0
 20 21  1  0
 21 22  1  0
 24 23  1  1
 23 22  1  0
 25 24  1  0
 25 15  1  0
 26 27  1  0
 26 24  1  0
 28 26  2  0
M  END
$$$$
