CHR.pdb
     RDKit          3D

 28 28  0  0  1  0  0  0  0  0999 V2000
    5.6526  -18.0006   25.4071 N   0  0  0  0  0  0  0  0  0  0  0  0
    5.9938  -16.6518   25.0174 C   0  0  1  0  0  0  0  0  0  0  0  0
    6.6357  -15.8955   26.1717 C   0  0  0  0  0  0  0  0  0  0  0  0
    6.2974  -14.1292   26.1026 S   0  0  0  0  0  0  0  0  0  0  0  0
    6.8735  -16.6352   23.8110 C   0  0  0  0  0  0  0  0  0  0  0  0
    7.5679  -17.6508   23.5792 O   0  0  0  0  0  0  0  0  0  0  0  0
    6.8529  -15.4735   23.0258 N   0  0  0  0  0  0  0  0  0  0  0  0
    7.7635  -15.2980   21.8577 C   0  0  1  0  0  0  0  0  0  0  0  0
    7.0495  -14.4709   20.8547 C   0  0  0  0  0  0  0  0  0  0  0  0
    7.6793  -14.1313   19.5955 C   0  0  0  0  0  0  0  0  0  0  0  0
    8.2529  -12.8506   19.3940 C   0  0  0  0  0  0  0  0  0  0  0  0
    8.7502  -12.8274   18.1621 N   0  0  0  0  0  0  0  0  0  0  0  0
    8.5363  -14.0095   17.5517 C   0  0  0  0  0  0  0  0  0  0  0  0
    7.8941  -14.7529   18.4492 N   0  0  0  0  0  0  0  0  0  0  0  0
    8.9996  -14.7790   22.4294 C   0  0  0  0  0  0  0  0  0  0  0  0
    8.9481  -13.8653   23.3213 O   0  0  0  0  0  0  0  0  0  0  0  0
   13.1594  -18.7471   27.1535 N   0  0  0  0  0  0  0  0  0  0  0  0
   12.5689  -17.7909   28.0167 C   0  0  0  0  0  0  0  0  0  0  0  0
   12.3688  -18.0672   29.2646 N   0  0  0  0  0  0  0  0  0  0  0  0
   12.1666  -16.4989   27.5820 N   0  0  0  0  0  0  0  0  0  0  0  0
   11.2751  -16.2986   26.4927 C   0  0  0  0  0  0  0  0  0  0  0  0
   11.7777  -16.7994   25.1539 C   0  0  0  0  0  0  0  0  0  0  0  0
   10.7849  -16.2843   24.1347 C   0  0  0  0  0  0  0  0  0  0  0  0
   11.3514  -15.3559   23.1199 C   0  0  2  0  0  0  0  0  0  0  0  0
   10.2874  -15.2029   22.0904 N   0  0  0  0  0  0  0  0  0  0  0  0
   12.6018  -15.8010   22.4829 C   0  0  0  0  0  0  0  0  0  0  0  0
   13.8085  -15.2659   22.8715 O   0  0  0  0  0  0  0  0  0  0  0  0
   12.5892  -16.6679   21.5834 O   0  0  0  0  0  0  0  0  0  0  0  0
  2  1  1  1
  2  5  1  0
  3  2  1  0
  4  3  1  0
  5  6  2  0
  5  7  1  0
  7  8  1  0
  8 15  1  0
  8  9  1  6
 10  9  1  0
 10 11  2  0
 12 11  1  0
 13 12  1  0
 14 13  2  0
 14 10  1  0
 15 16  2  0
 17 18  1  0
 18 20  1  0
 19 18  2  0
 20 21  1  0
 21 22  1  0
 24 23  1  1
 23 22  1  0
 25 24  1  0
 25 15  1  0
 26 27  1  0
 26 24  1  0
 28 26  2  0
M  END
$$$$
