CHR.pdb
     RDKit          3D

 28 28  0  0  1  0  0  0  0  0999 V2000
    5.6558  -16.1211   26.1005 N   0  0  0  0  0  0  0  0  0  0  0  0
    6.1588  -15.0032   25.3356 C   0  0  1  0  0  0  0  0  0  0  0  0
    7.0827  -14.1360   26.1787 C   0  0  0  0  0  0  0  0  0  0  0  0
    6.3075  -12.5870   26.6671 S   0  0  0  0  0  0  0  0  0  0  0  0
    6.8407  -15.4557   24.0866 C   0  0  0  0  0  0  0  0  0  0  0  0
    7.3526  -16.5981   24.0804 O   0  0  0  0  0  0  0  0  0  0  0  0
    6.8543  -14.5577   23.0095 N   0  0  0  0  0  0  0  0  0  0  0  0
    7.5730  -14.8648   21.7393 C   0  0  1  0  0  0  0  0  0  0  0  0
    7.2436  -13.7925   20.7689 C   0  0  0  0  0  0  0  0  0  0  0  0
    7.8195  -13.7977   19.4400 C   0  0  0  0  0  0  0  0  0  0  0  0
    7.0121  -14.0439   18.3010 C   0  0  0  0  0  0  0  0  0  0  0  0
    7.8023  -13.9870   17.2343 N   0  0  0  0  0  0  0  0  0  0  0  0
    9.0692  -13.7202   17.6074 C   0  0  0  0  0  0  0  0  0  0  0  0
    9.0264  -13.6162   18.9333 N   0  0  0  0  0  0  0  0  0  0  0  0
    8.9650  -15.0355   22.1361 C   0  0  0  0  0  0  0  0  0  0  0  0
    9.3290  -14.7129   23.3177 O   0  0  0  0  0  0  0  0  0  0  0  0
   11.0343  -21.2926   25.9145 N   0  0  0  0  0  0  0  0  0  0  0  0
   12.3485  -20.8482   25.6256 C   0  0  0  0  0  0  0  0  0  0  0  0
   13.3603  -21.3210   26.2785 N   0  0  0  0  0  0  0  0  0  0  0  0
   12.6365  -19.8788   24.6269 N   0  0  0  0  0  0  0  0  0  0  0  0
   11.6773  -18.9298   24.1791 C   0  0  0  0  0  0  0  0  0  0  0  0
   12.2139  -17.8750   23.2330 C   0  0  0  0  0  0  0  0  0  0  0  0
   11.0106  -17.0535   22.8242 C   0  0  0  0  0  0  0  0  0  0  0  0
   11.3018  -15.9389   21.8831 C   0  0  2  0  0  0  0  0  0  0  0  0
    9.9810  -15.5436   21.3220 N   0  0  0  0  0  0  0  0  0  0  0  0
   12.2325  -16.2612   20.7889 C   0  0  0  0  0  0  0  0  0  0  0  0
   11.7852  -16.3124   19.4886 O   0  0  0  0  0  0  0  0  0  0  0  0
   13.4382  -16.4924   21.0206 O   0  0  0  0  0  0  0  0  0  0  0  0
  2  1  1  1
  2  5  1  0
  3  2  1  0
  4  3  1  0
  5  6  2  0
  5  7  1  0
  7  8  1  0
  8 15  1  0
  8  9  1  6
 10  9  1  0
 10 11  2  0
 12 11  1  0
 13 12  1  0
 14 13  2  0
 14 10  1  0
 15 16  2  0
 17 18  1  0
 18 20  1  0
 19 18  2  0
 20 21  1  0
 21 22  1  0
 24 23  1  1
 23 22  1  0
 25 24  1  0
 25 15  1  0
 26 27  1  0
 26 24  1  0
 28 26  2  0
M  END
$$$$
