CHR.pdb
     RDKit          3D

 28 28  0  0  1  0  0  0  0  0999 V2000
    7.8214  -13.6743   17.0781 N   0  0  0  0  0  0  0  0  0  0  0  0
    8.6054  -13.4543   18.2717 C   0  0  1  0  0  0  0  0  0  0  0  0
    7.7276  -13.4823   19.5147 C   0  0  0  0  0  0  0  0  0  0  0  0
    8.6856  -13.3288   21.0305 S   0  0  0  0  0  0  0  0  0  0  0  0
    9.7232  -14.4381   18.3829 C   0  0  0  0  0  0  0  0  0  0  0  0
    9.5028  -15.6171   18.0242 O   0  0  0  0  0  0  0  0  0  0  0  0
   10.9423  -13.9601   18.8847 N   0  0  0  0  0  0  0  0  0  0  0  0
   12.1354  -14.8441   19.0246 C   0  0  1  0  0  0  0  0  0  0  0  0
   13.2327  -14.2431   18.2280 C   0  0  0  0  0  0  0  0  0  0  0  0
   14.4776  -14.9566   18.0312 C   0  0  0  0  0  0  0  0  0  0  0  0
   14.6556  -16.2621   18.5545 C   0  0  0  0  0  0  0  0  0  0  0  0
   15.8789  -16.6600   18.2220 N   0  0  0  0  0  0  0  0  0  0  0  0
   16.5057  -15.6977   17.5172 C   0  0  0  0  0  0  0  0  0  0  0  0
   15.6271  -14.7021   17.4308 N   0  0  0  0  0  0  0  0  0  0  0  0
   12.3217  -14.9859   20.4632 C   0  0  0  0  0  0  0  0  0  0  0  0
   12.6372  -13.9642   21.1629 O   0  0  0  0  0  0  0  0  0  0  0  0
    8.0003  -15.8681   21.3143 N   0  0  0  0  0  0  0  0  0  0  0  0
    7.7413  -15.3385   22.6029 C   0  0  0  0  0  0  0  0  0  0  0  0
    6.8492  -14.4161   22.7671 N   0  0  0  0  0  0  0  0  0  0  0  0
    8.4258  -15.7721   23.7707 N   0  0  0  0  0  0  0  0  0  0  0  0
    9.8234  -16.0323   23.7891 C   0  0  0  0  0  0  0  0  0  0  0  0
   10.2686  -17.1993   22.9314 C   0  0  0  0  0  0  0  0  0  0  0  0
   11.7516  -17.3470   23.1937 C   0  0  0  0  0  0  0  0  0  0  0  0
   12.6025  -16.2776   22.6063 C   0  0  2  0  0  0  0  0  0  0  0  0
   12.1774  -16.1747   21.1836 N   0  0  0  0  0  0  0  0  0  0  0  0
   14.0540  -16.5131   22.6776 C   0  0  0  0  0  0  0  0  0  0  0  0
   14.6322  -17.5183   21.9369 O   0  0  0  0  0  0  0  0  0  0  0  0
   14.7823  -15.8079   23.4078 O   0  0  0  0  0  0  0  0  0  0  0  0
  2  1  1  6
  2  5  1  0
  3  2  1  0
  4  3  1  0
  5  6  2  0
  5  7  1  0
  7  8  1  0
  8 15  1  0
  8  9  1  1
 10  9  1  0
 10 11  2  0
 12 11  1  0
 13 12  1  0
 14 13  2  0
 14 10  1  0
 15 16  2  0
 17 18  1  0
 18 20  1  0
 19 18  2  0
 20 21  1  0
 21 22  1  0
 24 23  1  6
 23 22  1  0
 25 24  1  0
 25 15  1  0
 26 27  1  0
 26 24  1  0
 28 26  2  0
M  END
$$$$
