CHR.pdb
     RDKit          3D

 28 28  0  0  1  0  0  0  0  0999 V2000
    7.7530  -12.0362   19.0042 N   0  0  0  0  0  0  0  0  0  0  0  0
    7.4631  -13.3402   19.5549 C   0  0  1  0  0  0  0  0  0  0  0  0
    7.6223  -14.4262   18.5006 C   0  0  0  0  0  0  0  0  0  0  0  0
    7.2592  -16.0654   19.1489 S   0  0  0  0  0  0  0  0  0  0  0  0
    8.3057  -13.6292   20.7533 C   0  0  0  0  0  0  0  0  0  0  0  0
    9.4866  -13.2136   20.7522 O   0  0  0  0  0  0  0  0  0  0  0  0
    7.7030  -14.3498   21.7946 N   0  0  0  0  0  0  0  0  0  0  0  0
    8.4613  -14.7502   23.0149 C   0  0  1  0  0  0  0  0  0  0  0  0
    7.4707  -15.1099   24.0586 C   0  0  0  0  0  0  0  0  0  0  0  0
    6.8854  -14.0892   24.9031 C   0  0  0  0  0  0  0  0  0  0  0  0
    7.3211  -12.7427   24.8210 C   0  0  0  0  0  0  0  0  0  0  0  0
    6.6149  -12.0422   25.7019 N   0  0  0  0  0  0  0  0  0  0  0  0
    5.7498  -12.8467   26.3500 C   0  0  0  0  0  0  0  0  0  0  0  0
    5.9507  -14.0579   25.8369 N   0  0  0  0  0  0  0  0  0  0  0  0
    9.3849  -15.7788   22.5533 C   0  0  0  0  0  0  0  0  0  0  0  0
    8.9492  -16.7436   21.8374 O   0  0  0  0  0  0  0  0  0  0  0  0
   15.9354  -13.9140   17.9259 N   0  0  0  0  0  0  0  0  0  0  0  0
   16.0387  -15.3272   17.9082 C   0  0  0  0  0  0  0  0  0  0  0  0
   16.9274  -15.9119   17.1720 N   0  0  0  0  0  0  0  0  0  0  0  0
   15.1956  -16.1753   18.6764 N   0  0  0  0  0  0  0  0  0  0  0  0
   14.1559  -15.6754   19.5074 C   0  0  0  0  0  0  0  0  0  0  0  0
   13.5363  -16.6955   20.4408 C   0  0  0  0  0  0  0  0  0  0  0  0
   12.3919  -15.9748   21.1197 C   0  0  0  0  0  0  0  0  0  0  0  0
   11.6581  -16.7776   22.1344 C   0  0  2  0  0  0  0  0  0  0  0  0
   10.7561  -15.8129   22.8209 N   0  0  0  0  0  0  0  0  0  0  0  0
   12.5002  -17.4661   23.1265 C   0  0  0  0  0  0  0  0  0  0  0  0
   13.2701  -18.5446   22.7557 O   0  0  0  0  0  0  0  0  0  0  0  0
   12.5303  -17.0851   24.3159 O   0  0  0  0  0  0  0  0  0  0  0  0
  2  1  1  6
  2  5  1  0
  3  2  1  0
  4  3  1  0
  5  6  2  0
  5  7  1  0
  7  8  1  0
  8 15  1  0
  8  9  1  1
 10  9  1  0
 10 11  2  0
 12 11  1  0
 13 12  1  0
 14 13  2  0
 14 10  1  0
 15 16  2  0
 17 18  1  0
 18 20  1  0
 19 18  2  0
 20 21  1  0
 21 22  1  0
 24 23  1  6
 23 22  1  0
 25 24  1  0
 25 15  1  0
 26 27  1  0
 26 24  1  0
 28 26  2  0
M  END
$$$$
