CHR.pdb
     RDKit          3D

 28 28  0  0  1  0  0  0  0  0999 V2000
    9.9757  -18.4231   16.8856 N   0  0  0  0  0  0  0  0  0  0  0  0
    9.4670  -18.7757   18.1912 C   0  0  1  0  0  0  0  0  0  0  0  0
    9.9013  -20.1800   18.5857 C   0  0  0  0  0  0  0  0  0  0  0  0
    9.2962  -20.6493   20.2144 S   0  0  0  0  0  0  0  0  0  0  0  0
    9.8734  -17.7787   19.2258 C   0  0  0  0  0  0  0  0  0  0  0  0
   10.9922  -17.2306   19.1026 O   0  0  0  0  0  0  0  0  0  0  0  0
    8.9624  -17.5326   20.2632 N   0  0  0  0  0  0  0  0  0  0  0  0
    9.1991  -16.4687   21.2812 C   0  0  1  0  0  0  0  0  0  0  0  0
    7.9899  -15.6106   21.3203 C   0  0  0  0  0  0  0  0  0  0  0  0
    7.8109  -14.5440   20.3570 C   0  0  0  0  0  0  0  0  0  0  0  0
    8.8179  -14.2525   19.4027 C   0  0  0  0  0  0  0  0  0  0  0  0
    8.3817  -13.2395   18.6617 N   0  0  0  0  0  0  0  0  0  0  0  0
    7.1576  -12.8552   19.0734 C   0  0  0  0  0  0  0  0  0  0  0  0
    6.8619  -13.6648   20.0871 N   0  0  0  0  0  0  0  0  0  0  0  0
    9.5736  -17.1924   22.4896 C   0  0  0  0  0  0  0  0  0  0  0  0
    8.8326  -18.1446   22.9107 O   0  0  0  0  0  0  0  0  0  0  0  0
   16.9104  -17.0621   21.8596 N   0  0  0  0  0  0  0  0  0  0  0  0
   16.8804  -16.4986   23.1595 C   0  0  0  0  0  0  0  0  0  0  0  0
   17.8782  -15.8005   23.5961 N   0  0  0  0  0  0  0  0  0  0  0  0
   15.7825  -16.6581   24.0479 N   0  0  0  0  0  0  0  0  0  0  0  0
   14.6492  -17.4564   23.7321 C   0  0  0  0  0  0  0  0  0  0  0  0
   13.5357  -17.4219   24.7590 C   0  0  0  0  0  0  0  0  0  0  0  0
   12.4315  -18.2810   24.1823 C   0  0  0  0  0  0  0  0  0  0  0  0
   11.0523  -17.7865   24.4393 C   0  0  2  0  0  0  0  0  0  0  0  0
   10.7118  -16.9429   23.2612 N   0  0  0  0  0  0  0  0  0  0  0  0
   10.8792  -17.0084   25.6769 C   0  0  0  0  0  0  0  0  0  0  0  0
   10.8455  -17.6426   26.8976 O   0  0  0  0  0  0  0  0  0  0  0  0
   10.7607  -15.7652   25.6407 O   0  0  0  0  0  0  0  0  0  0  0  0
  2  1  1  6
  2  5  1  0
  3  2  1  0
  4  3  1  0
  5  6  2  0
  5  7  1  0
  7  8  1  0
  8 15  1  0
  8  9  1  1
 10  9  1  0
 10 11  2  0
 12 11  1  0
 13 12  1  0
 14 13  2  0
 14 10  1  0
 15 16  2  0
 17 18  1  0
 18 20  1  0
 19 18  2  0
 20 21  1  0
 21 22  1  0
 24 23  1  6
 23 22  1  0
 25 24  1  0
 25 15  1  0
 26 27  1  0
 26 24  1  0
 28 26  2  0
M  END
$$$$
