CHR.pdb
     RDKit          3D

 28 28  0  0  1  0  0  0  0  0999 V2000
    4.9007  -18.5022   19.7189 N   0  0  0  0  0  0  0  0  0  0  0  0
    4.8870  -17.4663   20.7261 C   0  0  1  0  0  0  0  0  0  0  0  0
    4.0547  -17.8854   21.9294 C   0  0  0  0  0  0  0  0  0  0  0  0
    2.2872  -17.7727   21.6095 S   0  0  0  0  0  0  0  0  0  0  0  0
    6.2702  -17.0837   21.1384 C   0  0  0  0  0  0  0  0  0  0  0  0
    7.1903  -17.9082   20.9357 O   0  0  0  0  0  0  0  0  0  0  0  0
    6.4315  -15.8203   21.7253 N   0  0  0  0  0  0  0  0  0  0  0  0
    7.7807  -15.2544   22.0143 C   0  0  1  0  0  0  0  0  0  0  0  0
    7.8012  -13.8631   21.5004 C   0  0  0  0  0  0  0  0  0  0  0  0
    8.0071  -13.6002   20.0911 C   0  0  0  0  0  0  0  0  0  0  0  0
    9.2457  -13.9018   19.4708 C   0  0  0  0  0  0  0  0  0  0  0  0
    9.1433  -13.5581   18.1914 N   0  0  0  0  0  0  0  0  0  0  0  0
    7.9192  -13.0534   17.9418 C   0  0  0  0  0  0  0  0  0  0  0  0
    7.2796  -13.1003   19.1077 N   0  0  0  0  0  0  0  0  0  0  0  0
    7.9706  -15.4672   23.4435 C   0  0  0  0  0  0  0  0  0  0  0  0
    6.9606  -15.4395   24.2259 O   0  0  0  0  0  0  0  0  0  0  0  0
    5.4857  -21.7327   24.4814 N   0  0  0  0  0  0  0  0  0  0  0  0
    6.7059  -22.1749   25.0504 C   0  0  0  0  0  0  0  0  0  0  0  0
    6.7710  -23.3124   25.6631 N   0  0  0  0  0  0  0  0  0  0  0  0
    7.9081  -21.4191   24.9891 N   0  0  0  0  0  0  0  0  0  0  0  0
    7.9399  -20.0599   24.5733 C   0  0  0  0  0  0  0  0  0  0  0  0
    9.3268  -19.4670   24.4289 C   0  0  0  0  0  0  0  0  0  0  0  0
    9.1117  -18.0720   23.8836 C   0  0  0  0  0  0  0  0  0  0  0  0
    9.4408  -16.9710   24.8283 C   0  0  2  0  0  0  0  0  0  0  0  0
    9.1961  -15.7151   24.0680 N   0  0  0  0  0  0  0  0  0  0  0  0
   10.8165  -16.9769   25.3526 C   0  0  0  0  0  0  0  0  0  0  0  0
   11.0666  -17.3843   26.6429 O   0  0  0  0  0  0  0  0  0  0  0  0
   11.7756  -16.6143   24.6389 O   0  0  0  0  0  0  0  0  0  0  0  0
  2  1  1  6
  2  5  1  0
  3  2  1  0
  4  3  1  0
  5  6  2  0
  5  7  1  0
  7  8  1  0
  8 15  1  0
  8  9  1  1
 10  9  1  0
 10 11  2  0
 12 11  1  0
 13 12  1  0
 14 13  2  0
 14 10  1  0
 15 16  2  0
 17 18  1  0
 18 20  1  0
 19 18  2  0
 20 21  1  0
 21 22  1  0
 24 23  1  6
 23 22  1  0
 25 24  1  0
 25 15  1  0
 26 27  1  0
 26 24  1  0
 28 26  2  0
M  END
$$$$
