TAQ.pdb
     RDKit          3D

 22 21  0  0  1  0  0  0  0  0999 V2000
    6.2126  -10.7628   26.1916 C   0  0  0  0  0  0  0  0  0  0  0  0
    7.0675  -11.9616   25.8011 C   0  0  1  0  0  0  0  0  0  0  0  0
    7.7638  -12.4487   26.8985 O   0  0  0  0  0  0  0  0  0  0  0  0
    6.1678  -13.0903   25.2935 C   0  0  2  0  0  0  0  0  0  0  0  0
    5.3032  -13.5730   26.3487 N   0  0  0  0  0  0  0  0  0  0  0  0
    7.0812  -14.1644   24.8312 C   0  0  0  0  0  0  0  0  0  0  0  0
    7.5316  -15.0403   25.6103 O   0  0  0  0  0  0  0  0  0  0  0  0
    8.5677  -15.0900   21.4316 C   0  0  0  0  0  0  0  0  0  0  0  0
    8.3238  -15.1841   22.8971 C   0  0  2  0  0  0  0  0  0  0  0  0
    7.4594  -14.2023   23.4606 N   0  0  0  0  0  0  0  0  0  0  0  0
    9.6249  -15.1951   23.6938 C   0  0  0  0  0  0  0  0  0  0  0  0
   10.0566  -14.1317   24.1769 O   0  0  0  0  0  0  0  0  0  0  0  0
   10.2378  -15.2098   28.8116 N   0  0  0  0  0  0  0  0  0  0  0  0
   11.1891  -16.2461   28.7440 C   0  0  0  0  0  0  0  0  0  0  0  0
   11.7172  -16.6536   29.7983 O   0  0  0  0  0  0  0  0  0  0  0  0
   11.5575  -16.8397   27.4463 C   0  0  0  0  0  0  0  0  0  0  0  0
   10.7484  -16.3792   26.2778 C   0  0  0  0  0  0  0  0  0  0  0  0
   11.1923  -16.8252   24.9229 C   0  0  2  0  0  0  0  0  0  0  0  0
   10.3277  -16.3985   23.8774 N   0  0  0  0  0  0  0  0  0  0  0  0
   11.7886  -18.1670   24.8591 C   0  0  0  0  0  0  0  0  0  0  0  0
   11.1615  -19.1284   24.2555 O   0  0  0  0  0  0  0  0  0  0  0  0
   12.9929  -18.5991   25.3797 O   0  0  0  0  0  0  0  0  0  0  0  0
  2  1  1  1
  2  4  1  0
  3  2  1  0
  4  6  1  0
  4  5  1  1
  6 10  1  0
  7  6  2  0
  9  8  1  6
  9 11  1  0
 10  9  1  0
 11 19  1  0
 11 12  2  0
 14 13  1  0
 15 14  2  0
 16 14  1  0
 18 17  1  1
 17 16  1  0
 18 20  1  0
 19 18  1  0
 20 22  1  0
 21 20  2  0
M  END
$$$$
