TAQ.pdb
     RDKit          3D

 22 21  0  0  1  0  0  0  0  0999 V2000
    7.2173  -17.3747   14.5875 C   0  0  0  0  0  0  0  0  0  0  0  0
    8.0595  -16.6681   15.6420 C   0  0  1  0  0  0  0  0  0  0  0  0
    9.3232  -17.2362   15.7252 O   0  0  0  0  0  0  0  0  0  0  0  0
    8.2437  -15.1999   15.2526 C   0  0  2  0  0  0  0  0  0  0  0  0
    9.0432  -15.0824   14.0522 N   0  0  0  0  0  0  0  0  0  0  0  0
    8.9253  -14.5548   16.4020 C   0  0  0  0  0  0  0  0  0  0  0  0
   10.1731  -14.5829   16.5408 O   0  0  0  0  0  0  0  0  0  0  0  0
    7.7232  -12.5494   19.4233 C   0  0  0  0  0  0  0  0  0  0  0  0
    8.6509  -13.3822   18.6097 C   0  0  2  0  0  0  0  0  0  0  0  0
    8.1390  -13.8833   17.3787 N   0  0  0  0  0  0  0  0  0  0  0  0
    9.2182  -14.5522   19.4079 C   0  0  0  0  0  0  0  0  0  0  0  0
    8.6746  -15.6697   19.3274 O   0  0  0  0  0  0  0  0  0  0  0  0
   15.2921  -14.5001   21.1663 N   0  0  0  0  0  0  0  0  0  0  0  0
   14.6254  -14.4103   19.9290 C   0  0  0  0  0  0  0  0  0  0  0  0
   15.2789  -14.1142   18.9085 O   0  0  0  0  0  0  0  0  0  0  0  0
   13.1756  -14.6607   19.8409 C   0  0  0  0  0  0  0  0  0  0  0  0
   12.5098  -15.0321   21.1257 C   0  0  0  0  0  0  0  0  0  0  0  0
   11.0345  -15.2637   21.0870 C   0  0  2  0  0  0  0  0  0  0  0  0
   10.3450  -14.3650   20.2270 N   0  0  0  0  0  0  0  0  0  0  0  0
   10.4181  -15.6513   22.3636 C   0  0  0  0  0  0  0  0  0  0  0  0
   10.9659  -16.5700   23.0970 O   0  0  0  0  0  0  0  0  0  0  0  0
    9.2649  -15.1622   22.9460 O   0  0  0  0  0  0  0  0  0  0  0  0
  2  1  1  6
  2  4  1  0
  3  2  1  0
  4  6  1  0
  4  5  1  6
  6 10  1  0
  7  6  2  0
  9  8  1  1
  9 11  1  0
 10  9  1  0
 11 19  1  0
 11 12  2  0
 14 13  1  0
 15 14  2  0
 16 14  1  0
 18 17  1  1
 17 16  1  0
 18 20  1  0
 19 18  1  0
 20 22  1  0
 21 20  2  0
M  END
$$$$
