TAQ.pdb
     RDKit          3D

 22 21  0  0  1  0  0  0  0  0999 V2000
    6.3546  -14.1195   18.7485 C   0  0  0  0  0  0  0  0  0  0  0  0
    6.9335  -14.4051   20.1284 C   0  0  1  0  0  0  0  0  0  0  0  0
    7.8621  -15.4350   20.0696 O   0  0  0  0  0  0  0  0  0  0  0  0
    7.6614  -13.1631   20.6468 C   0  0  2  0  0  0  0  0  0  0  0  0
    8.7735  -12.8218   19.7862 N   0  0  0  0  0  0  0  0  0  0  0  0
    8.1386  -13.5080   22.0088 C   0  0  0  0  0  0  0  0  0  0  0  0
    9.2572  -14.0422   22.2098 O   0  0  0  0  0  0  0  0  0  0  0  0
    6.7663  -12.9367   25.5237 C   0  0  0  0  0  0  0  0  0  0  0  0
    7.6347  -13.5341   24.4725 C   0  0  2  0  0  0  0  0  0  0  0  0
    7.3010  -13.2247   23.1229 N   0  0  0  0  0  0  0  0  0  0  0  0
    7.7366  -15.0503   24.6085 C   0  0  0  0  0  0  0  0  0  0  0  0
    6.7815  -15.7634   24.2482 O   0  0  0  0  0  0  0  0  0  0  0  0
   11.5576  -17.9257   22.0349 N   0  0  0  0  0  0  0  0  0  0  0  0
   12.1512  -17.0908   23.0015 C   0  0  0  0  0  0  0  0  0  0  0  0
   13.2479  -16.5535   22.7469 O   0  0  0  0  0  0  0  0  0  0  0  0
   11.4874  -16.8566   24.2963 C   0  0  0  0  0  0  0  0  0  0  0  0
   10.2031  -17.5919   24.5008 C   0  0  0  0  0  0  0  0  0  0  0  0
    9.2133  -16.9866   25.4419 C   0  0  2  0  0  0  0  0  0  0  0  0
    8.9011  -15.6328   25.1378 N   0  0  0  0  0  0  0  0  0  0  0  0
    9.3399  -17.3962   26.8477 C   0  0  0  0  0  0  0  0  0  0  0  0
    9.3281  -16.5031   27.7880 O   0  0  0  0  0  0  0  0  0  0  0  0
    9.4842  -18.6695   27.3633 O   0  0  0  0  0  0  0  0  0  0  0  0
  2  1  1  6
  2  4  1  0
  3  2  1  0
  4  6  1  0
  4  5  1  6
  6 10  1  0
  7  6  2  0
  9  8  1  1
  9 11  1  0
 10  9  1  0
 11 19  1  0
 11 12  2  0
 14 13  1  0
 15 14  2  0
 16 14  1  0
 18 17  1  6
 17 16  1  0
 18 20  1  0
 19 18  1  0
 20 22  1  0
 21 20  2  0
M  END
$$$$
