TAQ.pdb
     RDKit          3D

 22 21  0  0  1  0  0  0  0  0999 V2000
    7.0178  -17.4654   14.3725 C   0  0  0  0  0  0  0  0  0  0  0  0
    7.8196  -16.8166   15.4936 C   0  0  1  0  0  0  0  0  0  0  0  0
    9.1147  -17.3145   15.5250 O   0  0  0  0  0  0  0  0  0  0  0  0
    7.9157  -15.3091   15.2500 C   0  0  2  0  0  0  0  0  0  0  0  0
    8.6552  -15.0300   14.0379 N   0  0  0  0  0  0  0  0  0  0  0  0
    8.6152  -14.7480   16.4322 C   0  0  0  0  0  0  0  0  0  0  0  0
    9.8668  -14.7562   16.5346 O   0  0  0  0  0  0  0  0  0  0  0  0
    7.4491  -12.8591   19.5397 C   0  0  0  0  0  0  0  0  0  0  0  0
    8.3977  -13.5855   18.6516 C   0  0  2  0  0  0  0  0  0  0  0  0
    7.8423  -14.1832   17.4842 N   0  0  0  0  0  0  0  0  0  0  0  0
    9.1889  -14.6486   19.4076 C   0  0  0  0  0  0  0  0  0  0  0  0
    8.8135  -15.8353   19.3683 O   0  0  0  0  0  0  0  0  0  0  0  0
   15.3790  -13.8952   20.5663 N   0  0  0  0  0  0  0  0  0  0  0  0
   15.0690  -15.0220   21.3525 C   0  0  0  0  0  0  0  0  0  0  0  0
   15.9852  -15.5995   21.9716 O   0  0  0  0  0  0  0  0  0  0  0  0
   13.6824  -15.5134   21.4410 C   0  0  0  0  0  0  0  0  0  0  0  0
   12.6539  -14.6532   20.7821 C   0  0  0  0  0  0  0  0  0  0  0  0
   11.2257  -15.0679   20.9242 C   0  0  2  0  0  0  0  0  0  0  0  0
   10.3312  -14.2863   20.1421 N   0  0  0  0  0  0  0  0  0  0  0  0
   10.8183  -15.4937   22.2705 C   0  0  0  0  0  0  0  0  0  0  0  0
   10.0346  -14.7426   22.9800 O   0  0  0  0  0  0  0  0  0  0  0  0
   11.1648  -16.6451   22.9505 O   0  0  0  0  0  0  0  0  0  0  0  0
  2  1  1  6
  2  4  1  0
  3  2  1  0
  4  6  1  0
  4  5  1  6
  6 10  1  0
  7  6  2  0
  9  8  1  1
  9 11  1  0
 10  9  1  0
 11 19  1  0
 11 12  2  0
 14 13  1  0
 15 14  2  0
 16 14  1  0
 18 17  1  1
 17 16  1  0
 18 20  1  0
 19 18  1  0
 20 22  1  0
 21 20  2  0
M  END
$$$$
