TAQ.pdb
     RDKit          3D

 22 21  0  0  1  0  0  0  0  0999 V2000
    7.0139  -16.0971   19.8778 C   0  0  0  0  0  0  0  0  0  0  0  0
    7.9216  -15.0252   19.2879 C   0  0  1  0  0  0  0  0  0  0  0  0
    7.6722  -14.8597   17.9326 O   0  0  0  0  0  0  0  0  0  0  0  0
    7.6433  -13.6844   19.9704 C   0  0  2  0  0  0  0  0  0  0  0  0
    8.2779  -12.6001   19.2524 N   0  0  0  0  0  0  0  0  0  0  0  0
    8.1979  -13.8011   21.3417 C   0  0  0  0  0  0  0  0  0  0  0  0
    9.4254  -13.9582   21.5551 O   0  0  0  0  0  0  0  0  0  0  0  0
    6.7462  -13.4020   24.8391 C   0  0  0  0  0  0  0  0  0  0  0  0
    7.7163  -13.8647   23.8092 C   0  0  2  0  0  0  0  0  0  0  0  0
    7.3097  -13.7335   22.4505 N   0  0  0  0  0  0  0  0  0  0  0  0
    8.1551  -15.3070   24.0439 C   0  0  0  0  0  0  0  0  0  0  0  0
    7.4027  -16.2393   23.7040 O   0  0  0  0  0  0  0  0  0  0  0  0
   13.9993  -17.3655   23.5485 N   0  0  0  0  0  0  0  0  0  0  0  0
   12.9939  -16.9838   22.6390 C   0  0  0  0  0  0  0  0  0  0  0  0
   13.2880  -16.8424   21.4349 O   0  0  0  0  0  0  0  0  0  0  0  0
   11.6143  -16.7527   23.1030 C   0  0  0  0  0  0  0  0  0  0  0  0
   11.3779  -16.9962   24.5580 C   0  0  0  0  0  0  0  0  0  0  0  0
    9.9863  -16.8000   25.0647 C   0  0  2  0  0  0  0  0  0  0  0  0
    9.3990  -15.5762   24.6404 N   0  0  0  0  0  0  0  0  0  0  0  0
    9.7327  -17.2831   26.4294 C   0  0  0  0  0  0  0  0  0  0  0  0
   10.1874  -18.4382   26.8045 O   0  0  0  0  0  0  0  0  0  0  0  0
    9.0345  -16.6615   27.4463 O   0  0  0  0  0  0  0  0  0  0  0  0
  2  1  1  1
  2  4  1  0
  3  2  1  0
  4  6  1  0
  4  5  1  6
  6 10  1  0
  7  6  2  0
  9  8  1  1
  9 11  1  0
 10  9  1  0
 11 19  1  0
 11 12  2  0
 14 13  1  0
 15 14  2  0
 16 14  1  0
 18 17  1  1
 17 16  1  0
 18 20  1  0
 19 18  1  0
 20 22  1  0
 21 20  2  0
M  END
$$$$
