TAQ.pdb
     RDKit          3D

 22 21  0  0  1  0  0  0  0  0999 V2000
    7.8529  -12.2581   20.0275 C   0  0  0  0  0  0  0  0  0  0  0  0
    7.9790  -13.4951   19.1473 C   0  0  1  0  0  0  0  0  0  0  0  0
    8.1651  -13.1377   17.8191 O   0  0  0  0  0  0  0  0  0  0  0  0
    9.2017  -14.3083   19.5770 C   0  0  2  0  0  0  0  0  0  0  0  0
    9.5588  -15.2758   18.5618 N   0  0  0  0  0  0  0  0  0  0  0  0
    8.8171  -14.9890   20.8381 C   0  0  0  0  0  0  0  0  0  0  0  0
    8.4152  -14.3544   21.8445 O   0  0  0  0  0  0  0  0  0  0  0  0
    8.2304  -18.6124   21.8090 C   0  0  0  0  0  0  0  0  0  0  0  0
    8.5339  -17.1749   22.0490 C   0  0  2  0  0  0  0  0  0  0  0  0
    8.9073  -16.4067   20.9092 N   0  0  0  0  0  0  0  0  0  0  0  0
    9.5976  -16.9871   23.1265 C   0  0  0  0  0  0  0  0  0  0  0  0
   10.7957  -16.9049   22.7970 O   0  0  0  0  0  0  0  0  0  0  0  0
    8.7615  -13.4096   28.1196 N   0  0  0  0  0  0  0  0  0  0  0  0
    9.9000  -14.1383   28.5153 C   0  0  0  0  0  0  0  0  0  0  0  0
   10.5067  -13.7991   29.5512 O   0  0  0  0  0  0  0  0  0  0  0  0
   10.3695  -15.2840   27.7160 C   0  0  0  0  0  0  0  0  0  0  0  0
    9.5364  -15.6169   26.5214 C   0  0  0  0  0  0  0  0  0  0  0  0
   10.0038  -16.7415   25.6561 C   0  0  2  0  0  0  0  0  0  0  0  0
    9.2234  -16.9092   24.4791 N   0  0  0  0  0  0  0  0  0  0  0  0
   10.4942  -17.9300   26.3681 C   0  0  0  0  0  0  0  0  0  0  0  0
    9.7016  -18.9349   26.5773 O   0  0  0  0  0  0  0  0  0  0  0  0
   11.7516  -18.1622   26.8907 O   0  0  0  0  0  0  0  0  0  0  0  0
  2  1  1  1
  2  4  1  0
  3  2  1  0
  4  6  1  0
  4  5  1  6
  6 10  1  0
  7  6  2  0
  9  8  1  6
  9 11  1  0
 10  9  1  0
 11 19  1  0
 11 12  2  0
 14 13  1  0
 15 14  2  0
 16 14  1  0
 18 17  1  1
 17 16  1  0
 18 20  1  0
 19 18  1  0
 20 22  1  0
 21 20  2  0
M  END
$$$$
