TAQ.pdb
     RDKit          3D

 22 21  0  0  1  0  0  0  0  0999 V2000
    9.9619  -14.8047   16.9533 C   0  0  0  0  0  0  0  0  0  0  0  0
    9.6997  -14.7254   18.4518 C   0  0  1  0  0  0  0  0  0  0  0  0
   10.7234  -14.0443   19.0957 O   0  0  0  0  0  0  0  0  0  0  0  0
    8.4051  -13.9507   18.7062 C   0  0  2  0  0  0  0  0  0  0  0  0
    8.5367  -12.5744   18.2791 N   0  0  0  0  0  0  0  0  0  0  0  0
    8.1649  -14.0254   20.1685 C   0  0  0  0  0  0  0  0  0  0  0  0
    8.6482  -13.1872   20.9691 O   0  0  0  0  0  0  0  0  0  0  0  0
    5.9893  -16.2383   22.3868 C   0  0  0  0  0  0  0  0  0  0  0  0
    7.0688  -15.2661   22.0617 C   0  0  2  0  0  0  0  0  0  0  0  0
    7.3613  -15.0818   20.6800 N   0  0  0  0  0  0  0  0  0  0  0  0
    8.3692  -15.5906   22.7907 C   0  0  0  0  0  0  0  0  0  0  0  0
    9.2632  -16.2224   22.1971 O   0  0  0  0  0  0  0  0  0  0  0  0
   11.0677  -14.6108   29.8008 N   0  0  0  0  0  0  0  0  0  0  0  0
   10.1582  -14.4385   28.7393 C   0  0  0  0  0  0  0  0  0  0  0  0
    9.2190  -13.6282   28.8715 O   0  0  0  0  0  0  0  0  0  0  0  0
   10.3123  -15.2060   27.4905 C   0  0  0  0  0  0  0  0  0  0  0  0
    9.3384  -14.8717   26.4080 C   0  0  0  0  0  0  0  0  0  0  0  0
    9.5039  -15.5756   25.1008 C   0  0  2  0  0  0  0  0  0  0  0  0
    8.5516  -15.1784   24.1220 N   0  0  0  0  0  0  0  0  0  0  0  0
    9.9003  -16.9883   25.1853 C   0  0  0  0  0  0  0  0  0  0  0  0
   11.1513  -17.3054   25.3135 O   0  0  0  0  0  0  0  0  0  0  0  0
    9.0973  -18.1114   25.1424 O   0  0  0  0  0  0  0  0  0  0  0  0
  2  1  1  6
  2  4  1  0
  3  2  1  0
  4  6  1  0
  4  5  1  1
  6 10  1  0
  7  6  2  0
  9  8  1  6
  9 11  1  0
 10  9  1  0
 11 19  1  0
 11 12  2  0
 14 13  1  0
 15 14  2  0
 16 14  1  0
 18 17  1  1
 17 16  1  0
 18 20  1  0
 19 18  1  0
 20 22  1  0
 21 20  2  0
M  END
$$$$
