TAQ.pdb
     RDKit          3D

 22 21  0  0  1  0  0  0  0  0999 V2000
   10.9135  -14.8843   19.2519 C   0  0  0  0  0  0  0  0  0  0  0  0
   10.1459  -13.6201   18.8867 C   0  0  1  0  0  0  0  0  0  0  0  0
   10.5542  -13.1353   17.6518 O   0  0  0  0  0  0  0  0  0  0  0  0
    8.6531  -13.9382   18.7814 C   0  0  2  0  0  0  0  0  0  0  0  0
    7.9089  -12.7763   18.3454 N   0  0  0  0  0  0  0  0  0  0  0  0
    8.2272  -14.3543   20.1405 C   0  0  0  0  0  0  0  0  0  0  0  0
    8.0770  -13.5298   21.0757 O   0  0  0  0  0  0  0  0  0  0  0  0
    7.0340  -17.6723   21.6053 C   0  0  0  0  0  0  0  0  0  0  0  0
    7.4319  -16.2378   21.6049 C   0  0  2  0  0  0  0  0  0  0  0  0
    7.9819  -15.7326   20.3921 N   0  0  0  0  0  0  0  0  0  0  0  0
    8.3935  -15.9108   22.7434 C   0  0  0  0  0  0  0  0  0  0  0  0
    9.6193  -16.0389   22.5659 O   0  0  0  0  0  0  0  0  0  0  0  0
    6.2187  -12.3910   27.6210 N   0  0  0  0  0  0  0  0  0  0  0  0
    6.2197  -12.1889   26.2272 C   0  0  0  0  0  0  0  0  0  0  0  0
    5.5663  -11.2383   25.7522 O   0  0  0  0  0  0  0  0  0  0  0  0
    6.9801  -13.0888   25.3416 C   0  0  0  0  0  0  0  0  0  0  0  0
    7.7590  -14.1604   26.0323 C   0  0  0  0  0  0  0  0  0  0  0  0
    8.5653  -15.0787   25.1729 C   0  0  2  0  0  0  0  0  0  0  0  0
    7.8947  -15.4696   23.9812 N   0  0  0  0  0  0  0  0  0  0  0  0
    9.3867  -16.0636   25.8908 C   0  0  0  0  0  0  0  0  0  0  0  0
    9.2169  -17.3312   25.6759 O   0  0  0  0  0  0  0  0  0  0  0  0
   10.3773  -15.8391   26.8270 O   0  0  0  0  0  0  0  0  0  0  0  0
  2  1  1  6
  2  4  1  0
  3  2  1  0
  4  6  1  0
  4  5  1  1
  6 10  1  0
  7  6  2  0
  9  8  1  6
  9 11  1  0
 10  9  1  0
 11 19  1  0
 11 12  2  0
 14 13  1  0
 15 14  2  0
 16 14  1  0
 18 17  1  1
 17 16  1  0
 18 20  1  0
 19 18  1  0
 20 22  1  0
 21 20  2  0
M  END
$$$$
