TAQ.pdb
     RDKit          3D

 22 21  0  0  1  0  0  0  0  0999 V2000
    6.9808  -15.3043   16.9945 C   0  0  0  0  0  0  0  0  0  0  0  0
    7.7376  -15.2890   18.3165 C   0  0  1  0  0  0  0  0  0  0  0  0
    9.0805  -15.5787   18.1188 O   0  0  0  0  0  0  0  0  0  0  0  0
    7.6583  -13.8928   18.9373 C   0  0  2  0  0  0  0  0  0  0  0  0
    8.3036  -12.9148   18.0883 N   0  0  0  0  0  0  0  0  0  0  0  0
    8.3493  -13.9881   20.2469 C   0  0  0  0  0  0  0  0  0  0  0  0
    9.5963  -13.8842   20.3538 O   0  0  0  0  0  0  0  0  0  0  0  0
    7.1293  -14.0829   23.8524 C   0  0  0  0  0  0  0  0  0  0  0  0
    8.1082  -14.2204   22.7394 C   0  0  2  0  0  0  0  0  0  0  0  0
    7.5737  -14.2051   21.4192 N   0  0  0  0  0  0  0  0  0  0  0  0
    8.9778  -15.4646   22.8930 C   0  0  0  0  0  0  0  0  0  0  0  0
    8.4970  -16.5839   22.6347 O   0  0  0  0  0  0  0  0  0  0  0  0
   16.2314  -16.7827   24.1757 N   0  0  0  0  0  0  0  0  0  0  0  0
   15.0346  -16.5711   23.4639 C   0  0  0  0  0  0  0  0  0  0  0  0
   15.0944  -16.1823   22.2801 O   0  0  0  0  0  0  0  0  0  0  0  0
   13.7299  -16.8037   24.1087 C   0  0  0  0  0  0  0  0  0  0  0  0
   12.6593  -15.8208   23.7627 C   0  0  0  0  0  0  0  0  0  0  0  0
   11.2542  -16.3269   23.7290 C   0  0  2  0  0  0  0  0  0  0  0  0
   10.3101  -15.3433   23.3240 N   0  0  0  0  0  0  0  0  0  0  0  0
   10.8935  -17.2727   24.7946 C   0  0  0  0  0  0  0  0  0  0  0  0
   10.1542  -16.8828   25.7863 O   0  0  0  0  0  0  0  0  0  0  0  0
   11.2445  -18.6028   24.9197 O   0  0  0  0  0  0  0  0  0  0  0  0
  2  1  1  6
  2  4  1  0
  3  2  1  0
  4  6  1  0
  4  5  1  6
  6 10  1  0
  7  6  2  0
  9  8  1  1
  9 11  1  0
 10  9  1  0
 11 19  1  0
 11 12  2  0
 14 13  1  0
 15 14  2  0
 16 14  1  0
 18 17  1  1
 17 16  1  0
 18 20  1  0
 19 18  1  0
 20 22  1  0
 21 20  2  0
M  END
$$$$
