TAQ.pdb
     RDKit          3D

 22 21  0  0  1  0  0  0  0  0999 V2000
    7.2434  -17.4086   14.7806 C   0  0  0  0  0  0  0  0  0  0  0  0
    7.9671  -16.8145   15.9823 C   0  0  1  0  0  0  0  0  0  0  0  0
    9.1307  -17.5203   16.2550 O   0  0  0  0  0  0  0  0  0  0  0  0
    8.3700  -15.3705   15.6766 C   0  0  2  0  0  0  0  0  0  0  0  0
    9.3538  -15.3243   14.6164 N   0  0  0  0  0  0  0  0  0  0  0  0
    8.9321  -14.8275   16.9378 C   0  0  0  0  0  0  0  0  0  0  0  0
   10.1290  -15.0117   17.2702 O   0  0  0  0  0  0  0  0  0  0  0  0
    7.5496  -12.5708   19.6921 C   0  0  0  0  0  0  0  0  0  0  0  0
    8.5133  -13.4890   19.0253 C   0  0  2  0  0  0  0  0  0  0  0  0
    8.0869  -14.0741   17.7988 N   0  0  0  0  0  0  0  0  0  0  0  0
    8.9774  -14.6051   19.9563 C   0  0  0  0  0  0  0  0  0  0  0  0
    8.3601  -15.6865   19.9717 O   0  0  0  0  0  0  0  0  0  0  0  0
   15.1884  -14.6680   19.5551 N   0  0  0  0  0  0  0  0  0  0  0  0
   14.4063  -15.0137   20.6743 C   0  0  0  0  0  0  0  0  0  0  0  0
   14.9682  -15.1977   21.7728 O   0  0  0  0  0  0  0  0  0  0  0  0
   12.9449  -15.1581   20.5495 C   0  0  0  0  0  0  0  0  0  0  0  0
   12.1829  -15.1015   21.8333 C   0  0  0  0  0  0  0  0  0  0  0  0
   10.6996  -15.2601   21.7533 C   0  0  2  0  0  0  0  0  0  0  0  0
   10.0928  -14.4091   20.7888 N   0  0  0  0  0  0  0  0  0  0  0  0
   10.0159  -15.4983   23.0323 C   0  0  0  0  0  0  0  0  0  0  0  0
    9.0513  -14.7174   23.4085 O   0  0  0  0  0  0  0  0  0  0  0  0
   10.2564  -16.4881   23.9653 O   0  0  0  0  0  0  0  0  0  0  0  0
  2  1  1  6
  2  4  1  0
  3  2  1  0
  4  6  1  0
  4  5  1  6
  6 10  1  0
  7  6  2  0
  9  8  1  1
  9 11  1  0
 10  9  1  0
 11 19  1  0
 11 12  2  0
 14 13  1  0
 15 14  2  0
 16 14  1  0
 18 17  1  1
 17 16  1  0
 18 20  1  0
 19 18  1  0
 20 22  1  0
 21 20  2  0
M  END
$$$$
