TAQ.pdb
     RDKit          3D

 22 21  0  0  1  0  0  0  0  0999 V2000
    9.9304  -14.5221   17.1990 C   0  0  0  0  0  0  0  0  0  0  0  0
    9.6440  -14.5752   18.6943 C   0  0  1  0  0  0  0  0  0  0  0  0
   10.6116  -13.8799   19.4063 O   0  0  0  0  0  0  0  0  0  0  0  0
    8.2975  -13.9085   18.9832 C   0  0  2  0  0  0  0  0  0  0  0  0
    8.3654  -12.4840   18.7374 N   0  0  0  0  0  0  0  0  0  0  0  0
    8.0049  -14.1809   20.4121 C   0  0  0  0  0  0  0  0  0  0  0  0
    8.3687  -13.4037   21.3289 O   0  0  0  0  0  0  0  0  0  0  0  0
    6.0765  -16.9254   22.2430 C   0  0  0  0  0  0  0  0  0  0  0  0
    6.9649  -15.7410   22.0882 C   0  0  2  0  0  0  0  0  0  0  0  0
    7.2894  -15.3616   20.7542 N   0  0  0  0  0  0  0  0  0  0  0  0
    8.2630  -15.8931   22.8754 C   0  0  0  0  0  0  0  0  0  0  0  0
    9.2745  -16.3458   22.3074 O   0  0  0  0  0  0  0  0  0  0  0  0
   10.7395  -14.1260   29.8029 N   0  0  0  0  0  0  0  0  0  0  0  0
    9.8783  -14.0690   28.6899 C   0  0  0  0  0  0  0  0  0  0  0  0
    8.8624  -13.3471   28.7461 O   0  0  0  0  0  0  0  0  0  0  0  0
   10.1716  -14.8526   27.4766 C   0  0  0  0  0  0  0  0  0  0  0  0
    9.1069  -14.8345   26.4286 C   0  0  0  0  0  0  0  0  0  0  0  0
    9.3530  -15.6370   25.1929 C   0  0  2  0  0  0  0  0  0  0  0  0
    8.3115  -15.5246   24.2309 N   0  0  0  0  0  0  0  0  0  0  0  0
   10.0025  -16.9391   25.3993 C   0  0  0  0  0  0  0  0  0  0  0  0
   11.2962  -17.0212   25.4353 O   0  0  0  0  0  0  0  0  0  0  0  0
    9.4137  -18.1772   25.5685 O   0  0  0  0  0  0  0  0  0  0  0  0
  2  1  1  6
  2  4  1  0
  3  2  1  0
  4  6  1  0
  4  5  1  1
  6 10  1  0
  7  6  2  0
  9  8  1  6
  9 11  1  0
 10  9  1  0
 11 19  1  0
 11 12  2  0
 14 13  1  0
 15 14  2  0
 16 14  1  0
 18 17  1  1
 17 16  1  0
 18 20  1  0
 19 18  1  0
 20 22  1  0
 21 20  2  0
M  END
$$$$
