TAQ.pdb
     RDKit          3D

 22 21  0  0  1  0  0  0  0  0999 V2000
    9.5764  -14.5256   16.8247 C   0  0  0  0  0  0  0  0  0  0  0  0
    9.4204  -14.5549   18.3397 C   0  0  1  0  0  0  0  0  0  0  0  0
   10.5391  -14.0172   18.9608 O   0  0  0  0  0  0  0  0  0  0  0  0
    8.2173  -13.7025   18.7485 C   0  0  2  0  0  0  0  0  0  0  0  0
    8.4486  -12.3068   18.4444 N   0  0  0  0  0  0  0  0  0  0  0  0
    8.0536  -13.9008   20.2098 C   0  0  0  0  0  0  0  0  0  0  0  0
    8.5734  -13.1275   21.0518 O   0  0  0  0  0  0  0  0  0  0  0  0
    5.9436  -16.2789   22.3186 C   0  0  0  0  0  0  0  0  0  0  0  0
    6.9850  -15.2517   22.0422 C   0  0  2  0  0  0  0  0  0  0  0  0
    7.2833  -15.0037   20.6718 N   0  0  0  0  0  0  0  0  0  0  0  0
    8.2905  -15.5498   22.7735 C   0  0  0  0  0  0  0  0  0  0  0  0
    9.2344  -16.0739   22.1530 O   0  0  0  0  0  0  0  0  0  0  0  0
   11.0114  -14.6108   29.7787 N   0  0  0  0  0  0  0  0  0  0  0  0
   10.1203  -14.4089   28.7068 C   0  0  0  0  0  0  0  0  0  0  0  0
    9.1512  -13.6387   28.8613 O   0  0  0  0  0  0  0  0  0  0  0  0
   10.3283  -15.0993   27.4214 C   0  0  0  0  0  0  0  0  0  0  0  0
    9.2660  -14.8768   26.3948 C   0  0  0  0  0  0  0  0  0  0  0  0
    9.4356  -15.5625   25.0785 C   0  0  2  0  0  0  0  0  0  0  0  0
    8.4215  -15.2344   24.1369 N   0  0  0  0  0  0  0  0  0  0  0  0
    9.9387  -16.9421   25.1405 C   0  0  0  0  0  0  0  0  0  0  0  0
   11.2082  -17.1646   25.2844 O   0  0  0  0  0  0  0  0  0  0  0  0
    9.2257  -18.1224   25.0599 O   0  0  0  0  0  0  0  0  0  0  0  0
  2  1  1  6
  2  4  1  0
  3  2  1  0
  4  6  1  0
  4  5  1  1
  6 10  1  0
  7  6  2  0
  9  8  1  6
  9 11  1  0
 10  9  1  0
 11 19  1  0
 11 12  2  0
 14 13  1  0
 15 14  2  0
 16 14  1  0
 18 17  1  1
 17 16  1  0
 18 20  1  0
 19 18  1  0
 20 22  1  0
 21 20  2  0
M  END
$$$$
