FGW.pdb
     RDKit          3D

 30 32  0  0  1  0  0  0  0  0999 V2000
   28.4231  -22.3002   -7.5213 N   0  0  0  0  0  0  0  0  0  0  0  0
   27.9720  -21.1078   -8.1883 C   0  0  1  0  0  0  0  0  0  0  0  0
   28.7555  -19.8883   -7.8734 C   0  0  0  0  0  0  0  0  0  0  0  0
   28.8535  -19.5233   -6.4654 C   0  0  0  0  0  0  0  0  0  0  0  0
   29.9902  -19.9901   -5.7834 C   0  0  0  0  0  0  0  0  0  0  0  0
   30.1687  -19.7016   -4.4685 C   0  0  0  0  0  0  0  0  0  0  0  0
   29.2504  -18.9442   -3.7503 C   0  0  0  0  0  0  0  0  0  0  0  0
   28.1270  -18.4887   -4.4441 C   0  0  0  0  0  0  0  0  0  0  0  0
   27.9323  -18.7715   -5.7718 C   0  0  0  0  0  0  0  0  0  0  0  0
   27.7579  -21.2863   -9.6390 C   0  0  0  0  0  0  0  0  0  0  0  0
   28.6250  -21.9029  -10.3002 O   0  0  0  0  0  0  0  0  0  0  0  0
   26.5919  -20.7623  -10.2407 N   0  0  0  0  0  0  0  0  0  0  0  0
   26.3531  -20.8495  -11.6787 C   0  0  0  0  0  0  0  0  0  0  0  0
   25.0254  -20.2563  -12.0263 C   0  0  0  0  0  0  0  0  0  0  0  0
   24.3072  -19.7907  -11.1230 O   0  0  0  0  0  0  0  0  0  0  0  0
   24.5945  -20.2261  -13.3677 N   0  0  0  0  0  0  0  0  0  0  0  0
   23.3160  -19.8455  -13.8475 C   0  0  1  0  0  0  0  0  0  0  0  0
   23.1129  -19.8445  -15.3179 C   0  0  0  0  0  0  0  0  0  0  0  0
   21.8406  -19.2582  -15.7667 C   0  0  0  0  0  0  0  0  0  0  0  0
   21.4942  -17.9427  -15.7775 C   0  0  0  0  0  0  0  0  0  0  0  0
   20.2421  -17.7928  -16.2647 N   0  0  0  0  0  0  0  0  0  0  0  0
   19.7824  -19.0306  -16.5692 C   0  0  0  0  0  0  0  0  0  0  0  0
   18.5575  -19.4286  -17.0991 C   0  0  0  0  0  0  0  0  0  0  0  0
   18.3438  -20.7728  -17.3156 C   0  0  0  0  0  0  0  0  0  0  0  0
   19.3106  -21.7101  -17.0193 C   0  0  0  0  0  0  0  0  0  0  0  0
   20.5092  -21.3028  -16.4992 C   0  0  0  0  0  0  0  0  0  0  0  0
   20.7459  -19.9602  -16.2735 C   0  0  0  0  0  0  0  0  0  0  0  0
   22.2398  -20.6784  -13.2155 C   0  0  0  0  0  0  0  0  0  0  0  0
   22.4714  -22.0567  -13.1346 O   0  0  0  0  0  0  0  0  0  0  0  0
   21.1720  -20.2419  -12.7635 O   0  0  0  0  0  0  0  0  0  0  0  0
  2  1  1  6
  2  3  1  0
  3  4  1  0
  4  5  2  0
  5  6  1  0
  7  6  2  0
  8  7  1  0
  9  4  1  0
  9  8  2  0
 10  2  1  0
 10 12  1  0
 11 10  2  0
 13 12  1  0
 13 14  1  0
 14 15  2  0
 16 14  1  0
 16 17  1  0
 17 18  1  6
 19 18  1  0
 20 19  2  0
 21 22  1  0
 21 20  1  0
 22 27  2  0
 23 24  2  0
 23 22  1  0
 24 25  1  0
 25 26  2  0
 27 19  1  0
 27 26  1  0
 28 17  1  0
 28 29  1  0
 30 28  2  0
M  END
$$$$
