FGW.pdb
     RDKit          3D

 30 32  0  0  1  0  0  0  0  0999 V2000
   26.4287  -18.5149   -8.2903 N   0  0  0  0  0  0  0  0  0  0  0  0
   27.1176  -19.7653   -8.4694 C   0  0  1  0  0  0  0  0  0  0  0  0
   27.0909  -20.6615   -7.2877 C   0  0  0  0  0  0  0  0  0  0  0  0
   27.5302  -20.0843   -6.0231 C   0  0  0  0  0  0  0  0  0  0  0  0
   26.6979  -20.3176   -4.9150 C   0  0  0  0  0  0  0  0  0  0  0  0
   27.0237  -19.8192   -3.6945 C   0  0  0  0  0  0  0  0  0  0  0  0
   28.1758  -19.0684   -3.4902 C   0  0  0  0  0  0  0  0  0  0  0  0
   28.9908  -18.8465   -4.6025 C   0  0  0  0  0  0  0  0  0  0  0  0
   28.6757  -19.3431   -5.8415 C   0  0  0  0  0  0  0  0  0  0  0  0
   26.7592  -20.4644   -9.7205 C   0  0  0  0  0  0  0  0  0  0  0  0
   26.7248  -21.7166   -9.7172 O   0  0  0  0  0  0  0  0  0  0  0  0
   26.4667  -19.7117  -10.8797 N   0  0  0  0  0  0  0  0  0  0  0  0
   26.4073  -20.3192  -12.2064 C   0  0  0  0  0  0  0  0  0  0  0  0
   24.9981  -20.6750  -12.5572 C   0  0  0  0  0  0  0  0  0  0  0  0
   24.0758  -20.3578  -11.7844 O   0  0  0  0  0  0  0  0  0  0  0  0
   24.7206  -21.3638  -13.7549 N   0  0  0  0  0  0  0  0  0  0  0  0
   23.4445  -21.6464  -14.3037 C   0  0  1  0  0  0  0  0  0  0  0  0
   23.4052  -22.3680  -15.6003 C   0  0  0  0  0  0  0  0  0  0  0  0
   24.2508  -23.5699  -15.6657 C   0  0  0  0  0  0  0  0  0  0  0  0
   23.8580  -24.8658  -15.5344 C   0  0  0  0  0  0  0  0  0  0  0  0
   24.9214  -25.6914  -15.6581 N   0  0  0  0  0  0  0  0  0  0  0  0
   26.0086  -24.9114  -15.8714 C   0  0  0  0  0  0  0  0  0  0  0  0
   27.3425  -25.2629  -16.0636 C   0  0  0  0  0  0  0  0  0  0  0  0
   28.2624  -24.2561  -16.2629 C   0  0  0  0  0  0  0  0  0  0  0  0
   27.8843  -22.9303  -16.2741 C   0  0  0  0  0  0  0  0  0  0  0  0
   26.5695  -22.6014  -16.0838 C   0  0  0  0  0  0  0  0  0  0  0  0
   25.6294  -23.5938  -15.8820 C   0  0  0  0  0  0  0  0  0  0  0  0
   22.5920  -22.3879  -13.3164 C   0  0  0  0  0  0  0  0  0  0  0  0
   21.2048  -22.2758  -13.4681 O   0  0  0  0  0  0  0  0  0  0  0  0
   23.0196  -23.0860  -12.3865 O   0  0  0  0  0  0  0  0  0  0  0  0
  2  1  1  1
  2  3  1  0
  3  4  1  0
  4  5  2  0
  5  6  1  0
  7  6  2  0
  8  7  1  0
  9  4  1  0
  9  8  2  0
 10  2  1  0
 10 12  1  0
 11 10  2  0
 13 12  1  0
 13 14  1  0
 14 15  2  0
 16 14  1  0
 16 17  1  0
 17 18  1  6
 19 18  1  0
 20 19  2  0
 21 22  1  0
 21 20  1  0
 22 27  2  0
 23 24  2  0
 23 22  1  0
 24 25  1  0
 25 26  2  0
 27 19  1  0
 27 26  1  0
 28 17  1  0
 28 29  1  0
 30 28  2  0
M  END
$$$$
