FGW.pdb
     RDKit          3D

 30 32  0  0  1  0  0  0  0  0999 V2000
   24.6189  -20.3159   -7.1398 N   0  0  0  0  0  0  0  0  0  0  0  0
   25.5417  -20.3282   -8.2437 C   0  0  1  0  0  0  0  0  0  0  0  0
   26.8886  -20.8579   -7.9186 C   0  0  0  0  0  0  0  0  0  0  0  0
   27.4991  -20.3723   -6.6870 C   0  0  0  0  0  0  0  0  0  0  0  0
   27.7072  -18.9848   -6.6057 C   0  0  0  0  0  0  0  0  0  0  0  0
   28.2709  -18.4389   -5.4974 C   0  0  0  0  0  0  0  0  0  0  0  0
   28.6608  -19.2151   -4.4120 C   0  0  0  0  0  0  0  0  0  0  0  0
   28.4464  -20.5918   -4.5103 C   0  0  0  0  0  0  0  0  0  0  0  0
   27.8783  -21.1583   -5.6226 C   0  0  0  0  0  0  0  0  0  0  0  0
   24.9817  -20.9187   -9.4766 C   0  0  0  0  0  0  0  0  0  0  0  0
   23.9231  -21.5833   -9.3942 O   0  0  0  0  0  0  0  0  0  0  0  0
   25.6469  -20.7220  -10.7074 N   0  0  0  0  0  0  0  0  0  0  0  0
   24.9692  -20.8809  -11.9911 C   0  0  0  0  0  0  0  0  0  0  0  0
   25.2623  -19.7194  -12.8858 C   0  0  0  0  0  0  0  0  0  0  0  0
   24.9332  -18.5735  -12.5294 O   0  0  0  0  0  0  0  0  0  0  0  0
   25.9069  -19.9249  -14.1220 N   0  0  0  0  0  0  0  0  0  0  0  0
   26.5028  -18.9409  -14.9504 C   0  0  1  0  0  0  0  0  0  0  0  0
   27.9470  -18.6638  -14.7479 C   0  0  0  0  0  0  0  0  0  0  0  0
   28.7768  -19.8530  -14.5008 C   0  0  0  0  0  0  0  0  0  0  0  0
   29.1598  -20.7964  -15.4030 C   0  0  0  0  0  0  0  0  0  0  0  0
   29.9226  -21.7365  -14.8012 N   0  0  0  0  0  0  0  0  0  0  0  0
   30.0280  -21.3881  -13.4959 C   0  0  0  0  0  0  0  0  0  0  0  0
   30.7010  -22.0155  -12.4504 C   0  0  0  0  0  0  0  0  0  0  0  0
   30.6465  -21.4410  -11.1988 C   0  0  0  0  0  0  0  0  0  0  0  0
   29.9466  -20.2745  -10.9744 C   0  0  0  0  0  0  0  0  0  0  0  0
   29.2905  -19.6702  -12.0124 C   0  0  0  0  0  0  0  0  0  0  0  0
   29.3311  -20.2280  -13.2761 C   0  0  0  0  0  0  0  0  0  0  0  0
   26.2734  -19.2541  -16.3997 C   0  0  0  0  0  0  0  0  0  0  0  0
   26.5757  -18.2444  -17.3211 O   0  0  0  0  0  0  0  0  0  0  0  0
   25.8415  -20.3294  -16.8381 O   0  0  0  0  0  0  0  0  0  0  0  0
  2  1  1  1
  2  3  1  0
  3  4  1  0
  4  5  2  0
  5  6  1  0
  7  6  2  0
  8  7  1  0
  9  4  1  0
  9  8  2  0
 10  2  1  0
 10 12  1  0
 11 10  2  0
 13 12  1  0
 13 14  1  0
 14 15  2  0
 16 14  1  0
 16 17  1  0
 17 18  1  6
 19 18  1  0
 20 19  2  0
 21 22  1  0
 21 20  1  0
 22 27  2  0
 23 24  2  0
 23 22  1  0
 24 25  1  0
 25 26  2  0
 27 19  1  0
 27 26  1  0
 28 17  1  0
 28 29  1  0
 30 28  2  0
M  END
$$$$
