FGW.pdb
     RDKit          3D

 30 32  0  0  1  0  0  0  0  0999 V2000
   26.1809  -21.8299  -10.5320 N   0  0  0  0  0  0  0  0  0  0  0  0
   26.7925  -20.6933  -11.1678 C   0  0  1  0  0  0  0  0  0  0  0  0
   28.1196  -20.3183  -10.6215 C   0  0  0  0  0  0  0  0  0  0  0  0
   28.1944  -20.1074   -9.1809 C   0  0  0  0  0  0  0  0  0  0  0  0
   29.1175  -20.9077   -8.4862 C   0  0  0  0  0  0  0  0  0  0  0  0
   29.2581  -20.7838   -7.1412 C   0  0  0  0  0  0  0  0  0  0  0  0
   28.5078  -19.8751   -6.4038 C   0  0  0  0  0  0  0  0  0  0  0  0
   27.5955  -19.0883   -7.1105 C   0  0  0  0  0  0  0  0  0  0  0  0
   27.4418  -19.2013   -8.4687 C   0  0  0  0  0  0  0  0  0  0  0  0
   26.7857  -20.7658  -12.6432 C   0  0  0  0  0  0  0  0  0  0  0  0
   27.0271  -21.8672  -13.1890 O   0  0  0  0  0  0  0  0  0  0  0  0
   26.5100  -19.6028  -13.3965 N   0  0  0  0  0  0  0  0  0  0  0  0
   26.4146  -19.6250  -14.8535 C   0  0  0  0  0  0  0  0  0  0  0  0
   25.0215  -19.9577  -15.2825 C   0  0  0  0  0  0  0  0  0  0  0  0
   24.6361  -19.6301  -16.4194 O   0  0  0  0  0  0  0  0  0  0  0  0
   24.1549  -20.6374  -14.4034 N   0  0  0  0  0  0  0  0  0  0  0  0
   22.7964  -20.9731  -14.6301 C   0  0  1  0  0  0  0  0  0  0  0  0
   22.1765  -21.9611  -13.7121 C   0  0  0  0  0  0  0  0  0  0  0  0
   22.3659  -21.6799  -12.2806 C   0  0  0  0  0  0  0  0  0  0  0  0
   23.2990  -20.8685  -11.7135 C   0  0  0  0  0  0  0  0  0  0  0  0
   23.1566  -20.8604  -10.3691 N   0  0  0  0  0  0  0  0  0  0  0  0
   22.1175  -21.6785  -10.0738 C   0  0  0  0  0  0  0  0  0  0  0  0
   21.5622  -22.0163   -8.8421 C   0  0  0  0  0  0  0  0  0  0  0  0
   20.4921  -22.8847   -8.8227 C   0  0  0  0  0  0  0  0  0  0  0  0
   19.9750  -23.4127   -9.9866 C   0  0  0  0  0  0  0  0  0  0  0  0
   20.5320  -23.0708  -11.1891 C   0  0  0  0  0  0  0  0  0  0  0  0
   21.6056  -22.2019  -11.2331 C   0  0  0  0  0  0  0  0  0  0  0  0
   21.9403  -19.7412  -14.6574 C   0  0  0  0  0  0  0  0  0  0  0  0
   20.6690  -19.8664  -15.2300 O   0  0  0  0  0  0  0  0  0  0  0  0
   22.2707  -18.6322  -14.2147 O   0  0  0  0  0  0  0  0  0  0  0  0
  2  1  1  1
  2  3  1  0
  3  4  1  0
  4  5  2  0
  5  6  1  0
  7  6  2  0
  8  7  1  0
  9  4  1  0
  9  8  2  0
 10  2  1  0
 10 12  1  0
 11 10  2  0
 13 12  1  0
 13 14  1  0
 14 15  2  0
 16 14  1  0
 16 17  1  0
 17 18  1  1
 19 18  1  0
 20 19  2  0
 21 22  1  0
 21 20  1  0
 22 27  2  0
 23 24  2  0
 23 22  1  0
 24 25  1  0
 25 26  2  0
 27 19  1  0
 27 26  1  0
 28 17  1  0
 28 29  1  0
 30 28  2  0
M  END
$$$$
