FGW.pdb
     RDKit          3D

 30 32  0  0  1  0  0  0  0  0999 V2000
   27.1062  -20.5199  -16.9631 N   0  0  0  0  0  0  0  0  0  0  0  0
   26.9150  -19.2380  -16.3384 C   0  0  1  0  0  0  0  0  0  0  0  0
   25.5578  -18.6636  -16.5068 C   0  0  0  0  0  0  0  0  0  0  0  0
   25.0247  -18.6403  -17.8635 C   0  0  0  0  0  0  0  0  0  0  0  0
   25.2067  -17.4443  -18.5786 C   0  0  0  0  0  0  0  0  0  0  0  0
   24.7436  -17.3271  -19.8498 C   0  0  0  0  0  0  0  0  0  0  0  0
   24.0799  -18.3676  -20.4897 C   0  0  0  0  0  0  0  0  0  0  0  0
   23.9080  -19.5485  -19.7640 C   0  0  0  0  0  0  0  0  0  0  0  0
   24.3698  -19.6826  -18.4796 C   0  0  0  0  0  0  0  0  0  0  0  0
   27.3838  -19.1862  -14.9385 C   0  0  0  0  0  0  0  0  0  0  0  0
   27.3023  -18.0998  -14.3202 O   0  0  0  0  0  0  0  0  0  0  0  0
   27.9081  -20.3516  -14.3360 N   0  0  0  0  0  0  0  0  0  0  0  0
   28.3267  -20.3823  -12.9372 C   0  0  0  0  0  0  0  0  0  0  0  0
   27.2418  -20.9479  -12.0779 C   0  0  0  0  0  0  0  0  0  0  0  0
   26.2616  -21.4981  -12.6118 O   0  0  0  0  0  0  0  0  0  0  0  0
   27.3324  -20.8570  -10.6745 N   0  0  0  0  0  0  0  0  0  0  0  0
   26.4835  -21.4723   -9.7205 C   0  0  1  0  0  0  0  0  0  0  0  0
   27.0278  -21.6744   -8.3543 C   0  0  0  0  0  0  0  0  0  0  0  0
   27.5000  -20.4505   -7.6888 C   0  0  0  0  0  0  0  0  0  0  0  0
   27.1801  -19.1648   -7.9979 C   0  0  0  0  0  0  0  0  0  0  0  0
   27.8083  -18.3119   -7.1579 N   0  0  0  0  0  0  0  0  0  0  0  0
   28.5396  -19.0639   -6.3002 C   0  0  0  0  0  0  0  0  0  0  0  0
   29.3648  -18.6781   -5.2467 C   0  0  0  0  0  0  0  0  0  0  0  0
   30.0024  -19.6611   -4.5210 C   0  0  0  0  0  0  0  0  0  0  0  0
   29.8358  -20.9966   -4.8204 C   0  0  0  0  0  0  0  0  0  0  0  0
   29.0213  -21.3593   -5.8588 C   0  0  0  0  0  0  0  0  0  0  0  0
   28.3717  -20.3911   -6.6005 C   0  0  0  0  0  0  0  0  0  0  0  0
   25.1804  -20.7362   -9.6131 C   0  0  0  0  0  0  0  0  0  0  0  0
   24.1019  -21.4359   -9.0590 O   0  0  0  0  0  0  0  0  0  0  0  0
   24.9894  -19.5664   -9.9739 O   0  0  0  0  0  0  0  0  0  0  0  0
  2  1  1  1
  2  3  1  0
  3  4  1  0
  4  5  2  0
  5  6  1  0
  7  6  2  0
  8  7  1  0
  9  4  1  0
  9  8  2  0
 10  2  1  0
 10 12  1  0
 11 10  2  0
 13 12  1  0
 13 14  1  0
 14 15  2  0
 16 14  1  0
 16 17  1  0
 17 18  1  1
 19 18  1  0
 20 19  2  0
 21 22  1  0
 21 20  1  0
 22 27  2  0
 23 24  2  0
 23 22  1  0
 24 25  1  0
 25 26  2  0
 27 19  1  0
 27 26  1  0
 28 17  1  0
 28 29  1  0
 30 28  2  0
M  END
$$$$
