FGW.pdb
     RDKit          3D

 30 32  0  0  1  0  0  0  0  0999 V2000
   17.5787  -12.5936  -18.3386 N   0  0  0  0  0  0  0  0  0  0  0  0
   17.6725  -11.1998  -18.6829 C   0  0  1  0  0  0  0  0  0  0  0  0
   16.4061  -10.5942  -19.1626 C   0  0  0  0  0  0  0  0  0  0  0  0
   15.7422  -11.2675  -20.2722 C   0  0  0  0  0  0  0  0  0  0  0  0
   16.1421  -10.8759  -21.5613 C   0  0  0  0  0  0  0  0  0  0  0  0
   15.5796  -11.4464  -22.6577 C   0  0  0  0  0  0  0  0  0  0  0  0
   14.5993  -12.4268  -22.5556 C   0  0  0  0  0  0  0  0  0  0  0  0
   14.2142  -12.8035  -21.2670 C   0  0  0  0  0  0  0  0  0  0  0  0
   14.7727  -12.2370  -20.1499 C   0  0  0  0  0  0  0  0  0  0  0  0
   18.3393  -10.3790  -17.6515 C   0  0  0  0  0  0  0  0  0  0  0  0
   18.5691   -9.1735  -17.9026 O   0  0  0  0  0  0  0  0  0  0  0  0
   18.6989  -10.9673  -16.4183 N   0  0  0  0  0  0  0  0  0  0  0  0
   19.2136  -10.1791  -15.3019 C   0  0  0  0  0  0  0  0  0  0  0  0
   18.1548   -9.9866  -14.2641 C   0  0  0  0  0  0  0  0  0  0  0  0
   16.9786  -10.2990  -14.5239 O   0  0  0  0  0  0  0  0  0  0  0  0
   18.4902   -9.4558  -13.0025 N   0  0  0  0  0  0  0  0  0  0  0  0
   17.6283   -9.2816  -11.8906 C   0  0  1  0  0  0  0  0  0  0  0  0
   18.2412   -8.8231  -10.6188 C   0  0  0  0  0  0  0  0  0  0  0  0
   18.7114   -7.4292  -10.6255 C   0  0  0  0  0  0  0  0  0  0  0  0
   18.3271   -6.4227   -9.7948 C   0  0  0  0  0  0  0  0  0  0  0  0
   18.9831   -5.2826  -10.1071 N   0  0  0  0  0  0  0  0  0  0  0  0
   19.7979   -5.5654  -11.1522 C   0  0  0  0  0  0  0  0  0  0  0  0
   20.6817   -4.7455  -11.8495 C   0  0  0  0  0  0  0  0  0  0  0  0
   21.4020   -5.2941  -12.8886 C   0  0  0  0  0  0  0  0  0  0  0  0
   21.2603   -6.6201  -13.2389 C   0  0  0  0  0  0  0  0  0  0  0  0
   20.3876   -7.4126  -12.5436 C   0  0  0  0  0  0  0  0  0  0  0  0
   19.6546   -6.8844  -11.4980 C   0  0  0  0  0  0  0  0  0  0  0  0
   16.4936   -8.3622  -12.2347 C   0  0  0  0  0  0  0  0  0  0  0  0
   15.3813   -8.3840  -11.3849 O   0  0  0  0  0  0  0  0  0  0  0  0
   16.4678   -7.5919  -13.2047 O   0  0  0  0  0  0  0  0  0  0  0  0
  2  1  1  1
  2  3  1  0
  3  4  1  0
  4  5  2  0
  5  6  1  0
  7  6  2  0
  8  7  1  0
  9  4  1  0
  9  8  2  0
 10  2  1  0
 10 12  1  0
 11 10  2  0
 13 12  1  0
 13 14  1  0
 14 15  2  0
 16 14  1  0
 16 17  1  0
 17 18  1  1
 19 18  1  0
 20 19  2  0
 21 22  1  0
 21 20  1  0
 22 27  2  0
 23 24  2  0
 23 22  1  0
 24 25  1  0
 25 26  2  0
 27 19  1  0
 27 26  1  0
 28 17  1  0
 28 29  1  0
 30 28  2  0
M  END
$$$$
