FGW.pdb
     RDKit          3D

 30 32  0  0  1  0  0  0  0  0999 V2000
   29.6323  -20.4681  -18.1705 N   0  0  0  0  0  0  0  0  0  0  0  0
   28.5159  -19.6310  -17.8197 C   0  0  1  0  0  0  0  0  0  0  0  0
   27.2491  -19.9650  -18.5154 C   0  0  0  0  0  0  0  0  0  0  0  0
   27.2383  -19.7981  -19.9636 C   0  0  0  0  0  0  0  0  0  0  0  0
   27.3220  -20.9780  -20.7224 C   0  0  0  0  0  0  0  0  0  0  0  0
   27.3198  -20.9233  -22.0793 C   0  0  0  0  0  0  0  0  0  0  0  0
   27.2362  -19.7179  -22.7668 C   0  0  0  0  0  0  0  0  0  0  0  0
   27.1538  -18.5557  -21.9966 C   0  0  0  0  0  0  0  0  0  0  0  0
   27.1548  -18.5941  -20.6256 C   0  0  0  0  0  0  0  0  0  0  0  0
   28.3366  -19.4635  -16.3630 C   0  0  0  0  0  0  0  0  0  0  0  0
   29.2375  -19.8784  -15.5978 O   0  0  0  0  0  0  0  0  0  0  0  0
   27.1648  -18.8456  -15.8719 N   0  0  0  0  0  0  0  0  0  0  0  0
   26.9700  -18.5664  -14.4518 C   0  0  0  0  0  0  0  0  0  0  0  0
   26.0556  -19.5784  -13.8394 C   0  0  0  0  0  0  0  0  0  0  0  0
   24.9306  -19.7674  -14.3365 O   0  0  0  0  0  0  0  0  0  0  0  0
   26.4684  -20.3108  -12.7085 N   0  0  0  0  0  0  0  0  0  0  0  0
   25.7757  -21.3751  -12.0784 C   0  0  1  0  0  0  0  0  0  0  0  0
   26.3494  -21.9096  -10.8180 C   0  0  0  0  0  0  0  0  0  0  0  0
   26.4285  -20.9407   -9.7141 C   0  0  0  0  0  0  0  0  0  0  0  0
   25.4504  -20.1015   -9.2783 C   0  0  0  0  0  0  0  0  0  0  0  0
   25.8974  -19.3627   -8.2380 N   0  0  0  0  0  0  0  0  0  0  0  0
   27.1794  -19.7357   -8.0064 C   0  0  0  0  0  0  0  0  0  0  0  0
   28.0875  -19.2845   -7.0518 C   0  0  0  0  0  0  0  0  0  0  0  0
   29.3482  -19.8411   -7.0333 C   0  0  0  0  0  0  0  0  0  0  0  0
   29.7136  -20.8208   -7.9320 C   0  0  0  0  0  0  0  0  0  0  0  0
   28.8095  -21.2533   -8.8639 C   0  0  0  0  0  0  0  0  0  0  0  0
   27.5395  -20.7098   -8.9015 C   0  0  0  0  0  0  0  0  0  0  0  0
   24.3417  -21.0072  -11.8342 C   0  0  0  0  0  0  0  0  0  0  0  0
   24.0538  -19.6451  -11.6878 O   0  0  0  0  0  0  0  0  0  0  0  0
   23.4022  -21.8109  -11.7539 O   0  0  0  0  0  0  0  0  0  0  0  0
  2  1  1  1
  2  3  1  0
  3  4  1  0
  4  5  2  0
  5  6  1  0
  7  6  2  0
  8  7  1  0
  9  4  1  0
  9  8  2  0
 10  2  1  0
 10 12  1  0
 11 10  2  0
 13 12  1  0
 13 14  1  0
 14 15  2  0
 16 14  1  0
 16 17  1  0
 17 18  1  1
 19 18  1  0
 20 19  2  0
 21 22  1  0
 21 20  1  0
 22 27  2  0
 23 24  2  0
 23 22  1  0
 24 25  1  0
 25 26  2  0
 27 19  1  0
 27 26  1  0
 28 17  1  0
 28 29  1  0
 30 28  2  0
M  END
$$$$
