FGW.pdb
     RDKit          3D

 30 32  0  0  1  0  0  0  0  0999 V2000
   22.7091  -20.5138  -15.2143 N   0  0  0  0  0  0  0  0  0  0  0  0
   23.8428  -19.6497  -15.4098 C   0  0  1  0  0  0  0  0  0  0  0  0
   23.5389  -18.3795  -16.1130 C   0  0  0  0  0  0  0  0  0  0  0  0
   22.8398  -18.4922  -17.3874 C   0  0  0  0  0  0  0  0  0  0  0  0
   23.6206  -18.8848  -18.4880 C   0  0  0  0  0  0  0  0  0  0  0  0
   23.0580  -19.0165  -19.7169 C   0  0  0  0  0  0  0  0  0  0  0  0
   21.7071  -18.7729  -19.9374 C   0  0  0  0  0  0  0  0  0  0  0  0
   20.9467  -18.3837  -18.8324 C   0  0  0  0  0  0  0  0  0  0  0  0
   21.5000  -18.2463  -17.5850 C   0  0  0  0  0  0  0  0  0  0  0  0
   24.6477  -19.4439  -14.1883 C   0  0  0  0  0  0  0  0  0  0  0  0
   24.0693  -19.0457  -13.1509 O   0  0  0  0  0  0  0  0  0  0  0  0
   26.0370  -19.6984  -14.2186 N   0  0  0  0  0  0  0  0  0  0  0  0
   26.8633  -19.6454  -13.0156 C   0  0  0  0  0  0  0  0  0  0  0  0
   26.3210  -20.5623  -11.9666 C   0  0  0  0  0  0  0  0  0  0  0  0
   25.4153  -21.3629  -12.2617 O   0  0  0  0  0  0  0  0  0  0  0  0
   26.8347  -20.5175  -10.6551 N   0  0  0  0  0  0  0  0  0  0  0  0
   26.4422  -21.3199   -9.5543 C   0  0  1  0  0  0  0  0  0  0  0  0
   27.4356  -21.5218   -8.4700 C   0  0  0  0  0  0  0  0  0  0  0  0
   27.5910  -20.3823   -7.5527 C   0  0  0  0  0  0  0  0  0  0  0  0
   27.0476  -19.1412   -7.6760 C   0  0  0  0  0  0  0  0  0  0  0  0
   27.4143  -18.3645   -6.6320 N   0  0  0  0  0  0  0  0  0  0  0  0
   28.2032  -19.1207   -5.8308 C   0  0  0  0  0  0  0  0  0  0  0  0
   28.8373  -18.7996   -4.6331 C   0  0  0  0  0  0  0  0  0  0  0  0
   29.5930  -19.7704   -4.0118 C   0  0  0  0  0  0  0  0  0  0  0  0
   29.7256  -21.0319   -4.5523 C   0  0  0  0  0  0  0  0  0  0  0  0
   29.0961  -21.3317   -5.7299 C   0  0  0  0  0  0  0  0  0  0  0  0
   28.3331  -20.3742   -6.3708 C   0  0  0  0  0  0  0  0  0  0  0  0
   25.1688  -20.8075   -8.9484 C   0  0  0  0  0  0  0  0  0  0  0  0
   24.5198  -21.6468   -8.0351 O   0  0  0  0  0  0  0  0  0  0  0  0
   24.6539  -19.7074   -9.1928 O   0  0  0  0  0  0  0  0  0  0  0  0
  2  1  1  1
  2  3  1  0
  3  4  1  0
  4  5  2  0
  5  6  1  0
  7  6  2  0
  8  7  1  0
  9  4  1  0
  9  8  2  0
 10  2  1  0
 10 12  1  0
 11 10  2  0
 13 12  1  0
 13 14  1  0
 14 15  2  0
 16 14  1  0
 16 17  1  0
 17 18  1  1
 19 18  1  0
 20 19  2  0
 21 22  1  0
 21 20  1  0
 22 27  2  0
 23 24  2  0
 23 22  1  0
 24 25  1  0
 25 26  2  0
 27 19  1  0
 27 26  1  0
 28 17  1  0
 28 29  1  0
 30 28  2  0
M  END
$$$$
