FGW.pdb
     RDKit          3D

 30 32  0  0  1  0  0  0  0  0999 V2000
   24.2607  -17.3670  -17.2433 N   0  0  0  0  0  0  0  0  0  0  0  0
   24.9777  -16.4931  -16.3532 C   0  0  1  0  0  0  0  0  0  0  0  0
   24.4308  -15.1171  -16.2631 C   0  0  0  0  0  0  0  0  0  0  0  0
   24.2609  -14.4006  -17.5213 C   0  0  0  0  0  0  0  0  0  0  0  0
   22.9364  -14.2148  -17.9528 C   0  0  0  0  0  0  0  0  0  0  0  0
   22.6780  -13.5594  -19.1137 C   0  0  0  0  0  0  0  0  0  0  0  0
   23.6952  -13.0515  -19.9138 C   0  0  0  0  0  0  0  0  0  0  0  0
   25.0050  -13.2454  -19.4695 C   0  0  0  0  0  0  0  0  0  0  0  0
   25.2825  -13.9050  -18.2995 C   0  0  0  0  0  0  0  0  0  0  0  0
   25.2422  -17.0869  -15.0267 C   0  0  0  0  0  0  0  0  0  0  0  0
   24.2976  -17.6447  -14.4219 O   0  0  0  0  0  0  0  0  0  0  0  0
   26.5414  -17.0124  -14.4767 N   0  0  0  0  0  0  0  0  0  0  0  0
   26.8463  -17.4995  -13.1342 C   0  0  0  0  0  0  0  0  0  0  0  0
   26.6654  -18.9818  -13.0610 C   0  0  0  0  0  0  0  0  0  0  0  0
   26.2619  -19.5998  -14.0628 O   0  0  0  0  0  0  0  0  0  0  0  0
   26.9513  -19.6702  -11.8650 N   0  0  0  0  0  0  0  0  0  0  0  0
   26.9349  -21.0727  -11.6599 C   0  0  1  0  0  0  0  0  0  0  0  0
   27.5497  -21.5856  -10.4099 C   0  0  0  0  0  0  0  0  0  0  0  0
   27.1519  -20.8723   -9.1865 C   0  0  0  0  0  0  0  0  0  0  0  0
   25.9091  -20.4299   -8.8539 C   0  0  0  0  0  0  0  0  0  0  0  0
   25.9366  -19.8224   -7.6465 N   0  0  0  0  0  0  0  0  0  0  0  0
   27.2154  -19.8779   -7.2018 C   0  0  0  0  0  0  0  0  0  0  0  0
   27.7768  -19.4013   -6.0197 C   0  0  0  0  0  0  0  0  0  0  0  0
   29.1257  -19.5929   -5.8120 C   0  0  0  0  0  0  0  0  0  0  0  0
   29.9108  -20.2387   -6.7434 C   0  0  0  0  0  0  0  0  0  0  0  0
   29.3439  -20.7013   -7.9000 C   0  0  0  0  0  0  0  0  0  0  0  0
   27.9934  -20.5207   -8.1300 C   0  0  0  0  0  0  0  0  0  0  0  0
   25.5378  -21.6102  -11.7625 C   0  0  0  0  0  0  0  0  0  0  0  0
   25.4035  -22.9858  -11.9850 O   0  0  0  0  0  0  0  0  0  0  0  0
   24.5039  -20.9344  -11.6651 O   0  0  0  0  0  0  0  0  0  0  0  0
  2  1  1  1
  2  3  1  0
  3  4  1  0
  4  5  2  0
  5  6  1  0
  7  6  2  0
  8  7  1  0
  9  4  1  0
  9  8  2  0
 10  2  1  0
 10 12  1  0
 11 10  2  0
 13 12  1  0
 13 14  1  0
 14 15  2  0
 16 14  1  0
 16 17  1  0
 17 18  1  1
 19 18  1  0
 20 19  2  0
 21 22  1  0
 21 20  1  0
 22 27  2  0
 23 24  2  0
 23 22  1  0
 24 25  1  0
 25 26  2  0
 27 19  1  0
 27 26  1  0
 28 17  1  0
 28 29  1  0
 30 28  2  0
M  END
$$$$
