FGW.pdb
     RDKit          3D

 30 32  0  0  1  0  0  0  0  0999 V2000
   25.1840  -17.0699  -17.3538 N   0  0  0  0  0  0  0  0  0  0  0  0
   26.5340  -17.5315  -17.5394 C   0  0  1  0  0  0  0  0  0  0  0  0
   27.3882  -16.6345  -18.3555 C   0  0  0  0  0  0  0  0  0  0  0  0
   26.8702  -16.2562  -19.6647 C   0  0  0  0  0  0  0  0  0  0  0  0
   26.7810  -17.2872  -20.6156 C   0  0  0  0  0  0  0  0  0  0  0  0
   26.3110  -17.0313  -21.8637 C   0  0  0  0  0  0  0  0  0  0  0  0
   25.9040  -15.7593  -22.2500 C   0  0  0  0  0  0  0  0  0  0  0  0
   25.9997  -14.7473  -21.2923 C   0  0  0  0  0  0  0  0  0  0  0  0
   26.4720  -14.9895  -20.0277 C   0  0  0  0  0  0  0  0  0  0  0  0
   27.1915  -17.9567  -16.2867 C   0  0  0  0  0  0  0  0  0  0  0  0
   28.3257  -18.4839  -16.3555 O   0  0  0  0  0  0  0  0  0  0  0  0
   26.5319  -17.7608  -15.0527 N   0  0  0  0  0  0  0  0  0  0  0  0
   27.0940  -18.2277  -13.7883 C   0  0  0  0  0  0  0  0  0  0  0  0
   26.7058  -19.6492  -13.5354 C   0  0  0  0  0  0  0  0  0  0  0  0
   26.9255  -20.5087  -14.4080 O   0  0  0  0  0  0  0  0  0  0  0  0
   26.0967  -20.0090  -12.3166 N   0  0  0  0  0  0  0  0  0  0  0  0
   25.6662  -21.3012  -11.9237 C   0  0  1  0  0  0  0  0  0  0  0  0
   25.4867  -21.5469  -10.4708 C   0  0  0  0  0  0  0  0  0  0  0  0
   26.3645  -20.7545   -9.5959 C   0  0  0  0  0  0  0  0  0  0  0  0
   25.9988  -19.7751   -8.7253 C   0  0  0  0  0  0  0  0  0  0  0  0
   27.0872  -19.2800   -8.0946 N   0  0  0  0  0  0  0  0  0  0  0  0
   28.1632  -19.9531   -8.5693 C   0  0  0  0  0  0  0  0  0  0  0  0
   29.5130  -19.8291   -8.2494 C   0  0  0  0  0  0  0  0  0  0  0  0
   30.4155  -20.6505   -8.8899 C   0  0  0  0  0  0  0  0  0  0  0  0
   30.0050  -21.5760   -9.8258 C   0  0  0  0  0  0  0  0  0  0  0  0
   28.6749  -21.6855  -10.1290 C   0  0  0  0  0  0  0  0  0  0  0  0
   27.7518  -20.8725   -9.4995 C   0  0  0  0  0  0  0  0  0  0  0  0
   24.4000  -21.6802  -12.6339 C   0  0  0  0  0  0  0  0  0  0  0  0
   24.0538  -23.0366  -12.6302 O   0  0  0  0  0  0  0  0  0  0  0  0
   23.6447  -20.8901  -13.2172 O   0  0  0  0  0  0  0  0  0  0  0  0
  2  1  1  1
  2  3  1  0
  3  4  1  0
  4  5  2  0
  5  6  1  0
  7  6  2  0
  8  7  1  0
  9  4  1  0
  9  8  2  0
 10  2  1  0
 10 12  1  0
 11 10  2  0
 13 12  1  0
 13 14  1  0
 14 15  2  0
 16 14  1  0
 16 17  1  0
 17 18  1  1
 19 18  1  0
 20 19  2  0
 21 22  1  0
 21 20  1  0
 22 27  2  0
 23 24  2  0
 23 22  1  0
 24 25  1  0
 25 26  2  0
 27 19  1  0
 27 26  1  0
 28 17  1  0
 28 29  1  0
 30 28  2  0
M  END
$$$$
