FGW.pdb
     RDKit          3D

 30 32  0  0  1  0  0  0  0  0999 V2000
   25.8993  -18.0893  -16.2743 N   0  0  0  0  0  0  0  0  0  0  0  0
   26.5585  -18.2755  -15.0090 C   0  0  1  0  0  0  0  0  0  0  0  0
   27.4911  -17.1858  -14.6307 C   0  0  0  0  0  0  0  0  0  0  0  0
   28.5273  -16.8503  -15.5998 C   0  0  0  0  0  0  0  0  0  0  0  0
   28.3400  -15.6560  -16.3165 C   0  0  0  0  0  0  0  0  0  0  0  0
   29.2518  -15.2602  -17.2417 C   0  0  0  0  0  0  0  0  0  0  0  0
   30.3922  -16.0062  -17.5166 C   0  0  0  0  0  0  0  0  0  0  0  0
   30.5619  -17.1900  -16.7950 C   0  0  0  0  0  0  0  0  0  0  0  0
   29.6503  -17.6033  -15.8574 C   0  0  0  0  0  0  0  0  0  0  0  0
   25.6403  -18.6435  -13.9119 C   0  0  0  0  0  0  0  0  0  0  0  0
   24.5060  -18.1131  -13.8779 O   0  0  0  0  0  0  0  0  0  0  0  0
   26.0590  -19.5757  -12.9363 N   0  0  0  0  0  0  0  0  0  0  0  0
   25.2120  -19.9539  -11.8085 C   0  0  0  0  0  0  0  0  0  0  0  0
   25.9616  -20.8364  -10.8628 C   0  0  0  0  0  0  0  0  0  0  0  0
   26.7568  -21.6811  -11.3131 O   0  0  0  0  0  0  0  0  0  0  0  0
   25.7670  -20.7092   -9.4729 N   0  0  0  0  0  0  0  0  0  0  0  0
   25.5427  -21.7536   -8.5410 C   0  0  1  0  0  0  0  0  0  0  0  0
   26.4937  -21.8707   -7.4072 C   0  0  0  0  0  0  0  0  0  0  0  0
   27.0623  -20.5962   -6.9420 C   0  0  0  0  0  0  0  0  0  0  0  0
   26.8114  -19.3514   -7.4300 C   0  0  0  0  0  0  0  0  0  0  0  0
   27.5188  -18.4278   -6.7414 N   0  0  0  0  0  0  0  0  0  0  0  0
   28.2315  -19.0927   -5.8000 C   0  0  0  0  0  0  0  0  0  0  0  0
   29.1142  -18.6121   -4.8360 C   0  0  0  0  0  0  0  0  0  0  0  0
   29.7148  -19.5181   -3.9887 C   0  0  0  0  0  0  0  0  0  0  0  0
   29.4566  -20.8692   -4.0829 C   0  0  0  0  0  0  0  0  0  0  0  0
   28.5866  -21.3256   -5.0358 C   0  0  0  0  0  0  0  0  0  0  0  0
   27.9726  -20.4357   -5.8963 C   0  0  0  0  0  0  0  0  0  0  0  0
   24.1480  -21.6877   -7.9918 C   0  0  0  0  0  0  0  0  0  0  0  0
   23.7229  -22.7698   -7.2120 O   0  0  0  0  0  0  0  0  0  0  0  0
   23.3521  -20.7558   -8.1744 O   0  0  0  0  0  0  0  0  0  0  0  0
  2  1  1  6
  2  3  1  0
  3  4  1  0
  4  5  2  0
  5  6  1  0
  7  6  2  0
  8  7  1  0
  9  4  1  0
  9  8  2  0
 10  2  1  0
 10 12  1  0
 11 10  2  0
 13 12  1  0
 13 14  1  0
 14 15  2  0
 16 14  1  0
 16 17  1  0
 17 18  1  1
 19 18  1  0
 20 19  2  0
 21 22  1  0
 21 20  1  0
 22 27  2  0
 23 24  2  0
 23 22  1  0
 24 25  1  0
 25 26  2  0
 27 19  1  0
 27 26  1  0
 28 17  1  0
 28 29  1  0
 30 28  2  0
M  END
$$$$
