FGW.pdb
     RDKit          3D

 30 32  0  0  1  0  0  0  0  0999 V2000
   25.6540  -21.4892  -16.4525 N   0  0  0  0  0  0  0  0  0  0  0  0
   26.4333  -20.3619  -16.0142 C   0  0  1  0  0  0  0  0  0  0  0  0
   26.0429  -19.0660  -16.6215 C   0  0  0  0  0  0  0  0  0  0  0  0
   26.8656  -17.9124  -16.2782 C   0  0  0  0  0  0  0  0  0  0  0  0
   28.0152  -17.7176  -17.0627 C   0  0  0  0  0  0  0  0  0  0  0  0
   28.8440  -16.6701  -16.8181 C   0  0  0  0  0  0  0  0  0  0  0  0
   28.5965  -15.7589  -15.7978 C   0  0  0  0  0  0  0  0  0  0  0  0
   27.4497  -15.9681  -15.0284 C   0  0  0  0  0  0  0  0  0  0  0  0
   26.6027  -17.0210  -15.2628 C   0  0  0  0  0  0  0  0  0  0  0  0
   26.5814  -20.2796  -14.5468 C   0  0  0  0  0  0  0  0  0  0  0  0
   25.5988  -19.9040  -13.8665 O   0  0  0  0  0  0  0  0  0  0  0  0
   27.8157  -20.6227  -13.9510 N   0  0  0  0  0  0  0  0  0  0  0  0
   28.0587  -20.4637  -12.5199 C   0  0  0  0  0  0  0  0  0  0  0  0
   27.0611  -21.2475  -11.7286 C   0  0  0  0  0  0  0  0  0  0  0  0
   26.4923  -22.2217  -12.2537 O   0  0  0  0  0  0  0  0  0  0  0  0
   26.7706  -20.8829  -10.3988 N   0  0  0  0  0  0  0  0  0  0  0  0
   25.9107  -21.5563   -9.4951 C   0  0  1  0  0  0  0  0  0  0  0  0
   26.2810  -21.5343   -8.0578 C   0  0  0  0  0  0  0  0  0  0  0  0
   26.9224  -20.2911   -7.6027 C   0  0  0  0  0  0  0  0  0  0  0  0
   26.7628  -19.0418   -8.1170 C   0  0  0  0  0  0  0  0  0  0  0  0
   27.5154  -18.1536   -7.4297 N   0  0  0  0  0  0  0  0  0  0  0  0
   28.1649  -18.8460   -6.4627 C   0  0  0  0  0  0  0  0  0  0  0  0
   29.0582  -18.4061   -5.4890 C   0  0  0  0  0  0  0  0  0  0  0  0
   29.5818  -19.3335   -4.6143 C   0  0  0  0  0  0  0  0  0  0  0  0
   29.2379  -20.6665   -4.6908 C   0  0  0  0  0  0  0  0  0  0  0  0
   28.3587  -21.0828   -5.6535 C   0  0  0  0  0  0  0  0  0  0  0  0
   27.8208  -20.1709   -6.5415 C   0  0  0  0  0  0  0  0  0  0  0  0
   24.5002  -21.0640   -9.6342 C   0  0  0  0  0  0  0  0  0  0  0  0
   23.4931  -21.8643   -9.0820 O   0  0  0  0  0  0  0  0  0  0  0  0
   24.1632  -20.0119  -10.1951 O   0  0  0  0  0  0  0  0  0  0  0  0
  2  1  1  1
  2  3  1  0
  3  4  1  0
  4  5  2  0
  5  6  1  0
  7  6  2  0
  8  7  1  0
  9  4  1  0
  9  8  2  0
 10  2  1  0
 10 12  1  0
 11 10  2  0
 13 12  1  0
 13 14  1  0
 14 15  2  0
 16 14  1  0
 16 17  1  0
 17 18  1  1
 19 18  1  0
 20 19  2  0
 21 22  1  0
 21 20  1  0
 22 27  2  0
 23 24  2  0
 23 22  1  0
 24 25  1  0
 25 26  2  0
 27 19  1  0
 27 26  1  0
 28 17  1  0
 28 29  1  0
 30 28  2  0
M  END
$$$$
