FGW.pdb
     RDKit          3D

 30 32  0  0  1  0  0  0  0  0999 V2000
   23.9023  -20.8662  -11.8549 N   0  0  0  0  0  0  0  0  0  0  0  0
   25.0580  -20.0179  -11.9775 C   0  0  1  0  0  0  0  0  0  0  0  0
   26.2472  -20.4789  -11.2201 C   0  0  0  0  0  0  0  0  0  0  0  0
   26.2029  -20.3095   -9.7728 C   0  0  0  0  0  0  0  0  0  0  0  0
   26.7841  -19.1327   -9.2702 C   0  0  0  0  0  0  0  0  0  0  0  0
   26.7918  -18.8870   -7.9346 C   0  0  0  0  0  0  0  0  0  0  0  0
   26.2344  -19.7736   -7.0203 C   0  0  0  0  0  0  0  0  0  0  0  0
   25.6615  -20.9376   -7.5377 C   0  0  0  0  0  0  0  0  0  0  0  0
   25.6456  -21.2003   -8.8836 C   0  0  0  0  0  0  0  0  0  0  0  0
   25.3794  -19.6538  -13.3726 C   0  0  0  0  0  0  0  0  0  0  0  0
   24.9049  -20.3525  -14.2977 O   0  0  0  0  0  0  0  0  0  0  0  0
   26.2064  -18.5372  -13.6281 N   0  0  0  0  0  0  0  0  0  0  0  0
   26.4394  -18.0356  -14.9797 C   0  0  0  0  0  0  0  0  0  0  0  0
   27.4347  -18.8936  -15.6927 C   0  0  0  0  0  0  0  0  0  0  0  0
   27.8478  -18.5490  -16.8149 O   0  0  0  0  0  0  0  0  0  0  0  0
   27.8995  -20.0822  -15.0951 N   0  0  0  0  0  0  0  0  0  0  0  0
   28.8704  -20.9768  -15.6114 C   0  0  1  0  0  0  0  0  0  0  0  0
   29.4528  -21.9668  -14.6710 C   0  0  0  0  0  0  0  0  0  0  0  0
   29.7467  -21.4456  -13.3272 C   0  0  0  0  0  0  0  0  0  0  0  0
   29.1179  -20.4282  -12.6788 C   0  0  0  0  0  0  0  0  0  0  0  0
   29.6674  -20.2416  -11.4577 N   0  0  0  0  0  0  0  0  0  0  0  0
   30.6612  -21.1530  -11.3247 C   0  0  0  0  0  0  0  0  0  0  0  0
   31.5322  -21.3835  -10.2627 C   0  0  0  0  0  0  0  0  0  0  0  0
   32.4652  -22.3902  -10.3882 C   0  0  0  0  0  0  0  0  0  0  0  0
   32.5445  -23.1570  -11.5313 C   0  0  0  0  0  0  0  0  0  0  0  0
   31.6812  -22.9179  -12.5660 C   0  0  0  0  0  0  0  0  0  0  0  0
   30.7374  -21.9138  -12.4628 C   0  0  0  0  0  0  0  0  0  0  0  0
   28.3383  -21.7083  -16.8085 C   0  0  0  0  0  0  0  0  0  0  0  0
   26.9870  -21.5155  -17.1190 O   0  0  0  0  0  0  0  0  0  0  0  0
   28.9992  -22.4622  -17.5364 O   0  0  0  0  0  0  0  0  0  0  0  0
  2  1  1  6
  2  3  1  0
  3  4  1  0
  4  5  2  0
  5  6  1  0
  7  6  2  0
  8  7  1  0
  9  4  1  0
  9  8  2  0
 10  2  1  0
 10 12  1  0
 11 10  2  0
 13 12  1  0
 13 14  1  0
 14 15  2  0
 16 14  1  0
 16 17  1  0
 17 18  1  1
 19 18  1  0
 20 19  2  0
 21 22  1  0
 21 20  1  0
 22 27  2  0
 23 24  2  0
 23 22  1  0
 24 25  1  0
 25 26  2  0
 27 19  1  0
 27 26  1  0
 28 17  1  0
 28 29  1  0
 30 28  2  0
M  END
$$$$
