FGW.pdb
     RDKit          3D

 30 32  0  0  1  0  0  0  0  0999 V2000
   27.1253  -19.8318  -16.0821 N   0  0  0  0  0  0  0  0  0  0  0  0
   27.1740  -19.3792  -14.7172 C   0  0  1  0  0  0  0  0  0  0  0  0
   27.2240  -17.9056  -14.5551 C   0  0  0  0  0  0  0  0  0  0  0  0
   28.1785  -17.1906  -15.3936 C   0  0  0  0  0  0  0  0  0  0  0  0
   27.7058  -16.0173  -16.0058 C   0  0  0  0  0  0  0  0  0  0  0  0
   28.5217  -15.2836  -16.8060 C   0  0  0  0  0  0  0  0  0  0  0  0
   29.8390  -15.6544  -17.0511 C   0  0  0  0  0  0  0  0  0  0  0  0
   30.2916  -16.8230  -16.4345 C   0  0  0  0  0  0  0  0  0  0  0  0
   29.4801  -17.5748  -15.6238 C   0  0  0  0  0  0  0  0  0  0  0  0
   26.1615  -20.0121  -13.8475 C   0  0  0  0  0  0  0  0  0  0  0  0
   24.9847  -20.1026  -14.2673 O   0  0  0  0  0  0  0  0  0  0  0  0
   26.5403  -20.4954  -12.5751 N   0  0  0  0  0  0  0  0  0  0  0  0
   25.6153  -21.2285  -11.7151 C   0  0  0  0  0  0  0  0  0  0  0  0
   26.1409  -21.2956  -10.3171 C   0  0  0  0  0  0  0  0  0  0  0  0
   27.2446  -21.8290  -10.1027 O   0  0  0  0  0  0  0  0  0  0  0  0
   25.3897  -20.7574   -9.2532 N   0  0  0  0  0  0  0  0  0  0  0  0
   25.2386  -21.2994   -7.9521 C   0  0  1  0  0  0  0  0  0  0  0  0
   25.4619  -20.3859   -6.8035 C   0  0  0  0  0  0  0  0  0  0  0  0
   26.8057  -19.7911   -6.7379 C   0  0  0  0  0  0  0  0  0  0  0  0
   27.3565  -18.8947   -7.6004 C   0  0  0  0  0  0  0  0  0  0  0  0
   28.6106  -18.5776   -7.2074 N   0  0  0  0  0  0  0  0  0  0  0  0
   28.8640  -19.2817   -6.0777 C   0  0  0  0  0  0  0  0  0  0  0  0
   30.0036  -19.3169   -5.2779 C   0  0  0  0  0  0  0  0  0  0  0  0
   29.9983  -20.1320   -4.1666 C   0  0  0  0  0  0  0  0  0  0  0  0
   28.8985  -20.8984   -3.8438 C   0  0  0  0  0  0  0  0  0  0  0  0
   27.7863  -20.8526   -4.6400 C   0  0  0  0  0  0  0  0  0  0  0  0
   27.7687  -20.0426   -5.7595 C   0  0  0  0  0  0  0  0  0  0  0  0
   23.8931  -21.9450   -7.7964 C   0  0  0  0  0  0  0  0  0  0  0  0
   23.6976  -22.7338   -6.6566 O   0  0  0  0  0  0  0  0  0  0  0  0
   22.9508  -21.8326   -8.5930 O   0  0  0  0  0  0  0  0  0  0  0  0
  2  1  1  6
  2  3  1  0
  3  4  1  0
  4  5  2  0
  5  6  1  0
  7  6  2  0
  8  7  1  0
  9  4  1  0
  9  8  2  0
 10  2  1  0
 10 12  1  0
 11 10  2  0
 13 12  1  0
 13 14  1  0
 14 15  2  0
 16 14  1  0
 16 17  1  0
 17 18  1  1
 19 18  1  0
 20 19  2  0
 21 22  1  0
 21 20  1  0
 22 27  2  0
 23 24  2  0
 23 22  1  0
 24 25  1  0
 25 26  2  0
 27 19  1  0
 27 26  1  0
 28 17  1  0
 28 29  1  0
 30 28  2  0
M  END
$$$$
