FGW.pdb
     RDKit          3D

 30 32  0  0  1  0  0  0  0  0999 V2000
   25.7950  -19.8791  -17.0464 N   0  0  0  0  0  0  0  0  0  0  0  0
   26.6706  -20.8143  -16.3915 C   0  0  1  0  0  0  0  0  0  0  0  0
   27.8688  -21.1958  -17.1784 C   0  0  0  0  0  0  0  0  0  0  0  0
   27.6298  -21.6955  -18.5269 C   0  0  0  0  0  0  0  0  0  0  0  0
   28.2177  -20.9615  -19.5713 C   0  0  0  0  0  0  0  0  0  0  0  0
   28.0504  -21.3492  -20.8619 C   0  0  0  0  0  0  0  0  0  0  0  0
   27.3027  -22.4708  -21.2020 C   0  0  0  0  0  0  0  0  0  0  0  0
   26.7259  -23.1880  -20.1514 C   0  0  0  0  0  0  0  0  0  0  0  0
   26.8855  -22.8094  -18.8429 C   0  0  0  0  0  0  0  0  0  0  0  0
   26.9997  -20.4422  -15.0003 C   0  0  0  0  0  0  0  0  0  0  0  0
   27.7740  -21.1820  -14.3505 O   0  0  0  0  0  0  0  0  0  0  0  0
   26.4389  -19.2723  -14.4409 N   0  0  0  0  0  0  0  0  0  0  0  0
   26.7735  -18.8172  -13.0943 C   0  0  0  0  0  0  0  0  0  0  0  0
   26.1725  -19.7253  -12.0698 C   0  0  0  0  0  0  0  0  0  0  0  0
   24.9960  -20.1075  -12.2049 O   0  0  0  0  0  0  0  0  0  0  0  0
   26.9359  -20.1433  -10.9614 N   0  0  0  0  0  0  0  0  0  0  0  0
   26.5070  -20.9621   -9.8867 C   0  0  1  0  0  0  0  0  0  0  0  0
   27.4874  -21.2373   -8.8066 C   0  0  0  0  0  0  0  0  0  0  0  0
   27.1201  -20.7027   -7.4863 C   0  0  0  0  0  0  0  0  0  0  0  0
   25.8864  -20.6898   -6.9131 C   0  0  0  0  0  0  0  0  0  0  0  0
   25.9452  -20.1176   -5.6897 N   0  0  0  0  0  0  0  0  0  0  0  0
   27.2351  -19.7601   -5.4788 C   0  0  0  0  0  0  0  0  0  0  0  0
   27.8270  -19.1384   -4.3821 C   0  0  0  0  0  0  0  0  0  0  0  0
   29.1810  -18.8847   -4.4256 C   0  0  0  0  0  0  0  0  0  0  0  0
   29.9416  -19.2327   -5.5216 C   0  0  0  0  0  0  0  0  0  0  0  0
   29.3449  -19.8430   -6.5914 C   0  0  0  0  0  0  0  0  0  0  0  0
   27.9887  -20.1075   -6.5703 C   0  0  0  0  0  0  0  0  0  0  0  0
   25.2533  -20.4169   -9.2684 C   0  0  0  0  0  0  0  0  0  0  0  0
   25.1166  -19.0241   -9.2376 O   0  0  0  0  0  0  0  0  0  0  0  0
   24.3382  -21.1006   -8.7885 O   0  0  0  0  0  0  0  0  0  0  0  0
  2  1  1  6
  2  3  1  0
  3  4  1  0
  4  5  2  0
  5  6  1  0
  7  6  2  0
  8  7  1  0
  9  4  1  0
  9  8  2  0
 10  2  1  0
 10 12  1  0
 11 10  2  0
 13 12  1  0
 13 14  1  0
 14 15  2  0
 16 14  1  0
 16 17  1  0
 17 18  1  1
 19 18  1  0
 20 19  2  0
 21 22  1  0
 21 20  1  0
 22 27  2  0
 23 24  2  0
 23 22  1  0
 24 25  1  0
 25 26  2  0
 27 19  1  0
 27 26  1  0
 28 17  1  0
 28 29  1  0
 30 28  2  0
M  END
$$$$
