MRI.pdb
     RDKit          3D

 28 27  0  0  1  0  0  0  0  0999 V2000
   15.4211  -22.8938   -9.2999 C   0  0  0  0  0  0  0  0  0  0  0  0
   17.0687  -22.5877   -9.9469 S   0  0  0  0  0  0  0  0  0  0  0  0
   17.3484  -20.9735  -10.6042 C   0  0  0  0  0  0  0  0  0  0  0  0
   18.6552  -20.7010  -11.2136 C   0  0  0  0  0  0  0  0  0  0  0  0
   18.8904  -20.8927  -12.6505 C   0  0  2  0  0  0  0  0  0  0  0  0
   18.4869  -22.1414  -13.1898 N   0  0  0  0  0  0  0  0  0  0  0  0
   20.3281  -20.5720  -12.9913 C   0  0  0  0  0  0  0  0  0  0  0  0
   20.7767  -19.4644  -12.5828 O   0  0  0  0  0  0  0  0  0  0  0  0
   26.9172  -25.5178  -16.4233 N   0  0  0  0  0  0  0  0  0  0  0  0
   27.4811  -24.2107  -16.2101 C   0  0  0  0  0  0  0  0  0  0  0  0
   28.7012  -23.9884  -16.5568 N   0  0  0  0  0  0  0  0  0  0  0  0
   26.7351  -23.1625  -15.6309 N   0  0  0  0  0  0  0  0  0  0  0  0
   25.3259  -23.3529  -15.2666 C   0  0  0  0  0  0  0  0  0  0  0  0
   24.7385  -22.0179  -14.8041 C   0  0  0  0  0  0  0  0  0  0  0  0
   23.3201  -22.2722  -14.4516 C   0  0  0  0  0  0  0  0  0  0  0  0
   22.5423  -21.0541  -14.0312 C   0  0  2  0  0  0  0  0  0  0  0  0
   21.1602  -21.4223  -13.7184 N   0  0  0  0  0  0  0  0  0  0  0  0
   22.5454  -20.0981  -15.1875 C   0  0  0  0  0  0  0  0  0  0  0  0
   21.8311  -20.2895  -16.2005 O   0  0  0  0  0  0  0  0  0  0  0  0
   29.1013  -23.0412  -16.5297 C   0  0  0  0  0  0  0  0  0  0  0  0
   22.0112  -15.0042  -14.2865 C   0  0  0  0  0  0  0  0  0  0  0  0
   22.0433  -16.3139  -14.9924 C   0  0  2  0  0  0  0  0  0  0  0  0
   23.3346  -16.5458  -15.7601 C   0  0  0  0  0  0  0  0  0  0  0  0
   23.4863  -15.4903  -16.7891 C   0  0  2  0  0  0  0  0  0  0  0  0
   23.4338  -17.9396  -16.2205 N   0  0  0  0  0  0  0  0  0  0  0  0
   23.3670  -18.9294  -15.1756 C   0  0  0  0  0  0  0  0  0  0  0  0
   24.4929  -18.2255  -17.2114 O   0  0  0  0  0  0  0  0  0  0  0  0
   25.6235  -18.5379  -16.7759 O   0  0  0  0  0  0  0  0  0  0  0  0
  2  1  1  0
  3  2  1  0
  4  3  1  0
  4  5  1  0
  5  6  1  1
  7  8  2  0
  7  5  1  0
  9 10  1  0
 10 12  1  0
 11 10  2  0
 12 13  1  0
 13 14  1  0
 14 15  1  0
 16 15  1  6
 16 17  1  0
 17  7  1  0
 18 25  1  0
 18 16  1  0
 19 18  2  0
 20 21  1  0
 21 22  1  0
 22 24  1  0
 22 23  1  1
 24 25  1  6
 24 26  1  0
 26 28  1  0
 27 26  2  0
M  END
$$$$
