MRI.pdb
     RDKit          3D

 28 27  0  0  1  0  0  0  0  0999 V2000
   25.5468  -27.2985  -15.5722 C   0  0  0  0  0  0  0  0  0  0  0  0
   26.6143  -27.3662  -17.0153 S   0  0  0  0  0  0  0  0  0  0  0  0
   27.3612  -25.8391  -17.4909 C   0  0  0  0  0  0  0  0  0  0  0  0
   26.9229  -24.6203  -16.8014 C   0  0  0  0  0  0  0  0  0  0  0  0
   27.4720  -23.3017  -17.1432 C   0  0  2  0  0  0  0  0  0  0  0  0
   28.8586  -23.1198  -16.9038 N   0  0  0  0  0  0  0  0  0  0  0  0
   26.6438  -22.2099  -16.5046 C   0  0  0  0  0  0  0  0  0  0  0  0
   27.2034  -21.5234  -15.6044 O   0  0  0  0  0  0  0  0  0  0  0  0
   22.4804  -16.3790  -16.9498 N   0  0  0  0  0  0  0  0  0  0  0  0
   21.1013  -16.7310  -16.7357 C   0  0  0  0  0  0  0  0  0  0  0  0
   20.3001  -15.8565  -16.2341 N   0  0  0  0  0  0  0  0  0  0  0  0
   20.5992  -18.0091  -17.0597 N   0  0  0  0  0  0  0  0  0  0  0  0
   21.4878  -19.0603  -17.5698 C   0  0  0  0  0  0  0  0  0  0  0  0
   22.5505  -19.3792  -16.5162 C   0  0  0  0  0  0  0  0  0  0  0  0
   23.4451  -20.4052  -17.1059 C   0  0  0  0  0  0  0  0  0  0  0  0
   24.5733  -20.8515  -16.2149 C   0  0  2  0  0  0  0  0  0  0  0  0
   25.3229  -21.9337  -16.8555 N   0  0  0  0  0  0  0  0  0  0  0  0
   23.9652  -21.3626  -14.9422 C   0  0  0  0  0  0  0  0  0  0  0  0
   23.3530  -22.4564  -14.8992 O   0  0  0  0  0  0  0  0  0  0  0  0
   19.3028  -16.0639  -16.0911 C   0  0  0  0  0  0  0  0  0  0  0  0
   26.5888  -20.5920  -10.2922 C   0  0  0  0  0  0  0  0  0  0  0  0
   25.6889  -21.1639  -11.3303 C   0  0  2  0  0  0  0  0  0  0  0  0
   24.2828  -20.5884  -11.2830 C   0  0  0  0  0  0  0  0  0  0  0  0
   23.6880  -20.8631   -9.9539 C   0  0  2  0  0  0  0  0  0  0  0  0
   23.5009  -21.0038  -12.4580 N   0  0  0  0  0  0  0  0  0  0  0  0
   24.0622  -20.6170  -13.7274 C   0  0  0  0  0  0  0  0  0  0  0  0
   22.0423  -20.7754  -12.3849 O   0  0  0  0  0  0  0  0  0  0  0  0
   21.3604  -21.5951  -11.7303 O   0  0  0  0  0  0  0  0  0  0  0  0
  2  1  1  0
  3  2  1  0
  4  3  1  0
  4  5  1  0
  5  6  1  1
  7  8  2  0
  7  5  1  0
  9 10  1  0
 10 12  1  0
 11 10  2  0
 12 13  1  0
 13 14  1  0
 14 15  1  0
 16 15  1  6
 16 17  1  0
 17  7  1  0
 18 25  1  0
 18 16  1  0
 19 18  2  0
 20 21  1  0
 21 22  1  0
 22 24  1  0
 22 23  1  6
 24 25  1  6
 24 26  1  0
 26 28  1  0
 27 26  2  0
M  END
$$$$
