MRI.pdb
     RDKit          3D

 28 27  0  0  1  0  0  0  0  0999 V2000
   22.5797  -27.2123  -16.0882 C   0  0  0  0  0  0  0  0  0  0  0  0
   23.4495  -27.2790  -17.6585 S   0  0  0  0  0  0  0  0  0  0  0  0
   24.4713  -25.8885  -18.0305 C   0  0  0  0  0  0  0  0  0  0  0  0
   25.0573  -25.1508  -16.9055 C   0  0  0  0  0  0  0  0  0  0  0  0
   26.4747  -24.7663  -16.8908 C   0  0  2  0  0  0  0  0  0  0  0  0
   27.4114  -25.8304  -16.8342 N   0  0  0  0  0  0  0  0  0  0  0  0
   26.7255  -23.7390  -15.8103 C   0  0  0  0  0  0  0  0  0  0  0  0
   27.5218  -24.0670  -14.8865 O   0  0  0  0  0  0  0  0  0  0  0  0
   26.9297  -18.0325  -19.6698 N   0  0  0  0  0  0  0  0  0  0  0  0
   28.2847  -17.9933  -19.1861 C   0  0  0  0  0  0  0  0  0  0  0  0
   29.2389  -17.7313  -20.0102 N   0  0  0  0  0  0  0  0  0  0  0  0
   28.6001  -18.2339  -17.8321 N   0  0  0  0  0  0  0  0  0  0  0  0
   27.5421  -18.4779  -16.8441 C   0  0  0  0  0  0  0  0  0  0  0  0
   27.6928  -19.8925  -16.2809 C   0  0  0  0  0  0  0  0  0  0  0  0
   26.5448  -20.1155  -15.3682 C   0  0  0  0  0  0  0  0  0  0  0  0
   26.4743  -21.4912  -14.7613 C   0  0  2  0  0  0  0  0  0  0  0  0
   26.1321  -22.4775  -15.7877 N   0  0  0  0  0  0  0  0  0  0  0  0
   25.3922  -21.4689  -13.7224 C   0  0  0  0  0  0  0  0  0  0  0  0
   24.2325  -21.8761  -13.9724 O   0  0  0  0  0  0  0  0  0  0  0  0
   30.2218  -17.7248  -19.7067 C   0  0  0  0  0  0  0  0  0  0  0  0
   27.1849  -20.4788   -8.5554 C   0  0  0  0  0  0  0  0  0  0  0  0
   26.4491  -21.1083   -9.6854 C   0  0  2  0  0  0  0  0  0  0  0  0
   25.1927  -20.3474  -10.0763 C   0  0  0  0  0  0  0  0  0  0  0  0
   24.2538  -20.3347   -8.9299 C   0  0  2  0  0  0  0  0  0  0  0  0
   24.6623  -20.8261  -11.3624 N   0  0  0  0  0  0  0  0  0  0  0  0
   25.6456  -20.9798  -12.4042 C   0  0  0  0  0  0  0  0  0  0  0  0
   23.4221  -20.1778  -11.8385 O   0  0  0  0  0  0  0  0  0  0  0  0
   23.5395  -19.1394  -12.5265 O   0  0  0  0  0  0  0  0  0  0  0  0
  2  1  1  0
  3  2  1  0
  4  3  1  0
  4  5  1  0
  5  6  1  1
  7  8  2  0
  7  5  1  0
  9 10  1  0
 10 12  1  0
 11 10  2  0
 12 13  1  0
 13 14  1  0
 14 15  1  0
 16 15  1  6
 16 17  1  0
 17  7  1  0
 18 25  1  0
 18 16  1  0
 19 18  2  0
 20 21  1  0
 21 22  1  0
 22 24  1  0
 22 23  1  6
 24 25  1  1
 24 26  1  0
 26 28  1  0
 27 26  2  0
M  END
$$$$
