MRI.pdb
     RDKit          3D

 28 27  0  0  1  0  0  0  0  0999 V2000
   27.9749  -17.6628   -7.1056 C   0  0  0  0  0  0  0  0  0  0  0  0
   27.0746  -19.0348   -6.3752 S   0  0  0  0  0  0  0  0  0  0  0  0
   27.0236  -20.5170   -7.3325 C   0  0  0  0  0  0  0  0  0  0  0  0
   26.8416  -20.3877   -8.7828 C   0  0  0  0  0  0  0  0  0  0  0  0
   26.8088  -21.5628   -9.6631 C   0  0  2  0  0  0  0  0  0  0  0  0
   28.0223  -22.2877   -9.7852 N   0  0  0  0  0  0  0  0  0  0  0  0
   26.2402  -21.1880  -11.0130 C   0  0  0  0  0  0  0  0  0  0  0  0
   27.0564  -21.1133  -11.9738 O   0  0  0  0  0  0  0  0  0  0  0  0
   20.7559  -23.2380  -15.1649 N   0  0  0  0  0  0  0  0  0  0  0  0
   19.9661  -23.0609  -13.9747 C   0  0  0  0  0  0  0  0  0  0  0  0
   19.0321  -23.9066  -13.7086 N   0  0  0  0  0  0  0  0  0  0  0  0
   20.1849  -21.9854  -13.0880 N   0  0  0  0  0  0  0  0  0  0  0  0
   20.6544  -20.6853  -13.5822 C   0  0  0  0  0  0  0  0  0  0  0  0
   22.1577  -20.7615  -13.8563 C   0  0  0  0  0  0  0  0  0  0  0  0
   22.8327  -20.8101  -12.5362 C   0  0  0  0  0  0  0  0  0  0  0  0
   24.3343  -20.8967  -12.5938 C   0  0  2  0  0  0  0  0  0  0  0  0
   24.8893  -20.9272  -11.2394 N   0  0  0  0  0  0  0  0  0  0  0  0
   24.8283  -19.6679  -13.2986 C   0  0  0  0  0  0  0  0  0  0  0  0
   24.9006  -18.5599  -12.7154 O   0  0  0  0  0  0  0  0  0  0  0  0
   18.4407  -23.8057  -12.8730 C   0  0  0  0  0  0  0  0  0  0  0  0
   28.7449  -16.9051  -16.0819 C   0  0  0  0  0  0  0  0  0  0  0  0
   27.6120  -17.6179  -16.7323 C   0  0  2  0  0  0  0  0  0  0  0  0
   27.1347  -18.8252  -15.9416 C   0  0  0  0  0  0  0  0  0  0  0  0
   27.3612  -20.0522  -16.7412 C   0  0  2  0  0  0  0  0  0  0  0  0
   25.7745  -18.6140  -15.4222 N   0  0  0  0  0  0  0  0  0  0  0  0
   25.2359  -19.7165  -14.6671 C   0  0  0  0  0  0  0  0  0  0  0  0
   24.7966  -18.0385  -16.3696 O   0  0  0  0  0  0  0  0  0  0  0  0
   23.8725  -18.7812  -16.7695 O   0  0  0  0  0  0  0  0  0  0  0  0
  2  1  1  0
  3  2  1  0
  4  3  1  0
  4  5  1  0
  5  6  1  6
  7  8  2  0
  7  5  1  0
  9 10  1  0
 10 12  1  0
 11 10  2  0
 12 13  1  0
 13 14  1  0
 14 15  1  0
 16 15  1  1
 16 17  1  0
 17  7  1  0
 18 25  1  0
 18 16  1  0
 19 18  2  0
 20 21  1  0
 21 22  1  0
 22 24  1  0
 22 23  1  1
 24 25  1  6
 24 26  1  0
 26 28  1  0
 27 26  2  0
M  END
$$$$
