MRI.pdb
     RDKit          3D

 28 27  0  0  1  0  0  0  0  0999 V2000
   26.9856  -15.4321  -15.1107 C   0  0  0  0  0  0  0  0  0  0  0  0
   27.2815  -15.4844  -16.8817 S   0  0  0  0  0  0  0  0  0  0  0  0
   27.5755  -17.0854  -17.5646 C   0  0  0  0  0  0  0  0  0  0  0  0
   26.8390  -18.2182  -16.9922 C   0  0  0  0  0  0  0  0  0  0  0  0
   27.5320  -19.4031  -16.4699 C   0  0  2  0  0  0  0  0  0  0  0  0
   28.3131  -20.1333  -17.4024 N   0  0  0  0  0  0  0  0  0  0  0  0
   26.5583  -20.2945  -15.7329 C   0  0  0  0  0  0  0  0  0  0  0  0
   25.8427  -21.0609  -16.4369 O   0  0  0  0  0  0  0  0  0  0  0  0
   26.3936  -19.8298   -7.7601 N   0  0  0  0  0  0  0  0  0  0  0  0
   25.5352  -20.8157   -8.3625 C   0  0  0  0  0  0  0  0  0  0  0  0
   24.4028  -21.0841   -7.8112 N   0  0  0  0  0  0  0  0  0  0  0  0
   25.8980  -21.4989   -9.5424 N   0  0  0  0  0  0  0  0  0  0  0  0
   27.1099  -21.1300  -10.2840 C   0  0  0  0  0  0  0  0  0  0  0  0
   26.7131  -20.5218  -11.6308 C   0  0  0  0  0  0  0  0  0  0  0  0
   25.8443  -21.5138  -12.3103 C   0  0  0  0  0  0  0  0  0  0  0  0
   25.3907  -21.1203  -13.6906 C   0  0  2  0  0  0  0  0  0  0  0  0
   26.4178  -20.3083  -14.3457 N   0  0  0  0  0  0  0  0  0  0  0  0
   24.1427  -20.3020  -13.5369 C   0  0  0  0  0  0  0  0  0  0  0  0
   24.1825  -19.1078  -13.1557 O   0  0  0  0  0  0  0  0  0  0  0  0
   23.7828  -21.8129   -8.1889 C   0  0  0  0  0  0  0  0  0  0  0  0
   19.5851  -18.2133  -16.4389 C   0  0  0  0  0  0  0  0  0  0  0  0
   19.9552  -18.8158  -15.1294 C   0  0  2  0  0  0  0  0  0  0  0  0
   21.2087  -19.6725  -15.2003 C   0  0  0  0  0  0  0  0  0  0  0  0
   21.0257  -20.7200  -16.2324 C   0  0  2  0  0  0  0  0  0  0  0  0
   21.6170  -20.1253  -13.8613 N   0  0  0  0  0  0  0  0  0  0  0  0
   22.8573  -20.8573  -13.8209 C   0  0  0  0  0  0  0  0  0  0  0  0
   20.5613  -20.7438  -13.0318 O   0  0  0  0  0  0  0  0  0  0  0  0
   20.5475  -21.9921  -12.9492 O   0  0  0  0  0  0  0  0  0  0  0  0
  2  1  1  0
  3  2  1  0
  4  3  1  0
  4  5  1  0
  5  6  1  6
  7  8  2  0
  7  5  1  0
  9 10  1  0
 10 12  1  0
 11 10  2  0
 12 13  1  0
 13 14  1  0
 14 15  1  0
 16 15  1  1
 16 17  1  0
 17  7  1  0
 18 25  1  0
 18 16  1  0
 19 18  2  0
 20 21  1  0
 21 22  1  0
 22 24  1  0
 22 23  1  6
 24 25  1  1
 24 26  1  0
 26 28  1  0
 27 26  2  0
M  END
$$$$
