MRI.pdb
     RDKit          3D

 28 27  0  0  1  0  0  0  0  0999 V2000
   12.9920  -21.8788    6.1851 C   0  0  0  0  0  0  0  0  0  0  0  0
   12.8631  -22.1812    4.4191 S   0  0  0  0  0  0  0  0  0  0  0  0
   13.5709  -20.9467    3.3745 C   0  0  0  0  0  0  0  0  0  0  0  0
   14.9344  -20.4962    3.6763 C   0  0  0  0  0  0  0  0  0  0  0  0
   15.6027  -19.4678    2.8684 C   0  0  2  0  0  0  0  0  0  0  0  0
   15.8594  -19.8043    1.5142 N   0  0  0  0  0  0  0  0  0  0  0  0
   16.8489  -18.9798    3.5718 C   0  0  0  0  0  0  0  0  0  0  0  0
   17.9561  -19.2902    3.0495 O   0  0  0  0  0  0  0  0  0  0  0  0
   18.3220  -11.2616    7.3834 N   0  0  0  0  0  0  0  0  0  0  0  0
   19.5894  -11.9439    7.3806 C   0  0  0  0  0  0  0  0  0  0  0  0
   20.6620  -11.2783    7.6352 N   0  0  0  0  0  0  0  0  0  0  0  0
   19.6923  -13.3242    7.1068 N   0  0  0  0  0  0  0  0  0  0  0  0
   18.5807  -14.0535    6.4845 C   0  0  0  0  0  0  0  0  0  0  0  0
   18.9807  -15.5180    6.2938 C   0  0  0  0  0  0  0  0  0  0  0  0
   17.8119  -16.2076    5.6946 C   0  0  0  0  0  0  0  0  0  0  0  0
   18.0566  -17.6369    5.2907 C   0  0  2  0  0  0  0  0  0  0  0  0
   16.8317  -18.2218    4.7420 N   0  0  0  0  0  0  0  0  0  0  0  0
   18.4498  -18.3917    6.5261 C   0  0  0  0  0  0  0  0  0  0  0  0
   17.6371  -18.5929    7.4601 O   0  0  0  0  0  0  0  0  0  0  0  0
   21.5815  -11.7380    7.6706 C   0  0  0  0  0  0  0  0  0  0  0  0
   20.2934  -23.0829    6.2864 C   0  0  0  0  0  0  0  0  0  0  0  0
   19.7570  -21.7764    6.7554 C   0  0  2  0  0  0  0  0  0  0  0  0
   20.7628  -20.9755    7.5661 C   0  0  0  0  0  0  0  0  0  0  0  0
   21.1934  -21.7757    8.7367 C   0  0  2  0  0  0  0  0  0  0  0  0
   20.2633  -19.6186    7.8381 N   0  0  0  0  0  0  0  0  0  0  0  0
   19.7714  -18.9109    6.6835 C   0  0  0  0  0  0  0  0  0  0  0  0
   21.1090  -18.7743    8.7082 O   0  0  0  0  0  0  0  0  0  0  0  0
   21.9145  -17.9950    8.1520 O   0  0  0  0  0  0  0  0  0  0  0  0
  2  1  1  0
  3  2  1  0
  4  3  1  0
  4  5  1  0
  5  6  1  6
  7  8  2  0
  7  5  1  0
  9 10  1  0
 10 12  1  0
 11 10  2  0
 12 13  1  0
 13 14  1  0
 14 15  1  0
 16 15  1  1
 16 17  1  0
 17  7  1  0
 18 25  1  0
 18 16  1  0
 19 18  2  0
 20 21  1  0
 21 22  1  0
 22 24  1  0
 22 23  1  6
 24 25  1  1
 24 26  1  0
 26 28  1  0
 27 26  2  0
M  END
$$$$
