MRI.pdb
     RDKit          3D

 28 27  0  0  1  0  0  0  0  0999 V2000
   23.7277  -17.8342  -19.6987 C   0  0  0  0  0  0  0  0  0  0  0  0
   25.1856  -16.7902  -19.5930 S   0  0  0  0  0  0  0  0  0  0  0  0
   26.2634  -17.1110  -18.2324 C   0  0  0  0  0  0  0  0  0  0  0  0
   26.0777  -18.3658  -17.4947 C   0  0  0  0  0  0  0  0  0  0  0  0
   27.0843  -19.4347  -17.5266 C   0  0  2  0  0  0  0  0  0  0  0  0
   27.0462  -20.2972  -18.6525 N   0  0  0  0  0  0  0  0  0  0  0  0
   27.0670  -20.2068  -16.2268 C   0  0  0  0  0  0  0  0  0  0  0  0
   26.2198  -21.1383  -16.1290 O   0  0  0  0  0  0  0  0  0  0  0  0
   32.8968  -22.1636  -11.1329 N   0  0  0  0  0  0  0  0  0  0  0  0
   32.0043  -22.2379  -10.0062 C   0  0  0  0  0  0  0  0  0  0  0  0
   32.4246  -22.7557   -8.9045 N   0  0  0  0  0  0  0  0  0  0  0  0
   30.6787  -21.7591  -10.0724 N   0  0  0  0  0  0  0  0  0  0  0  0
   30.3086  -20.6943  -11.0126 C   0  0  0  0  0  0  0  0  0  0  0  0
   28.9970  -21.0664  -11.7070 C   0  0  0  0  0  0  0  0  0  0  0  0
   29.0505  -20.4793  -13.0683 C   0  0  0  0  0  0  0  0  0  0  0  0
   27.8016  -20.6627  -13.8883 C   0  0  2  0  0  0  0  0  0  0  0  0
   27.9225  -19.9435  -15.1577 N   0  0  0  0  0  0  0  0  0  0  0  0
   26.6605  -20.0849  -13.1041 C   0  0  0  0  0  0  0  0  0  0  0  0
   26.5001  -18.8460  -12.9928 O   0  0  0  0  0  0  0  0  0  0  0  0
   31.8306  -22.7836   -8.0652 C   0  0  0  0  0  0  0  0  0  0  0  0
   20.8758  -19.8721  -12.2614 C   0  0  0  0  0  0  0  0  0  0  0  0
   22.1870  -19.9001  -11.5581 C   0  0  2  0  0  0  0  0  0  0  0  0
   23.2849  -20.5675  -12.3703 C   0  0  0  0  0  0  0  0  0  0  0  0
   22.8345  -21.9177  -12.7823 C   0  0  2  0  0  0  0  0  0  0  0  0
   24.5808  -20.4831  -11.6787 N   0  0  0  0  0  0  0  0  0  0  0  0
   25.7110  -20.9304  -12.4523 C   0  0  0  0  0  0  0  0  0  0  0  0
   24.6102  -20.9773  -10.2859 O   0  0  0  0  0  0  0  0  0  0  0  0
   23.8300  -20.4438   -9.4661 O   0  0  0  0  0  0  0  0  0  0  0  0
  2  1  1  0
  3  2  1  0
  4  3  1  0
  4  5  1  0
  5  6  1  6
  7  8  2  0
  7  5  1  0
  9 10  1  0
 10 12  1  0
 11 10  2  0
 12 13  1  0
 13 14  1  0
 14 15  1  0
 16 15  1  1
 16 17  1  0
 17  7  1  0
 18 25  1  0
 18 16  1  0
 19 18  2  0
 20 21  1  0
 21 22  1  0
 22 24  1  0
 22 23  1  6
 24 25  1  1
 24 26  1  0
 26 28  1  0
 27 26  2  0
M  END
$$$$
