MRI.pdb
     RDKit          3D

 28 27  0  0  1  0  0  0  0  0999 V2000
   27.8668  -14.2321  -14.2395 C   0  0  0  0  0  0  0  0  0  0  0  0
   27.4258  -13.7530  -15.9136 S   0  0  0  0  0  0  0  0  0  0  0  0
   26.2341  -14.7777  -16.7173 C   0  0  0  0  0  0  0  0  0  0  0  0
   25.5973  -15.8358  -15.9248 C   0  0  0  0  0  0  0  0  0  0  0  0
   25.7746  -17.2564  -16.2522 C   0  0  2  0  0  0  0  0  0  0  0  0
   25.4457  -17.6390  -17.5783 N   0  0  0  0  0  0  0  0  0  0  0  0
   25.0728  -18.1195  -15.2283 C   0  0  0  0  0  0  0  0  0  0  0  0
   23.8314  -18.2921  -15.3836 O   0  0  0  0  0  0  0  0  0  0  0  0
   22.2598  -24.2605  -14.4373 N   0  0  0  0  0  0  0  0  0  0  0  0
   23.4017  -25.1271  -14.3078 C   0  0  0  0  0  0  0  0  0  0  0  0
   23.2485  -26.2950  -13.7873 N   0  0  0  0  0  0  0  0  0  0  0  0
   24.6877  -24.7346  -14.7353 N   0  0  0  0  0  0  0  0  0  0  0  0
   24.9339  -23.3756  -15.2327 C   0  0  0  0  0  0  0  0  0  0  0  0
   24.7443  -22.3766  -14.0894 C   0  0  0  0  0  0  0  0  0  0  0  0
   25.2870  -21.0784  -14.5594 C   0  0  0  0  0  0  0  0  0  0  0  0
   25.2196  -19.9607  -13.5535 C   0  0  2  0  0  0  0  0  0  0  0  0
   25.7179  -18.7185  -14.1469 N   0  0  0  0  0  0  0  0  0  0  0  0
   26.1004  -20.3409  -12.4000 C   0  0  0  0  0  0  0  0  0  0  0  0
   27.2870  -19.9426  -12.3198 O   0  0  0  0  0  0  0  0  0  0  0  0
   24.0564  -26.8879  -13.5553 C   0  0  0  0  0  0  0  0  0  0  0  0
   27.5371  -17.6212   -9.6959 C   0  0  0  0  0  0  0  0  0  0  0  0
   27.2523  -18.9786  -10.2354 C   0  0  2  0  0  0  0  0  0  0  0  0
   26.1793  -19.7181   -9.4530 C   0  0  0  0  0  0  0  0  0  0  0  0
   26.4463  -19.5732   -8.0027 C   0  0  2  0  0  0  0  0  0  0  0  0
   26.0027  -21.0876   -9.9611 N   0  0  0  0  0  0  0  0  0  0  0  0
   25.6159  -21.1751  -11.3462 C   0  0  0  0  0  0  0  0  0  0  0  0
   25.2395  -22.0111   -9.0953 O   0  0  0  0  0  0  0  0  0  0  0  0
   24.0199  -22.1543   -9.3354 O   0  0  0  0  0  0  0  0  0  0  0  0
  2  1  1  0
  3  2  1  0
  4  3  1  0
  4  5  1  0
  5  6  1  6
  7  8  2  0
  7  5  1  0
  9 10  1  0
 10 12  1  0
 11 10  2  0
 12 13  1  0
 13 14  1  0
 14 15  1  0
 16 15  1  6
 16 17  1  0
 17  7  1  0
 18 25  1  0
 18 16  1  0
 19 18  2  0
 20 21  1  0
 21 22  1  0
 22 24  1  0
 22 23  1  6
 24 25  1  1
 24 26  1  0
 26 28  1  0
 27 26  2  0
M  END
$$$$
