MRI.pdb
     RDKit          3D

 28 27  0  0  1  0  0  0  0  0999 V2000
   28.6562  -22.6326   -9.8670 C   0  0  0  0  0  0  0  0  0  0  0  0
   29.8007  -21.4319  -10.5563 S   0  0  0  0  0  0  0  0  0  0  0  0
   29.0983  -20.2458  -11.6590 C   0  0  0  0  0  0  0  0  0  0  0  0
   29.2716  -20.4655  -13.0994 C   0  0  0  0  0  0  0  0  0  0  0  0
   28.2002  -21.0357  -13.9264 C   0  0  2  0  0  0  0  0  0  0  0  0
   28.4979  -21.2123  -15.3023 N   0  0  0  0  0  0  0  0  0  0  0  0
   26.9170  -20.2621  -13.7242 C   0  0  0  0  0  0  0  0  0  0  0  0
   27.0054  -19.0023  -13.7251 O   0  0  0  0  0  0  0  0  0  0  0  0
   21.0685  -20.6771  -17.9180 N   0  0  0  0  0  0  0  0  0  0  0  0
   21.0067  -19.2615  -18.1711 C   0  0  0  0  0  0  0  0  0  0  0  0
   19.9395  -18.7620  -18.6906 N   0  0  0  0  0  0  0  0  0  0  0  0
   22.0832  -18.4020  -17.8663 N   0  0  0  0  0  0  0  0  0  0  0  0
   23.3391  -18.9319  -17.3213 C   0  0  0  0  0  0  0  0  0  0  0  0
   23.1980  -19.1110  -15.8084 C   0  0  0  0  0  0  0  0  0  0  0  0
   24.3599  -19.9179  -15.3615 C   0  0  0  0  0  0  0  0  0  0  0  0
   24.4305  -20.1616  -13.8778 C   0  0  2  0  0  0  0  0  0  0  0  0
   25.6715  -20.8616  -13.5410 N   0  0  0  0  0  0  0  0  0  0  0  0
   23.2629  -21.0285  -13.5090 C   0  0  0  0  0  0  0  0  0  0  0  0
   23.3912  -22.2635  -13.3319 O   0  0  0  0  0  0  0  0  0  0  0  0
   19.8990  -17.7783  -18.9886 C   0  0  0  0  0  0  0  0  0  0  0  0
   21.1842  -21.2860   -8.5151 C   0  0  0  0  0  0  0  0  0  0  0  0
   20.6695  -21.3622   -9.9094 C   0  0  2  0  0  0  0  0  0  0  0  0
   21.6296  -20.7767  -10.9321 C   0  0  0  0  0  0  0  0  0  0  0  0
   22.1370  -19.4759  -10.4358 C   0  0  2  0  0  0  0  0  0  0  0  0
   21.0390  -20.7874  -12.2796 N   0  0  0  0  0  0  0  0  0  0  0  0
   21.9560  -20.4747  -13.3460 C   0  0  0  0  0  0  0  0  0  0  0  0
   19.7370  -20.1031  -12.4267 O   0  0  0  0  0  0  0  0  0  0  0  0
   19.7464  -18.9280  -12.8562 O   0  0  0  0  0  0  0  0  0  0  0  0
  2  1  1  0
  3  2  1  0
  4  3  1  0
  4  5  1  0
  5  6  1  6
  7  8  2  0
  7  5  1  0
  9 10  1  0
 10 12  1  0
 11 10  2  0
 12 13  1  0
 13 14  1  0
 14 15  1  0
 16 15  1  6
 16 17  1  0
 17  7  1  0
 18 25  1  0
 18 16  1  0
 19 18  2  0
 20 21  1  0
 21 22  1  0
 22 24  1  0
 22 23  1  6
 24 25  1  6
 24 26  1  0
 26 28  1  0
 27 26  2  0
M  END
$$$$
