MRI.pdb
     RDKit          3D

 28 27  0  0  1  0  0  0  0  0999 V2000
   31.3596  -18.4884  -13.9377 C   0  0  0  0  0  0  0  0  0  0  0  0
   30.9225  -17.6527  -15.4665 S   0  0  0  0  0  0  0  0  0  0  0  0
   29.4085  -18.1645  -16.2162 C   0  0  0  0  0  0  0  0  0  0  0  0
   28.2619  -18.4178  -15.3363 C   0  0  0  0  0  0  0  0  0  0  0  0
   26.9865  -18.9248  -15.8592 C   0  0  2  0  0  0  0  0  0  0  0  0
   26.3936  -18.1695  -16.9036 N   0  0  0  0  0  0  0  0  0  0  0  0
   26.0182  -19.1710  -14.7245 C   0  0  0  0  0  0  0  0  0  0  0  0
   25.3691  -18.1729  -14.3031 O   0  0  0  0  0  0  0  0  0  0  0  0
   19.4216  -22.4898  -11.8277 N   0  0  0  0  0  0  0  0  0  0  0  0
   19.6850  -22.3294  -13.2336 C   0  0  0  0  0  0  0  0  0  0  0  0
   18.7566  -21.8699  -13.9986 N   0  0  0  0  0  0  0  0  0  0  0  0
   20.9336  -22.6614  -13.8007 N   0  0  0  0  0  0  0  0  0  0  0  0
   22.0194  -23.1969  -12.9706 C   0  0  0  0  0  0  0  0  0  0  0  0
   22.8535  -22.0382  -12.4202 C   0  0  0  0  0  0  0  0  0  0  0  0
   23.8856  -21.7300  -13.4403 C   0  0  0  0  0  0  0  0  0  0  0  0
   24.8235  -20.6104  -13.0761 C   0  0  2  0  0  0  0  0  0  0  0  0
   25.8146  -20.4188  -14.1366 N   0  0  0  0  0  0  0  0  0  0  0  0
   25.5279  -21.0077  -11.8126 C   0  0  0  0  0  0  0  0  0  0  0  0
   26.2827  -22.0085  -11.7675 O   0  0  0  0  0  0  0  0  0  0  0  0
   18.8859  -21.8035  -15.0169 C   0  0  0  0  0  0  0  0  0  0  0  0
   28.4941  -18.4545   -8.2977 C   0  0  0  0  0  0  0  0  0  0  0  0
   27.7131  -19.4500   -9.0811 C   0  0  2  0  0  0  0  0  0  0  0  0
   26.3943  -19.8236   -8.4241 C   0  0  0  0  0  0  0  0  0  0  0  0
   26.6502  -20.2623   -7.0320 C   0  0  2  0  0  0  0  0  0  0  0  0
   25.6190  -20.7390   -9.2758 N   0  0  0  0  0  0  0  0  0  0  0  0
   25.3628  -20.2561  -10.6089 C   0  0  0  0  0  0  0  0  0  0  0  0
   24.4296  -21.3584   -8.6541 O   0  0  0  0  0  0  0  0  0  0  0  0
   23.3155  -20.8429   -8.8963 O   0  0  0  0  0  0  0  0  0  0  0  0
  2  1  1  0
  3  2  1  0
  4  3  1  0
  4  5  1  0
  5  6  1  6
  7  8  2  0
  7  5  1  0
  9 10  1  0
 10 12  1  0
 11 10  2  0
 12 13  1  0
 13 14  1  0
 14 15  1  0
 16 15  1  6
 16 17  1  0
 17  7  1  0
 18 25  1  0
 18 16  1  0
 19 18  2  0
 20 21  1  0
 21 22  1  0
 22 24  1  0
 22 23  1  6
 24 25  1  6
 24 26  1  0
 26 28  1  0
 27 26  2  0
M  END
$$$$
