MRI.pdb
     RDKit          3D

 28 27  0  0  1  0  0  0  0  0999 V2000
   15.6069  -20.6927  -13.1085 C   0  0  0  0  0  0  0  0  0  0  0  0
   15.6533  -20.8167  -14.8999 S   0  0  0  0  0  0  0  0  0  0  0  0
   17.2576  -20.9816  -15.6175 C   0  0  0  0  0  0  0  0  0  0  0  0
   18.4136  -20.9821  -14.7136 C   0  0  0  0  0  0  0  0  0  0  0  0
   19.6835  -20.3454  -15.0862 C   0  0  2  0  0  0  0  0  0  0  0  0
   19.8951  -20.1351  -16.4733 N   0  0  0  0  0  0  0  0  0  0  0  0
   20.8416  -21.0766  -14.4459 C   0  0  0  0  0  0  0  0  0  0  0  0
   20.8242  -21.1795  -13.1873 O   0  0  0  0  0  0  0  0  0  0  0  0
   23.6092  -27.9832  -15.5296 N   0  0  0  0  0  0  0  0  0  0  0  0
   23.0922  -27.4043  -16.7418 C   0  0  0  0  0  0  0  0  0  0  0  0
   22.1791  -28.0318  -17.3982 N   0  0  0  0  0  0  0  0  0  0  0  0
   23.5571  -26.1665  -17.2342 N   0  0  0  0  0  0  0  0  0  0  0  0
   24.4007  -25.2957  -16.4067 C   0  0  0  0  0  0  0  0  0  0  0  0
   23.5354  -24.6145  -15.3445 C   0  0  0  0  0  0  0  0  0  0  0  0
   23.7727  -23.1554  -15.4688 C   0  0  0  0  0  0  0  0  0  0  0  0
   23.0120  -22.3028  -14.4889 C   0  0  2  0  0  0  0  0  0  0  0  0
   21.9017  -21.6285  -15.1641 N   0  0  0  0  0  0  0  0  0  0  0  0
   23.9631  -21.2707  -13.9587 C   0  0  0  0  0  0  0  0  0  0  0  0
   23.9624  -20.0930  -14.3900 O   0  0  0  0  0  0  0  0  0  0  0  0
   21.7425  -27.6208  -18.2340 C   0  0  0  0  0  0  0  0  0  0  0  0
   25.0255  -20.5543   -8.7864 C   0  0  0  0  0  0  0  0  0  0  0  0
   24.8904  -20.4298  -10.2632 C   0  0  2  0  0  0  0  0  0  0  0  0
   26.1739  -20.7568  -11.0089 C   0  0  0  0  0  0  0  0  0  0  0  0
   27.2729  -19.9149  -10.4804 C   0  0  2  0  0  0  0  0  0  0  0  0
   25.9614  -20.7325  -12.4646 N   0  0  0  0  0  0  0  0  0  0  0  0
   24.9088  -21.5948  -12.9380 C   0  0  0  0  0  0  0  0  0  0  0  0
   27.1772  -20.8020  -13.3025 O   0  0  0  0  0  0  0  0  0  0  0  0
   27.5445  -21.9313  -13.6965 O   0  0  0  0  0  0  0  0  0  0  0  0
  2  1  1  0
  3  2  1  0
  4  3  1  0
  4  5  1  0
  5  6  1  6
  7  8  2  0
  7  5  1  0
  9 10  1  0
 10 12  1  0
 11 10  2  0
 12 13  1  0
 13 14  1  0
 14 15  1  0
 16 15  1  6
 16 17  1  0
 17  7  1  0
 18 25  1  0
 18 16  1  0
 19 18  2  0
 20 21  1  0
 21 22  1  0
 22 24  1  0
 22 23  1  6
 24 25  1  6
 24 26  1  0
 26 28  1  0
 27 26  2  0
M  END
$$$$
