QCH.pdb
     RDKit          3D

 26 26  0  0  1  0  0  0  0  0999 V2000
   28.3525  -16.8004  -16.4021 N   0  0  0  0  0  0  0  0  0  0  0  0
   27.3847  -17.6074  -17.0460 C   0  0  0  0  0  0  0  0  0  0  0  0
   26.7954  -17.1900  -18.0442 O   0  0  0  0  0  0  0  0  0  0  0  0
   27.1235  -18.9673  -16.4585 C   0  0  0  0  0  0  0  0  0  0  0  0
   27.8708  -19.1661  -15.1859 C   0  0  0  0  0  0  0  0  0  0  0  0
   27.8425  -20.6019  -14.7759 C   0  0  2  0  0  0  0  0  0  0  0  0
   27.8269  -21.4639  -15.9793 N   0  0  0  0  0  0  0  0  0  0  0  0
   26.7041  -20.9972  -13.9344 C   0  0  0  0  0  0  0  0  0  0  0  0
   25.7247  -21.6347  -14.3868 O   0  0  0  0  0  0  0  0  0  0  0  0
   26.6488  -20.6728  -12.5349 N   0  0  0  0  0  0  0  0  0  0  0  0
   25.4716  -21.0176  -11.7672 C   0  0  1  0  0  0  0  0  0  0  0  0
   25.6968  -20.6203  -10.3109 C   0  0  0  0  0  0  0  0  0  0  0  0
   27.3530  -21.2571   -9.8588 S   0  0  0  0  0  0  0  0  0  0  0  0
   24.2712  -20.2655  -12.2551 C   0  0  0  0  0  0  0  0  0  0  0  0
   24.4093  -19.0824  -12.6041 O   0  0  0  0  0  0  0  0  0  0  0  0
   22.9882  -20.8778  -12.3246 N   0  0  0  0  0  0  0  0  0  0  0  0
   21.8834  -20.2715  -13.0335 C   0  0  1  0  0  0  0  0  0  0  0  0
   22.2907  -20.1062  -14.4647 C   0  0  0  0  0  0  0  0  0  0  0  0
   21.2487  -19.5018  -15.3253 C   0  0  0  0  0  0  0  0  0  0  0  0
   20.8494  -18.1854  -15.2366 C   0  0  0  0  0  0  0  0  0  0  0  0
   19.8969  -18.0139  -16.1678 N   0  0  0  0  0  0  0  0  0  0  0  0
   19.6871  -19.1640  -16.8302 C   0  0  0  0  0  0  0  0  0  0  0  0
   20.5241  -20.0750  -16.3045 N   0  0  0  0  0  0  0  0  0  0  0  0
   20.6264  -21.0380  -12.8611 C   0  0  0  0  0  0  0  0  0  0  0  0
   19.5167  -20.5811  -13.2347 O   0  0  0  0  0  0  0  0  0  0  0  0
   20.5908  -22.3074  -12.2776 O   0  0  0  0  0  0  0  0  0  0  0  0
  1  2  1  0
  2  3  2  0
  4  2  1  0
  4  5  1  0
  6  5  1  0
  6  7  1  6
  8  9  2  0
  8  6  1  0
 10  8  1  0
 11 10  1  0
 11 12  1  1
 13 12  1  0
 14 11  1  0
 15 14  2  0
 16 14  1  0
 17 16  1  0
 17 18  1  6
 18 19  1  0
 19 23  1  0
 20 19  2  0
 20 21  1  0
 21 22  1  0
 23 22  2  0
 24 17  1  0
 25 24  2  0
 26 24  1  0
M  END
$$$$
