QCH.pdb
     RDKit          3D

 26 26  0  0  1  0  0  0  0  0999 V2000
   15.5586  -14.4974  -15.8769 N   0  0  0  0  0  0  0  0  0  0  0  0
   16.5060  -15.1810  -16.6753 C   0  0  0  0  0  0  0  0  0  0  0  0
   16.2338  -16.2842  -17.1512 O   0  0  0  0  0  0  0  0  0  0  0  0
   17.8289  -14.5024  -16.9038 C   0  0  0  0  0  0  0  0  0  0  0  0
   17.8871  -13.1763  -16.2288 C   0  0  0  0  0  0  0  0  0  0  0  0
   19.2262  -12.5437  -16.4225 C   0  0  2  0  0  0  0  0  0  0  0  0
   20.2886  -13.4908  -16.0152 N   0  0  0  0  0  0  0  0  0  0  0  0
   19.4460  -11.2903  -15.6872 C   0  0  0  0  0  0  0  0  0  0  0  0
   19.0899  -11.1403  -14.4952 O   0  0  0  0  0  0  0  0  0  0  0  0
   20.0864  -10.1571  -16.2976 N   0  0  0  0  0  0  0  0  0  0  0  0
   20.2623   -8.9393  -15.5360 C   0  0  1  0  0  0  0  0  0  0  0  0
   21.7283   -8.5204  -15.6044 C   0  0  0  0  0  0  0  0  0  0  0  0
   21.8669   -6.9860  -14.6149 S   0  0  0  0  0  0  0  0  0  0  0  0
   19.4505   -7.8206  -16.1141 C   0  0  0  0  0  0  0  0  0  0  0  0
   19.5277   -7.5947  -17.3321 O   0  0  0  0  0  0  0  0  0  0  0  0
   18.6010   -7.0206  -15.2992 N   0  0  0  0  0  0  0  0  0  0  0  0
   17.8391   -5.9146  -15.8349 C   0  0  1  0  0  0  0  0  0  0  0  0
   16.4735   -5.9576  -15.2226 C   0  0  0  0  0  0  0  0  0  0  0  0
   15.5550   -4.9066  -15.7156 C   0  0  0  0  0  0  0  0  0  0  0  0
   15.6971   -3.5663  -15.4262 C   0  0  0  0  0  0  0  0  0  0  0  0
   14.6843   -2.9353  -16.0426 N   0  0  0  0  0  0  0  0  0  0  0  0
   13.9205   -3.8229  -16.7013 C   0  0  0  0  0  0  0  0  0  0  0  0
   14.4642   -5.0347  -16.4944 N   0  0  0  0  0  0  0  0  0  0  0  0
   18.5327   -4.6188  -15.6431 C   0  0  0  0  0  0  0  0  0  0  0  0
   18.6045   -3.7647  -16.5623 O   0  0  0  0  0  0  0  0  0  0  0  0
   19.1474   -4.2630  -14.4394 O   0  0  0  0  0  0  0  0  0  0  0  0
  1  2  1  0
  2  3  2  0
  4  2  1  0
  4  5  1  0
  6  5  1  0
  6  7  1  1
  8  9  2  0
  8  6  1  0
 10  8  1  0
 11 10  1  0
 11 12  1  6
 13 12  1  0
 14 11  1  0
 15 14  2  0
 16 14  1  0
 17 16  1  0
 17 18  1  1
 18 19  1  0
 19 23  1  0
 20 19  2  0
 20 21  1  0
 21 22  1  0
 23 22  2  0
 24 17  1  0
 25 24  2  0
 26 24  1  0
M  END
$$$$
