QCH.pdb
     RDKit          3D

 26 26  0  0  1  0  0  0  0  0999 V2000
   25.5595  -11.5875  -20.3235 N   0  0  0  0  0  0  0  0  0  0  0  0
   25.0719  -12.8838  -20.0335 C   0  0  0  0  0  0  0  0  0  0  0  0
   25.4007  -13.8406  -20.7365 O   0  0  0  0  0  0  0  0  0  0  0  0
   24.1539  -13.0235  -18.8501 C   0  0  0  0  0  0  0  0  0  0  0  0
   24.0110  -11.7370  -18.1139 C   0  0  0  0  0  0  0  0  0  0  0  0
   23.0810  -11.8922  -16.9556 C   0  0  2  0  0  0  0  0  0  0  0  0
   22.2276  -13.0849  -17.1577 N   0  0  0  0  0  0  0  0  0  0  0  0
   22.1913  -10.7502  -16.7014 C   0  0  0  0  0  0  0  0  0  0  0  0
   21.2121  -10.4856  -17.4372 O   0  0  0  0  0  0  0  0  0  0  0  0
   22.3949   -9.8657  -15.5864 N   0  0  0  0  0  0  0  0  0  0  0  0
   21.5156   -8.7311  -15.4042 C   0  0  1  0  0  0  0  0  0  0  0  0
   21.3825   -8.4430  -13.9114 C   0  0  0  0  0  0  0  0  0  0  0  0
   20.2394   -9.7099  -13.2474 S   0  0  0  0  0  0  0  0  0  0  0  0
   22.0818   -7.5022  -16.0477 C   0  0  0  0  0  0  0  0  0  0  0  0
   23.3009   -7.2882  -15.9559 O   0  0  0  0  0  0  0  0  0  0  0  0
   21.2544   -6.5853  -16.7551 N   0  0  0  0  0  0  0  0  0  0  0  0
   21.7773   -5.3720  -17.3428 C   0  0  1  0  0  0  0  0  0  0  0  0
   22.7628   -5.7611  -18.4005 C   0  0  0  0  0  0  0  0  0  0  0  0
   22.1588   -6.4307  -19.5746 C   0  0  0  0  0  0  0  0  0  0  0  0
   20.8273   -6.7771  -19.6591 C   0  0  0  0  0  0  0  0  0  0  0  0
   20.6615   -7.3585  -20.8584 N   0  0  0  0  0  0  0  0  0  0  0  0
   21.8295   -7.3885  -21.5219 C   0  0  0  0  0  0  0  0  0  0  0  0
   22.7463   -6.8148  -20.7235 N   0  0  0  0  0  0  0  0  0  0  0  0
   20.6974   -4.4856  -17.8380 C   0  0  0  0  0  0  0  0  0  0  0  0
   20.9414   -3.3476  -18.3123 O   0  0  0  0  0  0  0  0  0  0  0  0
   19.3489   -4.8517  -17.8110 O   0  0  0  0  0  0  0  0  0  0  0  0
  1  2  1  0
  2  3  2  0
  4  2  1  0
  4  5  1  0
  6  5  1  0
  6  7  1  6
  8  9  2  0
  8  6  1  0
 10  8  1  0
 11 10  1  0
 11 12  1  1
 13 12  1  0
 14 11  1  0
 15 14  2  0
 16 14  1  0
 17 16  1  0
 17 18  1  6
 18 19  1  0
 19 23  1  0
 20 19  2  0
 20 21  1  0
 21 22  1  0
 23 22  2  0
 24 17  1  0
 25 24  2  0
 26 24  1  0
M  END
$$$$
