QCH.pdb
     RDKit          3D

 26 26  0  0  1  0  0  0  0  0999 V2000
   15.5310  -10.6323  -14.7321 N   0  0  0  0  0  0  0  0  0  0  0  0
   16.0683  -11.2993  -15.8585 C   0  0  0  0  0  0  0  0  0  0  0  0
   15.3712  -12.0828  -16.5050 O   0  0  0  0  0  0  0  0  0  0  0  0
   17.5005  -11.0053  -16.2124 C   0  0  0  0  0  0  0  0  0  0  0  0
   18.1044  -10.0193  -15.2739 C   0  0  0  0  0  0  0  0  0  0  0  0
   19.4977   -9.6791  -15.6905 C   0  0  2  0  0  0  0  0  0  0  0  0
   20.3645  -10.8712  -15.5527 N   0  0  0  0  0  0  0  0  0  0  0  0
   20.1314   -8.5832  -14.9437 C   0  0  0  0  0  0  0  0  0  0  0  0
   20.1507   -8.5480  -13.6912 O   0  0  0  0  0  0  0  0  0  0  0  0
   20.7696   -7.4818  -15.6119 N   0  0  0  0  0  0  0  0  0  0  0  0
   21.3540   -6.4133  -14.8305 C   0  0  1  0  0  0  0  0  0  0  0  0
   22.8644   -6.6208  -14.7601 C   0  0  0  0  0  0  0  0  0  0  0  0
   23.1735   -8.3241  -15.3568 S   0  0  0  0  0  0  0  0  0  0  0  0
   21.1155   -5.0821  -15.4752 C   0  0  0  0  0  0  0  0  0  0  0  0
   21.3488   -4.9558  -16.6877 O   0  0  0  0  0  0  0  0  0  0  0  0
   20.6309   -3.9711  -14.7292 N   0  0  0  0  0  0  0  0  0  0  0  0
   20.4204   -2.6731  -15.3304 C   0  0  1  0  0  0  0  0  0  0  0  0
   19.1903   -2.0773  -14.7193 C   0  0  0  0  0  0  0  0  0  0  0  0
   17.9470   -2.8282  -15.0054 C   0  0  0  0  0  0  0  0  0  0  0  0
   17.4646   -3.0574  -16.2762 C   0  0  0  0  0  0  0  0  0  0  0  0
   16.3306   -3.7622  -16.1306 N   0  0  0  0  0  0  0  0  0  0  0  0
   16.0875   -3.9807  -14.8274 C   0  0  0  0  0  0  0  0  0  0  0  0
   17.0883   -3.4018  -14.1415 N   0  0  0  0  0  0  0  0  0  0  0  0
   21.6176   -1.8070  -15.2136 C   0  0  0  0  0  0  0  0  0  0  0  0
   21.6337   -0.6359  -15.6696 O   0  0  0  0  0  0  0  0  0  0  0  0
   22.7972   -2.2299  -14.5949 O   0  0  0  0  0  0  0  0  0  0  0  0
  1  2  1  0
  2  3  2  0
  4  2  1  0
  4  5  1  0
  6  5  1  0
  6  7  1  1
  8  9  2  0
  8  6  1  0
 10  8  1  0
 11 10  1  0
 11 12  1  6
 13 12  1  0
 14 11  1  0
 15 14  2  0
 16 14  1  0
 17 16  1  0
 17 18  1  1
 18 19  1  0
 19 23  1  0
 20 19  2  0
 20 21  1  0
 21 22  1  0
 23 22  2  0
 24 17  1  0
 25 24  2  0
 26 24  1  0
M  END
$$$$
