QCH.pdb
     RDKit          3D

 26 26  0  0  1  0  0  0  0  0999 V2000
   33.9143   -2.5287   -0.6231 N   0  0  0  0  0  0  0  0  0  0  0  0
   33.7957   -1.1186   -0.6216 C   0  0  0  0  0  0  0  0  0  0  0  0
   32.9844   -0.5663    0.1230 O   0  0  0  0  0  0  0  0  0  0  0  0
   34.6923   -0.3530   -1.5557 C   0  0  0  0  0  0  0  0  0  0  0  0
   35.4881   -1.2666   -2.4214 C   0  0  0  0  0  0  0  0  0  0  0  0
   36.4880   -0.4979   -3.2214 C   0  0  2  0  0  0  0  0  0  0  0  0
   37.5498    0.0190   -2.3286 N   0  0  0  0  0  0  0  0  0  0  0  0
   35.9515    0.6431   -3.9766 C   0  0  0  0  0  0  0  0  0  0  0  0
   35.9238    1.8048   -3.5076 O   0  0  0  0  0  0  0  0  0  0  0  0
   35.4244    0.4906   -5.3055 N   0  0  0  0  0  0  0  0  0  0  0  0
   35.0091    1.6608   -6.0484 C   0  0  1  0  0  0  0  0  0  0  0  0
   35.7250    1.6710   -7.3962 C   0  0  0  0  0  0  0  0  0  0  0  0
   37.5005    1.9268   -7.0287 S   0  0  0  0  0  0  0  0  0  0  0  0
   33.5369    1.6288   -6.3247 C   0  0  0  0  0  0  0  0  0  0  0  0
   33.0039    0.5410   -6.5951 O   0  0  0  0  0  0  0  0  0  0  0  0
   32.7469    2.8120   -6.2828 N   0  0  0  0  0  0  0  0  0  0  0  0
   31.3292    2.8015   -6.5671 C   0  0  1  0  0  0  0  0  0  0  0  0
   30.6896    3.8858   -5.7568 C   0  0  0  0  0  0  0  0  0  0  0  0
   30.5748    3.5762   -4.3137 C   0  0  0  0  0  0  0  0  0  0  0  0
   30.9635    2.3784   -3.7530 C   0  0  0  0  0  0  0  0  0  0  0  0
   30.7055    2.4731   -2.4383 N   0  0  0  0  0  0  0  0  0  0  0  0
   30.1746    3.6751   -2.1579 C   0  0  0  0  0  0  0  0  0  0  0  0
   30.0977    4.3480   -3.3191 N   0  0  0  0  0  0  0  0  0  0  0  0
   31.0542    2.9083   -8.0198 C   0  0  0  0  0  0  0  0  0  0  0  0
   31.9661    3.1537   -8.8491 O   0  0  0  0  0  0  0  0  0  0  0  0
   29.7754    2.7451   -8.5595 O   0  0  0  0  0  0  0  0  0  0  0  0
  1  2  1  0
  2  3  2  0
  4  2  1  0
  4  5  1  0
  6  5  1  0
  6  7  1  1
  8  9  2  0
  8  6  1  0
 10  8  1  0
 11 10  1  0
 11 12  1  6
 13 12  1  0
 14 11  1  0
 15 14  2  0
 16 14  1  0
 17 16  1  0
 17 18  1  1
 18 19  1  0
 19 23  1  0
 20 19  2  0
 20 21  1  0
 21 22  1  0
 23 22  2  0
 24 17  1  0
 25 24  2  0
 26 24  1  0
M  END
$$$$
