QCH.pdb
     RDKit          3D

 26 26  0  0  1  0  0  0  0  0999 V2000
   26.3907  -16.4915  -13.7894 N   0  0  0  0  0  0  0  0  0  0  0  0
   26.9189  -17.4505  -14.6860 C   0  0  0  0  0  0  0  0  0  0  0  0
   27.3665  -18.5162  -14.2597 O   0  0  0  0  0  0  0  0  0  0  0  0
   26.9033  -17.1041  -16.1497 C   0  0  0  0  0  0  0  0  0  0  0  0
   26.2538  -15.7863  -16.3930 C   0  0  0  0  0  0  0  0  0  0  0  0
   24.7669  -15.9109  -16.3288 C   0  0  2  0  0  0  0  0  0  0  0  0
   24.3357  -17.1218  -17.0632 N   0  0  0  0  0  0  0  0  0  0  0  0
   24.0126  -14.7725  -16.8723 C   0  0  0  0  0  0  0  0  0  0  0  0
   23.7915  -14.6381  -18.0984 O   0  0  0  0  0  0  0  0  0  0  0  0
   23.4819  -13.7413  -16.0227 N   0  0  0  0  0  0  0  0  0  0  0  0
   22.7542  -12.6364  -16.6088 C   0  0  1  0  0  0  0  0  0  0  0  0
   21.2575  -12.9029  -16.4741 C   0  0  0  0  0  0  0  0  0  0  0  0
   21.0436  -13.8325  -14.9111 S   0  0  0  0  0  0  0  0  0  0  0  0
   23.0467  -11.3561  -15.8878 C   0  0  0  0  0  0  0  0  0  0  0  0
   23.2521  -11.3935  -14.6643 O   0  0  0  0  0  0  0  0  0  0  0  0
   23.0928  -10.1102  -16.5745 N   0  0  0  0  0  0  0  0  0  0  0  0
   23.3807   -8.8669  -15.8948 C   0  0  1  0  0  0  0  0  0  0  0  0
   24.4823   -8.1797  -16.6402 C   0  0  0  0  0  0  0  0  0  0  0  0
   25.7206   -8.9811  -16.7660 C   0  0  0  0  0  0  0  0  0  0  0  0
   26.6480   -9.1233  -15.7561 C   0  0  0  0  0  0  0  0  0  0  0  0
   27.6209   -9.9115  -16.2421 N   0  0  0  0  0  0  0  0  0  0  0  0
   27.3392  -10.2647  -17.5075 C   0  0  0  0  0  0  0  0  0  0  0  0
   26.1668   -9.6871  -17.8219 N   0  0  0  0  0  0  0  0  0  0  0  0
   22.1674   -8.0313  -15.7297 C   0  0  0  0  0  0  0  0  0  0  0  0
   21.1240   -8.2413  -16.3981 O   0  0  0  0  0  0  0  0  0  0  0  0
   22.1028   -6.9647  -14.8290 O   0  0  0  0  0  0  0  0  0  0  0  0
  1  2  1  0
  2  3  2  0
  4  2  1  0
  4  5  1  0
  6  5  1  0
  6  7  1  6
  8  9  2  0
  8  6  1  0
 10  8  1  0
 11 10  1  0
 11 12  1  1
 13 12  1  0
 14 11  1  0
 15 14  2  0
 16 14  1  0
 17 16  1  0
 17 18  1  6
 18 19  1  0
 19 23  1  0
 20 19  2  0
 20 21  1  0
 21 22  1  0
 23 22  2  0
 24 17  1  0
 25 24  2  0
 26 24  1  0
M  END
$$$$
