QCH.pdb
     RDKit          3D

 26 26  0  0  1  0  0  0  0  0999 V2000
   16.0249  -12.1623  -14.4102 N   0  0  0  0  0  0  0  0  0  0  0  0
   16.2271  -13.5044  -14.8107 C   0  0  0  0  0  0  0  0  0  0  0  0
   15.4986  -14.3971  -14.3746 O   0  0  0  0  0  0  0  0  0  0  0  0
   17.3517  -13.7720  -15.7732 C   0  0  0  0  0  0  0  0  0  0  0  0
   18.1118  -12.5300  -16.0852 C   0  0  0  0  0  0  0  0  0  0  0  0
   17.6200  -11.9151  -17.3542 C   0  0  2  0  0  0  0  0  0  0  0  0
   17.9621  -12.7906  -18.4979 N   0  0  0  0  0  0  0  0  0  0  0  0
   18.1437  -10.5744  -17.6520 C   0  0  0  0  0  0  0  0  0  0  0  0
   19.1506  -10.3928  -18.3755 O   0  0  0  0  0  0  0  0  0  0  0  0
   17.5265   -9.3869  -17.1267 N   0  0  0  0  0  0  0  0  0  0  0  0
   18.0577   -8.0885  -17.4815 C   0  0  1  0  0  0  0  0  0  0  0  0
   16.8964   -7.1289  -17.7262 C   0  0  0  0  0  0  0  0  0  0  0  0
   17.6492   -5.5222  -18.1787 S   0  0  0  0  0  0  0  0  0  0  0  0
   18.8797   -7.5198  -16.3655 C   0  0  0  0  0  0  0  0  0  0  0  0
   18.4250   -7.5553  -15.2111 O   0  0  0  0  0  0  0  0  0  0  0  0
   20.1600   -6.9453  -16.6035 N   0  0  0  0  0  0  0  0  0  0  0  0
   20.9263   -6.3112  -15.5540 C   0  0  1  0  0  0  0  0  0  0  0  0
   22.3704   -6.6361  -15.7786 C   0  0  0  0  0  0  0  0  0  0  0  0
   22.7194   -8.0521  -15.5246 C   0  0  0  0  0  0  0  0  0  0  0  0
   21.8070   -9.0088  -15.1341 C   0  0  0  0  0  0  0  0  0  0  0  0
   22.4925  -10.1564  -15.0034 N   0  0  0  0  0  0  0  0  0  0  0  0
   23.7886   -9.9552  -15.2950 C   0  0  0  0  0  0  0  0  0  0  0  0
   23.9193   -8.6562  -15.6150 N   0  0  0  0  0  0  0  0  0  0  0  0
   20.6535   -4.8566  -15.4696 C   0  0  0  0  0  0  0  0  0  0  0  0
   19.9651   -4.2616  -16.3365 O   0  0  0  0  0  0  0  0  0  0  0  0
   21.1386   -4.0571  -14.4311 O   0  0  0  0  0  0  0  0  0  0  0  0
  1  2  1  0
  2  3  2  0
  4  2  1  0
  4  5  1  0
  6  5  1  0
  6  7  1  6
  8  9  2  0
  8  6  1  0
 10  8  1  0
 11 10  1  0
 11 12  1  1
 13 12  1  0
 14 11  1  0
 15 14  2  0
 16 14  1  0
 17 16  1  0
 17 18  1  6
 18 19  1  0
 19 23  1  0
 20 19  2  0
 20 21  1  0
 21 22  1  0
 23 22  2  0
 24 17  1  0
 25 24  2  0
 26 24  1  0
M  END
$$$$
