QCH.pdb
     RDKit          3D

 26 26  0  0  1  0  0  0  0  0999 V2000
   28.8244  -23.0239  -18.8347 N   0  0  0  0  0  0  0  0  0  0  0  0
   28.2827  -21.9849  -18.0414 C   0  0  0  0  0  0  0  0  0  0  0  0
   27.4707  -21.1951  -18.5258 O   0  0  0  0  0  0  0  0  0  0  0  0
   28.7420  -21.9017  -16.6114 C   0  0  0  0  0  0  0  0  0  0  0  0
   27.6633  -22.3025  -15.6663 C   0  0  0  0  0  0  0  0  0  0  0  0
   27.0078  -21.0991  -15.0725 C   0  0  2  0  0  0  0  0  0  0  0  0
   28.0175  -20.2788  -14.3660 N   0  0  0  0  0  0  0  0  0  0  0  0
   25.9200  -21.3749  -14.1234 C   0  0  0  0  0  0  0  0  0  0  0  0
   24.9162  -22.0580  -14.4333 O   0  0  0  0  0  0  0  0  0  0  0  0
   25.9456  -20.8734  -12.7763 N   0  0  0  0  0  0  0  0  0  0  0  0
   24.8178  -21.1145  -11.9022 C   0  0  1  0  0  0  0  0  0  0  0  0
   25.1966  -20.7051  -10.4815 C   0  0  0  0  0  0  0  0  0  0  0  0
   26.8067  -21.5044  -10.1327 S   0  0  0  0  0  0  0  0  0  0  0  0
   23.6367  -20.2859  -12.3060 C   0  0  0  0  0  0  0  0  0  0  0  0
   23.8285  -19.1229  -12.6951 O   0  0  0  0  0  0  0  0  0  0  0  0
   22.3121  -20.8037  -12.2518 N   0  0  0  0  0  0  0  0  0  0  0  0
   21.3701  -20.6228  -13.3337 C   0  0  1  0  0  0  0  0  0  0  0  0
   22.0178  -21.1078  -14.5934 C   0  0  0  0  0  0  0  0  0  0  0  0
   21.7438  -20.2648  -15.7790 C   0  0  0  0  0  0  0  0  0  0  0  0
   21.8624  -18.8915  -15.7876 C   0  0  0  0  0  0  0  0  0  0  0  0
   21.5323  -18.4895  -17.0259 N   0  0  0  0  0  0  0  0  0  0  0  0
   21.2142  -19.5509  -17.7859 C   0  0  0  0  0  0  0  0  0  0  0  0
   21.3473  -20.6403  -17.0097 N   0  0  0  0  0  0  0  0  0  0  0  0
   20.0683  -21.2727  -13.0501 C   0  0  0  0  0  0  0  0  0  0  0  0
   19.0208  -20.9514  -13.6658 O   0  0  0  0  0  0  0  0  0  0  0  0
   19.9197  -22.2761  -12.0888 O   0  0  0  0  0  0  0  0  0  0  0  0
  1  2  1  0
  2  3  2  0
  4  2  1  0
  4  5  1  0
  6  5  1  0
  6  7  1  1
  8  9  2  0
  8  6  1  0
 10  8  1  0
 11 10  1  0
 11 12  1  1
 13 12  1  0
 14 11  1  0
 15 14  2  0
 16 14  1  0
 17 16  1  0
 17 18  1  6
 18 19  1  0
 19 23  1  0
 20 19  2  0
 20 21  1  0
 21 22  1  0
 23 22  2  0
 24 17  1  0
 25 24  2  0
 26 24  1  0
M  END
$$$$
