QCH.pdb
     RDKit          3D

 26 26  0  0  1  0  0  0  0  0999 V2000
   26.2441  -15.4969  -14.3425 N   0  0  0  0  0  0  0  0  0  0  0  0
   26.5370  -16.6638  -15.0876 C   0  0  0  0  0  0  0  0  0  0  0  0
   27.0207  -17.6498  -14.5293 O   0  0  0  0  0  0  0  0  0  0  0  0
   26.2326  -16.6328  -16.5603 C   0  0  0  0  0  0  0  0  0  0  0  0
   25.6234  -15.3357  -16.9657 C   0  0  0  0  0  0  0  0  0  0  0  0
   24.1349  -15.4455  -17.0191 C   0  0  2  0  0  0  0  0  0  0  0  0
   23.7457  -16.4683  -18.0161 N   0  0  0  0  0  0  0  0  0  0  0  0
   23.4209  -14.2058  -17.3561 C   0  0  0  0  0  0  0  0  0  0  0  0
   23.4084  -13.7329  -18.5164 O   0  0  0  0  0  0  0  0  0  0  0  0
   22.6912  -13.4599  -16.3670 N   0  0  0  0  0  0  0  0  0  0  0  0
   21.9705  -12.2679  -16.7588 C   0  0  1  0  0  0  0  0  0  0  0  0
   20.4760  -12.5057  -16.5603 C   0  0  0  0  0  0  0  0  0  0  0  0
   19.9871  -13.7503  -17.8112 S   0  0  0  0  0  0  0  0  0  0  0  0
   22.3547  -11.1003  -15.9021 C   0  0  0  0  0  0  0  0  0  0  0  0
   22.3811  -11.2472  -14.6699 O   0  0  0  0  0  0  0  0  0  0  0  0
   22.6868   -9.8386  -16.4708 N   0  0  0  0  0  0  0  0  0  0  0  0
   23.0657   -8.7039  -15.6586 C   0  0  1  0  0  0  0  0  0  0  0  0
   24.0431   -7.8837  -16.4418 C   0  0  0  0  0  0  0  0  0  0  0  0
   25.3593   -8.5326  -16.6371 C   0  0  0  0  0  0  0  0  0  0  0  0
   25.7051   -9.7471  -16.0844 C   0  0  0  0  0  0  0  0  0  0  0  0
   26.9630  -10.0005  -16.4812 N   0  0  0  0  0  0  0  0  0  0  0  0
   27.4133   -8.9985  -17.2549 C   0  0  0  0  0  0  0  0  0  0  0  0
   26.4188   -8.0986  -17.3455 N   0  0  0  0  0  0  0  0  0  0  0  0
   21.8862   -7.9351  -15.1950 C   0  0  0  0  0  0  0  0  0  0  0  0
   20.7559   -8.0735  -15.7270 O   0  0  0  0  0  0  0  0  0  0  0  0
   21.9507   -7.0140  -14.1459 O   0  0  0  0  0  0  0  0  0  0  0  0
  1  2  1  0
  2  3  2  0
  4  2  1  0
  4  5  1  0
  6  5  1  0
  6  7  1  6
  8  9  2  0
  8  6  1  0
 10  8  1  0
 11 10  1  0
 11 12  1  1
 13 12  1  0
 14 11  1  0
 15 14  2  0
 16 14  1  0
 17 16  1  0
 17 18  1  6
 18 19  1  0
 19 23  1  0
 20 19  2  0
 20 21  1  0
 21 22  1  0
 23 22  2  0
 24 17  1  0
 25 24  2  0
 26 24  1  0
M  END
$$$$
