QCH.pdb
     RDKit          3D

 26 26  0  0  1  0  0  0  0  0999 V2000
   13.5123  -11.4413  -16.2806 N   0  0  0  0  0  0  0  0  0  0  0  0
   13.1801  -11.1880  -14.9286 C   0  0  0  0  0  0  0  0  0  0  0  0
   12.0038  -11.2197  -14.5636 O   0  0  0  0  0  0  0  0  0  0  0  0
   14.3142  -10.8859  -13.9877 C   0  0  0  0  0  0  0  0  0  0  0  0
   15.6127  -10.7876  -14.7100 C   0  0  0  0  0  0  0  0  0  0  0  0
   16.7095  -10.3995  -13.7736 C   0  0  2  0  0  0  0  0  0  0  0  0
   16.7393  -11.3341  -12.6258 N   0  0  0  0  0  0  0  0  0  0  0  0
   16.6253   -9.0361  -13.2311 C   0  0  0  0  0  0  0  0  0  0  0  0
   16.3537   -8.0445  -13.9474 O   0  0  0  0  0  0  0  0  0  0  0  0
   16.8512   -8.7605  -11.8383 N   0  0  0  0  0  0  0  0  0  0  0  0
   16.8383   -7.3916  -11.3693 C   0  0  1  0  0  0  0  0  0  0  0  0
   16.7035   -7.3908   -9.8490 C   0  0  0  0  0  0  0  0  0  0  0  0
   16.6322   -5.6320   -9.3444 S   0  0  0  0  0  0  0  0  0  0  0  0
   18.1220   -6.6955  -11.7044 C   0  0  0  0  0  0  0  0  0  0  0  0
   19.1349   -6.9570  -11.0364 O   0  0  0  0  0  0  0  0  0  0  0  0
   18.1994   -5.7491  -12.7646 N   0  0  0  0  0  0  0  0  0  0  0  0
   19.4230   -5.0470  -13.0819 C   0  0  1  0  0  0  0  0  0  0  0  0
   19.9904   -5.6521  -14.3283 C   0  0  0  0  0  0  0  0  0  0  0  0
   20.5181   -7.0237  -14.1500 C   0  0  0  0  0  0  0  0  0  0  0  0
   20.6051   -7.6594  -12.9299 C   0  0  0  0  0  0  0  0  0  0  0  0
   21.1288   -8.8726  -13.1704 N   0  0  0  0  0  0  0  0  0  0  0  0
   21.3706   -9.0185  -14.4840 C   0  0  0  0  0  0  0  0  0  0  0  0
   20.9914   -7.8747  -15.0797 N   0  0  0  0  0  0  0  0  0  0  0  0
   19.2133   -3.5828  -13.1779 C   0  0  0  0  0  0  0  0  0  0  0  0
   20.1708   -2.7877  -13.3535 O   0  0  0  0  0  0  0  0  0  0  0  0
   17.9497   -2.9936  -13.0808 O   0  0  0  0  0  0  0  0  0  0  0  0
  1  2  1  0
  2  3  2  0
  4  2  1  0
  4  5  1  0
  6  5  1  0
  6  7  1  1
  8  9  2  0
  8  6  1  0
 10  8  1  0
 11 10  1  0
 11 12  1  1
 13 12  1  0
 14 11  1  0
 15 14  2  0
 16 14  1  0
 17 16  1  0
 17 18  1  6
 18 19  1  0
 19 23  1  0
 20 19  2  0
 20 21  1  0
 21 22  1  0
 23 22  2  0
 24 17  1  0
 25 24  2  0
 26 24  1  0
M  END
$$$$
