QCH.pdb
     RDKit          3D

 26 26  0  0  1  0  0  0  0  0999 V2000
   18.1616  -15.1192  -14.5422 N   0  0  0  0  0  0  0  0  0  0  0  0
   17.9863  -15.2404  -15.9411 C   0  0  0  0  0  0  0  0  0  0  0  0
   17.6789  -16.3265  -16.4348 O   0  0  0  0  0  0  0  0  0  0  0  0
   18.1909  -14.0012  -16.7690 C   0  0  0  0  0  0  0  0  0  0  0  0
   18.4666  -12.8126  -15.9154 C   0  0  0  0  0  0  0  0  0  0  0  0
   18.7956  -11.6234  -16.7568 C   0  0  2  0  0  0  0  0  0  0  0  0
   19.9678  -11.9247  -17.6094 N   0  0  0  0  0  0  0  0  0  0  0  0
   19.0927  -10.3882  -16.0177 C   0  0  0  0  0  0  0  0  0  0  0  0
   18.3444   -9.9515  -15.1124 O   0  0  0  0  0  0  0  0  0  0  0  0
   20.2665   -9.6051  -16.2931 N   0  0  0  0  0  0  0  0  0  0  0  0
   20.5008   -8.3838  -15.5533 C   0  0  1  0  0  0  0  0  0  0  0  0
   22.0053   -8.1506  -15.4470 C   0  0  0  0  0  0  0  0  0  0  0  0
   22.6062   -9.2850  -14.1413 S   0  0  0  0  0  0  0  0  0  0  0  0
   19.9147   -7.2025  -16.2646 C   0  0  0  0  0  0  0  0  0  0  0  0
   19.9782   -7.1600  -17.5035 O   0  0  0  0  0  0  0  0  0  0  0  0
   19.2929   -6.1391  -15.5518 N   0  0  0  0  0  0  0  0  0  0  0  0
   18.7935   -4.9557  -16.2159 C   0  0  1  0  0  0  0  0  0  0  0  0
   17.3172   -4.8834  -15.9781 C   0  0  0  0  0  0  0  0  0  0  0  0
   16.5564   -6.0222  -16.5402 C   0  0  0  0  0  0  0  0  0  0  0  0
   15.8535   -6.9276  -15.7744 C   0  0  0  0  0  0  0  0  0  0  0  0
   15.3043   -7.8041  -16.6313 N   0  0  0  0  0  0  0  0  0  0  0  0
   15.6344   -7.4836  -17.8937 C   0  0  0  0  0  0  0  0  0  0  0  0
   16.4058   -6.3846  -17.8281 N   0  0  0  0  0  0  0  0  0  0  0  0
   19.5209   -3.7348  -15.7947 C   0  0  0  0  0  0  0  0  0  0  0  0
   20.4265   -3.7719  -14.9239 O   0  0  0  0  0  0  0  0  0  0  0  0
   19.2515   -2.4730  -16.3318 O   0  0  0  0  0  0  0  0  0  0  0  0
  1  2  1  0
  2  3  2  0
  4  2  1  0
  4  5  1  0
  6  5  1  0
  6  7  1  1
  8  9  2  0
  8  6  1  0
 10  8  1  0
 11 10  1  0
 11 12  1  6
 13 12  1  0
 14 11  1  0
 15 14  2  0
 16 14  1  0
 17 16  1  0
 17 18  1  1
 18 19  1  0
 19 23  1  0
 20 19  2  0
 20 21  1  0
 21 22  1  0
 23 22  2  0
 24 17  1  0
 25 24  2  0
 26 24  1  0
M  END
$$$$
