QCH.pdb
     RDKit          3D

 26 26  0  0  1  0  0  0  0  0999 V2000
   21.4717  -17.7503  -18.2800 N   0  0  0  0  0  0  0  0  0  0  0  0
   20.9096  -16.4858  -17.9842 C   0  0  0  0  0  0  0  0  0  0  0  0
   20.0003  -16.3902  -17.1584 O   0  0  0  0  0  0  0  0  0  0  0  0
   21.4700  -15.2969  -18.7157 C   0  0  0  0  0  0  0  0  0  0  0  0
   21.7976  -14.1845  -17.7814 C   0  0  0  0  0  0  0  0  0  0  0  0
   23.2258  -14.2597  -17.3513 C   0  0  2  0  0  0  0  0  0  0  0  0
   23.4231  -15.4412  -16.4814 N   0  0  0  0  0  0  0  0  0  0  0  0
   23.7300  -13.0863  -16.6239 C   0  0  0  0  0  0  0  0  0  0  0  0
   23.1422  -12.6135  -15.6233 O   0  0  0  0  0  0  0  0  0  0  0  0
   24.9345  -12.4095  -17.0215 N   0  0  0  0  0  0  0  0  0  0  0  0
   25.3877  -11.2576  -16.2721 C   0  0  1  0  0  0  0  0  0  0  0  0
   26.8866  -11.0791  -16.4977 C   0  0  0  0  0  0  0  0  0  0  0  0
   27.4255   -9.7724  -15.3336 S   0  0  0  0  0  0  0  0  0  0  0  0
   24.7125  -10.0070  -16.7462 C   0  0  0  0  0  0  0  0  0  0  0  0
   24.6334   -9.7975  -17.9670 O   0  0  0  0  0  0  0  0  0  0  0  0
   24.1657   -9.0647  -15.8304 N   0  0  0  0  0  0  0  0  0  0  0  0
   23.4577   -7.8838  -16.2720 C   0  0  1  0  0  0  0  0  0  0  0  0
   22.4769   -7.5096  -15.2045 C   0  0  0  0  0  0  0  0  0  0  0  0
   21.2640   -8.3577  -15.1718 C   0  0  0  0  0  0  0  0  0  0  0  0
   20.9955   -9.3479  -16.0925 C   0  0  0  0  0  0  0  0  0  0  0  0
   19.8184   -9.8882  -15.7368 N   0  0  0  0  0  0  0  0  0  0  0  0
   19.3445   -9.2783  -14.6373 C   0  0  0  0  0  0  0  0  0  0  0  0
   20.2414   -8.3369  -14.2963 N   0  0  0  0  0  0  0  0  0  0  0  0
   24.3841   -6.7852  -16.6353 C   0  0  0  0  0  0  0  0  0  0  0  0
   25.6095   -6.8355  -16.3606 O   0  0  0  0  0  0  0  0  0  0  0  0
   23.9617   -5.6312  -17.3009 O   0  0  0  0  0  0  0  0  0  0  0  0
  1  2  1  0
  2  3  2  0
  4  2  1  0
  4  5  1  0
  6  5  1  0
  6  7  1  1
  8  9  2  0
  8  6  1  0
 10  8  1  0
 11 10  1  0
 11 12  1  6
 13 12  1  0
 14 11  1  0
 15 14  2  0
 16 14  1  0
 17 16  1  0
 17 18  1  1
 18 19  1  0
 19 23  1  0
 20 19  2  0
 20 21  1  0
 21 22  1  0
 23 22  2  0
 24 17  1  0
 25 24  2  0
 26 24  1  0
M  END
$$$$
