KKM.pdb
     RDKit          3D

 27 26  0  0  1  0  0  0  0  0999 V2000
    5.5334  -17.4750   20.3226 N   0  0  0  0  0  0  0  0  0  0  0  0
    5.5361  -17.7576   21.7308 C   0  0  1  0  0  0  0  0  0  0  0  0
    5.0270  -19.0882   22.1236 C   0  0  0  0  0  0  0  0  0  0  0  0
    4.6663  -19.9753   20.9844 C   0  0  0  0  0  0  0  0  0  0  0  0
    4.1034  -21.2952   21.4237 C   0  0  0  0  0  0  0  0  0  0  0  0
    3.6747  -22.0162   20.1276 C   0  0  0  0  0  0  0  0  0  0  0  0
    3.2287  -23.3552   20.4440 N   0  0  0  0  0  0  0  0  0  0  0  0
    6.9067  -17.5100   22.3227 C   0  0  0  0  0  0  0  0  0  0  0  0
    7.0340  -17.8191   23.5125 O   0  0  0  0  0  0  0  0  0  0  0  0
    7.8935  -16.9725   21.5219 N   0  0  0  0  0  0  0  0  0  0  0  0
    9.1792  -16.5543   21.9424 C   0  0  1  0  0  0  0  0  0  0  0  0
   10.1629  -16.2446   20.8391 C   0  0  0  0  0  0  0  0  0  0  0  0
   11.5240  -16.0287   21.4467 C   0  0  0  0  0  0  0  0  0  0  0  0
   12.5646  -15.7387   20.3582 C   0  0  0  0  0  0  0  0  0  0  0  0
   13.9342  -15.6272   21.0118 C   0  0  0  0  0  0  0  0  0  0  0  0
   14.9237  -15.5137   19.9746 N   0  0  0  0  0  0  0  0  0  0  0  0
    9.1263  -15.5978   23.0302 C   0  0  0  0  0  0  0  0  0  0  0  0
    8.8359  -14.3889   22.7207 O   0  0  0  0  0  0  0  0  0  0  0  0
    6.0242  -10.8963   27.1342 C   0  0  0  0  0  0  0  0  0  0  0  0
    5.9766  -12.6050   26.5224 S   0  0  0  0  0  0  0  0  0  0  0  0
    7.6780  -13.2883   26.5345 C   0  0  0  0  0  0  0  0  0  0  0  0
    7.8877  -14.1962   25.3592 C   0  0  0  0  0  0  0  0  0  0  0  0
    9.2518  -14.7960   25.3672 C   0  0  2  0  0  0  0  0  0  0  0  0
    9.3601  -15.8625   24.3804 N   0  0  0  0  0  0  0  0  0  0  0  0
    9.5266  -15.4196   26.6785 C   0  0  0  0  0  0  0  0  0  0  0  0
    9.6735  -16.6890   26.7103 O   0  0  0  0  0  0  0  0  0  0  0  0
    9.6425  -14.7603   27.8703 O   0  0  0  0  0  0  0  0  0  0  0  0
  2  1  1  6
  2  8  1  0
  2  3  1  0
  4  5  1  0
  4  3  1  0
  6  5  1  0
  7  6  1  0
  8  9  2  0
 10 11  1  0
 10  8  1  0
 12 13  1  0
 11 12  1  6
 14 13  1  0
 15 14  1  0
 16 15  1  0
 17 18  2  0
 17 11  1  0
 19 20  1  0
 21 20  1  0
 21 22  1  0
 23 22  1  1
 23 24  1  0
 23 25  1  0
 24 17  1  0
 25 27  1  0
 26 25  2  0
M  END
$$$$
