KKM.pdb
     RDKit          3D

 27 26  0  0  1  0  0  0  0  0999 V2000
    9.3684  -15.3081   17.9281 N   0  0  0  0  0  0  0  0  0  0  0  0
    8.8265  -14.2466   18.7298 C   0  0  1  0  0  0  0  0  0  0  0  0
    7.7430  -13.4566   18.1086 C   0  0  0  0  0  0  0  0  0  0  0  0
    7.2359  -14.0043   16.8211 C   0  0  0  0  0  0  0  0  0  0  0  0
    8.0654  -13.5920   15.6405 C   0  0  0  0  0  0  0  0  0  0  0  0
    7.3297  -14.1466   14.4017 C   0  0  0  0  0  0  0  0  0  0  0  0
    8.1068  -13.8696   13.2135 N   0  0  0  0  0  0  0  0  0  0  0  0
    8.4038  -14.7649   20.0873 C   0  0  0  0  0  0  0  0  0  0  0  0
    7.7824  -13.9615   20.7914 O   0  0  0  0  0  0  0  0  0  0  0  0
    8.7288  -16.0588   20.4398 N   0  0  0  0  0  0  0  0  0  0  0  0
    8.2974  -16.7449   21.6007 C   0  0  1  0  0  0  0  0  0  0  0  0
    8.5011  -18.2414   21.5933 C   0  0  0  0  0  0  0  0  0  0  0  0
    7.4886  -18.8661   20.6697 C   0  0  0  0  0  0  0  0  0  0  0  0
    7.7942  -20.3535   20.4554 C   0  0  0  0  0  0  0  0  0  0  0  0
    6.7408  -20.9375   19.5256 C   0  0  0  0  0  0  0  0  0  0  0  0
    7.0404  -22.3286   19.3180 N   0  0  0  0  0  0  0  0  0  0  0  0
    8.6706  -16.0615   22.8232 C   0  0  0  0  0  0  0  0  0  0  0  0
    9.8746  -15.6298   22.8974 O   0  0  0  0  0  0  0  0  0  0  0  0
    6.7030  -10.4933   27.7753 C   0  0  0  0  0  0  0  0  0  0  0  0
    6.1975  -11.6672   26.4859 S   0  0  0  0  0  0  0  0  0  0  0  0
    7.4272  -13.0246   26.4025 C   0  0  0  0  0  0  0  0  0  0  0  0
    7.0665  -13.9943   25.3166 C   0  0  0  0  0  0  0  0  0  0  0  0
    8.2303  -14.8406   24.9295 C   0  0  2  0  0  0  0  0  0  0  0  0
    7.8492  -15.8270   23.9270 N   0  0  0  0  0  0  0  0  0  0  0  0
    8.7142  -15.6066   26.0969 C   0  0  0  0  0  0  0  0  0  0  0  0
    8.4329  -16.8526   26.1443 O   0  0  0  0  0  0  0  0  0  0  0  0
    9.4432  -15.1039   27.1382 O   0  0  0  0  0  0  0  0  0  0  0  0
  2  1  1  6
  2  8  1  0
  2  3  1  0
  4  5  1  0
  4  3  1  0
  6  5  1  0
  7  6  1  0
  8  9  2  0
 10 11  1  0
 10  8  1  0
 12 13  1  0
 11 12  1  1
 14 13  1  0
 15 14  1  0
 16 15  1  0
 17 18  2  0
 17 11  1  0
 19 20  1  0
 21 20  1  0
 21 22  1  0
 23 22  1  1
 23 24  1  0
 23 25  1  0
 24 17  1  0
 25 27  1  0
 26 25  2  0
M  END
$$$$
