KKM.pdb
     RDKit          3D

 27 26  0  0  1  0  0  0  0  0999 V2000
    6.9861  -19.7226   20.4900 N   0  0  0  0  0  0  0  0  0  0  0  0
    6.4493  -18.7609   21.4120 C   0  0  1  0  0  0  0  0  0  0  0  0
    6.1115  -19.2734   22.7563 C   0  0  0  0  0  0  0  0  0  0  0  0
    5.8746  -20.7413   22.8188 C   0  0  0  0  0  0  0  0  0  0  0  0
    5.3921  -21.2012   24.1634 C   0  0  0  0  0  0  0  0  0  0  0  0
    5.0968  -22.7084   24.0057 C   0  0  0  0  0  0  0  0  0  0  0  0
    5.1589  -23.3512   25.3000 N   0  0  0  0  0  0  0  0  0  0  0  0
    7.3539  -17.5515   21.5092 C   0  0  0  0  0  0  0  0  0  0  0  0
    8.5510  -17.7983   21.6920 O   0  0  0  0  0  0  0  0  0  0  0  0
    6.8017  -16.2924   21.3913 N   0  0  0  0  0  0  0  0  0  0  0  0
    7.4712  -15.0612   21.5925 C   0  0  1  0  0  0  0  0  0  0  0  0
    6.9075  -13.8768   20.8439 C   0  0  0  0  0  0  0  0  0  0  0  0
    7.9150  -13.4235   19.8202 C   0  0  0  0  0  0  0  0  0  0  0  0
    7.4549  -13.7935   18.4048 C   0  0  0  0  0  0  0  0  0  0  0  0
    8.5785  -13.4754   17.4293 C   0  0  0  0  0  0  0  0  0  0  0  0
    8.2004  -13.9591   16.1290 N   0  0  0  0  0  0  0  0  0  0  0  0
    7.8061  -14.8296   22.9836 C   0  0  0  0  0  0  0  0  0  0  0  0
    7.0959  -13.9675   23.6113 O   0  0  0  0  0  0  0  0  0  0  0  0
    6.3208  -11.2338   27.5917 C   0  0  0  0  0  0  0  0  0  0  0  0
    6.3184  -12.9063   26.8853 S   0  0  0  0  0  0  0  0  0  0  0  0
    8.0487  -13.4136   26.5527 C   0  0  0  0  0  0  0  0  0  0  0  0
    8.0852  -14.7725   25.9191 C   0  0  0  0  0  0  0  0  0  0  0  0
    9.2450  -14.9145   24.9943 C   0  0  2  0  0  0  0  0  0  0  0  0
    8.8246  -15.4520   23.7068 N   0  0  0  0  0  0  0  0  0  0  0  0
   10.2200  -15.8793   25.5441 C   0  0  0  0  0  0  0  0  0  0  0  0
   10.7786  -15.5869   26.6560 O   0  0  0  0  0  0  0  0  0  0  0  0
   10.5815  -17.0668   24.9715 O   0  0  0  0  0  0  0  0  0  0  0  0
  2  1  1  6
  2  8  1  0
  2  3  1  0
  4  5  1  0
  4  3  1  0
  6  5  1  0
  7  6  1  0
  8  9  2  0
 10 11  1  0
 10  8  1  0
 12 13  1  0
 11 12  1  1
 14 13  1  0
 15 14  1  0
 16 15  1  0
 17 18  2  0
 17 11  1  0
 19 20  1  0
 21 20  1  0
 21 22  1  0
 23 22  1  1
 23 24  1  0
 23 25  1  0
 24 17  1  0
 25 27  1  0
 26 25  2  0
M  END
$$$$
