KKM.pdb
     RDKit          3D

 27 26  0  0  1  0  0  0  0  0999 V2000
    5.9066  -16.7182   19.7720 N   0  0  0  0  0  0  0  0  0  0  0  0
    7.1087  -16.2507   20.4040 C   0  0  1  0  0  0  0  0  0  0  0  0
    7.4700  -14.8418   20.1424 C   0  0  0  0  0  0  0  0  0  0  0  0
    7.2482  -14.3947   18.7404 C   0  0  0  0  0  0  0  0  0  0  0  0
    8.5243  -14.0820   18.0152 C   0  0  0  0  0  0  0  0  0  0  0  0
    8.0955  -13.5371   16.6358 C   0  0  0  0  0  0  0  0  0  0  0  0
    9.2645  -13.3529   15.8040 N   0  0  0  0  0  0  0  0  0  0  0  0
    7.0736  -16.5297   21.8910 C   0  0  0  0  0  0  0  0  0  0  0  0
    6.0313  -16.2007   22.4676 O   0  0  0  0  0  0  0  0  0  0  0  0
    8.1720  -17.1144   22.4875 N   0  0  0  0  0  0  0  0  0  0  0  0
    8.2934  -17.4729   23.8518 C   0  0  1  0  0  0  0  0  0  0  0  0
    8.9026  -18.8279   24.1234 C   0  0  0  0  0  0  0  0  0  0  0  0
    8.9361  -19.0573   25.6116 C   0  0  0  0  0  0  0  0  0  0  0  0
    9.5807  -20.4099   25.9380 C   0  0  0  0  0  0  0  0  0  0  0  0
    9.5777  -20.5986   27.4479 C   0  0  0  0  0  0  0  0  0  0  0  0
   10.1761  -21.8715   27.7470 N   0  0  0  0  0  0  0  0  0  0  0  0
    8.7818  -16.3831   24.6732 C   0  0  0  0  0  0  0  0  0  0  0  0
   10.0006  -16.0297   24.4962 O   0  0  0  0  0  0  0  0  0  0  0  0
    6.7160  -10.2504   27.1980 C   0  0  0  0  0  0  0  0  0  0  0  0
    5.8537  -11.7049   26.5368 S   0  0  0  0  0  0  0  0  0  0  0  0
    7.0935  -12.8755   25.8628 C   0  0  0  0  0  0  0  0  0  0  0  0
    7.7142  -13.6774   26.9680 C   0  0  0  0  0  0  0  0  0  0  0  0
    8.7078  -14.6560   26.4430 C   0  0  2  0  0  0  0  0  0  0  0  0
    8.0570  -15.6809   25.6373 N   0  0  0  0  0  0  0  0  0  0  0  0
    9.3631  -15.3664   27.5609 C   0  0  0  0  0  0  0  0  0  0  0  0
   10.1299  -14.6865   28.3250 O   0  0  0  0  0  0  0  0  0  0  0  0
    9.2228  -16.6930   27.8587 O   0  0  0  0  0  0  0  0  0  0  0  0
  2  1  1  1
  2  8  1  0
  2  3  1  0
  4  5  1  0
  4  3  1  0
  6  5  1  0
  7  6  1  0
  8  9  2  0
 10 11  1  0
 10  8  1  0
 12 13  1  0
 11 12  1  6
 14 13  1  0
 15 14  1  0
 16 15  1  0
 17 18  2  0
 17 11  1  0
 19 20  1  0
 21 20  1  0
 21 22  1  0
 23 22  1  1
 23 24  1  0
 23 25  1  0
 24 17  1  0
 25 27  1  0
 26 25  2  0
M  END
$$$$
