KKM.pdb
     RDKit          3D

 27 26  0  0  1  0  0  0  0  0999 V2000
    6.9246  -19.7133   21.0629 N   0  0  0  0  0  0  0  0  0  0  0  0
    6.6038  -18.5283   21.8084 C   0  0  1  0  0  0  0  0  0  0  0  0
    6.2040  -18.7388   23.2155 C   0  0  0  0  0  0  0  0  0  0  0  0
    7.1632  -19.5446   24.0188 C   0  0  0  0  0  0  0  0  0  0  0  0
    6.6576  -19.8564   25.3970 C   0  0  0  0  0  0  0  0  0  0  0  0
    7.7878  -20.6530   26.0838 C   0  0  0  0  0  0  0  0  0  0  0  0
    7.6133  -20.6004   27.5187 N   0  0  0  0  0  0  0  0  0  0  0  0
    7.7261  -17.5175   21.7137 C   0  0  0  0  0  0  0  0  0  0  0  0
    8.8678  -17.9843   21.7907 O   0  0  0  0  0  0  0  0  0  0  0  0
    7.4125  -16.1834   21.5528 N   0  0  0  0  0  0  0  0  0  0  0  0
    8.3331  -15.1158   21.4209 C   0  0  1  0  0  0  0  0  0  0  0  0
    7.9875  -14.0748   20.3827 C   0  0  0  0  0  0  0  0  0  0  0  0
    8.2884  -14.6314   19.0160 C   0  0  0  0  0  0  0  0  0  0  0  0
    7.8799  -13.6366   17.9227 C   0  0  0  0  0  0  0  0  0  0  0  0
    8.1582  -14.2646   16.5649 C   0  0  0  0  0  0  0  0  0  0  0  0
    7.7913  -13.3200   15.5447 N   0  0  0  0  0  0  0  0  0  0  0  0
    8.7845  -14.6076   22.7010 C   0  0  0  0  0  0  0  0  0  0  0  0
    8.9952  -13.3461   22.7782 O   0  0  0  0  0  0  0  0  0  0  0  0
    6.2497  -11.1675   27.6265 C   0  0  0  0  0  0  0  0  0  0  0  0
    7.8288  -11.3432   26.7479 S   0  0  0  0  0  0  0  0  0  0  0  0
    8.3434  -13.1024   26.7962 C   0  0  0  0  0  0  0  0  0  0  0  0
    8.1437  -13.7451   25.4558 C   0  0  0  0  0  0  0  0  0  0  0  0
    9.2522  -14.6858   25.1291 C   0  0  2  0  0  0  0  0  0  0  0  0
    9.0124  -15.3552   23.8573 N   0  0  0  0  0  0  0  0  0  0  0  0
    9.3311  -15.7538   26.1474 C   0  0  0  0  0  0  0  0  0  0  0  0
    9.0305  -16.9416   25.7830 O   0  0  0  0  0  0  0  0  0  0  0  0
    9.7015  -15.5898   27.4529 O   0  0  0  0  0  0  0  0  0  0  0  0
  2  1  1  1
  2  8  1  0
  2  3  1  0
  4  5  1  0
  4  3  1  0
  6  5  1  0
  7  6  1  0
  8  9  2  0
 10 11  1  0
 10  8  1  0
 12 13  1  0
 11 12  1  1
 14 13  1  0
 15 14  1  0
 16 15  1  0
 17 18  2  0
 17 11  1  0
 19 20  1  0
 21 20  1  0
 21 22  1  0
 23 22  1  1
 23 24  1  0
 23 25  1  0
 24 17  1  0
 25 27  1  0
 26 25  2  0
M  END
$$$$
