KKM.pdb
     RDKit          3D

 27 26  0  0  1  0  0  0  0  0999 V2000
    9.0911  -15.4390   18.4066 N   0  0  0  0  0  0  0  0  0  0  0  0
    8.6954  -14.3920   19.3068 C   0  0  1  0  0  0  0  0  0  0  0  0
    7.5158  -13.6007   18.8986 C   0  0  0  0  0  0  0  0  0  0  0  0
    7.1503  -13.7287   17.4616 C   0  0  0  0  0  0  0  0  0  0  0  0
    8.3344  -13.9812   16.5750 C   0  0  0  0  0  0  0  0  0  0  0  0
    7.7737  -14.0327   15.1375 C   0  0  0  0  0  0  0  0  0  0  0  0
    8.8629  -14.1916   14.1990 N   0  0  0  0  0  0  0  0  0  0  0  0
    8.5217  -14.9313   20.7100 C   0  0  0  0  0  0  0  0  0  0  0  0
    7.9160  -14.1900   21.4917 O   0  0  0  0  0  0  0  0  0  0  0  0
    9.0342  -16.1754   21.0163 N   0  0  0  0  0  0  0  0  0  0  0  0
    8.9291  -16.8421   22.2609 C   0  0  1  0  0  0  0  0  0  0  0  0
    9.4279  -18.2674   22.2869 C   0  0  0  0  0  0  0  0  0  0  0  0
    9.1107  -18.9186   20.9664 C   0  0  0  0  0  0  0  0  0  0  0  0
    9.8032  -20.2822   20.8533 C   0  0  0  0  0  0  0  0  0  0  0  0
    9.5013  -20.8688   19.4821 C   0  0  0  0  0  0  0  0  0  0  0  0
   10.2631  -22.0787   19.3289 N   0  0  0  0  0  0  0  0  0  0  0  0
    9.3348  -16.0092   23.3756 C   0  0  0  0  0  0  0  0  0  0  0  0
   10.5139  -15.5106   23.3230 O   0  0  0  0  0  0  0  0  0  0  0  0
    5.9652  -11.5106   26.8711 C   0  0  0  0  0  0  0  0  0  0  0  0
    7.7544  -11.2066   26.9185 S   0  0  0  0  0  0  0  0  0  0  0  0
    8.6312  -12.8170   26.9190 C   0  0  0  0  0  0  0  0  0  0  0  0
    8.1643  -13.6697   25.7769 C   0  0  0  0  0  0  0  0  0  0  0  0
    9.0976  -14.8031   25.5226 C   0  0  2  0  0  0  0  0  0  0  0  0
    8.5693  -15.6963   24.4998 N   0  0  0  0  0  0  0  0  0  0  0  0
    9.2506  -15.6212   26.7437 C   0  0  0  0  0  0  0  0  0  0  0  0
    8.7201  -16.7841   26.7466 O   0  0  0  0  0  0  0  0  0  0  0  0
    9.9145  -15.2488   27.8791 O   0  0  0  0  0  0  0  0  0  0  0  0
  2  1  1  6
  2  8  1  0
  2  3  1  0
  4  5  1  0
  4  3  1  0
  6  5  1  0
  7  6  1  0
  8  9  2  0
 10 11  1  0
 10  8  1  0
 12 13  1  0
 11 12  1  6
 14 13  1  0
 15 14  1  0
 16 15  1  0
 17 18  2  0
 17 11  1  0
 19 20  1  0
 21 20  1  0
 21 22  1  0
 23 22  1  1
 23 24  1  0
 23 25  1  0
 24 17  1  0
 25 27  1  0
 26 25  2  0
M  END
$$$$
