KKM.pdb
     RDKit          3D

 27 26  0  0  1  0  0  0  0  0999 V2000
    9.6674  -15.0747   18.0622 N   0  0  0  0  0  0  0  0  0  0  0  0
   10.3847  -15.7377   19.1153 C   0  0  1  0  0  0  0  0  0  0  0  0
   11.6864  -15.1431   19.4841 C   0  0  0  0  0  0  0  0  0  0  0  0
   12.7930  -15.4340   18.5325 C   0  0  0  0  0  0  0  0  0  0  0  0
   14.0944  -14.8048   18.9357 C   0  0  0  0  0  0  0  0  0  0  0  0
   15.0567  -15.0459   17.7527 C   0  0  0  0  0  0  0  0  0  0  0  0
   16.2704  -14.2854   17.9539 N   0  0  0  0  0  0  0  0  0  0  0  0
    9.5059  -15.9074   20.3356 C   0  0  0  0  0  0  0  0  0  0  0  0
    8.7851  -14.9412   20.6082 O   0  0  0  0  0  0  0  0  0  0  0  0
    9.5643  -17.0912   21.0421 N   0  0  0  0  0  0  0  0  0  0  0  0
    8.7073  -17.4791   22.1003 C   0  0  1  0  0  0  0  0  0  0  0  0
    8.5742  -18.9663   22.3265 C   0  0  0  0  0  0  0  0  0  0  0  0
    7.6933  -19.1996   23.5257 C   0  0  0  0  0  0  0  0  0  0  0  0
    7.4772  -20.7001   23.7569 C   0  0  0  0  0  0  0  0  0  0  0  0
    6.5490  -20.8800   24.9491 C   0  0  0  0  0  0  0  0  0  0  0  0
    6.5098  -22.2772   25.2865 N   0  0  0  0  0  0  0  0  0  0  0  0
    8.8902  -16.6718   23.2902 C   0  0  0  0  0  0  0  0  0  0  0  0
   10.0981  -16.4301   23.6423 O   0  0  0  0  0  0  0  0  0  0  0  0
    6.1246  -11.1306   28.1671 C   0  0  0  0  0  0  0  0  0  0  0  0
    5.7259  -12.3649   26.8968 S   0  0  0  0  0  0  0  0  0  0  0  0
    7.2334  -13.3379   26.5194 C   0  0  0  0  0  0  0  0  0  0  0  0
    6.9736  -14.2935   25.3930 C   0  0  0  0  0  0  0  0  0  0  0  0
    8.1909  -15.0827   25.0527 C   0  0  2  0  0  0  0  0  0  0  0  0
    7.8819  -16.1319   24.0900 N   0  0  0  0  0  0  0  0  0  0  0  0
    8.7071  -15.7678   26.2560 C   0  0  0  0  0  0  0  0  0  0  0  0
    8.1883  -16.8950   26.5629 O   0  0  0  0  0  0  0  0  0  0  0  0
    9.6978  -15.3066   27.0770 O   0  0  0  0  0  0  0  0  0  0  0  0
  2  1  1  6
  2  8  1  0
  2  3  1  0
  4  5  1  0
  4  3  1  0
  6  5  1  0
  7  6  1  0
  8  9  2  0
 10 11  1  0
 10  8  1  0
 12 13  1  0
 11 12  1  1
 14 13  1  0
 15 14  1  0
 16 15  1  0
 17 18  2  0
 17 11  1  0
 19 20  1  0
 21 20  1  0
 21 22  1  0
 23 22  1  1
 23 24  1  0
 23 25  1  0
 24 17  1  0
 25 27  1  0
 26 25  2  0
M  END
$$$$
