KKM.pdb
     RDKit          3D

 27 26  0  0  1  0  0  0  0  0999 V2000
    9.5037  -15.7415   19.1186 N   0  0  0  0  0  0  0  0  0  0  0  0
    8.9426  -14.5842   19.7579 C   0  0  1  0  0  0  0  0  0  0  0  0
    7.8574  -13.9022   19.0221 C   0  0  0  0  0  0  0  0  0  0  0  0
    7.7272  -14.3049   17.5953 C   0  0  0  0  0  0  0  0  0  0  0  0
    8.3574  -13.3253   16.6491 C   0  0  0  0  0  0  0  0  0  0  0  0
    8.0890  -13.8825   15.2345 C   0  0  0  0  0  0  0  0  0  0  0  0
    8.6022  -12.9597   14.2459 N   0  0  0  0  0  0  0  0  0  0  0  0
    8.5112  -14.9111   21.1711 C   0  0  0  0  0  0  0  0  0  0  0  0
    7.9804  -13.9832   21.7913 O   0  0  0  0  0  0  0  0  0  0  0  0
    8.7314  -16.1825   21.6601 N   0  0  0  0  0  0  0  0  0  0  0  0
    8.3730  -16.6608   22.9436 C   0  0  1  0  0  0  0  0  0  0  0  0
    8.2885  -18.1620   23.0855 C   0  0  0  0  0  0  0  0  0  0  0  0
    9.6810  -18.7163   23.2339 C   0  0  0  0  0  0  0  0  0  0  0  0
    9.6557  -20.2494   23.2544 C   0  0  0  0  0  0  0  0  0  0  0  0
   11.0862  -20.7583   23.3550 C   0  0  0  0  0  0  0  0  0  0  0  0
   11.0516  -22.1927   23.4498 N   0  0  0  0  0  0  0  0  0  0  0  0
    9.0609  -15.9619   24.0111 C   0  0  0  0  0  0  0  0  0  0  0  0
   10.2692  -15.6040   23.7803 O   0  0  0  0  0  0  0  0  0  0  0  0
    5.3153  -12.4903   26.6716 C   0  0  0  0  0  0  0  0  0  0  0  0
    6.8965  -11.5981   26.6692 S   0  0  0  0  0  0  0  0  0  0  0  0
    8.1896  -12.6821   25.9520 C   0  0  0  0  0  0  0  0  0  0  0  0
    8.4905  -13.8237   26.8770 C   0  0  0  0  0  0  0  0  0  0  0  0
    9.3264  -14.8622   26.2113 C   0  0  2  0  0  0  0  0  0  0  0  0
    8.5381  -15.6403   25.2645 N   0  0  0  0  0  0  0  0  0  0  0  0
    9.8357  -15.8243   27.2106 C   0  0  0  0  0  0  0  0  0  0  0  0
    9.3182  -16.9931   27.2235 O   0  0  0  0  0  0  0  0  0  0  0  0
   10.8188  -15.5804   28.1286 O   0  0  0  0  0  0  0  0  0  0  0  0
  2  1  1  6
  2  8  1  0
  2  3  1  0
  4  5  1  0
  4  3  1  0
  6  5  1  0
  7  6  1  0
  8  9  2  0
 10 11  1  0
 10  8  1  0
 12 13  1  0
 11 12  1  6
 14 13  1  0
 15 14  1  0
 16 15  1  0
 17 18  2  0
 17 11  1  0
 19 20  1  0
 21 20  1  0
 21 22  1  0
 23 22  1  1
 23 24  1  0
 23 25  1  0
 24 17  1  0
 25 27  1  0
 26 25  2  0
M  END
$$$$
