KKM.pdb
     RDKit          3D

 27 26  0  0  1  0  0  0  0  0999 V2000
    9.6362  -15.2415   18.9893 N   0  0  0  0  0  0  0  0  0  0  0  0
    9.0795  -14.1774   19.7772 C   0  0  1  0  0  0  0  0  0  0  0  0
    8.1586  -13.2634   19.0698 C   0  0  0  0  0  0  0  0  0  0  0  0
    7.4660  -13.8654   17.8982 C   0  0  0  0  0  0  0  0  0  0  0  0
    8.2846  -13.8125   16.6416 C   0  0  0  0  0  0  0  0  0  0  0  0
    7.3456  -14.2912   15.5134 C   0  0  0  0  0  0  0  0  0  0  0  0
    8.0726  -14.3313   14.2636 N   0  0  0  0  0  0  0  0  0  0  0  0
    8.4358  -14.7234   21.0333 C   0  0  0  0  0  0  0  0  0  0  0  0
    7.8530  -13.8900   21.7355 O   0  0  0  0  0  0  0  0  0  0  0  0
    8.5378  -16.0725   21.3047 N   0  0  0  0  0  0  0  0  0  0  0  0
    7.9987  -16.7447   22.4282 C   0  0  1  0  0  0  0  0  0  0  0  0
    7.8746  -18.2443   22.2993 C   0  0  0  0  0  0  0  0  0  0  0  0
    7.3047  -18.7975   23.5790 C   0  0  0  0  0  0  0  0  0  0  0  0
    7.1670  -20.3227   23.4973 C   0  0  0  0  0  0  0  0  0  0  0  0
    6.5278  -20.8231   24.7843 C   0  0  0  0  0  0  0  0  0  0  0  0
    6.5411  -22.2609   24.7679 N   0  0  0  0  0  0  0  0  0  0  0  0
    8.5419  -16.2599   23.6815 C   0  0  0  0  0  0  0  0  0  0  0  0
    9.8179  -16.1778   23.7630 O   0  0  0  0  0  0  0  0  0  0  0  0
    5.8967  -11.2389   26.0626 C   0  0  0  0  0  0  0  0  0  0  0  0
    6.8521  -11.6057   27.5623 S   0  0  0  0  0  0  0  0  0  0  0  0
    8.0069  -12.9853   27.2089 C   0  0  0  0  0  0  0  0  0  0  0  0
    7.4728  -13.8476   26.1040 C   0  0  0  0  0  0  0  0  0  0  0  0
    8.4011  -14.9694   25.7875 C   0  0  2  0  0  0  0  0  0  0  0  0
    7.8136  -15.8738   24.8077 N   0  0  0  0  0  0  0  0  0  0  0  0
    8.6518  -15.7803   26.9972 C   0  0  0  0  0  0  0  0  0  0  0  0
    8.0324  -16.8935   27.1016 O   0  0  0  0  0  0  0  0  0  0  0  0
    9.4934  -15.4500   28.0225 O   0  0  0  0  0  0  0  0  0  0  0  0
  2  1  1  6
  2  8  1  0
  2  3  1  0
  4  5  1  0
  4  3  1  0
  6  5  1  0
  7  6  1  0
  8  9  2  0
 10 11  1  0
 10  8  1  0
 12 13  1  0
 11 12  1  6
 14 13  1  0
 15 14  1  0
 16 15  1  0
 17 18  2  0
 17 11  1  0
 19 20  1  0
 21 20  1  0
 21 22  1  0
 23 22  1  1
 23 24  1  0
 23 25  1  0
 24 17  1  0
 25 27  1  0
 26 25  2  0
M  END
$$$$
