KKM.pdb
     RDKit          3D

 27 26  0  0  1  0  0  0  0  0999 V2000
   10.0676  -19.3644   19.5523 N   0  0  0  0  0  0  0  0  0  0  0  0
    8.8599  -18.9324   20.1987 C   0  0  1  0  0  0  0  0  0  0  0  0
    8.2289  -19.9107   21.1090 C   0  0  0  0  0  0  0  0  0  0  0  0
    9.1783  -20.6293   22.0017 C   0  0  0  0  0  0  0  0  0  0  0  0
    8.4920  -21.5435   22.9740 C   0  0  0  0  0  0  0  0  0  0  0  0
    9.6190  -22.1629   23.8283 C   0  0  0  0  0  0  0  0  0  0  0  0
    9.0456  -23.0557   24.8114 N   0  0  0  0  0  0  0  0  0  0  0  0
    9.0730  -17.6071   20.8977 C   0  0  0  0  0  0  0  0  0  0  0  0
   10.2382  -17.3644   21.2301 O   0  0  0  0  0  0  0  0  0  0  0  0
    7.9877  -16.7822   21.1118 N   0  0  0  0  0  0  0  0  0  0  0  0
    8.0127  -15.5060   21.7245 C   0  0  1  0  0  0  0  0  0  0  0  0
    6.9266  -14.5491   21.2940 C   0  0  0  0  0  0  0  0  0  0  0  0
    7.5546  -13.4079   20.5378 C   0  0  0  0  0  0  0  0  0  0  0  0
    7.7505  -13.7770   19.0623 C   0  0  0  0  0  0  0  0  0  0  0  0
    8.3316  -12.5745   18.3330 C   0  0  0  0  0  0  0  0  0  0  0  0
    8.6210  -12.9619   16.9788 N   0  0  0  0  0  0  0  0  0  0  0  0
    8.2652  -15.5769   23.1501 C   0  0  0  0  0  0  0  0  0  0  0  0
    7.5822  -16.4335   23.8143 O   0  0  0  0  0  0  0  0  0  0  0  0
    5.8711  -10.8807   27.6346 C   0  0  0  0  0  0  0  0  0  0  0  0
    5.8758  -12.5162   26.8465 S   0  0  0  0  0  0  0  0  0  0  0  0
    7.6032  -12.9732   26.4354 C   0  0  0  0  0  0  0  0  0  0  0  0
    7.6375  -14.2621   25.6692 C   0  0  0  0  0  0  0  0  0  0  0  0
    9.0313  -14.6498   25.3121 C   0  0  2  0  0  0  0  0  0  0  0  0
    9.1779  -14.8052   23.8707 N   0  0  0  0  0  0  0  0  0  0  0  0
    9.3623  -15.9631   25.9030 C   0  0  0  0  0  0  0  0  0  0  0  0
    9.3601  -16.0553   27.1780 O   0  0  0  0  0  0  0  0  0  0  0  0
    9.6705  -17.0992   25.2081 O   0  0  0  0  0  0  0  0  0  0  0  0
  2  1  1  1
  2  8  1  0
  2  3  1  0
  4  5  1  0
  4  3  1  0
  6  5  1  0
  7  6  1  0
  8  9  2  0
 10 11  1  0
 10  8  1  0
 12 13  1  0
 11 12  1  1
 14 13  1  0
 15 14  1  0
 16 15  1  0
 17 18  2  0
 17 11  1  0
 19 20  1  0
 21 20  1  0
 21 22  1  0
 23 22  1  6
 23 24  1  0
 23 25  1  0
 24 17  1  0
 25 27  1  0
 26 25  2  0
M  END
$$$$
