YVV.pdb
     RDKit          3D

 27 27  0  0  1  0  0  0  0  0999 V2000
   14.5212  -16.2538  -15.0563 O   0  0  0  0  0  0  0  0  0  0  0  0
   15.5188  -15.3052  -15.2083 C   0  0  0  0  0  0  0  0  0  0  0  0
   16.8004  -15.6843  -14.8673 C   0  0  0  0  0  0  0  0  0  0  0  0
   17.8279  -14.7731  -15.0018 C   0  0  0  0  0  0  0  0  0  0  0  0
   17.5746  -13.4883  -15.4754 C   0  0  0  0  0  0  0  0  0  0  0  0
   18.7005  -12.5595  -15.5993 C   0  0  0  0  0  0  0  0  0  0  0  0
   19.0982  -12.3134  -17.0294 C   0  0  2  0  0  0  0  0  0  0  0  0
   19.7381  -13.4671  -17.6271 N   0  0  0  0  0  0  0  0  0  0  0  0
   20.0191  -11.1648  -17.1698 C   0  0  0  0  0  0  0  0  0  0  0  0
   21.2597  -11.4282  -17.0205 O   0  0  0  0  0  0  0  0  0  0  0  0
   16.2964  -13.0991  -15.8193 C   0  0  0  0  0  0  0  0  0  0  0  0
   15.2923  -14.0329  -15.6733 C   0  0  0  0  0  0  0  0  0  0  0  0
   19.0183   -7.8675  -19.2133 C   0  0  0  0  0  0  0  0  0  0  0  0
   20.4891   -8.1907  -18.9679 C   0  0  2  0  0  0  0  0  0  0  0  0
   20.9200   -9.1763  -20.0209 C   0  0  0  0  0  0  0  0  0  0  0  0
   20.6632   -8.8051  -17.5858 C   0  0  2  0  0  0  0  0  0  0  0  0
   19.6422   -9.8616  -17.4439 N   0  0  0  0  0  0  0  0  0  0  0  0
   20.3124   -7.8192  -16.5304 C   0  0  0  0  0  0  0  0  0  0  0  0
   19.1210   -7.7486  -16.0812 O   0  0  0  0  0  0  0  0  0  0  0  0
   21.2466   -5.3313  -12.5502 C   0  0  0  0  0  0  0  0  0  0  0  0
   21.4818   -6.4001  -13.6106 C   0  0  2  0  0  0  0  0  0  0  0  0
   22.9697   -6.5570  -13.7547 C   0  0  0  0  0  0  0  0  0  0  0  0
   20.8163   -6.0079  -14.9126 C   0  0  2  0  0  0  0  0  0  0  0  0
   21.2467   -6.9266  -15.9701 N   0  0  0  0  0  0  0  0  0  0  0  0
   21.2129   -4.6180  -15.2225 C   0  0  0  0  0  0  0  0  0  0  0  0
   22.0998   -4.3702  -16.2580 O   0  0  0  0  0  0  0  0  0  0  0  0
   20.7696   -3.6398  -14.5732 O   0  0  0  0  0  0  0  0  0  0  0  0
  2 12  2  0
  2  1  1  0
  3  2  1  0
  4  3  2  0
  5  4  1  0
  5 11  2  0
  6  5  1  0
  7  9  1  0
  7  6  1  0
  7  8  1  1
  9 10  2  0
 11 12  1  0
 14 13  1  6
 15 14  1  0
 16 14  1  0
 16 17  1  6
 17  9  1  0
 18 24  1  0
 18 16  1  0
 19 18  2  0
 21 23  1  0
 21 20  1  1
 22 21  1  0
 23 24  1  6
 25 23  1  0
 25 26  1  0
 27 25  2  0
M  END
$$$$
