YVV.pdb
     RDKit          3D

 27 27  0  0  1  0  0  0  0  0999 V2000
   19.5306  -18.1083  -13.4097 O   0  0  0  0  0  0  0  0  0  0  0  0
   20.3175  -18.2927  -14.5344 C   0  0  0  0  0  0  0  0  0  0  0  0
   20.9815  -19.4968  -14.6434 C   0  0  0  0  0  0  0  0  0  0  0  0
   21.7776  -19.7265  -15.7467 C   0  0  0  0  0  0  0  0  0  0  0  0
   21.9092  -18.7563  -16.7368 C   0  0  0  0  0  0  0  0  0  0  0  0
   22.7665  -19.0502  -17.8875 C   0  0  0  0  0  0  0  0  0  0  0  0
   24.1752  -18.5533  -17.7068 C   0  0  2  0  0  0  0  0  0  0  0  0
   24.8784  -18.4278  -18.9668 N   0  0  0  0  0  0  0  0  0  0  0  0
   24.9766  -19.4342  -16.8300 C   0  0  0  0  0  0  0  0  0  0  0  0
   25.0359  -20.6603  -17.1818 O   0  0  0  0  0  0  0  0  0  0  0  0
   21.2494  -17.5486  -16.6375 C   0  0  0  0  0  0  0  0  0  0  0  0
   20.4619  -17.3502  -15.5229 C   0  0  0  0  0  0  0  0  0  0  0  0
   28.2584  -18.3839  -14.6903 C   0  0  0  0  0  0  0  0  0  0  0  0
   27.8681  -19.7955  -15.1182 C   0  0  2  0  0  0  0  0  0  0  0  0
   28.1657  -19.9236  -16.5882 C   0  0  0  0  0  0  0  0  0  0  0  0
   26.3827  -20.0218  -14.8721 C   0  0  2  0  0  0  0  0  0  0  0  0
   25.6479  -19.0349  -15.6874 N   0  0  0  0  0  0  0  0  0  0  0  0
   26.0281  -19.6702  -13.4722 C   0  0  0  0  0  0  0  0  0  0  0  0
   25.9159  -18.4496  -13.1203 O   0  0  0  0  0  0  0  0  0  0  0  0
   24.2905  -22.3353  -10.7024 C   0  0  0  0  0  0  0  0  0  0  0  0
   24.2029  -20.8150  -10.6468 C   0  0  2  0  0  0  0  0  0  0  0  0
   23.0420  -20.4093  -11.5111 C   0  0  0  0  0  0  0  0  0  0  0  0
   25.5053  -20.1938  -11.1048 C   0  0  2  0  0  0  0  0  0  0  0  0
   25.7950  -20.6341  -12.4722 N   0  0  0  0  0  0  0  0  0  0  0  0
   26.5662  -20.6271  -10.1711 C   0  0  0  0  0  0  0  0  0  0  0  0
   26.5635  -20.1656   -8.8645 O   0  0  0  0  0  0  0  0  0  0  0  0
   27.4827  -21.4090  -10.5230 O   0  0  0  0  0  0  0  0  0  0  0  0
  2 12  2  0
  2  1  1  0
  3  2  1  0
  4  3  2  0
  5  4  1  0
  5 11  2  0
  6  5  1  0
  7  9  1  0
  7  6  1  0
  7  8  1  6
  9 10  2  0
 11 12  1  0
 14 13  1  6
 15 14  1  0
 16 14  1  0
 16 17  1  6
 17  9  1  0
 18 24  1  0
 18 16  1  0
 19 18  2  0
 21 23  1  0
 21 20  1  6
 22 21  1  0
 23 24  1  6
 25 23  1  0
 25 26  1  0
 27 25  2  0
M  END
$$$$
