YVV.pdb
     RDKit          3D

 27 27  0  0  1  0  0  0  0  0999 V2000
   17.4911  -17.7610  -22.3512 O   0  0  0  0  0  0  0  0  0  0  0  0
   17.9172  -16.8687  -21.3815 C   0  0  0  0  0  0  0  0  0  0  0  0
   17.3079  -16.9480  -20.1466 C   0  0  0  0  0  0  0  0  0  0  0  0
   17.6992  -16.0796  -19.1483 C   0  0  0  0  0  0  0  0  0  0  0  0
   18.6955  -15.1357  -19.3841 C   0  0  0  0  0  0  0  0  0  0  0  0
   19.0738  -14.2374  -18.2907 C   0  0  0  0  0  0  0  0  0  0  0  0
   20.3403  -14.6628  -17.5987 C   0  0  2  0  0  0  0  0  0  0  0  0
   20.1975  -15.9391  -16.9292 N   0  0  0  0  0  0  0  0  0  0  0  0
   20.7940  -13.6762  -16.5947 C   0  0  0  0  0  0  0  0  0  0  0  0
   20.2495  -13.7674  -15.4432 O   0  0  0  0  0  0  0  0  0  0  0  0
   19.3112  -15.0480  -20.6157 C   0  0  0  0  0  0  0  0  0  0  0  0
   18.8975  -15.9300  -21.5916 C   0  0  0  0  0  0  0  0  0  0  0  0
   24.1410  -10.7642  -14.6415 C   0  0  0  0  0  0  0  0  0  0  0  0
   23.6380  -11.8782  -15.5547 C   0  0  2  0  0  0  0  0  0  0  0  0
   24.3033  -11.7038  -16.8936 C   0  0  0  0  0  0  0  0  0  0  0  0
   22.1271  -11.7781  -15.7138 C   0  0  2  0  0  0  0  0  0  0  0  0
   21.7403  -12.6891  -16.8089 N   0  0  0  0  0  0  0  0  0  0  0  0
   21.7447  -10.4310  -16.2120 C   0  0  0  0  0  0  0  0  0  0  0  0
   22.0335  -10.0753  -17.4021 O   0  0  0  0  0  0  0  0  0  0  0  0
   18.5867   -8.1493  -14.7962 C   0  0  0  0  0  0  0  0  0  0  0  0
   19.2900   -7.9770  -16.1370 C   0  0  2  0  0  0  0  0  0  0  0  0
   18.6925   -8.9837  -17.0798 C   0  0  0  0  0  0  0  0  0  0  0  0
   20.7846   -8.1562  -15.9764 C   0  0  2  0  0  0  0  0  0  0  0  0
   21.0543   -9.4876  -15.4266 N   0  0  0  0  0  0  0  0  0  0  0  0
   21.2721   -7.0974  -15.0675 C   0  0  0  0  0  0  0  0  0  0  0  0
   21.4193   -5.8018  -15.5367 O   0  0  0  0  0  0  0  0  0  0  0  0
   21.5620   -7.3316  -13.8690 O   0  0  0  0  0  0  0  0  0  0  0  0
  2 12  2  0
  2  1  1  0
  3  2  1  0
  4  3  2  0
  5  4  1  0
  5 11  2  0
  6  5  1  0
  7  9  1  0
  7  6  1  0
  7  8  1  1
  9 10  2  0
 11 12  1  0
 14 13  1  1
 15 14  1  0
 16 14  1  0
 16 17  1  6
 17  9  1  0
 18 24  1  0
 18 16  1  0
 19 18  2  0
 21 23  1  0
 21 20  1  1
 22 21  1  0
 23 24  1  1
 25 23  1  0
 25 26  1  0
 27 25  2  0
M  END
$$$$
