YVV.pdb
     RDKit          3D

 27 27  0  0  1  0  0  0  0  0999 V2000
   18.5310  -23.0678   -9.8858 O   0  0  0  0  0  0  0  0  0  0  0  0
   19.6597  -22.3980  -10.3280 C   0  0  0  0  0  0  0  0  0  0  0  0
   19.9528  -21.1954   -9.7194 C   0  0  0  0  0  0  0  0  0  0  0  0
   21.0676  -20.4915  -10.1264 C   0  0  0  0  0  0  0  0  0  0  0  0
   21.8859  -20.9882  -11.1377 C   0  0  0  0  0  0  0  0  0  0  0  0
   23.0570  -20.2020  -11.5324 C   0  0  0  0  0  0  0  0  0  0  0  0
   24.3517  -20.9396  -11.3231 C   0  0  2  0  0  0  0  0  0  0  0  0
   24.7308  -20.9966   -9.9264 N   0  0  0  0  0  0  0  0  0  0  0  0
   25.4746  -20.3326  -12.0698 C   0  0  0  0  0  0  0  0  0  0  0  0
   26.1309  -19.4313  -11.4472 O   0  0  0  0  0  0  0  0  0  0  0  0
   21.6018  -22.1901  -11.7529 C   0  0  0  0  0  0  0  0  0  0  0  0
   20.4808  -22.8688  -11.3233 C   0  0  0  0  0  0  0  0  0  0  0  0
   28.9061  -20.3186  -15.5464 C   0  0  0  0  0  0  0  0  0  0  0  0
   27.8256  -21.0000  -14.7119 C   0  0  2  0  0  0  0  0  0  0  0  0
   26.9714  -21.8112  -15.6489 C   0  0  0  0  0  0  0  0  0  0  0  0
   26.9705  -19.9524  -14.0124 C   0  0  2  0  0  0  0  0  0  0  0  0
   25.8537  -20.6629  -13.3593 N   0  0  0  0  0  0  0  0  0  0  0  0
   26.3060  -19.0731  -15.0095 C   0  0  0  0  0  0  0  0  0  0  0  0
   25.2648  -19.4699  -15.6298 O   0  0  0  0  0  0  0  0  0  0  0  0
   25.6579  -14.6499  -17.0813 C   0  0  0  0  0  0  0  0  0  0  0  0
   25.9745  -15.5567  -15.8982 C   0  0  2  0  0  0  0  0  0  0  0  0
   27.2591  -15.0610  -15.2954 C   0  0  0  0  0  0  0  0  0  0  0  0
   26.0698  -16.9988  -16.3488 C   0  0  2  0  0  0  0  0  0  0  0  0
   26.7665  -17.7796  -15.3228 N   0  0  0  0  0  0  0  0  0  0  0  0
   26.8084  -17.0250  -17.6289 C   0  0  0  0  0  0  0  0  0  0  0  0
   26.1208  -16.8782  -18.8231 O   0  0  0  0  0  0  0  0  0  0  0  0
   28.0533  -17.1775  -17.6751 O   0  0  0  0  0  0  0  0  0  0  0  0
  2 12  2  0
  2  1  1  0
  3  2  1  0
  4  3  2  0
  5  4  1  0
  5 11  2  0
  6  5  1  0
  7  9  1  0
  7  6  1  0
  7  8  1  1
  9 10  2  0
 11 12  1  0
 14 13  1  6
 15 14  1  0
 16 14  1  0
 16 17  1  6
 17  9  1  0
 18 24  1  0
 18 16  1  0
 19 18  2  0
 21 23  1  0
 21 20  1  6
 22 21  1  0
 23 24  1  1
 25 23  1  0
 25 26  1  0
 27 25  2  0
M  END
$$$$
