YVV.pdb
     RDKit          3D

 27 27  0  0  1  0  0  0  0  0999 V2000
   28.7365  -18.3116   -3.5288 O   0  0  0  0  0  0  0  0  0  0  0  0
   28.4777  -18.9458   -4.7325 C   0  0  0  0  0  0  0  0  0  0  0  0
   28.0828  -18.1498   -5.7874 C   0  0  0  0  0  0  0  0  0  0  0  0
   27.8137  -18.7367   -7.0068 C   0  0  0  0  0  0  0  0  0  0  0  0
   27.9390  -20.1139   -7.1706 C   0  0  0  0  0  0  0  0  0  0  0  0
   27.6414  -20.6868   -8.4854 C   0  0  0  0  0  0  0  0  0  0  0  0
   26.2391  -20.3934   -8.9450 C   0  0  2  0  0  0  0  0  0  0  0  0
   25.2426  -21.0127   -8.0957 N   0  0  0  0  0  0  0  0  0  0  0  0
   25.9928  -20.8459  -10.3313 C   0  0  0  0  0  0  0  0  0  0  0  0
   26.0520  -22.1073  -10.5209 O   0  0  0  0  0  0  0  0  0  0  0  0
   28.3334  -20.9191   -6.1219 C   0  0  0  0  0  0  0  0  0  0  0  0
   28.5947  -20.3018   -4.9167 C   0  0  0  0  0  0  0  0  0  0  0  0
   23.0211  -20.4188  -12.1556 C   0  0  0  0  0  0  0  0  0  0  0  0
   24.1223  -21.3545  -12.6454 C   0  0  2  0  0  0  0  0  0  0  0  0
   24.2447  -22.4745  -11.6473 C   0  0  0  0  0  0  0  0  0  0  0  0
   25.4421  -20.6011  -12.7381 C   0  0  2  0  0  0  0  0  0  0  0  0
   25.7108  -20.0221  -11.4072 N   0  0  0  0  0  0  0  0  0  0  0  0
   25.3040  -19.4173  -13.6262 C   0  0  0  0  0  0  0  0  0  0  0  0
   24.6356  -18.3992  -13.2479 O   0  0  0  0  0  0  0  0  0  0  0  0
   27.9347  -18.7846  -16.8358 C   0  0  0  0  0  0  0  0  0  0  0  0
   27.2908  -17.6869  -15.9975 C   0  0  2  0  0  0  0  0  0  0  0  0
   28.1619  -17.4882  -14.7889 C   0  0  0  0  0  0  0  0  0  0  0  0
   25.8729  -18.0677  -15.6279 C   0  0  2  0  0  0  0  0  0  0  0  0
   25.8888  -19.3425  -14.9051 N   0  0  0  0  0  0  0  0  0  0  0  0
   25.0928  -18.1759  -16.8788 C   0  0  0  0  0  0  0  0  0  0  0  0
   24.8693  -17.0466  -17.6502 O   0  0  0  0  0  0  0  0  0  0  0  0
   24.6184  -19.2686  -17.2739 O   0  0  0  0  0  0  0  0  0  0  0  0
  2 12  2  0
  2  1  1  0
  3  2  1  0
  4  3  2  0
  5  4  1  0
  5 11  2  0
  6  5  1  0
  7  9  1  0
  7  6  1  0
  7  8  1  1
  9 10  2  0
 11 12  1  0
 14 13  1  1
 15 14  1  0
 16 14  1  0
 16 17  1  1
 17  9  1  0
 18 24  1  0
 18 16  1  0
 19 18  2  0
 21 23  1  0
 21 20  1  6
 22 21  1  0
 23 24  1  6
 25 23  1  0
 25 26  1  0
 27 25  2  0
M  END
$$$$
