YVV.pdb
     RDKit          3D

 27 27  0  0  1  0  0  0  0  0999 V2000
   19.6830  -16.5043  -18.0234 O   0  0  0  0  0  0  0  0  0  0  0  0
   20.3831  -17.2794  -17.1138 C   0  0  0  0  0  0  0  0  0  0  0  0
   21.6957  -16.9305  -16.8734 C   0  0  0  0  0  0  0  0  0  0  0  0
   22.4337  -17.6733  -15.9748 C   0  0  0  0  0  0  0  0  0  0  0  0
   21.8614  -18.7605  -15.3195 C   0  0  0  0  0  0  0  0  0  0  0  0
   22.6881  -19.5160  -14.3753 C   0  0  0  0  0  0  0  0  0  0  0  0
   23.7921  -20.2827  -15.0514 C   0  0  2  0  0  0  0  0  0  0  0  0
   23.2847  -21.3392  -15.9024 N   0  0  0  0  0  0  0  0  0  0  0  0
   24.7290  -20.8946  -14.0844 C   0  0  0  0  0  0  0  0  0  0  0  0
   24.3183  -21.9608  -13.5142 O   0  0  0  0  0  0  0  0  0  0  0  0
   20.5493  -19.1179  -15.5527 C   0  0  0  0  0  0  0  0  0  0  0  0
   19.8392  -18.3555  -16.4561 C   0  0  0  0  0  0  0  0  0  0  0  0
   29.1546  -21.3399  -11.9450 C   0  0  0  0  0  0  0  0  0  0  0  0
   28.2595  -20.7897  -13.0514 C   0  0  2  0  0  0  0  0  0  0  0  0
   28.4860  -19.3033  -13.1225 C   0  0  0  0  0  0  0  0  0  0  0  0
   26.7990  -21.0730  -12.7282 C   0  0  2  0  0  0  0  0  0  0  0  0
   25.9838  -20.4071  -13.7630 N   0  0  0  0  0  0  0  0  0  0  0  0
   26.4047  -20.3952  -11.4656 C   0  0  0  0  0  0  0  0  0  0  0  0
   26.1533  -19.1450  -11.4538 O   0  0  0  0  0  0  0  0  0  0  0  0
   24.5387  -20.2799   -6.9753 C   0  0  0  0  0  0  0  0  0  0  0  0
   24.9337  -21.0723   -8.2155 C   0  0  2  0  0  0  0  0  0  0  0  0
   25.4579  -22.3989   -7.7415 C   0  0  0  0  0  0  0  0  0  0  0  0
   25.9567  -20.3070   -9.0277 C   0  0  2  0  0  0  0  0  0  0  0  0
   26.2822  -21.0702  -10.2357 N   0  0  0  0  0  0  0  0  0  0  0  0
   27.1538  -20.1149   -8.1821 C   0  0  0  0  0  0  0  0  0  0  0  0
   27.1831  -19.0857   -7.2546 O   0  0  0  0  0  0  0  0  0  0  0  0
   28.1594  -20.8602   -8.2743 O   0  0  0  0  0  0  0  0  0  0  0  0
  2 12  2  0
  2  1  1  0
  3  2  1  0
  4  3  2  0
  5  4  1  0
  5 11  2  0
  6  5  1  0
  7  9  1  0
  7  6  1  0
  7  8  1  1
  9 10  2  0
 11 12  1  0
 14 13  1  1
 15 14  1  0
 16 14  1  0
 16 17  1  6
 17  9  1  0
 18 24  1  0
 18 16  1  0
 19 18  2  0
 21 23  1  0
 21 20  1  1
 22 21  1  0
 23 24  1  6
 25 23  1  0
 25 26  1  0
 27 25  2  0
M  END
$$$$
