YVV.pdb
     RDKit          3D

 27 27  0  0  1  0  0  0  0  0999 V2000
   27.1029  -13.9123  -25.3422 O   0  0  0  0  0  0  0  0  0  0  0  0
   26.4251  -13.5398  -24.1934 C   0  0  0  0  0  0  0  0  0  0  0  0
   25.0695  -13.7919  -24.1566 C   0  0  0  0  0  0  0  0  0  0  0  0
   24.3515  -13.4384  -23.0326 C   0  0  0  0  0  0  0  0  0  0  0  0
   24.9864  -12.8352  -21.9500 C   0  0  0  0  0  0  0  0  0  0  0  0
   24.1785  -12.4796  -20.7811 C   0  0  0  0  0  0  0  0  0  0  0  0
   24.4339  -13.3775  -19.6010 C   0  0  2  0  0  0  0  0  0  0  0  0
   23.9928  -14.7362  -19.8401 N   0  0  0  0  0  0  0  0  0  0  0  0
   23.7670  -12.8976  -18.3714 C   0  0  0  0  0  0  0  0  0  0  0  0
   22.6204  -13.4049  -18.1291 O   0  0  0  0  0  0  0  0  0  0  0  0
   26.3418  -12.5786  -21.9765 C   0  0  0  0  0  0  0  0  0  0  0  0
   27.0305  -12.9440  -23.1141 C   0  0  0  0  0  0  0  0  0  0  0  0
   23.9045  -11.2296  -13.8217 C   0  0  0  0  0  0  0  0  0  0  0  0
   24.4683  -11.8761  -15.0834 C   0  0  2  0  0  0  0  0  0  0  0  0
   25.8170  -11.2613  -15.3456 C   0  0  0  0  0  0  0  0  0  0  0  0
   23.5430  -11.6095  -16.2627 C   0  0  2  0  0  0  0  0  0  0  0  0
   24.2832  -11.9640  -17.4896 N   0  0  0  0  0  0  0  0  0  0  0  0
   23.2866  -10.1523  -16.4035 C   0  0  0  0  0  0  0  0  0  0  0  0
   24.1754   -9.3839  -16.8993 O   0  0  0  0  0  0  0  0  0  0  0  0
   19.5473   -8.4235  -16.6597 C   0  0  0  0  0  0  0  0  0  0  0  0
   20.8443   -7.7311  -17.0604 C   0  0  2  0  0  0  0  0  0  0  0  0
   21.1563   -8.1611  -18.4664 C   0  0  0  0  0  0  0  0  0  0  0  0
   21.9528   -8.0845  -16.0918 C   0  0  2  0  0  0  0  0  0  0  0  0
   22.0784   -9.5425  -16.0138 N   0  0  0  0  0  0  0  0  0  0  0  0
   21.6034   -7.5102  -14.7753 C   0  0  0  0  0  0  0  0  0  0  0  0
   21.7139   -6.1443  -14.5693 O   0  0  0  0  0  0  0  0  0  0  0  0
   21.2045   -8.2242  -13.8233 O   0  0  0  0  0  0  0  0  0  0  0  0
  2 12  2  0
  2  1  1  0
  3  2  1  0
  4  3  2  0
  5  4  1  0
  5 11  2  0
  6  5  1  0
  7  9  1  0
  7  6  1  0
  7  8  1  6
  9 10  2  0
 11 12  1  0
 14 13  1  1
 15 14  1  0
 16 14  1  0
 16 17  1  6
 17  9  1  0
 18 24  1  0
 18 16  1  0
 19 18  2  0
 21 23  1  0
 21 20  1  1
 22 21  1  0
 23 24  1  1
 25 23  1  0
 25 26  1  0
 27 25  2  0
M  END
$$$$
