YVV.pdb
     RDKit          3D

 27 27  0  0  1  0  0  0  0  0999 V2000
   20.5237  -19.6800  -14.5272 O   0  0  0  0  0  0  0  0  0  0  0  0
   20.6253  -18.3603  -14.9348 C   0  0  0  0  0  0  0  0  0  0  0  0
   19.5798  -17.5219  -14.6083 C   0  0  0  0  0  0  0  0  0  0  0  0
   19.6361  -16.1980  -14.9931 C   0  0  0  0  0  0  0  0  0  0  0  0
   20.7333  -15.7146  -15.7013 C   0  0  0  0  0  0  0  0  0  0  0  0
   20.7436  -14.3012  -16.0859 C   0  0  0  0  0  0  0  0  0  0  0  0
   19.8406  -14.0082  -17.2532 C   0  0  2  0  0  0  0  0  0  0  0  0
   20.2608  -14.6945  -18.4575 N   0  0  0  0  0  0  0  0  0  0  0  0
   19.7662  -12.5637  -17.5610 C   0  0  0  0  0  0  0  0  0  0  0  0
   20.6701  -12.1171  -18.3447 O   0  0  0  0  0  0  0  0  0  0  0  0
   21.7842  -16.5447  -16.0329 C   0  0  0  0  0  0  0  0  0  0  0  0
   21.6974  -17.8619  -15.6338 C   0  0  0  0  0  0  0  0  0  0  0  0
   17.3444  -10.7274  -19.6004 C   0  0  0  0  0  0  0  0  0  0  0  0
   17.3718  -10.1129  -18.2041 C   0  0  2  0  0  0  0  0  0  0  0  0
   17.0750   -8.6443  -18.3478 C   0  0  0  0  0  0  0  0  0  0  0  0
   18.7475  -10.3014  -17.5797 C   0  0  2  0  0  0  0  0  0  0  0  0
   18.8131  -11.6864  -17.0735 N   0  0  0  0  0  0  0  0  0  0  0  0
   18.8840   -9.4637  -16.3596 C   0  0  0  0  0  0  0  0  0  0  0  0
   18.1399   -9.6721  -15.3451 O   0  0  0  0  0  0  0  0  0  0  0  0
   22.1834   -6.9533  -15.6683 C   0  0  0  0  0  0  0  0  0  0  0  0
   21.3194   -7.5297  -14.5533 C   0  0  2  0  0  0  0  0  0  0  0  0
   21.9062   -8.8641  -14.1871 C   0  0  0  0  0  0  0  0  0  0  0  0
   19.8786   -7.6396  -15.0048 C   0  0  2  0  0  0  0  0  0  0  0  0
   19.8200   -8.4176  -16.2453 N   0  0  0  0  0  0  0  0  0  0  0  0
   19.3637   -6.2696  -15.2121 C   0  0  0  0  0  0  0  0  0  0  0  0
   19.0488   -5.4799  -14.1178 O   0  0  0  0  0  0  0  0  0  0  0  0
   19.1986   -5.7880  -16.3593 O   0  0  0  0  0  0  0  0  0  0  0  0
  2 12  2  0
  2  1  1  0
  3  2  1  0
  4  3  2  0
  5  4  1  0
  5 11  2  0
  6  5  1  0
  7  9  1  0
  7  6  1  0
  7  8  1  6
  9 10  2  0
 11 12  1  0
 14 13  1  6
 15 14  1  0
 16 14  1  0
 16 17  1  1
 17  9  1  0
 18 24  1  0
 18 16  1  0
 19 18  2  0
 21 23  1  0
 21 20  1  6
 22 21  1  0
 23 24  1  6
 25 23  1  0
 25 26  1  0
 27 25  2  0
M  END
$$$$
