YVV.pdb
     RDKit          3D

 27 27  0  0  1  0  0  0  0  0999 V2000
   23.0945  -14.1955  -19.8294 O   0  0  0  0  0  0  0  0  0  0  0  0
   23.4610  -15.1334  -18.8786 C   0  0  0  0  0  0  0  0  0  0  0  0
   22.7154  -16.2924  -18.8223 C   0  0  0  0  0  0  0  0  0  0  0  0
   23.0428  -17.2564  -17.8910 C   0  0  0  0  0  0  0  0  0  0  0  0
   24.1115  -17.0622  -17.0196 C   0  0  0  0  0  0  0  0  0  0  0  0
   24.4172  -18.1165  -16.0499 C   0  0  0  0  0  0  0  0  0  0  0  0
   25.5725  -18.9819  -16.4747 C   0  0  2  0  0  0  0  0  0  0  0  0
   25.2374  -19.8307  -17.5995 N   0  0  0  0  0  0  0  0  0  0  0  0
   26.0573  -19.8529  -15.3823 C   0  0  0  0  0  0  0  0  0  0  0  0
   25.3648  -20.9031  -15.1625 O   0  0  0  0  0  0  0  0  0  0  0  0
   24.8637  -15.9066  -17.0675 C   0  0  0  0  0  0  0  0  0  0  0  0
   24.5107  -14.9631  -18.0094 C   0  0  0  0  0  0  0  0  0  0  0  0
   29.2985  -21.0007  -11.8140 C   0  0  0  0  0  0  0  0  0  0  0  0
   28.9594  -20.2797  -13.1152 C   0  0  2  0  0  0  0  0  0  0  0  0
   29.2091  -18.8110  -12.8996 C   0  0  0  0  0  0  0  0  0  0  0  0
   27.4962  -20.5065  -13.4696 C   0  0  2  0  0  0  0  0  0  0  0  0
   27.1768  -19.6170  -14.6034 N   0  0  0  0  0  0  0  0  0  0  0  0
   26.6150  -20.0259  -12.3735 C   0  0  0  0  0  0  0  0  0  0  0  0
   26.4600  -18.7767  -12.1687 O   0  0  0  0  0  0  0  0  0  0  0  0
   23.0737  -20.3101  -11.7556 C   0  0  0  0  0  0  0  0  0  0  0  0
   23.7220  -20.7999  -10.4664 C   0  0  2  0  0  0  0  0  0  0  0  0
   22.8901  -20.2767   -9.3292 C   0  0  0  0  0  0  0  0  0  0  0  0
   25.1603  -20.3340  -10.3883 C   0  0  2  0  0  0  0  0  0  0  0  0
   25.9102  -20.8931  -11.5164 N   0  0  0  0  0  0  0  0  0  0  0  0
   25.7164  -20.7966   -9.0993 C   0  0  0  0  0  0  0  0  0  0  0  0
   25.3872  -20.1309   -7.9293 O   0  0  0  0  0  0  0  0  0  0  0  0
   26.4869  -21.7845   -9.0240 O   0  0  0  0  0  0  0  0  0  0  0  0
  2 12  2  0
  2  1  1  0
  3  2  1  0
  4  3  2  0
  5  4  1  0
  5 11  2  0
  6  5  1  0
  7  9  1  0
  7  6  1  0
  7  8  1  6
  9 10  2  0
 11 12  1  0
 14 13  1  1
 15 14  1  0
 16 14  1  0
 16 17  1  6
 17  9  1  0
 18 24  1  0
 18 16  1  0
 19 18  2  0
 21 23  1  0
 21 20  1  6
 22 21  1  0
 23 24  1  6
 25 23  1  0
 25 26  1  0
 27 25  2  0
M  END
$$$$
