YVV.pdb
     RDKit          3D

 27 27  0  0  1  0  0  0  0  0999 V2000
   21.0620  -22.3171   -8.3467 O   0  0  0  0  0  0  0  0  0  0  0  0
   22.0518  -21.6708   -9.0683 C   0  0  0  0  0  0  0  0  0  0  0  0
   21.9058  -21.6363  -10.4394 C   0  0  0  0  0  0  0  0  0  0  0  0
   22.8668  -21.0034  -11.2009 C   0  0  0  0  0  0  0  0  0  0  0  0
   23.9691  -20.4074  -10.5937 C   0  0  0  0  0  0  0  0  0  0  0  0
   24.9604  -19.7486  -11.4474 C   0  0  0  0  0  0  0  0  0  0  0  0
   25.9069  -20.7204  -12.0983 C   0  0  2  0  0  0  0  0  0  0  0  0
   26.8265  -21.3106  -11.1476 N   0  0  0  0  0  0  0  0  0  0  0  0
   26.7091  -20.0947  -13.1715 C   0  0  0  0  0  0  0  0  0  0  0  0
   27.7614  -19.4800  -12.7899 O   0  0  0  0  0  0  0  0  0  0  0  0
   24.1247  -20.4362   -9.2231 C   0  0  0  0  0  0  0  0  0  0  0  0
   23.1470  -21.0764   -8.4909 C   0  0  0  0  0  0  0  0  0  0  0  0
   28.5340  -20.0413  -17.6377 C   0  0  0  0  0  0  0  0  0  0  0  0
   27.6729  -20.6210  -16.5196 C   0  0  2  0  0  0  0  0  0  0  0  0
   26.4072  -21.1436  -17.1448 C   0  0  0  0  0  0  0  0  0  0  0  0
   27.3364  -19.5358  -15.5061 C   0  0  2  0  0  0  0  0  0  0  0  0
   26.4086  -20.1273  -14.5222 N   0  0  0  0  0  0  0  0  0  0  0  0
   26.5432  -18.4542  -16.1463 C   0  0  0  0  0  0  0  0  0  0  0  0
   25.3053  -18.6240  -16.4016 O   0  0  0  0  0  0  0  0  0  0  0  0
   27.9293  -14.4847  -16.4002 C   0  0  0  0  0  0  0  0  0  0  0  0
   26.4554  -14.8661  -16.3345 C   0  0  2  0  0  0  0  0  0  0  0  0
   26.0860  -14.9461  -14.8797 C   0  0  0  0  0  0  0  0  0  0  0  0
   26.2149  -16.1722  -17.0612 C   0  0  2  0  0  0  0  0  0  0  0  0
   27.0896  -17.2050  -16.4991 N   0  0  0  0  0  0  0  0  0  0  0  0
   26.5047  -15.9527  -18.4940 C   0  0  0  0  0  0  0  0  0  0  0  0
   25.6046  -15.2489  -19.2781 O   0  0  0  0  0  0  0  0  0  0  0  0
   27.5509  -16.3866  -19.0346 O   0  0  0  0  0  0  0  0  0  0  0  0
  2 12  2  0
  2  1  1  0
  3  2  1  0
  4  3  2  0
  5  4  1  0
  5 11  2  0
  6  5  1  0
  7  9  1  0
  7  6  1  0
  7  8  1  1
  9 10  2  0
 11 12  1  0
 14 13  1  6
 15 14  1  0
 16 14  1  0
 16 17  1  1
 17  9  1  0
 18 24  1  0
 18 16  1  0
 19 18  2  0
 21 23  1  0
 21 20  1  1
 22 21  1  0
 23 24  1  1
 25 23  1  0
 25 26  1  0
 27 25  2  0
M  END
$$$$
