YVV.pdb
     RDKit          3D

 27 27  0  0  1  0  0  0  0  0999 V2000
   13.7926  -15.0165  -15.9567 O   0  0  0  0  0  0  0  0  0  0  0  0
   14.8803  -14.1703  -15.8191 C   0  0  0  0  0  0  0  0  0  0  0  0
   15.9303  -14.6209  -15.0464 C   0  0  0  0  0  0  0  0  0  0  0  0
   17.0362  -13.8127  -14.8801 C   0  0  0  0  0  0  0  0  0  0  0  0
   17.0919  -12.5593  -15.4841 C   0  0  0  0  0  0  0  0  0  0  0  0
   18.2887  -11.7407  -15.2759 C   0  0  0  0  0  0  0  0  0  0  0  0
   19.1108  -11.5818  -16.5260 C   0  0  2  0  0  0  0  0  0  0  0  0
   19.7528  -12.8186  -16.9211 N   0  0  0  0  0  0  0  0  0  0  0  0
   20.1642  -10.5539  -16.3823 C   0  0  0  0  0  0  0  0  0  0  0  0
   21.2840  -10.9679  -15.9292 O   0  0  0  0  0  0  0  0  0  0  0  0
   16.0472  -12.0991  -16.2590 C   0  0  0  0  0  0  0  0  0  0  0  0
   14.9569  -12.9306  -16.4054 C   0  0  0  0  0  0  0  0  0  0  0  0
   20.2039   -7.1877  -18.5927 C   0  0  0  0  0  0  0  0  0  0  0  0
   21.4742   -7.7655  -17.9760 C   0  0  2  0  0  0  0  0  0  0  0  0
   21.9394   -8.8896  -18.8625 C   0  0  0  0  0  0  0  0  0  0  0  0
   21.1793   -8.2986  -16.5807 C   0  0  2  0  0  0  0  0  0  0  0  0
   20.0261   -9.2127  -16.6954 N   0  0  0  0  0  0  0  0  0  0  0  0
   20.6890   -7.2066  -15.6997 C   0  0  0  0  0  0  0  0  0  0  0  0
   19.4550   -6.8846  -15.6941 O   0  0  0  0  0  0  0  0  0  0  0  0
   22.3944   -6.0527  -12.0953 C   0  0  0  0  0  0  0  0  0  0  0  0
   20.9693   -5.7988  -12.5716 C   0  0  2  0  0  0  0  0  0  0  0  0
   20.1923   -7.0622  -12.3279 C   0  0  0  0  0  0  0  0  0  0  0  0
   20.9643   -5.3931  -14.0301 C   0  0  2  0  0  0  0  0  0  0  0  0
   21.5297   -6.4796  -14.8348 N   0  0  0  0  0  0  0  0  0  0  0  0
   21.7705   -4.1610  -14.1598 C   0  0  0  0  0  0  0  0  0  0  0  0
   21.2576   -2.9531  -13.7145 O   0  0  0  0  0  0  0  0  0  0  0  0
   22.9191   -4.1683  -14.6656 O   0  0  0  0  0  0  0  0  0  0  0  0
  2 12  2  0
  2  1  1  0
  3  2  1  0
  4  3  2  0
  5  4  1  0
  5 11  2  0
  6  5  1  0
  7  9  1  0
  7  6  1  0
  7  8  1  1
  9 10  2  0
 11 12  1  0
 14 13  1  6
 15 14  1  0
 16 14  1  0
 16 17  1  6
 17  9  1  0
 18 24  1  0
 18 16  1  0
 19 18  2  0
 21 23  1  0
 21 20  1  6
 22 21  1  0
 23 24  1  6
 25 23  1  0
 25 26  1  0
 27 25  2  0
M  END
$$$$
