NIR.pdb
     RDKit          3D

 28 27  0  0  1  0  0  0  0  0999 V2000
   29.6816  -22.5379  -14.9198 N   0  0  0  0  0  0  0  0  0  0  0  0
   29.0075  -23.0022  -16.0740 C   0  0  0  0  0  0  0  0  0  0  0  0
   29.5626  -23.8271  -16.8395 O   0  0  0  0  0  0  0  0  0  0  0  0
   27.6435  -22.5273  -16.3992 C   0  0  0  0  0  0  0  0  0  0  0  0
   27.2175  -21.4475  -15.4223 C   0  0  2  0  0  0  0  0  0  0  0  0
   27.2090  -22.0050  -14.0774 N   0  0  0  0  0  0  0  0  0  0  0  0
   25.8537  -20.9615  -15.7081 C   0  0  0  0  0  0  0  0  0  0  0  0
   25.5100  -20.5241  -16.8181 O   0  0  0  0  0  0  0  0  0  0  0  0
   21.1042  -24.1753  -14.9880 C   0  0  0  0  0  0  0  0  0  0  0  0
   21.5316  -22.7143  -14.8261 C   0  0  0  0  0  0  0  0  0  0  0  0
   23.0018  -22.5569  -15.1152 C   0  0  2  0  0  0  0  0  0  0  0  0
   23.7169  -23.6457  -14.3890 C   0  0  0  0  0  0  0  0  0  0  0  0
   23.4359  -21.1881  -15.0075 C   0  0  2  0  0  0  0  0  0  0  0  0
   24.8392  -20.9760  -14.6811 N   0  0  0  0  0  0  0  0  0  0  0  0
   22.5682  -20.1338  -14.4481 C   0  0  0  0  0  0  0  0  0  0  0  0
   22.4521  -19.8943  -13.2025 O   0  0  0  0  0  0  0  0  0  0  0  0
   17.0308  -15.4767  -16.5120 N   0  0  0  0  0  0  0  0  0  0  0  0
   17.5793  -14.1863  -16.3855 C   0  0  0  0  0  0  0  0  0  0  0  0
   16.8191  -13.1630  -16.1976 N   0  0  0  0  0  0  0  0  0  0  0  0
   18.9971  -13.9863  -16.4637 N   0  0  0  0  0  0  0  0  0  0  0  0
   19.7891  -15.1871  -16.7365 C   0  0  0  0  0  0  0  0  0  0  0  0
   19.8257  -16.0799  -15.4978 C   0  0  0  0  0  0  0  0  0  0  0  0
   20.7014  -17.2332  -15.8328 C   0  0  0  0  0  0  0  0  0  0  0  0
   20.8917  -18.2404  -14.7245 C   0  0  2  0  0  0  0  0  0  0  0  0
   21.7693  -19.2763  -15.2502 N   0  0  0  0  0  0  0  0  0  0  0  0
   19.6394  -18.7949  -14.2081 C   0  0  0  0  0  0  0  0  0  0  0  0
   19.1119  -19.7952  -14.7530 O   0  0  0  0  0  0  0  0  0  0  0  0
   19.0312  -18.2188  -13.1139 O   0  0  0  0  0  0  0  0  0  0  0  0
  2  1  1  0
  2  3  2  0
  4  2  1  0
  5  4  1  0
  5  6  1  1
  7  5  1  0
  8  7  2  0
  9 10  1  0
 11 13  1  0
 11 10  1  0
 11 12  1  1
 13 14  1  1
 14  7  1  0
 15 25  1  0
 15 13  1  0
 16 15  2  0
 17 18  1  0
 18 19  2  0
 20 18  1  0
 21 20  1  0
 22 21  1  0
 23 22  1  0
 24 23  1  6
 24 25  1  0
 26 28  1  0
 26 24  1  0
 27 26  2  0
M  END
$$$$
