NIR.pdb
     RDKit          3D

 28 27  0  0  1  0  0  0  0  0999 V2000
   28.3829  -19.0858  -16.9077 N   0  0  0  0  0  0  0  0  0  0  0  0
   28.1895  -18.7617  -15.5440 C   0  0  0  0  0  0  0  0  0  0  0  0
   28.8588  -17.8423  -15.0133 O   0  0  0  0  0  0  0  0  0  0  0  0
   27.2010  -19.4956  -14.7219 C   0  0  0  0  0  0  0  0  0  0  0  0
   27.9105  -20.4108  -13.7418 C   0  0  2  0  0  0  0  0  0  0  0  0
   28.6049  -21.4516  -14.4862 N   0  0  0  0  0  0  0  0  0  0  0  0
   26.9587  -21.0779  -12.8324 C   0  0  0  0  0  0  0  0  0  0  0  0
   26.3393  -22.1093  -13.1391 O   0  0  0  0  0  0  0  0  0  0  0  0
   26.9813  -20.2633   -7.4391 C   0  0  0  0  0  0  0  0  0  0  0  0
   26.8239  -20.9529   -8.7966 C   0  0  0  0  0  0  0  0  0  0  0  0
   25.4701  -20.6568   -9.3878 C   0  0  2  0  0  0  0  0  0  0  0  0
   24.4536  -21.3350   -8.5328 C   0  0  0  0  0  0  0  0  0  0  0  0
   25.4536  -20.8124  -10.8193 C   0  0  2  0  0  0  0  0  0  0  0  0
   26.7039  -20.5433  -11.5158 N   0  0  0  0  0  0  0  0  0  0  0  0
   24.2750  -20.4545  -11.6317 C   0  0  0  0  0  0  0  0  0  0  0  0
   24.0780  -19.2987  -12.1292 O   0  0  0  0  0  0  0  0  0  0  0  0
   18.6199  -23.6361  -15.5456 N   0  0  0  0  0  0  0  0  0  0  0  0
   18.8658  -22.9736  -16.7632 C   0  0  0  0  0  0  0  0  0  0  0  0
   17.9140  -22.7752  -17.6090 N   0  0  0  0  0  0  0  0  0  0  0  0
   20.1826  -22.5064  -17.0856 N   0  0  0  0  0  0  0  0  0  0  0  0
   21.1957  -22.7113  -16.0486 C   0  0  0  0  0  0  0  0  0  0  0  0
   20.9389  -21.7678  -14.8753 C   0  0  0  0  0  0  0  0  0  0  0  0
   22.1175  -21.8790  -13.9767 C   0  0  0  0  0  0  0  0  0  0  0  0
   22.0529  -21.0402  -12.7232 C   0  0  2  0  0  0  0  0  0  0  0  0
   23.2348  -21.3710  -11.9401 N   0  0  0  0  0  0  0  0  0  0  0  0
   20.8201  -21.2195  -11.9548 C   0  0  0  0  0  0  0  0  0  0  0  0
   19.7301  -20.7668  -12.3823 O   0  0  0  0  0  0  0  0  0  0  0  0
   20.8505  -21.8917  -10.7521 O   0  0  0  0  0  0  0  0  0  0  0  0
  2  1  1  0
  2  3  2  0
  4  2  1  0
  5  4  1  0
  5  6  1  6
  7  5  1  0
  8  7  2  0
  9 10  1  0
 11 13  1  0
 11 10  1  0
 11 12  1  1
 13 14  1  6
 14  7  1  0
 15 25  1  0
 15 13  1  0
 16 15  2  0
 17 18  1  0
 18 19  2  0
 20 18  1  0
 21 20  1  0
 22 21  1  0
 23 22  1  0
 24 23  1  6
 24 25  1  0
 26 28  1  0
 26 24  1  0
 27 26  2  0
M  END
$$$$
