NIR.pdb
     RDKit          3D

 28 27  0  0  1  0  0  0  0  0999 V2000
   26.9983  -18.3941  -19.0330 N   0  0  0  0  0  0  0  0  0  0  0  0
   27.7782  -18.4565  -17.8539 C   0  0  0  0  0  0  0  0  0  0  0  0
   28.8931  -17.8826  -17.8042 O   0  0  0  0  0  0  0  0  0  0  0  0
   27.2978  -19.1947  -16.6640 C   0  0  0  0  0  0  0  0  0  0  0  0
   28.3595  -20.1679  -16.1870 C   0  0  2  0  0  0  0  0  0  0  0  0
   28.4894  -21.2400  -17.1633 N   0  0  0  0  0  0  0  0  0  0  0  0
   27.9925  -20.7858  -14.8981 C   0  0  0  0  0  0  0  0  0  0  0  0
   27.1286  -21.6715  -14.7939 O   0  0  0  0  0  0  0  0  0  0  0  0
   31.4774  -21.7098  -10.8048 C   0  0  0  0  0  0  0  0  0  0  0  0
   30.3278  -21.8003  -11.8114 C   0  0  0  0  0  0  0  0  0  0  0  0
   29.1496  -20.9852  -11.3453 C   0  0  2  0  0  0  0  0  0  0  0  0
   28.7707  -21.4849   -9.9921 C   0  0  0  0  0  0  0  0  0  0  0  0
   28.1578  -20.8200  -12.3762 C   0  0  2  0  0  0  0  0  0  0  0  0
   28.6406  -20.3737  -13.6756 N   0  0  0  0  0  0  0  0  0  0  0  0
   26.8011  -20.3190  -12.0837 C   0  0  0  0  0  0  0  0  0  0  0  0
   26.4878  -19.0846  -12.0615 O   0  0  0  0  0  0  0  0  0  0  0  0
   19.6690  -23.7057  -14.4322 N   0  0  0  0  0  0  0  0  0  0  0  0
   19.4970  -22.3314  -14.6845 C   0  0  0  0  0  0  0  0  0  0  0  0
   18.6298  -21.9234  -15.5460 N   0  0  0  0  0  0  0  0  0  0  0  0
   20.2851  -21.3580  -13.9862 N   0  0  0  0  0  0  0  0  0  0  0  0
   21.1913  -21.8933  -12.9684 C   0  0  0  0  0  0  0  0  0  0  0  0
   22.0189  -20.7625  -12.3608 C   0  0  0  0  0  0  0  0  0  0  0  0
   23.4457  -21.1369  -12.5429 C   0  0  0  0  0  0  0  0  0  0  0  0
   24.3720  -20.7029  -11.4326 C   0  0  2  0  0  0  0  0  0  0  0  0
   25.7023  -21.1709  -11.7942 N   0  0  0  0  0  0  0  0  0  0  0  0
   23.9679  -21.1746  -10.1072 C   0  0  0  0  0  0  0  0  0  0  0  0
   24.6764  -21.9997   -9.4802 O   0  0  0  0  0  0  0  0  0  0  0  0
   22.8017  -20.7110   -9.5379 O   0  0  0  0  0  0  0  0  0  0  0  0
  2  1  1  0
  2  3  2  0
  4  2  1  0
  5  4  1  0
  5  6  1  6
  7  5  1  0
  8  7  2  0
  9 10  1  0
 11 13  1  0
 11 10  1  0
 11 12  1  1
 13 14  1  6
 14  7  1  0
 15 25  1  0
 15 13  1  0
 16 15  2  0
 17 18  1  0
 18 19  2  0
 20 18  1  0
 21 20  1  0
 22 21  1  0
 23 22  1  0
 24 23  1  6
 24 25  1  0
 26 28  1  0
 26 24  1  0
 27 26  2  0
M  END
$$$$
