NIR.pdb
     RDKit          3D

 28 27  0  0  1  0  0  0  0  0999 V2000
   29.4076  -19.1708  -16.4068 N   0  0  0  0  0  0  0  0  0  0  0  0
   28.0425  -18.8062  -16.4819 C   0  0  0  0  0  0  0  0  0  0  0  0
   27.6751  -17.8956  -17.2634 O   0  0  0  0  0  0  0  0  0  0  0  0
   27.0277  -19.4867  -15.6461 C   0  0  0  0  0  0  0  0  0  0  0  0
   27.6985  -20.4628  -14.6979 C   0  0  2  0  0  0  0  0  0  0  0  0
   28.3508  -21.5050  -15.4777 N   0  0  0  0  0  0  0  0  0  0  0  0
   26.7195  -21.1213  -13.8114 C   0  0  0  0  0  0  0  0  0  0  0  0
   26.0610  -22.1172  -14.1519 O   0  0  0  0  0  0  0  0  0  0  0  0
   26.7347  -20.5477   -8.3232 C   0  0  0  0  0  0  0  0  0  0  0  0
   26.5238  -21.2145   -9.6849 C   0  0  0  0  0  0  0  0  0  0  0  0
   25.2676  -20.6998  -10.3383 C   0  0  2  0  0  0  0  0  0  0  0  0
   24.1186  -21.1186   -9.4847 C   0  0  0  0  0  0  0  0  0  0  0  0
   25.2561  -20.9336  -11.7592 C   0  0  2  0  0  0  0  0  0  0  0  0
   26.4829  -20.6199  -12.4784 N   0  0  0  0  0  0  0  0  0  0  0  0
   24.0531  -20.6998  -12.5810 C   0  0  0  0  0  0  0  0  0  0  0  0
   23.7976  -19.6009  -13.1720 O   0  0  0  0  0  0  0  0  0  0  0  0
   20.0597  -26.4913  -17.3696 N   0  0  0  0  0  0  0  0  0  0  0  0
   19.1493  -25.4386  -17.5816 C   0  0  0  0  0  0  0  0  0  0  0  0
   18.1397  -25.5894  -18.3680 N   0  0  0  0  0  0  0  0  0  0  0  0
   19.3289  -24.1764  -16.9252 N   0  0  0  0  0  0  0  0  0  0  0  0
   20.4694  -24.0983  -16.0104 C   0  0  0  0  0  0  0  0  0  0  0  0
   20.4547  -22.7614  -15.2720 C   0  0  0  0  0  0  0  0  0  0  0  0
   21.6818  -22.7270  -14.4340 C   0  0  0  0  0  0  0  0  0  0  0  0
   21.8566  -21.4814  -13.5991 C   0  0  2  0  0  0  0  0  0  0  0  0
   23.0525  -21.6849  -12.7942 N   0  0  0  0  0  0  0  0  0  0  0  0
   20.6921  -21.1538  -12.7751 C   0  0  0  0  0  0  0  0  0  0  0  0
   20.6586  -21.4740  -11.5618 O   0  0  0  0  0  0  0  0  0  0  0  0
   19.6217  -20.4870  -13.3307 O   0  0  0  0  0  0  0  0  0  0  0  0
  2  1  1  0
  2  3  2  0
  4  2  1  0
  5  4  1  0
  5  6  1  6
  7  5  1  0
  8  7  2  0
  9 10  1  0
 11 13  1  0
 11 10  1  0
 11 12  1  1
 13 14  1  6
 14  7  1  0
 15 25  1  0
 15 13  1  0
 16 15  2  0
 17 18  1  0
 18 19  2  0
 20 18  1  0
 21 20  1  0
 22 21  1  0
 23 22  1  0
 24 23  1  1
 24 25  1  0
 26 28  1  0
 26 24  1  0
 27 26  2  0
M  END
$$$$
