NIR.pdb
     RDKit          3D

 28 27  0  0  1  0  0  0  0  0999 V2000
   17.3898  -23.9763    2.6361 N   0  0  0  0  0  0  0  0  0  0  0  0
   16.2701  -23.5017    3.3594 C   0  0  0  0  0  0  0  0  0  0  0  0
   15.2058  -24.1662    3.3814 O   0  0  0  0  0  0  0  0  0  0  0  0
   16.3314  -22.2209    4.0993 C   0  0  0  0  0  0  0  0  0  0  0  0
   15.3555  -21.2240    3.5034 C   0  0  2  0  0  0  0  0  0  0  0  0
   15.7586  -20.9291    2.1358 N   0  0  0  0  0  0  0  0  0  0  0  0
   15.3548  -19.9501    4.2484 C   0  0  0  0  0  0  0  0  0  0  0  0
   16.0793  -18.9885    3.9452 O   0  0  0  0  0  0  0  0  0  0  0  0
   11.1120  -19.2474    5.9031 C   0  0  0  0  0  0  0  0  0  0  0  0
   12.0851  -18.0827    5.7036 C   0  0  0  0  0  0  0  0  0  0  0  0
   13.1990  -18.1432    6.7163 C   0  0  2  0  0  0  0  0  0  0  0  0
   13.0831  -16.9313    7.5777 C   0  0  0  0  0  0  0  0  0  0  0  0
   14.4584  -18.5090    6.1214 C   0  0  2  0  0  0  0  0  0  0  0  0
   14.4890  -19.7674    5.3891 N   0  0  0  0  0  0  0  0  0  0  0  0
   15.7478  -18.2130    6.7748 C   0  0  0  0  0  0  0  0  0  0  0  0
   16.5174  -19.1014    7.2654 O   0  0  0  0  0  0  0  0  0  0  0  0
   20.4226  -11.0151    5.8658 N   0  0  0  0  0  0  0  0  0  0  0  0
   21.0851  -11.5128    7.0038 C   0  0  0  0  0  0  0  0  0  0  0  0
   22.0971  -10.8896    7.5020 N   0  0  0  0  0  0  0  0  0  0  0  0
   20.6453  -12.7249    7.6312 N   0  0  0  0  0  0  0  0  0  0  0  0
   19.4811  -13.3660    7.0172 C   0  0  0  0  0  0  0  0  0  0  0  0
   19.1802  -14.6864    7.7234 C   0  0  0  0  0  0  0  0  0  0  0  0
   17.9668  -15.2474    7.0736 C   0  0  0  0  0  0  0  0  0  0  0  0
   17.4935  -16.5700    7.6264 C   0  0  2  0  0  0  0  0  0  0  0  0
   16.2611  -16.8972    6.9238 N   0  0  0  0  0  0  0  0  0  0  0  0
   17.3120  -16.5727    9.0788 C   0  0  0  0  0  0  0  0  0  0  0  0
   16.2034  -16.2700    9.5839 O   0  0  0  0  0  0  0  0  0  0  0  0
   18.3633  -16.9112    9.9030 O   0  0  0  0  0  0  0  0  0  0  0  0
  2  1  1  0
  2  3  2  0
  4  2  1  0
  5  4  1  0
  5  6  1  6
  7  5  1  0
  8  7  2  0
  9 10  1  0
 11 13  1  0
 11 10  1  0
 11 12  1  6
 13 14  1  1
 14  7  1  0
 15 25  1  0
 15 13  1  0
 16 15  2  0
 17 18  1  0
 18 19  2  0
 20 18  1  0
 21 20  1  0
 22 21  1  0
 23 22  1  0
 24 23  1  6
 24 25  1  0
 26 28  1  0
 26 24  1  0
 27 26  2  0
M  END
$$$$
