NIR.pdb
     RDKit          3D

 28 27  0  0  1  0  0  0  0  0999 V2000
   27.4305  -25.9181  -15.9952 N   0  0  0  0  0  0  0  0  0  0  0  0
   26.5323  -24.9804  -16.5574 C   0  0  0  0  0  0  0  0  0  0  0  0
   26.5895  -24.7076  -17.7810 O   0  0  0  0  0  0  0  0  0  0  0  0
   25.5145  -24.3071  -15.7193 C   0  0  0  0  0  0  0  0  0  0  0  0
   25.4670  -22.8253  -16.0414 C   0  0  2  0  0  0  0  0  0  0  0  0
   26.7644  -22.2360  -15.7430 N   0  0  0  0  0  0  0  0  0  0  0  0
   24.4625  -22.1213  -15.2210 C   0  0  0  0  0  0  0  0  0  0  0  0
   24.6433  -21.8377  -14.0258 O   0  0  0  0  0  0  0  0  0  0  0  0
   23.1847  -17.9484  -16.4602 C   0  0  0  0  0  0  0  0  0  0  0  0
   23.1503  -18.8720  -15.2400 C   0  0  0  0  0  0  0  0  0  0  0  0
   21.8961  -19.7069  -15.2422 C   0  0  2  0  0  0  0  0  0  0  0  0
   20.8662  -18.9642  -14.4599 C   0  0  0  0  0  0  0  0  0  0  0  0
   22.1649  -21.0966  -14.9775 C   0  0  2  0  0  0  0  0  0  0  0  0
   23.1969  -21.7244  -15.7909 N   0  0  0  0  0  0  0  0  0  0  0  0
   21.0960  -22.0432  -14.6054 C   0  0  0  0  0  0  0  0  0  0  0  0
   20.8467  -23.1198  -15.2387 O   0  0  0  0  0  0  0  0  0  0  0  0
   21.6181  -28.5157  -11.6883 N   0  0  0  0  0  0  0  0  0  0  0  0
   21.2115  -28.1350  -12.9812 C   0  0  0  0  0  0  0  0  0  0  0  0
   21.5873  -28.8071  -14.0144 N   0  0  0  0  0  0  0  0  0  0  0  0
   20.3698  -26.9900  -13.1728 N   0  0  0  0  0  0  0  0  0  0  0  0
   19.8825  -26.3536  -11.9476 C   0  0  0  0  0  0  0  0  0  0  0  0
   18.9828  -25.1699  -12.2973 C   0  0  0  0  0  0  0  0  0  0  0  0
   19.8820  -24.0669  -12.7263 C   0  0  0  0  0  0  0  0  0  0  0  0
   19.1891  -22.7756  -13.0890 C   0  0  2  0  0  0  0  0  0  0  0  0
   20.2315  -21.8445  -13.4962 N   0  0  0  0  0  0  0  0  0  0  0  0
   18.3570  -22.2295  -12.0158 C   0  0  0  0  0  0  0  0  0  0  0  0
   18.6779  -21.1610  -11.4405 O   0  0  0  0  0  0  0  0  0  0  0  0
   17.2098  -22.8892  -11.6311 O   0  0  0  0  0  0  0  0  0  0  0  0
  2  1  1  0
  2  3  2  0
  4  2  1  0
  5  4  1  0
  5  6  1  1
  7  5  1  0
  8  7  2  0
  9 10  1  0
 11 13  1  0
 11 10  1  0
 11 12  1  1
 13 14  1  6
 14  7  1  0
 15 25  1  0
 15 13  1  0
 16 15  2  0
 17 18  1  0
 18 19  2  0
 20 18  1  0
 21 20  1  0
 22 21  1  0
 23 22  1  0
 24 23  1  1
 24 25  1  0
 26 28  1  0
 26 24  1  0
 27 26  2  0
M  END
$$$$
