NIR.pdb
     RDKit          3D

 28 27  0  0  1  0  0  0  0  0999 V2000
   32.5745   -7.6444  -17.0609 N   0  0  0  0  0  0  0  0  0  0  0  0
   31.3296   -7.0769  -17.4221 C   0  0  0  0  0  0  0  0  0  0  0  0
   31.1605   -5.8350  -17.3586 O   0  0  0  0  0  0  0  0  0  0  0  0
   30.2097   -7.9307  -17.8787 C   0  0  0  0  0  0  0  0  0  0  0  0
   30.6279   -9.3891  -17.8769 C   0  0  2  0  0  0  0  0  0  0  0  0
   31.5697   -9.6110  -18.9647 N   0  0  0  0  0  0  0  0  0  0  0  0
   29.4773  -10.2861  -18.0984 C   0  0  0  0  0  0  0  0  0  0  0  0
   29.1408  -10.6899  -19.2233 O   0  0  0  0  0  0  0  0  0  0  0  0
   26.6693  -15.1573  -15.9836 C   0  0  0  0  0  0  0  0  0  0  0  0
   26.4592  -13.7814  -16.6210 C   0  0  0  0  0  0  0  0  0  0  0  0
   27.7357  -12.9818  -16.5888 C   0  0  2  0  0  0  0  0  0  0  0  0
   28.3249  -13.1394  -15.2278 C   0  0  0  0  0  0  0  0  0  0  0  0
   27.5782  -11.6778  -17.1790 C   0  0  2  0  0  0  0  0  0  0  0  0
   28.6767  -10.7413  -16.9866 N   0  0  0  0  0  0  0  0  0  0  0  0
   26.2699  -10.9979  -17.2367 C   0  0  0  0  0  0  0  0  0  0  0  0
   25.8796  -10.1326  -16.3875 O   0  0  0  0  0  0  0  0  0  0  0  0
   22.9859   -7.7387  -24.0112 N   0  0  0  0  0  0  0  0  0  0  0  0
   23.5173   -7.0684  -22.8932 C   0  0  0  0  0  0  0  0  0  0  0  0
   24.1145   -5.9344  -23.0276 N   0  0  0  0  0  0  0  0  0  0  0  0
   23.4037   -7.6360  -21.5813 N   0  0  0  0  0  0  0  0  0  0  0  0
   22.6948   -8.9149  -21.5070 C   0  0  0  0  0  0  0  0  0  0  0  0
   22.6030   -9.3764  -20.0539 C   0  0  0  0  0  0  0  0  0  0  0  0
   23.8760  -10.0818  -19.7524 C   0  0  0  0  0  0  0  0  0  0  0  0
   24.0129  -10.5858  -18.3359 C   0  0  2  0  0  0  0  0  0  0  0  0
   25.3084  -11.2447  -18.2525 N   0  0  0  0  0  0  0  0  0  0  0  0
   22.9231  -11.4672  -17.9142 C   0  0  0  0  0  0  0  0  0  0  0  0
   23.0894  -12.7105  -17.8684 O   0  0  0  0  0  0  0  0  0  0  0  0
   21.7029  -10.9324  -17.5618 O   0  0  0  0  0  0  0  0  0  0  0  0
  2  1  1  0
  2  3  2  0
  4  2  1  0
  5  4  1  0
  5  6  1  6
  7  5  1  0
  8  7  2  0
  9 10  1  0
 11 13  1  0
 11 10  1  0
 11 12  1  1
 13 14  1  1
 14  7  1  0
 15 25  1  0
 15 13  1  0
 16 15  2  0
 17 18  1  0
 18 19  2  0
 20 18  1  0
 21 20  1  0
 22 21  1  0
 23 22  1  0
 24 23  1  6
 24 25  1  0
 26 28  1  0
 26 24  1  0
 27 26  2  0
M  END
$$$$
