NIR.pdb
     RDKit          3D

 28 27  0  0  1  0  0  0  0  0999 V2000
   15.9039  -20.6677  -11.1926 N   0  0  0  0  0  0  0  0  0  0  0  0
   16.2759  -21.7410  -10.3488 C   0  0  0  0  0  0  0  0  0  0  0  0
   15.6499  -21.9502   -9.2815 O   0  0  0  0  0  0  0  0  0  0  0  0
   17.4030  -22.6320  -10.7058 C   0  0  0  0  0  0  0  0  0  0  0  0
   18.0431  -22.1737  -12.0027 C   0  0  2  0  0  0  0  0  0  0  0  0
   17.1276  -22.4441  -13.1019 N   0  0  0  0  0  0  0  0  0  0  0  0
   19.2951  -22.9041  -12.2802 C   0  0  0  0  0  0  0  0  0  0  0  0
   19.3857  -24.1407  -12.2150 O   0  0  0  0  0  0  0  0  0  0  0  0
   21.6308  -22.5770  -17.2042 C   0  0  0  0  0  0  0  0  0  0  0  0
   21.4847  -23.5559  -16.0364 C   0  0  0  0  0  0  0  0  0  0  0  0
   20.5779  -22.9857  -14.9769 C   0  0  2  0  0  0  0  0  0  0  0  0
   19.6503  -22.0324  -15.6516 C   0  0  0  0  0  0  0  0  0  0  0  0
   21.2985  -22.6010  -13.7910 C   0  0  2  0  0  0  0  0  0  0  0  0
   20.4950  -22.1906  -12.6479 N   0  0  0  0  0  0  0  0  0  0  0  0
   22.5842  -21.8799  -13.8560 C   0  0  0  0  0  0  0  0  0  0  0  0
   23.5318  -22.1850  -14.6506 O   0  0  0  0  0  0  0  0  0  0  0  0
   29.6206  -22.0510  -11.4637 N   0  0  0  0  0  0  0  0  0  0  0  0
   28.8497  -21.4324  -10.4613 C   0  0  0  0  0  0  0  0  0  0  0  0
   29.4104  -20.7242   -9.5422 N   0  0  0  0  0  0  0  0  0  0  0  0
   27.4234  -21.5790  -10.4442 N   0  0  0  0  0  0  0  0  0  0  0  0
   26.8678  -22.4591  -11.4739 C   0  0  0  0  0  0  0  0  0  0  0  0
   26.2301  -21.6255  -12.5836 C   0  0  0  0  0  0  0  0  0  0  0  0
   25.0234  -20.9884  -11.9943 C   0  0  0  0  0  0  0  0  0  0  0  0
   24.2095  -20.1466  -12.9472 C   0  0  2  0  0  0  0  0  0  0  0  0
   22.8950  -20.7666  -13.0308 N   0  0  0  0  0  0  0  0  0  0  0  0
   24.8233  -19.9861  -14.2662 C   0  0  0  0  0  0  0  0  0  0  0  0
   24.3313  -20.5534  -15.2722 O   0  0  0  0  0  0  0  0  0  0  0  0
   25.9498  -19.2056  -14.4107 O   0  0  0  0  0  0  0  0  0  0  0  0
  2  1  1  0
  2  3  2  0
  4  2  1  0
  5  4  1  0
  5  6  1  6
  7  5  1  0
  8  7  2  0
  9 10  1  0
 11 13  1  0
 11 10  1  0
 11 12  1  6
 13 14  1  1
 14  7  1  0
 15 25  1  0
 15 13  1  0
 16 15  2  0
 17 18  1  0
 18 19  2  0
 20 18  1  0
 21 20  1  0
 22 21  1  0
 23 22  1  0
 24 23  1  1
 24 25  1  0
 26 28  1  0
 26 24  1  0
 27 26  2  0
M  END
$$$$
