NIR.pdb
     RDKit          3D

 28 27  0  0  1  0  0  0  0  0999 V2000
   29.0343  -18.1130  -18.1914 N   0  0  0  0  0  0  0  0  0  0  0  0
   27.7493  -17.9404  -17.6247 C   0  0  0  0  0  0  0  0  0  0  0  0
   26.9701  -17.0695  -18.0822 O   0  0  0  0  0  0  0  0  0  0  0  0
   27.3016  -18.7777  -16.4889 C   0  0  0  0  0  0  0  0  0  0  0  0
   28.3703  -19.7944  -16.1339 C   0  0  2  0  0  0  0  0  0  0  0  0
   28.4197  -20.8100  -17.1759 N   0  0  0  0  0  0  0  0  0  0  0  0
   28.0692  -20.4800  -14.8623 C   0  0  0  0  0  0  0  0  0  0  0  0
   27.3211  -21.4682  -14.7869 O   0  0  0  0  0  0  0  0  0  0  0  0
   31.6431  -21.4705  -10.9451 C   0  0  0  0  0  0  0  0  0  0  0  0
   30.4535  -21.5415  -11.9060 C   0  0  0  0  0  0  0  0  0  0  0  0
   29.2866  -20.7577  -11.3639 C   0  0  2  0  0  0  0  0  0  0  0  0
   28.9787  -21.2986  -10.0086 C   0  0  0  0  0  0  0  0  0  0  0  0
   28.2455  -20.5812  -12.3430 C   0  0  2  0  0  0  0  0  0  0  0  0
   28.6477  -20.0164  -13.6235 N   0  0  0  0  0  0  0  0  0  0  0  0
   26.8751  -20.1855  -11.9652 C   0  0  0  0  0  0  0  0  0  0  0  0
   26.4923  -18.9771  -11.8405 O   0  0  0  0  0  0  0  0  0  0  0  0
   19.8144  -22.8509  -15.3726 N   0  0  0  0  0  0  0  0  0  0  0  0
   19.2224  -21.9730  -14.4449 C   0  0  0  0  0  0  0  0  0  0  0  0
   17.9754  -21.6610  -14.5364 N   0  0  0  0  0  0  0  0  0  0  0  0
   19.9974  -21.4083  -13.3788 N   0  0  0  0  0  0  0  0  0  0  0  0
   21.4047  -21.8106  -13.3409 C   0  0  0  0  0  0  0  0  0  0  0  0
   22.1290  -21.0684  -12.2196 C   0  0  0  0  0  0  0  0  0  0  0  0
   23.5710  -21.4033  -12.3526 C   0  0  0  0  0  0  0  0  0  0  0  0
   24.4784  -20.7585  -11.3329 C   0  0  2  0  0  0  0  0  0  0  0  0
   25.8399  -21.1209  -11.6997 N   0  0  0  0  0  0  0  0  0  0  0  0
   24.1688  -21.1252   -9.9502 C   0  0  0  0  0  0  0  0  0  0  0  0
   24.9123  -21.9144   -9.3175 O   0  0  0  0  0  0  0  0  0  0  0  0
   23.0538  -20.6013   -9.3325 O   0  0  0  0  0  0  0  0  0  0  0  0
  2  1  1  0
  2  3  2  0
  4  2  1  0
  5  4  1  0
  5  6  1  6
  7  5  1  0
  8  7  2  0
  9 10  1  0
 11 13  1  0
 11 10  1  0
 11 12  1  1
 13 14  1  6
 14  7  1  0
 15 25  1  0
 15 13  1  0
 16 15  2  0
 17 18  1  0
 18 19  2  0
 20 18  1  0
 21 20  1  0
 22 21  1  0
 23 22  1  0
 24 23  1  6
 24 25  1  0
 26 28  1  0
 26 24  1  0
 27 26  2  0
M  END
$$$$
