NIR.pdb
     RDKit          3D

 28 27  0  0  1  0  0  0  0  0999 V2000
   19.0962  -20.3389  -12.7252 N   0  0  0  0  0  0  0  0  0  0  0  0
   18.1042  -21.2210  -13.2151 C   0  0  0  0  0  0  0  0  0  0  0  0
   17.5287  -20.9807  -14.3041 O   0  0  0  0  0  0  0  0  0  0  0  0
   17.7280  -22.4364  -12.4581 C   0  0  0  0  0  0  0  0  0  0  0  0
   18.5964  -22.5736  -11.2217 C   0  0  2  0  0  0  0  0  0  0  0  0
   19.9343  -22.9795  -11.6277 N   0  0  0  0  0  0  0  0  0  0  0  0
   18.0796  -23.6083  -10.3051 C   0  0  0  0  0  0  0  0  0  0  0  0
   16.8933  -23.6595   -9.9422 O   0  0  0  0  0  0  0  0  0  0  0  0
   19.0554  -27.9201  -11.6960 C   0  0  0  0  0  0  0  0  0  0  0  0
   18.0415  -27.3312  -10.7119 C   0  0  0  0  0  0  0  0  0  0  0  0
   18.6952  -27.0448   -9.3851 C   0  0  2  0  0  0  0  0  0  0  0  0
   18.4257  -28.2111   -8.4956 C   0  0  0  0  0  0  0  0  0  0  0  0
   18.4491  -25.6995   -8.9343 C   0  0  2  0  0  0  0  0  0  0  0  0
   18.9563  -24.6284   -9.7806 N   0  0  0  0  0  0  0  0  0  0  0  0
   18.4706  -25.3372   -7.5041 C   0  0  0  0  0  0  0  0  0  0  0  0
   19.4846  -24.8469   -6.9094 O   0  0  0  0  0  0  0  0  0  0  0  0
   11.8659  -22.7243   -2.8720 N   0  0  0  0  0  0  0  0  0  0  0  0
   12.8772  -22.0315   -3.5639 C   0  0  0  0  0  0  0  0  0  0  0  0
   12.6421  -20.8821   -4.0969 N   0  0  0  0  0  0  0  0  0  0  0  0
   14.1908  -22.5931   -3.6889 N   0  0  0  0  0  0  0  0  0  0  0  0
   14.3214  -23.9902   -3.2711 C   0  0  0  0  0  0  0  0  0  0  0  0
   15.7733  -24.4429   -3.4121 C   0  0  0  0  0  0  0  0  0  0  0  0
   15.9711  -24.7916   -4.8433 C   0  0  0  0  0  0  0  0  0  0  0  0
   17.3695  -25.2234   -5.2135 C   0  0  2  0  0  0  0  0  0  0  0  0
   17.3539  -25.5026   -6.6423 N   0  0  0  0  0  0  0  0  0  0  0  0
   17.8606  -26.3640   -4.4389 C   0  0  0  0  0  0  0  0  0  0  0  0
   17.5913  -27.5383   -4.7915 O   0  0  0  0  0  0  0  0  0  0  0  0
   18.6268  -26.1525   -3.3131 O   0  0  0  0  0  0  0  0  0  0  0  0
  2  1  1  0
  2  3  2  0
  4  2  1  0
  5  4  1  0
  5  6  1  6
  7  5  1  0
  8  7  2  0
  9 10  1  0
 11 13  1  0
 11 10  1  0
 11 12  1  1
 13 14  1  6
 14  7  1  0
 15 25  1  0
 15 13  1  0
 16 15  2  0
 17 18  1  0
 18 19  2  0
 20 18  1  0
 21 20  1  0
 22 21  1  0
 23 22  1  0
 24 23  1  1
 24 25  1  0
 26 28  1  0
 26 24  1  0
 27 26  2  0
M  END
$$$$
