NIR.pdb
     RDKit          3D

 28 27  0  0  1  0  0  0  0  0999 V2000
   19.0902  -18.3839  -18.2660 N   0  0  0  0  0  0  0  0  0  0  0  0
   20.4524  -18.0025  -18.2313 C   0  0  0  0  0  0  0  0  0  0  0  0
   20.8815  -17.1238  -19.0178 O   0  0  0  0  0  0  0  0  0  0  0  0
   21.3919  -18.6279  -17.2733 C   0  0  0  0  0  0  0  0  0  0  0  0
   22.7336  -18.8718  -17.9382 C   0  0  2  0  0  0  0  0  0  0  0  0
   22.5966  -19.9649  -18.8900 N   0  0  0  0  0  0  0  0  0  0  0  0
   23.7639  -19.2658  -16.9579 C   0  0  0  0  0  0  0  0  0  0  0  0
   23.8418  -20.4094  -16.4807 O   0  0  0  0  0  0  0  0  0  0  0  0
   27.9000  -16.9745  -17.5993 C   0  0  0  0  0  0  0  0  0  0  0  0
   27.6862  -18.2768  -16.8236 C   0  0  0  0  0  0  0  0  0  0  0  0
   26.9837  -18.0072  -15.5184 C   0  0  2  0  0  0  0  0  0  0  0  0
   27.9859  -18.1865  -14.4286 C   0  0  0  0  0  0  0  0  0  0  0  0
   25.6953  -18.6466  -15.4496 C   0  0  2  0  0  0  0  0  0  0  0  0
   24.7475  -18.3117  -16.5033 N   0  0  0  0  0  0  0  0  0  0  0  0
   25.0252  -18.9204  -14.1638 C   0  0  0  0  0  0  0  0  0  0  0  0
   24.4227  -18.0362  -13.4729 O   0  0  0  0  0  0  0  0  0  0  0  0
   18.8757  -23.5907  -12.7882 N   0  0  0  0  0  0  0  0  0  0  0  0
   19.0428  -22.2009  -12.9377 C   0  0  0  0  0  0  0  0  0  0  0  0
   18.1876  -21.5024  -13.6019 N   0  0  0  0  0  0  0  0  0  0  0  0
   20.1702  -21.5353  -12.3527 N   0  0  0  0  0  0  0  0  0  0  0  0
   21.1634  -22.4100  -11.7265 C   0  0  0  0  0  0  0  0  0  0  0  0
   22.3661  -21.5881  -11.2671 C   0  0  0  0  0  0  0  0  0  0  0  0
   23.1305  -21.2351  -12.4920 C   0  0  0  0  0  0  0  0  0  0  0  0
   24.4199  -20.4872  -12.2531 C   0  0  2  0  0  0  0  0  0  0  0  0
   24.9873  -20.2074  -13.5643 N   0  0  0  0  0  0  0  0  0  0  0  0
   25.3639  -21.1976  -11.3891 C   0  0  0  0  0  0  0  0  0  0  0  0
   26.3536  -21.7939  -11.8798 O   0  0  0  0  0  0  0  0  0  0  0  0
   25.1701  -21.2136  -10.0248 O   0  0  0  0  0  0  0  0  0  0  0  0
  2  1  1  0
  2  3  2  0
  4  2  1  0
  5  4  1  0
  5  6  1  6
  7  5  1  0
  8  7  2  0
  9 10  1  0
 11 13  1  0
 11 10  1  0
 11 12  1  1
 13 14  1  6
 14  7  1  0
 15 25  1  0
 15 13  1  0
 16 15  2  0
 17 18  1  0
 18 19  2  0
 20 18  1  0
 21 20  1  0
 22 21  1  0
 23 22  1  0
 24 23  1  6
 24 25  1  0
 26 28  1  0
 26 24  1  0
 27 26  2  0
M  END
$$$$
