NIR.pdb
     RDKit          3D

 28 27  0  0  1  0  0  0  0  0999 V2000
   29.0160  -19.6577  -17.7155 N   0  0  0  0  0  0  0  0  0  0  0  0
   28.1892  -18.9410  -16.8183 C   0  0  0  0  0  0  0  0  0  0  0  0
   28.3699  -17.7121  -16.6390 O   0  0  0  0  0  0  0  0  0  0  0  0
   27.1025  -19.6216  -16.0784 C   0  0  0  0  0  0  0  0  0  0  0  0
   27.6437  -20.2396  -14.8030 C   0  0  2  0  0  0  0  0  0  0  0  0
   28.5645  -21.3119  -15.1523 N   0  0  0  0  0  0  0  0  0  0  0  0
   26.5673  -20.8304  -13.9844 C   0  0  0  0  0  0  0  0  0  0  0  0
   26.1096  -21.9667  -14.1865 O   0  0  0  0  0  0  0  0  0  0  0  0
   26.7812  -20.3686   -8.8551 C   0  0  0  0  0  0  0  0  0  0  0  0
   26.3867  -21.0498  -10.1680 C   0  0  0  0  0  0  0  0  0  0  0  0
   25.0560  -20.5359  -10.6528 C   0  0  2  0  0  0  0  0  0  0  0  0
   24.0107  -21.0723   -9.7342 C   0  0  0  0  0  0  0  0  0  0  0  0
   24.9138  -20.6512  -12.0812 C   0  0  2  0  0  0  0  0  0  0  0  0
   25.9891  -20.0907  -12.8877 N   0  0  0  0  0  0  0  0  0  0  0  0
   23.6022  -20.5425  -12.7482 C   0  0  0  0  0  0  0  0  0  0  0  0
   23.0905  -19.4429  -13.1369 O   0  0  0  0  0  0  0  0  0  0  0  0
   21.2306  -27.0462  -15.6150 N   0  0  0  0  0  0  0  0  0  0  0  0
   21.8849  -26.5230  -16.7464 C   0  0  0  0  0  0  0  0  0  0  0  0
   21.8901  -27.1686  -17.8616 N   0  0  0  0  0  0  0  0  0  0  0  0
   22.5593  -25.2593  -16.6788 N   0  0  0  0  0  0  0  0  0  0  0  0
   22.5138  -24.5893  -15.3778 C   0  0  0  0  0  0  0  0  0  0  0  0
   21.8663  -23.2135  -15.5223 C   0  0  0  0  0  0  0  0  0  0  0  0
   21.1730  -22.9347  -14.2375 C   0  0  0  0  0  0  0  0  0  0  0  0
   21.4549  -21.5797  -13.6346 C   0  0  2  0  0  0  0  0  0  0  0  0
   22.7736  -21.6627  -13.0233 N   0  0  0  0  0  0  0  0  0  0  0  0
   20.4376  -21.1335  -12.6815 C   0  0  0  0  0  0  0  0  0  0  0  0
   20.5263  -21.4344  -11.4660 O   0  0  0  0  0  0  0  0  0  0  0  0
   19.3725  -20.3751  -13.1167 O   0  0  0  0  0  0  0  0  0  0  0  0
  2  1  1  0
  2  3  2  0
  4  2  1  0
  5  4  1  0
  5  6  1  6
  7  5  1  0
  8  7  2  0
  9 10  1  0
 11 13  1  0
 11 10  1  0
 11 12  1  1
 13 14  1  6
 14  7  1  0
 15 25  1  0
 15 13  1  0
 16 15  2  0
 17 18  1  0
 18 19  2  0
 20 18  1  0
 21 20  1  0
 22 21  1  0
 23 22  1  0
 24 23  1  1
 24 25  1  0
 26 28  1  0
 26 24  1  0
 27 26  2  0
M  END
$$$$
