NIR.pdb
     RDKit          3D

 28 27  0  0  1  0  0  0  0  0999 V2000
   29.4917  -20.0736  -17.4432 N   0  0  0  0  0  0  0  0  0  0  0  0
   28.1828  -19.5376  -17.4847 C   0  0  0  0  0  0  0  0  0  0  0  0
   27.8834  -18.6702  -18.3407 O   0  0  0  0  0  0  0  0  0  0  0  0
   27.1478  -19.9864  -16.5261 C   0  0  0  0  0  0  0  0  0  0  0  0
   27.7339  -20.9946  -15.5557 C   0  0  2  0  0  0  0  0  0  0  0  0
   27.9680  -22.2467  -16.2607 N   0  0  0  0  0  0  0  0  0  0  0  0
   26.8088  -21.2805  -14.4421 C   0  0  0  0  0  0  0  0  0  0  0  0
   25.9077  -22.1318  -14.5126 O   0  0  0  0  0  0  0  0  0  0  0  0
   28.8421  -20.5853  -10.4310 C   0  0  0  0  0  0  0  0  0  0  0  0
   27.5602  -21.4203  -10.4863 C   0  0  0  0  0  0  0  0  0  0  0  0
   26.3715  -20.5470  -10.7934 C   0  0  2  0  0  0  0  0  0  0  0  0
   25.4246  -20.6658   -9.6473 C   0  0  0  0  0  0  0  0  0  0  0  0
   25.9137  -20.7052  -12.1495 C   0  0  2  0  0  0  0  0  0  0  0  0
   26.9180  -20.5627  -13.1943 N   0  0  0  0  0  0  0  0  0  0  0  0
   24.5847  -20.2362  -12.5864 C   0  0  0  0  0  0  0  0  0  0  0  0
   24.3355  -19.0407  -12.9483 O   0  0  0  0  0  0  0  0  0  0  0  0
   23.9582  -23.8781  -16.5708 N   0  0  0  0  0  0  0  0  0  0  0  0
   23.4640  -24.8442  -15.6740 C   0  0  0  0  0  0  0  0  0  0  0  0
   24.2024  -25.8300  -15.2951 N   0  0  0  0  0  0  0  0  0  0  0  0
   22.1270  -24.7492  -15.1644 N   0  0  0  0  0  0  0  0  0  0  0  0
   21.4303  -23.4942  -15.4526 C   0  0  0  0  0  0  0  0  0  0  0  0
   21.1870  -22.7234  -14.1566 C   0  0  0  0  0  0  0  0  0  0  0  0
   21.8021  -21.3828  -14.3394 C   0  0  0  0  0  0  0  0  0  0  0  0
   22.1187  -20.6403  -13.0636 C   0  0  2  0  0  0  0  0  0  0  0  0
   23.4426  -21.0783  -12.6452 N   0  0  0  0  0  0  0  0  0  0  0  0
   21.1220  -20.8272  -12.0081 C   0  0  0  0  0  0  0  0  0  0  0  0
   21.3755  -21.5470  -11.0114 O   0  0  0  0  0  0  0  0  0  0  0  0
   19.8943  -20.2086  -12.1036 O   0  0  0  0  0  0  0  0  0  0  0  0
  2  1  1  0
  2  3  2  0
  4  2  1  0
  5  4  1  0
  5  6  1  6
  7  5  1  0
  8  7  2  0
  9 10  1  0
 11 13  1  0
 11 10  1  0
 11 12  1  1
 13 14  1  6
 14  7  1  0
 15 25  1  0
 15 13  1  0
 16 15  2  0
 17 18  1  0
 18 19  2  0
 20 18  1  0
 21 20  1  0
 22 21  1  0
 23 22  1  0
 24 23  1  6
 24 25  1  0
 26 28  1  0
 26 24  1  0
 27 26  2  0
M  END
$$$$
