NIR.pdb
     RDKit          3D

 28 27  0  0  1  0  0  0  0  0999 V2000
   19.5538  -14.2473  -18.7221 N   0  0  0  0  0  0  0  0  0  0  0  0
   19.9222  -14.6802  -17.4263 C   0  0  0  0  0  0  0  0  0  0  0  0
   19.4860  -15.7677  -16.9771 O   0  0  0  0  0  0  0  0  0  0  0  0
   20.8230  -13.8646  -16.5808 C   0  0  0  0  0  0  0  0  0  0  0  0
   21.1783  -12.5710  -17.2893 C   0  0  2  0  0  0  0  0  0  0  0  0
   22.0320  -12.8762  -18.4284 N   0  0  0  0  0  0  0  0  0  0  0  0
   21.9280  -11.6551  -16.4078 C   0  0  0  0  0  0  0  0  0  0  0  0
   21.5097  -11.2918  -15.2966 O   0  0  0  0  0  0  0  0  0  0  0  0
   27.1064  -11.9732  -15.2904 C   0  0  0  0  0  0  0  0  0  0  0  0
   25.5957  -11.7312  -15.3389 C   0  0  0  0  0  0  0  0  0  0  0  0
   25.2983  -10.3240  -15.7874 C   0  0  2  0  0  0  0  0  0  0  0  0
   26.0691   -9.4032  -14.9029 C   0  0  0  0  0  0  0  0  0  0  0  0
   23.8945  -10.1131  -16.0291 C   0  0  2  0  0  0  0  0  0  0  0  0
   23.2108  -11.1320  -16.8136 N   0  0  0  0  0  0  0  0  0  0  0  0
   23.3325   -8.7673  -16.2528 C   0  0  0  0  0  0  0  0  0  0  0  0
   23.3116   -8.1841  -17.3850 O   0  0  0  0  0  0  0  0  0  0  0  0
   15.8296   -6.4761  -16.8824 N   0  0  0  0  0  0  0  0  0  0  0  0
   16.2741   -5.1512  -16.7129 C   0  0  0  0  0  0  0  0  0  0  0  0
   15.4639   -4.1604  -16.8627 N   0  0  0  0  0  0  0  0  0  0  0  0
   17.6395   -4.8788  -16.3696 N   0  0  0  0  0  0  0  0  0  0  0  0
   18.4970   -6.0552  -16.2140 C   0  0  0  0  0  0  0  0  0  0  0  0
   19.9240   -5.6204  -15.8858 C   0  0  0  0  0  0  0  0  0  0  0  0
   20.7225   -6.8652  -15.7379 C   0  0  0  0  0  0  0  0  0  0  0  0
   22.1825   -6.6588  -15.4139 C   0  0  2  0  0  0  0  0  0  0  0  0
   22.7563   -7.9825  -15.2188 N   0  0  0  0  0  0  0  0  0  0  0  0
   22.4147   -5.7870  -14.2613 C   0  0  0  0  0  0  0  0  0  0  0  0
   22.6363   -6.2754  -13.1263 O   0  0  0  0  0  0  0  0  0  0  0  0
   22.3926   -4.4181  -14.4184 O   0  0  0  0  0  0  0  0  0  0  0  0
  2  1  1  0
  2  3  2  0
  4  2  1  0
  5  4  1  0
  5  6  1  6
  7  5  1  0
  8  7  2  0
  9 10  1  0
 11 13  1  0
 11 10  1  0
 11 12  1  1
 13 14  1  6
 14  7  1  0
 15 25  1  0
 15 13  1  0
 16 15  2  0
 17 18  1  0
 18 19  2  0
 20 18  1  0
 21 20  1  0
 22 21  1  0
 23 22  1  0
 24 23  1  1
 24 25  1  0
 26 28  1  0
 26 24  1  0
 27 26  2  0
M  END
$$$$
