KMN.pdb
     RDKit          3D

 26 25  0  0  1  0  0  0  0  0999 V2000
   28.1213  -21.8505  -15.6740 N   0  0  0  0  0  0  0  0  0  0  0  0
   28.1216  -20.9597  -14.5559 C   0  0  1  0  0  0  0  0  0  0  0  0
   28.0942  -19.5316  -14.9856 C   0  0  0  0  0  0  0  0  0  0  0  0
   27.3290  -19.2652  -16.2324 C   0  0  0  0  0  0  0  0  0  0  0  0
   27.4341  -17.8621  -16.6923 C   0  0  0  0  0  0  0  0  0  0  0  0
   26.5350  -17.5812  -17.8968 C   0  0  0  0  0  0  0  0  0  0  0  0
   26.6188  -16.2271  -18.3337 N   0  0  0  0  0  0  0  0  0  0  0  0
   26.9833  -21.2882  -13.6428 C   0  0  0  0  0  0  0  0  0  0  0  0
   25.9577  -21.9070  -13.9999 O   0  0  0  0  0  0  0  0  0  0  0  0
   26.9079  -19.1795   -7.2551 C   0  0  0  0  0  0  0  0  0  0  0  0
   25.8718  -20.6524   -7.3217 S   0  0  0  0  0  0  0  0  0  0  0  0
   25.3086  -20.9849   -9.0252 C   0  0  0  0  0  0  0  0  0  0  0  0
   26.3527  -20.6023  -10.0176 C   0  0  0  0  0  0  0  0  0  0  0  0
   25.9958  -21.1087  -11.3873 C   0  0  2  0  0  0  0  0  0  0  0  0
   27.0684  -20.8742  -12.2913 N   0  0  0  0  0  0  0  0  0  0  0  0
   24.7241  -20.4686  -11.7937 C   0  0  0  0  0  0  0  0  0  0  0  0
   24.6083  -19.2662  -12.1429 O   0  0  0  0  0  0  0  0  0  0  0  0
   19.7404  -21.7938  -14.9580 N   0  0  0  0  0  0  0  0  0  0  0  0
   20.4886  -21.0484  -14.0108 C   0  0  0  0  0  0  0  0  0  0  0  0
   20.0598  -19.9273  -13.6591 O   0  0  0  0  0  0  0  0  0  0  0  0
   21.7380  -21.5708  -13.4497 C   0  0  0  0  0  0  0  0  0  0  0  0
   22.2771  -20.7362  -12.3298 C   0  0  2  0  0  0  0  0  0  0  0  0
   23.5347  -21.2483  -11.7979 N   0  0  0  0  0  0  0  0  0  0  0  0
   21.2822  -20.6322  -11.2381 C   0  0  0  0  0  0  0  0  0  0  0  0
   20.0963  -19.9676  -11.4512 O   0  0  0  0  0  0  0  0  0  0  0  0
   21.5011  -21.1430  -10.1120 O   0  0  0  0  0  0  0  0  0  0  0  0
  2  1  1  6
  3  4  1  0
  3  2  1  0
  4  5  1  0
  6  5  1  0
  7  6  1  0
  8  2  1  0
  8  9  2  0
 10 11  1  0
 11 12  1  0
 12 13  1  0
 14 13  1  1
 14 15  1  0
 15  8  1  0
 16 14  1  0
 17 16  2  0
 18 19  1  0
 19 21  1  0
 20 19  2  0
 22 21  1  6
 22 24  1  0
 22 23  1  0
 23 16  1  0
 24 25  1  0
 26 24  2  0
M  END
$$$$
