KMN.pdb
     RDKit          3D

 26 25  0  0  1  0  0  0  0  0999 V2000
   19.7056  -15.2692  -18.8014 N   0  0  0  0  0  0  0  0  0  0  0  0
   19.8716  -13.9137  -19.2246 C   0  0  1  0  0  0  0  0  0  0  0  0
   18.6612  -13.4018  -19.9302 C   0  0  0  0  0  0  0  0  0  0  0  0
   17.6169  -14.4233  -20.2081 C   0  0  0  0  0  0  0  0  0  0  0  0
   16.2467  -13.9539  -19.9024 C   0  0  0  0  0  0  0  0  0  0  0  0
   15.1809  -14.9537  -20.3528 C   0  0  0  0  0  0  0  0  0  0  0  0
   13.8585  -14.4454  -20.1973 N   0  0  0  0  0  0  0  0  0  0  0  0
   20.2384  -13.0565  -18.0550 C   0  0  0  0  0  0  0  0  0  0  0  0
   19.7436  -13.1826  -16.9141 O   0  0  0  0  0  0  0  0  0  0  0  0
   26.0671  -10.1093  -14.1292 C   0  0  0  0  0  0  0  0  0  0  0  0
   25.4585  -10.9711  -15.5902 S   0  0  0  0  0  0  0  0  0  0  0  0
   23.6742  -10.6760  -15.8332 C   0  0  0  0  0  0  0  0  0  0  0  0
   23.1736  -11.3919  -17.0407 C   0  0  0  0  0  0  0  0  0  0  0  0
   21.6796  -11.2671  -17.1519 C   0  0  2  0  0  0  0  0  0  0  0  0
   21.2037  -12.0386  -18.2478 N   0  0  0  0  0  0  0  0  0  0  0  0
   21.3477   -9.8275  -17.2487 C   0  0  0  0  0  0  0  0  0  0  0  0
   21.6024   -9.1001  -18.2422 O   0  0  0  0  0  0  0  0  0  0  0  0
   19.6353   -5.0845  -15.9531 N   0  0  0  0  0  0  0  0  0  0  0  0
   18.8027   -6.0449  -15.3231 C   0  0  0  0  0  0  0  0  0  0  0  0
   17.7594   -5.6515  -14.7562 O   0  0  0  0  0  0  0  0  0  0  0  0
   19.1473   -7.4696  -15.3303 C   0  0  0  0  0  0  0  0  0  0  0  0
   20.3471   -7.7829  -16.1690 C   0  0  2  0  0  0  0  0  0  0  0  0
   20.6937   -9.1994  -16.1530 N   0  0  0  0  0  0  0  0  0  0  0  0
   21.5109   -6.9823  -15.7250 C   0  0  0  0  0  0  0  0  0  0  0  0
   22.5303   -7.5840  -15.0235 O   0  0  0  0  0  0  0  0  0  0  0  0
   21.5866   -5.7547  -15.9781 O   0  0  0  0  0  0  0  0  0  0  0  0
  2  1  1  1
  3  4  1  0
  3  2  1  0
  4  5  1  0
  6  5  1  0
  7  6  1  0
  8  2  1  0
  8  9  2  0
 10 11  1  0
 11 12  1  0
 12 13  1  0
 14 13  1  6
 14 15  1  0
 15  8  1  0
 16 14  1  0
 17 16  2  0
 18 19  1  0
 19 21  1  0
 20 19  2  0
 22 21  1  1
 22 24  1  0
 22 23  1  0
 23 16  1  0
 24 25  1  0
 26 24  2  0
M  END
$$$$
