KMN.pdb
     RDKit          3D

 26 25  0  0  1  0  0  0  0  0999 V2000
   26.9682  -18.6787  -14.9678 N   0  0  0  0  0  0  0  0  0  0  0  0
   26.8927  -20.0417  -15.3923 C   0  0  1  0  0  0  0  0  0  0  0  0
   28.1717  -20.5022  -16.0063 C   0  0  0  0  0  0  0  0  0  0  0  0
   28.9961  -19.4280  -16.6209 C   0  0  0  0  0  0  0  0  0  0  0  0
   29.1746  -19.5937  -18.0810 C   0  0  0  0  0  0  0  0  0  0  0  0
   30.0737  -18.5107  -18.6785 C   0  0  0  0  0  0  0  0  0  0  0  0
   30.2503  -18.6653  -20.0843 N   0  0  0  0  0  0  0  0  0  0  0  0
   26.4812  -20.9100  -14.2459 C   0  0  0  0  0  0  0  0  0  0  0  0
   26.2650  -22.1373  -14.3417 O   0  0  0  0  0  0  0  0  0  0  0  0
   27.4131  -20.0685   -7.9137 C   0  0  0  0  0  0  0  0  0  0  0  0
   25.6958  -20.6144   -7.8863 S   0  0  0  0  0  0  0  0  0  0  0  0
   25.1401  -21.1231   -9.5483 C   0  0  0  0  0  0  0  0  0  0  0  0
   25.9414  -20.4498  -10.6093 C   0  0  0  0  0  0  0  0  0  0  0  0
   25.5159  -20.9158  -11.9737 C   0  0  2  0  0  0  0  0  0  0  0  0
   26.3253  -20.3088  -12.9733 N   0  0  0  0  0  0  0  0  0  0  0  0
   24.0709  -20.6306  -12.1236 C   0  0  0  0  0  0  0  0  0  0  0  0
   23.4100  -19.8708  -11.3705 O   0  0  0  0  0  0  0  0  0  0  0  0
   21.8894  -18.6206  -16.3052 N   0  0  0  0  0  0  0  0  0  0  0  0
   21.3698  -19.2737  -15.1580 C   0  0  0  0  0  0  0  0  0  0  0  0
   20.6463  -18.6202  -14.3745 O   0  0  0  0  0  0  0  0  0  0  0  0
   21.6673  -20.6832  -14.8869 C   0  0  0  0  0  0  0  0  0  0  0  0
   21.9502  -20.9601  -13.4431 C   0  0  2  0  0  0  0  0  0  0  0  0
   23.3569  -21.2476  -13.1877 N   0  0  0  0  0  0  0  0  0  0  0  0
   21.1181  -22.0859  -12.9606 C   0  0  0  0  0  0  0  0  0  0  0  0
   19.9395  -21.8330  -12.2970 O   0  0  0  0  0  0  0  0  0  0  0  0
   21.4697  -23.2769  -13.1466 O   0  0  0  0  0  0  0  0  0  0  0  0
  2  1  1  1
  3  4  1  0
  3  2  1  0
  4  5  1  0
  6  5  1  0
  7  6  1  0
  8  2  1  0
  8  9  2  0
 10 11  1  0
 11 12  1  0
 12 13  1  0
 14 13  1  1
 14 15  1  0
 15  8  1  0
 16 14  1  0
 17 16  2  0
 18 19  1  0
 19 21  1  0
 20 19  2  0
 22 21  1  6
 22 24  1  0
 22 23  1  0
 23 16  1  0
 24 25  1  0
 26 24  2  0
M  END
$$$$
