KMN.pdb
     RDKit          3D

 26 25  0  0  1  0  0  0  0  0999 V2000
   25.8280  -21.3057  -10.1827 N   0  0  0  0  0  0  0  0  0  0  0  0
   26.2447  -20.3736  -11.1834 C   0  0  1  0  0  0  0  0  0  0  0  0
   27.6639  -20.5919  -11.5869 C   0  0  0  0  0  0  0  0  0  0  0  0
   28.5374  -21.1635  -10.5279 C   0  0  0  0  0  0  0  0  0  0  0  0
   29.8999  -21.4868  -11.0078 C   0  0  0  0  0  0  0  0  0  0  0  0
   30.7763  -22.0752   -9.9015 C   0  0  0  0  0  0  0  0  0  0  0  0
   31.9924  -22.6225  -10.4046 N   0  0  0  0  0  0  0  0  0  0  0  0
   25.3169  -20.4358  -12.3550 C   0  0  0  0  0  0  0  0  0  0  0  0
   25.4121  -19.7003  -13.3612 O   0  0  0  0  0  0  0  0  0  0  0  0
   23.7482  -25.8793  -14.6651 C   0  0  0  0  0  0  0  0  0  0  0  0
   22.5458  -24.9234  -15.6074 S   0  0  0  0  0  0  0  0  0  0  0  0
   22.5115  -23.1836  -15.0579 C   0  0  0  0  0  0  0  0  0  0  0  0
   23.2833  -23.0064  -13.7954 C   0  0  0  0  0  0  0  0  0  0  0  0
   23.4016  -21.5495  -13.4442 C   0  0  2  0  0  0  0  0  0  0  0  0
   24.2651  -21.3835  -12.3263 N   0  0  0  0  0  0  0  0  0  0  0  0
   22.0364  -21.0201  -13.2256 C   0  0  0  0  0  0  0  0  0  0  0  0
   21.3701  -21.1744  -12.1705 O   0  0  0  0  0  0  0  0  0  0  0  0
   18.6714  -16.1640  -14.0883 N   0  0  0  0  0  0  0  0  0  0  0  0
   18.9053  -17.5174  -13.7331 C   0  0  0  0  0  0  0  0  0  0  0  0
   17.9802  -18.1617  -13.1913 O   0  0  0  0  0  0  0  0  0  0  0  0
   20.1987  -18.1572  -13.9909 C   0  0  0  0  0  0  0  0  0  0  0  0
   20.1102  -19.6481  -14.0940 C   0  0  2  0  0  0  0  0  0  0  0  0
   21.4125  -20.2810  -14.2682 N   0  0  0  0  0  0  0  0  0  0  0  0
   19.2167  -20.0364  -15.2091 C   0  0  0  0  0  0  0  0  0  0  0  0
   17.8712  -20.2126  -14.9809 O   0  0  0  0  0  0  0  0  0  0  0  0
   19.6663  -20.2096  -16.3687 O   0  0  0  0  0  0  0  0  0  0  0  0
  2  1  1  1
  3  4  1  0
  3  2  1  0
  4  5  1  0
  6  5  1  0
  7  6  1  0
  8  2  1  0
  8  9  2  0
 10 11  1  0
 11 12  1  0
 12 13  1  0
 14 13  1  1
 14 15  1  0
 15  8  1  0
 16 14  1  0
 17 16  2  0
 18 19  1  0
 19 21  1  0
 20 19  2  0
 22 21  1  6
 22 24  1  0
 22 23  1  0
 23 16  1  0
 24 25  1  0
 26 24  2  0
M  END
$$$$
