KMN.pdb
     RDKit          3D

 26 25  0  0  1  0  0  0  0  0999 V2000
   25.7713  -21.5916  -11.8930 N   0  0  0  0  0  0  0  0  0  0  0  0
   24.6673  -20.8548  -12.4243 C   0  0  1  0  0  0  0  0  0  0  0  0
   23.6983  -20.4644  -11.3597 C   0  0  0  0  0  0  0  0  0  0  0  0
   22.6642  -21.4858  -11.0462 C   0  0  0  0  0  0  0  0  0  0  0  0
   21.5899  -21.5584  -12.0621 C   0  0  0  0  0  0  0  0  0  0  0  0
   20.4037  -22.3988  -11.5877 C   0  0  0  0  0  0  0  0  0  0  0  0
   19.3760  -22.4922  -12.5709 N   0  0  0  0  0  0  0  0  0  0  0  0
   25.1665  -19.6678  -13.1853 C   0  0  0  0  0  0  0  0  0  0  0  0
   25.6467  -18.6458  -12.6492 O   0  0  0  0  0  0  0  0  0  0  0  0
   29.0479  -16.1591  -18.6233 C   0  0  0  0  0  0  0  0  0  0  0  0
   28.5146  -17.7065  -17.8691 S   0  0  0  0  0  0  0  0  0  0  0  0
   27.0209  -17.4618  -16.8500 C   0  0  0  0  0  0  0  0  0  0  0  0
   26.6715  -18.7053  -16.1064 C   0  0  0  0  0  0  0  0  0  0  0  0
   25.3713  -18.5376  -15.3706 C   0  0  2  0  0  0  0  0  0  0  0  0
   25.0916  -19.6992  -14.5990 N   0  0  0  0  0  0  0  0  0  0  0  0
   24.3222  -18.2165  -16.3647 C   0  0  0  0  0  0  0  0  0  0  0  0
   23.7419  -19.0634  -17.0908 O   0  0  0  0  0  0  0  0  0  0  0  0
   21.3375  -14.2008  -14.9836 N   0  0  0  0  0  0  0  0  0  0  0  0
   21.3402  -15.2104  -15.9802 C   0  0  0  0  0  0  0  0  0  0  0  0
   20.5380  -16.1634  -15.8679 O   0  0  0  0  0  0  0  0  0  0  0  0
   22.2585  -15.1483  -17.1211 C   0  0  0  0  0  0  0  0  0  0  0  0
   22.8713  -16.4717  -17.4590 C   0  0  2  0  0  0  0  0  0  0  0  0
   23.9248  -16.8608  -16.5287 N   0  0  0  0  0  0  0  0  0  0  0  0
   23.4089  -16.4547  -18.8385 C   0  0  0  0  0  0  0  0  0  0  0  0
   22.5767  -16.7170  -19.9026 O   0  0  0  0  0  0  0  0  0  0  0  0
   24.6193  -16.2036  -19.0586 O   0  0  0  0  0  0  0  0  0  0  0  0
  2  1  1  1
  3  4  1  0
  3  2  1  0
  4  5  1  0
  6  5  1  0
  7  6  1  0
  8  2  1  0
  8  9  2  0
 10 11  1  0
 11 12  1  0
 12 13  1  0
 14 13  1  6
 14 15  1  0
 15  8  1  0
 16 14  1  0
 17 16  2  0
 18 19  1  0
 19 21  1  0
 20 19  2  0
 22 21  1  1
 22 24  1  0
 22 23  1  0
 23 16  1  0
 24 25  1  0
 26 24  2  0
M  END
$$$$
