KMN.pdb
     RDKit          3D

 26 25  0  0  1  0  0  0  0  0999 V2000
   14.2274  -16.2917    4.1062 N   0  0  0  0  0  0  0  0  0  0  0  0
   15.2659  -16.8956    4.8813 C   0  0  1  0  0  0  0  0  0  0  0  0
   16.2636  -17.5950    4.0209 C   0  0  0  0  0  0  0  0  0  0  0  0
   15.7106  -18.6902    3.1807 C   0  0  0  0  0  0  0  0  0  0  0  0
   16.7249  -19.3249    2.3091 C   0  0  0  0  0  0  0  0  0  0  0  0
   16.1304  -20.4438    1.4529 C   0  0  0  0  0  0  0  0  0  0  0  0
   17.0717  -20.9766    0.5248 N   0  0  0  0  0  0  0  0  0  0  0  0
   15.9095  -15.8689    5.7581 C   0  0  0  0  0  0  0  0  0  0  0  0
   15.8083  -14.6358    5.5801 O   0  0  0  0  0  0  0  0  0  0  0  0
   17.7105  -14.4793   13.1775 C   0  0  0  0  0  0  0  0  0  0  0  0
   17.3424  -15.7112   11.9148 S   0  0  0  0  0  0  0  0  0  0  0  0
   17.3597  -14.9703   10.2473 C   0  0  0  0  0  0  0  0  0  0  0  0
   17.0403  -15.9883    9.2067 C   0  0  0  0  0  0  0  0  0  0  0  0
   17.1681  -15.3995    7.8294 C   0  0  2  0  0  0  0  0  0  0  0  0
   16.6818  -16.3167    6.8573 N   0  0  0  0  0  0  0  0  0  0  0  0
   18.5829  -15.0127    7.6276 C   0  0  0  0  0  0  0  0  0  0  0  0
   19.4774  -15.7779    7.1857 O   0  0  0  0  0  0  0  0  0  0  0  0
   20.3495  -12.5483    5.0283 N   0  0  0  0  0  0  0  0  0  0  0  0
   20.3920  -11.4914    5.9738 C   0  0  0  0  0  0  0  0  0  0  0  0
   20.4024  -10.3135    5.5535 O   0  0  0  0  0  0  0  0  0  0  0  0
   20.4231  -11.7622    7.4141 C   0  0  0  0  0  0  0  0  0  0  0  0
   20.3503  -13.2210    7.7426 C   0  0  2  0  0  0  0  0  0  0  0  0
   18.9837  -13.6865    7.9490 N   0  0  0  0  0  0  0  0  0  0  0  0
   21.1634  -13.5211    8.9431 C   0  0  0  0  0  0  0  0  0  0  0  0
   22.5295  -13.3609    8.9044 O   0  0  0  0  0  0  0  0  0  0  0  0
   20.6264  -13.9224   10.0049 O   0  0  0  0  0  0  0  0  0  0  0  0
  2  1  1  6
  3  4  1  0
  3  2  1  0
  4  5  1  0
  6  5  1  0
  7  6  1  0
  8  2  1  0
  8  9  2  0
 10 11  1  0
 11 12  1  0
 12 13  1  0
 14 13  1  1
 14 15  1  0
 15  8  1  0
 16 14  1  0
 17 16  2  0
 18 19  1  0
 19 21  1  0
 20 19  2  0
 22 21  1  1
 22 24  1  0
 22 23  1  0
 23 16  1  0
 24 25  1  0
 26 24  2  0
M  END
$$$$
