KMN.pdb
     RDKit          3D

 26 25  0  0  1  0  0  0  0  0999 V2000
   25.7016  -18.2299  -14.2765 N   0  0  0  0  0  0  0  0  0  0  0  0
   26.4288  -19.4098  -14.6267 C   0  0  1  0  0  0  0  0  0  0  0  0
   27.5946  -19.1017  -15.5046 C   0  0  0  0  0  0  0  0  0  0  0  0
   28.0094  -17.6737  -15.5201 C   0  0  0  0  0  0  0  0  0  0  0  0
   28.1517  -17.1230  -16.8867 C   0  0  0  0  0  0  0  0  0  0  0  0
   29.4331  -17.6013  -17.5705 C   0  0  0  0  0  0  0  0  0  0  0  0
   29.6212  -17.0043  -18.8510 N   0  0  0  0  0  0  0  0  0  0  0  0
   26.8422  -20.1395  -13.3881 C   0  0  0  0  0  0  0  0  0  0  0  0
   27.4436  -21.2353  -13.3908 O   0  0  0  0  0  0  0  0  0  0  0  0
   27.3119  -20.4359   -5.5777 C   0  0  0  0  0  0  0  0  0  0  0  0
   27.1916  -19.3955   -7.0442 S   0  0  0  0  0  0  0  0  0  0  0  0
   26.8035  -20.3878   -8.5255 C   0  0  0  0  0  0  0  0  0  0  0  0
   26.7680  -19.5342   -9.7467 C   0  0  0  0  0  0  0  0  0  0  0  0
   26.4419  -20.3571  -10.9618 C   0  0  2  0  0  0  0  0  0  0  0  0
   26.5347  -19.5575  -12.1343 N   0  0  0  0  0  0  0  0  0  0  0  0
   25.1062  -20.9624  -10.7583 C   0  0  0  0  0  0  0  0  0  0  0  0
   24.8209  -21.7735   -9.8407 O   0  0  0  0  0  0  0  0  0  0  0  0
   19.9294  -21.5433  -10.1013 N   0  0  0  0  0  0  0  0  0  0  0  0
   20.3217  -20.6406  -11.1230 C   0  0  0  0  0  0  0  0  0  0  0  0
   19.4730  -20.2968  -11.9750 O   0  0  0  0  0  0  0  0  0  0  0  0
   21.6888  -20.1157  -11.1884 C   0  0  0  0  0  0  0  0  0  0  0  0
   22.7093  -21.1636  -11.5073 C   0  0  2  0  0  0  0  0  0  0  0  0
   24.0540  -20.6179  -11.6509 N   0  0  0  0  0  0  0  0  0  0  0  0
   22.3345  -21.8907  -12.7415 C   0  0  0  0  0  0  0  0  0  0  0  0
   23.1115  -21.7717  -13.8709 O   0  0  0  0  0  0  0  0  0  0  0  0
   21.3130  -22.6201  -12.7783 O   0  0  0  0  0  0  0  0  0  0  0  0
  2  1  1  1
  3  4  1  0
  3  2  1  0
  4  5  1  0
  6  5  1  0
  7  6  1  0
  8  2  1  0
  8  9  2  0
 10 11  1  0
 11 12  1  0
 12 13  1  0
 14 13  1  1
 14 15  1  0
 15  8  1  0
 16 14  1  0
 17 16  2  0
 18 19  1  0
 19 21  1  0
 20 19  2  0
 22 21  1  6
 22 24  1  0
 22 23  1  0
 23 16  1  0
 24 25  1  0
 26 24  2  0
M  END
$$$$
