KMN.pdb
     RDKit          3D

 26 25  0  0  1  0  0  0  0  0999 V2000
   27.6732  -21.0674  -17.1353 N   0  0  0  0  0  0  0  0  0  0  0  0
   27.0281  -20.1021  -16.3011 C   0  0  1  0  0  0  0  0  0  0  0  0
   26.2816  -19.0889  -17.1018 C   0  0  0  0  0  0  0  0  0  0  0  0
   26.7770  -18.8965  -18.4906 C   0  0  0  0  0  0  0  0  0  0  0  0
   27.2951  -17.5326  -18.7408 C   0  0  0  0  0  0  0  0  0  0  0  0
   27.6010  -17.2944  -20.2199 C   0  0  0  0  0  0  0  0  0  0  0  0
   26.4193  -17.1308  -20.9999 N   0  0  0  0  0  0  0  0  0  0  0  0
   26.1427  -20.7934  -15.3134 C   0  0  0  0  0  0  0  0  0  0  0  0
   25.4989  -21.8355  -15.5619 O   0  0  0  0  0  0  0  0  0  0  0  0
   24.2902  -21.4559   -7.7017 C   0  0  0  0  0  0  0  0  0  0  0  0
   25.1917  -20.5294   -8.9573 S   0  0  0  0  0  0  0  0  0  0  0  0
   24.7707  -21.1121  -10.6345 C   0  0  0  0  0  0  0  0  0  0  0  0
   25.5641  -20.3872  -11.6671 C   0  0  0  0  0  0  0  0  0  0  0  0
   25.1594  -20.8189  -13.0490 C   0  0  2  0  0  0  0  0  0  0  0  0
   26.0231  -20.2361  -14.0170 N   0  0  0  0  0  0  0  0  0  0  0  0
   23.7330  -20.4699  -13.2371 C   0  0  0  0  0  0  0  0  0  0  0  0
   23.3068  -19.3143  -13.4901 O   0  0  0  0  0  0  0  0  0  0  0  0
   18.7603  -22.0277  -15.4107 N   0  0  0  0  0  0  0  0  0  0  0  0
   19.1944  -22.2851  -14.0848 C   0  0  0  0  0  0  0  0  0  0  0  0
   18.3405  -22.3143  -13.1713 O   0  0  0  0  0  0  0  0  0  0  0  0
   20.6100  -22.5135  -13.7804 C   0  0  0  0  0  0  0  0  0  0  0  0
   21.3483  -21.2596  -13.4283 C   0  0  2  0  0  0  0  0  0  0  0  0
   22.7556  -21.4974  -13.1289 N   0  0  0  0  0  0  0  0  0  0  0  0
   20.7032  -20.5863  -12.2780 C   0  0  0  0  0  0  0  0  0  0  0  0
   19.6689  -19.7041  -12.4910 O   0  0  0  0  0  0  0  0  0  0  0  0
   21.0846  -20.8063  -11.1021 O   0  0  0  0  0  0  0  0  0  0  0  0
  2  1  1  6
  3  4  1  0
  3  2  1  0
  4  5  1  0
  6  5  1  0
  7  6  1  0
  8  2  1  0
  8  9  2  0
 10 11  1  0
 11 12  1  0
 12 13  1  0
 14 13  1  1
 14 15  1  0
 15  8  1  0
 16 14  1  0
 17 16  2  0
 18 19  1  0
 19 21  1  0
 20 19  2  0
 22 21  1  1
 22 24  1  0
 22 23  1  0
 23 16  1  0
 24 25  1  0
 26 24  2  0
M  END
$$$$
