KMN.pdb
     RDKit          3D

 26 25  0  0  1  0  0  0  0  0999 V2000
   28.1406  -19.3323  -14.8828 N   0  0  0  0  0  0  0  0  0  0  0  0
   27.4026  -20.3889  -15.5016 C   0  0  1  0  0  0  0  0  0  0  0  0
   28.2994  -21.3588  -16.1944 C   0  0  0  0  0  0  0  0  0  0  0  0
   29.3527  -20.7435  -17.0449 C   0  0  0  0  0  0  0  0  0  0  0  0
   29.0195  -20.7584  -18.4872 C   0  0  0  0  0  0  0  0  0  0  0  0
   30.1341  -20.1550  -19.3426 C   0  0  0  0  0  0  0  0  0  0  0  0
   29.6382  -19.5513  -20.5347 N   0  0  0  0  0  0  0  0  0  0  0  0
   26.5310  -21.0619  -14.4893 C   0  0  0  0  0  0  0  0  0  0  0  0
   25.8109  -22.0533  -14.7363 O   0  0  0  0  0  0  0  0  0  0  0  0
   26.5386  -19.4206   -7.9362 C   0  0  0  0  0  0  0  0  0  0  0  0
   25.8037  -21.0569   -8.1098 S   0  0  0  0  0  0  0  0  0  0  0  0
   25.1602  -21.3139   -9.7979 C   0  0  0  0  0  0  0  0  0  0  0  0
   26.1066  -20.7800  -10.8179 C   0  0  0  0  0  0  0  0  0  0  0  0
   25.5906  -21.0335  -12.2068 C   0  0  2  0  0  0  0  0  0  0  0  0
   26.5170  -20.5473  -13.1701 N   0  0  0  0  0  0  0  0  0  0  0  0
   24.2460  -20.4229  -12.3129 C   0  0  0  0  0  0  0  0  0  0  0  0
   24.0210  -19.1858  -12.3213 O   0  0  0  0  0  0  0  0  0  0  0  0
   19.2391  -19.9854  -13.6089 N   0  0  0  0  0  0  0  0  0  0  0  0
   19.9998  -20.7980  -14.4884 C   0  0  0  0  0  0  0  0  0  0  0  0
   19.5157  -21.0860  -15.6051 O   0  0  0  0  0  0  0  0  0  0  0  0
   21.3253  -21.2947  -14.1075 C   0  0  0  0  0  0  0  0  0  0  0  0
   21.7961  -20.7691  -12.7871 C   0  0  2  0  0  0  0  0  0  0  0  0
   23.1119  -21.2752  -12.4139 N   0  0  0  0  0  0  0  0  0  0  0  0
   20.8190  -21.0954  -11.7234 C   0  0  0  0  0  0  0  0  0  0  0  0
   19.6509  -20.3754  -11.6202 O   0  0  0  0  0  0  0  0  0  0  0  0
   21.0372  -22.0239  -10.9067 O   0  0  0  0  0  0  0  0  0  0  0  0
  2  1  1  1
  3  4  1  0
  3  2  1  0
  4  5  1  0
  6  5  1  0
  7  6  1  0
  8  2  1  0
  8  9  2  0
 10 11  1  0
 11 12  1  0
 12 13  1  0
 14 13  1  1
 14 15  1  0
 15  8  1  0
 16 14  1  0
 17 16  2  0
 18 19  1  0
 19 21  1  0
 20 19  2  0
 22 21  1  6
 22 24  1  0
 22 23  1  0
 23 16  1  0
 24 25  1  0
 26 24  2  0
M  END
$$$$
