KMN.pdb
     RDKit          3D

 26 25  0  0  1  0  0  0  0  0999 V2000
   20.8040  -20.2360  -11.1477 N   0  0  0  0  0  0  0  0  0  0  0  0
   21.7316  -21.1838  -11.6816 C   0  0  1  0  0  0  0  0  0  0  0  0
   21.2297  -21.7991  -12.9443 C   0  0  0  0  0  0  0  0  0  0  0  0
   20.6362  -20.8429  -13.9163 C   0  0  0  0  0  0  0  0  0  0  0  0
   21.4164  -20.7257  -15.1689 C   0  0  0  0  0  0  0  0  0  0  0  0
   20.7391  -19.8066  -16.1861 C   0  0  0  0  0  0  0  0  0  0  0  0
   19.6694  -20.4508  -16.8732 N   0  0  0  0  0  0  0  0  0  0  0  0
   23.0677  -20.5383  -11.8696 C   0  0  0  0  0  0  0  0  0  0  0  0
   23.2273  -19.3271  -12.1338 O   0  0  0  0  0  0  0  0  0  0  0  0
   30.7809  -21.3551  -10.5650 C   0  0  0  0  0  0  0  0  0  0  0  0
   29.0990  -21.9114  -10.2343 S   0  0  0  0  0  0  0  0  0  0  0  0
   27.8979  -21.0477  -11.3024 C   0  0  0  0  0  0  0  0  0  0  0  0
   26.5074  -21.5049  -11.0218 C   0  0  0  0  0  0  0  0  0  0  0  0
   25.5235  -20.7887  -11.9044 C   0  0  2  0  0  0  0  0  0  0  0  0
   24.2246  -21.3449  -11.7423 N   0  0  0  0  0  0  0  0  0  0  0  0
   26.0282  -20.8504  -13.2948 C   0  0  0  0  0  0  0  0  0  0  0  0
   27.1417  -20.4041  -13.6719 O   0  0  0  0  0  0  0  0  0  0  0  0
   27.7132  -23.4218  -15.7025 N   0  0  0  0  0  0  0  0  0  0  0  0
   26.4491  -23.8207  -16.2080 C   0  0  0  0  0  0  0  0  0  0  0  0
   26.2998  -25.0067  -16.5762 O   0  0  0  0  0  0  0  0  0  0  0  0
   25.3352  -22.8725  -16.3011 C   0  0  0  0  0  0  0  0  0  0  0  0
   25.6391  -21.5419  -15.6859 C   0  0  2  0  0  0  0  0  0  0  0  0
   25.2144  -21.4526  -14.2937 N   0  0  0  0  0  0  0  0  0  0  0  0
   25.0072  -20.4550  -16.4681 C   0  0  0  0  0  0  0  0  0  0  0  0
   25.6672  -19.9128  -17.5470 O   0  0  0  0  0  0  0  0  0  0  0  0
   23.8714  -20.0144  -16.1639 O   0  0  0  0  0  0  0  0  0  0  0  0
  2  1  1  6
  3  4  1  0
  3  2  1  0
  4  5  1  0
  6  5  1  0
  7  6  1  0
  8  2  1  0
  8  9  2  0
 10 11  1  0
 11 12  1  0
 12 13  1  0
 14 13  1  1
 14 15  1  0
 15  8  1  0
 16 14  1  0
 17 16  2  0
 18 19  1  0
 19 21  1  0
 20 19  2  0
 22 21  1  6
 22 24  1  0
 22 23  1  0
 23 16  1  0
 24 25  1  0
 26 24  2  0
M  END
$$$$
