KMN.pdb
     RDKit          3D

 26 25  0  0  1  0  0  0  0  0999 V2000
   26.0317  -20.6557  -16.9797 N   0  0  0  0  0  0  0  0  0  0  0  0
   25.8583  -19.8481  -15.8128 C   0  0  1  0  0  0  0  0  0  0  0  0
   25.0819  -18.6091  -16.1073 C   0  0  0  0  0  0  0  0  0  0  0  0
   24.6318  -18.4700  -17.5177 C   0  0  0  0  0  0  0  0  0  0  0  0
   23.2283  -18.8920  -17.7259 C   0  0  0  0  0  0  0  0  0  0  0  0
   22.7661  -18.6668  -19.1660 C   0  0  0  0  0  0  0  0  0  0  0  0
   21.4072  -19.0469  -19.3665 N   0  0  0  0  0  0  0  0  0  0  0  0
   25.2262  -20.6557  -14.7240 C   0  0  0  0  0  0  0  0  0  0  0  0
   24.4496  -21.6140  -14.9261 O   0  0  0  0  0  0  0  0  0  0  0  0
   26.2344  -19.2946   -8.1761 C   0  0  0  0  0  0  0  0  0  0  0  0
   25.8144  -21.0423   -8.3067 S   0  0  0  0  0  0  0  0  0  0  0  0
   24.9488  -21.3961   -9.8737 C   0  0  0  0  0  0  0  0  0  0  0  0
   25.5640  -20.6463  -11.0053 C   0  0  0  0  0  0  0  0  0  0  0  0
   24.8835  -20.9871  -12.3017 C   0  0  2  0  0  0  0  0  0  0  0  0
   25.5221  -20.3168  -13.3813 N   0  0  0  0  0  0  0  0  0  0  0  0
   23.4466  -20.6584  -12.1634 C   0  0  0  0  0  0  0  0  0  0  0  0
   22.9763  -19.4922  -12.1659 O   0  0  0  0  0  0  0  0  0  0  0  0
   19.7382  -23.0444  -15.2655 N   0  0  0  0  0  0  0  0  0  0  0  0
   20.0427  -22.1047  -14.2473 C   0  0  0  0  0  0  0  0  0  0  0  0
   20.0373  -20.8877  -14.5360 O   0  0  0  0  0  0  0  0  0  0  0  0
   20.3580  -22.5390  -12.8832 C   0  0  0  0  0  0  0  0  0  0  0  0
   21.0719  -21.4957  -12.0812 C   0  0  2  0  0  0  0  0  0  0  0  0
   22.5114  -21.7197  -12.0160 N   0  0  0  0  0  0  0  0  0  0  0  0
   20.5174  -21.4294  -10.7099 C   0  0  0  0  0  0  0  0  0  0  0  0
   19.2352  -20.9719  -10.5094 O   0  0  0  0  0  0  0  0  0  0  0  0
   21.1998  -21.7855   -9.7177 O   0  0  0  0  0  0  0  0  0  0  0  0
  2  1  1  6
  3  4  1  0
  3  2  1  0
  4  5  1  0
  6  5  1  0
  7  6  1  0
  8  2  1  0
  8  9  2  0
 10 11  1  0
 11 12  1  0
 12 13  1  0
 14 13  1  1
 14 15  1  0
 15  8  1  0
 16 14  1  0
 17 16  2  0
 18 19  1  0
 19 21  1  0
 20 19  2  0
 22 21  1  6
 22 24  1  0
 22 23  1  0
 23 16  1  0
 24 25  1  0
 26 24  2  0
M  END
$$$$
