KMN.pdb
     RDKit          3D

 26 25  0  0  1  0  0  0  0  0999 V2000
   29.1363  -23.1427  -18.5382 N   0  0  0  0  0  0  0  0  0  0  0  0
   28.0935  -23.9638  -18.0070 C   0  0  1  0  0  0  0  0  0  0  0  0
   28.6336  -25.1901  -17.3518 C   0  0  0  0  0  0  0  0  0  0  0  0
   29.7772  -25.8273  -18.0570 C   0  0  0  0  0  0  0  0  0  0  0  0
   31.0400  -25.7738  -17.2864 C   0  0  0  0  0  0  0  0  0  0  0  0
   31.1621  -26.9345  -16.2983 C   0  0  0  0  0  0  0  0  0  0  0  0
   32.3475  -26.8556  -15.5109 N   0  0  0  0  0  0  0  0  0  0  0  0
   27.2407  -23.1638  -17.0742 C   0  0  0  0  0  0  0  0  0  0  0  0
   26.4513  -23.6659  -16.2452 O   0  0  0  0  0  0  0  0  0  0  0  0
   28.3057  -16.7732  -15.8521 C   0  0  0  0  0  0  0  0  0  0  0  0
   27.1144  -17.2890  -14.6022 S   0  0  0  0  0  0  0  0  0  0  0  0
   26.2753  -18.8341  -15.0902 C   0  0  0  0  0  0  0  0  0  0  0  0
   27.1369  -19.6478  -15.9940 C   0  0  0  0  0  0  0  0  0  0  0  0
   26.4531  -20.9341  -16.3651 C   0  0  2  0  0  0  0  0  0  0  0  0
   27.3294  -21.7517  -17.1309 N   0  0  0  0  0  0  0  0  0  0  0  0
   25.1922  -20.5960  -17.0634 C   0  0  0  0  0  0  0  0  0  0  0  0
   25.1252  -20.0554  -18.1968 O   0  0  0  0  0  0  0  0  0  0  0  0
   21.0083  -23.0565  -19.0716 N   0  0  0  0  0  0  0  0  0  0  0  0
   22.0061  -22.7055  -18.1262 C   0  0  0  0  0  0  0  0  0  0  0  0
   23.1351  -23.2348  -18.2244 O   0  0  0  0  0  0  0  0  0  0  0  0
   21.7314  -21.7446  -17.0539 C   0  0  0  0  0  0  0  0  0  0  0  0
   22.6730  -20.5807  -17.0481 C   0  0  2  0  0  0  0  0  0  0  0  0
   23.9552  -20.8940  -16.4280 N   0  0  0  0  0  0  0  0  0  0  0  0
   22.0585  -19.4229  -16.3594 C   0  0  0  0  0  0  0  0  0  0  0  0
   21.3431  -18.4954  -17.0815 O   0  0  0  0  0  0  0  0  0  0  0  0
   22.1784  -19.2693  -15.1189 O   0  0  0  0  0  0  0  0  0  0  0  0
  2  1  1  1
  3  4  1  0
  3  2  1  0
  4  5  1  0
  6  5  1  0
  7  6  1  0
  8  2  1  0
  8  9  2  0
 10 11  1  0
 11 12  1  0
 12 13  1  0
 14 13  1  6
 14 15  1  0
 15  8  1  0
 16 14  1  0
 17 16  2  0
 18 19  1  0
 19 21  1  0
 20 19  2  0
 22 21  1  1
 22 24  1  0
 22 23  1  0
 23 16  1  0
 24 25  1  0
 26 24  2  0
M  END
$$$$
