KMN.pdb
     RDKit          3D

 26 25  0  0  1  0  0  0  0  0999 V2000
   15.6626  -11.3981  -10.5020 N   0  0  0  0  0  0  0  0  0  0  0  0
   15.2776  -10.7361  -11.7092 C   0  0  1  0  0  0  0  0  0  0  0  0
   13.8578  -11.0197  -12.0677 C   0  0  0  0  0  0  0  0  0  0  0  0
   13.5214  -12.4613  -12.2090 C   0  0  0  0  0  0  0  0  0  0  0  0
   13.3422  -13.1479  -10.9098 C   0  0  0  0  0  0  0  0  0  0  0  0
   12.9484  -14.6153  -11.0828 C   0  0  0  0  0  0  0  0  0  0  0  0
   11.5932  -14.7693  -11.4963 N   0  0  0  0  0  0  0  0  0  0  0  0
   15.5392   -9.2682  -11.5906 C   0  0  0  0  0  0  0  0  0  0  0  0
   15.3905   -8.4542  -12.5274 O   0  0  0  0  0  0  0  0  0  0  0  0
   14.4228   -3.2641   -6.9740 C   0  0  0  0  0  0  0  0  0  0  0  0
   14.4861   -5.0537   -7.1758 S   0  0  0  0  0  0  0  0  0  0  0  0
   15.5087   -5.5184   -8.6139 C   0  0  0  0  0  0  0  0  0  0  0  0
   15.5617   -6.9989   -8.7762 C   0  0  0  0  0  0  0  0  0  0  0  0
   16.1149   -7.3669  -10.1247 C   0  0  2  0  0  0  0  0  0  0  0  0
   15.9833   -8.7661  -10.3432 N   0  0  0  0  0  0  0  0  0  0  0  0
   17.5123   -6.8826  -10.1927 C   0  0  0  0  0  0  0  0  0  0  0  0
   18.4711   -7.3720   -9.5429 O   0  0  0  0  0  0  0  0  0  0  0  0
   21.7309   -5.2081  -12.6129 N   0  0  0  0  0  0  0  0  0  0  0  0
   21.1771   -6.5141  -12.5965 C   0  0  0  0  0  0  0  0  0  0  0  0
   21.8785   -7.4661  -13.0040 O   0  0  0  0  0  0  0  0  0  0  0  0
   19.8138   -6.7544  -12.1144 C   0  0  0  0  0  0  0  0  0  0  0  0
   19.1714   -5.5362  -11.5274 C   0  0  2  0  0  0  0  0  0  0  0  0
   17.8176   -5.7871  -11.0467 N   0  0  0  0  0  0  0  0  0  0  0  0
   19.1502   -4.4356  -12.5178 C   0  0  0  0  0  0  0  0  0  0  0  0
   20.1747   -3.5173  -12.5452 O   0  0  0  0  0  0  0  0  0  0  0  0
   18.2080   -4.3227  -13.3401 O   0  0  0  0  0  0  0  0  0  0  0  0
  2  1  1  1
  3  4  1  0
  3  2  1  0
  4  5  1  0
  6  5  1  0
  7  6  1  0
  8  2  1  0
  8  9  2  0
 10 11  1  0
 11 12  1  0
 12 13  1  0
 14 13  1  1
 14 15  1  0
 15  8  1  0
 16 14  1  0
 17 16  2  0
 18 19  1  0
 19 21  1  0
 20 19  2  0
 22 21  1  6
 22 24  1  0
 22 23  1  0
 23 16  1  0
 24 25  1  0
 26 24  2  0
M  END
$$$$
