KMN.pdb
     RDKit          3D

 26 25  0  0  1  0  0  0  0  0999 V2000
   21.4268  -12.7673  -17.0113 N   0  0  0  0  0  0  0  0  0  0  0  0
   20.7906  -11.6904  -17.7037 C   0  0  1  0  0  0  0  0  0  0  0  0
   19.6765  -12.1712  -18.5712 C   0  0  0  0  0  0  0  0  0  0  0  0
   20.0568  -13.2114  -19.5634 C   0  0  0  0  0  0  0  0  0  0  0  0
   18.9221  -13.6598  -20.4017 C   0  0  0  0  0  0  0  0  0  0  0  0
   19.3512  -14.6842  -21.4527 C   0  0  0  0  0  0  0  0  0  0  0  0
   18.2696  -15.0947  -22.2851 N   0  0  0  0  0  0  0  0  0  0  0  0
   20.3283  -10.6583  -16.7248 C   0  0  0  0  0  0  0  0  0  0  0  0
   19.2463  -10.7212  -16.1020 O   0  0  0  0  0  0  0  0  0  0  0  0
   22.8607  -10.6565  -11.0288 C   0  0  0  0  0  0  0  0  0  0  0  0
   22.9461   -9.2829  -12.1922 S   0  0  0  0  0  0  0  0  0  0  0  0
   21.6479   -9.4184  -13.4674 C   0  0  0  0  0  0  0  0  0  0  0  0
   21.8001   -8.3549  -14.5003 C   0  0  0  0  0  0  0  0  0  0  0  0
   20.7701   -8.5141  -15.5836 C   0  0  2  0  0  0  0  0  0  0  0  0
   21.1636   -9.5398  -16.4869 N   0  0  0  0  0  0  0  0  0  0  0  0
   20.5775   -7.1952  -16.2280 C   0  0  0  0  0  0  0  0  0  0  0  0
   21.1477   -6.8262  -17.2863 O   0  0  0  0  0  0  0  0  0  0  0  0
   17.5959   -3.7290  -19.3117 N   0  0  0  0  0  0  0  0  0  0  0  0
   18.5973   -3.8545  -18.3146 C   0  0  0  0  0  0  0  0  0  0  0  0
   19.2683   -2.8437  -18.0108 O   0  0  0  0  0  0  0  0  0  0  0  0
   18.8484   -5.1357  -17.6481 C   0  0  0  0  0  0  0  0  0  0  0  0
   19.3711   -4.9836  -16.2535 C   0  0  2  0  0  0  0  0  0  0  0  0
   19.6893   -6.2614  -15.6266 N   0  0  0  0  0  0  0  0  0  0  0  0
   18.3977   -4.2481  -15.4146 C   0  0  0  0  0  0  0  0  0  0  0  0
   18.6936   -2.9790  -14.9727 O   0  0  0  0  0  0  0  0  0  0  0  0
   17.2981   -4.7639  -15.0956 O   0  0  0  0  0  0  0  0  0  0  0  0
  2  1  1  1
  3  4  1  0
  3  2  1  0
  4  5  1  0
  6  5  1  0
  7  6  1  0
  8  2  1  0
  8  9  2  0
 10 11  1  0
 11 12  1  0
 12 13  1  0
 14 13  1  1
 14 15  1  0
 15  8  1  0
 16 14  1  0
 17 16  2  0
 18 19  1  0
 19 21  1  0
 20 19  2  0
 22 21  1  6
 22 24  1  0
 22 23  1  0
 23 16  1  0
 24 25  1  0
 26 24  2  0
M  END
$$$$
