SLF.pdb
     RDKit          3D

 26 26  0  0  1  0  0  0  0  0999 V2000
   15.0662  -12.5994    5.2065 O   0  0  0  0  0  0  0  0  0  0  0  0
   14.3919  -12.9861    4.0426 C   0  0  0  0  0  0  0  0  0  0  0  0
   13.6360  -14.2804    4.2723 C   0  0  2  0  0  0  0  0  0  0  0  0
   12.6399  -14.0669    5.2806 N   0  0  0  0  0  0  0  0  0  0  0  0
   14.5291  -15.4081    4.5527 C   0  0  0  0  0  0  0  0  0  0  0  0
   14.5827  -15.9121    5.7005 O   0  0  0  0  0  0  0  0  0  0  0  0
   18.0021  -19.8491    1.9060 C   0  0  0  0  0  0  0  0  0  0  0  0
   17.2745  -19.2903    3.1001 C   0  0  2  0  0  0  0  0  0  0  0  0
   16.3193  -20.3202    3.6680 C   0  0  0  0  0  0  0  0  0  0  0  0
   16.6171  -18.0061    2.7714 C   0  0  0  0  0  0  0  0  0  0  0  0
   16.2099  -17.1248    3.8820 C   0  0  2  0  0  0  0  0  0  0  0  0
   15.3827  -15.9989    3.5583 N   0  0  0  0  0  0  0  0  0  0  0  0
   17.4047  -16.5949    4.6325 C   0  0  0  0  0  0  0  0  0  0  0  0
   18.0491  -15.6721    4.0451 O   0  0  0  0  0  0  0  0  0  0  0  0
   17.7355  -17.1152    5.8794 N   0  0  0  0  0  0  0  0  0  0  0  0
   18.9061  -16.5875    6.5795 C   0  0  1  0  0  0  0  0  0  0  0  0
   18.4169  -15.2987    7.2326 C   0  0  0  0  0  0  0  0  0  0  0  0
   19.0246  -14.1139    6.5989 C   0  0  0  0  0  0  0  0  0  0  0  0
   18.3959  -13.3001    5.6831 C   0  0  0  0  0  0  0  0  0  0  0  0
   19.0299  -12.1871    5.1219 C   0  0  0  0  0  0  0  0  0  0  0  0
   20.3208  -11.8739    5.4786 C   0  0  0  0  0  0  0  0  0  0  0  0
   20.9536  -12.6868    6.3954 C   0  0  0  0  0  0  0  0  0  0  0  0
   20.3346  -13.7744    6.9442 C   0  0  0  0  0  0  0  0  0  0  0  0
   19.4374  -17.5537    7.5475 C   0  0  0  0  0  0  0  0  0  0  0  0
   20.4985  -17.2337    8.3609 O   0  0  0  0  0  0  0  0  0  0  0  0
   18.9203  -18.6882    7.6370 O   0  0  0  0  0  0  0  0  0  0  0  0
  1  2  1  0
  3  2  1  0
  3  5  1  0
  3  4  1  1
  5  6  2  0
  8  7  1  6
  8  9  1  0
 10  8  1  0
 11 10  1  6
 12 11  1  0
 12  5  1  0
 13 11  1  0
 13 14  2  0
 15 13  1  0
 16 15  1  0
 16 24  1  0
 16 17  1  1
 18 19  2  0
 18 17  1  0
 20 19  1  0
 21 20  2  0
 22 21  1  0
 22 23  2  0
 23 18  1  0
 24 26  2  0
 24 25  1  0
M  END
$$$$
