SLF.pdb
     RDKit          3D

 26 26  0  0  1  0  0  0  0  0999 V2000
   20.6983  -19.3404  -10.5300 O   0  0  0  0  0  0  0  0  0  0  0  0
   20.3634  -20.4034  -11.3765 C   0  0  0  0  0  0  0  0  0  0  0  0
   21.2747  -20.4243  -12.5883 C   0  0  2  0  0  0  0  0  0  0  0  0
   20.5637  -20.9884  -13.6977 N   0  0  0  0  0  0  0  0  0  0  0  0
   22.5570  -21.0785  -12.3133 C   0  0  0  0  0  0  0  0  0  0  0  0
   22.6071  -22.3050  -12.0536 O   0  0  0  0  0  0  0  0  0  0  0  0
   25.3229  -23.3661  -14.1089 C   0  0  0  0  0  0  0  0  0  0  0  0
   25.5779  -21.9273  -14.4730 C   0  0  2  0  0  0  0  0  0  0  0  0
   26.5784  -21.8373  -15.6072 C   0  0  0  0  0  0  0  0  0  0  0  0
   25.9729  -21.1384  -13.2851 C   0  0  0  0  0  0  0  0  0  0  0  0
   25.0453  -21.0883  -12.1393 C   0  0  2  0  0  0  0  0  0  0  0  0
   23.8126  -20.3785  -12.3220 N   0  0  0  0  0  0  0  0  0  0  0  0
   25.7104  -20.5123  -10.9157 C   0  0  0  0  0  0  0  0  0  0  0  0
   25.0946  -19.5474  -10.3666 O   0  0  0  0  0  0  0  0  0  0  0  0
   26.9152  -21.0378  -10.4606 N   0  0  0  0  0  0  0  0  0  0  0  0
   27.5842  -20.3990   -9.3278 C   0  0  1  0  0  0  0  0  0  0  0  0
   26.6524  -20.6385   -8.1440 C   0  0  0  0  0  0  0  0  0  0  0  0
   27.2791  -20.2192   -6.8767 C   0  0  0  0  0  0  0  0  0  0  0  0
   27.8208  -21.0753   -5.9442 C   0  0  0  0  0  0  0  0  0  0  0  0
   28.4047  -20.6104   -4.7615 C   0  0  0  0  0  0  0  0  0  0  0  0
   28.4520  -19.2614   -4.4977 C   0  0  0  0  0  0  0  0  0  0  0  0
   27.9103  -18.4010   -5.4294 C   0  0  0  0  0  0  0  0  0  0  0  0
   27.3397  -18.8546   -6.5851 C   0  0  0  0  0  0  0  0  0  0  0  0
   28.9295  -20.9455   -9.1169 C   0  0  0  0  0  0  0  0  0  0  0  0
   29.9352  -20.1719   -8.5874 O   0  0  0  0  0  0  0  0  0  0  0  0
   29.1700  -22.1332   -9.4231 O   0  0  0  0  0  0  0  0  0  0  0  0
  1  2  1  0
  3  2  1  0
  3  5  1  0
  3  4  1  6
  5  6  2  0
  8  7  1  1
  8  9  1  0
 10  8  1  0
 11 10  1  6
 12 11  1  0
 12  5  1  0
 13 11  1  0
 13 14  2  0
 15 13  1  0
 16 15  1  0
 16 24  1  0
 16 17  1  1
 18 19  2  0
 18 17  1  0
 20 19  1  0
 21 20  2  0
 22 21  1  0
 22 23  2  0
 23 18  1  0
 24 26  2  0
 24 25  1  0
M  END
$$$$
