SLF.pdb
     RDKit          3D

 26 26  0  0  1  0  0  0  0  0999 V2000
   17.6216  -23.4495  -14.2336 O   0  0  0  0  0  0  0  0  0  0  0  0
   17.5523  -23.9593  -12.9320 C   0  0  0  0  0  0  0  0  0  0  0  0
   18.9284  -24.3780  -12.4520 C   0  0  2  0  0  0  0  0  0  0  0  0
   18.8218  -24.8896  -11.1174 N   0  0  0  0  0  0  0  0  0  0  0  0
   19.9213  -23.3101  -12.5985 C   0  0  0  0  0  0  0  0  0  0  0  0
   20.0283  -22.4119  -11.7290 O   0  0  0  0  0  0  0  0  0  0  0  0
   25.0933  -24.0844  -14.1473 C   0  0  0  0  0  0  0  0  0  0  0  0
   23.6232  -23.8294  -14.3512 C   0  0  2  0  0  0  0  0  0  0  0  0
   23.2706  -23.9105  -15.8224 C   0  0  0  0  0  0  0  0  0  0  0  0
   23.2109  -22.5544  -13.7236 C   0  0  0  0  0  0  0  0  0  0  0  0
   21.7890  -22.1682  -13.7944 C   0  0  2  0  0  0  0  0  0  0  0  0
   20.8176  -23.2205  -13.7190 N   0  0  0  0  0  0  0  0  0  0  0  0
   21.4925  -21.3811  -15.0450 C   0  0  0  0  0  0  0  0  0  0  0  0
   20.8934  -22.0236  -15.9615 O   0  0  0  0  0  0  0  0  0  0  0  0
   21.8704  -20.0457  -15.1379 N   0  0  0  0  0  0  0  0  0  0  0  0
   21.5642  -19.3060  -16.3619 C   0  0  1  0  0  0  0  0  0  0  0  0
   21.4309  -17.8544  -15.9127 C   0  0  0  0  0  0  0  0  0  0  0  0
   21.1820  -16.9605  -17.0589 C   0  0  0  0  0  0  0  0  0  0  0  0
   22.1374  -16.5537  -17.9632 C   0  0  0  0  0  0  0  0  0  0  0  0
   21.8328  -15.7056  -19.0326 C   0  0  0  0  0  0  0  0  0  0  0  0
   20.5471  -15.2496  -19.2089 C   0  0  0  0  0  0  0  0  0  0  0  0
   19.5878  -15.6549  -18.3049 C   0  0  0  0  0  0  0  0  0  0  0  0
   19.8848  -16.4836  -17.2598 C   0  0  0  0  0  0  0  0  0  0  0  0
   22.6017  -19.4966  -17.3818 C   0  0  0  0  0  0  0  0  0  0  0  0
   22.3059  -19.4053  -18.7214 O   0  0  0  0  0  0  0  0  0  0  0  0
   23.7751  -19.7471  -17.0317 O   0  0  0  0  0  0  0  0  0  0  0  0
  1  2  1  0
  3  2  1  0
  3  5  1  0
  3  4  1  1
  5  6  2  0
  8  7  1  6
  8  9  1  0
 10  8  1  0
 11 10  1  6
 12 11  1  0
 12  5  1  0
 13 11  1  0
 13 14  2  0
 15 13  1  0
 16 15  1  0
 16 24  1  0
 16 17  1  1
 18 19  2  0
 18 17  1  0
 20 19  1  0
 21 20  2  0
 22 21  1  0
 22 23  2  0
 23 18  1  0
 24 26  2  0
 24 25  1  0
M  END
$$$$
