SLF.pdb
     RDKit          3D

 26 26  0  0  1  0  0  0  0  0999 V2000
   25.9698  -18.5345  -13.0224 O   0  0  0  0  0  0  0  0  0  0  0  0
   27.3135  -18.4577  -12.6385 C   0  0  0  0  0  0  0  0  0  0  0  0
   28.1150  -19.5699  -13.2866 C   0  0  2  0  0  0  0  0  0  0  0  0
   27.4902  -19.9363  -14.5234 N   0  0  0  0  0  0  0  0  0  0  0  0
   28.3397  -20.6994  -12.3802 C   0  0  0  0  0  0  0  0  0  0  0  0
   27.8421  -21.8251  -12.6246 O   0  0  0  0  0  0  0  0  0  0  0  0
   31.6839  -23.1427  -11.5005 C   0  0  0  0  0  0  0  0  0  0  0  0
   31.7744  -21.9904  -10.5353 C   0  0  2  0  0  0  0  0  0  0  0  0
   33.0732  -22.0516   -9.7576 C   0  0  0  0  0  0  0  0  0  0  0  0
   30.5785  -21.9272   -9.6662 C   0  0  0  0  0  0  0  0  0  0  0  0
   29.2629  -21.7230  -10.3012 C   0  0  2  0  0  0  0  0  0  0  0  0
   29.1249  -20.5983  -11.1803 N   0  0  0  0  0  0  0  0  0  0  0  0
   28.1646  -21.6193   -9.2743 C   0  0  0  0  0  0  0  0  0  0  0  0
   28.1340  -22.5543   -8.4160 O   0  0  0  0  0  0  0  0  0  0  0  0
   27.2721  -20.5530   -9.3088 N   0  0  0  0  0  0  0  0  0  0  0  0
   26.1409  -20.5454   -8.3819 C   0  0  1  0  0  0  0  0  0  0  0  0
   26.3320  -19.2813   -7.5499 C   0  0  0  0  0  0  0  0  0  0  0  0
   27.2123  -19.5302   -6.3933 C   0  0  0  0  0  0  0  0  0  0  0  0
   28.3281  -18.7875   -6.0777 C   0  0  0  0  0  0  0  0  0  0  0  0
   29.1194  -19.0758   -4.9613 C   0  0  0  0  0  0  0  0  0  0  0  0
   28.7951  -20.1282   -4.1371 C   0  0  0  0  0  0  0  0  0  0  0  0
   27.6783  -20.8742   -4.4503 C   0  0  0  0  0  0  0  0  0  0  0  0
   26.9047  -20.5930   -5.5409 C   0  0  0  0  0  0  0  0  0  0  0  0
   24.8586  -20.5732   -9.0946 C   0  0  0  0  0  0  0  0  0  0  0  0
   23.6731  -20.7343   -8.4173 O   0  0  0  0  0  0  0  0  0  0  0  0
   24.8390  -20.4494  -10.3383 O   0  0  0  0  0  0  0  0  0  0  0  0
  1  2  1  0
  3  2  1  0
  3  5  1  0
  3  4  1  6
  5  6  2  0
  8  7  1  1
  8  9  1  0
 10  8  1  0
 11 10  1  1
 12 11  1  0
 12  5  1  0
 13 11  1  0
 13 14  2  0
 15 13  1  0
 16 15  1  0
 16 24  1  0
 16 17  1  6
 18 19  2  0
 18 17  1  0
 20 19  1  0
 21 20  2  0
 22 21  1  0
 22 23  2  0
 23 18  1  0
 24 26  2  0
 24 25  1  0
M  END
$$$$
