SLF.pdb
     RDKit          3D

 26 26  0  0  1  0  0  0  0  0999 V2000
   25.1518  -12.2169  -15.8253 O   0  0  0  0  0  0  0  0  0  0  0  0
   24.5297  -11.0579  -16.3036 C   0  0  0  0  0  0  0  0  0  0  0  0
   23.4517  -11.4109  -17.3099 C   0  0  2  0  0  0  0  0  0  0  0  0
   24.0469  -11.5345  -18.6079 N   0  0  0  0  0  0  0  0  0  0  0  0
   22.3183  -10.4829  -17.2650 C   0  0  0  0  0  0  0  0  0  0  0  0
   22.3775   -9.3717  -17.8447 O   0  0  0  0  0  0  0  0  0  0  0  0
   16.1986  -10.1150  -16.7723 C   0  0  0  0  0  0  0  0  0  0  0  0
   17.5222   -9.3977  -16.7381 C   0  0  2  0  0  0  0  0  0  0  0  0
   17.6103   -8.3941  -17.8697 C   0  0  0  0  0  0  0  0  0  0  0  0
   18.6486  -10.3570  -16.7224 C   0  0  0  0  0  0  0  0  0  0  0  0
   20.0160   -9.8270  -16.5639 C   0  0  2  0  0  0  0  0  0  0  0  0
   21.0930  -10.7740  -16.5718 N   0  0  0  0  0  0  0  0  0  0  0  0
   20.1502   -9.0148  -15.3015 C   0  0  0  0  0  0  0  0  0  0  0  0
   20.3220   -9.6877  -14.2388 O   0  0  0  0  0  0  0  0  0  0  0  0
   20.0832   -7.6263  -15.3517 N   0  0  0  0  0  0  0  0  0  0  0  0
   20.2298   -6.8644  -14.1119 C   0  0  1  0  0  0  0  0  0  0  0  0
   21.6335   -7.1986  -13.6172 C   0  0  0  0  0  0  0  0  0  0  0  0
   22.6635   -6.5922  -14.4809 C   0  0  0  0  0  0  0  0  0  0  0  0
   22.9176   -5.2422  -14.5759 C   0  0  0  0  0  0  0  0  0  0  0  0
   23.9142   -4.7324  -15.4142 C   0  0  0  0  0  0  0  0  0  0  0  0
   24.6779   -5.5842  -16.1777 C   0  0  0  0  0  0  0  0  0  0  0  0
   24.4261   -6.9369  -16.0851 C   0  0  0  0  0  0  0  0  0  0  0  0
   23.4525   -7.4357  -15.2663 C   0  0  0  0  0  0  0  0  0  0  0  0
   20.0279   -5.4282  -14.3337 C   0  0  0  0  0  0  0  0  0  0  0  0
   19.8373   -4.9249  -15.5988 O   0  0  0  0  0  0  0  0  0  0  0  0
   20.0292   -4.6453  -13.3592 O   0  0  0  0  0  0  0  0  0  0  0  0
  1  2  1  0
  3  2  1  0
  3  5  1  0
  3  4  1  6
  5  6  2  0
  8  7  1  6
  8  9  1  0
 10  8  1  0
 11 10  1  1
 12 11  1  0
 12  5  1  0
 13 11  1  0
 13 14  2  0
 15 13  1  0
 16 15  1  0
 16 24  1  0
 16 17  1  6
 18 19  2  0
 18 17  1  0
 20 19  1  0
 21 20  2  0
 22 21  1  0
 22 23  2  0
 23 18  1  0
 24 26  2  0
 24 25  1  0
M  END
$$$$
