SLF.pdb
     RDKit          3D

 26 26  0  0  1  0  0  0  0  0999 V2000
   27.2471  -17.4185  -12.9670 O   0  0  0  0  0  0  0  0  0  0  0  0
   27.0024  -18.7904  -12.8375 C   0  0  0  0  0  0  0  0  0  0  0  0
   28.2588  -19.5843  -13.1386 C   0  0  2  0  0  0  0  0  0  0  0  0
   28.2380  -19.9878  -14.5137 N   0  0  0  0  0  0  0  0  0  0  0  0
   28.4594  -20.6920  -12.2002 C   0  0  0  0  0  0  0  0  0  0  0  0
   27.8931  -21.7966  -12.3833 O   0  0  0  0  0  0  0  0  0  0  0  0
   31.6072  -23.4514  -11.3718 C   0  0  0  0  0  0  0  0  0  0  0  0
   31.8716  -22.2229  -10.5420 C   0  0  2  0  0  0  0  0  0  0  0  0
   33.2271  -22.3181   -9.8718 C   0  0  0  0  0  0  0  0  0  0  0  0
   30.7675  -21.9754   -9.5886 C   0  0  0  0  0  0  0  0  0  0  0  0
   29.4244  -21.6975  -10.1313 C   0  0  2  0  0  0  0  0  0  0  0  0
   29.2968  -20.5919  -11.0359 N   0  0  0  0  0  0  0  0  0  0  0  0
   28.4169  -21.4869   -9.0304 C   0  0  0  0  0  0  0  0  0  0  0  0
   28.8735  -21.5884   -7.8501 O   0  0  0  0  0  0  0  0  0  0  0  0
   27.0907  -21.2033   -9.3396 N   0  0  0  0  0  0  0  0  0  0  0  0
   26.1591  -20.9000   -8.2538 C   0  0  1  0  0  0  0  0  0  0  0  0
   26.6299  -19.5569   -7.7050 C   0  0  0  0  0  0  0  0  0  0  0  0
   27.4201  -19.7302   -6.4720 C   0  0  0  0  0  0  0  0  0  0  0  0
   27.3217  -20.8054   -5.6175 C   0  0  0  0  0  0  0  0  0  0  0  0
   28.1053  -20.9099   -4.4638 C   0  0  0  0  0  0  0  0  0  0  0  0
   29.0094  -19.9219   -4.1503 C   0  0  0  0  0  0  0  0  0  0  0  0
   29.1104  -18.8435   -5.0039 C   0  0  0  0  0  0  0  0  0  0  0  0
   28.3451  -18.7409   -6.1313 C   0  0  0  0  0  0  0  0  0  0  0  0
   24.7703  -20.8702   -8.7263 C   0  0  0  0  0  0  0  0  0  0  0  0
   23.7183  -20.9383   -7.8438 O   0  0  0  0  0  0  0  0  0  0  0  0
   24.5350  -20.7823   -9.9508 O   0  0  0  0  0  0  0  0  0  0  0  0
  1  2  1  0
  3  2  1  0
  3  5  1  0
  3  4  1  6
  5  6  2  0
  8  7  1  1
  8  9  1  0
 10  8  1  0
 11 10  1  1
 12 11  1  0
 12  5  1  0
 13 11  1  0
 13 14  2  0
 15 13  1  0
 16 15  1  0
 16 24  1  0
 16 17  1  6
 18 19  2  0
 18 17  1  0
 20 19  1  0
 21 20  2  0
 22 21  1  0
 22 23  2  0
 23 18  1  0
 24 26  2  0
 24 25  1  0
M  END
$$$$
