SLF.pdb
     RDKit          3D

 26 26  0  0  1  0  0  0  0  0999 V2000
   17.7089  -11.1593  -13.4204 O   0  0  0  0  0  0  0  0  0  0  0  0
   18.6545  -10.3557  -14.0676 C   0  0  0  0  0  0  0  0  0  0  0  0
   18.2574  -10.1285  -15.5133 C   0  0  2  0  0  0  0  0  0  0  0  0
   18.8531  -11.1471  -16.3269 N   0  0  0  0  0  0  0  0  0  0  0  0
   18.5476   -8.7651  -15.9660 C   0  0  0  0  0  0  0  0  0  0  0  0
   19.4453   -8.5503  -16.8159 O   0  0  0  0  0  0  0  0  0  0  0  0
   16.0980   -3.5111  -17.6236 C   0  0  0  0  0  0  0  0  0  0  0  0
   17.3393   -4.1647  -17.0761 C   0  0  2  0  0  0  0  0  0  0  0  0
   18.4433   -4.1575  -18.1137 C   0  0  0  0  0  0  0  0  0  0  0  0
   17.0434   -5.5160  -16.5510 C   0  0  0  0  0  0  0  0  0  0  0  0
   18.1527   -6.3022  -15.9792 C   0  0  2  0  0  0  0  0  0  0  0  0
   17.8424   -7.6104  -15.4802 N   0  0  0  0  0  0  0  0  0  0  0  0
   18.8415   -5.5558  -14.8657 C   0  0  0  0  0  0  0  0  0  0  0  0
   18.1662   -5.4292  -13.7981 O   0  0  0  0  0  0  0  0  0  0  0  0
   20.1286   -5.0601  -15.0463 N   0  0  0  0  0  0  0  0  0  0  0  0
   20.7828   -4.3662  -13.9375 C   0  0  1  0  0  0  0  0  0  0  0  0
   21.5258   -5.4625  -13.1807 C   0  0  0  0  0  0  0  0  0  0  0  0
   22.4290   -6.2114  -14.0741 C   0  0  0  0  0  0  0  0  0  0  0  0
   22.3644   -7.5675  -14.3038 C   0  0  0  0  0  0  0  0  0  0  0  0
   23.2517   -8.2164  -15.1683 C   0  0  0  0  0  0  0  0  0  0  0  0
   24.2281   -7.5009  -15.8215 C   0  0  0  0  0  0  0  0  0  0  0  0
   24.2958   -6.1425  -15.5937 C   0  0  0  0  0  0  0  0  0  0  0  0
   23.4291   -5.5079  -14.7491 C   0  0  0  0  0  0  0  0  0  0  0  0
   21.6693   -3.2993  -14.4160 C   0  0  0  0  0  0  0  0  0  0  0  0
   22.3032   -2.4547  -13.5357 O   0  0  0  0  0  0  0  0  0  0  0  0
   21.8535   -3.1517  -15.6434 O   0  0  0  0  0  0  0  0  0  0  0  0
  1  2  1  0
  3  2  1  0
  3  5  1  0
  3  4  1  6
  5  6  2  0
  8  7  1  6
  8  9  1  0
 10  8  1  0
 11 10  1  1
 12 11  1  0
 12  5  1  0
 13 11  1  0
 13 14  2  0
 15 13  1  0
 16 15  1  0
 16 24  1  0
 16 17  1  6
 18 19  2  0
 18 17  1  0
 20 19  1  0
 21 20  2  0
 22 21  1  0
 22 23  2  0
 23 18  1  0
 24 26  2  0
 24 25  1  0
M  END
$$$$
