SLF.pdb
     RDKit          3D

 26 26  0  0  1  0  0  0  0  0999 V2000
   26.7096  -17.4914  -13.4575 O   0  0  0  0  0  0  0  0  0  0  0  0
   26.5801  -18.8070  -12.9980 C   0  0  0  0  0  0  0  0  0  0  0  0
   27.7845  -19.6328  -13.4064 C   0  0  2  0  0  0  0  0  0  0  0  0
   27.6250  -20.0495  -14.7685 N   0  0  0  0  0  0  0  0  0  0  0  0
   28.0483  -20.7354  -12.4777 C   0  0  0  0  0  0  0  0  0  0  0  0
   27.5809  -21.8797  -12.6933 O   0  0  0  0  0  0  0  0  0  0  0  0
   32.7652  -22.3195   -9.7259 C   0  0  0  0  0  0  0  0  0  0  0  0
   31.5001  -22.2991  -10.5425 C   0  0  2  0  0  0  0  0  0  0  0  0
   31.7103  -21.5209  -11.8254 C   0  0  0  0  0  0  0  0  0  0  0  0
   30.3570  -21.8052   -9.7433 C   0  0  0  0  0  0  0  0  0  0  0  0
   29.0408  -21.6947  -10.3999 C   0  0  2  0  0  0  0  0  0  0  0  0
   28.8398  -20.5858  -11.2870 N   0  0  0  0  0  0  0  0  0  0  0  0
   27.9217  -21.6628   -9.3910 C   0  0  0  0  0  0  0  0  0  0  0  0
   27.8703  -22.6590   -8.6057 O   0  0  0  0  0  0  0  0  0  0  0  0
   27.0334  -20.5927   -9.3642 N   0  0  0  0  0  0  0  0  0  0  0  0
   25.9837  -20.5683   -8.3461 C   0  0  1  0  0  0  0  0  0  0  0  0
   26.2254  -19.2756   -7.5733 C   0  0  0  0  0  0  0  0  0  0  0  0
   27.2438  -19.4627   -6.5232 C   0  0  0  0  0  0  0  0  0  0  0  0
   28.3109  -18.6213   -6.3013 C   0  0  0  0  0  0  0  0  0  0  0  0
   29.2407  -18.8553   -5.2832 C   0  0  0  0  0  0  0  0  0  0  0  0
   29.1078  -19.9526   -4.4645 C   0  0  0  0  0  0  0  0  0  0  0  0
   28.0402  -20.7975   -4.6840 C   0  0  0  0  0  0  0  0  0  0  0  0
   27.1315  -20.5693   -5.6785 C   0  0  0  0  0  0  0  0  0  0  0  0
   24.6469  -20.6345   -8.9471 C   0  0  0  0  0  0  0  0  0  0  0  0
   23.5275  -20.8194   -8.1706 O   0  0  0  0  0  0  0  0  0  0  0  0
   24.5188  -20.5221  -10.1854 O   0  0  0  0  0  0  0  0  0  0  0  0
  1  2  1  0
  3  2  1  0
  3  5  1  0
  3  4  1  6
  5  6  2  0
  8  7  1  1
  8  9  1  0
 10  8  1  0
 11 10  1  1
 12 11  1  0
 12  5  1  0
 13 11  1  0
 13 14  2  0
 15 13  1  0
 16 15  1  0
 16 24  1  0
 16 17  1  6
 18 19  2  0
 18 17  1  0
 20 19  1  0
 21 20  2  0
 22 21  1  0
 22 23  2  0
 23 18  1  0
 24 26  2  0
 24 25  1  0
M  END
$$$$
