SLF.pdb
     RDKit          3D

 26 26  0  0  1  0  0  0  0  0999 V2000
   26.3706  -19.0297  -16.9877 O   0  0  0  0  0  0  0  0  0  0  0  0
   27.6910  -19.0398  -16.5237 C   0  0  0  0  0  0  0  0  0  0  0  0
   28.0380  -20.3956  -15.9399 C   0  0  2  0  0  0  0  0  0  0  0  0
   28.1647  -21.3448  -17.0063 N   0  0  0  0  0  0  0  0  0  0  0  0
   27.1037  -20.8083  -14.8888 C   0  0  0  0  0  0  0  0  0  0  0  0
   26.2249  -21.6741  -15.1174 O   0  0  0  0  0  0  0  0  0  0  0  0
   25.6166  -20.0020   -8.8616 C   0  0  0  0  0  0  0  0  0  0  0  0
   25.3249  -20.6282  -10.1997 C   0  0  2  0  0  0  0  0  0  0  0  0
   25.1630  -22.1280  -10.0586 C   0  0  0  0  0  0  0  0  0  0  0  0
   26.3439  -20.2449  -11.2017 C   0  0  0  0  0  0  0  0  0  0  0  0
   26.1029  -20.5967  -12.6137 C   0  0  2  0  0  0  0  0  0  0  0  0
   27.1292  -20.2638  -13.5586 N   0  0  0  0  0  0  0  0  0  0  0  0
   24.8200  -19.9909  -13.1222 C   0  0  0  0  0  0  0  0  0  0  0  0
   24.9549  -18.9334  -13.8115 O   0  0  0  0  0  0  0  0  0  0  0  0
   23.5987  -20.5885  -12.8283 N   0  0  0  0  0  0  0  0  0  0  0  0
   22.4125  -20.1849  -13.5827 C   0  0  1  0  0  0  0  0  0  0  0  0
   22.7280  -20.5594  -15.0274 C   0  0  0  0  0  0  0  0  0  0  0  0
   21.5843  -20.2780  -15.9148 C   0  0  0  0  0  0  0  0  0  0  0  0
   20.3870  -19.7327  -15.5086 C   0  0  0  0  0  0  0  0  0  0  0  0
   19.3417  -19.4875  -16.4048 C   0  0  0  0  0  0  0  0  0  0  0  0
   19.4887  -19.7915  -17.7382 C   0  0  0  0  0  0  0  0  0  0  0  0
   20.6866  -20.3379  -18.1485 C   0  0  0  0  0  0  0  0  0  0  0  0
   21.7082  -20.5776  -17.2733 C   0  0  0  0  0  0  0  0  0  0  0  0
   21.2010  -20.8376  -13.0738 C   0  0  0  0  0  0  0  0  0  0  0  0
   20.0536  -20.1185  -12.8358 O   0  0  0  0  0  0  0  0  0  0  0  0
   21.2078  -22.0674  -12.8507 O   0  0  0  0  0  0  0  0  0  0  0  0
  1  2  1  0
  3  2  1  0
  3  5  1  0
  3  4  1  6
  5  6  2  0
  8  7  1  1
  8  9  1  0
 10  8  1  0
 11 10  1  1
 12 11  1  0
 12  5  1  0
 13 11  1  0
 13 14  2  0
 15 13  1  0
 16 15  1  0
 16 24  1  0
 16 17  1  6
 18 19  2  0
 18 17  1  0
 20 19  1  0
 21 20  2  0
 22 21  1  0
 22 23  2  0
 23 18  1  0
 24 26  2  0
 24 25  1  0
M  END
$$$$
