SLF.pdb
     RDKit          3D

 26 26  0  0  1  0  0  0  0  0999 V2000
   19.7365   -6.9986  -19.8444 O   0  0  0  0  0  0  0  0  0  0  0  0
   20.0713   -8.3102  -20.2002 C   0  0  0  0  0  0  0  0  0  0  0  0
   19.6077   -9.2840  -19.1342 C   0  0  2  0  0  0  0  0  0  0  0  0
   18.1754   -9.2721  -19.0818 N   0  0  0  0  0  0  0  0  0  0  0  0
   20.2489   -9.0427  -17.8386 C   0  0  0  0  0  0  0  0  0  0  0  0
   19.6155   -8.4980  -16.9025 O   0  0  0  0  0  0  0  0  0  0  0  0
   24.1091  -12.0788  -14.9135 C   0  0  0  0  0  0  0  0  0  0  0  0
   23.0630  -10.9975  -14.8487 C   0  0  2  0  0  0  0  0  0  0  0  0
   21.6759  -11.5944  -14.9715 C   0  0  0  0  0  0  0  0  0  0  0  0
   23.3299   -9.9364  -15.8448 C   0  0  0  0  0  0  0  0  0  0  0  0
   22.2028   -9.0949  -16.2888 C   0  0  2  0  0  0  0  0  0  0  0  0
   21.6118   -9.4041  -17.5584 N   0  0  0  0  0  0  0  0  0  0  0  0
   22.5819   -7.6366  -16.3206 C   0  0  0  0  0  0  0  0  0  0  0  0
   23.3077   -7.2857  -17.3013 O   0  0  0  0  0  0  0  0  0  0  0  0
   22.1408   -6.7765  -15.3203 N   0  0  0  0  0  0  0  0  0  0  0  0
   22.4631   -5.3531  -15.4166 C   0  0  1  0  0  0  0  0  0  0  0  0
   21.6482   -4.8523  -16.6049 C   0  0  0  0  0  0  0  0  0  0  0  0
   20.2464   -4.5989  -16.2233 C   0  0  0  0  0  0  0  0  0  0  0  0
   19.2360   -5.5333  -16.2683 C   0  0  0  0  0  0  0  0  0  0  0  0
   17.9255   -5.2273  -15.8878 C   0  0  0  0  0  0  0  0  0  0  0  0
   17.6099   -3.9615  -15.4517 C   0  0  0  0  0  0  0  0  0  0  0  0
   18.6194   -3.0232  -15.4055 C   0  0  0  0  0  0  0  0  0  0  0  0
   19.9001   -3.3215  -15.7771 C   0  0  0  0  0  0  0  0  0  0  0  0
   22.1531   -4.6437  -14.1702 C   0  0  0  0  0  0  0  0  0  0  0  0
   22.4258   -3.3036  -14.0292 O   0  0  0  0  0  0  0  0  0  0  0  0
   21.6331   -5.2642  -13.2179 O   0  0  0  0  0  0  0  0  0  0  0  0
  1  2  1  0
  3  2  1  0
  3  5  1  0
  3  4  1  1
  5  6  2  0
  8  7  1  6
  8  9  1  0
 10  8  1  0
 11 10  1  6
 12 11  1  0
 12  5  1  0
 13 11  1  0
 13 14  2  0
 15 13  1  0
 16 15  1  0
 16 24  1  0
 16 17  1  6
 18 19  2  0
 18 17  1  0
 20 19  1  0
 21 20  2  0
 22 21  1  0
 22 23  2  0
 23 18  1  0
 24 26  2  0
 24 25  1  0
M  END
$$$$
