SLF.pdb
     RDKit          3D

 26 26  0  0  1  0  0  0  0  0999 V2000
   20.5060  -24.7714   -8.0530 O   0  0  0  0  0  0  0  0  0  0  0  0
   20.6015  -23.4258   -8.4261 C   0  0  0  0  0  0  0  0  0  0  0  0
   21.4631  -22.6615   -7.4398 C   0  0  2  0  0  0  0  0  0  0  0  0
   20.6371  -22.1837   -6.3704 N   0  0  0  0  0  0  0  0  0  0  0  0
   22.2586  -21.6138   -8.0860 C   0  0  0  0  0  0  0  0  0  0  0  0
   21.7245  -20.5399   -8.4542 O   0  0  0  0  0  0  0  0  0  0  0  0
   25.9149  -18.6844   -7.4199 C   0  0  0  0  0  0  0  0  0  0  0  0
   26.3242  -20.1205   -7.6148 C   0  0  2  0  0  0  0  0  0  0  0  0
   27.8227  -20.2713   -7.4496 C   0  0  0  0  0  0  0  0  0  0  0  0
   25.8253  -20.6471   -8.9044 C   0  0  0  0  0  0  0  0  0  0  0  0
   24.3669  -20.7491   -9.1006 C   0  0  2  0  0  0  0  0  0  0  0  0
   23.6686  -21.7411   -8.3357 N   0  0  0  0  0  0  0  0  0  0  0  0
   24.0198  -20.9815  -10.5487 C   0  0  0  0  0  0  0  0  0  0  0  0
   24.2130  -22.1633  -10.9703 O   0  0  0  0  0  0  0  0  0  0  0  0
   23.5252  -19.9395  -11.3261 N   0  0  0  0  0  0  0  0  0  0  0  0
   23.2520  -20.1800  -12.7427 C   0  0  1  0  0  0  0  0  0  0  0  0
   22.1446  -19.1921  -13.0954 C   0  0  0  0  0  0  0  0  0  0  0  0
   21.8612  -19.2007  -14.5426 C   0  0  0  0  0  0  0  0  0  0  0  0
   21.2487  -20.2313  -15.2197 C   0  0  0  0  0  0  0  0  0  0  0  0
   21.0058  -20.1737  -16.5958 C   0  0  0  0  0  0  0  0  0  0  0  0
   21.3806  -19.0649  -17.3181 C   0  0  0  0  0  0  0  0  0  0  0  0
   21.9946  -18.0308  -16.6431 C   0  0  0  0  0  0  0  0  0  0  0  0
   22.2321  -18.0865  -15.2987 C   0  0  0  0  0  0  0  0  0  0  0  0
   24.4567  -20.0060  -13.5621 C   0  0  0  0  0  0  0  0  0  0  0  0
   25.3944  -19.0497  -13.2520 O   0  0  0  0  0  0  0  0  0  0  0  0
   24.6371  -20.7367  -14.5600 O   0  0  0  0  0  0  0  0  0  0  0  0
  1  2  1  0
  3  2  1  0
  3  5  1  0
  3  4  1  1
  5  6  2  0
  8  7  1  6
  8  9  1  0
 10  8  1  0
 11 10  1  6
 12 11  1  0
 12  5  1  0
 13 11  1  0
 13 14  2  0
 15 13  1  0
 16 15  1  0
 16 24  1  0
 16 17  1  6
 18 19  2  0
 18 17  1  0
 20 19  1  0
 21 20  2  0
 22 21  1  0
 22 23  2  0
 23 18  1  0
 24 26  2  0
 24 25  1  0
M  END
$$$$
