SLF.pdb
     RDKit          3D

 26 26  0  0  1  0  0  0  0  0999 V2000
   29.0001  -22.9777  -16.1490 O   0  0  0  0  0  0  0  0  0  0  0  0
   30.2993  -23.1800  -16.6283 C   0  0  0  0  0  0  0  0  0  0  0  0
   30.2696  -23.9537  -17.9321 C   0  0  2  0  0  0  0  0  0  0  0  0
   30.2160  -23.0269  -19.0240 N   0  0  0  0  0  0  0  0  0  0  0  0
   29.2071  -24.9628  -17.9602 C   0  0  0  0  0  0  0  0  0  0  0  0
   28.1293  -24.7409  -18.5632 O   0  0  0  0  0  0  0  0  0  0  0  0
   28.9217  -29.4094  -19.3653 C   0  0  0  0  0  0  0  0  0  0  0  0
   29.4830  -29.3519  -17.9690 C   0  0  2  0  0  0  0  0  0  0  0  0
   29.8032  -30.7459  -17.4691 C   0  0  0  0  0  0  0  0  0  0  0  0
   28.5852  -28.6012  -17.0636 C   0  0  0  0  0  0  0  0  0  0  0  0
   28.2613  -27.2025  -17.4021 C   0  0  2  0  0  0  0  0  0  0  0  0
   29.3233  -26.2426  -17.3157 N   0  0  0  0  0  0  0  0  0  0  0  0
   27.1238  -26.6807  -16.5624 C   0  0  0  0  0  0  0  0  0  0  0  0
   27.4600  -26.1719  -15.4489 O   0  0  0  0  0  0  0  0  0  0  0  0
   25.8141  -26.7743  -17.0217 N   0  0  0  0  0  0  0  0  0  0  0  0
   24.7407  -26.1758  -16.2288 C   0  0  1  0  0  0  0  0  0  0  0  0
   25.0707  -24.6870  -16.1937 C   0  0  0  0  0  0  0  0  0  0  0  0
   23.9582  -23.9059  -15.6220 C   0  0  0  0  0  0  0  0  0  0  0  0
   22.8876  -23.4187  -16.3379 C   0  0  0  0  0  0  0  0  0  0  0  0
   21.8617  -22.6865  -15.7318 C   0  0  0  0  0  0  0  0  0  0  0  0
   21.8996  -22.4312  -14.3808 C   0  0  0  0  0  0  0  0  0  0  0  0
   22.9705  -22.9175  -13.6607 C   0  0  0  0  0  0  0  0  0  0  0  0
   23.9731  -23.6331  -14.2523 C   0  0  0  0  0  0  0  0  0  0  0  0
   23.4216  -26.4562  -16.8071 C   0  0  0  0  0  0  0  0  0  0  0  0
   23.2709  -26.6845  -18.1544 O   0  0  0  0  0  0  0  0  0  0  0  0
   22.4153  -26.4883  -16.0663 O   0  0  0  0  0  0  0  0  0  0  0  0
  1  2  1  0
  3  2  1  0
  3  5  1  0
  3  4  1  6
  5  6  2  0
  8  7  1  6
  8  9  1  0
 10  8  1  0
 11 10  1  1
 12 11  1  0
 12  5  1  0
 13 11  1  0
 13 14  2  0
 15 13  1  0
 16 15  1  0
 16 24  1  0
 16 17  1  6
 18 19  2  0
 18 17  1  0
 20 19  1  0
 21 20  2  0
 22 21  1  0
 22 23  2  0
 23 18  1  0
 24 26  2  0
 24 25  1  0
M  END
$$$$
