SLF.pdb
     RDKit          3D

 26 26  0  0  1  0  0  0  0  0999 V2000
   32.9710  -27.5421  -18.0381 O   0  0  0  0  0  0  0  0  0  0  0  0
   33.5487  -28.7529  -17.6395 C   0  0  0  0  0  0  0  0  0  0  0  0
   33.5812  -29.7320  -18.7969 C   0  0  2  0  0  0  0  0  0  0  0  0
   32.2366  -30.0652  -19.1647 N   0  0  0  0  0  0  0  0  0  0  0  0
   34.4248  -30.8980  -18.5203 C   0  0  0  0  0  0  0  0  0  0  0  0
   33.9149  -31.9854  -18.1570 O   0  0  0  0  0  0  0  0  0  0  0  0
   37.3332  -33.4998  -20.9478 C   0  0  0  0  0  0  0  0  0  0  0  0
   38.0682  -32.2749  -20.4712 C   0  0  2  0  0  0  0  0  0  0  0  0
   39.4970  -32.2850  -20.9751 C   0  0  0  0  0  0  0  0  0  0  0  0
   37.9706  -32.1322  -19.0017 C   0  0  0  0  0  0  0  0  0  0  0  0
   36.6286  -32.0600  -18.3940 C   0  0  2  0  0  0  0  0  0  0  0  0
   35.8570  -30.8769  -18.6430 N   0  0  0  0  0  0  0  0  0  0  0  0
   36.6891  -32.2422  -16.8991 C   0  0  0  0  0  0  0  0  0  0  0  0
   36.4935  -31.1904  -16.2157 O   0  0  0  0  0  0  0  0  0  0  0  0
   36.9449  -33.4972  -16.3565 N   0  0  0  0  0  0  0  0  0  0  0  0
   36.9509  -33.6527  -14.9023 C   0  0  1  0  0  0  0  0  0  0  0  0
   35.5122  -33.3749  -14.4784 C   0  0  0  0  0  0  0  0  0  0  0  0
   35.2834  -33.7650  -13.0747 C   0  0  0  0  0  0  0  0  0  0  0  0
   34.9841  -35.0402  -12.6498 C   0  0  0  0  0  0  0  0  0  0  0  0
   34.7821  -35.3437  -11.2997 C   0  0  0  0  0  0  0  0  0  0  0  0
   34.8795  -34.3563  -10.3471 C   0  0  0  0  0  0  0  0  0  0  0  0
   35.1790  -33.0781  -10.7691 C   0  0  0  0  0  0  0  0  0  0  0  0
   35.3766  -32.7809  -12.0881 C   0  0  0  0  0  0  0  0  0  0  0  0
   37.4180  -34.9853  -14.5036 C   0  0  0  0  0  0  0  0  0  0  0  0
   37.5226  -36.0047  -15.4202 O   0  0  0  0  0  0  0  0  0  0  0  0
   37.7261  -35.2021  -13.3118 O   0  0  0  0  0  0  0  0  0  0  0  0
  1  2  1  0
  3  2  1  0
  3  5  1  0
  3  4  1  1
  5  6  2  0
  8  7  1  1
  8  9  1  0
 10  8  1  0
 11 10  1  1
 12 11  1  0
 12  5  1  0
 13 11  1  0
 13 14  2  0
 15 13  1  0
 16 15  1  0
 16 24  1  0
 16 17  1  6
 18 19  2  0
 18 17  1  0
 20 19  1  0
 21 20  2  0
 22 21  1  0
 22 23  2  0
 23 18  1  0
 24 26  2  0
 24 25  1  0
M  END
$$$$
