SLF.pdb
     RDKit          3D

 26 26  0  0  1  0  0  0  0  0999 V2000
   26.4245  -18.8430  -12.4175 O   0  0  0  0  0  0  0  0  0  0  0  0
   27.5721  -18.3969  -13.0830 C   0  0  0  0  0  0  0  0  0  0  0  0
   28.4135  -19.5739  -13.5371 C   0  0  2  0  0  0  0  0  0  0  0  0
   27.9503  -20.0115  -14.8209 N   0  0  0  0  0  0  0  0  0  0  0  0
   28.4713  -20.6408  -12.5340 C   0  0  0  0  0  0  0  0  0  0  0  0
   27.9032  -21.7411  -12.7363 O   0  0  0  0  0  0  0  0  0  0  0  0
   31.6917  -22.9877  -11.5513 C   0  0  0  0  0  0  0  0  0  0  0  0
   31.7260  -21.8712  -10.5413 C   0  0  2  0  0  0  0  0  0  0  0  0
   33.0058  -21.9279   -9.7324 C   0  0  0  0  0  0  0  0  0  0  0  0
   30.5071  -21.8730   -9.7025 C   0  0  0  0  0  0  0  0  0  0  0  0
   29.2119  -21.5936  -10.3509 C   0  0  2  0  0  0  0  0  0  0  0  0
   29.1646  -20.5039  -11.2821 N   0  0  0  0  0  0  0  0  0  0  0  0
   28.1259  -21.3538   -9.3337 C   0  0  0  0  0  0  0  0  0  0  0  0
   28.4752  -21.5001   -8.1220 O   0  0  0  0  0  0  0  0  0  0  0  0
   26.8459  -20.9988   -9.7466 N   0  0  0  0  0  0  0  0  0  0  0  0
   25.8192  -20.7482   -8.7356 C   0  0  1  0  0  0  0  0  0  0  0  0
   26.2157  -19.4174   -8.1043 C   0  0  0  0  0  0  0  0  0  0  0  0
   26.9796  -19.6223   -6.8596 C   0  0  0  0  0  0  0  0  0  0  0  0
   28.0384  -18.8444   -6.4475 C   0  0  0  0  0  0  0  0  0  0  0  0
   28.7188  -19.0918   -5.2510 C   0  0  0  0  0  0  0  0  0  0  0  0
   28.3386  -20.1379   -4.4430 C   0  0  0  0  0  0  0  0  0  0  0  0
   27.2785  -20.9191   -4.8527 C   0  0  0  0  0  0  0  0  0  0  0  0
   26.6133  -20.6779   -6.0217 C   0  0  0  0  0  0  0  0  0  0  0  0
   24.4757  -20.7246   -9.3247 C   0  0  0  0  0  0  0  0  0  0  0  0
   24.2968  -20.7697  -10.6871 O   0  0  0  0  0  0  0  0  0  0  0  0
   23.4742  -20.6616   -8.5795 O   0  0  0  0  0  0  0  0  0  0  0  0
  1  2  1  0
  3  2  1  0
  3  5  1  0
  3  4  1  6
  5  6  2  0
  8  7  1  6
  8  9  1  0
 10  8  1  0
 11 10  1  1
 12 11  1  0
 12  5  1  0
 13 11  1  0
 13 14  2  0
 15 13  1  0
 16 15  1  0
 16 24  1  0
 16 17  1  6
 18 19  2  0
 18 17  1  0
 20 19  1  0
 21 20  2  0
 22 21  1  0
 22 23  2  0
 23 18  1  0
 24 26  2  0
 24 25  1  0
M  END
$$$$
