VVY.pdb
     RDKit          3D

 27 27  0  0  1  0  0  0  0  0999 V2000
    5.1225  -19.0442   22.2736 C   0  0  0  0  0  0  0  0  0  0  0  0
    6.6014  -18.8561   21.9813 C   0  0  1  0  0  0  0  0  0  0  0  0
    7.3212  -20.1757   21.9672 C   0  0  0  0  0  0  0  0  0  0  0  0
    6.7806  -18.1072   20.6765 C   0  0  2  0  0  0  0  0  0  0  0  0
    7.1706  -18.9644   19.5994 N   0  0  0  0  0  0  0  0  0  0  0  0
    7.7924  -17.0434   20.9017 C   0  0  0  0  0  0  0  0  0  0  0  0
    9.0172  -17.3077   20.6721 O   0  0  0  0  0  0  0  0  0  0  0  0
    6.4377  -13.1860   22.0133 C   0  0  0  0  0  0  0  0  0  0  0  0
    7.6528  -13.4296   21.1686 C   0  0  2  0  0  0  0  0  0  0  0  0
    7.2504  -13.5584   19.7157 C   0  0  0  0  0  0  0  0  0  0  0  0
    8.3375  -14.7447   21.5717 C   0  0  2  0  0  0  0  0  0  0  0  0
    7.3717  -15.7836   21.3589 N   0  0  0  0  0  0  0  0  0  0  0  0
    8.6432  -14.7200   23.0395 C   0  0  0  0  0  0  0  0  0  0  0  0
    8.1021  -13.9043   23.8237 O   0  0  0  0  0  0  0  0  0  0  0  0
    6.2292  -10.8489   27.0829 O   0  0  0  0  0  0  0  0  0  0  0  0
    6.8194  -12.0609   26.7421 C   0  0  0  0  0  0  0  0  0  0  0  0
    6.0452  -13.1431   26.3707 C   0  0  0  0  0  0  0  0  0  0  0  0
    6.6059  -14.3479   26.0305 C   0  0  0  0  0  0  0  0  0  0  0  0
    7.9811  -14.4860   26.0589 C   0  0  0  0  0  0  0  0  0  0  0  0
    8.5692  -15.7823   25.7068 C   0  0  0  0  0  0  0  0  0  0  0  0
    9.8727  -15.5892   25.0007 C   0  0  2  0  0  0  0  0  0  0  0  0
    9.5731  -15.6462   23.5632 N   0  0  0  0  0  0  0  0  0  0  0  0
   10.8355  -16.6541   25.3291 C   0  0  0  0  0  0  0  0  0  0  0  0
   11.4758  -16.7901   26.5458 O   0  0  0  0  0  0  0  0  0  0  0  0
    8.7534  -13.4167   26.4266 C   0  0  0  0  0  0  0  0  0  0  0  0
    8.1820  -12.2123   26.7660 C   0  0  0  0  0  0  0  0  0  0  0  0
   11.1197  -17.5287   24.4444 O   0  0  0  0  0  0  0  0  0  0  0  0
  2  1  1  6
  2  4  1  0
  2  3  1  0
  4  6  1  0
  4  5  1  6
  6  7  2  0
  9  8  1  1
  9 11  1  0
 10  9  1  0
 11 13  1  0
 11 12  1  1
 12  6  1  0
 13 14  2  0
 15 16  1  0
 16 26  2  0
 16 17  1  0
 17 18  2  0
 18 19  1  0
 19 20  1  0
 21 20  1  1
 21 22  1  0
 21 23  1  0
 22 13  1  0
 23 27  2  0
 23 24  1  0
 25 19  2  0
 26 25  1  0
M  END
$$$$
