VVY.pdb
     RDKit          3D

 27 27  0  0  1  0  0  0  0  0999 V2000
    6.3771  -17.6461   23.4135 C   0  0  0  0  0  0  0  0  0  0  0  0
    6.8100  -17.2467   22.0131 C   0  0  1  0  0  0  0  0  0  0  0  0
    6.0173  -17.9854   20.9714 C   0  0  0  0  0  0  0  0  0  0  0  0
    6.6947  -15.7455   21.8434 C   0  0  2  0  0  0  0  0  0  0  0  0
    7.0933  -15.3071   20.5411 N   0  0  0  0  0  0  0  0  0  0  0  0
    7.5252  -15.1069   22.8962 C   0  0  0  0  0  0  0  0  0  0  0  0
    8.7933  -15.1518   22.7840 O   0  0  0  0  0  0  0  0  0  0  0  0
    6.3184  -11.6936   24.6860 C   0  0  0  0  0  0  0  0  0  0  0  0
    6.7263  -12.7787   25.6376 C   0  0  2  0  0  0  0  0  0  0  0  0
    7.4709  -12.1795   26.8106 C   0  0  0  0  0  0  0  0  0  0  0  0
    7.6772  -13.7714   24.9513 C   0  0  2  0  0  0  0  0  0  0  0  0
    6.8917  -14.4755   23.9793 N   0  0  0  0  0  0  0  0  0  0  0  0
    8.1517  -14.7825   25.9517 C   0  0  0  0  0  0  0  0  0  0  0  0
    7.3680  -15.5727   26.5302 O   0  0  0  0  0  0  0  0  0  0  0  0
   13.1151  -20.2299   30.4792 O   0  0  0  0  0  0  0  0  0  0  0  0
   12.5947  -19.3519   29.5349 C   0  0  0  0  0  0  0  0  0  0  0  0
   13.1705  -18.1128   29.3306 C   0  0  0  0  0  0  0  0  0  0  0  0
   12.6740  -17.2309   28.4045 C   0  0  0  0  0  0  0  0  0  0  0  0
   11.5690  -17.5882   27.6547 C   0  0  0  0  0  0  0  0  0  0  0  0
   11.0381  -16.6324   26.6776 C   0  0  0  0  0  0  0  0  0  0  0  0
    9.9619  -15.7985   27.2952 C   0  0  2  0  0  0  0  0  0  0  0  0
    9.5296  -14.8522   26.2575 N   0  0  0  0  0  0  0  0  0  0  0  0
   10.4567  -15.0393   28.4560 C   0  0  0  0  0  0  0  0  0  0  0  0
   11.1281  -13.8341   28.3815 O   0  0  0  0  0  0  0  0  0  0  0  0
   10.9940  -18.8150   27.8532 C   0  0  0  0  0  0  0  0  0  0  0  0
   11.4991  -19.6928   28.7842 C   0  0  0  0  0  0  0  0  0  0  0  0
   10.2674  -15.5048   29.6290 O   0  0  0  0  0  0  0  0  0  0  0  0
  2  1  1  1
  2  4  1  0
  2  3  1  0
  4  6  1  0
  4  5  1  6
  6  7  2  0
  9  8  1  6
  9 11  1  0
 10  9  1  0
 11 13  1  0
 11 12  1  6
 12  6  1  0
 13 14  2  0
 15 16  1  0
 16 26  2  0
 16 17  1  0
 17 18  2  0
 18 19  1  0
 19 20  1  0
 21 20  1  6
 21 22  1  0
 21 23  1  0
 22 13  1  0
 23 27  2  0
 23 24  1  0
 25 19  2  0
 26 25  1  0
M  END
$$$$
