VVY.pdb
     RDKit          3D

 27 27  0  0  1  0  0  0  0  0999 V2000
    4.8675  -20.0033   23.5526 C   0  0  0  0  0  0  0  0  0  0  0  0
    5.9252  -18.9175   23.4501 C   0  0  1  0  0  0  0  0  0  0  0  0
    7.2187  -19.3631   24.0727 C   0  0  0  0  0  0  0  0  0  0  0  0
    6.1119  -18.5109   22.0025 C   0  0  2  0  0  0  0  0  0  0  0  0
    6.2342  -19.6357   21.1268 N   0  0  0  0  0  0  0  0  0  0  0  0
    7.3173  -17.6463   21.9282 C   0  0  0  0  0  0  0  0  0  0  0  0
    8.4391  -18.1854   21.6568 O   0  0  0  0  0  0  0  0  0  0  0  0
    6.8498  -13.4183   22.2608 C   0  0  0  0  0  0  0  0  0  0  0  0
    7.8465  -14.1170   21.3845 C   0  0  2  0  0  0  0  0  0  0  0  0
    7.1974  -14.4985   20.0720 C   0  0  0  0  0  0  0  0  0  0  0  0
    8.3344  -15.4144   22.0474 C   0  0  2  0  0  0  0  0  0  0  0  0
    7.1861  -16.2669   22.1582 N   0  0  0  0  0  0  0  0  0  0  0  0
    8.8011  -15.1189   23.4413 C   0  0  0  0  0  0  0  0  0  0  0  0
    8.3162  -14.1880   24.1279 O   0  0  0  0  0  0  0  0  0  0  0  0
    5.6162  -11.5874   26.7744 O   0  0  0  0  0  0  0  0  0  0  0  0
    6.4518  -12.6911   26.6431 C   0  0  0  0  0  0  0  0  0  0  0  0
    7.8081  -12.5817   26.8817 C   0  0  0  0  0  0  0  0  0  0  0  0
    8.6509  -13.6570   26.7584 C   0  0  0  0  0  0  0  0  0  0  0  0
    8.1328  -14.8832   26.3859 C   0  0  0  0  0  0  0  0  0  0  0  0
    9.0447  -16.0227   26.2435 C   0  0  0  0  0  0  0  0  0  0  0  0
   10.2187  -15.6485   25.3968 C   0  0  2  0  0  0  0  0  0  0  0  0
    9.8233  -15.9141   24.0067 N   0  0  0  0  0  0  0  0  0  0  0  0
   11.4051  -16.4598   25.7179 C   0  0  0  0  0  0  0  0  0  0  0  0
   12.1471  -16.3466   26.8778 O   0  0  0  0  0  0  0  0  0  0  0  0
    6.7891  -14.9974   26.1478 C   0  0  0  0  0  0  0  0  0  0  0  0
    5.9517  -13.9133   26.2742 C   0  0  0  0  0  0  0  0  0  0  0  0
   11.8012  -17.3386   24.8817 O   0  0  0  0  0  0  0  0  0  0  0  0
  2  1  1  6
  2  4  1  0
  2  3  1  0
  4  6  1  0
  4  5  1  6
  6  7  2  0
  9  8  1  1
  9 11  1  0
 10  9  1  0
 11 13  1  0
 11 12  1  1
 12  6  1  0
 13 14  2  0
 15 16  1  0
 16 26  2  0
 16 17  1  0
 17 18  2  0
 18 19  1  0
 19 20  1  0
 21 20  1  1
 21 22  1  0
 21 23  1  0
 22 13  1  0
 23 27  2  0
 23 24  1  0
 25 19  2  0
 26 25  1  0
M  END
$$$$
