VVY.pdb
     RDKit          3D

 27 27  0  0  1  0  0  0  0  0999 V2000
    8.7084  -12.8390   21.5958 C   0  0  0  0  0  0  0  0  0  0  0  0
    7.8493  -13.2395   20.4085 C   0  0  1  0  0  0  0  0  0  0  0  0
    7.8338  -12.1587   19.3640 C   0  0  0  0  0  0  0  0  0  0  0  0
    8.3321  -14.5588   19.8411 C   0  0  2  0  0  0  0  0  0  0  0  0
    7.5633  -14.9866   18.7129 N   0  0  0  0  0  0  0  0  0  0  0  0
    8.2800  -15.5656   20.9319 C   0  0  0  0  0  0  0  0  0  0  0  0
    7.1478  -16.0425   21.2685 O   0  0  0  0  0  0  0  0  0  0  0  0
   10.2669  -18.6060   20.6878 C   0  0  0  0  0  0  0  0  0  0  0  0
   10.5865  -18.0096   22.0263 C   0  0  2  0  0  0  0  0  0  0  0  0
   10.6937  -19.1055   23.0641 C   0  0  0  0  0  0  0  0  0  0  0  0
    9.4656  -17.0606   22.4776 C   0  0  2  0  0  0  0  0  0  0  0  0
    9.4741  -15.9604   21.5573 N   0  0  0  0  0  0  0  0  0  0  0  0
    9.7944  -16.5063   23.8314 C   0  0  0  0  0  0  0  0  0  0  0  0
   10.7933  -15.7746   24.0322 O   0  0  0  0  0  0  0  0  0  0  0  0
    6.0561  -10.9683   25.2835 O   0  0  0  0  0  0  0  0  0  0  0  0
    6.5252  -12.2128   25.6894 C   0  0  0  0  0  0  0  0  0  0  0  0
    7.7611  -12.3381   26.2939 C   0  0  0  0  0  0  0  0  0  0  0  0
    8.2437  -13.5555   26.7024 C   0  0  0  0  0  0  0  0  0  0  0  0
    7.4760  -14.6881   26.5056 C   0  0  0  0  0  0  0  0  0  0  0  0
    8.0076  -15.9861   26.9334 C   0  0  0  0  0  0  0  0  0  0  0  0
    9.3025  -16.2725   26.2433 C   0  0  2  0  0  0  0  0  0  0  0  0
    8.9528  -16.8158   24.9236 N   0  0  0  0  0  0  0  0  0  0  0  0
   10.1017  -17.2712   26.9731 C   0  0  0  0  0  0  0  0  0  0  0  0
   10.9478  -16.9860   28.0274 O   0  0  0  0  0  0  0  0  0  0  0  0
    6.2503  -14.5698   25.9066 C   0  0  0  0  0  0  0  0  0  0  0  0
    5.7746  -13.3445   25.5005 C   0  0  0  0  0  0  0  0  0  0  0  0
   10.0289  -18.4975   26.6276 O   0  0  0  0  0  0  0  0  0  0  0  0
  2  1  1  1
  2  4  1  0
  2  3  1  0
  4  6  1  0
  4  5  1  6
  6  7  2  0
  9  8  1  6
  9 11  1  0
 10  9  1  0
 11 13  1  0
 11 12  1  6
 12  6  1  0
 13 14  2  0
 15 16  1  0
 16 26  2  0
 16 17  1  0
 17 18  2  0
 18 19  1  0
 19 20  1  0
 21 20  1  1
 21 22  1  0
 21 23  1  0
 22 13  1  0
 23 27  2  0
 23 24  1  0
 25 19  2  0
 26 25  1  0
M  END
$$$$
