VVY.pdb
     RDKit          3D

 27 27  0  0  1  0  0  0  0  0999 V2000
    8.3935  -12.9105   21.4498 C   0  0  0  0  0  0  0  0  0  0  0  0
    7.8959  -13.1144   20.0289 C   0  0  1  0  0  0  0  0  0  0  0  0
    8.2635  -11.9477   19.1553 C   0  0  0  0  0  0  0  0  0  0  0  0
    8.4313  -14.4188   19.4746 C   0  0  2  0  0  0  0  0  0  0  0  0
    7.8832  -14.7376   18.1920 N   0  0  0  0  0  0  0  0  0  0  0  0
    8.1293  -15.4868   20.4616 C   0  0  0  0  0  0  0  0  0  0  0  0
    6.9579  -15.9870   20.4801 O   0  0  0  0  0  0  0  0  0  0  0  0
   11.1604  -17.7324   21.5691 C   0  0  0  0  0  0  0  0  0  0  0  0
    9.7424  -18.1681   21.7902 C   0  0  2  0  0  0  0  0  0  0  0  0
    9.1519  -18.6721   20.4915 C   0  0  0  0  0  0  0  0  0  0  0  0
    8.8792  -16.9856   22.2564 C   0  0  2  0  0  0  0  0  0  0  0  0
    9.1385  -15.9119   21.3413 N   0  0  0  0  0  0  0  0  0  0  0  0
    9.3397  -16.5332   23.6098 C   0  0  0  0  0  0  0  0  0  0  0  0
   10.3832  -15.8564   23.7716 O   0  0  0  0  0  0  0  0  0  0  0  0
    6.0744  -10.8016   25.6183 O   0  0  0  0  0  0  0  0  0  0  0  0
    6.5092  -12.0895   25.9109 C   0  0  0  0  0  0  0  0  0  0  0  0
    5.6078  -13.1306   26.0210 C   0  0  0  0  0  0  0  0  0  0  0  0
    6.0143  -14.4088   26.3087 C   0  0  0  0  0  0  0  0  0  0  0  0
    7.3600  -14.6651   26.4938 C   0  0  0  0  0  0  0  0  0  0  0  0
    7.7821  -16.0323   26.8147 C   0  0  0  0  0  0  0  0  0  0  0  0
    9.0214  -16.3869   26.0575 C   0  0  2  0  0  0  0  0  0  0  0  0
    8.5748  -16.8786   24.7467 N   0  0  0  0  0  0  0  0  0  0  0  0
    9.7873  -17.4503   26.7293 C   0  0  0  0  0  0  0  0  0  0  0  0
   10.6716  -17.2469   27.7711 O   0  0  0  0  0  0  0  0  0  0  0  0
    8.2579  -13.6369   26.3861 C   0  0  0  0  0  0  0  0  0  0  0  0
    7.8408  -12.3583   26.0972 C   0  0  0  0  0  0  0  0  0  0  0  0
    9.6452  -18.6577   26.3413 O   0  0  0  0  0  0  0  0  0  0  0  0
  2  1  1  1
  2  4  1  0
  2  3  1  0
  4  6  1  0
  4  5  1  6
  6  7  2  0
  9  8  1  6
  9 11  1  0
 10  9  1  0
 11 13  1  0
 11 12  1  6
 12  6  1  0
 13 14  2  0
 15 16  1  0
 16 26  2  0
 16 17  1  0
 17 18  2  0
 18 19  1  0
 19 20  1  0
 21 20  1  1
 21 22  1  0
 21 23  1  0
 22 13  1  0
 23 27  2  0
 23 24  1  0
 25 19  2  0
 26 25  1  0
M  END
$$$$
