VVY.pdb
     RDKit          3D

 27 27  0  0  1  0  0  0  0  0999 V2000
    8.6642  -12.5814   17.8813 C   0  0  0  0  0  0  0  0  0  0  0  0
    8.5509  -13.5447   19.0506 C   0  0  1  0  0  0  0  0  0  0  0  0
    7.1449  -13.5879   19.5804 C   0  0  0  0  0  0  0  0  0  0  0  0
    9.0357  -14.9196   18.6381 C   0  0  2  0  0  0  0  0  0  0  0  0
    8.2805  -15.4664   17.5529 N   0  0  0  0  0  0  0  0  0  0  0  0
    8.9646  -15.8004   19.8319 C   0  0  0  0  0  0  0  0  0  0  0  0
    7.8318  -15.9917   20.3825 O   0  0  0  0  0  0  0  0  0  0  0  0
   11.6749  -18.8112   20.4101 C   0  0  0  0  0  0  0  0  0  0  0  0
   11.4589  -17.9106   21.5898 C   0  0  2  0  0  0  0  0  0  0  0  0
   11.4590  -18.7257   22.8645 C   0  0  0  0  0  0  0  0  0  0  0  0
   10.0942  -17.2112   21.4943 C   0  0  2  0  0  0  0  0  0  0  0  0
   10.1418  -16.3939   20.3165 N   0  0  0  0  0  0  0  0  0  0  0  0
    9.9215  -16.2898   22.6645 C   0  0  0  0  0  0  0  0  0  0  0  0
   10.7244  -15.3576   22.9084 O   0  0  0  0  0  0  0  0  0  0  0  0
    6.3875  -11.0360   28.4537 O   0  0  0  0  0  0  0  0  0  0  0  0
    6.6415  -11.9512   27.4382 C   0  0  0  0  0  0  0  0  0  0  0  0
    7.6877  -11.7556   26.5574 C   0  0  0  0  0  0  0  0  0  0  0  0
    7.9566  -12.6452   25.5485 C   0  0  0  0  0  0  0  0  0  0  0  0
    7.1620  -13.7675   25.4066 C   0  0  0  0  0  0  0  0  0  0  0  0
    7.4498  -14.7047   24.3161 C   0  0  0  0  0  0  0  0  0  0  0  0
    8.6479  -15.5361   24.6453 C   0  0  2  0  0  0  0  0  0  0  0  0
    8.8168  -16.4735   23.5264 N   0  0  0  0  0  0  0  0  0  0  0  0
    8.4553  -16.3053   25.8863 C   0  0  0  0  0  0  0  0  0  0  0  0
    7.7562  -17.4935   25.9767 O   0  0  0  0  0  0  0  0  0  0  0  0
    6.1234  -13.9662   26.2766 C   0  0  0  0  0  0  0  0  0  0  0  0
    5.8616  -13.0685   27.2855 C   0  0  0  0  0  0  0  0  0  0  0  0
    8.9585  -15.8659   26.9736 O   0  0  0  0  0  0  0  0  0  0  0  0
  2  1  1  6
  2  4  1  0
  2  3  1  0
  4  6  1  0
  4  5  1  6
  6  7  2  0
  9  8  1  6
  9 11  1  0
 10  9  1  0
 11 13  1  0
 11 12  1  6
 12  6  1  0
 13 14  2  0
 15 16  1  0
 16 26  2  0
 16 17  1  0
 17 18  2  0
 18 19  1  0
 19 20  1  0
 21 20  1  6
 21 22  1  0
 21 23  1  0
 22 13  1  0
 23 27  2  0
 23 24  1  0
 25 19  2  0
 26 25  1  0
M  END
$$$$
