VVY.pdb
     RDKit          3D

 27 27  0  0  1  0  0  0  0  0999 V2000
   13.2514  -17.8182   19.9893 C   0  0  0  0  0  0  0  0  0  0  0  0
   13.0055  -17.5844   18.5085 C   0  0  1  0  0  0  0  0  0  0  0  0
   13.9867  -18.3546   17.6698 C   0  0  0  0  0  0  0  0  0  0  0  0
   11.5738  -17.9362   18.1591 C   0  0  2  0  0  0  0  0  0  0  0  0
   11.2600  -17.6676   16.7893 N   0  0  0  0  0  0  0  0  0  0  0  0
   10.6853  -17.1678   19.0681 C   0  0  0  0  0  0  0  0  0  0  0  0
   10.7172  -15.8952   19.0206 O   0  0  0  0  0  0  0  0  0  0  0  0
    6.5910  -17.3241   21.6617 C   0  0  0  0  0  0  0  0  0  0  0  0
    7.5779  -17.8867   20.6824 C   0  0  2  0  0  0  0  0  0  0  0  0
    7.8539  -19.3383   21.0085 C   0  0  0  0  0  0  0  0  0  0  0  0
    8.9157  -17.1360   20.7702 C   0  0  2  0  0  0  0  0  0  0  0  0
    9.8402  -17.8628   19.9488 N   0  0  0  0  0  0  0  0  0  0  0  0
    9.4321  -17.1972   22.1766 C   0  0  0  0  0  0  0  0  0  0  0  0
    9.9426  -18.2363   22.6592 O   0  0  0  0  0  0  0  0  0  0  0  0
   10.6572  -14.8892   30.5189 O   0  0  0  0  0  0  0  0  0  0  0  0
   10.4158  -14.8689   29.1497 C   0  0  0  0  0  0  0  0  0  0  0  0
    9.2727  -14.2811   28.6434 C   0  0  0  0  0  0  0  0  0  0  0  0
    9.0142  -14.2494   27.2965 C   0  0  0  0  0  0  0  0  0  0  0  0
    9.9189  -14.8195   26.4206 C   0  0  0  0  0  0  0  0  0  0  0  0
    9.6259  -14.7924   24.9840 C   0  0  0  0  0  0  0  0  0  0  0  0
    9.7287  -16.1667   24.4046 C   0  0  2  0  0  0  0  0  0  0  0  0
    9.3430  -16.0463   22.9918 N   0  0  0  0  0  0  0  0  0  0  0  0
    8.8139  -17.1101   25.0693 C   0  0  0  0  0  0  0  0  0  0  0  0
    7.4408  -17.1171   24.9163 O   0  0  0  0  0  0  0  0  0  0  0  0
   11.0535  -15.4038   26.9169 C   0  0  0  0  0  0  0  0  0  0  0  0
   11.3042  -15.4306   28.2692 C   0  0  0  0  0  0  0  0  0  0  0  0
    9.2961  -17.9963   25.8508 O   0  0  0  0  0  0  0  0  0  0  0  0
  2  1  1  1
  2  4  1  0
  2  3  1  0
  4  6  1  0
  4  5  1  6
  6  7  2  0
  9  8  1  1
  9 11  1  0
 10  9  1  0
 11 13  1  0
 11 12  1  6
 12  6  1  0
 13 14  2  0
 15 16  1  0
 16 26  2  0
 16 17  1  0
 17 18  2  0
 18 19  1  0
 19 20  1  0
 21 20  1  1
 21 22  1  0
 21 23  1  0
 22 13  1  0
 23 27  2  0
 23 24  1  0
 25 19  2  0
 26 25  1  0
M  END
$$$$
