VVY.pdb
     RDKit          3D

 27 27  0  0  1  0  0  0  0  0999 V2000
    4.9506  -19.7030   22.7654 C   0  0  0  0  0  0  0  0  0  0  0  0
    6.0633  -18.6790   22.6195 C   0  0  1  0  0  0  0  0  0  0  0  0
    7.3751  -19.2348   23.0988 C   0  0  0  0  0  0  0  0  0  0  0  0
    6.1477  -18.2065   21.1824 C   0  0  2  0  0  0  0  0  0  0  0  0
    6.4007  -19.2756   20.2659 N   0  0  0  0  0  0  0  0  0  0  0  0
    7.2166  -17.1781   21.1071 C   0  0  0  0  0  0  0  0  0  0  0  0
    8.3739  -17.5290   20.7068 O   0  0  0  0  0  0  0  0  0  0  0  0
    6.7263  -13.7156   19.5753 C   0  0  0  0  0  0  0  0  0  0  0  0
    7.2703  -13.5595   20.9642 C   0  0  2  0  0  0  0  0  0  0  0  0
    8.3190  -12.4689   20.9851 C   0  0  0  0  0  0  0  0  0  0  0  0
    7.9505  -14.8568   21.4281 C   0  0  2  0  0  0  0  0  0  0  0  0
    6.9222  -15.8556   21.4776 N   0  0  0  0  0  0  0  0  0  0  0  0
    8.4626  -14.6807   22.8263 C   0  0  0  0  0  0  0  0  0  0  0  0
    8.0089  -13.8052   23.6015 O   0  0  0  0  0  0  0  0  0  0  0  0
    5.6808  -11.2366   26.7669 O   0  0  0  0  0  0  0  0  0  0  0  0
    6.4263  -12.3701   26.4621 C   0  0  0  0  0  0  0  0  0  0  0  0
    7.8072  -12.3304   26.4730 C   0  0  0  0  0  0  0  0  0  0  0  0
    8.5626  -13.4362   26.1757 C   0  0  0  0  0  0  0  0  0  0  0  0
    7.9287  -14.6225   25.8567 C   0  0  0  0  0  0  0  0  0  0  0  0
    8.7459  -15.7947   25.5269 C   0  0  0  0  0  0  0  0  0  0  0  0
    9.9197  -15.3941   24.6922 C   0  0  2  0  0  0  0  0  0  0  0  0
    9.4928  -15.5282   23.2926 N   0  0  0  0  0  0  0  0  0  0  0  0
   11.0795  -16.2720   24.9226 C   0  0  0  0  0  0  0  0  0  0  0  0
   11.9265  -16.1898   26.0110 O   0  0  0  0  0  0  0  0  0  0  0  0
    6.5602  -14.6675   25.8440 C   0  0  0  0  0  0  0  0  0  0  0  0
    5.8111  -13.5533   26.1437 C   0  0  0  0  0  0  0  0  0  0  0  0
   11.3471  -17.1836   24.0707 O   0  0  0  0  0  0  0  0  0  0  0  0
  2  1  1  6
  2  4  1  0
  2  3  1  0
  4  6  1  0
  4  5  1  6
  6  7  2  0
  9  8  1  6
  9 11  1  0
 10  9  1  0
 11 13  1  0
 11 12  1  1
 12  6  1  0
 13 14  2  0
 15 16  1  0
 16 26  2  0
 16 17  1  0
 17 18  2  0
 18 19  1  0
 19 20  1  0
 21 20  1  1
 21 22  1  0
 21 23  1  0
 22 13  1  0
 23 27  2  0
 23 24  1  0
 25 19  2  0
 26 25  1  0
M  END
$$$$
