VVY.pdb
     RDKit          3D

 27 27  0  0  1  0  0  0  0  0999 V2000
    5.4101  -19.6212   22.6825 C   0  0  0  0  0  0  0  0  0  0  0  0
    6.5200  -18.6303   22.3755 C   0  0  1  0  0  0  0  0  0  0  0  0
    7.8703  -19.2824   22.4796 C   0  0  0  0  0  0  0  0  0  0  0  0
    6.3006  -18.0133   21.0092 C   0  0  2  0  0  0  0  0  0  0  0  0
    6.2212  -18.9931   19.9697 N   0  0  0  0  0  0  0  0  0  0  0  0
    7.4139  -17.0625   20.7590 C   0  0  0  0  0  0  0  0  0  0  0  0
    8.3894  -17.4424   20.0332 O   0  0  0  0  0  0  0  0  0  0  0  0
    6.8925  -13.0931   21.9369 C   0  0  0  0  0  0  0  0  0  0  0  0
    7.8313  -13.4993   20.8401 C   0  0  2  0  0  0  0  0  0  0  0  0
    7.0737  -13.6251   19.5364 C   0  0  0  0  0  0  0  0  0  0  0  0
    8.4542  -14.8712   21.1413 C   0  0  2  0  0  0  0  0  0  0  0  0
    7.3592  -15.7790   21.3269 N   0  0  0  0  0  0  0  0  0  0  0  0
    9.2000  -14.8075   22.4405 C   0  0  0  0  0  0  0  0  0  0  0  0
    8.9053  -13.9886   23.3437 O   0  0  0  0  0  0  0  0  0  0  0  0
   10.3336  -13.9642   30.0282 O   0  0  0  0  0  0  0  0  0  0  0  0
   10.1544  -14.5012   28.7581 C   0  0  0  0  0  0  0  0  0  0  0  0
   10.6461  -15.7538   28.4458 C   0  0  0  0  0  0  0  0  0  0  0  0
   10.4809  -16.3031   27.1997 C   0  0  0  0  0  0  0  0  0  0  0  0
    9.8054  -15.5873   26.2291 C   0  0  0  0  0  0  0  0  0  0  0  0
    9.6467  -16.1781   24.8964 C   0  0  0  0  0  0  0  0  0  0  0  0
   10.8069  -15.8183   24.0248 C   0  0  2  0  0  0  0  0  0  0  0  0
   10.2739  -15.6993   22.6606 N   0  0  0  0  0  0  0  0  0  0  0  0
   11.8467  -16.8610   24.0407 C   0  0  0  0  0  0  0  0  0  0  0  0
   13.0079  -16.8050   24.7873 O   0  0  0  0  0  0  0  0  0  0  0  0
    9.3161  -14.3450   26.5330 C   0  0  0  0  0  0  0  0  0  0  0  0
    9.4866  -13.8024   27.7856 C   0  0  0  0  0  0  0  0  0  0  0  0
   11.6919  -17.9033   23.3209 O   0  0  0  0  0  0  0  0  0  0  0  0
  2  1  1  6
  2  4  1  0
  2  3  1  0
  4  6  1  0
  4  5  1  6
  6  7  2  0
  9  8  1  1
  9 11  1  0
 10  9  1  0
 11 13  1  0
 11 12  1  1
 12  6  1  0
 13 14  2  0
 15 16  1  0
 16 26  2  0
 16 17  1  0
 17 18  2  0
 18 19  1  0
 19 20  1  0
 21 20  1  1
 21 22  1  0
 21 23  1  0
 22 13  1  0
 23 27  2  0
 23 24  1  0
 25 19  2  0
 26 25  1  0
M  END
$$$$
