VVY.pdb
     RDKit          3D

 27 27  0  0  1  0  0  0  0  0999 V2000
   10.1649  -19.4216   20.7658 C   0  0  0  0  0  0  0  0  0  0  0  0
   11.1392  -18.9901   19.6830 C   0  0  1  0  0  0  0  0  0  0  0  0
   11.4372  -20.1234   18.7417 C   0  0  0  0  0  0  0  0  0  0  0  0
   10.5959  -17.7812   18.9488 C   0  0  2  0  0  0  0  0  0  0  0  0
   11.4983  -17.2916   17.9523 N   0  0  0  0  0  0  0  0  0  0  0  0
   10.3015  -16.7336   19.9596 C   0  0  0  0  0  0  0  0  0  0  0  0
   11.2679  -16.2428   20.6290 O   0  0  0  0  0  0  0  0  0  0  0  0
    7.4487  -13.9284   19.4157 C   0  0  0  0  0  0  0  0  0  0  0  0
    7.3224  -14.6958   20.6981 C   0  0  2  0  0  0  0  0  0  0  0  0
    6.8847  -13.7681   21.8104 C   0  0  0  0  0  0  0  0  0  0  0  0
    8.6777  -15.2928   21.1074 C   0  0  2  0  0  0  0  0  0  0  0  0
    8.9734  -16.3167   20.1473 N   0  0  0  0  0  0  0  0  0  0  0  0
    8.5461  -15.9637   22.4419 C   0  0  0  0  0  0  0  0  0  0  0  0
    8.2193  -17.1691   22.5574 O   0  0  0  0  0  0  0  0  0  0  0  0
    5.3861  -10.9232   26.7570 O   0  0  0  0  0  0  0  0  0  0  0  0
    6.3393  -11.9116   26.5379 C   0  0  0  0  0  0  0  0  0  0  0  0
    6.6675  -12.8091   27.5355 C   0  0  0  0  0  0  0  0  0  0  0  0
    7.6045  -13.7920   27.3415 C   0  0  0  0  0  0  0  0  0  0  0  0
    8.2387  -13.8896   26.1170 C   0  0  0  0  0  0  0  0  0  0  0  0
    9.2488  -14.9352   25.9250 C   0  0  0  0  0  0  0  0  0  0  0  0
    8.7884  -15.9237   24.9023 C   0  0  2  0  0  0  0  0  0  0  0  0
    8.7981  -15.2162   23.6143 N   0  0  0  0  0  0  0  0  0  0  0  0
    7.4208  -16.3966   25.1757 C   0  0  0  0  0  0  0  0  0  0  0  0
    7.0804  -17.2906   26.1725 O   0  0  0  0  0  0  0  0  0  0  0  0
    7.9176  -13.0025   25.1246 C   0  0  0  0  0  0  0  0  0  0  0  0
    6.9764  -12.0201   25.3286 C   0  0  0  0  0  0  0  0  0  0  0  0
    6.4596  -15.9674   24.4544 O   0  0  0  0  0  0  0  0  0  0  0  0
  2  1  1  1
  2  4  1  0
  2  3  1  0
  4  6  1  0
  4  5  1  6
  6  7  2  0
  9  8  1  6
  9 11  1  0
 10  9  1  0
 11 13  1  0
 11 12  1  6
 12  6  1  0
 13 14  2  0
 15 16  1  0
 16 26  2  0
 16 17  1  0
 17 18  2  0
 18 19  1  0
 19 20  1  0
 21 20  1  1
 21 22  1  0
 21 23  1  0
 22 13  1  0
 23 27  2  0
 23 24  1  0
 25 19  2  0
 26 25  1  0
M  END
$$$$
