VVY.pdb
     RDKit          3D

 27 27  0  0  1  0  0  0  0  0999 V2000
    7.9645  -12.2380   25.7671 C   0  0  0  0  0  0  0  0  0  0  0  0
    6.9515  -12.9221   26.6692 C   0  0  1  0  0  0  0  0  0  0  0  0
    6.1246  -11.9128   27.4157 C   0  0  0  0  0  0  0  0  0  0  0  0
    6.0859  -13.8631   25.8563 C   0  0  2  0  0  0  0  0  0  0  0  0
    5.1687  -14.6046   26.6662 N   0  0  0  0  0  0  0  0  0  0  0  0
    6.9890  -14.7736   25.1071 C   0  0  0  0  0  0  0  0  0  0  0  0
    7.3578  -15.8595   25.6616 O   0  0  0  0  0  0  0  0  0  0  0  0
    6.7818  -14.7785   21.0981 C   0  0  0  0  0  0  0  0  0  0  0  0
    8.1926  -14.8109   21.6061 C   0  0  2  0  0  0  0  0  0  0  0  0
    9.0148  -15.7730   20.7768 C   0  0  0  0  0  0  0  0  0  0  0  0
    8.2334  -15.3093   23.0590 C   0  0  2  0  0  0  0  0  0  0  0  0
    7.4080  -14.4129   23.8158 N   0  0  0  0  0  0  0  0  0  0  0  0
    9.6288  -15.1814   23.5925 C   0  0  0  0  0  0  0  0  0  0  0  0
    9.9758  -14.2394   24.3445 O   0  0  0  0  0  0  0  0  0  0  0  0
   10.1923  -14.0810   29.8163 O   0  0  0  0  0  0  0  0  0  0  0  0
   10.4831  -14.8339   28.6841 C   0  0  0  0  0  0  0  0  0  0  0  0
    9.6806  -15.8974   28.3186 C   0  0  0  0  0  0  0  0  0  0  0  0
    9.9484  -16.6536   27.2058 C   0  0  0  0  0  0  0  0  0  0  0  0
   11.0490  -16.3461   26.4279 C   0  0  0  0  0  0  0  0  0  0  0  0
   11.3339  -17.1696   25.2485 C   0  0  0  0  0  0  0  0  0  0  0  0
   11.7682  -16.3103   24.1048 C   0  0  2  0  0  0  0  0  0  0  0  0
   10.5913  -16.1538   23.2390 N   0  0  0  0  0  0  0  0  0  0  0  0
   12.8504  -16.9390   23.3286 C   0  0  0  0  0  0  0  0  0  0  0  0
   14.1986  -16.7853   23.5882 O   0  0  0  0  0  0  0  0  0  0  0  0
   11.8480  -15.2932   26.7856 C   0  0  0  0  0  0  0  0  0  0  0  0
   11.5714  -14.5405   27.9033 C   0  0  0  0  0  0  0  0  0  0  0  0
   12.5511  -17.6846   22.3371 O   0  0  0  0  0  0  0  0  0  0  0  0
  2  1  1  6
  2  4  1  0
  2  3  1  0
  4  6  1  0
  4  5  1  1
  6  7  2  0
  9  8  1  6
  9 11  1  0
 10  9  1  0
 11 13  1  0
 11 12  1  1
 12  6  1  0
 13 14  2  0
 15 16  1  0
 16 26  2  0
 16 17  1  0
 17 18  2  0
 18 19  1  0
 19 20  1  0
 21 20  1  1
 21 22  1  0
 21 23  1  0
 22 13  1  0
 23 27  2  0
 23 24  1  0
 25 19  2  0
 26 25  1  0
M  END
$$$$
