VVY.pdb
     RDKit          3D

 27 27  0  0  1  0  0  0  0  0999 V2000
    8.8026  -12.7628   21.8870 C   0  0  0  0  0  0  0  0  0  0  0  0
    7.8856  -13.2218   20.7661 C   0  0  1  0  0  0  0  0  0  0  0  0
    7.7517  -12.1612   19.7093 C   0  0  0  0  0  0  0  0  0  0  0  0
    8.3890  -14.5282   20.1868 C   0  0  2  0  0  0  0  0  0  0  0  0
    7.5971  -14.9827   19.0853 N   0  0  0  0  0  0  0  0  0  0  0  0
    8.4025  -15.5320   21.2813 C   0  0  0  0  0  0  0  0  0  0  0  0
    7.3025  -16.0748   21.6251 O   0  0  0  0  0  0  0  0  0  0  0  0
   10.6149  -18.4372   21.0376 C   0  0  0  0  0  0  0  0  0  0  0  0
   10.8795  -17.8139   22.3758 C   0  0  2  0  0  0  0  0  0  0  0  0
   11.0663  -18.8952   23.4177 C   0  0  0  0  0  0  0  0  0  0  0  0
    9.6853  -16.9542   22.8181 C   0  0  2  0  0  0  0  0  0  0  0  0
    9.6210  -15.8521   21.9023 N   0  0  0  0  0  0  0  0  0  0  0  0
    9.9565  -16.3832   24.1778 C   0  0  0  0  0  0  0  0  0  0  0  0
   10.8553  -15.5321   24.3808 O   0  0  0  0  0  0  0  0  0  0  0  0
    5.8796  -11.2787   25.0487 O   0  0  0  0  0  0  0  0  0  0  0  0
    6.4212  -12.4442   25.5794 C   0  0  0  0  0  0  0  0  0  0  0  0
    7.4406  -12.3885   26.5102 C   0  0  0  0  0  0  0  0  0  0  0  0
    7.9897  -13.5252   27.0470 C   0  0  0  0  0  0  0  0  0  0  0  0
    7.5129  -14.7600   26.6484 C   0  0  0  0  0  0  0  0  0  0  0  0
    8.1165  -15.9689   27.2182 C   0  0  0  0  0  0  0  0  0  0  0  0
    9.4490  -16.2309   26.5929 C   0  0  2  0  0  0  0  0  0  0  0  0
    9.1751  -16.8155   25.2729 N   0  0  0  0  0  0  0  0  0  0  0  0
   10.2444  -17.1871   27.3815 C   0  0  0  0  0  0  0  0  0  0  0  0
   11.0482  -16.8488   28.4531 O   0  0  0  0  0  0  0  0  0  0  0  0
    6.5028  -14.8213   25.7259 C   0  0  0  0  0  0  0  0  0  0  0  0
    5.9583  -13.6757   25.1933 C   0  0  0  0  0  0  0  0  0  0  0  0
   10.2096  -18.4253   27.0748 O   0  0  0  0  0  0  0  0  0  0  0  0
  2  1  1  1
  2  4  1  0
  2  3  1  0
  4  6  1  0
  4  5  1  6
  6  7  2  0
  9  8  1  6
  9 11  1  0
 10  9  1  0
 11 13  1  0
 11 12  1  6
 12  6  1  0
 13 14  2  0
 15 16  1  0
 16 26  2  0
 16 17  1  0
 17 18  2  0
 18 19  1  0
 19 20  1  0
 21 20  1  1
 21 22  1  0
 21 23  1  0
 22 13  1  0
 23 27  2  0
 23 24  1  0
 25 19  2  0
 26 25  1  0
M  END
$$$$
