LYM.pdb
     RDKit          3D

 29 29  0  0  1  0  0  0  0  0999 V2000
   29.9940  -17.7536  -16.6805 C   0  0  0  0  0  0  0  0  0  0  0  0
   28.5817  -17.3792  -17.1114 C   0  0  2  0  0  0  0  0  0  0  0  0
   28.5433  -16.1019  -17.8964 C   0  0  0  0  0  0  0  0  0  0  0  0
   27.7010  -17.3048  -15.8729 C   0  0  0  0  0  0  0  0  0  0  0  0
   28.0842  -18.4906  -14.9918 C   0  0  2  0  0  0  0  0  0  0  0  0
   28.1159  -19.6706  -15.8435 N   0  0  0  0  0  0  0  0  0  0  0  0
   27.1585  -18.6684  -13.8680 C   0  0  0  0  0  0  0  0  0  0  0  0
   26.8708  -17.6415  -13.1823 O   0  0  0  0  0  0  0  0  0  0  0  0
   19.3262  -20.9082  -11.0134 O   0  0  0  0  0  0  0  0  0  0  0  0
   20.6028  -20.9554  -11.5456 C   0  0  0  0  0  0  0  0  0  0  0  0
   21.0753  -19.8879  -12.2781 C   0  0  0  0  0  0  0  0  0  0  0  0
   22.3398  -19.8729  -12.8360 C   0  0  0  0  0  0  0  0  0  0  0  0
   23.1879  -20.9444  -12.6762 C   0  0  0  0  0  0  0  0  0  0  0  0
   24.5220  -20.9327  -13.2579 C   0  0  0  0  0  0  0  0  0  0  0  0
   25.5407  -20.0723  -12.6007 C   0  0  2  0  0  0  0  0  0  0  0  0
   26.6296  -19.9446  -13.5909 N   0  0  0  0  0  0  0  0  0  0  0  0
   26.1472  -20.6006  -11.3652 C   0  0  0  0  0  0  0  0  0  0  0  0
   26.9058  -21.6338  -11.4157 O   0  0  0  0  0  0  0  0  0  0  0  0
   22.7131  -22.0165  -11.9405 C   0  0  0  0  0  0  0  0  0  0  0  0
   21.4536  -22.0301  -11.3855 C   0  0  0  0  0  0  0  0  0  0  0  0
   28.0192  -18.0398   -5.7598 C   0  0  0  0  0  0  0  0  0  0  0  0
   28.5431  -19.7766   -5.5829 S   0  0  0  0  0  0  0  0  0  0  0  0
   27.4376  -20.7566   -6.6601 C   0  0  0  0  0  0  0  0  0  0  0  0
   27.1716  -20.0554   -7.9469 C   0  0  0  0  0  0  0  0  0  0  0  0
   26.2697  -20.8786   -8.8633 C   0  0  2  0  0  0  0  0  0  0  0  0
   25.9841  -20.0681  -10.0611 N   0  0  0  0  0  0  0  0  0  0  0  0
   25.0514  -21.3631   -8.2007 C   0  0  0  0  0  0  0  0  0  0  0  0
   23.9634  -20.7802   -8.4307 O   0  0  0  0  0  0  0  0  0  0  0  0
   24.9861  -22.4307   -7.3241 O   0  0  0  0  0  0  0  0  0  0  0  0
  2  4  1  0
  2  1  1  1
  3  2  1  0
  5  6  1  6
  5  4  1  0
  7  5  1  0
  7  8  2  0
  9 10  1  0
 10 20  2  0
 10 11  1  0
 11 12  2  0
 12 13  1  0
 13 14  1  0
 15 14  1  6
 16 15  1  0
 16  7  1  0
 17 15  1  0
 17 18  2  0
 19 13  2  0
 20 19  1  0
 22 21  1  0
 22 23  1  0
 23 24  1  0
 25 24  1  1
 25 27  1  0
 26 25  1  0
 26 17  1  0
 27 28  2  0
 27 29  1  0
M  END
$$$$
