LYM.pdb
     RDKit          3D

 29 29  0  0  1  0  0  0  0  0999 V2000
   28.3904  -16.4221  -16.6544 C   0  0  0  0  0  0  0  0  0  0  0  0
   27.7963  -17.5788  -17.4480 C   0  0  2  0  0  0  0  0  0  0  0  0
   27.1142  -17.1204  -18.7027 C   0  0  0  0  0  0  0  0  0  0  0  0
   26.8482  -18.3512  -16.5426 C   0  0  0  0  0  0  0  0  0  0  0  0
   27.5962  -19.6029  -16.0923 C   0  0  2  0  0  0  0  0  0  0  0  0
   27.8031  -20.4315  -17.2711 N   0  0  0  0  0  0  0  0  0  0  0  0
   26.8738  -20.3344  -15.0462 C   0  0  0  0  0  0  0  0  0  0  0  0
   26.0117  -21.1855  -15.4201 O   0  0  0  0  0  0  0  0  0  0  0  0
   24.1257  -21.2076   -6.5974 O   0  0  0  0  0  0  0  0  0  0  0  0
   24.8550  -20.9885   -7.7528 C   0  0  0  0  0  0  0  0  0  0  0  0
   25.0039  -22.0081   -8.6679 C   0  0  0  0  0  0  0  0  0  0  0  0
   25.7196  -21.8539   -9.8403 C   0  0  0  0  0  0  0  0  0  0  0  0
   26.3203  -20.6531  -10.1406 C   0  0  0  0  0  0  0  0  0  0  0  0
   27.0719  -20.4837  -11.3754 C   0  0  0  0  0  0  0  0  0  0  0  0
   26.3540  -20.7541  -12.6488 C   0  0  2  0  0  0  0  0  0  0  0  0
   27.1529  -20.0754  -13.6897 N   0  0  0  0  0  0  0  0  0  0  0  0
   24.9812  -20.2268  -12.7527 C   0  0  0  0  0  0  0  0  0  0  0  0
   24.7876  -18.9635  -12.8630 O   0  0  0  0  0  0  0  0  0  0  0  0
   26.1708  -19.6291   -9.2213 C   0  0  0  0  0  0  0  0  0  0  0  0
   25.4577  -19.7841   -8.0542 C   0  0  0  0  0  0  0  0  0  0  0  0
   22.3532  -17.8971  -16.6083 C   0  0  0  0  0  0  0  0  0  0  0  0
   20.7305  -18.5856  -16.1445 S   0  0  0  0  0  0  0  0  0  0  0  0
   20.9230  -19.2544  -14.4537 C   0  0  0  0  0  0  0  0  0  0  0  0
   22.2850  -19.8199  -14.2452 C   0  0  0  0  0  0  0  0  0  0  0  0
   22.4651  -20.3513  -12.8253 C   0  0  2  0  0  0  0  0  0  0  0  0
   23.7892  -20.9949  -12.7496 N   0  0  0  0  0  0  0  0  0  0  0  0
   21.3765  -21.2374  -12.3918 C   0  0  0  0  0  0  0  0  0  0  0  0
   20.3005  -20.7265  -11.9947 O   0  0  0  0  0  0  0  0  0  0  0  0
   21.4244  -22.6195  -12.3800 O   0  0  0  0  0  0  0  0  0  0  0  0
  2  4  1  0
  2  1  1  1
  3  2  1  0
  5  6  1  6
  5  4  1  0
  7  5  1  0
  7  8  2  0
  9 10  1  0
 10 20  2  0
 10 11  1  0
 11 12  2  0
 12 13  1  0
 13 14  1  0
 15 14  1  1
 16 15  1  0
 16  7  1  0
 17 15  1  0
 17 18  2  0
 19 13  2  0
 20 19  1  0
 22 21  1  0
 22 23  1  0
 23 24  1  0
 25 24  1  6
 25 27  1  0
 26 25  1  0
 26 17  1  0
 27 28  2  0
 27 29  1  0
M  END
$$$$
