LYM.pdb
     RDKit          3D

 29 29  0  0  1  0  0  0  0  0999 V2000
   19.7002   -9.4432  -18.9317 C   0  0  0  0  0  0  0  0  0  0  0  0
   18.7822  -10.3268  -18.0969 C   0  0  2  0  0  0  0  0  0  0  0  0
   17.4906  -10.6310  -18.7959 C   0  0  0  0  0  0  0  0  0  0  0  0
   18.5491   -9.6510  -16.7537 C   0  0  0  0  0  0  0  0  0  0  0  0
   19.9258   -9.4081  -16.1416 C   0  0  2  0  0  0  0  0  0  0  0  0
   20.4503  -10.7014  -15.7280 N   0  0  0  0  0  0  0  0  0  0  0  0
   19.8745   -8.4686  -15.0163 C   0  0  0  0  0  0  0  0  0  0  0  0
   19.2869   -8.8550  -13.9614 O   0  0  0  0  0  0  0  0  0  0  0  0
   25.6338   -3.7832  -16.7946 O   0  0  0  0  0  0  0  0  0  0  0  0
   24.6461   -4.2949  -15.9714 C   0  0  0  0  0  0  0  0  0  0  0  0
   24.5183   -5.6596  -15.8280 C   0  0  0  0  0  0  0  0  0  0  0  0
   23.5533   -6.2335  -15.0218 C   0  0  0  0  0  0  0  0  0  0  0  0
   22.6691   -5.4467  -14.3203 C   0  0  0  0  0  0  0  0  0  0  0  0
   21.6535   -6.0453  -13.4668 C   0  0  0  0  0  0  0  0  0  0  0  0
   20.2951   -6.2155  -14.0464 C   0  0  2  0  0  0  0  0  0  0  0  0
   20.4655   -7.1955  -15.1387 N   0  0  0  0  0  0  0  0  0  0  0  0
   19.6808   -5.0150  -14.6422 C   0  0  0  0  0  0  0  0  0  0  0  0
   19.8747   -4.7447  -15.8811 O   0  0  0  0  0  0  0  0  0  0  0  0
   22.7976   -4.0760  -14.4645 C   0  0  0  0  0  0  0  0  0  0  0  0
   23.7591   -3.5058  -15.2677 C   0  0  0  0  0  0  0  0  0  0  0  0
   13.6120   -0.5646  -16.0555 C   0  0  0  0  0  0  0  0  0  0  0  0
   14.3003   -2.1414  -15.4537 S   0  0  0  0  0  0  0  0  0  0  0  0
   16.1072   -1.8940  -15.3228 C   0  0  0  0  0  0  0  0  0  0  0  0
   16.7764   -3.0838  -14.7270 C   0  0  0  0  0  0  0  0  0  0  0  0
   18.2925   -2.9118  -14.6738 C   0  0  2  0  0  0  0  0  0  0  0  0
   18.8540   -4.0793  -13.9701 N   0  0  0  0  0  0  0  0  0  0  0  0
   18.7143   -1.6347  -14.0830 C   0  0  0  0  0  0  0  0  0  0  0  0
   19.1106   -1.6192  -12.8917 O   0  0  0  0  0  0  0  0  0  0  0  0
   18.7178   -0.4136  -14.7321 O   0  0  0  0  0  0  0  0  0  0  0  0
  2  4  1  0
  2  1  1  6
  3  2  1  0
  5  6  1  1
  5  4  1  0
  7  5  1  0
  7  8  2  0
  9 10  1  0
 10 20  2  0
 10 11  1  0
 11 12  2  0
 12 13  1  0
 13 14  1  0
 15 14  1  6
 16 15  1  0
 16  7  1  0
 17 15  1  0
 17 18  2  0
 19 13  2  0
 20 19  1  0
 22 21  1  0
 22 23  1  0
 23 24  1  0
 25 24  1  1
 25 27  1  0
 26 25  1  0
 26 17  1  0
 27 28  2  0
 27 29  1  0
M  END
$$$$
