LYM.pdb
     RDKit          3D

 29 29  0  0  1  0  0  0  0  0999 V2000
   13.3240  -20.9239    2.8924 C   0  0  0  0  0  0  0  0  0  0  0  0
   14.5022  -21.8803    2.7592 C   0  0  2  0  0  0  0  0  0  0  0  0
   14.3097  -23.1384    3.5526 C   0  0  0  0  0  0  0  0  0  0  0  0
   15.7707  -21.1462    3.1681 C   0  0  0  0  0  0  0  0  0  0  0  0
   15.9163  -19.9616    2.2169 C   0  0  2  0  0  0  0  0  0  0  0  0
   16.2123  -20.4997    0.8971 N   0  0  0  0  0  0  0  0  0  0  0  0
   16.9544  -19.0227    2.6553 C   0  0  0  0  0  0  0  0  0  0  0  0
   18.1568  -19.3116    2.3754 O   0  0  0  0  0  0  0  0  0  0  0  0
   19.9465  -11.1848    5.7211 O   0  0  0  0  0  0  0  0  0  0  0  0
   19.2964  -12.2617    5.1444 C   0  0  0  0  0  0  0  0  0  0  0  0
   18.1408  -12.7465    5.7178 C   0  0  0  0  0  0  0  0  0  0  0  0
   17.4447  -13.8183    5.1914 C   0  0  0  0  0  0  0  0  0  0  0  0
   17.8899  -14.4512    4.0537 C   0  0  0  0  0  0  0  0  0  0  0  0
   17.1590  -15.5777    3.4926 C   0  0  0  0  0  0  0  0  0  0  0  0
   17.6535  -16.9398    3.8245 C   0  0  2  0  0  0  0  0  0  0  0  0
   16.5929  -17.8560    3.3575 N   0  0  0  0  0  0  0  0  0  0  0  0
   17.8689  -17.2294    5.2539 C   0  0  0  0  0  0  0  0  0  0  0  0
   16.8912  -17.6338    5.9793 O   0  0  0  0  0  0  0  0  0  0  0  0
   19.0506  -13.9641    3.4779 C   0  0  0  0  0  0  0  0  0  0  0  0
   19.7429  -12.8966    4.0032 C   0  0  0  0  0  0  0  0  0  0  0  0
   23.4534  -17.9360    9.8833 C   0  0  0  0  0  0  0  0  0  0  0  0
   22.1617  -19.1804    9.5588 S   0  0  0  0  0  0  0  0  0  0  0  0
   20.6321  -18.2472    9.1949 C   0  0  0  0  0  0  0  0  0  0  0  0
   20.4231  -18.0978    7.7279 C   0  0  0  0  0  0  0  0  0  0  0  0
   19.1633  -17.2940    7.4154 C   0  0  2  0  0  0  0  0  0  0  0  0
   19.0963  -17.1111    5.9541 N   0  0  0  0  0  0  0  0  0  0  0  0
   19.0834  -16.0252    8.1516 C   0  0  0  0  0  0  0  0  0  0  0  0
   19.6214  -15.0034    7.6589 O   0  0  0  0  0  0  0  0  0  0  0  0
   18.4536  -15.8433    9.3693 O   0  0  0  0  0  0  0  0  0  0  0  0
  2  4  1  0
  2  1  1  1
  3  2  1  0
  5  6  1  6
  5  4  1  0
  7  5  1  0
  7  8  2  0
  9 10  1  0
 10 20  2  0
 10 11  1  0
 11 12  2  0
 12 13  1  0
 13 14  1  0
 15 14  1  1
 16 15  1  0
 16  7  1  0
 17 15  1  0
 17 18  2  0
 19 13  2  0
 20 19  1  0
 22 21  1  0
 22 23  1  0
 23 24  1  0
 25 24  1  6
 25 27  1  0
 26 25  1  0
 26 17  1  0
 27 28  2  0
 27 29  1  0
M  END
$$$$
