LYM.pdb
     RDKit          3D

 29 29  0  0  1  0  0  0  0  0999 V2000
   30.7574  -23.5151  -18.1832 C   0  0  0  0  0  0  0  0  0  0  0  0
   29.5717  -22.6822  -18.6531 C   0  0  2  0  0  0  0  0  0  0  0  0
   29.5925  -22.4423  -20.1335 C   0  0  0  0  0  0  0  0  0  0  0  0
   29.5568  -21.3765  -17.8720 C   0  0  0  0  0  0  0  0  0  0  0  0
   29.4185  -21.7498  -16.3987 C   0  0  2  0  0  0  0  0  0  0  0  0
   29.1212  -23.1735  -16.3387 N   0  0  0  0  0  0  0  0  0  0  0  0
   28.3848  -20.9599  -15.7212 C   0  0  0  0  0  0  0  0  0  0  0  0
   28.4574  -19.6981  -15.8207 O   0  0  0  0  0  0  0  0  0  0  0  0
   20.3434  -18.4229  -13.5516 O   0  0  0  0  0  0  0  0  0  0  0  0
   21.5242  -19.0001  -13.9847 C   0  0  0  0  0  0  0  0  0  0  0  0
   21.8299  -20.2900  -13.6083 C   0  0  0  0  0  0  0  0  0  0  0  0
   22.9923  -20.9232  -14.0065 C   0  0  0  0  0  0  0  0  0  0  0  0
   23.9027  -20.2747  -14.8088 C   0  0  0  0  0  0  0  0  0  0  0  0
   25.1264  -20.9376  -15.2345 C   0  0  0  0  0  0  0  0  0  0  0  0
   26.3137  -20.8026  -14.3501 C   0  0  2  0  0  0  0  0  0  0  0  0
   27.3667  -21.6116  -14.9974 N   0  0  0  0  0  0  0  0  0  0  0  0
   26.1686  -21.3128  -12.9745 C   0  0  0  0  0  0  0  0  0  0  0  0
   25.9889  -22.5667  -12.7727 O   0  0  0  0  0  0  0  0  0  0  0  0
   23.5955  -18.9790  -15.1867 C   0  0  0  0  0  0  0  0  0  0  0  0
   22.4376  -18.3498  -14.7893 C   0  0  0  0  0  0  0  0  0  0  0  0
   27.7787  -18.5963   -7.5280 C   0  0  0  0  0  0  0  0  0  0  0  0
   28.5164  -20.2515   -7.7233 S   0  0  0  0  0  0  0  0  0  0  0  0
   27.6168  -21.0535   -9.0983 C   0  0  0  0  0  0  0  0  0  0  0  0
   26.3214  -20.3709   -9.3711 C   0  0  0  0  0  0  0  0  0  0  0  0
   25.5807  -21.0114  -10.5424 C   0  0  2  0  0  0  0  0  0  0  0  0
   26.2117  -20.5379  -11.7877 N   0  0  0  0  0  0  0  0  0  0  0  0
   24.1309  -20.7764  -10.5144 C   0  0  0  0  0  0  0  0  0  0  0  0
   23.6747  -19.7366  -11.0504 O   0  0  0  0  0  0  0  0  0  0  0  0
   23.1939  -21.6149   -9.9388 O   0  0  0  0  0  0  0  0  0  0  0  0
  2  4  1  0
  2  1  1  1
  3  2  1  0
  5  6  1  6
  5  4  1  0
  7  5  1  0
  7  8  2  0
  9 10  1  0
 10 20  2  0
 10 11  1  0
 11 12  2  0
 12 13  1  0
 13 14  1  0
 15 14  1  6
 16 15  1  0
 16  7  1  0
 17 15  1  0
 17 18  2  0
 19 13  2  0
 20 19  1  0
 22 21  1  0
 22 23  1  0
 23 24  1  0
 25 24  1  1
 25 27  1  0
 26 25  1  0
 26 17  1  0
 27 28  2  0
 27 29  1  0
M  END
$$$$
