LYM.pdb
     RDKit          3D

 29 29  0  0  1  0  0  0  0  0999 V2000
   25.3876  -11.2663  -15.5763 C   0  0  0  0  0  0  0  0  0  0  0  0
   24.0149  -11.9247  -15.6290 C   0  0  2  0  0  0  0  0  0  0  0  0
   24.0904  -13.3747  -16.0050 C   0  0  0  0  0  0  0  0  0  0  0  0
   23.1373  -11.1390  -16.5921 C   0  0  0  0  0  0  0  0  0  0  0  0
   23.1943   -9.6808  -16.1453 C   0  0  2  0  0  0  0  0  0  0  0  0
   22.5766   -9.6064  -14.8294 N   0  0  0  0  0  0  0  0  0  0  0  0
   22.5318   -8.7828  -17.0973 C   0  0  0  0  0  0  0  0  0  0  0  0
   22.9602   -8.7804  -18.2905 O   0  0  0  0  0  0  0  0  0  0  0  0
   15.5212   -3.9764  -19.7298 O   0  0  0  0  0  0  0  0  0  0  0  0
   16.4684   -4.8390  -19.2064 C   0  0  0  0  0  0  0  0  0  0  0  0
   17.0840   -5.7559  -20.0306 C   0  0  0  0  0  0  0  0  0  0  0  0
   18.0373   -6.6446  -19.5701 C   0  0  0  0  0  0  0  0  0  0  0  0
   18.4124   -6.6446  -18.2463 C   0  0  0  0  0  0  0  0  0  0  0  0
   19.4184   -7.5753  -17.7565 C   0  0  0  0  0  0  0  0  0  0  0  0
   20.8108   -7.0682  -17.6380 C   0  0  2  0  0  0  0  0  0  0  0  0
   21.4647   -7.9695  -16.6672 N   0  0  0  0  0  0  0  0  0  0  0  0
   20.9678   -5.6968  -17.1200 C   0  0  0  0  0  0  0  0  0  0  0  0
   21.0191   -5.4927  -15.8547 O   0  0  0  0  0  0  0  0  0  0  0  0
   17.7939   -5.7236  -17.4186 C   0  0  0  0  0  0  0  0  0  0  0  0
   16.8447   -4.8392  -17.8786 C   0  0  0  0  0  0  0  0  0  0  0  0
   23.4932    1.6760  -17.9764 C   0  0  0  0  0  0  0  0  0  0  0  0
   23.4033    0.0156  -18.7229 S   0  0  0  0  0  0  0  0  0  0  0  0
   22.3293   -0.9799  -17.6281 C   0  0  0  0  0  0  0  0  0  0  0  0
   22.0270   -2.3097  -18.2270 C   0  0  0  0  0  0  0  0  0  0  0  0
   21.2363   -3.1953  -17.2670 C   0  0  2  0  0  0  0  0  0  0  0  0
   21.0791   -4.5175  -17.8996 N   0  0  0  0  0  0  0  0  0  0  0  0
   19.9555   -2.6075  -16.8521 C   0  0  0  0  0  0  0  0  0  0  0  0
   18.9665   -2.7054  -17.6194 O   0  0  0  0  0  0  0  0  0  0  0  0
   19.7282   -1.9388  -15.6631 O   0  0  0  0  0  0  0  0  0  0  0  0
  2  4  1  0
  2  1  1  6
  3  2  1  0
  5  6  1  1
  5  4  1  0
  7  5  1  0
  7  8  2  0
  9 10  1  0
 10 20  2  0
 10 11  1  0
 11 12  2  0
 12 13  1  0
 13 14  1  0
 15 14  1  1
 16 15  1  0
 16  7  1  0
 17 15  1  0
 17 18  2  0
 19 13  2  0
 20 19  1  0
 22 21  1  0
 22 23  1  0
 23 24  1  0
 25 24  1  6
 25 27  1  0
 26 25  1  0
 26 17  1  0
 27 28  2  0
 27 29  1  0
M  END
$$$$
