LYM.pdb
     RDKit          3D

 29 29  0  0  1  0  0  0  0  0999 V2000
   18.3088   -4.8148  -21.4492 C   0  0  0  0  0  0  0  0  0  0  0  0
   18.6648   -3.3940  -21.0309 C   0  0  2  0  0  0  0  0  0  0  0  0
   19.6443   -2.7510  -21.9672 C   0  0  0  0  0  0  0  0  0  0  0  0
   19.1898   -3.4263  -19.6032 C   0  0  0  0  0  0  0  0  0  0  0  0
   18.0876   -4.0422  -18.7458 C   0  0  2  0  0  0  0  0  0  0  0  0
   16.9995   -3.0776  -18.6807 N   0  0  0  0  0  0  0  0  0  0  0  0
   18.5630   -4.4014  -17.4055 C   0  0  0  0  0  0  0  0  0  0  0  0
   18.7269   -3.4588  -16.5736 O   0  0  0  0  0  0  0  0  0  0  0  0
   18.0959   -7.9252   -9.5895 O   0  0  0  0  0  0  0  0  0  0  0  0
   18.0487   -7.5323  -10.9155 C   0  0  0  0  0  0  0  0  0  0  0  0
   18.0277   -6.1903  -11.2280 C   0  0  0  0  0  0  0  0  0  0  0  0
   17.9806   -5.7328  -12.5315 C   0  0  0  0  0  0  0  0  0  0  0  0
   17.9526   -6.6191  -13.5835 C   0  0  0  0  0  0  0  0  0  0  0  0
   17.9069   -6.1434  -14.9582 C   0  0  0  0  0  0  0  0  0  0  0  0
   19.1910   -6.1083  -15.7066 C   0  0  2  0  0  0  0  0  0  0  0  0
   18.8173   -5.7509  -17.0905 N   0  0  0  0  0  0  0  0  0  0  0  0
   19.9419   -7.3749  -15.7808 C   0  0  0  0  0  0  0  0  0  0  0  0
   19.4798   -8.3533  -16.4696 O   0  0  0  0  0  0  0  0  0  0  0  0
   17.9736   -7.9671  -13.2695 C   0  0  0  0  0  0  0  0  0  0  0  0
   18.0205   -8.4212  -11.9709 C   0  0  0  0  0  0  0  0  0  0  0  0
   26.4939  -11.6474  -14.9794 C   0  0  0  0  0  0  0  0  0  0  0  0
   25.7968   -9.9633  -14.9860 S   0  0  0  0  0  0  0  0  0  0  0  0
   23.9795  -10.1620  -15.0154 C   0  0  0  0  0  0  0  0  0  0  0  0
   23.2890   -8.8423  -15.0252 C   0  0  0  0  0  0  0  0  0  0  0  0
   21.7789   -8.9958  -15.1897 C   0  0  2  0  0  0  0  0  0  0  0  0
   21.1821   -7.6484  -15.1500 N   0  0  0  0  0  0  0  0  0  0  0  0
   21.1762   -9.9137  -14.2139 C   0  0  0  0  0  0  0  0  0  0  0  0
   20.9341   -9.4939  -13.0556 O   0  0  0  0  0  0  0  0  0  0  0  0
   20.8395  -11.2330  -14.4561 O   0  0  0  0  0  0  0  0  0  0  0  0
  2  4  1  0
  2  1  1  6
  3  2  1  0
  5  6  1  1
  5  4  1  0
  7  5  1  0
  7  8  2  0
  9 10  1  0
 10 20  2  0
 10 11  1  0
 11 12  2  0
 12 13  1  0
 13 14  1  0
 15 14  1  1
 16 15  1  0
 16  7  1  0
 17 15  1  0
 17 18  2  0
 19 13  2  0
 20 19  1  0
 22 21  1  0
 22 23  1  0
 23 24  1  0
 25 24  1  1
 25 27  1  0
 26 25  1  0
 26 17  1  0
 27 28  2  0
 27 29  1  0
M  END
$$$$
