LYM.pdb
     RDKit          3D

 29 29  0  0  1  0  0  0  0  0999 V2000
   13.0903  -19.9428    3.8421 C   0  0  0  0  0  0  0  0  0  0  0  0
   14.2108  -20.9530    3.6315 C   0  0  2  0  0  0  0  0  0  0  0  0
   13.8863  -22.2964    4.2140 C   0  0  0  0  0  0  0  0  0  0  0  0
   15.4943  -20.3819    4.2160 C   0  0  0  0  0  0  0  0  0  0  0  0
   15.9228  -19.2404    3.2981 C   0  0  2  0  0  0  0  0  0  0  0  0
   16.2074  -19.8178    1.9926 N   0  0  0  0  0  0  0  0  0  0  0  0
   17.0824  -18.5118    3.8235 C   0  0  0  0  0  0  0  0  0  0  0  0
   18.2235  -19.0407    3.6643 O   0  0  0  0  0  0  0  0  0  0  0  0
   21.3367  -11.2419    6.8344 O   0  0  0  0  0  0  0  0  0  0  0  0
   20.4665  -12.2164    6.3782 C   0  0  0  0  0  0  0  0  0  0  0  0
   19.3560  -11.8506    5.6487 C   0  0  0  0  0  0  0  0  0  0  0  0
   18.4489  -12.7745    5.1649 C   0  0  0  0  0  0  0  0  0  0  0  0
   18.6267  -14.1186    5.3993 C   0  0  0  0  0  0  0  0  0  0  0  0
   17.6770  -15.0963    4.8891 C   0  0  0  0  0  0  0  0  0  0  0  0
   18.0807  -16.5261    4.9434 C   0  0  2  0  0  0  0  0  0  0  0  0
   16.8975  -17.2756    4.4737 N   0  0  0  0  0  0  0  0  0  0  0  0
   18.4242  -17.0607    6.2737 C   0  0  0  0  0  0  0  0  0  0  0  0
   17.4924  -17.3678    7.1001 O   0  0  0  0  0  0  0  0  0  0  0  0
   19.7421  -14.4858    6.1321 C   0  0  0  0  0  0  0  0  0  0  0  0
   20.6446  -13.5646    6.6133 C   0  0  0  0  0  0  0  0  0  0  0  0
   22.3849  -22.0237   10.6149 C   0  0  0  0  0  0  0  0  0  0  0  0
   22.2299  -21.2358    8.9787 S   0  0  0  0  0  0  0  0  0  0  0  0
   21.1078  -19.8097    9.2018 C   0  0  0  0  0  0  0  0  0  0  0  0
   20.8970  -19.0789    7.9212 C   0  0  0  0  0  0  0  0  0  0  0  0
   19.9532  -17.8917    8.0966 C   0  0  2  0  0  0  0  0  0  0  0  0
   19.7330  -17.2910    6.7685 N   0  0  0  0  0  0  0  0  0  0  0  0
   20.4207  -16.9170    9.0913 C   0  0  0  0  0  0  0  0  0  0  0  0
   21.2496  -16.0419    8.7396 O   0  0  0  0  0  0  0  0  0  0  0  0
   20.0232  -16.8689   10.4150 O   0  0  0  0  0  0  0  0  0  0  0  0
  2  4  1  0
  2  1  1  1
  3  2  1  0
  5  6  1  6
  5  4  1  0
  7  5  1  0
  7  8  2  0
  9 10  1  0
 10 20  2  0
 10 11  1  0
 11 12  2  0
 12 13  1  0
 13 14  1  0
 15 14  1  1
 16 15  1  0
 16  7  1  0
 17 15  1  0
 17 18  2  0
 19 13  2  0
 20 19  1  0
 22 21  1  0
 22 23  1  0
 23 24  1  0
 25 24  1  6
 25 27  1  0
 26 25  1  0
 26 17  1  0
 27 28  2  0
 27 29  1  0
M  END
$$$$
