LYM.pdb
     RDKit          3D

 29 29  0  0  1  0  0  0  0  0999 V2000
   28.7409  -32.0329  -19.0665 C   0  0  0  0  0  0  0  0  0  0  0  0
   28.5590  -31.7594  -17.5790 C   0  0  2  0  0  0  0  0  0  0  0  0
   29.7892  -31.1754  -16.9506 C   0  0  0  0  0  0  0  0  0  0  0  0
   28.1388  -33.0527  -16.8964 C   0  0  0  0  0  0  0  0  0  0  0  0
   27.6627  -32.6738  -15.4968 C   0  0  2  0  0  0  0  0  0  0  0  0
   28.8480  -32.4536  -14.6810 N   0  0  0  0  0  0  0  0  0  0  0  0
   26.7941  -33.6996  -14.9098 C   0  0  0  0  0  0  0  0  0  0  0  0
   25.7851  -34.0644  -15.5852 O   0  0  0  0  0  0  0  0  0  0  0  0
   25.0637  -41.6491  -12.0847 O   0  0  0  0  0  0  0  0  0  0  0  0
   25.5663  -40.4106  -12.4430 C   0  0  0  0  0  0  0  0  0  0  0  0
   25.1214  -39.8029  -13.5971 C   0  0  0  0  0  0  0  0  0  0  0  0
   25.5834  -38.5675  -14.0104 C   0  0  0  0  0  0  0  0  0  0  0  0
   26.5224  -37.8878  -13.2691 C   0  0  0  0  0  0  0  0  0  0  0  0
   27.0097  -36.5849  -13.6972 C   0  0  0  0  0  0  0  0  0  0  0  0
   26.3226  -35.3885  -13.1436 C   0  0  2  0  0  0  0  0  0  0  0  0
   27.0998  -34.2358  -13.6432 N   0  0  0  0  0  0  0  0  0  0  0  0
   26.2864  -35.2741  -11.6742 C   0  0  0  0  0  0  0  0  0  0  0  0
   27.3711  -35.0671  -11.0215 O   0  0  0  0  0  0  0  0  0  0  0  0
   26.9692  -38.4984  -12.1100 C   0  0  0  0  0  0  0  0  0  0  0  0
   26.5081  -39.7287  -11.6997 C   0  0  0  0  0  0  0  0  0  0  0  0
   27.5204  -32.8257   -6.9435 C   0  0  0  0  0  0  0  0  0  0  0  0
   25.8443  -32.2307   -7.3421 S   0  0  0  0  0  0  0  0  0  0  0  0
   25.4314  -32.9255   -8.9821 C   0  0  0  0  0  0  0  0  0  0  0  0
   24.5512  -34.1207   -8.8596 C   0  0  0  0  0  0  0  0  0  0  0  0
   25.2328  -35.3809   -9.3872 C   0  0  2  0  0  0  0  0  0  0  0  0
   25.1306  -35.3664  -10.8578 N   0  0  0  0  0  0  0  0  0  0  0  0
   24.7106  -36.6187   -8.7930 C   0  0  0  0  0  0  0  0  0  0  0  0
   25.0920  -36.9471   -7.6427 O   0  0  0  0  0  0  0  0  0  0  0  0
   23.8128  -37.4808   -9.3959 O   0  0  0  0  0  0  0  0  0  0  0  0
  2  4  1  0
  2  1  1  6
  3  2  1  0
  5  6  1  1
  5  4  1  0
  7  5  1  0
  7  8  2  0
  9 10  1  0
 10 20  2  0
 10 11  1  0
 11 12  2  0
 12 13  1  0
 13 14  1  0
 15 14  1  1
 16 15  1  0
 16  7  1  0
 17 15  1  0
 17 18  2  0
 19 13  2  0
 20 19  1  0
 22 21  1  0
 22 23  1  0
 23 24  1  0
 25 24  1  1
 25 27  1  0
 26 25  1  0
 26 17  1  0
 27 28  2  0
 27 29  1  0
M  END
$$$$
