LYM.pdb
     RDKit          3D

 29 29  0  0  1  0  0  0  0  0999 V2000
   29.4397  -18.4355  -16.2610 C   0  0  0  0  0  0  0  0  0  0  0  0
   28.0032  -18.2149  -16.7173 C   0  0  2  0  0  0  0  0  0  0  0  0
   27.8510  -16.9750  -17.5472 C   0  0  0  0  0  0  0  0  0  0  0  0
   27.1043  -18.1840  -15.4901 C   0  0  0  0  0  0  0  0  0  0  0  0
   27.6077  -19.2773  -14.5516 C   0  0  2  0  0  0  0  0  0  0  0  0
   27.4610  -20.5471  -15.2479 N   0  0  0  0  0  0  0  0  0  0  0  0
   26.8897  -19.2841  -13.2726 C   0  0  0  0  0  0  0  0  0  0  0  0
   26.6598  -18.1626  -12.7278 O   0  0  0  0  0  0  0  0  0  0  0  0
   20.1851  -19.2019  -14.8694 O   0  0  0  0  0  0  0  0  0  0  0  0
   21.2520  -19.7524  -14.1812 C   0  0  0  0  0  0  0  0  0  0  0  0
   21.2765  -19.6963  -12.8045 C   0  0  0  0  0  0  0  0  0  0  0  0
   22.3123  -20.2268  -12.0588 C   0  0  0  0  0  0  0  0  0  0  0  0
   23.3764  -20.8418  -12.6773 C   0  0  0  0  0  0  0  0  0  0  0  0
   24.4681  -21.4057  -11.8972 C   0  0  0  0  0  0  0  0  0  0  0  0
   25.5833  -20.4927  -11.5329 C   0  0  2  0  0  0  0  0  0  0  0  0
   26.4869  -20.5075  -12.7016 N   0  0  0  0  0  0  0  0  0  0  0  0
   26.3925  -20.8798  -10.3629 C   0  0  0  0  0  0  0  0  0  0  0  0
   26.9685  -22.0255  -10.3339 O   0  0  0  0  0  0  0  0  0  0  0  0
   23.3517  -20.8981  -14.0602 C   0  0  0  0  0  0  0  0  0  0  0  0
   22.3194  -20.3693  -14.8015 C   0  0  0  0  0  0  0  0  0  0  0  0
   29.8140  -18.5231   -5.5744 C   0  0  0  0  0  0  0  0  0  0  0  0
   28.4966  -19.1549   -4.4847 S   0  0  0  0  0  0  0  0  0  0  0  0
   27.4159  -20.1897   -5.5355 C   0  0  0  0  0  0  0  0  0  0  0  0
   27.4590  -19.7498   -6.9578 C   0  0  0  0  0  0  0  0  0  0  0  0
   26.6738  -20.6937   -7.8653 C   0  0  2  0  0  0  0  0  0  0  0  0
   26.6232  -20.0888   -9.2088 N   0  0  0  0  0  0  0  0  0  0  0  0
   25.3429  -21.0319   -7.3433 C   0  0  0  0  0  0  0  0  0  0  0  0
   25.2440  -21.9284   -6.4699 O   0  0  0  0  0  0  0  0  0  0  0  0
   24.1552  -20.4398   -7.7321 O   0  0  0  0  0  0  0  0  0  0  0  0
  2  4  1  0
  2  1  1  1
  3  2  1  0
  5  6  1  6
  5  4  1  0
  7  5  1  0
  7  8  2  0
  9 10  1  0
 10 20  2  0
 10 11  1  0
 11 12  2  0
 12 13  1  0
 13 14  1  0
 15 14  1  6
 16 15  1  0
 16  7  1  0
 17 15  1  0
 17 18  2  0
 19 13  2  0
 20 19  1  0
 22 21  1  0
 22 23  1  0
 23 24  1  0
 25 24  1  1
 25 27  1  0
 26 25  1  0
 26 17  1  0
 27 28  2  0
 27 29  1  0
M  END
$$$$
