LYM.pdb
     RDKit          3D

 29 29  0  0  1  0  0  0  0  0999 V2000
   19.3375  -21.4222  -18.5220 C   0  0  0  0  0  0  0  0  0  0  0  0
   19.9315  -22.8134  -18.7015 C   0  0  2  0  0  0  0  0  0  0  0  0
   19.2359  -23.5980  -19.7738 C   0  0  0  0  0  0  0  0  0  0  0  0
   19.8915  -23.5339  -17.3619 C   0  0  0  0  0  0  0  0  0  0  0  0
   20.5579  -22.6086  -16.3476 C   0  0  2  0  0  0  0  0  0  0  0  0
   21.9947  -22.6886  -16.5669 N   0  0  0  0  0  0  0  0  0  0  0  0
   20.2089  -22.9568  -14.9662 C   0  0  0  0  0  0  0  0  0  0  0  0
   20.7565  -23.9865  -14.4690 O   0  0  0  0  0  0  0  0  0  0  0  0
   24.8612  -20.4822  -10.5515 O   0  0  0  0  0  0  0  0  0  0  0  0
   23.5517  -20.6148  -10.9786 C   0  0  0  0  0  0  0  0  0  0  0  0
   22.6540  -21.3261  -10.2122 C   0  0  0  0  0  0  0  0  0  0  0  0
   21.3331  -21.4954  -10.5827 C   0  0  0  0  0  0  0  0  0  0  0  0
   20.8590  -20.9486  -11.7529 C   0  0  0  0  0  0  0  0  0  0  0  0
   19.4683  -21.1202  -12.1462 C   0  0  0  0  0  0  0  0  0  0  0  0
   19.1036  -22.4011  -12.8066 C   0  0  2  0  0  0  0  0  0  0  0  0
   19.2973  -22.1557  -14.2505 N   0  0  0  0  0  0  0  0  0  0  0  0
   17.7116  -22.8553  -12.6339 C   0  0  0  0  0  0  0  0  0  0  0  0
   16.7587  -22.2398  -13.2327 O   0  0  0  0  0  0  0  0  0  0  0  0
   21.7609  -20.2342  -12.5226 C   0  0  0  0  0  0  0  0  0  0  0  0
   23.0760  -20.0665  -12.1523 C   0  0  0  0  0  0  0  0  0  0  0  0
   12.5127  -28.4560  -10.7621 C   0  0  0  0  0  0  0  0  0  0  0  0
   14.2804  -28.0115  -10.7480 S   0  0  0  0  0  0  0  0  0  0  0  0
   14.3665  -26.2419  -11.1998 C   0  0  0  0  0  0  0  0  0  0  0  0
   15.7773  -25.7841  -11.3357 C   0  0  0  0  0  0  0  0  0  0  0  0
   15.8579  -24.3176  -11.7524 C   0  0  2  0  0  0  0  0  0  0  0  0
   17.2834  -23.9533  -11.8454 N   0  0  0  0  0  0  0  0  0  0  0  0
   15.0974  -23.4189  -10.8738 C   0  0  0  0  0  0  0  0  0  0  0  0
   15.6220  -23.0335   -9.8001 O   0  0  0  0  0  0  0  0  0  0  0  0
   13.8235  -22.9423  -11.1237 O   0  0  0  0  0  0  0  0  0  0  0  0
  2  4  1  0
  2  1  1  1
  3  2  1  0
  5  6  1  1
  5  4  1  0
  7  5  1  0
  7  8  2  0
  9 10  1  0
 10 20  2  0
 10 11  1  0
 11 12  2  0
 12 13  1  0
 13 14  1  0
 15 14  1  1
 16 15  1  0
 16  7  1  0
 17 15  1  0
 17 18  2  0
 19 13  2  0
 20 19  1  0
 22 21  1  0
 22 23  1  0
 23 24  1  0
 25 24  1  1
 25 27  1  0
 26 25  1  0
 26 17  1  0
 27 28  2  0
 27 29  1  0
M  END
$$$$
