LYM.pdb
     RDKit          3D

 29 29  0  0  1  0  0  0  0  0999 V2000
   28.8397  -18.9049  -16.2292 C   0  0  0  0  0  0  0  0  0  0  0  0
   28.0288  -17.6156  -16.2579 C   0  0  2  0  0  0  0  0  0  0  0  0
   28.8960  -16.3973  -16.3728 C   0  0  0  0  0  0  0  0  0  0  0  0
   27.1523  -17.5667  -15.0151 C   0  0  0  0  0  0  0  0  0  0  0  0
   26.4300  -18.9088  -14.9363 C   0  0  2  0  0  0  0  0  0  0  0  0
   25.5316  -18.9850  -16.0791 N   0  0  0  0  0  0  0  0  0  0  0  0
   25.7021  -19.0735  -13.6736 C   0  0  0  0  0  0  0  0  0  0  0  0
   24.9562  -18.1179  -13.3024 O   0  0  0  0  0  0  0  0  0  0  0  0
   19.3904  -20.3065  -14.8843 O   0  0  0  0  0  0  0  0  0  0  0  0
   20.5253  -20.6054  -14.1509 C   0  0  0  0  0  0  0  0  0  0  0  0
   21.6434  -21.0907  -14.7938 C   0  0  0  0  0  0  0  0  0  0  0  0
   22.8074  -21.4084  -14.1195 C   0  0  0  0  0  0  0  0  0  0  0  0
   22.8921  -21.2479  -12.7556 C   0  0  0  0  0  0  0  0  0  0  0  0
   24.1163  -21.5770  -12.0407 C   0  0  0  0  0  0  0  0  0  0  0  0
   25.0332  -20.4535  -11.7134 C   0  0  2  0  0  0  0  0  0  0  0  0
   25.8504  -20.2603  -12.9289 N   0  0  0  0  0  0  0  0  0  0  0  0
   25.9722  -20.6764  -10.5988 C   0  0  0  0  0  0  0  0  0  0  0  0
   26.8228  -21.6347  -10.6606 O   0  0  0  0  0  0  0  0  0  0  0  0
   21.7688  -20.7605  -12.1100 C   0  0  0  0  0  0  0  0  0  0  0  0
   20.6103  -20.4446  -12.7829 C   0  0  0  0  0  0  0  0  0  0  0  0
   28.7306  -19.3972   -3.3438 C   0  0  0  0  0  0  0  0  0  0  0  0
   28.2600  -18.6192   -4.9235 S   0  0  0  0  0  0  0  0  0  0  0  0
   27.4971  -19.9370   -5.9355 C   0  0  0  0  0  0  0  0  0  0  0  0
   27.1499  -19.4436   -7.2973 C   0  0  0  0  0  0  0  0  0  0  0  0
   26.4657  -20.5233   -8.1321 C   0  0  2  0  0  0  0  0  0  0  0  0
   26.0506  -19.9114   -9.4075 N   0  0  0  0  0  0  0  0  0  0  0  0
   25.3574  -21.1868   -7.4324 C   0  0  0  0  0  0  0  0  0  0  0  0
   24.1793  -20.8490   -7.7051 O   0  0  0  0  0  0  0  0  0  0  0  0
   25.4913  -22.1765   -6.4759 O   0  0  0  0  0  0  0  0  0  0  0  0
  2  4  1  0
  2  1  1  1
  3  2  1  0
  5  6  1  6
  5  4  1  0
  7  5  1  0
  7  8  2  0
  9 10  1  0
 10 20  2  0
 10 11  1  0
 11 12  2  0
 12 13  1  0
 13 14  1  0
 15 14  1  6
 16 15  1  0
 16  7  1  0
 17 15  1  0
 17 18  2  0
 19 13  2  0
 20 19  1  0
 22 21  1  0
 22 23  1  0
 23 24  1  0
 25 24  1  1
 25 27  1  0
 26 25  1  0
 26 17  1  0
 27 28  2  0
 27 29  1  0
M  END
$$$$
