LYM.pdb
     RDKit          3D

 29 29  0  0  1  0  0  0  0  0999 V2000
   28.9648  -20.2760  -16.7063 C   0  0  0  0  0  0  0  0  0  0  0  0
   27.5132  -20.1263  -17.1433 C   0  0  2  0  0  0  0  0  0  0  0  0
   27.3558  -19.1655  -18.2841 C   0  0  0  0  0  0  0  0  0  0  0  0
   26.6849  -19.7079  -15.9374 C   0  0  0  0  0  0  0  0  0  0  0  0
   27.1134  -20.6054  -14.7798 C   0  0  2  0  0  0  0  0  0  0  0  0
   26.6978  -21.9617  -15.1064 N   0  0  0  0  0  0  0  0  0  0  0  0
   26.5471  -20.1676  -13.4996 C   0  0  0  0  0  0  0  0  0  0  0  0
   26.6203  -18.9326  -13.2224 O   0  0  0  0  0  0  0  0  0  0  0  0
   20.4651  -18.5445  -15.5010 O   0  0  0  0  0  0  0  0  0  0  0  0
   21.2836  -19.2273  -14.6184 C   0  0  0  0  0  0  0  0  0  0  0  0
   21.4564  -18.7464  -13.3386 C   0  0  0  0  0  0  0  0  0  0  0  0
   22.2599  -19.3809  -12.4100 C   0  0  0  0  0  0  0  0  0  0  0  0
   22.9284  -20.5379  -12.7375 C   0  0  0  0  0  0  0  0  0  0  0  0
   23.7728  -21.2126  -11.7627 C   0  0  0  0  0  0  0  0  0  0  0  0
   25.1190  -20.6327  -11.5151 C   0  0  2  0  0  0  0  0  0  0  0  0
   25.9532  -21.1100  -12.6370 N   0  0  0  0  0  0  0  0  0  0  0  0
   25.7948  -21.0501  -10.2730 C   0  0  0  0  0  0  0  0  0  0  0  0
   26.0802  -22.2863  -10.0842 O   0  0  0  0  0  0  0  0  0  0  0  0
   22.7548  -21.0208  -14.0231 C   0  0  0  0  0  0  0  0  0  0  0  0
   21.9543  -20.3879  -14.9468 C   0  0  0  0  0  0  0  0  0  0  0  0
   30.0560  -19.2538   -5.3438 C   0  0  0  0  0  0  0  0  0  0  0  0
   28.3800  -18.9262   -4.7069 S   0  0  0  0  0  0  0  0  0  0  0  0
   27.2602  -20.0560   -5.6084 C   0  0  0  0  0  0  0  0  0  0  0  0
   27.1685  -19.6934   -7.0501 C   0  0  0  0  0  0  0  0  0  0  0  0
   26.3456  -20.7104   -7.8373 C   0  0  2  0  0  0  0  0  0  0  0  0
   26.1903  -20.1979   -9.2108 N   0  0  0  0  0  0  0  0  0  0  0  0
   25.0613  -21.0373   -7.2036 C   0  0  0  0  0  0  0  0  0  0  0  0
   24.0125  -20.5132   -7.6530 O   0  0  0  0  0  0  0  0  0  0  0  0
   24.8918  -21.8922   -6.1299 O   0  0  0  0  0  0  0  0  0  0  0  0
  2  4  1  0
  2  1  1  1
  3  2  1  0
  5  6  1  6
  5  4  1  0
  7  5  1  0
  7  8  2  0
  9 10  1  0
 10 20  2  0
 10 11  1  0
 11 12  2  0
 12 13  1  0
 13 14  1  0
 15 14  1  6
 16 15  1  0
 16  7  1  0
 17 15  1  0
 17 18  2  0
 19 13  2  0
 20 19  1  0
 22 21  1  0
 22 23  1  0
 23 24  1  0
 25 24  1  1
 25 27  1  0
 26 25  1  0
 26 17  1  0
 27 28  2  0
 27 29  1  0
M  END
$$$$
