LTW.pdb
     RDKit          3D

 30 31  0  0  1  0  0  0  0  0999 V2000
   27.2254  -14.4765  -15.9541 C   0  0  0  0  0  0  0  0  0  0  0  0
   27.1245  -15.9652  -16.1096 C   0  0  1  0  0  0  0  0  0  0  0  0
   28.4739  -16.5492  -16.3787 C   0  0  0  0  0  0  0  0  0  0  0  0
   26.3809  -16.6373  -15.0077 C   0  0  0  0  0  0  0  0  0  0  0  0
   26.3774  -18.1446  -15.1263 C   0  0  2  0  0  0  0  0  0  0  0  0
   25.7935  -18.4796  -16.4106 N   0  0  0  0  0  0  0  0  0  0  0  0
   25.6225  -18.7760  -14.0130 C   0  0  0  0  0  0  0  0  0  0  0  0
   24.5473  -18.2276  -13.5903 O   0  0  0  0  0  0  0  0  0  0  0  0
   24.0017  -21.8040  -14.1731 C   0  0  0  0  0  0  0  0  0  0  0  0
   24.8224  -22.0075  -12.9211 C   0  0  1  0  0  0  0  0  0  0  0  0
   26.0215  -22.6088  -13.3450 O   0  0  0  0  0  0  0  0  0  0  0  0
   25.2077  -20.6484  -12.3511 C   0  0  2  0  0  0  0  0  0  0  0  0
   26.0153  -19.9582  -13.3784 N   0  0  0  0  0  0  0  0  0  0  0  0
   25.9440  -20.6984  -11.0899 C   0  0  0  0  0  0  0  0  0  0  0  0
   27.2254  -20.5550  -11.1445 O   0  0  0  0  0  0  0  0  0  0  0  0
   25.4408  -20.8822   -9.7894 N   0  0  0  0  0  0  0  0  0  0  0  0
   26.2812  -21.0801   -8.6017 C   0  0  1  0  0  0  0  0  0  0  0  0
   27.3108  -20.0186   -8.4944 C   0  0  0  0  0  0  0  0  0  0  0  0
   28.3194  -20.2066   -7.4564 C   0  0  0  0  0  0  0  0  0  0  0  0
   29.4228  -21.0293   -7.5489 C   0  0  0  0  0  0  0  0  0  0  0  0
   30.1069  -20.9758   -6.3869 N   0  0  0  0  0  0  0  0  0  0  0  0
   29.4872  -20.1364   -5.5207 C   0  0  0  0  0  0  0  0  0  0  0  0
   29.8156  -19.7565   -4.2436 C   0  0  0  0  0  0  0  0  0  0  0  0
   29.0039  -18.8479   -3.5755 C   0  0  0  0  0  0  0  0  0  0  0  0
   27.8925  -18.3612   -4.2287 C   0  0  0  0  0  0  0  0  0  0  0  0
   27.5648  -18.7413   -5.5032 C   0  0  0  0  0  0  0  0  0  0  0  0
   28.3632  -19.6551   -6.1996 C   0  0  0  0  0  0  0  0  0  0  0  0
   25.5413  -21.3144   -7.3849 C   0  0  0  0  0  0  0  0  0  0  0  0
   26.1174  -21.9613   -6.2778 O   0  0  0  0  0  0  0  0  0  0  0  0
   24.3540  -20.9626   -7.2357 O   0  0  0  0  0  0  0  0  0  0  0  0
  2  1  1  1
  3  2  1  0
  4  2  1  0
  5  4  1  0
  5  6  1  6
  7  8  2  0
  7  5  1  0
 10  9  1  6
 10 12  1  0
 11 10  1  0
 12 13  1  6
 13  7  1  0
 14 12  1  0
 14 16  1  0
 15 14  2  0
 17 16  1  0
 17 28  1  0
 18 19  1  0
 17 18  1  1
 19 27  1  0
 20 19  2  0
 20 21  1  0
 21 22  1  0
 22 23  1  0
 23 24  2  0
 25 24  1  0
 26 25  2  0
 27 22  2  0
 27 26  1  0
 28 29  1  0
 30 28  2  0
M  END
$$$$
