LTW.pdb
     RDKit          3D

 30 31  0  0  1  0  0  0  0  0999 V2000
   26.3325  -20.3817  -20.2131 C   0  0  0  0  0  0  0  0  0  0  0  0
   26.6848  -21.1674  -18.9846 C   0  0  1  0  0  0  0  0  0  0  0  0
   27.3444  -22.4536  -19.3655 C   0  0  0  0  0  0  0  0  0  0  0  0
   27.4297  -20.3830  -17.9604 C   0  0  0  0  0  0  0  0  0  0  0  0
   27.7690  -21.1882  -16.7265 C   0  0  2  0  0  0  0  0  0  0  0  0
   26.9882  -22.4092  -16.7743 N   0  0  0  0  0  0  0  0  0  0  0  0
   27.4911  -20.4223  -15.4840 C   0  0  0  0  0  0  0  0  0  0  0  0
   27.6101  -19.1490  -15.4889 O   0  0  0  0  0  0  0  0  0  0  0  0
   25.8651  -18.7829  -14.8487 C   0  0  0  0  0  0  0  0  0  0  0  0
   25.6301  -19.2854  -13.4435 C   0  0  1  0  0  0  0  0  0  0  0  0
   24.4562  -20.0583  -13.5066 O   0  0  0  0  0  0  0  0  0  0  0  0
   26.7501  -20.2452  -13.0633 C   0  0  2  0  0  0  0  0  0  0  0  0
   27.0987  -21.0111  -14.2782 N   0  0  0  0  0  0  0  0  0  0  0  0
   26.4283  -21.1622  -11.9721 C   0  0  0  0  0  0  0  0  0  0  0  0
   25.4387  -21.9715  -12.1491 O   0  0  0  0  0  0  0  0  0  0  0  0
   27.0629  -21.2942  -10.7239 N   0  0  0  0  0  0  0  0  0  0  0  0
   26.4010  -21.0584   -9.4346 C   0  0  1  0  0  0  0  0  0  0  0  0
   27.1377  -20.0514   -8.6335 C   0  0  0  0  0  0  0  0  0  0  0  0
   26.9378  -20.1105   -7.1891 C   0  0  0  0  0  0  0  0  0  0  0  0
   25.8003  -20.5640   -6.5540 C   0  0  0  0  0  0  0  0  0  0  0  0
   25.9637  -20.4368   -5.2205 N   0  0  0  0  0  0  0  0  0  0  0  0
   27.1834  -19.9099   -4.9496 C   0  0  0  0  0  0  0  0  0  0  0  0
   27.7937  -19.6179   -3.7556 C   0  0  0  0  0  0  0  0  0  0  0  0
   29.0812  -19.0952   -3.7610 C   0  0  0  0  0  0  0  0  0  0  0  0
   29.6979  -18.8897   -4.9760 C   0  0  0  0  0  0  0  0  0  0  0  0
   29.0880  -19.1808   -6.1675 C   0  0  0  0  0  0  0  0  0  0  0  0
   27.7919  -19.7071   -6.1924 C   0  0  0  0  0  0  0  0  0  0  0  0
   24.9817  -20.8155   -9.5330 C   0  0  0  0  0  0  0  0  0  0  0  0
   24.0416  -21.6258   -8.8730 O   0  0  0  0  0  0  0  0  0  0  0  0
   24.4994  -19.8806  -10.2031 O   0  0  0  0  0  0  0  0  0  0  0  0
  2  1  1  6
  3  2  1  0
  4  2  1  0
  5  4  1  0
  5  6  1  1
  7  8  2  0
  7  5  1  0
 10  9  1  6
 10 12  1  0
 11 10  1  0
 12 13  1  6
 13  7  1  0
 14 12  1  0
 14 16  1  0
 15 14  2  0
 17 16  1  0
 17 28  1  0
 18 19  1  0
 17 18  1  6
 19 27  1  0
 20 19  2  0
 20 21  1  0
 21 22  1  0
 22 23  1  0
 23 24  2  0
 25 24  1  0
 26 25  2  0
 27 22  2  0
 27 26  1  0
 28 29  1  0
 30 28  2  0
M  END
$$$$
