LTW.pdb
     RDKit          3D

 30 31  0  0  1  0  0  0  0  0999 V2000
   18.2670  -14.7912  -16.8085 C   0  0  0  0  0  0  0  0  0  0  0  0
   17.8794  -13.3447  -16.8973 C   0  0  1  0  0  0  0  0  0  0  0  0
   16.4779  -13.1547  -16.4135 C   0  0  0  0  0  0  0  0  0  0  0  0
   18.8666  -12.4171  -16.2775 C   0  0  0  0  0  0  0  0  0  0  0  0
   18.4353  -10.9689  -16.3300 C   0  0  2  0  0  0  0  0  0  0  0  0
   18.3119  -10.6011  -17.7272 N   0  0  0  0  0  0  0  0  0  0  0  0
   19.4030  -10.0874  -15.6269 C   0  0  0  0  0  0  0  0  0  0  0  0
   19.7229  -10.3431  -14.4154 O   0  0  0  0  0  0  0  0  0  0  0  0
   22.8096   -9.4761  -16.5737 C   0  0  0  0  0  0  0  0  0  0  0  0
   22.2390   -8.0835  -16.4416 C   0  0  1  0  0  0  0  0  0  0  0  0
   21.7659   -7.7425  -17.7219 O   0  0  0  0  0  0  0  0  0  0  0  0
   21.0154   -8.1298  -15.5356 C   0  0  2  0  0  0  0  0  0  0  0  0
   20.0041   -8.9689  -16.2119 N   0  0  0  0  0  0  0  0  0  0  0  0
   20.4429   -6.8253  -15.2104 C   0  0  0  0  0  0  0  0  0  0  0  0
   19.3124   -6.5211  -15.7534 O   0  0  0  0  0  0  0  0  0  0  0  0
   20.9611   -5.8285  -14.3643 N   0  0  0  0  0  0  0  0  0  0  0  0
   20.3041   -4.5400  -14.1111 C   0  0  1  0  0  0  0  0  0  0  0  0
   18.9184   -4.7354  -13.6210 C   0  0  0  0  0  0  0  0  0  0  0  0
   18.7855   -5.3325  -12.2960 C   0  0  0  0  0  0  0  0  0  0  0  0
   19.1896   -4.7541  -11.1106 C   0  0  0  0  0  0  0  0  0  0  0  0
   18.9408   -5.6114  -10.0985 N   0  0  0  0  0  0  0  0  0  0  0  0
   18.3793   -6.7481  -10.5794 C   0  0  0  0  0  0  0  0  0  0  0  0
   17.9447   -7.8800   -9.9365 C   0  0  0  0  0  0  0  0  0  0  0  0
   17.3770   -8.9076  -10.6800 C   0  0  0  0  0  0  0  0  0  0  0  0
   17.2728   -8.7464  -12.0445 C   0  0  0  0  0  0  0  0  0  0  0  0
   17.7075   -7.6167  -12.6857 C   0  0  0  0  0  0  0  0  0  0  0  0
   18.2838   -6.5666  -11.9628 C   0  0  0  0  0  0  0  0  0  0  0  0
   21.0882   -3.6200  -13.3226 C   0  0  0  0  0  0  0  0  0  0  0  0
   20.7021   -2.2806  -13.1414 O   0  0  0  0  0  0  0  0  0  0  0  0
   22.1495   -3.9481  -12.7554 O   0  0  0  0  0  0  0  0  0  0  0  0
  2  1  1  1
  3  2  1  0
  4  2  1  0
  5  4  1  0
  5  6  1  6
  7  8  2  0
  7  5  1  0
 10  9  1  6
 10 12  1  0
 11 10  1  0
 12 13  1  6
 13  7  1  0
 14 12  1  0
 14 16  1  0
 15 14  2  0
 17 16  1  0
 17 28  1  0
 18 19  1  0
 17 18  1  1
 19 27  1  0
 20 19  2  0
 20 21  1  0
 21 22  1  0
 22 23  1  0
 23 24  2  0
 25 24  1  0
 26 25  2  0
 27 22  2  0
 27 26  1  0
 28 29  1  0
 30 28  2  0
M  END
$$$$
