LTW.pdb
     RDKit          3D

 30 31  0  0  1  0  0  0  0  0999 V2000
   28.0034  -14.7362  -15.6254 C   0  0  0  0  0  0  0  0  0  0  0  0
   27.7050  -16.1682  -15.9584 C   0  0  1  0  0  0  0  0  0  0  0  0
   28.9669  -16.8930  -16.2999 C   0  0  0  0  0  0  0  0  0  0  0  0
   26.8632  -16.8603  -14.9428 C   0  0  0  0  0  0  0  0  0  0  0  0
   26.6235  -18.3183  -15.2638 C   0  0  2  0  0  0  0  0  0  0  0  0
   25.9980  -18.3800  -16.5706 N   0  0  0  0  0  0  0  0  0  0  0  0
   25.7755  -18.9699  -14.2322 C   0  0  0  0  0  0  0  0  0  0  0  0
   24.5571  -18.6057  -14.0963 O   0  0  0  0  0  0  0  0  0  0  0  0
   24.3822  -21.9261  -14.2940 C   0  0  0  0  0  0  0  0  0  0  0  0
   25.0835  -22.0655  -12.9632 C   0  0  1  0  0  0  0  0  0  0  0  0
   26.3375  -22.6345  -13.2510 O   0  0  0  0  0  0  0  0  0  0  0  0
   25.3661  -20.6783  -12.4008 C   0  0  2  0  0  0  0  0  0  0  0  0
   26.2276  -19.9795  -13.3773 N   0  0  0  0  0  0  0  0  0  0  0  0
   25.9971  -20.6674  -11.0829 C   0  0  0  0  0  0  0  0  0  0  0  0
   27.2796  -20.5295  -11.0399 O   0  0  0  0  0  0  0  0  0  0  0  0
   25.3889  -20.7856   -9.8203 N   0  0  0  0  0  0  0  0  0  0  0  0
   26.1289  -20.9183   -8.5590 C   0  0  1  0  0  0  0  0  0  0  0  0
   27.2302  -19.9287   -8.4805 C   0  0  0  0  0  0  0  0  0  0  0  0
   27.5585  -19.4398   -7.1452 C   0  0  0  0  0  0  0  0  0  0  0  0
   26.8588  -18.4765   -6.4485 C   0  0  0  0  0  0  0  0  0  0  0  0
   27.4746  -18.2566   -5.2680 N   0  0  0  0  0  0  0  0  0  0  0  0
   28.5685  -19.0505   -5.1592 C   0  0  0  0  0  0  0  0  0  0  0  0
   29.4841  -19.1889   -4.1463 C   0  0  0  0  0  0  0  0  0  0  0  0
   30.5163  -20.1087   -4.2850 C   0  0  0  0  0  0  0  0  0  0  0  0
   30.5788  -20.8510   -5.4443 C   0  0  0  0  0  0  0  0  0  0  0  0
   29.6650  -20.7119   -6.4552 C   0  0  0  0  0  0  0  0  0  0  0  0
   28.6159  -19.7931   -6.3434 C   0  0  0  0  0  0  0  0  0  0  0  0
   25.2924  -20.9696   -7.3841 C   0  0  0  0  0  0  0  0  0  0  0  0
   23.9132  -20.7038   -7.4415 O   0  0  0  0  0  0  0  0  0  0  0  0
   25.7323  -21.2502   -6.2511 O   0  0  0  0  0  0  0  0  0  0  0  0
  2  1  1  1
  3  2  1  0
  4  2  1  0
  5  4  1  0
  5  6  1  6
  7  8  2  0
  7  5  1  0
 10  9  1  6
 10 12  1  0
 11 10  1  0
 12 13  1  6
 13  7  1  0
 14 12  1  0
 14 16  1  0
 15 14  2  0
 17 16  1  0
 17 28  1  0
 18 19  1  0
 17 18  1  1
 19 27  1  0
 20 19  2  0
 20 21  1  0
 21 22  1  0
 22 23  1  0
 23 24  2  0
 25 24  1  0
 26 25  2  0
 27 22  2  0
 27 26  1  0
 28 29  1  0
 30 28  2  0
M  END
$$$$
