LTW.pdb
     RDKit          3D

 30 31  0  0  1  0  0  0  0  0999 V2000
   26.4198  -19.0555   -7.0771 C   0  0  0  0  0  0  0  0  0  0  0  0
   26.0566  -20.1177   -8.0722 C   0  0  1  0  0  0  0  0  0  0  0  0
   24.5710  -20.2600   -8.1570 C   0  0  0  0  0  0  0  0  0  0  0  0
   26.7278  -19.9613   -9.3929 C   0  0  0  0  0  0  0  0  0  0  0  0
   26.2753  -20.9807  -10.4137 C   0  0  2  0  0  0  0  0  0  0  0  0
   27.2095  -22.0888  -10.3669 N   0  0  0  0  0  0  0  0  0  0  0  0
   26.2087  -20.3928  -11.7767 C   0  0  0  0  0  0  0  0  0  0  0  0
   27.1137  -19.5715  -12.1535 O   0  0  0  0  0  0  0  0  0  0  0  0
   26.9941  -21.8683  -14.5539 C   0  0  0  0  0  0  0  0  0  0  0  0
   25.6164  -21.4053  -14.9662 C   0  0  1  0  0  0  0  0  0  0  0  0
   24.7436  -22.4544  -14.6242 O   0  0  0  0  0  0  0  0  0  0  0  0
   25.2106  -20.2174  -14.1033 C   0  0  2  0  0  0  0  0  0  0  0  0
   25.1997  -20.6816  -12.7003 N   0  0  0  0  0  0  0  0  0  0  0  0
   23.9180  -19.6262  -14.4420 C   0  0  0  0  0  0  0  0  0  0  0  0
   22.9405  -19.8271  -13.6236 O   0  0  0  0  0  0  0  0  0  0  0  0
   23.5792  -18.8453  -15.5617 N   0  0  0  0  0  0  0  0  0  0  0  0
   22.2190  -18.3787  -15.8590 C   0  0  1  0  0  0  0  0  0  0  0  0
   22.2350  -17.3089  -16.8856 C   0  0  0  0  0  0  0  0  0  0  0  0
   20.9408  -16.7249  -17.2228 C   0  0  0  0  0  0  0  0  0  0  0  0
   20.3281  -15.6881  -16.5501 C   0  0  0  0  0  0  0  0  0  0  0  0
   19.1309  -15.4423  -17.1224 N   0  0  0  0  0  0  0  0  0  0  0  0
   18.9297  -16.2895  -18.1618 C   0  0  0  0  0  0  0  0  0  0  0  0
   17.8816  -16.4048  -19.0402 C   0  0  0  0  0  0  0  0  0  0  0  0
   17.9405  -17.3618  -20.0459 C   0  0  0  0  0  0  0  0  0  0  0  0
   19.0591  -18.1631  -20.1207 C   0  0  0  0  0  0  0  0  0  0  0  0
   20.1046  -18.0480  -19.2432 C   0  0  0  0  0  0  0  0  0  0  0  0
   20.0722  -17.0940  -18.2204 C   0  0  0  0  0  0  0  0  0  0  0  0
   21.2734  -19.4372  -16.1198 C   0  0  0  0  0  0  0  0  0  0  0  0
   19.9643  -19.4068  -15.6086 O   0  0  0  0  0  0  0  0  0  0  0  0
   21.5513  -20.4393  -16.8086 O   0  0  0  0  0  0  0  0  0  0  0  0
  2  1  1  1
  3  2  1  0
  4  2  1  0
  5  4  1  0
  5  6  1  6
  7  8  2  0
  7  5  1  0
 10  9  1  1
 10 12  1  0
 11 10  1  0
 12 13  1  1
 13  7  1  0
 14 12  1  0
 14 16  1  0
 15 14  2  0
 17 16  1  0
 17 28  1  0
 18 19  1  0
 17 18  1  6
 19 27  1  0
 20 19  2  0
 20 21  1  0
 21 22  1  0
 22 23  1  0
 23 24  2  0
 25 24  1  0
 26 25  2  0
 27 22  2  0
 27 26  1  0
 28 29  1  0
 30 28  2  0
M  END
$$$$
