LTW.pdb
     RDKit          3D

 30 31  0  0  1  0  0  0  0  0999 V2000
   30.2085  -27.8606  -19.9250 C   0  0  0  0  0  0  0  0  0  0  0  0
   30.8065  -26.5596  -19.4776 C   0  0  1  0  0  0  0  0  0  0  0  0
   31.3812  -25.8260  -20.6463 C   0  0  0  0  0  0  0  0  0  0  0  0
   29.8965  -25.7371  -18.6323 C   0  0  0  0  0  0  0  0  0  0  0  0
   30.5818  -24.5409  -18.0115 C   0  0  2  0  0  0  0  0  0  0  0  0
   31.7183  -25.0325  -17.2568 N   0  0  0  0  0  0  0  0  0  0  0  0
   29.6532  -23.7724  -17.1426 C   0  0  0  0  0  0  0  0  0  0  0  0
   29.9846  -23.5214  -15.9332 O   0  0  0  0  0  0  0  0  0  0  0  0
   29.7248  -21.6877  -15.7908 C   0  0  0  0  0  0  0  0  0  0  0  0
   28.4237  -21.1904  -16.3758 C   0  0  1  0  0  0  0  0  0  0  0  0
   28.7676  -20.5486  -17.5796 O   0  0  0  0  0  0  0  0  0  0  0  0
   27.5622  -22.3854  -16.7632 C   0  0  2  0  0  0  0  0  0  0  0  0
   28.4101  -23.2920  -17.5651 N   0  0  0  0  0  0  0  0  0  0  0  0
   26.3488  -22.0520  -17.5061 C   0  0  0  0  0  0  0  0  0  0  0  0
   26.4671  -21.8456  -18.7745 O   0  0  0  0  0  0  0  0  0  0  0  0
   25.0342  -21.9237  -17.0228 N   0  0  0  0  0  0  0  0  0  0  0  0
   23.8678  -21.6500  -17.8717 C   0  0  1  0  0  0  0  0  0  0  0  0
   23.8116  -22.5878  -19.0189 C   0  0  0  0  0  0  0  0  0  0  0  0
   23.5300  -23.9823  -18.6934 C   0  0  0  0  0  0  0  0  0  0  0  0
   22.5550  -24.4223  -17.8224 C   0  0  0  0  0  0  0  0  0  0  0  0
   22.6129  -25.7683  -17.7448 N   0  0  0  0  0  0  0  0  0  0  0  0
   23.6027  -26.2380  -18.5439 C   0  0  0  0  0  0  0  0  0  0  0  0
   24.0212  -27.5194  -18.8012 C   0  0  0  0  0  0  0  0  0  0  0  0
   25.0643  -27.7264  -19.6956 C   0  0  0  0  0  0  0  0  0  0  0  0
   25.6409  -26.6266  -20.2928 C   0  0  0  0  0  0  0  0  0  0  0  0
   25.2233  -25.3477  -20.0350 C   0  0  0  0  0  0  0  0  0  0  0  0
   24.1760  -25.1094  -19.1385 C   0  0  0  0  0  0  0  0  0  0  0  0
   22.6256  -21.5221  -17.1483 C   0  0  0  0  0  0  0  0  0  0  0  0
   21.4234  -21.1787  -17.7909 O   0  0  0  0  0  0  0  0  0  0  0  0
   22.5363  -21.7056  -15.9178 O   0  0  0  0  0  0  0  0  0  0  0  0
  2  1  1  6
  3  2  1  0
  4  2  1  0
  5  4  1  0
  5  6  1  1
  7  8  2  0
  7  5  1  0
 10  9  1  6
 10 12  1  0
 11 10  1  0
 12 13  1  6
 13  7  1  0
 14 12  1  0
 14 16  1  0
 15 14  2  0
 17 16  1  0
 17 28  1  0
 18 19  1  0
 17 18  1  6
 19 27  1  0
 20 19  2  0
 20 21  1  0
 21 22  1  0
 22 23  1  0
 23 24  2  0
 25 24  1  0
 26 25  2  0
 27 22  2  0
 27 26  1  0
 28 29  1  0
 30 28  2  0
M  END
$$$$
