LTW.pdb
     RDKit          3D

 30 31  0  0  1  0  0  0  0  0999 V2000
   23.5663  -23.3706  -16.1797 C   0  0  0  0  0  0  0  0  0  0  0  0
   24.9842  -23.8586  -16.2229 C   0  0  1  0  0  0  0  0  0  0  0  0
   25.5749  -23.8523  -14.8498 C   0  0  0  0  0  0  0  0  0  0  0  0
   25.1565  -25.1462  -16.9520 C   0  0  0  0  0  0  0  0  0  0  0  0
   26.5671  -25.6859  -16.8794 C   0  0  2  0  0  0  0  0  0  0  0  0
   27.4261  -24.7575  -17.5887 N   0  0  0  0  0  0  0  0  0  0  0  0
   26.6577  -27.0507  -17.4599 C   0  0  0  0  0  0  0  0  0  0  0  0
   26.4227  -27.2225  -18.7052 O   0  0  0  0  0  0  0  0  0  0  0  0
   29.4853  -29.1886  -17.7628 C   0  0  0  0  0  0  0  0  0  0  0  0
   28.4935  -30.0557  -17.0234 C   0  0  1  0  0  0  0  0  0  0  0  0
   28.7325  -29.8269  -15.6560 O   0  0  0  0  0  0  0  0  0  0  0  0
   27.0843  -29.5471  -17.2987 C   0  0  2  0  0  0  0  0  0  0  0  0
   26.9903  -28.1901  -16.7211 N   0  0  0  0  0  0  0  0  0  0  0  0
   26.0138  -30.3888  -16.7687 C   0  0  0  0  0  0  0  0  0  0  0  0
   25.5333  -30.0797  -15.6115 O   0  0  0  0  0  0  0  0  0  0  0  0
   25.4141  -31.5164  -17.3578 N   0  0  0  0  0  0  0  0  0  0  0  0
   24.4920  -32.4191  -16.6572 C   0  0  1  0  0  0  0  0  0  0  0  0
   23.3788  -32.8369  -17.5432 C   0  0  0  0  0  0  0  0  0  0  0  0
   22.3844  -33.7238  -16.9481 C   0  0  0  0  0  0  0  0  0  0  0  0
   21.3762  -33.3381  -16.0892 C   0  0  0  0  0  0  0  0  0  0  0  0
   20.6771  -34.4306  -15.7166 N   0  0  0  0  0  0  0  0  0  0  0  0
   21.1938  -35.5368  -16.3067 C   0  0  0  0  0  0  0  0  0  0  0  0
   20.8122  -36.8535  -16.2428 C   0  0  0  0  0  0  0  0  0  0  0  0
   21.5146  -37.8005  -16.9780 C   0  0  0  0  0  0  0  0  0  0  0  0
   22.5751  -37.3748  -17.7481 C   0  0  0  0  0  0  0  0  0  0  0  0
   22.9559  -36.0606  -17.8109 C   0  0  0  0  0  0  0  0  0  0  0  0
   22.2677  -35.0856  -17.0808 C   0  0  0  0  0  0  0  0  0  0  0  0
   25.1399  -33.5073  -15.9651 C   0  0  0  0  0  0  0  0  0  0  0  0
   26.4098  -33.9770  -16.3428 O   0  0  0  0  0  0  0  0  0  0  0  0
   24.6220  -34.0976  -14.9960 O   0  0  0  0  0  0  0  0  0  0  0  0
  2  1  1  1
  3  2  1  0
  4  2  1  0
  5  4  1  0
  5  6  1  6
  7  8  2  0
  7  5  1  0
 10  9  1  6
 10 12  1  0
 11 10  1  0
 12 13  1  1
 13  7  1  0
 14 12  1  0
 14 16  1  0
 15 14  2  0
 17 16  1  0
 17 28  1  0
 18 19  1  0
 17 18  1  6
 19 27  1  0
 20 19  2  0
 20 21  1  0
 21 22  1  0
 22 23  1  0
 23 24  2  0
 25 24  1  0
 26 25  2  0
 27 22  2  0
 27 26  1  0
 28 29  1  0
 30 28  2  0
M  END
$$$$
