LTW.pdb
     RDKit          3D

 30 31  0  0  1  0  0  0  0  0999 V2000
   14.3803  -11.2993  -21.6255 C   0  0  0  0  0  0  0  0  0  0  0  0
   15.1448  -11.3302  -20.3350 C   0  0  1  0  0  0  0  0  0  0  0  0
   15.9675  -12.5754  -20.2516 C   0  0  0  0  0  0  0  0  0  0  0  0
   15.9052  -10.0802  -20.0549 C   0  0  0  0  0  0  0  0  0  0  0  0
   16.7151  -10.1506  -18.7801 C   0  0  2  0  0  0  0  0  0  0  0  0
   15.7817  -10.1573  -17.6704 N   0  0  0  0  0  0  0  0  0  0  0  0
   17.6644   -9.0124  -18.6754 C   0  0  0  0  0  0  0  0  0  0  0  0
   18.5572   -8.8518  -19.5769 O   0  0  0  0  0  0  0  0  0  0  0  0
   16.7638   -5.4082  -17.9417 C   0  0  0  0  0  0  0  0  0  0  0  0
   17.8639   -5.7681  -16.9708 C   0  0  1  0  0  0  0  0  0  0  0  0
   17.2131   -6.1994  -15.8004 O   0  0  0  0  0  0  0  0  0  0  0  0
   18.6237   -6.9761  -17.5035 C   0  0  2  0  0  0  0  0  0  0  0  0
   17.6502   -8.0804  -17.6334 N   0  0  0  0  0  0  0  0  0  0  0  0
   19.7531   -7.4025  -16.6802 C   0  0  0  0  0  0  0  0  0  0  0  0
   19.6921   -8.5784  -16.1520 O   0  0  0  0  0  0  0  0  0  0  0  0
   20.9305   -6.6959  -16.3761 N   0  0  0  0  0  0  0  0  0  0  0  0
   22.0507   -7.2539  -15.6080 C   0  0  1  0  0  0  0  0  0  0  0  0
   22.4826   -8.5579  -16.1663 C   0  0  0  0  0  0  0  0  0  0  0  0
   23.6447   -9.1729  -15.5331 C   0  0  0  0  0  0  0  0  0  0  0  0
   23.6485   -9.8122  -14.3107 C   0  0  0  0  0  0  0  0  0  0  0  0
   24.9047  -10.2206  -14.0346 N   0  0  0  0  0  0  0  0  0  0  0  0
   25.7399   -9.8703  -15.0437 C   0  0  0  0  0  0  0  0  0  0  0  0
   27.0848  -10.0830  -15.2149 C   0  0  0  0  0  0  0  0  0  0  0  0
   27.7018   -9.6299  -16.3746 C   0  0  0  0  0  0  0  0  0  0  0  0
   26.9308   -8.9798  -17.3137 C   0  0  0  0  0  0  0  0  0  0  0  0
   25.5886   -8.7672  -17.1419 C   0  0  0  0  0  0  0  0  0  0  0  0
   24.9412   -9.2115  -15.9839 C   0  0  0  0  0  0  0  0  0  0  0  0
   23.1283   -6.3236  -15.3713 C   0  0  0  0  0  0  0  0  0  0  0  0
   23.7304   -6.1897  -14.1081 O   0  0  0  0  0  0  0  0  0  0  0  0
   23.5926   -5.5839  -16.2619 O   0  0  0  0  0  0  0  0  0  0  0  0
  2  1  1  6
  3  2  1  0
  4  2  1  0
  5  4  1  0
  5  6  1  1
  7  8  2  0
  7  5  1  0
 10  9  1  6
 10 12  1  0
 11 10  1  0
 12 13  1  1
 13  7  1  0
 14 12  1  0
 14 16  1  0
 15 14  2  0
 17 16  1  0
 17 28  1  0
 18 19  1  0
 17 18  1  6
 19 27  1  0
 20 19  2  0
 20 21  1  0
 21 22  1  0
 22 23  1  0
 23 24  2  0
 25 24  1  0
 26 25  2  0
 27 22  2  0
 27 26  1  0
 28 29  1  0
 30 28  2  0
M  END
$$$$
