LTW.pdb
     RDKit          3D

 30 31  0  0  1  0  0  0  0  0999 V2000
   29.0101  -15.6368  -17.3989 C   0  0  0  0  0  0  0  0  0  0  0  0
   28.7356  -17.0410  -16.9480 C   0  0  1  0  0  0  0  0  0  0  0  0
   30.0184  -17.7475  -16.6484 C   0  0  0  0  0  0  0  0  0  0  0  0
   27.7211  -17.1378  -15.8615 C   0  0  0  0  0  0  0  0  0  0  0  0
   27.5081  -18.5523  -15.3718 C   0  0  2  0  0  0  0  0  0  0  0  0
   27.2349  -19.3787  -16.5316 N   0  0  0  0  0  0  0  0  0  0  0  0
   26.3975  -18.6256  -14.3875 C   0  0  0  0  0  0  0  0  0  0  0  0
   25.3128  -17.9868  -14.6129 O   0  0  0  0  0  0  0  0  0  0  0  0
   24.1596  -19.7640  -14.5370 C   0  0  0  0  0  0  0  0  0  0  0  0
   24.2825  -20.4144  -13.1790 C   0  0  1  0  0  0  0  0  0  0  0  0
   24.8637  -21.6744  -13.4112 O   0  0  0  0  0  0  0  0  0  0  0  0
   25.2856  -19.6326  -12.3406 C   0  0  2  0  0  0  0  0  0  0  0  0
   26.4563  -19.3630  -13.2011 N   0  0  0  0  0  0  0  0  0  0  0  0
   25.7131  -20.3013  -11.1137 C   0  0  0  0  0  0  0  0  0  0  0  0
   26.9704  -20.5640  -10.9879 O   0  0  0  0  0  0  0  0  0  0  0  0
   24.9285  -20.7075  -10.0193 N   0  0  0  0  0  0  0  0  0  0  0  0
   25.4780  -21.1549   -8.7332 C   0  0  1  0  0  0  0  0  0  0  0  0
   26.5051  -20.2091   -8.2344 C   0  0  0  0  0  0  0  0  0  0  0  0
   27.0844  -20.5206   -6.9316 C   0  0  0  0  0  0  0  0  0  0  0  0
   26.8903  -21.6896   -6.2255 C   0  0  0  0  0  0  0  0  0  0  0  0
   27.5505  -21.6062   -5.0515 N   0  0  0  0  0  0  0  0  0  0  0  0
   28.1816  -20.4098   -4.9568 C   0  0  0  0  0  0  0  0  0  0  0  0
   28.9774  -19.8867   -3.9687 C   0  0  0  0  0  0  0  0  0  0  0  0
   29.5263  -18.6214   -4.1375 C   0  0  0  0  0  0  0  0  0  0  0  0
   29.2466  -17.9377   -5.3007 C   0  0  0  0  0  0  0  0  0  0  0  0
   28.4517  -18.4600   -6.2863 C   0  0  0  0  0  0  0  0  0  0  0  0
   27.8849  -19.7311   -6.1431 C   0  0  0  0  0  0  0  0  0  0  0  0
   24.4794  -21.5161   -7.7559 C   0  0  0  0  0  0  0  0  0  0  0  0
   23.1048  -21.4727   -8.0470 O   0  0  0  0  0  0  0  0  0  0  0  0
   24.7658  -21.8870   -6.5999 O   0  0  0  0  0  0  0  0  0  0  0  0
  2  1  1  1
  3  2  1  0
  4  2  1  0
  5  4  1  0
  5  6  1  6
  7  8  2  0
  7  5  1  0
 10  9  1  6
 10 12  1  0
 11 10  1  0
 12 13  1  6
 13  7  1  0
 14 12  1  0
 14 16  1  0
 15 14  2  0
 17 16  1  0
 17 28  1  0
 18 19  1  0
 17 18  1  1
 19 27  1  0
 20 19  2  0
 20 21  1  0
 21 22  1  0
 22 23  1  0
 23 24  2  0
 25 24  1  0
 26 25  2  0
 27 22  2  0
 27 26  1  0
 28 29  1  0
 30 28  2  0
M  END
$$$$
