LTW.pdb
     RDKit          3D

 30 31  0  0  1  0  0  0  0  0999 V2000
   32.3546  -29.0964  -20.1742 C   0  0  0  0  0  0  0  0  0  0  0  0
   32.1451  -29.6464  -18.7943 C   0  0  1  0  0  0  0  0  0  0  0  0
   31.8693  -28.5362  -17.8321 C   0  0  0  0  0  0  0  0  0  0  0  0
   31.1596  -30.7617  -18.7333 C   0  0  0  0  0  0  0  0  0  0  0  0
   31.0713  -31.4023  -17.3665 C   0  0  2  0  0  0  0  0  0  0  0  0
   32.3100  -32.1218  -17.1414 N   0  0  0  0  0  0  0  0  0  0  0  0
   29.8986  -32.3092  -17.2657 C   0  0  0  0  0  0  0  0  0  0  0  0
   29.8581  -33.3686  -17.9809 O   0  0  0  0  0  0  0  0  0  0  0  0
   28.0640  -33.0069  -13.8323 C   0  0  0  0  0  0  0  0  0  0  0  0
   27.9634  -33.8847  -15.0577 C   0  0  1  0  0  0  0  0  0  0  0  0
   26.8201  -34.6811  -14.8633 O   0  0  0  0  0  0  0  0  0  0  0  0
   27.6719  -33.0134  -16.2727 C   0  0  2  0  0  0  0  0  0  0  0  0
   28.8077  -32.0798  -16.4219 N   0  0  0  0  0  0  0  0  0  0  0  0
   26.4184  -32.2655  -16.2048 C   0  0  0  0  0  0  0  0  0  0  0  0
   26.4863  -31.0228  -15.8630 O   0  0  0  0  0  0  0  0  0  0  0  0
   25.1135  -32.7186  -16.4695 N   0  0  0  0  0  0  0  0  0  0  0  0
   23.9154  -31.8738  -16.3847 C   0  0  1  0  0  0  0  0  0  0  0  0
   24.1116  -30.5961  -17.1110 C   0  0  0  0  0  0  0  0  0  0  0  0
   22.9923  -29.6603  -17.0755 C   0  0  0  0  0  0  0  0  0  0  0  0
   22.8745  -28.5816  -16.2238 C   0  0  0  0  0  0  0  0  0  0  0  0
   21.6943  -27.9691  -16.4545 N   0  0  0  0  0  0  0  0  0  0  0  0
   21.0215  -28.6123  -17.4405 C   0  0  0  0  0  0  0  0  0  0  0  0
   19.8055  -28.3506  -18.0204 C   0  0  0  0  0  0  0  0  0  0  0  0
   19.3517  -29.1708  -19.0461 C   0  0  0  0  0  0  0  0  0  0  0  0
   20.1485  -30.2228  -19.4425 C   0  0  0  0  0  0  0  0  0  0  0  0
   21.3618  -30.4840  -18.8629 C   0  0  0  0  0  0  0  0  0  0  0  0
   21.8434  -29.6755  -17.8276 C   0  0  0  0  0  0  0  0  0  0  0  0
   22.6853  -32.5564  -16.7064 C   0  0  0  0  0  0  0  0  0  0  0  0
   21.4748  -32.2508  -16.0602 O   0  0  0  0  0  0  0  0  0  0  0  0
   22.6143  -33.4538  -17.5699 O   0  0  0  0  0  0  0  0  0  0  0  0
  2  1  1  6
  3  2  1  0
  4  2  1  0
  5  4  1  0
  5  6  1  6
  7  8  2  0
  7  5  1  0
 10  9  1  1
 10 12  1  0
 11 10  1  0
 12 13  1  1
 13  7  1  0
 14 12  1  0
 14 16  1  0
 15 14  2  0
 17 16  1  0
 17 28  1  0
 18 19  1  0
 17 18  1  6
 19 27  1  0
 20 19  2  0
 20 21  1  0
 21 22  1  0
 22 23  1  0
 23 24  2  0
 25 24  1  0
 26 25  2  0
 27 22  2  0
 27 26  1  0
 28 29  1  0
 30 28  2  0
M  END
$$$$
