LTW.pdb
     RDKit          3D

 30 31  0  0  1  0  0  0  0  0999 V2000
   26.7245  -19.5442  -19.4185 C   0  0  0  0  0  0  0  0  0  0  0  0
   27.0499  -20.3974  -18.2283 C   0  0  1  0  0  0  0  0  0  0  0  0
   27.5349  -21.7399  -18.6721 C   0  0  0  0  0  0  0  0  0  0  0  0
   27.9351  -19.7307  -17.2328 C   0  0  0  0  0  0  0  0  0  0  0  0
   28.2435  -20.6009  -16.0354 C   0  0  2  0  0  0  0  0  0  0  0  0
   27.6871  -21.9144  -16.2961 N   0  0  0  0  0  0  0  0  0  0  0  0
   27.6880  -20.0219  -14.7848 C   0  0  0  0  0  0  0  0  0  0  0  0
   28.0234  -18.8382  -14.4354 O   0  0  0  0  0  0  0  0  0  0  0  0
   24.4077  -19.1609  -14.1503 C   0  0  0  0  0  0  0  0  0  0  0  0
   24.6948  -20.0437  -12.9583 C   0  0  1  0  0  0  0  0  0  0  0  0
   24.3079  -21.3406  -13.3425 O   0  0  0  0  0  0  0  0  0  0  0  0
   26.1999  -20.1000  -12.7306 C   0  0  2  0  0  0  0  0  0  0  0  0
   26.8016  -20.6977  -13.9409 N   0  0  0  0  0  0  0  0  0  0  0  0
   26.6138  -20.8501  -11.5469 C   0  0  0  0  0  0  0  0  0  0  0  0
   27.1302  -22.0178  -11.7345 O   0  0  0  0  0  0  0  0  0  0  0  0
   26.5301  -20.4687  -10.1957 N   0  0  0  0  0  0  0  0  0  0  0  0
   26.2679  -21.4008   -9.0917 C   0  0  1  0  0  0  0  0  0  0  0  0
   27.4261  -21.4731   -8.1687 C   0  0  0  0  0  0  0  0  0  0  0  0
   27.5771  -20.3566   -7.2412 C   0  0  0  0  0  0  0  0  0  0  0  0
   27.0699  -19.0869   -7.4239 C   0  0  0  0  0  0  0  0  0  0  0  0
   27.4387  -18.3143   -6.3807 N   0  0  0  0  0  0  0  0  0  0  0  0
   28.1793  -19.0378   -5.5051 C   0  0  0  0  0  0  0  0  0  0  0  0
   28.7524  -18.6903   -4.3076 C   0  0  0  0  0  0  0  0  0  0  0  0
   29.4535  -19.6492   -3.5866 C   0  0  0  0  0  0  0  0  0  0  0  0
   29.5452  -20.9213   -4.1084 C   0  0  0  0  0  0  0  0  0  0  0  0
   28.9736  -21.2674   -5.3042 C   0  0  0  0  0  0  0  0  0  0  0  0
   28.2627  -20.3224   -6.0518 C   0  0  0  0  0  0  0  0  0  0  0  0
   24.9981  -21.2001   -8.4359 C   0  0  0  0  0  0  0  0  0  0  0  0
   24.5908  -21.9906   -7.3472 O   0  0  0  0  0  0  0  0  0  0  0  0
   24.1856  -20.3213   -8.7873 O   0  0  0  0  0  0  0  0  0  0  0  0
  2  1  1  6
  3  2  1  0
  4  2  1  0
  5  4  1  0
  5  6  1  6
  7  8  2  0
  7  5  1  0
 10  9  1  6
 10 12  1  0
 11 10  1  0
 12 13  1  6
 13  7  1  0
 14 12  1  0
 14 16  1  0
 15 14  2  0
 17 16  1  0
 17 28  1  0
 18 19  1  0
 17 18  1  1
 19 27  1  0
 20 19  2  0
 20 21  1  0
 21 22  1  0
 22 23  1  0
 23 24  2  0
 25 24  1  0
 26 25  2  0
 27 22  2  0
 27 26  1  0
 28 29  1  0
 30 28  2  0
M  END
$$$$
