LTW.pdb
     RDKit          3D

 30 31  0  0  1  0  0  0  0  0999 V2000
   26.9380  -21.4249  -20.5325 C   0  0  0  0  0  0  0  0  0  0  0  0
   27.4781  -22.0881  -19.3000 C   0  0  1  0  0  0  0  0  0  0  0  0
   28.9041  -22.4844  -19.5093 C   0  0  0  0  0  0  0  0  0  0  0  0
   27.2395  -21.3180  -18.0474 C   0  0  0  0  0  0  0  0  0  0  0  0
   27.9291  -21.9159  -16.8420 C   0  0  2  0  0  0  0  0  0  0  0  0
   27.2166  -23.1285  -16.4889 N   0  0  0  0  0  0  0  0  0  0  0  0
   27.9596  -20.9612  -15.7038 C   0  0  0  0  0  0  0  0  0  0  0  0
   28.3514  -19.7597  -15.8997 O   0  0  0  0  0  0  0  0  0  0  0  0
   26.8984  -18.7270  -15.1939 C   0  0  0  0  0  0  0  0  0  0  0  0
   26.3546  -19.2742  -13.8950 C   0  0  1  0  0  0  0  0  0  0  0  0
   25.1944  -19.9914  -14.2396 O   0  0  0  0  0  0  0  0  0  0  0  0
   27.3350  -20.2970  -13.3355 C   0  0  2  0  0  0  0  0  0  0  0  0
   27.5804  -21.2927  -14.3996 N   0  0  0  0  0  0  0  0  0  0  0  0
   26.8908  -20.9701  -12.1169 C   0  0  0  0  0  0  0  0  0  0  0  0
   26.4479  -22.1767  -12.2330 O   0  0  0  0  0  0  0  0  0  0  0  0
   26.8802  -20.4778  -10.7994 N   0  0  0  0  0  0  0  0  0  0  0  0
   26.3947  -21.2376   -9.6405 C   0  0  1  0  0  0  0  0  0  0  0  0
   27.4460  -21.3549   -8.6015 C   0  0  0  0  0  0  0  0  0  0  0  0
   27.5513  -20.2386   -7.6674 C   0  0  0  0  0  0  0  0  0  0  0  0
   27.0502  -18.9698   -7.8729 C   0  0  0  0  0  0  0  0  0  0  0  0
   27.3685  -18.1970   -6.8134 N   0  0  0  0  0  0  0  0  0  0  0  0
   28.0694  -18.9193   -5.9048 C   0  0  0  0  0  0  0  0  0  0  0  0
   28.5857  -18.5712   -4.6818 C   0  0  0  0  0  0  0  0  0  0  0  0
   29.2549  -19.5289   -3.9296 C   0  0  0  0  0  0  0  0  0  0  0  0
   29.3737  -20.8004   -4.4472 C   0  0  0  0  0  0  0  0  0  0  0  0
   28.8587  -21.1472   -5.6683 C   0  0  0  0  0  0  0  0  0  0  0  0
   28.1810  -20.2034   -6.4476 C   0  0  0  0  0  0  0  0  0  0  0  0
   25.1129  -20.8012   -9.1410 C   0  0  0  0  0  0  0  0  0  0  0  0
   24.4328  -19.7040   -9.6974 O   0  0  0  0  0  0  0  0  0  0  0  0
   24.5289  -21.3623   -8.1923 O   0  0  0  0  0  0  0  0  0  0  0  0
  2  1  1  6
  3  2  1  0
  4  2  1  0
  5  4  1  0
  5  6  1  1
  7  8  2  0
  7  5  1  0
 10  9  1  6
 10 12  1  0
 11 10  1  0
 12 13  1  6
 13  7  1  0
 14 12  1  0
 14 16  1  0
 15 14  2  0
 17 16  1  0
 17 28  1  0
 18 19  1  0
 17 18  1  1
 19 27  1  0
 20 19  2  0
 20 21  1  0
 21 22  1  0
 22 23  1  0
 23 24  2  0
 25 24  1  0
 26 25  2  0
 27 22  2  0
 27 26  1  0
 28 29  1  0
 30 28  2  0
M  END
$$$$
