LTW.pdb
     RDKit          3D

 30 31  0  0  1  0  0  0  0  0999 V2000
   18.4477  -17.1887  -18.9263 C   0  0  0  0  0  0  0  0  0  0  0  0
   17.8395  -16.4251  -17.7871 C   0  0  1  0  0  0  0  0  0  0  0  0
   18.4964  -16.8073  -16.4999 C   0  0  0  0  0  0  0  0  0  0  0  0
   17.7655  -14.9553  -18.0180 C   0  0  0  0  0  0  0  0  0  0  0  0
   17.2010  -14.1963  -16.8384 C   0  0  2  0  0  0  0  0  0  0  0  0
   15.7871  -14.5074  -16.7560 N   0  0  0  0  0  0  0  0  0  0  0  0
   17.4210  -12.7334  -16.9775 C   0  0  0  0  0  0  0  0  0  0  0  0
   18.6050  -12.2898  -17.1693 O   0  0  0  0  0  0  0  0  0  0  0  0
   15.1724  -10.5321  -19.0960 C   0  0  0  0  0  0  0  0  0  0  0  0
   15.3751   -9.7836  -17.7994 C   0  0  1  0  0  0  0  0  0  0  0  0
   14.2774  -10.1234  -16.9877 O   0  0  0  0  0  0  0  0  0  0  0  0
   16.6094  -10.3318  -17.0949 C   0  0  2  0  0  0  0  0  0  0  0  0
   16.3979  -11.7829  -16.9114 N   0  0  0  0  0  0  0  0  0  0  0  0
   16.9107   -9.7062  -15.8092 C   0  0  0  0  0  0  0  0  0  0  0  0
   16.4415  -10.2728  -14.7489 O   0  0  0  0  0  0  0  0  0  0  0  0
   17.6624   -8.5448  -15.5559 N   0  0  0  0  0  0  0  0  0  0  0  0
   17.8289   -7.9456  -14.2257 C   0  0  1  0  0  0  0  0  0  0  0  0
   19.0028   -8.5202  -13.5253 C   0  0  0  0  0  0  0  0  0  0  0  0
   19.5786   -7.7024  -12.4627 C   0  0  0  0  0  0  0  0  0  0  0  0
   19.2641   -7.7900  -11.1224 C   0  0  0  0  0  0  0  0  0  0  0  0
   19.9648   -6.8553  -10.4467 N   0  0  0  0  0  0  0  0  0  0  0  0
   20.7405   -6.1461  -11.3034 C   0  0  0  0  0  0  0  0  0  0  0  0
   21.6240   -5.1200  -11.0800 C   0  0  0  0  0  0  0  0  0  0  0  0
   22.3187   -4.5762  -12.1536 C   0  0  0  0  0  0  0  0  0  0  0  0
   22.0898   -5.0941  -13.4098 C   0  0  0  0  0  0  0  0  0  0  0  0
   21.2073   -6.1178  -13.6323 C   0  0  0  0  0  0  0  0  0  0  0  0
   20.4935   -6.6840  -12.5706 C   0  0  0  0  0  0  0  0  0  0  0  0
   17.7792   -6.5033  -14.2152 C   0  0  0  0  0  0  0  0  0  0  0  0
   17.3073   -5.7840  -13.1035 O   0  0  0  0  0  0  0  0  0  0  0  0
   18.1476   -5.8058  -15.1815 O   0  0  0  0  0  0  0  0  0  0  0  0
  2  1  1  6
  3  2  1  0
  4  2  1  0
  5  4  1  0
  5  6  1  6
  7  8  2  0
  7  5  1  0
 10  9  1  6
 10 12  1  0
 11 10  1  0
 12 13  1  1
 13  7  1  0
 14 12  1  0
 14 16  1  0
 15 14  2  0
 17 16  1  0
 17 28  1  0
 18 19  1  0
 17 18  1  6
 19 27  1  0
 20 19  2  0
 20 21  1  0
 21 22  1  0
 22 23  1  0
 23 24  2  0
 25 24  1  0
 26 25  2  0
 27 22  2  0
 27 26  1  0
 28 29  1  0
 30 28  2  0
M  END
$$$$
