LTW.pdb
     RDKit          3D

 30 31  0  0  1  0  0  0  0  0999 V2000
   28.9977  -21.5964  -20.1119 C   0  0  0  0  0  0  0  0  0  0  0  0
   28.0310  -21.9109  -19.0087 C   0  0  1  0  0  0  0  0  0  0  0  0
   27.8479  -23.3895  -18.8882 C   0  0  0  0  0  0  0  0  0  0  0  0
   28.3442  -21.2309  -17.7208 C   0  0  0  0  0  0  0  0  0  0  0  0
   27.4264  -21.6439  -16.5925 C   0  0  2  0  0  0  0  0  0  0  0  0
   26.1151  -21.0918  -16.8727 N   0  0  0  0  0  0  0  0  0  0  0  0
   27.9359  -21.1750  -15.2778 C   0  0  0  0  0  0  0  0  0  0  0  0
   29.0437  -20.5386  -15.2221 O   0  0  0  0  0  0  0  0  0  0  0  0
   28.0839  -18.8642  -14.5560 C   0  0  0  0  0  0  0  0  0  0  0  0
   27.3077  -19.1024  -13.2820 C   0  0  1  0  0  0  0  0  0  0  0  0
   25.9524  -18.9490  -13.6272 O   0  0  0  0  0  0  0  0  0  0  0  0
   27.4759  -20.5563  -12.8600 C   0  0  2  0  0  0  0  0  0  0  0  0
   27.2721  -21.3863  -14.0656 N   0  0  0  0  0  0  0  0  0  0  0  0
   26.5754  -20.9946  -11.7960 C   0  0  0  0  0  0  0  0  0  0  0  0
   25.4435  -21.5046  -12.1487 O   0  0  0  0  0  0  0  0  0  0  0  0
   26.7734  -20.9413  -10.4045 N   0  0  0  0  0  0  0  0  0  0  0  0
   25.8052  -21.4321   -9.4156 C   0  0  1  0  0  0  0  0  0  0  0  0
   26.4473  -21.6304   -8.0939 C   0  0  0  0  0  0  0  0  0  0  0  0
   26.9154  -20.4230   -7.4211 C   0  0  0  0  0  0  0  0  0  0  0  0
   26.7336  -19.1316   -7.8709 C   0  0  0  0  0  0  0  0  0  0  0  0
   27.3317  -18.2807   -7.0110 N   0  0  0  0  0  0  0  0  0  0  0  0
   27.9078  -18.9727   -5.9971 C   0  0  0  0  0  0  0  0  0  0  0  0
   28.6045  -18.5438   -4.8953 C   0  0  0  0  0  0  0  0  0  0  0  0
   29.0764  -19.4800   -3.9834 C   0  0  0  0  0  0  0  0  0  0  0  0
   28.8231  -20.8128   -4.2250 C   0  0  0  0  0  0  0  0  0  0  0  0
   28.1282  -21.2404   -5.3253 C   0  0  0  0  0  0  0  0  0  0  0  0
   27.6422  -20.3203   -6.2605 C   0  0  0  0  0  0  0  0  0  0  0  0
   24.5731  -20.6820   -9.3702 C   0  0  0  0  0  0  0  0  0  0  0  0
   24.4225  -19.4585  -10.0457 O   0  0  0  0  0  0  0  0  0  0  0  0
   23.5700  -21.0649   -8.7353 O   0  0  0  0  0  0  0  0  0  0  0  0
  2  1  1  6
  3  2  1  0
  4  2  1  0
  5  4  1  0
  5  6  1  6
  7  8  2  0
  7  5  1  0
 10  9  1  6
 10 12  1  0
 11 10  1  0
 12 13  1  6
 13  7  1  0
 14 12  1  0
 14 16  1  0
 15 14  2  0
 17 16  1  0
 17 28  1  0
 18 19  1  0
 17 18  1  1
 19 27  1  0
 20 19  2  0
 20 21  1  0
 21 22  1  0
 22 23  1  0
 23 24  2  0
 25 24  1  0
 26 25  2  0
 27 22  2  0
 27 26  1  0
 28 29  1  0
 30 28  2  0
M  END
$$$$
