GWA.pdb
     RDKit          3D

 24 25  0  0  1  0  0  0  0  0999 V2000
    6.7656  -16.4314   19.3917 N   0  0  0  0  0  0  0  0  0  0  0  0
    6.8857  -16.9291   20.7332 C   0  0  0  0  0  0  0  0  0  0  0  0
    7.9259  -16.2122   21.5132 C   0  0  0  0  0  0  0  0  0  0  0  0
    8.5579  -15.2601   20.9933 O   0  0  0  0  0  0  0  0  0  0  0  0
    8.2517  -16.5562   22.8512 N   0  0  0  0  0  0  0  0  0  0  0  0
    9.2096  -15.8544   23.6761 C   0  0  1  0  0  0  0  0  0  0  0  0
    8.9215  -15.8406   25.1259 C   0  0  0  0  0  0  0  0  0  0  0  0
    7.6532  -15.2543   25.5554 C   0  0  0  0  0  0  0  0  0  0  0  0
    6.4087  -15.7940   25.7385 C   0  0  0  0  0  0  0  0  0  0  0  0
    5.5975  -14.8056   26.1384 N   0  0  0  0  0  0  0  0  0  0  0  0
    6.2621  -13.6610   26.2199 C   0  0  0  0  0  0  0  0  0  0  0  0
    5.8447  -12.3875   26.5846 C   0  0  0  0  0  0  0  0  0  0  0  0
    6.7778  -11.3739   26.5738 C   0  0  0  0  0  0  0  0  0  0  0  0
    8.0833  -11.5935   26.2174 C   0  0  0  0  0  0  0  0  0  0  0  0
    8.4849  -12.8519   25.8595 C   0  0  0  0  0  0  0  0  0  0  0  0
    7.5608  -13.8977   25.8614 C   0  0  0  0  0  0  0  0  0  0  0  0
   10.4918  -16.6493   23.5217 C   0  0  0  0  0  0  0  0  0  0  0  0
   10.3856  -17.9118   23.6519 O   0  0  0  0  0  0  0  0  0  0  0  0
   13.9225  -16.2962   22.1521 C   0  0  0  0  0  0  0  0  0  0  0  0
   12.9068  -16.9329   23.0438 C   0  0  2  0  0  0  0  0  0  0  0  0
   11.7369  -16.0762   23.2530 N   0  0  0  0  0  0  0  0  0  0  0  0
   13.5586  -17.2212   24.3435 C   0  0  0  0  0  0  0  0  0  0  0  0
   13.0354  -16.6328   25.4883 O   0  0  0  0  0  0  0  0  0  0  0  0
   14.5404  -17.9692   24.3814 O   0  0  0  0  0  0  0  0  0  0  0  0
  1  2  1  0
  3  4  2  0
  3  2  1  0
  5  3  1  0
  6  5  1  0
  6  7  1  1
  8  7  1  0
  8 16  1  0
  9  8  2  0
 10  9  1  0
 10 11  1  0
 11 12  1  0
 11 16  2  0
 12 13  2  0
 13 14  1  0
 15 14  2  0
 16 15  1  0
 17  6  1  0
 18 17  2  0
 20 19  1  6
 20 22  1  0
 20 21  1  0
 21 17  1  0
 22 23  1  0
 24 22  2  0
M  END
$$$$
