GWA.pdb
     RDKit          3D

 24 25  0  0  1  0  0  0  0  0999 V2000
    7.1563  -16.0259   19.4973 N   0  0  0  0  0  0  0  0  0  0  0  0
    7.2737  -16.6787   20.7708 C   0  0  0  0  0  0  0  0  0  0  0  0
    8.2755  -16.0271   21.6518 C   0  0  0  0  0  0  0  0  0  0  0  0
    8.9456  -15.0528   21.2301 O   0  0  0  0  0  0  0  0  0  0  0  0
    8.5218  -16.4598   22.9811 N   0  0  0  0  0  0  0  0  0  0  0  0
    9.4235  -15.8131   23.9081 C   0  0  1  0  0  0  0  0  0  0  0  0
    9.0016  -15.8180   25.3248 C   0  0  0  0  0  0  0  0  0  0  0  0
    7.6938  -15.2464   25.6405 C   0  0  0  0  0  0  0  0  0  0  0  0
    6.4479  -15.8049   25.7375 C   0  0  0  0  0  0  0  0  0  0  0  0
    5.5913  -14.8236   26.0505 N   0  0  0  0  0  0  0  0  0  0  0  0
    6.2282  -13.6655   26.1585 C   0  0  0  0  0  0  0  0  0  0  0  0
    5.7621  -12.3926   26.4611 C   0  0  0  0  0  0  0  0  0  0  0  0
    6.6761  -11.3625   26.5010 C   0  0  0  0  0  0  0  0  0  0  0  0
    8.0091  -11.5653   26.2529 C   0  0  0  0  0  0  0  0  0  0  0  0
    8.4586  -12.8232   25.9555 C   0  0  0  0  0  0  0  0  0  0  0  0
    7.5549  -13.8857   25.9082 C   0  0  0  0  0  0  0  0  0  0  0  0
   10.6842  -16.6541   23.8541 C   0  0  0  0  0  0  0  0  0  0  0  0
   10.5177  -17.9152   23.9179 O   0  0  0  0  0  0  0  0  0  0  0  0
   14.2736  -16.3718   22.9204 C   0  0  0  0  0  0  0  0  0  0  0  0
   13.1242  -17.0193   23.6218 C   0  0  2  0  0  0  0  0  0  0  0  0
   11.9713  -16.1234   23.7419 N   0  0  0  0  0  0  0  0  0  0  0  0
   13.5856  -17.4294   24.9695 C   0  0  0  0  0  0  0  0  0  0  0  0
   12.9366  -16.8998   26.0779 O   0  0  0  0  0  0  0  0  0  0  0  0
   14.5251  -18.2235   25.0775 O   0  0  0  0  0  0  0  0  0  0  0  0
  1  2  1  0
  3  4  2  0
  3  2  1  0
  5  3  1  0
  6  5  1  0
  6  7  1  1
  8  7  1  0
  8 16  1  0
  9  8  2  0
 10  9  1  0
 10 11  1  0
 11 12  1  0
 11 16  2  0
 12 13  2  0
 13 14  1  0
 15 14  2  0
 16 15  1  0
 17  6  1  0
 18 17  2  0
 20 19  1  1
 20 22  1  0
 20 21  1  0
 21 17  1  0
 22 23  1  0
 24 22  2  0
M  END
$$$$
