GWA.pdb
     RDKit          3D

 24 25  0  0  1  0  0  0  0  0999 V2000
    5.3132  -18.2793   20.7287 N   0  0  0  0  0  0  0  0  0  0  0  0
    6.2602  -18.6382   21.7466 C   0  0  0  0  0  0  0  0  0  0  0  0
    7.2450  -17.5590   22.0109 C   0  0  0  0  0  0  0  0  0  0  0  0
    7.6172  -16.8045   21.0792 O   0  0  0  0  0  0  0  0  0  0  0  0
    7.8025  -17.3300   23.2961 N   0  0  0  0  0  0  0  0  0  0  0  0
    8.7377  -16.2747   23.6162 C   0  0  1  0  0  0  0  0  0  0  0  0
    8.7448  -15.8273   25.0250 C   0  0  0  0  0  0  0  0  0  0  0  0
    7.5257  -15.2076   25.5415 C   0  0  0  0  0  0  0  0  0  0  0  0
    6.3177  -15.7318   25.9148 C   0  0  0  0  0  0  0  0  0  0  0  0
    5.5438  -14.7132   26.3126 N   0  0  0  0  0  0  0  0  0  0  0  0
    6.1976  -13.5639   26.2120 C   0  0  0  0  0  0  0  0  0  0  0  0
    5.8071  -12.2633   26.5038 C   0  0  0  0  0  0  0  0  0  0  0  0
    6.7189  -11.2523   26.2931 C   0  0  0  0  0  0  0  0  0  0  0  0
    7.9783  -11.4999   25.8110 C   0  0  0  0  0  0  0  0  0  0  0  0
    8.3537  -12.7848   25.5264 C   0  0  0  0  0  0  0  0  0  0  0  0
    7.4502  -13.8288   25.7302 C   0  0  0  0  0  0  0  0  0  0  0  0
   10.1005  -16.8957   23.3776 C   0  0  0  0  0  0  0  0  0  0  0  0
   10.2370  -18.1050   23.7534 O   0  0  0  0  0  0  0  0  0  0  0  0
   13.2252  -16.2887   21.4385 C   0  0  0  0  0  0  0  0  0  0  0  0
   12.4279  -16.9298   22.5273 C   0  0  2  0  0  0  0  0  0  0  0  0
   11.1714  -16.2221   22.7857 N   0  0  0  0  0  0  0  0  0  0  0  0
   13.2600  -16.9425   23.7540 C   0  0  0  0  0  0  0  0  0  0  0  0
   14.4384  -17.6784   23.7437 O   0  0  0  0  0  0  0  0  0  0  0  0
   12.8933  -16.3063   24.7469 O   0  0  0  0  0  0  0  0  0  0  0  0
  1  2  1  0
  3  4  2  0
  3  2  1  0
  5  3  1  0
  6  5  1  0
  6  7  1  1
  8  7  1  0
  8 16  1  0
  9  8  2  0
 10  9  1  0
 10 11  1  0
 11 12  1  0
 11 16  2  0
 12 13  2  0
 13 14  1  0
 15 14  2  0
 16 15  1  0
 17  6  1  0
 18 17  2  0
 20 19  1  6
 20 22  1  0
 20 21  1  0
 21 17  1  0
 22 23  1  0
 24 22  2  0
M  END
$$$$
