GWA.pdb
     RDKit          3D

 24 25  0  0  1  0  0  0  0  0999 V2000
    6.5696  -16.2772   19.3197 N   0  0  0  0  0  0  0  0  0  0  0  0
    6.8973  -16.9352   20.5531 C   0  0  0  0  0  0  0  0  0  0  0  0
    7.8392  -16.1445   21.3849 C   0  0  0  0  0  0  0  0  0  0  0  0
    8.3970  -15.1257   20.9084 O   0  0  0  0  0  0  0  0  0  0  0  0
    8.1504  -16.4896   22.7262 N   0  0  0  0  0  0  0  0  0  0  0  0
    9.1069  -15.7949   23.5586 C   0  0  1  0  0  0  0  0  0  0  0  0
    8.7660  -15.7074   24.9943 C   0  0  0  0  0  0  0  0  0  0  0  0
    7.4941  -15.0797   25.3479 C   0  0  0  0  0  0  0  0  0  0  0  0
    6.2108  -15.5554   25.3678 C   0  0  0  0  0  0  0  0  0  0  0  0
    5.4173  -14.5528   25.7680 N   0  0  0  0  0  0  0  0  0  0  0  0
    6.1301  -13.4600   26.0047 C   0  0  0  0  0  0  0  0  0  0  0  0
    5.7464  -12.1948   26.4303 C   0  0  0  0  0  0  0  0  0  0  0  0
    6.7282  -11.2416   26.5902 C   0  0  0  0  0  0  0  0  0  0  0  0
    8.0492  -11.5122   26.3424 C   0  0  0  0  0  0  0  0  0  0  0  0
    8.4173  -12.7618   25.9233 C   0  0  0  0  0  0  0  0  0  0  0  0
    7.4436  -13.7470   25.7527 C   0  0  0  0  0  0  0  0  0  0  0  0
   10.3576  -16.6495   23.4868 C   0  0  0  0  0  0  0  0  0  0  0  0
   10.1757  -17.9098   23.5171 O   0  0  0  0  0  0  0  0  0  0  0  0
   13.8199  -16.4124   22.2717 C   0  0  0  0  0  0  0  0  0  0  0  0
   12.7834  -17.0303   23.1528 C   0  0  2  0  0  0  0  0  0  0  0  0
   11.6514  -16.1318   23.3927 N   0  0  0  0  0  0  0  0  0  0  0  0
   13.4298  -17.3805   24.4400 C   0  0  0  0  0  0  0  0  0  0  0  0
   12.8944  -16.8571   25.6104 O   0  0  0  0  0  0  0  0  0  0  0  0
   14.4179  -18.1211   24.4452 O   0  0  0  0  0  0  0  0  0  0  0  0
  1  2  1  0
  3  4  2  0
  3  2  1  0
  5  3  1  0
  6  5  1  0
  6  7  1  1
  8  7  1  0
  8 16  1  0
  9  8  2  0
 10  9  1  0
 10 11  1  0
 11 12  1  0
 11 16  2  0
 12 13  2  0
 13 14  1  0
 15 14  2  0
 16 15  1  0
 17  6  1  0
 18 17  2  0
 20 19  1  6
 20 22  1  0
 20 21  1  0
 21 17  1  0
 22 23  1  0
 24 22  2  0
M  END
$$$$
