GWA.pdb
     RDKit          3D

 24 25  0  0  1  0  0  0  0  0999 V2000
    5.4276  -18.3159   20.6521 N   0  0  0  0  0  0  0  0  0  0  0  0
    6.3595  -18.5844   21.7110 C   0  0  0  0  0  0  0  0  0  0  0  0
    7.1536  -17.3869   22.0848 C   0  0  0  0  0  0  0  0  0  0  0  0
    7.1719  -16.3833   21.3309 O   0  0  0  0  0  0  0  0  0  0  0  0
    7.9135  -17.3159   23.2817 N   0  0  0  0  0  0  0  0  0  0  0  0
    8.8061  -16.2337   23.6320 C   0  0  1  0  0  0  0  0  0  0  0  0
    8.7700  -15.8023   25.0453 C   0  0  0  0  0  0  0  0  0  0  0  0
    7.5540  -15.1425   25.5176 C   0  0  0  0  0  0  0  0  0  0  0  0
    6.3181  -15.6270   25.8511 C   0  0  0  0  0  0  0  0  0  0  0  0
    5.5635  -14.5829   26.2187 N   0  0  0  0  0  0  0  0  0  0  0  0
    6.2561  -13.4551   26.1367 C   0  0  0  0  0  0  0  0  0  0  0  0
    5.8968  -12.1417   26.4104 C   0  0  0  0  0  0  0  0  0  0  0  0
    6.8466  -11.1605   26.2276 C   0  0  0  0  0  0  0  0  0  0  0  0
    8.1132  -11.4496   25.7898 C   0  0  0  0  0  0  0  0  0  0  0  0
    8.4576  -12.7468   25.5226 C   0  0  0  0  0  0  0  0  0  0  0  0
    7.5154  -13.7612   25.6989 C   0  0  0  0  0  0  0  0  0  0  0  0
   10.1936  -16.8061   23.4147 C   0  0  0  0  0  0  0  0  0  0  0  0
   10.3779  -17.9965   23.8284 O   0  0  0  0  0  0  0  0  0  0  0  0
   13.3131  -16.0346   21.4899 C   0  0  0  0  0  0  0  0  0  0  0  0
   12.4825  -16.8034   22.4653 C   0  0  2  0  0  0  0  0  0  0  0  0
   11.2378  -16.1086   22.8033 N   0  0  0  0  0  0  0  0  0  0  0  0
   13.2922  -17.0099   23.6897 C   0  0  0  0  0  0  0  0  0  0  0  0
   14.4812  -17.7204   23.5817 O   0  0  0  0  0  0  0  0  0  0  0  0
   12.8982  -16.5514   24.7665 O   0  0  0  0  0  0  0  0  0  0  0  0
  1  2  1  0
  3  4  2  0
  3  2  1  0
  5  3  1  0
  6  5  1  0
  6  7  1  1
  8  7  1  0
  8 16  1  0
  9  8  2  0
 10  9  1  0
 10 11  1  0
 11 12  1  0
 11 16  2  0
 12 13  2  0
 13 14  1  0
 15 14  2  0
 16 15  1  0
 17  6  1  0
 18 17  2  0
 20 19  1  6
 20 22  1  0
 20 21  1  0
 21 17  1  0
 22 23  1  0
 24 22  2  0
M  END
$$$$
