GWA.pdb
     RDKit          3D

 24 25  0  0  1  0  0  0  0  0999 V2000
    5.8881  -19.6977   21.6238 N   0  0  0  0  0  0  0  0  0  0  0  0
    6.9339  -19.6658   22.6071 C   0  0  0  0  0  0  0  0  0  0  0  0
    7.6428  -18.3616   22.6389 C   0  0  0  0  0  0  0  0  0  0  0  0
    7.6637  -17.6315   21.6179 O   0  0  0  0  0  0  0  0  0  0  0  0
    8.3161  -17.8849   23.7940 N   0  0  0  0  0  0  0  0  0  0  0  0
    9.0237  -16.6268   23.8790 C   0  0  1  0  0  0  0  0  0  0  0  0
    9.0035  -15.9657   25.2010 C   0  0  0  0  0  0  0  0  0  0  0  0
    7.7376  -15.3848   25.6446 C   0  0  0  0  0  0  0  0  0  0  0  0
    6.5465  -15.9516   26.0102 C   0  0  0  0  0  0  0  0  0  0  0  0
    5.7083  -14.9555   26.3264 N   0  0  0  0  0  0  0  0  0  0  0  0
    6.3048  -13.7802   26.1811 C   0  0  0  0  0  0  0  0  0  0  0  0
    5.8381  -12.4883   26.3871 C   0  0  0  0  0  0  0  0  0  0  0  0
    6.7029  -11.4430   26.1474 C   0  0  0  0  0  0  0  0  0  0  0  0
    7.9887  -11.6490   25.7183 C   0  0  0  0  0  0  0  0  0  0  0  0
    8.4392  -12.9256   25.5181 C   0  0  0  0  0  0  0  0  0  0  0  0
    7.5847  -14.0037   25.7530 C   0  0  0  0  0  0  0  0  0  0  0  0
   10.4735  -16.9937   23.6276 C   0  0  0  0  0  0  0  0  0  0  0  0
   10.8769  -18.0763   24.1638 O   0  0  0  0  0  0  0  0  0  0  0  0
   13.2409  -16.1077   21.2955 C   0  0  0  0  0  0  0  0  0  0  0  0
   12.6786  -16.7437   22.5250 C   0  0  2  0  0  0  0  0  0  0  0  0
   11.3513  -16.2230   22.8618 N   0  0  0  0  0  0  0  0  0  0  0  0
   13.6188  -16.4858   23.6417 C   0  0  0  0  0  0  0  0  0  0  0  0
   14.9106  -16.9880   23.5452 O   0  0  0  0  0  0  0  0  0  0  0  0
   13.2391  -15.8377   24.6219 O   0  0  0  0  0  0  0  0  0  0  0  0
  1  2  1  0
  3  4  2  0
  3  2  1  0
  5  3  1  0
  6  5  1  0
  6  7  1  1
  8  7  1  0
  8 16  1  0
  9  8  2  0
 10  9  1  0
 10 11  1  0
 11 12  1  0
 11 16  2  0
 12 13  2  0
 13 14  1  0
 15 14  2  0
 16 15  1  0
 17  6  1  0
 18 17  2  0
 20 19  1  6
 20 22  1  0
 20 21  1  0
 21 17  1  0
 22 23  1  0
 24 22  2  0
M  END
$$$$
