GWA.pdb
     RDKit          3D

 24 25  0  0  1  0  0  0  0  0999 V2000
    6.7499  -15.4664   19.4526 N   0  0  0  0  0  0  0  0  0  0  0  0
    6.8878  -16.2230   20.6651 C   0  0  0  0  0  0  0  0  0  0  0  0
    8.0050  -15.7364   21.5132 C   0  0  0  0  0  0  0  0  0  0  0  0
    8.7852  -14.8532   21.0807 O   0  0  0  0  0  0  0  0  0  0  0  0
    8.2434  -16.2311   22.8222 N   0  0  0  0  0  0  0  0  0  0  0  0
    9.2116  -15.6877   23.7485 C   0  0  1  0  0  0  0  0  0  0  0  0
    8.8268  -15.7232   25.1753 C   0  0  0  0  0  0  0  0  0  0  0  0
    7.5552  -15.1049   25.5459 C   0  0  0  0  0  0  0  0  0  0  0  0
    6.2903  -15.6130   25.6709 C   0  0  0  0  0  0  0  0  0  0  0  0
    5.4866  -14.6043   26.0332 N   0  0  0  0  0  0  0  0  0  0  0  0
    6.1753  -13.4767   26.1461 C   0  0  0  0  0  0  0  0  0  0  0  0
    5.7736  -12.1928   26.4917 C   0  0  0  0  0  0  0  0  0  0  0  0
    6.7314  -11.2031   26.5246 C   0  0  0  0  0  0  0  0  0  0  0  0
    8.0461  -11.4557   26.2289 C   0  0  0  0  0  0  0  0  0  0  0  0
    8.4320  -12.7240   25.8894 C   0  0  0  0  0  0  0  0  0  0  0  0
    7.4829  -13.7462   25.8479 C   0  0  0  0  0  0  0  0  0  0  0  0
   10.4086  -16.6105   23.6248 C   0  0  0  0  0  0  0  0  0  0  0  0
   10.1469  -17.8488   23.4814 O   0  0  0  0  0  0  0  0  0  0  0  0
   14.0194  -16.5193   22.8223 C   0  0  0  0  0  0  0  0  0  0  0  0
   12.8255  -17.1367   23.4749 C   0  0  2  0  0  0  0  0  0  0  0  0
   11.7354  -16.1757   23.6604 N   0  0  0  0  0  0  0  0  0  0  0  0
   13.2518  -17.6743   24.7889 C   0  0  0  0  0  0  0  0  0  0  0  0
   14.2787  -18.6097   24.8167 O   0  0  0  0  0  0  0  0  0  0  0  0
   12.6926  -17.2841   25.8185 O   0  0  0  0  0  0  0  0  0  0  0  0
  1  2  1  0
  3  4  2  0
  3  2  1  0
  5  3  1  0
  6  5  1  0
  6  7  1  1
  8  7  1  0
  8 16  1  0
  9  8  2  0
 10  9  1  0
 10 11  1  0
 11 12  1  0
 11 16  2  0
 12 13  2  0
 13 14  1  0
 15 14  2  0
 16 15  1  0
 17  6  1  0
 18 17  2  0
 20 19  1  1
 20 22  1  0
 20 21  1  0
 21 17  1  0
 22 23  1  0
 24 22  2  0
M  END
$$$$
