GWA.pdb
     RDKit          3D

 24 25  0  0  1  0  0  0  0  0999 V2000
    6.3455  -16.8980   19.5396 N   0  0  0  0  0  0  0  0  0  0  0  0
    6.7538  -17.4589   20.7967 C   0  0  0  0  0  0  0  0  0  0  0  0
    7.7445  -16.6076   21.5025 C   0  0  0  0  0  0  0  0  0  0  0  0
    8.3624  -15.7110   20.8778 O   0  0  0  0  0  0  0  0  0  0  0  0
    8.0373  -16.7588   22.8832 N   0  0  0  0  0  0  0  0  0  0  0  0
    9.0062  -15.9731   23.6143 C   0  0  1  0  0  0  0  0  0  0  0  0
    8.7767  -15.8617   25.0704 C   0  0  0  0  0  0  0  0  0  0  0  0
    7.5391  -15.2203   25.5104 C   0  0  0  0  0  0  0  0  0  0  0  0
    6.2856  -15.7144   25.7516 C   0  0  0  0  0  0  0  0  0  0  0  0
    5.5152  -14.6865   26.1319 N   0  0  0  0  0  0  0  0  0  0  0  0
    6.2145  -13.5598   26.1457 C   0  0  0  0  0  0  0  0  0  0  0  0
    5.8447  -12.2603   26.4676 C   0  0  0  0  0  0  0  0  0  0  0  0
    6.8058  -11.2764   26.3871 C   0  0  0  0  0  0  0  0  0  0  0  0
    8.0934  -11.5496   26.0034 C   0  0  0  0  0  0  0  0  0  0  0  0
    8.4479  -12.8332   25.6881 C   0  0  0  0  0  0  0  0  0  0  0  0
    7.4947  -13.8500   25.7608 C   0  0  0  0  0  0  0  0  0  0  0  0
   10.3045  -16.7421   23.4628 C   0  0  0  0  0  0  0  0  0  0  0  0
   10.2176  -18.0093   23.5577 O   0  0  0  0  0  0  0  0  0  0  0  0
   13.7783  -16.1988   22.2112 C   0  0  0  0  0  0  0  0  0  0  0  0
   12.7113  -16.9694   22.9184 C   0  0  2  0  0  0  0  0  0  0  0  0
   11.5442  -16.1414   23.2325 N   0  0  0  0  0  0  0  0  0  0  0  0
   13.2943  -17.5126   24.1683 C   0  0  0  0  0  0  0  0  0  0  0  0
   14.4057  -18.3408   24.0718 O   0  0  0  0  0  0  0  0  0  0  0  0
   12.7867  -17.2210   25.2556 O   0  0  0  0  0  0  0  0  0  0  0  0
  1  2  1  0
  3  4  2  0
  3  2  1  0
  5  3  1  0
  6  5  1  0
  6  7  1  1
  8  7  1  0
  8 16  1  0
  9  8  2  0
 10  9  1  0
 10 11  1  0
 11 12  1  0
 11 16  2  0
 12 13  2  0
 13 14  1  0
 15 14  2  0
 16 15  1  0
 17  6  1  0
 18 17  2  0
 20 19  1  1
 20 22  1  0
 20 21  1  0
 21 17  1  0
 22 23  1  0
 24 22  2  0
M  END
$$$$
