GWA.pdb
     RDKit          3D

 24 25  0  0  1  0  0  0  0  0999 V2000
    5.1372  -19.7889   22.4663 N   0  0  0  0  0  0  0  0  0  0  0  0
    6.0515  -19.4840   23.5307 C   0  0  0  0  0  0  0  0  0  0  0  0
    6.8134  -18.2340   23.2833 C   0  0  0  0  0  0  0  0  0  0  0  0
    6.6466  -17.5962   22.2149 O   0  0  0  0  0  0  0  0  0  0  0  0
    7.7455  -17.7087   24.2162 N   0  0  0  0  0  0  0  0  0  0  0  0
    8.4871  -16.4798   24.0423 C   0  0  1  0  0  0  0  0  0  0  0  0
    8.6079  -15.6262   25.2431 C   0  0  0  0  0  0  0  0  0  0  0  0
    7.3944  -14.9732   25.7306 C   0  0  0  0  0  0  0  0  0  0  0  0
    6.1983  -15.4720   26.1715 C   0  0  0  0  0  0  0  0  0  0  0  0
    5.4242  -14.4285   26.4981 N   0  0  0  0  0  0  0  0  0  0  0  0
    6.0664  -13.2875   26.2878 C   0  0  0  0  0  0  0  0  0  0  0  0
    5.6711  -11.9696   26.4771 C   0  0  0  0  0  0  0  0  0  0  0  0
    6.5702  -10.9740   26.1633 C   0  0  0  0  0  0  0  0  0  0  0  0
    7.8216  -11.2531   25.6779 C   0  0  0  0  0  0  0  0  0  0  0  0
    8.2018  -12.5549   25.4948 C   0  0  0  0  0  0  0  0  0  0  0  0
    7.3113  -13.5839   25.8042 C   0  0  0  0  0  0  0  0  0  0  0  0
    9.8975  -16.9347   23.7205 C   0  0  0  0  0  0  0  0  0  0  0  0
   10.3365  -17.9176   24.4014 O   0  0  0  0  0  0  0  0  0  0  0  0
   12.5825  -16.3672   21.1618 C   0  0  0  0  0  0  0  0  0  0  0  0
   12.0082  -16.9274   22.4223 C   0  0  2  0  0  0  0  0  0  0  0  0
   10.7044  -16.3432   22.7459 N   0  0  0  0  0  0  0  0  0  0  0  0
   12.9675  -16.6567   23.5195 C   0  0  0  0  0  0  0  0  0  0  0  0
   12.5186  -15.9499   24.6282 O   0  0  0  0  0  0  0  0  0  0  0  0
   14.1309  -17.0603   23.4266 O   0  0  0  0  0  0  0  0  0  0  0  0
  1  2  1  0
  3  4  2  0
  3  2  1  0
  5  3  1  0
  6  5  1  0
  6  7  1  1
  8  7  1  0
  8 16  1  0
  9  8  2  0
 10  9  1  0
 10 11  1  0
 11 12  1  0
 11 16  2  0
 12 13  2  0
 13 14  1  0
 15 14  2  0
 16 15  1  0
 17  6  1  0
 18 17  2  0
 20 19  1  6
 20 22  1  0
 20 21  1  0
 21 17  1  0
 22 23  1  0
 24 22  2  0
M  END
$$$$
