GWA.pdb
     RDKit          3D

 24 25  0  0  1  0  0  0  0  0999 V2000
    6.5588  -16.6381   19.5842 N   0  0  0  0  0  0  0  0  0  0  0  0
    6.8590  -17.1814   20.8789 C   0  0  0  0  0  0  0  0  0  0  0  0
    7.8500  -16.3626   21.6217 C   0  0  0  0  0  0  0  0  0  0  0  0
    8.3638  -15.3527   21.0812 O   0  0  0  0  0  0  0  0  0  0  0  0
    8.2578  -16.6704   22.9460 N   0  0  0  0  0  0  0  0  0  0  0  0
    9.2053  -15.8999   23.7201 C   0  0  1  0  0  0  0  0  0  0  0  0
    8.9478  -15.8377   25.1744 C   0  0  0  0  0  0  0  0  0  0  0  0
    7.6945  -15.2252   25.6113 C   0  0  0  0  0  0  0  0  0  0  0  0
    6.4430  -15.7414   25.8136 C   0  0  0  0  0  0  0  0  0  0  0  0
    5.6533  -14.7351   26.2115 N   0  0  0  0  0  0  0  0  0  0  0  0
    6.3382  -13.6013   26.2736 C   0  0  0  0  0  0  0  0  0  0  0  0
    5.9466  -12.3170   26.6291 C   0  0  0  0  0  0  0  0  0  0  0  0
    6.8967  -11.3198   26.5973 C   0  0  0  0  0  0  0  0  0  0  0  0
    8.1943  -11.5655   26.2292 C   0  0  0  0  0  0  0  0  0  0  0  0
    8.5704  -12.8343   25.8805 C   0  0  0  0  0  0  0  0  0  0  0  0
    7.6287  -13.8640   25.9036 C   0  0  0  0  0  0  0  0  0  0  0  0
   10.5136  -16.6517   23.5685 C   0  0  0  0  0  0  0  0  0  0  0  0
   10.4637  -17.9074   23.7762 O   0  0  0  0  0  0  0  0  0  0  0  0
   13.9694  -16.1632   22.2313 C   0  0  0  0  0  0  0  0  0  0  0  0
   12.9232  -16.8678   23.0321 C   0  0  2  0  0  0  0  0  0  0  0  0
   11.7247  -16.0474   23.2238 N   0  0  0  0  0  0  0  0  0  0  0  0
   13.5125  -17.2133   24.3477 C   0  0  0  0  0  0  0  0  0  0  0  0
   14.6395  -18.0255   24.3724 O   0  0  0  0  0  0  0  0  0  0  0  0
   12.9963  -16.7771   25.3812 O   0  0  0  0  0  0  0  0  0  0  0  0
  1  2  1  0
  3  4  2  0
  3  2  1  0
  5  3  1  0
  6  5  1  0
  6  7  1  1
  8  7  1  0
  8 16  1  0
  9  8  2  0
 10  9  1  0
 10 11  1  0
 11 12  1  0
 11 16  2  0
 12 13  2  0
 13 14  1  0
 15 14  2  0
 16 15  1  0
 17  6  1  0
 18 17  2  0
 20 19  1  6
 20 22  1  0
 20 21  1  0
 21 17  1  0
 22 23  1  0
 24 22  2  0
M  END
$$$$
