GWA.pdb
     RDKit          3D

 24 25  0  0  1  0  0  0  0  0999 V2000
    6.7806  -16.4326   19.3154 N   0  0  0  0  0  0  0  0  0  0  0  0
    6.8977  -17.0044   20.6273 C   0  0  0  0  0  0  0  0  0  0  0  0
    7.8701  -16.2745   21.4793 C   0  0  0  0  0  0  0  0  0  0  0  0
    8.5046  -15.2963   21.0140 O   0  0  0  0  0  0  0  0  0  0  0  0
    8.1268  -16.6347   22.8281 N   0  0  0  0  0  0  0  0  0  0  0  0
    9.0863  -15.9820   23.6906 C   0  0  1  0  0  0  0  0  0  0  0  0
    8.7575  -15.9787   25.1318 C   0  0  0  0  0  0  0  0  0  0  0  0
    7.5635  -15.2458   25.5490 C   0  0  0  0  0  0  0  0  0  0  0  0
    6.2703  -15.6426   25.7585 C   0  0  0  0  0  0  0  0  0  0  0  0
    5.5734  -14.5602   26.1293 N   0  0  0  0  0  0  0  0  0  0  0  0
    6.3573  -13.4913   26.1672 C   0  0  0  0  0  0  0  0  0  0  0  0
    6.0820  -12.1689   26.4905 C   0  0  0  0  0  0  0  0  0  0  0  0
    7.1179  -11.2621   26.4389 C   0  0  0  0  0  0  0  0  0  0  0  0
    8.3889  -11.6321   26.0819 C   0  0  0  0  0  0  0  0  0  0  0  0
    8.6501  -12.9375   25.7649 C   0  0  0  0  0  0  0  0  0  0  0  0
    7.6197  -13.8777   25.8087 C   0  0  0  0  0  0  0  0  0  0  0  0
   10.3417  -16.8224   23.5596 C   0  0  0  0  0  0  0  0  0  0  0  0
   10.1741  -18.0848   23.5852 O   0  0  0  0  0  0  0  0  0  0  0  0
   13.9197  -16.5271   22.5713 C   0  0  0  0  0  0  0  0  0  0  0  0
   12.7764  -17.1845   23.2735 C   0  0  2  0  0  0  0  0  0  0  0  0
   11.6252  -16.2901   23.4176 N   0  0  0  0  0  0  0  0  0  0  0  0
   13.2500  -17.6150   24.6105 C   0  0  0  0  0  0  0  0  0  0  0  0
   14.2374  -18.5901   24.6778 O   0  0  0  0  0  0  0  0  0  0  0  0
   12.7634  -17.1041   25.6240 O   0  0  0  0  0  0  0  0  0  0  0  0
  1  2  1  0
  3  4  2  0
  3  2  1  0
  5  3  1  0
  6  5  1  0
  6  7  1  1
  8  7  1  0
  8 16  1  0
  9  8  2  0
 10  9  1  0
 10 11  1  0
 11 12  1  0
 11 16  2  0
 12 13  2  0
 13 14  1  0
 15 14  2  0
 16 15  1  0
 17  6  1  0
 18 17  2  0
 20 19  1  1
 20 22  1  0
 20 21  1  0
 21 17  1  0
 22 23  1  0
 24 22  2  0
M  END
$$$$
