GWA.pdb
     RDKit          3D

 24 25  0  0  1  0  0  0  0  0999 V2000
    5.5423  -19.5214   21.5753 N   0  0  0  0  0  0  0  0  0  0  0  0
    5.7853  -18.9021   22.8477 C   0  0  0  0  0  0  0  0  0  0  0  0
    6.6543  -17.7033   22.7382 C   0  0  0  0  0  0  0  0  0  0  0  0
    6.3873  -16.8067   21.9010 O   0  0  0  0  0  0  0  0  0  0  0  0
    7.8016  -17.5131   23.5521 N   0  0  0  0  0  0  0  0  0  0  0  0
    8.6223  -16.3227   23.5600 C   0  0  1  0  0  0  0  0  0  0  0  0
    8.7716  -15.6533   24.8695 C   0  0  0  0  0  0  0  0  0  0  0  0
    7.5815  -15.0331   25.4489 C   0  0  0  0  0  0  0  0  0  0  0  0
    6.3844  -15.5535   25.8608 C   0  0  0  0  0  0  0  0  0  0  0  0
    5.6384  -14.5362   26.3117 N   0  0  0  0  0  0  0  0  0  0  0  0
    6.2996  -13.3914   26.2084 C   0  0  0  0  0  0  0  0  0  0  0  0
    5.9351  -12.0937   26.5433 C   0  0  0  0  0  0  0  0  0  0  0  0
    6.8481  -11.0872   26.3163 C   0  0  0  0  0  0  0  0  0  0  0  0
    8.0838  -11.3366   25.7774 C   0  0  0  0  0  0  0  0  0  0  0  0
    8.4336  -12.6187   25.4505 C   0  0  0  0  0  0  0  0  0  0  0  0
    7.5284  -13.6580   25.6696 C   0  0  0  0  0  0  0  0  0  0  0  0
   10.0077  -16.8194   23.1945 C   0  0  0  0  0  0  0  0  0  0  0  0
   10.3464  -17.9437   23.6879 O   0  0  0  0  0  0  0  0  0  0  0  0
   12.8688  -15.9763   20.9160 C   0  0  0  0  0  0  0  0  0  0  0  0
   12.1906  -16.7104   22.0266 C   0  0  2  0  0  0  0  0  0  0  0  0
   10.8940  -16.1217   22.3707 N   0  0  0  0  0  0  0  0  0  0  0  0
   13.0868  -16.6792   23.2070 C   0  0  0  0  0  0  0  0  0  0  0  0
   14.3075  -17.3376   23.1255 O   0  0  0  0  0  0  0  0  0  0  0  0
   12.7343  -16.0758   24.2252 O   0  0  0  0  0  0  0  0  0  0  0  0
  1  2  1  0
  3  4  2  0
  3  2  1  0
  5  3  1  0
  6  5  1  0
  6  7  1  1
  8  7  1  0
  8 16  1  0
  9  8  2  0
 10  9  1  0
 10 11  1  0
 11 12  1  0
 11 16  2  0
 12 13  2  0
 13 14  1  0
 15 14  2  0
 16 15  1  0
 17  6  1  0
 18 17  2  0
 20 19  1  6
 20 22  1  0
 20 21  1  0
 21 17  1  0
 22 23  1  0
 24 22  2  0
M  END
$$$$
