GWA.pdb
     RDKit          3D

 24 25  0  0  1  0  0  0  0  0999 V2000
    5.2241  -17.5990   20.6433 N   0  0  0  0  0  0  0  0  0  0  0  0
    6.3771  -18.1567   21.2923 C   0  0  0  0  0  0  0  0  0  0  0  0
    7.3131  -17.1130   21.7811 C   0  0  0  0  0  0  0  0  0  0  0  0
    7.5336  -16.0903   21.0872 O   0  0  0  0  0  0  0  0  0  0  0  0
    7.9897  -17.2140   23.0249 N   0  0  0  0  0  0  0  0  0  0  0  0
    8.8917  -16.2184   23.5593 C   0  0  1  0  0  0  0  0  0  0  0  0
    8.8072  -15.9905   25.0174 C   0  0  0  0  0  0  0  0  0  0  0  0
    7.6034  -15.3376   25.5287 C   0  0  0  0  0  0  0  0  0  0  0  0
    6.3730  -15.8257   25.8772 C   0  0  0  0  0  0  0  0  0  0  0  0
    5.6295  -14.7876   26.2827 N   0  0  0  0  0  0  0  0  0  0  0  0
    6.3240  -13.6603   26.2106 C   0  0  0  0  0  0  0  0  0  0  0  0
    5.9747  -12.3520   26.5199 C   0  0  0  0  0  0  0  0  0  0  0  0
    6.9238  -11.3699   26.3386 C   0  0  0  0  0  0  0  0  0  0  0  0
    8.1802  -11.6530   25.8686 C   0  0  0  0  0  0  0  0  0  0  0  0
    8.5147  -12.9452   25.5666 C   0  0  0  0  0  0  0  0  0  0  0  0
    7.5731  -13.9604   25.7404 C   0  0  0  0  0  0  0  0  0  0  0  0
   10.2734  -16.7937   23.3149 C   0  0  0  0  0  0  0  0  0  0  0  0
   10.4378  -18.0124   23.6467 O   0  0  0  0  0  0  0  0  0  0  0  0
   13.4369  -16.0146   21.4948 C   0  0  0  0  0  0  0  0  0  0  0  0
   12.6211  -16.7260   22.5247 C   0  0  2  0  0  0  0  0  0  0  0  0
   11.3328  -16.0703   22.7624 N   0  0  0  0  0  0  0  0  0  0  0  0
   13.4063  -16.7635   23.7814 C   0  0  0  0  0  0  0  0  0  0  0  0
   12.8254  -16.2565   24.9372 O   0  0  0  0  0  0  0  0  0  0  0  0
   14.5459  -17.2392   23.7751 O   0  0  0  0  0  0  0  0  0  0  0  0
  1  2  1  0
  3  4  2  0
  3  2  1  0
  5  3  1  0
  6  5  1  0
  6  7  1  1
  8  7  1  0
  8 16  1  0
  9  8  2  0
 10  9  1  0
 10 11  1  0
 11 12  1  0
 11 16  2  0
 12 13  2  0
 13 14  1  0
 15 14  2  0
 16 15  1  0
 17  6  1  0
 18 17  2  0
 20 19  1  6
 20 22  1  0
 20 21  1  0
 21 17  1  0
 22 23  1  0
 24 22  2  0
M  END
$$$$
