GWA.pdb
     RDKit          3D

 24 25  0  0  1  0  0  0  0  0999 V2000
    6.7577  -16.7243   19.2868 N   0  0  0  0  0  0  0  0  0  0  0  0
    6.8572  -17.1133   20.6653 C   0  0  0  0  0  0  0  0  0  0  0  0
    7.8770  -16.3270   21.4043 C   0  0  0  0  0  0  0  0  0  0  0  0
    8.5190  -15.4209   20.8188 O   0  0  0  0  0  0  0  0  0  0  0  0
    8.1720  -16.5526   22.7744 N   0  0  0  0  0  0  0  0  0  0  0  0
    9.1551  -15.8199   23.5405 C   0  0  1  0  0  0  0  0  0  0  0  0
    8.8989  -15.7264   24.9934 C   0  0  0  0  0  0  0  0  0  0  0  0
    7.6438  -15.1089   25.4180 C   0  0  0  0  0  0  0  0  0  0  0  0
    6.3868  -15.6186   25.6009 C   0  0  0  0  0  0  0  0  0  0  0  0
    5.5981  -14.6099   25.9951 N   0  0  0  0  0  0  0  0  0  0  0  0
    6.2890  -13.4808   26.0731 C   0  0  0  0  0  0  0  0  0  0  0  0
    5.9007  -12.1963   26.4316 C   0  0  0  0  0  0  0  0  0  0  0  0
    6.8573  -11.2049   26.4183 C   0  0  0  0  0  0  0  0  0  0  0  0
    8.1579  -11.4563   26.0653 C   0  0  0  0  0  0  0  0  0  0  0  0
    8.5307  -12.7252   25.7135 C   0  0  0  0  0  0  0  0  0  0  0  0
    7.5825  -13.7492   25.7180 C   0  0  0  0  0  0  0  0  0  0  0  0
   10.4250  -16.6371   23.4012 C   0  0  0  0  0  0  0  0  0  0  0  0
   10.2915  -17.8994   23.5070 O   0  0  0  0  0  0  0  0  0  0  0  0
   13.8203  -16.3168   21.9744 C   0  0  0  0  0  0  0  0  0  0  0  0
   12.8282  -16.9583   22.8891 C   0  0  2  0  0  0  0  0  0  0  0  0
   11.6867  -16.0842   23.1706 N   0  0  0  0  0  0  0  0  0  0  0  0
   13.5261  -17.2974   24.1521 C   0  0  0  0  0  0  0  0  0  0  0  0
   13.0583  -16.7377   25.3346 O   0  0  0  0  0  0  0  0  0  0  0  0
   14.4962  -18.0611   24.1273 O   0  0  0  0  0  0  0  0  0  0  0  0
  1  2  1  0
  3  4  2  0
  3  2  1  0
  5  3  1  0
  6  5  1  0
  6  7  1  1
  8  7  1  0
  8 16  1  0
  9  8  2  0
 10  9  1  0
 10 11  1  0
 11 12  1  0
 11 16  2  0
 12 13  2  0
 13 14  1  0
 15 14  2  0
 16 15  1  0
 17  6  1  0
 18 17  2  0
 20 19  1  6
 20 22  1  0
 20 21  1  0
 21 17  1  0
 22 23  1  0
 24 22  2  0
M  END
$$$$
