GWA.pdb
     RDKit          3D

 24 25  0  0  1  0  0  0  0  0999 V2000
    6.8687  -15.9208   19.3708 N   0  0  0  0  0  0  0  0  0  0  0  0
    7.0267  -16.5802   20.6364 C   0  0  0  0  0  0  0  0  0  0  0  0
    7.9926  -15.8830   21.5225 C   0  0  0  0  0  0  0  0  0  0  0  0
    8.5042  -14.7943   21.1630 O   0  0  0  0  0  0  0  0  0  0  0  0
    8.3782  -16.3967   22.7883 N   0  0  0  0  0  0  0  0  0  0  0  0
    9.3046  -15.7552   23.6944 C   0  0  1  0  0  0  0  0  0  0  0  0
    8.9130  -15.7535   25.1198 C   0  0  0  0  0  0  0  0  0  0  0  0
    7.6239  -15.1563   25.4638 C   0  0  0  0  0  0  0  0  0  0  0  0
    6.3616  -15.6802   25.5404 C   0  0  0  0  0  0  0  0  0  0  0  0
    5.5361  -14.6875   25.8980 N   0  0  0  0  0  0  0  0  0  0  0  0
    6.2084  -13.5552   26.0538 C   0  0  0  0  0  0  0  0  0  0  0  0
    5.7821  -12.2828   26.4122 C   0  0  0  0  0  0  0  0  0  0  0  0
    6.7273  -11.2838   26.4936 C   0  0  0  0  0  0  0  0  0  0  0  0
    8.0530  -11.5164   26.2329 C   0  0  0  0  0  0  0  0  0  0  0  0
    8.4632  -12.7735   25.8803 C   0  0  0  0  0  0  0  0  0  0  0  0
    7.5273  -13.8048   25.7901 C   0  0  0  0  0  0  0  0  0  0  0  0
   10.5572  -16.6064   23.6156 C   0  0  0  0  0  0  0  0  0  0  0  0
   10.3774  -17.8673   23.6258 O   0  0  0  0  0  0  0  0  0  0  0  0
   14.1805  -16.3403   22.7988 C   0  0  0  0  0  0  0  0  0  0  0  0
   12.9995  -16.9892   23.4441 C   0  0  2  0  0  0  0  0  0  0  0  0
   11.8505  -16.0849   23.5355 N   0  0  0  0  0  0  0  0  0  0  0  0
   13.4051  -17.4265   24.8011 C   0  0  0  0  0  0  0  0  0  0  0  0
   14.4910  -18.2851   24.9199 O   0  0  0  0  0  0  0  0  0  0  0  0
   12.7776  -17.0234   25.7853 O   0  0  0  0  0  0  0  0  0  0  0  0
  1  2  1  0
  3  4  2  0
  3  2  1  0
  5  3  1  0
  6  5  1  0
  6  7  1  1
  8  7  1  0
  8 16  1  0
  9  8  2  0
 10  9  1  0
 10 11  1  0
 11 12  1  0
 11 16  2  0
 12 13  2  0
 13 14  1  0
 15 14  2  0
 16 15  1  0
 17  6  1  0
 18 17  2  0
 20 19  1  1
 20 22  1  0
 20 21  1  0
 21 17  1  0
 22 23  1  0
 24 22  2  0
M  END
$$$$
