GWA.pdb
     RDKit          3D

 24 25  0  0  1  0  0  0  0  0999 V2000
    7.3411  -17.0813   19.4929 N   0  0  0  0  0  0  0  0  0  0  0  0
    7.3904  -17.4348   20.8837 C   0  0  0  0  0  0  0  0  0  0  0  0
    8.4325  -16.6797   21.6242 C   0  0  0  0  0  0  0  0  0  0  0  0
    9.1796  -15.8756   21.0149 O   0  0  0  0  0  0  0  0  0  0  0  0
    8.6336  -16.8237   23.0219 N   0  0  0  0  0  0  0  0  0  0  0  0
    9.5137  -16.0000   23.8204 C   0  0  1  0  0  0  0  0  0  0  0  0
    9.1499  -15.8650   25.2467 C   0  0  0  0  0  0  0  0  0  0  0  0
    7.8266  -15.3268   25.5566 C   0  0  0  0  0  0  0  0  0  0  0  0
    6.5990  -15.9211   25.6732 C   0  0  0  0  0  0  0  0  0  0  0  0
    5.7141  -14.9596   25.9686 N   0  0  0  0  0  0  0  0  0  0  0  0
    6.3154  -13.7803   26.0467 C   0  0  0  0  0  0  0  0  0  0  0  0
    5.8117  -12.5158   26.3228 C   0  0  0  0  0  0  0  0  0  0  0  0
    6.6937  -11.4574   26.3341 C   0  0  0  0  0  0  0  0  0  0  0  0
    8.0311  -11.6247   26.0833 C   0  0  0  0  0  0  0  0  0  0  0  0
    8.5178  -12.8747   25.8121 C   0  0  0  0  0  0  0  0  0  0  0  0
    7.6471  -13.9652   25.7940 C   0  0  0  0  0  0  0  0  0  0  0  0
   10.8375  -16.7397   23.8044 C   0  0  0  0  0  0  0  0  0  0  0  0
   10.7693  -18.0089   23.8875 O   0  0  0  0  0  0  0  0  0  0  0  0
   14.3895  -16.2030   22.8703 C   0  0  0  0  0  0  0  0  0  0  0  0
   13.3013  -16.9153   23.6056 C   0  0  2  0  0  0  0  0  0  0  0  0
   12.0809  -16.1111   23.7063 N   0  0  0  0  0  0  0  0  0  0  0  0
   13.8043  -17.2388   24.9620 C   0  0  0  0  0  0  0  0  0  0  0  0
   14.9716  -17.9844   25.0717 O   0  0  0  0  0  0  0  0  0  0  0  0
   13.1835  -16.8435   25.9536 O   0  0  0  0  0  0  0  0  0  0  0  0
  1  2  1  0
  3  4  2  0
  3  2  1  0
  5  3  1  0
  6  5  1  0
  6  7  1  1
  8  7  1  0
  8 16  1  0
  9  8  2  0
 10  9  1  0
 10 11  1  0
 11 12  1  0
 11 16  2  0
 12 13  2  0
 13 14  1  0
 15 14  2  0
 16 15  1  0
 17  6  1  0
 18 17  2  0
 20 19  1  6
 20 22  1  0
 20 21  1  0
 21 17  1  0
 22 23  1  0
 24 22  2  0
M  END
$$$$
