CCE.pdb
     RDKit          3D

 22 21  0  0  1  0  0  0  0  0999 V2000
    8.0855  -13.5153   19.7297 N   0  0  0  0  0  0  0  0  0  0  0  0
    7.2280  -13.6994   20.8572 C   0  0  1  0  0  0  0  0  0  0  0  0
    6.2826  -14.8430   20.6044 C   0  0  0  0  0  0  0  0  0  0  0  0
    7.2776  -16.3745   20.5376 S   0  0  0  0  0  0  0  0  0  0  0  0
    7.9595  -13.8390   22.1358 C   0  0  0  0  0  0  0  0  0  0  0  0
    9.1873  -14.1084   22.0988 O   0  0  0  0  0  0  0  0  0  0  0  0
    7.3673  -13.6889   23.4139 N   0  0  0  0  0  0  0  0  0  0  0  0
    8.0574  -13.9546   24.6589 C   0  0  1  0  0  0  0  0  0  0  0  0
    7.2690  -13.4699   25.8552 C   0  0  0  0  0  0  0  0  0  0  0  0
    5.5229  -13.8580   25.5533 S   0  0  0  0  0  0  0  0  0  0  0  0
    8.3597  -15.3782   24.8524 C   0  0  0  0  0  0  0  0  0  0  0  0
    7.6213  -16.3168   24.4677 O   0  0  0  0  0  0  0  0  0  0  0  0
    9.5682  -15.7205   25.5192 N   0  0  0  0  0  0  0  0  0  0  0  0
    9.9840  -17.0938   25.7258 C   0  0  1  0  0  0  0  0  0  0  0  0
   11.3487  -17.3050   25.1033 C   0  0  0  0  0  0  0  0  0  0  0  0
   11.8095  -18.7467   25.2846 C   0  0  0  0  0  0  0  0  0  0  0  0
   13.1760  -18.8307   24.6575 C   0  0  0  0  0  0  0  0  0  0  0  0
   13.7229  -17.8770   24.0863 O   0  0  0  0  0  0  0  0  0  0  0  0
   10.1292  -17.3154   27.1883 C   0  0  0  0  0  0  0  0  0  0  0  0
   10.1928  -16.3790   28.0246 O   0  0  0  0  0  0  0  0  0  0  0  0
   13.8323  -20.0532   24.7396 O   0  0  0  0  0  0  0  0  0  0  0  0
   10.2031  -18.6131   27.7073 O   0  0  0  0  0  0  0  0  0  0  0  0
  2  1  1  6
  2  5  1  0
  3  2  1  0
  4  3  1  0
  5  6  2  0
  7  5  1  0
  7  8  1  0
  8 11  1  0
  8  9  1  1
 10  9  1  0
 11 13  1  0
 11 12  2  0
 13 14  1  0
 14 15  1  6
 15 16  1  0
 17 16  1  0
 18 17  2  0
 19 14  1  0
 19 22  1  0
 20 19  2  0
 21 17  1  0
M  END
$$$$
