CCE.pdb
     RDKit          3D

 22 21  0  0  1  0  0  0  0  0999 V2000
    7.8395  -12.9489   19.4936 N   0  0  0  0  0  0  0  0  0  0  0  0
    7.0699  -13.4820   20.5725 C   0  0  1  0  0  0  0  0  0  0  0  0
    6.4714  -14.8045   20.1745 C   0  0  0  0  0  0  0  0  0  0  0  0
    7.8443  -15.9972   19.9939 S   0  0  0  0  0  0  0  0  0  0  0  0
    7.8174  -13.5572   21.8472 C   0  0  0  0  0  0  0  0  0  0  0  0
    9.0717  -13.6371   21.8040 O   0  0  0  0  0  0  0  0  0  0  0  0
    7.2127  -13.5455   23.1282 N   0  0  0  0  0  0  0  0  0  0  0  0
    7.9401  -13.7386   24.3654 C   0  0  1  0  0  0  0  0  0  0  0  0
    7.0915  -13.4148   25.5748 C   0  0  0  0  0  0  0  0  0  0  0  0
    5.5031  -14.2674   25.3727 S   0  0  0  0  0  0  0  0  0  0  0  0
    8.4570  -15.1042   24.5175 C   0  0  0  0  0  0  0  0  0  0  0  0
    7.9142  -16.1246   24.0291 O   0  0  0  0  0  0  0  0  0  0  0  0
    9.6516  -15.2874   25.2669 N   0  0  0  0  0  0  0  0  0  0  0  0
   10.3553  -16.5538   25.3173 C   0  0  1  0  0  0  0  0  0  0  0  0
   11.7779  -16.3580   24.8352 C   0  0  0  0  0  0  0  0  0  0  0  0
   12.5369  -17.6799   24.8362 C   0  0  0  0  0  0  0  0  0  0  0  0
   13.9227  -17.3665   24.3372 C   0  0  0  0  0  0  0  0  0  0  0  0
   14.2943  -16.2250   24.0309 O   0  0  0  0  0  0  0  0  0  0  0  0
   10.4282  -16.9833   26.7383 C   0  0  0  0  0  0  0  0  0  0  0  0
   10.1707  -16.2201   27.7034 O   0  0  0  0  0  0  0  0  0  0  0  0
   14.8076  -18.4327   24.2252 O   0  0  0  0  0  0  0  0  0  0  0  0
   10.7973  -18.2926   27.0677 O   0  0  0  0  0  0  0  0  0  0  0  0
  2  1  1  6
  2  5  1  0
  3  2  1  0
  4  3  1  0
  5  6  2  0
  7  5  1  0
  7  8  1  0
  8 11  1  0
  8  9  1  1
 10  9  1  0
 11 13  1  0
 11 12  2  0
 13 14  1  0
 14 15  1  1
 15 16  1  0
 17 16  1  0
 18 17  2  0
 19 14  1  0
 19 22  1  0
 20 19  2  0
 21 17  1  0
M  END
$$$$
