CCE.pdb
     RDKit          3D

 22 21  0  0  1  0  0  0  0  0999 V2000
    5.1855  -13.4781   26.0833 N   0  0  0  0  0  0  0  0  0  0  0  0
    6.4303  -13.0883   25.5011 C   0  0  1  0  0  0  0  0  0  0  0  0
    7.2899  -12.4060   26.5312 C   0  0  0  0  0  0  0  0  0  0  0  0
    6.5698  -10.7554   26.8423 S   0  0  0  0  0  0  0  0  0  0  0  0
    7.1332  -14.1972   24.8189 C   0  0  0  0  0  0  0  0  0  0  0  0
    7.2162  -15.3066   25.4053 O   0  0  0  0  0  0  0  0  0  0  0  0
    7.7264  -14.0964   23.5363 N   0  0  0  0  0  0  0  0  0  0  0  0
    8.4412  -15.1777   22.8909 C   0  0  1  0  0  0  0  0  0  0  0  0
    8.7009  -14.8886   21.4292 C   0  0  0  0  0  0  0  0  0  0  0  0
    7.1061  -14.9523   20.5671 S   0  0  0  0  0  0  0  0  0  0  0  0
    9.7249  -15.4797   23.5360 C   0  0  0  0  0  0  0  0  0  0  0  0
   10.5121  -14.6123   23.9855 O   0  0  0  0  0  0  0  0  0  0  0  0
   10.1052  -16.8442   23.6620 N   0  0  0  0  0  0  0  0  0  0  0  0
   11.4144  -17.2494   24.1346 C   0  0  1  0  0  0  0  0  0  0  0  0
   11.2573  -18.3237   25.1909 C   0  0  0  0  0  0  0  0  0  0  0  0
   10.5815  -17.7633   26.4371 C   0  0  0  0  0  0  0  0  0  0  0  0
   10.8037  -18.7796   27.5259 C   0  0  0  0  0  0  0  0  0  0  0  0
   11.5540  -19.7577   27.4016 O   0  0  0  0  0  0  0  0  0  0  0  0
   12.1470  -17.8587   22.9939 C   0  0  0  0  0  0  0  0  0  0  0  0
   11.5916  -18.1907   21.9162 O   0  0  0  0  0  0  0  0  0  0  0  0
   10.1186  -18.5836   28.7193 O   0  0  0  0  0  0  0  0  0  0  0  0
   13.5242  -18.0938   23.0770 O   0  0  0  0  0  0  0  0  0  0  0  0
  2  1  1  1
  2  5  1  0
  3  2  1  0
  4  3  1  0
  5  6  2  0
  7  5  1  0
  7  8  1  0
  8 11  1  0
  8  9  1  6
 10  9  1  0
 11 13  1  0
 11 12  2  0
 13 14  1  0
 14 15  1  1
 15 16  1  0
 17 16  1  0
 18 17  2  0
 19 14  1  0
 19 22  1  0
 20 19  2  0
 21 17  1  0
M  END
$$$$
