CCE.pdb
     RDKit          3D

 22 21  0  0  1  0  0  0  0  0999 V2000
    8.0578  -14.8788   13.4088 N   0  0  0  0  0  0  0  0  0  0  0  0
    7.8797  -15.3870   14.7319 C   0  0  1  0  0  0  0  0  0  0  0  0
    8.0285  -16.8848   14.7329 C   0  0  0  0  0  0  0  0  0  0  0  0
    7.8039  -17.4585   16.4535 S   0  0  0  0  0  0  0  0  0  0  0  0
    8.7450  -14.7294   15.7359 C   0  0  0  0  0  0  0  0  0  0  0  0
    9.9717  -14.6101   15.4856 O   0  0  0  0  0  0  0  0  0  0  0  0
    8.2839  -14.2185   16.9741 N   0  0  0  0  0  0  0  0  0  0  0  0
    9.1515  -13.6578   17.9888 C   0  0  1  0  0  0  0  0  0  0  0  0
    8.3711  -12.9142   19.0498 C   0  0  0  0  0  0  0  0  0  0  0  0
    7.2931  -14.1150   19.8784 S   0  0  0  0  0  0  0  0  0  0  0  0
    9.9830  -14.6694   18.6527 C   0  0  0  0  0  0  0  0  0  0  0  0
    9.6927  -15.8880   18.7237 O   0  0  0  0  0  0  0  0  0  0  0  0
   11.1985  -14.2446   19.2561 N   0  0  0  0  0  0  0  0  0  0  0  0
   12.1786  -15.1766   19.7780 C   0  0  1  0  0  0  0  0  0  0  0  0
   13.5438  -14.5202   19.7833 C   0  0  0  0  0  0  0  0  0  0  0  0
   14.5920  -15.4549   20.3759 C   0  0  0  0  0  0  0  0  0  0  0  0
   15.8872  -14.6868   20.3714 C   0  0  0  0  0  0  0  0  0  0  0  0
   16.1847  -13.8585   19.4994 O   0  0  0  0  0  0  0  0  0  0  0  0
   11.8270  -15.4703   21.1919 C   0  0  0  0  0  0  0  0  0  0  0  0
   11.0765  -14.7356   21.8826 O   0  0  0  0  0  0  0  0  0  0  0  0
   16.7737  -14.9415   21.4112 O   0  0  0  0  0  0  0  0  0  0  0  0
   12.3322  -16.6097   21.8287 O   0  0  0  0  0  0  0  0  0  0  0  0
  2  1  1  6
  2  5  1  0
  3  2  1  0
  4  3  1  0
  5  6  2  0
  7  5  1  0
  7  8  1  0
  8 11  1  0
  8  9  1  1
 10  9  1  0
 11 13  1  0
 11 12  2  0
 13 14  1  0
 14 15  1  1
 15 16  1  0
 17 16  1  0
 18 17  2  0
 19 14  1  0
 19 22  1  0
 20 19  2  0
 21 17  1  0
M  END
$$$$
