CCE.pdb
     RDKit          3D

 22 21  0  0  1  0  0  0  0  0999 V2000
    7.9885  -12.8255   19.7502 N   0  0  0  0  0  0  0  0  0  0  0  0
    7.4221  -13.6518   20.7685 C   0  0  1  0  0  0  0  0  0  0  0  0
    7.4154  -15.0890   20.3216 C   0  0  0  0  0  0  0  0  0  0  0  0
    7.1241  -15.1025   18.5175 S   0  0  0  0  0  0  0  0  0  0  0  0
    8.0570  -13.4715   22.0927 C   0  0  0  0  0  0  0  0  0  0  0  0
    8.8473  -12.5066   22.2535 O   0  0  0  0  0  0  0  0  0  0  0  0
    7.8350  -14.3194   23.2057 N   0  0  0  0  0  0  0  0  0  0  0  0
    7.9891  -13.8996   24.5830 C   0  0  1  0  0  0  0  0  0  0  0  0
    7.1162  -12.7085   24.9104 C   0  0  0  0  0  0  0  0  0  0  0  0
    5.6591  -13.3255   25.7975 S   0  0  0  0  0  0  0  0  0  0  0  0
    7.6890  -14.9685   25.5435 C   0  0  0  0  0  0  0  0  0  0  0  0
    7.4835  -14.7828   26.7672 O   0  0  0  0  0  0  0  0  0  0  0  0
    7.6258  -16.3041   25.0593 N   0  0  0  0  0  0  0  0  0  0  0  0
    8.7648  -17.2004   25.0895 C   0  0  1  0  0  0  0  0  0  0  0  0
    9.8644  -16.6460   24.2075 C   0  0  0  0  0  0  0  0  0  0  0  0
   11.0970  -17.5418   24.2509 C   0  0  0  0  0  0  0  0  0  0  0  0
   12.1176  -16.8921   23.3542 C   0  0  0  0  0  0  0  0  0  0  0  0
   13.0745  -16.2300   23.7795 O   0  0  0  0  0  0  0  0  0  0  0  0
    9.2899  -17.2303   26.4797 C   0  0  0  0  0  0  0  0  0  0  0  0
    9.2495  -16.2404   27.2534 O   0  0  0  0  0  0  0  0  0  0  0  0
   11.9510  -17.0614   21.9847 O   0  0  0  0  0  0  0  0  0  0  0  0
    9.8667  -18.3958   26.9973 O   0  0  0  0  0  0  0  0  0  0  0  0
  2  1  1  6
  2  5  1  0
  3  2  1  0
  4  3  1  0
  5  6  2  0
  7  5  1  0
  7  8  1  0
  8 11  1  0
  8  9  1  1
 10  9  1  0
 11 13  1  0
 11 12  2  0
 13 14  1  0
 14 15  1  6
 15 16  1  0
 17 16  1  0
 18 17  2  0
 19 14  1  0
 19 22  1  0
 20 19  2  0
 21 17  1  0
M  END
$$$$
