CCE.pdb
     RDKit          3D

 22 21  0  0  1  0  0  0  0  0999 V2000
    7.8221  -13.0549   19.8860 N   0  0  0  0  0  0  0  0  0  0  0  0
    6.9968  -13.3225   21.0208 C   0  0  1  0  0  0  0  0  0  0  0  0
    6.0529  -14.4546   20.7161 C   0  0  0  0  0  0  0  0  0  0  0  0
    7.0366  -15.9942   20.6731 S   0  0  0  0  0  0  0  0  0  0  0  0
    7.7637  -13.5419   22.2669 C   0  0  0  0  0  0  0  0  0  0  0  0
    8.9739  -13.8721   22.1771 O   0  0  0  0  0  0  0  0  0  0  0  0
    7.2247  -13.4047   23.5698 N   0  0  0  0  0  0  0  0  0  0  0  0
    7.9498  -13.7276   24.7809 C   0  0  1  0  0  0  0  0  0  0  0  0
    7.3410  -13.0645   25.9964 C   0  0  0  0  0  0  0  0  0  0  0  0
    5.5703  -13.4587   26.0053 S   0  0  0  0  0  0  0  0  0  0  0  0
    8.0260  -15.1718   25.0337 C   0  0  0  0  0  0  0  0  0  0  0  0
    7.0588  -15.9625   24.9167 O   0  0  0  0  0  0  0  0  0  0  0  0
    9.2766  -15.7147   25.4379 N   0  0  0  0  0  0  0  0  0  0  0  0
    9.4793  -17.1342   25.6513 C   0  0  1  0  0  0  0  0  0  0  0  0
   10.6134  -17.6181   24.7714 C   0  0  0  0  0  0  0  0  0  0  0  0
   11.7131  -16.5666   24.6781 C   0  0  0  0  0  0  0  0  0  0  0  0
   12.7561  -17.1337   23.7517 C   0  0  0  0  0  0  0  0  0  0  0  0
   12.5035  -17.5394   22.6087 O   0  0  0  0  0  0  0  0  0  0  0  0
    9.9030  -17.3314   27.0622 C   0  0  0  0  0  0  0  0  0  0  0  0
   10.1110  -16.3815   27.8588 O   0  0  0  0  0  0  0  0  0  0  0  0
   14.0594  -17.1920   24.2315 O   0  0  0  0  0  0  0  0  0  0  0  0
   10.0927  -18.6200   27.5745 O   0  0  0  0  0  0  0  0  0  0  0  0
  2  1  1  6
  2  5  1  0
  3  2  1  0
  4  3  1  0
  5  6  2  0
  7  5  1  0
  7  8  1  0
  8 11  1  0
  8  9  1  1
 10  9  1  0
 11 13  1  0
 11 12  2  0
 13 14  1  0
 14 15  1  6
 15 16  1  0
 17 16  1  0
 18 17  2  0
 19 14  1  0
 19 22  1  0
 20 19  2  0
 21 17  1  0
M  END
$$$$
