CCE.pdb
     RDKit          3D

 22 21  0  0  1  0  0  0  0  0999 V2000
    8.9364  -13.0275   17.7831 N   0  0  0  0  0  0  0  0  0  0  0  0
    8.3092  -14.0896   18.5036 C   0  0  1  0  0  0  0  0  0  0  0  0
    8.4899  -15.3895   17.7665 C   0  0  0  0  0  0  0  0  0  0  0  0
    7.3427  -15.3790   16.3440 S   0  0  0  0  0  0  0  0  0  0  0  0
    8.7371  -14.1740   19.9175 C   0  0  0  0  0  0  0  0  0  0  0  0
    9.9683  -14.1736   20.1733 O   0  0  0  0  0  0  0  0  0  0  0  0
    7.8470  -14.2563   21.0165 N   0  0  0  0  0  0  0  0  0  0  0  0
    8.2755  -14.3903   22.3932 C   0  0  1  0  0  0  0  0  0  0  0  0
    7.2102  -13.9287   23.3627 C   0  0  0  0  0  0  0  0  0  0  0  0
    7.8015  -14.2921   25.0388 S   0  0  0  0  0  0  0  0  0  0  0  0
    8.6525  -15.7653   22.7434 C   0  0  0  0  0  0  0  0  0  0  0  0
    7.9144  -16.7658   22.5751 O   0  0  0  0  0  0  0  0  0  0  0  0
    9.9382  -15.9821   23.3108 N   0  0  0  0  0  0  0  0  0  0  0  0
   10.4228  -17.3016   23.6654 C   0  0  1  0  0  0  0  0  0  0  0  0
   11.8109  -17.4984   23.0919 C   0  0  0  0  0  0  0  0  0  0  0  0
   12.7946  -16.5065   23.7019 C   0  0  0  0  0  0  0  0  0  0  0  0
   13.9299  -16.3862   22.7198 C   0  0  0  0  0  0  0  0  0  0  0  0
   14.3570  -17.3388   22.0527 O   0  0  0  0  0  0  0  0  0  0  0  0
   10.5460  -17.3641   25.1453 C   0  0  0  0  0  0  0  0  0  0  0  0
   10.3328  -16.3794   25.8971 O   0  0  0  0  0  0  0  0  0  0  0  0
   14.5077  -15.1302   22.5763 O   0  0  0  0  0  0  0  0  0  0  0  0
   10.9150  -18.5563   25.7788 O   0  0  0  0  0  0  0  0  0  0  0  0
  2  1  1  6
  2  5  1  0
  3  2  1  0
  4  3  1  0
  5  6  2  0
  7  5  1  0
  7  8  1  0
  8 11  1  0
  8  9  1  1
 10  9  1  0
 11 13  1  0
 11 12  2  0
 13 14  1  0
 14 15  1  6
 15 16  1  0
 17 16  1  0
 18 17  2  0
 19 14  1  0
 19 22  1  0
 20 19  2  0
 21 17  1  0
M  END
$$$$
