CCE.pdb
     RDKit          3D

 22 21  0  0  1  0  0  0  0  0999 V2000
    8.7509  -17.3979   16.1513 N   0  0  0  0  0  0  0  0  0  0  0  0
    8.0361  -17.4915   17.3846 C   0  0  1  0  0  0  0  0  0  0  0  0
    7.7648  -18.9347   17.7148 C   0  0  0  0  0  0  0  0  0  0  0  0
    6.9341  -18.9797   19.3419 S   0  0  0  0  0  0  0  0  0  0  0  0
    8.6873  -16.7666   18.4981 C   0  0  0  0  0  0  0  0  0  0  0  0
    9.9223  -16.9233   18.6758 O   0  0  0  0  0  0  0  0  0  0  0  0
    8.0096  -15.8982   19.3888 N   0  0  0  0  0  0  0  0  0  0  0  0
    8.6670  -15.1404   20.4331 C   0  0  1  0  0  0  0  0  0  0  0  0
    7.7073  -14.2153   21.1479 C   0  0  0  0  0  0  0  0  0  0  0  0
    7.1324  -12.9867   19.9435 S   0  0  0  0  0  0  0  0  0  0  0  0
    9.3174  -15.9934   21.4354 C   0  0  0  0  0  0  0  0  0  0  0  0
    8.8194  -17.0486   21.8967 O   0  0  0  0  0  0  0  0  0  0  0  0
   10.5965  -15.6018   21.9180 N   0  0  0  0  0  0  0  0  0  0  0  0
   11.4085  -16.4573   22.7608 C   0  0  1  0  0  0  0  0  0  0  0  0
   12.8418  -15.9676   22.7418 C   0  0  0  0  0  0  0  0  0  0  0  0
   13.7160  -16.8152   23.6588 C   0  0  0  0  0  0  0  0  0  0  0  0
   15.1144  -16.2737   23.5210 C   0  0  0  0  0  0  0  0  0  0  0  0
   15.8602  -16.0602   24.4870 O   0  0  0  0  0  0  0  0  0  0  0  0
   10.9180  -16.3261   24.1577 C   0  0  0  0  0  0  0  0  0  0  0  0
   11.3431  -17.0322   25.1069 O   0  0  0  0  0  0  0  0  0  0  0  0
   15.5630  -16.0097   22.2322 O   0  0  0  0  0  0  0  0  0  0  0  0
    9.9348  -15.3838   24.4810 O   0  0  0  0  0  0  0  0  0  0  0  0
  2  1  1  6
  2  5  1  0
  3  2  1  0
  4  3  1  0
  5  6  2  0
  7  5  1  0
  7  8  1  0
  8 11  1  0
  8  9  1  1
 10  9  1  0
 11 13  1  0
 11 12  2  0
 13 14  1  0
 14 15  1  1
 15 16  1  0
 17 16  1  0
 18 17  2  0
 19 14  1  0
 19 22  1  0
 20 19  2  0
 21 17  1  0
M  END
$$$$
