CCE.pdb
     RDKit          3D

 22 21  0  0  1  0  0  0  0  0999 V2000
    8.7936  -15.2677   20.3448 N   0  0  0  0  0  0  0  0  0  0  0  0
    7.8568  -15.4722   21.4036 C   0  0  1  0  0  0  0  0  0  0  0  0
    7.5281  -16.9359   21.5255 C   0  0  0  0  0  0  0  0  0  0  0  0
    6.8904  -17.4930   19.9060 S   0  0  0  0  0  0  0  0  0  0  0  0
    8.2832  -14.8766   22.6892 C   0  0  0  0  0  0  0  0  0  0  0  0
    9.5049  -14.9014   22.9865 O   0  0  0  0  0  0  0  0  0  0  0  0
    7.4020  -14.2734   23.6200 N   0  0  0  0  0  0  0  0  0  0  0  0
    7.8028  -13.8270   24.9379 C   0  0  1  0  0  0  0  0  0  0  0  0
    6.6859  -13.0966   25.6497 C   0  0  0  0  0  0  0  0  0  0  0  0
    7.3115  -12.5922   27.2760 S   0  0  0  0  0  0  0  0  0  0  0  0
    8.2577  -14.9252   25.7996 C   0  0  0  0  0  0  0  0  0  0  0  0
    7.5489  -15.9071   26.1276 O   0  0  0  0  0  0  0  0  0  0  0  0
    9.5889  -14.8770   26.2975 N   0  0  0  0  0  0  0  0  0  0  0  0
   10.1555  -15.9317   27.1148 C   0  0  1  0  0  0  0  0  0  0  0  0
   11.5655  -16.2277   26.6471 C   0  0  0  0  0  0  0  0  0  0  0  0
   12.1956  -17.3305   27.4899 C   0  0  0  0  0  0  0  0  0  0  0  0
   13.2606  -17.9574   26.6295 C   0  0  0  0  0  0  0  0  0  0  0  0
   14.0787  -17.2998   25.9713 O   0  0  0  0  0  0  0  0  0  0  0  0
   10.2518  -15.4306   28.5107 C   0  0  0  0  0  0  0  0  0  0  0  0
   10.1111  -14.2204   28.8201 O   0  0  0  0  0  0  0  0  0  0  0  0
   13.3029  -19.3462   26.5920 O   0  0  0  0  0  0  0  0  0  0  0  0
   10.5103  -16.3120   29.5668 O   0  0  0  0  0  0  0  0  0  0  0  0
  2  1  1  6
  2  5  1  0
  3  2  1  0
  4  3  1  0
  5  6  2  0
  7  5  1  0
  7  8  1  0
  8 11  1  0
  8  9  1  1
 10  9  1  0
 11 13  1  0
 11 12  2  0
 13 14  1  0
 14 15  1  6
 15 16  1  0
 17 16  1  0
 18 17  2  0
 19 14  1  0
 19 22  1  0
 20 19  2  0
 21 17  1  0
M  END
$$$$
