CCE.pdb
     RDKit          3D

 22 21  0  0  1  0  0  0  0  0999 V2000
    6.9060  -14.4687   18.5394 N   0  0  0  0  0  0  0  0  0  0  0  0
    8.1292  -14.2208   19.2342 C   0  0  1  0  0  0  0  0  0  0  0  0
    8.0256  -12.9411   20.0197 C   0  0  0  0  0  0  0  0  0  0  0  0
    7.8580  -11.5720   18.8209 S   0  0  0  0  0  0  0  0  0  0  0  0
    8.5762  -15.3618   20.0634 C   0  0  0  0  0  0  0  0  0  0  0  0
    7.8077  -16.3491   20.1905 O   0  0  0  0  0  0  0  0  0  0  0  0
    9.8235  -15.4214   20.7323 N   0  0  0  0  0  0  0  0  0  0  0  0
   10.3275  -16.6059   21.3954 C   0  0  1  0  0  0  0  0  0  0  0  0
   10.4364  -17.7795   20.4475 C   0  0  0  0  0  0  0  0  0  0  0  0
   12.1579  -17.8686   19.8826 S   0  0  0  0  0  0  0  0  0  0  0  0
   11.6387  -16.3963   22.0216 C   0  0  0  0  0  0  0  0  0  0  0  0
   12.5707  -15.7326   21.5066 O   0  0  0  0  0  0  0  0  0  0  0  0
   11.8723  -16.9823   23.2961 N   0  0  0  0  0  0  0  0  0  0  0  0
   12.8534  -16.4608   24.2273 C   0  0  1  0  0  0  0  0  0  0  0  0
   12.4945  -16.8974   25.6327 C   0  0  0  0  0  0  0  0  0  0  0  0
   12.1970  -18.3918   25.6762 C   0  0  0  0  0  0  0  0  0  0  0  0
   11.9145  -18.7199   27.1186 C   0  0  0  0  0  0  0  0  0  0  0  0
   11.9698  -17.8832   28.0306 O   0  0  0  0  0  0  0  0  0  0  0  0
   14.1684  -17.0712   23.9000 C   0  0  0  0  0  0  0  0  0  0  0  0
   14.2979  -18.0614   23.1363 O   0  0  0  0  0  0  0  0  0  0  0  0
   11.5771  -20.0363   27.4103 O   0  0  0  0  0  0  0  0  0  0  0  0
   15.3488  -16.5528   24.4447 O   0  0  0  0  0  0  0  0  0  0  0  0
  2  1  1  1
  2  5  1  0
  3  2  1  0
  4  3  1  0
  5  6  2  0
  7  5  1  0
  7  8  1  0
  8 11  1  0
  8  9  1  6
 10  9  1  0
 11 13  1  0
 11 12  2  0
 13 14  1  0
 14 15  1  1
 15 16  1  0
 17 16  1  0
 18 17  2  0
 19 14  1  0
 19 22  1  0
 20 19  2  0
 21 17  1  0
M  END
$$$$
