DHV.pdb
     RDKit          3D

 26 26  0  0  1  0  0  0  0  0999 V2000
   22.6091  -14.1854  -17.0238 N   0  0  0  0  0  0  0  0  0  0  0  0
   22.9889  -13.1403  -16.0900 C   0  0  1  0  0  0  0  0  0  0  0  0
   24.4878  -12.9687  -16.0833 C   0  0  0  0  0  0  0  0  0  0  0  0
   25.1817  -14.1447  -15.5162 C   0  0  0  0  0  0  0  0  0  0  0  0
   24.5273  -15.0952  -15.0536 O   0  0  0  0  0  0  0  0  0  0  0  0
   22.2896  -11.8917  -16.4918 C   0  0  0  0  0  0  0  0  0  0  0  0
   22.2081  -11.5439  -17.7043 O   0  0  0  0  0  0  0  0  0  0  0  0
   26.5546  -14.1882  -15.4999 O   0  0  0  0  0  0  0  0  0  0  0  0
   21.6747  -11.0201  -15.5423 N   0  0  0  0  0  0  0  0  0  0  0  0
   20.9300   -9.8365  -15.8884 C   0  0  1  0  0  0  0  0  0  0  0  0
   19.4841  -10.0530  -15.5493 C   0  0  0  0  0  0  0  0  0  0  0  0
   18.6124   -8.9269  -15.9533 C   0  0  0  0  0  0  0  0  0  0  0  0
   18.4101   -8.3713  -17.1863 C   0  0  0  0  0  0  0  0  0  0  0  0
   17.5243   -7.3667  -17.0558 N   0  0  0  0  0  0  0  0  0  0  0  0
   17.1606   -7.2700  -15.7798 C   0  0  0  0  0  0  0  0  0  0  0  0
   17.8291   -8.2244  -15.1184 N   0  0  0  0  0  0  0  0  0  0  0  0
   21.4794   -8.6208  -15.2175 C   0  0  0  0  0  0  0  0  0  0  0  0
   21.8868   -8.7014  -14.0314 O   0  0  0  0  0  0  0  0  0  0  0  0
   22.4796   -5.1742  -17.4718 C   0  0  0  0  0  0  0  0  0  0  0  0
   23.1269   -5.4941  -16.1489 C   0  0  1  0  0  0  0  0  0  0  0  0
   23.6835   -4.2126  -15.5878 C   0  0  0  0  0  0  0  0  0  0  0  0
   22.1875   -6.1960  -15.2482 C   0  0  2  0  0  0  0  0  0  0  0  0
   21.5656   -7.3615  -15.8612 N   0  0  0  0  0  0  0  0  0  0  0  0
   21.1454   -5.2267  -14.7965 C   0  0  0  0  0  0  0  0  0  0  0  0
   21.4328   -4.3708  -13.9366 O   0  0  0  0  0  0  0  0  0  0  0  0
   19.8500   -5.2645  -15.3241 O   0  0  0  0  0  0  0  0  0  0  0  0
  2  1  1  6
  2  3  1  0
  2  6  1  0
  4  8  1  0
  4  3  1  0
  5  4  2  0
  6  7  2  0
  9  6  1  0
  9 10  1  0
 10 11  1  1
 11 12  1  0
 12 13  2  0
 14 13  1  0
 15 14  1  0
 16 15  2  0
 16 12  1  0
 17 10  1  0
 17 18  2  0
 20 19  1  6
 20 22  1  0
 21 20  1  0
 22 23  1  6
 22 24  1  0
 23 17  1  0
 24 26  1  0
 25 24  2  0
M  END
$$$$
