DHV.pdb
     RDKit          3D

 26 26  0  0  1  0  0  0  0  0999 V2000
   22.3620  -18.6455  -18.2710 N   0  0  0  0  0  0  0  0  0  0  0  0
   22.8401  -17.9494  -17.0899 C   0  0  1  0  0  0  0  0  0  0  0  0
   21.6834  -17.6096  -16.1828 C   0  0  0  0  0  0  0  0  0  0  0  0
   20.9749  -16.3863  -16.6161 C   0  0  0  0  0  0  0  0  0  0  0  0
   19.7361  -16.3184  -16.5357 O   0  0  0  0  0  0  0  0  0  0  0  0
   23.8356  -18.8232  -16.4155 C   0  0  0  0  0  0  0  0  0  0  0  0
   23.5033  -19.9356  -15.9155 O   0  0  0  0  0  0  0  0  0  0  0  0
   21.6871  -15.3203  -17.1093 O   0  0  0  0  0  0  0  0  0  0  0  0
   25.2119  -18.4621  -16.2935 N   0  0  0  0  0  0  0  0  0  0  0  0
   26.2012  -19.2506  -15.6045 C   0  0  1  0  0  0  0  0  0  0  0  0
   27.5671  -18.8247  -16.0580 C   0  0  0  0  0  0  0  0  0  0  0  0
   27.9927  -19.4690  -17.3209 C   0  0  0  0  0  0  0  0  0  0  0  0
   27.3568  -20.4073  -18.0860 C   0  0  0  0  0  0  0  0  0  0  0  0
   28.1381  -20.6875  -19.1452 N   0  0  0  0  0  0  0  0  0  0  0  0
   29.2472  -19.9563  -19.0736 C   0  0  0  0  0  0  0  0  0  0  0  0
   29.1476  -19.2188  -17.9594 N   0  0  0  0  0  0  0  0  0  0  0  0
   26.0546  -19.1507  -14.1219 C   0  0  0  0  0  0  0  0  0  0  0  0
   25.9540  -18.0181  -13.5866 O   0  0  0  0  0  0  0  0  0  0  0  0
   24.9894  -22.4948  -11.6374 C   0  0  0  0  0  0  0  0  0  0  0  0
   24.7608  -21.0406  -11.3141 C   0  0  1  0  0  0  0  0  0  0  0  0
   24.5393  -20.9293   -9.8290 C   0  0  0  0  0  0  0  0  0  0  0  0
   25.8598  -20.1972  -11.8308 C   0  0  2  0  0  0  0  0  0  0  0  0
   26.0226  -20.2864  -13.2753 N   0  0  0  0  0  0  0  0  0  0  0  0
   27.1248  -20.5854  -11.1391 C   0  0  0  0  0  0  0  0  0  0  0  0
   27.2398  -20.3916   -9.9128 O   0  0  0  0  0  0  0  0  0  0  0  0
   28.1841  -21.1640  -11.8470 O   0  0  0  0  0  0  0  0  0  0  0  0
  2  1  1  6
  2  3  1  0
  2  6  1  0
  4  8  1  0
  4  3  1  0
  5  4  2  0
  6  7  2  0
  9  6  1  0
  9 10  1  0
 10 11  1  1
 11 12  1  0
 12 13  2  0
 14 13  1  0
 15 14  1  0
 16 15  2  0
 16 12  1  0
 17 10  1  0
 17 18  2  0
 20 19  1  1
 20 22  1  0
 21 20  1  0
 22 23  1  6
 22 24  1  0
 23 17  1  0
 24 26  1  0
 25 24  2  0
M  END
$$$$
