DHV.pdb
     RDKit          3D

 26 26  0  0  1  0  0  0  0  0999 V2000
   22.7878  -11.9301  -19.1150 N   0  0  0  0  0  0  0  0  0  0  0  0
   23.1830  -10.6596  -18.5338 C   0  0  1  0  0  0  0  0  0  0  0  0
   23.7254   -9.7447  -19.6038 C   0  0  0  0  0  0  0  0  0  0  0  0
   25.0369  -10.1984  -20.1140 C   0  0  0  0  0  0  0  0  0  0  0  0
   25.8659  -10.7109  -19.3421 O   0  0  0  0  0  0  0  0  0  0  0  0
   21.9952  -10.0773  -17.8561 C   0  0  0  0  0  0  0  0  0  0  0  0
   20.9057   -9.9018  -18.4728 O   0  0  0  0  0  0  0  0  0  0  0  0
   25.3415  -10.0535  -21.4456 O   0  0  0  0  0  0  0  0  0  0  0  0
   22.0134   -9.6857  -16.4830 N   0  0  0  0  0  0  0  0  0  0  0  0
   20.8909   -9.1113  -15.7864 C   0  0  1  0  0  0  0  0  0  0  0  0
   20.8766   -9.6254  -14.3763 C   0  0  0  0  0  0  0  0  0  0  0  0
   19.7029   -9.1693  -13.5982 C   0  0  0  0  0  0  0  0  0  0  0  0
   18.7204   -8.2785  -13.9314 C   0  0  0  0  0  0  0  0  0  0  0  0
   17.8649   -8.1878  -12.8966 N   0  0  0  0  0  0  0  0  0  0  0  0
   18.2756   -8.9929  -11.9204 C   0  0  0  0  0  0  0  0  0  0  0  0
   19.3949   -9.5849  -12.3586 N   0  0  0  0  0  0  0  0  0  0  0  0
   20.9163   -7.6190  -15.8307 C   0  0  0  0  0  0  0  0  0  0  0  0
   21.9957   -7.0134  -15.6130 O   0  0  0  0  0  0  0  0  0  0  0  0
   17.7013   -5.3071  -17.4912 C   0  0  0  0  0  0  0  0  0  0  0  0
   19.1358   -4.8538  -17.4012 C   0  0  1  0  0  0  0  0  0  0  0  0
   19.1505   -3.3519  -17.5068 C   0  0  0  0  0  0  0  0  0  0  0  0
   19.7910   -5.3854  -16.1871 C   0  0  2  0  0  0  0  0  0  0  0  0
   19.7666   -6.8396  -16.1104 N   0  0  0  0  0  0  0  0  0  0  0  0
   19.1297   -4.7895  -14.9882 C   0  0  0  0  0  0  0  0  0  0  0  0
   19.2910   -3.5794  -14.7346 O   0  0  0  0  0  0  0  0  0  0  0  0
   18.3311   -5.5693  -14.1445 O   0  0  0  0  0  0  0  0  0  0  0  0
  2  1  1  6
  2  3  1  0
  2  6  1  0
  4  8  1  0
  4  3  1  0
  5  4  2  0
  6  7  2  0
  9  6  1  0
  9 10  1  0
 10 11  1  1
 11 12  1  0
 12 13  2  0
 14 13  1  0
 15 14  1  0
 16 15  2  0
 16 12  1  0
 17 10  1  0
 17 18  2  0
 20 19  1  1
 20 22  1  0
 21 20  1  0
 22 23  1  1
 22 24  1  0
 23 17  1  0
 24 26  1  0
 25 24  2  0
M  END
$$$$
