DHV.pdb
     RDKit          3D

 26 26  0  0  1  0  0  0  0  0999 V2000
   23.3812  -11.0571  -17.8496 N   0  0  0  0  0  0  0  0  0  0  0  0
   22.3895  -10.7790  -18.8730 C   0  0  1  0  0  0  0  0  0  0  0  0
   21.6622  -12.0458  -19.2502 C   0  0  0  0  0  0  0  0  0  0  0  0
   22.5897  -13.1187  -19.6683 C   0  0  0  0  0  0  0  0  0  0  0  0
   23.6413  -12.8384  -20.2693 O   0  0  0  0  0  0  0  0  0  0  0  0
   21.4631   -9.7444  -18.3431 C   0  0  0  0  0  0  0  0  0  0  0  0
   20.4065   -9.4284  -18.9608 O   0  0  0  0  0  0  0  0  0  0  0  0
   22.2894  -14.4303  -19.3920 O   0  0  0  0  0  0  0  0  0  0  0  0
   21.7087   -9.0533  -17.1177 N   0  0  0  0  0  0  0  0  0  0  0  0
   20.8302   -8.0604  -16.5543 C   0  0  1  0  0  0  0  0  0  0  0  0
   20.4234   -8.4942  -15.1763 C   0  0  0  0  0  0  0  0  0  0  0  0
   19.3277   -9.4894  -15.1747 C   0  0  0  0  0  0  0  0  0  0  0  0
   18.6860  -10.0910  -16.2218 C   0  0  0  0  0  0  0  0  0  0  0  0
   17.7565  -10.9263  -15.7229 N   0  0  0  0  0  0  0  0  0  0  0  0
   17.7904  -10.8717  -14.3941 C   0  0  0  0  0  0  0  0  0  0  0  0
   18.7503   -9.9941  -14.0720 N   0  0  0  0  0  0  0  0  0  0  0  0
   21.4592   -6.7061  -16.5446 C   0  0  0  0  0  0  0  0  0  0  0  0
   22.6746   -6.5922  -16.2458 O   0  0  0  0  0  0  0  0  0  0  0  0
   21.9721   -4.2252  -19.2744 C   0  0  0  0  0  0  0  0  0  0  0  0
   21.2062   -3.5165  -18.1870 C   0  0  1  0  0  0  0  0  0  0  0  0
   19.7803   -3.3719  -18.6486 C   0  0  0  0  0  0  0  0  0  0  0  0
   21.3587   -4.2052  -16.8875 C   0  0  2  0  0  0  0  0  0  0  0  0
   20.7433   -5.5249  -16.8604 N   0  0  0  0  0  0  0  0  0  0  0  0
   20.7806   -3.3389  -15.8176 C   0  0  0  0  0  0  0  0  0  0  0  0
   21.3493   -2.2708  -15.5167 O   0  0  0  0  0  0  0  0  0  0  0  0
   19.6094   -3.7079  -15.1470 O   0  0  0  0  0  0  0  0  0  0  0  0
  2  1  1  1
  2  3  1  0
  2  6  1  0
  4  8  1  0
  4  3  1  0
  5  4  2  0
  6  7  2  0
  9  6  1  0
  9 10  1  0
 10 11  1  1
 11 12  1  0
 12 13  2  0
 14 13  1  0
 15 14  1  0
 16 15  2  0
 16 12  1  0
 17 10  1  0
 17 18  2  0
 20 19  1  6
 20 22  1  0
 21 20  1  0
 22 23  1  6
 22 24  1  0
 23 17  1  0
 24 26  1  0
 25 24  2  0
M  END
$$$$
