DHV.pdb
     RDKit          3D

 26 26  0  0  1  0  0  0  0  0999 V2000
   22.9074  -20.8629  -10.7171 N   0  0  0  0  0  0  0  0  0  0  0  0
   22.7041  -20.9833  -12.1497 C   0  0  1  0  0  0  0  0  0  0  0  0
   21.3994  -20.3376  -12.5457 C   0  0  0  0  0  0  0  0  0  0  0  0
   20.2292  -21.1132  -12.0817 C   0  0  0  0  0  0  0  0  0  0  0  0
   19.3273  -20.5572  -11.4313 O   0  0  0  0  0  0  0  0  0  0  0  0
   23.8646  -20.3521  -12.8311 C   0  0  0  0  0  0  0  0  0  0  0  0
   24.3307  -19.2423  -12.4451 O   0  0  0  0  0  0  0  0  0  0  0  0
   20.1373  -22.4531  -12.3700 O   0  0  0  0  0  0  0  0  0  0  0  0
   24.5151  -20.9551  -13.9502 N   0  0  0  0  0  0  0  0  0  0  0  0
   25.7295  -20.4616  -14.5476 C   0  0  1  0  0  0  0  0  0  0  0  0
   26.8452  -21.4197  -14.2481 C   0  0  0  0  0  0  0  0  0  0  0  0
   27.6922  -20.9958  -13.1105 C   0  0  0  0  0  0  0  0  0  0  0  0
   27.6594  -19.8455  -12.3718 C   0  0  0  0  0  0  0  0  0  0  0  0
   28.6290  -19.9143  -11.4413 N   0  0  0  0  0  0  0  0  0  0  0  0
   29.2733  -21.0712  -11.5685 C   0  0  0  0  0  0  0  0  0  0  0  0
   28.6945  -21.7210  -12.5874 N   0  0  0  0  0  0  0  0  0  0  0  0
   25.5728  -20.2365  -16.0154 C   0  0  0  0  0  0  0  0  0  0  0  0
   25.0030  -21.1102  -16.7164 O   0  0  0  0  0  0  0  0  0  0  0  0
   23.8431  -17.3379  -17.7732 C   0  0  0  0  0  0  0  0  0  0  0  0
   25.2397  -17.4541  -18.3276 C   0  0  1  0  0  0  0  0  0  0  0  0
   26.0552  -16.3229  -17.7599 C   0  0  0  0  0  0  0  0  0  0  0  0
   25.8054  -18.7974  -18.0787 C   0  0  2  0  0  0  0  0  0  0  0  0
   26.0416  -19.0693  -16.6676 N   0  0  0  0  0  0  0  0  0  0  0  0
   27.0740  -18.9322  -18.8546 C   0  0  0  0  0  0  0  0  0  0  0  0
   28.1643  -18.9621  -18.2504 O   0  0  0  0  0  0  0  0  0  0  0  0
   27.0576  -19.0255  -20.2505 O   0  0  0  0  0  0  0  0  0  0  0  0
  2  1  1  1
  2  3  1  0
  2  6  1  0
  4  8  1  0
  4  3  1  0
  5  4  2  0
  6  7  2  0
  9  6  1  0
  9 10  1  0
 10 11  1  6
 11 12  1  0
 12 13  2  0
 14 13  1  0
 15 14  1  0
 16 15  2  0
 16 12  1  0
 17 10  1  0
 17 18  2  0
 20 19  1  1
 20 22  1  0
 21 20  1  0
 22 23  1  1
 22 24  1  0
 23 17  1  0
 24 26  1  0
 25 24  2  0
M  END
$$$$
