DHV.pdb
     RDKit          3D

 26 26  0  0  1  0  0  0  0  0999 V2000
   18.1714  -14.2734  -19.0820 N   0  0  0  0  0  0  0  0  0  0  0  0
   18.5972  -14.1138  -17.7031 C   0  0  1  0  0  0  0  0  0  0  0  0
   19.1522  -15.4141  -17.1765 C   0  0  0  0  0  0  0  0  0  0  0  0
   18.1108  -16.4564  -17.0533 C   0  0  0  0  0  0  0  0  0  0  0  0
   16.9233  -16.1881  -17.3052 O   0  0  0  0  0  0  0  0  0  0  0  0
   19.6051  -13.0223  -17.6590 C   0  0  0  0  0  0  0  0  0  0  0  0
   20.5768  -13.0558  -16.8513 O   0  0  0  0  0  0  0  0  0  0  0  0
   18.4556  -17.7263  -16.6592 O   0  0  0  0  0  0  0  0  0  0  0  0
   19.5367  -11.8830  -18.5173 N   0  0  0  0  0  0  0  0  0  0  0  0
   20.4377  -10.7608  -18.4522 C   0  0  1  0  0  0  0  0  0  0  0  0
   20.2256   -9.8940  -19.6590 C   0  0  0  0  0  0  0  0  0  0  0  0
   21.1049   -8.7036  -19.6873 C   0  0  0  0  0  0  0  0  0  0  0  0
   20.7947   -7.3789  -19.5495 C   0  0  0  0  0  0  0  0  0  0  0  0
   21.9324   -6.6671  -19.6469 N   0  0  0  0  0  0  0  0  0  0  0  0
   22.9515   -7.4997  -19.8417 C   0  0  0  0  0  0  0  0  0  0  0  0
   22.4360   -8.7362  -19.8646 N   0  0  0  0  0  0  0  0  0  0  0  0
   20.2733   -9.9916  -17.1830 C   0  0  0  0  0  0  0  0  0  0  0  0
   19.1172   -9.7304  -16.7650 O   0  0  0  0  0  0  0  0  0  0  0  0
   21.5384  -10.7298  -13.6714 C   0  0  0  0  0  0  0  0  0  0  0  0
   22.0211   -9.3553  -14.0576 C   0  0  1  0  0  0  0  0  0  0  0  0
   23.4960   -9.4501  -14.3447 C   0  0  0  0  0  0  0  0  0  0  0  0
   21.2192   -8.7976  -15.1676 C   0  0  2  0  0  0  0  0  0  0  0  0
   21.3723   -9.5345  -16.4143 N   0  0  0  0  0  0  0  0  0  0  0  0
   21.5991   -7.3663  -15.3586 C   0  0  0  0  0  0  0  0  0  0  0  0
   22.2125   -7.0250  -16.3891 O   0  0  0  0  0  0  0  0  0  0  0  0
   21.2770   -6.4015  -14.3978 O   0  0  0  0  0  0  0  0  0  0  0  0
  2  1  1  6
  2  3  1  0
  2  6  1  0
  4  8  1  0
  4  3  1  0
  5  4  2  0
  6  7  2  0
  9  6  1  0
  9 10  1  0
 10 11  1  6
 11 12  1  0
 12 13  2  0
 14 13  1  0
 15 14  1  0
 16 15  2  0
 16 12  1  0
 17 10  1  0
 17 18  2  0
 20 19  1  6
 20 22  1  0
 21 20  1  0
 22 23  1  6
 22 24  1  0
 23 17  1  0
 24 26  1  0
 25 24  2  0
M  END
$$$$
