DHV.pdb
     RDKit          3D

 26 26  0  0  1  0  0  0  0  0999 V2000
   21.3435  -11.6780  -19.2942 N   0  0  0  0  0  0  0  0  0  0  0  0
   22.1053  -10.4667  -19.0478 C   0  0  1  0  0  0  0  0  0  0  0  0
   22.5402   -9.8512  -20.3548 C   0  0  0  0  0  0  0  0  0  0  0  0
   23.5540  -10.6735  -21.0491 C   0  0  0  0  0  0  0  0  0  0  0  0
   23.4342  -10.9239  -22.2610 O   0  0  0  0  0  0  0  0  0  0  0  0
   21.2516   -9.5424  -18.2564 C   0  0  0  0  0  0  0  0  0  0  0  0
   20.1371   -9.1379  -18.6948 O   0  0  0  0  0  0  0  0  0  0  0  0
   24.6325  -11.1631  -20.3536 O   0  0  0  0  0  0  0  0  0  0  0  0
   21.6352   -9.0615  -16.9677 N   0  0  0  0  0  0  0  0  0  0  0  0
   20.8398   -8.1701  -16.1627 C   0  0  1  0  0  0  0  0  0  0  0  0
   20.4606   -8.8692  -14.8899 C   0  0  0  0  0  0  0  0  0  0  0  0
   19.2937   -9.7675  -15.0399 C   0  0  0  0  0  0  0  0  0  0  0  0
   18.5260  -10.0340  -16.1397 C   0  0  0  0  0  0  0  0  0  0  0  0
   17.5761  -10.9193  -15.7864 N   0  0  0  0  0  0  0  0  0  0  0  0
   17.7192  -11.2205  -14.4985 C   0  0  0  0  0  0  0  0  0  0  0  0
   18.7674  -10.5137  -14.0547 N   0  0  0  0  0  0  0  0  0  0  0  0
   21.5485   -6.8830  -15.8968 C   0  0  0  0  0  0  0  0  0  0  0  0
   22.7363   -6.9058  -15.4866 O   0  0  0  0  0  0  0  0  0  0  0  0
   20.1388   -3.2543  -17.5196 C   0  0  0  0  0  0  0  0  0  0  0  0
   21.5700   -3.4788  -17.1041 C   0  0  1  0  0  0  0  0  0  0  0  0
   22.2123   -2.1295  -16.9205 C   0  0  0  0  0  0  0  0  0  0  0  0
   21.6525   -4.3590  -15.9189 C   0  0  2  0  0  0  0  0  0  0  0  0
   20.9397   -5.6178  -16.0868 N   0  0  0  0  0  0  0  0  0  0  0  0
   21.1260   -3.6161  -14.7354 C   0  0  0  0  0  0  0  0  0  0  0  0
   21.7554   -2.6334  -14.2962 O   0  0  0  0  0  0  0  0  0  0  0  0
   19.9361   -4.0066  -14.1114 O   0  0  0  0  0  0  0  0  0  0  0  0
  2  1  1  6
  2  3  1  0
  2  6  1  0
  4  8  1  0
  4  3  1  0
  5  4  2  0
  6  7  2  0
  9  6  1  0
  9 10  1  0
 10 11  1  1
 11 12  1  0
 12 13  2  0
 14 13  1  0
 15 14  1  0
 16 15  2  0
 16 12  1  0
 17 10  1  0
 17 18  2  0
 20 19  1  1
 20 22  1  0
 21 20  1  0
 22 23  1  6
 22 24  1  0
 23 17  1  0
 24 26  1  0
 25 24  2  0
M  END
$$$$
