DHV.pdb
     RDKit          3D

 26 26  0  0  1  0  0  0  0  0999 V2000
   18.2650  -14.9569  -18.2078 N   0  0  0  0  0  0  0  0  0  0  0  0
   17.7482  -14.0517  -17.1969 C   0  0  1  0  0  0  0  0  0  0  0  0
   17.8434  -14.6876  -15.8321 C   0  0  0  0  0  0  0  0  0  0  0  0
   16.6250  -15.4500  -15.4852 C   0  0  0  0  0  0  0  0  0  0  0  0
   16.3154  -16.4646  -16.1336 O   0  0  0  0  0  0  0  0  0  0  0  0
   18.5255  -12.7872  -17.2750 C   0  0  0  0  0  0  0  0  0  0  0  0
   19.7886  -12.7928  -17.3237 O   0  0  0  0  0  0  0  0  0  0  0  0
   15.8316  -15.0366  -14.4429 O   0  0  0  0  0  0  0  0  0  0  0  0
   17.8986  -11.5043  -17.2994 N   0  0  0  0  0  0  0  0  0  0  0  0
   18.6088  -10.2538  -17.3837 C   0  0  1  0  0  0  0  0  0  0  0  0
   17.6563   -9.1802  -17.8225 C   0  0  0  0  0  0  0  0  0  0  0  0
   18.3022   -7.8601  -17.9991 C   0  0  0  0  0  0  0  0  0  0  0  0
   19.6058   -7.4888  -17.8180 C   0  0  0  0  0  0  0  0  0  0  0  0
   19.7143   -6.1781  -18.1030 N   0  0  0  0  0  0  0  0  0  0  0  0
   18.5210   -5.7096  -18.4584 C   0  0  0  0  0  0  0  0  0  0  0  0
   17.6695   -6.7420  -18.3915 N   0  0  0  0  0  0  0  0  0  0  0  0
   19.2759   -9.9078  -16.0934 C   0  0  0  0  0  0  0  0  0  0  0  0
   18.6563  -10.0776  -15.0133 O   0  0  0  0  0  0  0  0  0  0  0  0
   22.5822  -11.2305  -14.9093 C   0  0  0  0  0  0  0  0  0  0  0  0
   22.6366   -9.7367  -14.7170 C   0  0  1  0  0  0  0  0  0  0  0  0
   23.5998   -9.1776  -15.7303 C   0  0  0  0  0  0  0  0  0  0  0  0
   21.2848   -9.1399  -14.7678 C   0  0  2  0  0  0  0  0  0  0  0  0
   20.5929   -9.3896  -16.0248 N   0  0  0  0  0  0  0  0  0  0  0  0
   21.4016   -7.6720  -14.5203 C   0  0  0  0  0  0  0  0  0  0  0  0
   21.2446   -6.8744  -15.4658 O   0  0  0  0  0  0  0  0  0  0  0  0
   21.6847   -7.1777  -13.2424 O   0  0  0  0  0  0  0  0  0  0  0  0
  2  1  1  6
  2  3  1  0
  2  6  1  0
  4  8  1  0
  4  3  1  0
  5  4  2  0
  6  7  2  0
  9  6  1  0
  9 10  1  0
 10 11  1  1
 11 12  1  0
 12 13  2  0
 14 13  1  0
 15 14  1  0
 16 15  2  0
 16 12  1  0
 17 10  1  0
 17 18  2  0
 20 19  1  6
 20 22  1  0
 21 20  1  0
 22 23  1  6
 22 24  1  0
 23 17  1  0
 24 26  1  0
 25 24  2  0
M  END
$$$$
