DHV.pdb
     RDKit          3D

 26 26  0  0  1  0  0  0  0  0999 V2000
   17.9511  -11.5798  -15.3912 N   0  0  0  0  0  0  0  0  0  0  0  0
   16.8243  -10.8217  -14.8775 C   0  0  1  0  0  0  0  0  0  0  0  0
   15.6907  -11.7517  -14.5223 C   0  0  0  0  0  0  0  0  0  0  0  0
   14.9764  -12.2439  -15.7196 C   0  0  0  0  0  0  0  0  0  0  0  0
   15.0921  -11.6505  -16.8059 O   0  0  0  0  0  0  0  0  0  0  0  0
   17.2940  -10.0450  -13.7005 C   0  0  0  0  0  0  0  0  0  0  0  0
   17.8423  -10.6130  -12.7132 O   0  0  0  0  0  0  0  0  0  0  0  0
   14.1817  -13.3610  -15.6324 O   0  0  0  0  0  0  0  0  0  0  0  0
   17.1555   -8.6262  -13.6156 N   0  0  0  0  0  0  0  0  0  0  0  0
   17.5960   -7.8318  -12.4974 C   0  0  1  0  0  0  0  0  0  0  0  0
   18.6991   -6.9206  -12.9505 C   0  0  0  0  0  0  0  0  0  0  0  0
   19.9314   -7.6416  -13.3415 C   0  0  0  0  0  0  0  0  0  0  0  0
   20.4964   -7.8102  -14.5752 C   0  0  0  0  0  0  0  0  0  0  0  0
   21.6161   -8.5423  -14.4297 N   0  0  0  0  0  0  0  0  0  0  0  0
   21.7764   -8.8415  -13.1434 C   0  0  0  0  0  0  0  0  0  0  0  0
   20.7453   -8.2882  -12.4908 N   0  0  0  0  0  0  0  0  0  0  0  0
   16.4688   -7.0714  -11.8803 C   0  0  0  0  0  0  0  0  0  0  0  0
   15.6542   -6.4656  -12.6213 O   0  0  0  0  0  0  0  0  0  0  0  0
   15.5785   -7.1810   -7.6195 C   0  0  0  0  0  0  0  0  0  0  0  0
   14.5658   -6.9756   -8.7167 C   0  0  1  0  0  0  0  0  0  0  0  0
   13.3719   -6.2821   -8.1162 C   0  0  0  0  0  0  0  0  0  0  0  0
   15.1621   -6.2711   -9.8717 C   0  0  2  0  0  0  0  0  0  0  0  0
   16.2684   -6.9973  -10.4797 N   0  0  0  0  0  0  0  0  0  0  0  0
   15.6097   -4.9180   -9.4262 C   0  0  0  0  0  0  0  0  0  0  0  0
   16.8154   -4.7197   -9.1779 O   0  0  0  0  0  0  0  0  0  0  0  0
   14.6956   -3.8684   -9.2829 O   0  0  0  0  0  0  0  0  0  0  0  0
  2  1  1  1
  2  3  1  0
  2  6  1  0
  4  8  1  0
  4  3  1  0
  5  4  2  0
  6  7  2  0
  9  6  1  0
  9 10  1  0
 10 11  1  6
 11 12  1  0
 12 13  2  0
 14 13  1  0
 15 14  1  0
 16 15  2  0
 16 12  1  0
 17 10  1  0
 17 18  2  0
 20 19  1  1
 20 22  1  0
 21 20  1  0
 22 23  1  1
 22 24  1  0
 23 17  1  0
 24 26  1  0
 25 24  2  0
M  END
$$$$
