DHV.pdb
     RDKit          3D

 26 26  0  0  1  0  0  0  0  0999 V2000
   44.5991  -10.2109   -5.7336 N   0  0  0  0  0  0  0  0  0  0  0  0
   43.1555  -10.3488   -5.8081 C   0  0  1  0  0  0  0  0  0  0  0  0
   42.4982   -9.5243   -4.7291 C   0  0  0  0  0  0  0  0  0  0  0  0
   42.6669  -10.1235   -3.3879 C   0  0  0  0  0  0  0  0  0  0  0  0
   43.3833  -11.1282   -3.2365 O   0  0  0  0  0  0  0  0  0  0  0  0
   42.7254   -9.9280   -7.1672 C   0  0  0  0  0  0  0  0  0  0  0  0
   43.3568   -9.0437   -7.8131 O   0  0  0  0  0  0  0  0  0  0  0  0
   42.0301   -9.5687   -2.3047 O   0  0  0  0  0  0  0  0  0  0  0  0
   41.5855  -10.4913   -7.8173 N   0  0  0  0  0  0  0  0  0  0  0  0
   41.0781  -10.0538   -9.0926 C   0  0  1  0  0  0  0  0  0  0  0  0
   40.3446  -11.1907   -9.7421 C   0  0  0  0  0  0  0  0  0  0  0  0
   39.7472  -10.8327  -11.0483 C   0  0  0  0  0  0  0  0  0  0  0  0
   39.8050   -9.6596  -11.7486 C   0  0  0  0  0  0  0  0  0  0  0  0
   39.1046   -9.8134  -12.8873 N   0  0  0  0  0  0  0  0  0  0  0  0
   38.6063  -11.0461  -12.9287 C   0  0  0  0  0  0  0  0  0  0  0  0
   39.0038  -11.6572  -11.8044 N   0  0  0  0  0  0  0  0  0  0  0  0
   40.2146   -8.8429   -8.9590 C   0  0  0  0  0  0  0  0  0  0  0  0
   39.3419   -8.8037   -8.0555 O   0  0  0  0  0  0  0  0  0  0  0  0
   41.1396   -5.0755  -10.9058 C   0  0  0  0  0  0  0  0  0  0  0  0
   40.4479   -5.2810   -9.5826 C   0  0  1  0  0  0  0  0  0  0  0  0
   39.7226   -4.0068   -9.2404 C   0  0  0  0  0  0  0  0  0  0  0  0
   39.5877   -6.4833   -9.6084 C   0  0  2  0  0  0  0  0  0  0  0  0
   40.3317   -7.7184   -9.8131 N   0  0  0  0  0  0  0  0  0  0  0  0
   38.5594   -6.3115  -10.6774 C   0  0  0  0  0  0  0  0  0  0  0  0
   38.6708   -6.9450  -11.7455 O   0  0  0  0  0  0  0  0  0  0  0  0
   37.4719   -5.4496  -10.4983 O   0  0  0  0  0  0  0  0  0  0  0  0
  2  1  1  6
  2  3  1  0
  2  6  1  0
  4  8  1  0
  4  3  1  0
  5  4  2  0
  6  7  2  0
  9  6  1  0
  9 10  1  0
 10 11  1  1
 11 12  1  0
 12 13  2  0
 14 13  1  0
 15 14  1  0
 16 15  2  0
 16 12  1  0
 17 10  1  0
 17 18  2  0
 20 19  1  6
 20 22  1  0
 21 20  1  0
 22 23  1  6
 22 24  1  0
 23 17  1  0
 24 26  1  0
 25 24  2  0
M  END
$$$$
