FVY.pdb
     RDKit          3D

 31 32  0  0  1  0  0  0  0  0999 V2000
   21.1308  -29.5005  -12.8403 N   0  0  0  0  0  0  0  0  0  0  0  0
   20.7275  -28.1876  -12.4371 C   0  0  1  0  0  0  0  0  0  0  0  0
   21.4114  -27.9235  -11.0887 C   0  0  0  0  0  0  0  0  0  0  0  0
   20.7950  -28.7559  -10.0341 C   0  0  0  0  0  0  0  0  0  0  0  0
   21.3981  -29.8949   -9.5840 C   0  0  0  0  0  0  0  0  0  0  0  0
   20.8417  -30.6747   -8.6100 C   0  0  0  0  0  0  0  0  0  0  0  0
   19.6389  -30.2944   -8.0718 C   0  0  0  0  0  0  0  0  0  0  0  0
   19.0011  -29.1579   -8.4961 C   0  0  0  0  0  0  0  0  0  0  0  0
   19.5853  -28.3920   -9.4785 C   0  0  0  0  0  0  0  0  0  0  0  0
   21.2824  -27.1463  -13.3614 C   0  0  0  0  0  0  0  0  0  0  0  0
   22.3776  -27.2873  -13.9183 O   0  0  0  0  0  0  0  0  0  0  0  0
   21.1942  -26.7430  -16.3978 C   0  0  0  0  0  0  0  0  0  0  0  0
   20.4852  -25.4430  -16.0237 C   0  0  2  0  0  0  0  0  0  0  0  0
   20.6947  -24.3624  -17.0444 C   0  0  0  0  0  0  0  0  0  0  0  0
   20.8640  -24.9948  -14.6298 C   0  0  2  0  0  0  0  0  0  0  0  0
   20.5353  -25.9529  -13.6167 N   0  0  0  0  0  0  0  0  0  0  0  0
   20.3041  -23.6588  -14.3240 C   0  0  0  0  0  0  0  0  0  0  0  0
   19.0730  -23.5781  -14.1107 O   0  0  0  0  0  0  0  0  0  0  0  0
   19.4942  -14.9723  -13.2629 O   0  0  0  0  0  0  0  0  0  0  0  0
   20.0315  -16.2512  -13.3504 C   0  0  0  0  0  0  0  0  0  0  0  0
   20.2680  -17.0337  -12.2467 C   0  0  0  0  0  0  0  0  0  0  0  0
   20.8074  -18.3038  -12.3960 C   0  0  0  0  0  0  0  0  0  0  0  0
   21.1219  -18.8235  -13.6308 C   0  0  0  0  0  0  0  0  0  0  0  0
   21.7074  -20.1615  -13.8314 C   0  0  0  0  0  0  0  0  0  0  0  0
   20.6215  -21.1628  -13.9834 C   0  0  2  0  0  0  0  0  0  0  0  0
   21.1115  -22.4976  -14.2695 N   0  0  0  0  0  0  0  0  0  0  0  0
   19.5682  -20.8178  -14.9502 C   0  0  0  0  0  0  0  0  0  0  0  0
   19.7770  -21.0224  -16.1891 O   0  0  0  0  0  0  0  0  0  0  0  0
   20.8858  -18.0413  -14.7366 C   0  0  0  0  0  0  0  0  0  0  0  0
   20.3459  -16.7656  -14.6075 C   0  0  0  0  0  0  0  0  0  0  0  0
   18.3294  -20.2755  -14.6453 O   0  0  0  0  0  0  0  0  0  0  0  0
  2  1  1  6
  2 10  1  0
  2  3  1  0
  3  4  1  0
  4  9  1  0
  4  5  2  0
  5  6  1  0
  6  7  2  0
  8  7  1  0
  9  8  2  0
 10 11  2  0
 13 15  1  0
 13 14  1  6
 13 12  1  0
 15 16  1  1
 16 10  1  0
 17 26  1  0
 17 15  1  0
 18 17  2  0
 20 30  2  0
 20 19  1  0
 21 20  1  0
 22 23  1  0
 22 21  2  0
 23 29  2  0
 24 23  1  0
 25 26  1  0
 25 24  1  6
 27 25  1  0
 28 27  2  0
 29 30  1  0
 31 27  1  0
M  END
$$$$
