FVY.pdb
     RDKit          3D

 31 32  0  0  1  0  0  0  0  0999 V2000
   23.1828  -20.2512  -15.7870 N   0  0  0  0  0  0  0  0  0  0  0  0
   22.4558  -19.6316  -14.7209 C   0  0  1  0  0  0  0  0  0  0  0  0
   21.0107  -19.4831  -15.2162 C   0  0  0  0  0  0  0  0  0  0  0  0
   20.9380  -18.4493  -16.2702 C   0  0  0  0  0  0  0  0  0  0  0  0
   21.1321  -17.1284  -15.9852 C   0  0  0  0  0  0  0  0  0  0  0  0
   21.0686  -16.1611  -16.9477 C   0  0  0  0  0  0  0  0  0  0  0  0
   20.8011  -16.5369  -18.2394 C   0  0  0  0  0  0  0  0  0  0  0  0
   20.6001  -17.8524  -18.5669 C   0  0  0  0  0  0  0  0  0  0  0  0
   20.6704  -18.8049  -17.5765 C   0  0  0  0  0  0  0  0  0  0  0  0
   22.3647  -20.5399  -13.5322 C   0  0  0  0  0  0  0  0  0  0  0  0
   22.3266  -21.7701  -13.6543 O   0  0  0  0  0  0  0  0  0  0  0  0
   24.6815  -20.1084  -10.4492 C   0  0  0  0  0  0  0  0  0  0  0  0
   23.2433  -20.2033   -9.9438 C   0  0  2  0  0  0  0  0  0  0  0  0
   23.1391  -20.9624   -8.6529 C   0  0  0  0  0  0  0  0  0  0  0  0
   22.3244  -20.7575  -11.0095 C   0  0  2  0  0  0  0  0  0  0  0  0
   22.3212  -19.9831  -12.2147 N   0  0  0  0  0  0  0  0  0  0  0  0
   20.9550  -20.9622  -10.4851 C   0  0  0  0  0  0  0  0  0  0  0  0
   20.2346  -19.9505  -10.3269 O   0  0  0  0  0  0  0  0  0  0  0  0
   13.1817  -24.2348   -8.2724 O   0  0  0  0  0  0  0  0  0  0  0  0
   14.4081  -23.9304   -8.8515 C   0  0  0  0  0  0  0  0  0  0  0  0
   14.7069  -22.6837   -9.3443 C   0  0  0  0  0  0  0  0  0  0  0  0
   15.9492  -22.4389   -9.9129 C   0  0  0  0  0  0  0  0  0  0  0  0
   16.9154  -23.4144  -10.0053 C   0  0  0  0  0  0  0  0  0  0  0  0
   18.2414  -23.1988  -10.6125 C   0  0  0  0  0  0  0  0  0  0  0  0
   19.1283  -22.5104   -9.6407 C   0  0  2  0  0  0  0  0  0  0  0  0
   20.4546  -22.2470  -10.1655 N   0  0  0  0  0  0  0  0  0  0  0  0
   19.2494  -23.1529   -8.3232 C   0  0  0  0  0  0  0  0  0  0  0  0
   18.3830  -22.8923   -7.4278 O   0  0  0  0  0  0  0  0  0  0  0  0
   16.6177  -24.6629   -9.5124 C   0  0  0  0  0  0  0  0  0  0  0  0
   15.3781  -24.9279   -8.9391 C   0  0  0  0  0  0  0  0  0  0  0  0
   20.2406  -24.0429   -7.9398 O   0  0  0  0  0  0  0  0  0  0  0  0
  2  1  1  6
  2 10  1  0
  2  3  1  0
  3  4  1  0
  4  9  1  0
  4  5  2  0
  5  6  1  0
  6  7  2  0
  8  7  1  0
  9  8  2  0
 10 11  2  0
 13 15  1  0
 13 14  1  1
 13 12  1  0
 15 16  1  6
 16 10  1  0
 17 26  1  0
 17 15  1  0
 18 17  2  0
 20 30  2  0
 20 19  1  0
 21 20  1  0
 22 23  1  0
 22 21  2  0
 23 29  2  0
 24 23  1  0
 25 26  1  0
 25 24  1  6
 27 25  1  0
 28 27  2  0
 29 30  1  0
 31 27  1  0
M  END
$$$$
