FVY.pdb
     RDKit          3D

 31 32  0  0  1  0  0  0  0  0999 V2000
   17.4834  -25.1363   -5.2389 N   0  0  0  0  0  0  0  0  0  0  0  0
   17.3793  -26.5020   -4.8232 C   0  0  1  0  0  0  0  0  0  0  0  0
   17.6923  -27.3529   -6.0616 C   0  0  0  0  0  0  0  0  0  0  0  0
   16.4385  -27.8436   -6.6716 C   0  0  0  0  0  0  0  0  0  0  0  0
   15.2294  -27.6440   -6.0701 C   0  0  0  0  0  0  0  0  0  0  0  0
   14.0618  -28.0908   -6.6209 C   0  0  0  0  0  0  0  0  0  0  0  0
   14.1142  -28.7603   -7.8168 C   0  0  0  0  0  0  0  0  0  0  0  0
   15.3079  -28.9813   -8.4528 C   0  0  0  0  0  0  0  0  0  0  0  0
   16.4678  -28.5195   -7.8745 C   0  0  0  0  0  0  0  0  0  0  0  0
   18.4531  -26.8477   -3.8363 C   0  0  0  0  0  0  0  0  0  0  0  0
   19.5679  -26.3133   -3.8734 O   0  0  0  0  0  0  0  0  0  0  0  0
   18.0361  -26.6774   -0.1880 C   0  0  0  0  0  0  0  0  0  0  0  0
   18.6363  -28.0643   -0.4091 C   0  0  2  0  0  0  0  0  0  0  0  0
   19.6821  -28.4050    0.6125 C   0  0  0  0  0  0  0  0  0  0  0  0
   19.1464  -28.2203   -1.8243 C   0  0  2  0  0  0  0  0  0  0  0  0
   18.1955  -27.8192   -2.8178 N   0  0  0  0  0  0  0  0  0  0  0  0
   19.6477  -29.5922   -2.0668 C   0  0  0  0  0  0  0  0  0  0  0  0
   19.3251  -30.1488   -3.1409 O   0  0  0  0  0  0  0  0  0  0  0  0
   26.5794  -33.7816   -4.3099 O   0  0  0  0  0  0  0  0  0  0  0  0
   25.6365  -32.9049   -3.7859 C   0  0  0  0  0  0  0  0  0  0  0  0
   25.8329  -32.2187   -2.6125 C   0  0  0  0  0  0  0  0  0  0  0  0
   24.8543  -31.3565   -2.1378 C   0  0  0  0  0  0  0  0  0  0  0  0
   23.6695  -31.1559   -2.8083 C   0  0  0  0  0  0  0  0  0  0  0  0
   22.6004  -30.2595   -2.3320 C   0  0  0  0  0  0  0  0  0  0  0  0
   21.6608  -31.0195   -1.4692 C   0  0  2  0  0  0  0  0  0  0  0  0
   20.4640  -30.2726   -1.1319 N   0  0  0  0  0  0  0  0  0  0  0  0
   22.2394  -31.5841   -0.2405 C   0  0  0  0  0  0  0  0  0  0  0  0
   22.4170  -30.8229    0.7641 O   0  0  0  0  0  0  0  0  0  0  0  0
   23.4715  -31.8422   -3.9831 C   0  0  0  0  0  0  0  0  0  0  0  0
   24.4403  -32.7109   -4.4752 C   0  0  0  0  0  0  0  0  0  0  0  0
   22.6249  -32.9025   -0.0537 O   0  0  0  0  0  0  0  0  0  0  0  0
  2  1  1  6
  2 10  1  0
  2  3  1  0
  3  4  1  0
  4  9  1  0
  4  5  2  0
  5  6  1  0
  6  7  2  0
  8  7  1  0
  9  8  2  0
 10 11  2  0
 13 15  1  0
 13 14  1  1
 13 12  1  0
 15 16  1  6
 16 10  1  0
 17 26  1  0
 17 15  1  0
 18 17  2  0
 20 30  2  0
 20 19  1  0
 21 20  1  0
 22 23  1  0
 22 21  2  0
 23 29  2  0
 24 23  1  0
 25 26  1  0
 25 24  1  1
 27 25  1  0
 28 27  2  0
 29 30  1  0
 31 27  1  0
M  END
$$$$
