FVY.pdb
     RDKit          3D

 31 32  0  0  1  0  0  0  0  0999 V2000
   24.1024  -11.0628  -19.1059 N   0  0  0  0  0  0  0  0  0  0  0  0
   23.2548   -9.9293  -19.3197 C   0  0  1  0  0  0  0  0  0  0  0  0
   21.8567  -10.3419  -18.8396 C   0  0  0  0  0  0  0  0  0  0  0  0
   21.2472  -11.2859  -19.8000 C   0  0  0  0  0  0  0  0  0  0  0  0
   21.0889  -12.6072  -19.4952 C   0  0  0  0  0  0  0  0  0  0  0  0
   20.5273  -13.4922  -20.3714 C   0  0  0  0  0  0  0  0  0  0  0  0
   20.1115  -13.0309  -21.5943 C   0  0  0  0  0  0  0  0  0  0  0  0
   20.2526  -11.7119  -21.9388 C   0  0  0  0  0  0  0  0  0  0  0  0
   20.8215  -10.8435  -21.0360 C   0  0  0  0  0  0  0  0  0  0  0  0
   23.6469   -8.7885  -18.4302 C   0  0  0  0  0  0  0  0  0  0  0  0
   24.4258   -8.9405  -17.4815 O   0  0  0  0  0  0  0  0  0  0  0  0
   25.2804   -5.6038  -19.5363 C   0  0  0  0  0  0  0  0  0  0  0  0
   24.0006   -5.1908  -18.8122 C   0  0  2  0  0  0  0  0  0  0  0  0
   24.1611   -3.9051  -18.0543 C   0  0  0  0  0  0  0  0  0  0  0  0
   23.4817   -6.3100  -17.9373 C   0  0  2  0  0  0  0  0  0  0  0  0
   23.1148   -7.4827  -18.6738 N   0  0  0  0  0  0  0  0  0  0  0  0
   22.3806   -5.8434  -17.0644 C   0  0  0  0  0  0  0  0  0  0  0  0
   21.2789   -5.5893  -17.6021 O   0  0  0  0  0  0  0  0  0  0  0  0
   18.3571  -10.5096  -16.5172 O   0  0  0  0  0  0  0  0  0  0  0  0
   19.0815   -9.5307  -15.8472 C   0  0  0  0  0  0  0  0  0  0  0  0
   20.3658   -9.7312  -15.4035 C   0  0  0  0  0  0  0  0  0  0  0  0
   21.0396   -8.7158  -14.7391 C   0  0  0  0  0  0  0  0  0  0  0  0
   20.4622   -7.4895  -14.5013 C   0  0  0  0  0  0  0  0  0  0  0  0
   21.1385   -6.3901  -13.7890 C   0  0  0  0  0  0  0  0  0  0  0  0
   21.4826   -5.3115  -14.7497 C   0  0  2  0  0  0  0  0  0  0  0  0
   22.5430   -5.6815  -15.6677 N   0  0  0  0  0  0  0  0  0  0  0  0
   21.7949   -4.0037  -14.1536 C   0  0  0  0  0  0  0  0  0  0  0  0
   23.0111   -3.6358  -14.0757 O   0  0  0  0  0  0  0  0  0  0  0  0
   19.1766   -7.2874  -14.9449 C   0  0  0  0  0  0  0  0  0  0  0  0
   18.4846   -8.2928  -15.6125 C   0  0  0  0  0  0  0  0  0  0  0  0
   20.8741   -3.0977  -13.6508 O   0  0  0  0  0  0  0  0  0  0  0  0
  2  1  1  1
  2 10  1  0
  2  3  1  0
  3  4  1  0
  4  9  1  0
  4  5  2  0
  5  6  1  0
  6  7  2  0
  8  7  1  0
  9  8  2  0
 10 11  2  0
 13 15  1  0
 13 14  1  1
 13 12  1  0
 15 16  1  6
 16 10  1  0
 17 26  1  0
 17 15  1  0
 18 17  2  0
 20 30  2  0
 20 19  1  0
 21 20  1  0
 22 23  1  0
 22 21  2  0
 23 29  2  0
 24 23  1  0
 25 26  1  0
 25 24  1  1
 27 25  1  0
 28 27  2  0
 29 30  1  0
 31 27  1  0
M  END
$$$$
