FVY.pdb
     RDKit          3D

 31 32  0  0  1  0  0  0  0  0999 V2000
   26.2336  -17.7927  -21.2375 N   0  0  0  0  0  0  0  0  0  0  0  0
   25.3264  -17.3726  -20.2130 C   0  0  1  0  0  0  0  0  0  0  0  0
   23.9213  -17.7476  -20.7036 C   0  0  0  0  0  0  0  0  0  0  0  0
   23.5785  -16.9660  -21.9104 C   0  0  0  0  0  0  0  0  0  0  0  0
   23.8303  -15.6264  -21.9853 C   0  0  0  0  0  0  0  0  0  0  0  0
   23.5199  -14.8901  -23.0933 C   0  0  0  0  0  0  0  0  0  0  0  0
   22.9371  -15.5242  -24.1607 C   0  0  0  0  0  0  0  0  0  0  0  0
   22.6679  -16.8675  -24.1254 C   0  0  0  0  0  0  0  0  0  0  0  0
   22.9917  -17.5836  -22.9961 C   0  0  0  0  0  0  0  0  0  0  0  0
   25.5230  -18.1704  -18.9596 C   0  0  0  0  0  0  0  0  0  0  0  0
   25.7420  -19.3873  -18.9901 O   0  0  0  0  0  0  0  0  0  0  0  0
   26.3244  -16.1350  -15.0907 C   0  0  0  0  0  0  0  0  0  0  0  0
   26.8036  -17.4831  -15.6252 C   0  0  2  0  0  0  0  0  0  0  0  0
   28.0961  -17.3727  -16.3806 C   0  0  0  0  0  0  0  0  0  0  0  0
   25.7238  -18.1654  -16.4352 C   0  0  2  0  0  0  0  0  0  0  0  0
   25.4598  -17.5200  -17.6865 N   0  0  0  0  0  0  0  0  0  0  0  0
   24.4883  -18.3462  -15.6395 C   0  0  0  0  0  0  0  0  0  0  0  0
   24.5532  -19.0688  -14.6191 O   0  0  0  0  0  0  0  0  0  0  0  0
   18.5046  -16.7464  -20.3868 O   0  0  0  0  0  0  0  0  0  0  0  0
   19.2018  -16.7147  -19.1847 C   0  0  0  0  0  0  0  0  0  0  0  0
   20.5730  -16.6654  -19.1233 C   0  0  0  0  0  0  0  0  0  0  0  0
   21.2145  -16.6363  -17.8928 C   0  0  0  0  0  0  0  0  0  0  0  0
   20.5189  -16.6550  -16.7056 C   0  0  0  0  0  0  0  0  0  0  0  0
   21.1621  -16.6381  -15.3792 C   0  0  0  0  0  0  0  0  0  0  0  0
   22.0356  -17.8301  -15.2340 C   0  0  2  0  0  0  0  0  0  0  0  0
   23.2638  -17.7345  -15.9996 N   0  0  0  0  0  0  0  0  0  0  0  0
   21.3956  -19.1257  -15.5081 C   0  0  0  0  0  0  0  0  0  0  0  0
   20.4002  -19.4840  -14.8002 O   0  0  0  0  0  0  0  0  0  0  0  0
   19.1462  -16.7044  -16.7655 C   0  0  0  0  0  0  0  0  0  0  0  0
   18.4849  -16.7344  -17.9891 C   0  0  0  0  0  0  0  0  0  0  0  0
   21.7739  -20.0288  -16.4893 O   0  0  0  0  0  0  0  0  0  0  0  0
  2  1  1  6
  2 10  1  0
  2  3  1  0
  3  4  1  0
  4  9  1  0
  4  5  2  0
  5  6  1  0
  6  7  2  0
  8  7  1  0
  9  8  2  0
 10 11  2  0
 13 15  1  0
 13 14  1  6
 13 12  1  0
 15 16  1  6
 16 10  1  0
 17 26  1  0
 17 15  1  0
 18 17  2  0
 20 30  2  0
 20 19  1  0
 21 20  1  0
 22 23  1  0
 22 21  2  0
 23 29  2  0
 24 23  1  0
 25 26  1  0
 25 24  1  6
 27 25  1  0
 28 27  2  0
 29 30  1  0
 31 27  1  0
M  END
$$$$
