FVY.pdb
     RDKit          3D

 31 32  0  0  1  0  0  0  0  0999 V2000
   32.5222   -1.4884  -18.5537 N   0  0  0  0  0  0  0  0  0  0  0  0
   32.0294   -2.3186  -17.4969 C   0  0  1  0  0  0  0  0  0  0  0  0
   30.5459   -2.5668  -17.8021 C   0  0  0  0  0  0  0  0  0  0  0  0
   29.7937   -1.2961  -17.7373 C   0  0  0  0  0  0  0  0  0  0  0  0
   29.5737   -0.6598  -16.5497 C   0  0  0  0  0  0  0  0  0  0  0  0
   28.8810    0.5152  -16.4730 C   0  0  0  0  0  0  0  0  0  0  0  0
   28.3943    1.0670  -17.6305 C   0  0  0  0  0  0  0  0  0  0  0  0
   28.5935    0.4597  -18.8428 C   0  0  0  0  0  0  0  0  0  0  0  0
   29.2952   -0.7229  -18.8895 C   0  0  0  0  0  0  0  0  0  0  0  0
   32.6640   -3.6759  -17.5379 C   0  0  0  0  0  0  0  0  0  0  0  0
   33.0732   -4.1715  -18.5945 O   0  0  0  0  0  0  0  0  0  0  0  0
   35.4964   -4.7349  -15.2071 C   0  0  0  0  0  0  0  0  0  0  0  0
   34.4305   -5.8249  -15.1149 C   0  0  2  0  0  0  0  0  0  0  0  0
   35.0248   -7.1995  -15.0125 C   0  0  0  0  0  0  0  0  0  0  0  0
   33.4357   -5.7144  -16.2487 C   0  0  2  0  0  0  0  0  0  0  0  0
   32.8080   -4.4292  -16.3298 N   0  0  0  0  0  0  0  0  0  0  0  0
   32.4400   -6.8091  -16.1988 C   0  0  0  0  0  0  0  0  0  0  0  0
   31.7590   -6.9298  -15.1552 O   0  0  0  0  0  0  0  0  0  0  0  0
   30.2601   -6.8290  -23.1777 O   0  0  0  0  0  0  0  0  0  0  0  0
   30.1874   -7.1733  -21.8330 C   0  0  0  0  0  0  0  0  0  0  0  0
   30.2614   -6.2442  -20.8242 C   0  0  0  0  0  0  0  0  0  0  0  0
   30.1836   -6.6478  -19.4985 C   0  0  0  0  0  0  0  0  0  0  0  0
   30.0318   -7.9690  -19.1447 C   0  0  0  0  0  0  0  0  0  0  0  0
   29.9577   -8.4400  -17.7497 C   0  0  0  0  0  0  0  0  0  0  0  0
   31.3150   -8.8135  -17.2774 C   0  0  2  0  0  0  0  0  0  0  0  0
   32.2465   -7.7017  -17.2800 N   0  0  0  0  0  0  0  0  0  0  0  0
   31.9324   -9.9619  -17.9580 C   0  0  0  0  0  0  0  0  0  0  0  0
   33.0050   -9.7832  -18.6197 O   0  0  0  0  0  0  0  0  0  0  0  0
   29.9576   -8.9002  -20.1536 C   0  0  0  0  0  0  0  0  0  0  0  0
   30.0338   -8.5154  -21.4883 C   0  0  0  0  0  0  0  0  0  0  0  0
   31.4543  -11.2631  -17.9549 O   0  0  0  0  0  0  0  0  0  0  0  0
  2  1  1  6
  2 10  1  0
  2  3  1  0
  3  4  1  0
  4  9  1  0
  4  5  2  0
  5  6  1  0
  6  7  2  0
  8  7  1  0
  9  8  2  0
 10 11  2  0
 13 15  1  0
 13 14  1  6
 13 12  1  0
 15 16  1  1
 16 10  1  0
 17 26  1  0
 17 15  1  0
 18 17  2  0
 20 30  2  0
 20 19  1  0
 21 20  1  0
 22 23  1  0
 22 21  2  0
 23 29  2  0
 24 23  1  0
 25 26  1  0
 25 24  1  6
 27 25  1  0
 28 27  2  0
 29 30  1  0
 31 27  1  0
M  END
$$$$
