FVY.pdb
     RDKit          3D

 31 32  0  0  1  0  0  0  0  0999 V2000
   23.0699  -14.9911  -18.9023 N   0  0  0  0  0  0  0  0  0  0  0  0
   23.7683  -13.7546  -19.0817 C   0  0  1  0  0  0  0  0  0  0  0  0
   22.9631  -12.9524  -20.1131 C   0  0  0  0  0  0  0  0  0  0  0  0
   23.0623  -13.5896  -21.4431 C   0  0  0  0  0  0  0  0  0  0  0  0
   22.1122  -14.4647  -21.8850 C   0  0  0  0  0  0  0  0  0  0  0  0
   22.1892  -15.0616  -23.1114 C   0  0  0  0  0  0  0  0  0  0  0  0
   23.2580  -14.7671  -23.9189 C   0  0  0  0  0  0  0  0  0  0  0  0
   24.2330  -13.8940  -23.5124 C   0  0  0  0  0  0  0  0  0  0  0  0
   24.1290  -13.3077  -22.2721 C   0  0  0  0  0  0  0  0  0  0  0  0
   23.7278  -12.9272  -17.8326 C   0  0  0  0  0  0  0  0  0  0  0  0
   22.7844  -12.9970  -17.0358 O   0  0  0  0  0  0  0  0  0  0  0  0
   26.2156  -10.1868  -14.5336 C   0  0  0  0  0  0  0  0  0  0  0  0
   26.2268  -11.0825  -15.7707 C   0  0  2  0  0  0  0  0  0  0  0  0
   27.2746  -10.6728  -16.7645 C   0  0  0  0  0  0  0  0  0  0  0  0
   24.8515  -11.1726  -16.3933 C   0  0  2  0  0  0  0  0  0  0  0  0
   24.8029  -12.0292  -17.5405 N   0  0  0  0  0  0  0  0  0  0  0  0
   24.3061   -9.8282  -16.6887 C   0  0  0  0  0  0  0  0  0  0  0  0
   24.7245   -9.2421  -17.7129 O   0  0  0  0  0  0  0  0  0  0  0  0
   17.4147  -11.5035  -16.2158 O   0  0  0  0  0  0  0  0  0  0  0  0
   18.4589  -10.6203  -16.4642 C   0  0  0  0  0  0  0  0  0  0  0  0
   18.4369   -9.3105  -16.0514 C   0  0  0  0  0  0  0  0  0  0  0  0
   19.5094   -8.4746  -16.3295 C   0  0  0  0  0  0  0  0  0  0  0  0
   20.6185   -8.9128  -17.0162 C   0  0  0  0  0  0  0  0  0  0  0  0
   21.7719   -8.0545  -17.3424 C   0  0  0  0  0  0  0  0  0  0  0  0
   22.6703   -7.9585  -16.1640 C   0  0  2  0  0  0  0  0  0  0  0  0
   23.3448   -9.2055  -15.8573 N   0  0  0  0  0  0  0  0  0  0  0  0
   22.0569   -7.4272  -14.9373 C   0  0  0  0  0  0  0  0  0  0  0  0
   22.0538   -8.1470  -13.8875 O   0  0  0  0  0  0  0  0  0  0  0  0
   20.6419  -10.2237  -17.4301 C   0  0  0  0  0  0  0  0  0  0  0  0
   19.5765  -11.0771  -17.1613 C   0  0  0  0  0  0  0  0  0  0  0  0
   21.4619   -6.1830  -14.7980 O   0  0  0  0  0  0  0  0  0  0  0  0
  2  1  1  1
  2 10  1  0
  2  3  1  0
  3  4  1  0
  4  9  1  0
  4  5  2  0
  5  6  1  0
  6  7  2  0
  8  7  1  0
  9  8  2  0
 10 11  2  0
 13 15  1  0
 13 14  1  6
 13 12  1  0
 15 16  1  6
 16 10  1  0
 17 26  1  0
 17 15  1  0
 18 17  2  0
 20 30  2  0
 20 19  1  0
 21 20  1  0
 22 23  1  0
 22 21  2  0
 23 29  2  0
 24 23  1  0
 25 26  1  0
 25 24  1  6
 27 25  1  0
 28 27  2  0
 29 30  1  0
 31 27  1  0
M  END
$$$$
