FVY.pdb
     RDKit          3D

 31 32  0  0  1  0  0  0  0  0999 V2000
   27.1498  -20.1026  -17.0651 N   0  0  0  0  0  0  0  0  0  0  0  0
   26.7374  -19.4066  -15.8842 C   0  0  1  0  0  0  0  0  0  0  0  0
   25.7767  -18.3037  -16.3492 C   0  0  0  0  0  0  0  0  0  0  0  0
   26.5284  -17.2281  -17.0298 C   0  0  0  0  0  0  0  0  0  0  0  0
   27.2212  -16.2879  -16.3229 C   0  0  0  0  0  0  0  0  0  0  0  0
   27.9210  -15.2880  -16.9367 C   0  0  0  0  0  0  0  0  0  0  0  0
   27.9229  -15.2338  -18.3072 C   0  0  0  0  0  0  0  0  0  0  0  0
   27.2401  -16.1586  -19.0533 C   0  0  0  0  0  0  0  0  0  0  0  0
   26.5442  -17.1546  -18.4077 C   0  0  0  0  0  0  0  0  0  0  0  0
   25.9109  -20.2902  -14.9995 C   0  0  0  0  0  0  0  0  0  0  0  0
   25.0592  -21.0593  -15.4605 O   0  0  0  0  0  0  0  0  0  0  0  0
   24.9792  -21.7977  -10.2972 C   0  0  0  0  0  0  0  0  0  0  0  0
   25.9025  -21.0611  -11.2655 C   0  0  2  0  0  0  0  0  0  0  0  0
   26.3504  -19.7320  -10.7304 C   0  0  0  0  0  0  0  0  0  0  0  0
   25.2757  -20.9442  -12.6369 C   0  0  2  0  0  0  0  0  0  0  0  0
   26.1025  -20.2545  -13.5819 N   0  0  0  0  0  0  0  0  0  0  0  0
   23.9203  -20.3532  -12.5598 C   0  0  0  0  0  0  0  0  0  0  0  0
   23.8327  -19.1227  -12.3460 O   0  0  0  0  0  0  0  0  0  0  0  0
   20.8168  -21.9775  -18.7912 O   0  0  0  0  0  0  0  0  0  0  0  0
   20.8359  -21.4128  -17.5212 C   0  0  0  0  0  0  0  0  0  0  0  0
   19.7720  -21.4952  -16.6565 C   0  0  0  0  0  0  0  0  0  0  0  0
   19.8488  -20.9105  -15.4000 C   0  0  0  0  0  0  0  0  0  0  0  0
   20.9711  -20.2371  -14.9749 C   0  0  0  0  0  0  0  0  0  0  0  0
   21.0880  -19.5920  -13.6545 C   0  0  0  0  0  0  0  0  0  0  0  0
   21.3958  -20.6169  -12.6250 C   0  0  2  0  0  0  0  0  0  0  0  0
   22.7488  -21.1314  -12.7182 N   0  0  0  0  0  0  0  0  0  0  0  0
   20.4548  -21.7446  -12.5480 C   0  0  0  0  0  0  0  0  0  0  0  0
   19.2411  -21.5154  -12.2403 O   0  0  0  0  0  0  0  0  0  0  0  0
   22.0368  -20.1538  -15.8395 C   0  0  0  0  0  0  0  0  0  0  0  0
   21.9790  -20.7331  -17.1030 C   0  0  0  0  0  0  0  0  0  0  0  0
   20.7595  -23.0763  -12.7833 O   0  0  0  0  0  0  0  0  0  0  0  0
  2  1  1  6
  2 10  1  0
  2  3  1  0
  3  4  1  0
  4  9  1  0
  4  5  2  0
  5  6  1  0
  6  7  2  0
  8  7  1  0
  9  8  2  0
 10 11  2  0
 13 15  1  0
 13 14  1  1
 13 12  1  0
 15 16  1  6
 16 10  1  0
 17 26  1  0
 17 15  1  0
 18 17  2  0
 20 30  2  0
 20 19  1  0
 21 20  1  0
 22 23  1  0
 22 21  2  0
 23 29  2  0
 24 23  1  0
 25 26  1  0
 25 24  1  6
 27 25  1  0
 28 27  2  0
 29 30  1  0
 31 27  1  0
M  END
$$$$
