FVY.pdb
     RDKit          3D

 31 32  0  0  1  0  0  0  0  0999 V2000
   23.8673   -5.3515  -19.2084 N   0  0  0  0  0  0  0  0  0  0  0  0
   24.5370   -6.4882  -18.6532 C   0  0  1  0  0  0  0  0  0  0  0  0
   25.8193   -5.9545  -18.0001 C   0  0  0  0  0  0  0  0  0  0  0  0
   26.7598   -5.4816  -19.0379 C   0  0  0  0  0  0  0  0  0  0  0  0
   27.4104   -4.2876  -18.9169 C   0  0  0  0  0  0  0  0  0  0  0  0
   28.2827   -3.8367  -19.8667 C   0  0  0  0  0  0  0  0  0  0  0  0
   28.5070   -4.6142  -20.9740 C   0  0  0  0  0  0  0  0  0  0  0  0
   27.8738   -5.8192  -21.1332 C   0  0  0  0  0  0  0  0  0  0  0  0
   27.0006   -6.2478  -20.1601 C   0  0  0  0  0  0  0  0  0  0  0  0
   23.7475   -7.0805  -17.5253 C   0  0  0  0  0  0  0  0  0  0  0  0
   24.1870   -8.0134  -16.8424 O   0  0  0  0  0  0  0  0  0  0  0  0
   22.9195   -5.6018  -14.4334 C   0  0  0  0  0  0  0  0  0  0  0  0
   21.5476   -5.9362  -15.0154 C   0  0  2  0  0  0  0  0  0  0  0  0
   20.5540   -6.3170  -13.9567 C   0  0  0  0  0  0  0  0  0  0  0  0
   21.6548   -6.9822  -16.1025 C   0  0  2  0  0  0  0  0  0  0  0  0
   22.4496   -6.5621  -17.2179 N   0  0  0  0  0  0  0  0  0  0  0  0
   20.3176   -7.4538  -16.5284 C   0  0  0  0  0  0  0  0  0  0  0  0
   19.6135   -6.6726  -17.2078 O   0  0  0  0  0  0  0  0  0  0  0  0
   18.8593  -15.5384  -15.8964 O   0  0  0  0  0  0  0  0  0  0  0  0
   18.8583  -14.2268  -16.3563 C   0  0  0  0  0  0  0  0  0  0  0  0
   20.0120  -13.5063  -16.5465 C   0  0  0  0  0  0  0  0  0  0  0  0
   19.9486  -12.1987  -17.0076 C   0  0  0  0  0  0  0  0  0  0  0  0
   18.7518  -11.5803  -17.2885 C   0  0  0  0  0  0  0  0  0  0  0  0
   18.6407  -10.1904  -17.7674 C   0  0  0  0  0  0  0  0  0  0  0  0
   18.5446   -9.2697  -16.6064 C   0  0  2  0  0  0  0  0  0  0  0  0
   19.8289   -8.7386  -16.1911 N   0  0  0  0  0  0  0  0  0  0  0  0
   17.8384   -9.7998  -15.4302 C   0  0  0  0  0  0  0  0  0  0  0  0
   18.4981  -10.0285  -14.3658 O   0  0  0  0  0  0  0  0  0  0  0  0
   17.5960  -12.3002  -17.0986 C   0  0  0  0  0  0  0  0  0  0  0  0
   17.6389  -13.6119  -16.6370 C   0  0  0  0  0  0  0  0  0  0  0  0
   16.4842  -10.0861  -15.3546 O   0  0  0  0  0  0  0  0  0  0  0  0
  2  1  1  1
  2 10  1  0
  2  3  1  0
  3  4  1  0
  4  9  1  0
  4  5  2  0
  5  6  1  0
  6  7  2  0
  8  7  1  0
  9  8  2  0
 10 11  2  0
 13 15  1  0
 13 14  1  1
 13 12  1  0
 15 16  1  6
 16 10  1  0
 17 26  1  0
 17 15  1  0
 18 17  2  0
 20 30  2  0
 20 19  1  0
 21 20  1  0
 22 23  1  0
 22 21  2  0
 23 29  2  0
 24 23  1  0
 25 26  1  0
 25 24  1  6
 27 25  1  0
 28 27  2  0
 29 30  1  0
 31 27  1  0
M  END
$$$$
