FVY.pdb
     RDKit          3D

 31 32  0  0  1  0  0  0  0  0999 V2000
   25.9465  -20.5224  -17.4734 N   0  0  0  0  0  0  0  0  0  0  0  0
   25.2977  -19.7303  -16.4731 C   0  0  1  0  0  0  0  0  0  0  0  0
   24.0519  -19.1319  -17.1405 C   0  0  0  0  0  0  0  0  0  0  0  0
   24.4482  -18.1223  -18.1448 C   0  0  0  0  0  0  0  0  0  0  0  0
   24.8009  -16.8554  -17.7785 C   0  0  0  0  0  0  0  0  0  0  0  0
   25.1699  -15.9111  -18.6941 C   0  0  0  0  0  0  0  0  0  0  0  0
   25.1843  -16.2545  -20.0218 C   0  0  0  0  0  0  0  0  0  0  0  0
   24.8372  -17.5157  -20.4308 C   0  0  0  0  0  0  0  0  0  0  0  0
   24.4700  -18.4461  -19.4861 C   0  0  0  0  0  0  0  0  0  0  0  0
   24.7669  -20.5902  -15.3661 C   0  0  0  0  0  0  0  0  0  0  0  0
   24.3496  -21.7356  -15.5746 O   0  0  0  0  0  0  0  0  0  0  0  0
   26.2975  -21.2515  -11.8151 C   0  0  0  0  0  0  0  0  0  0  0  0
   24.8974  -20.6666  -11.6412 C   0  0  2  0  0  0  0  0  0  0  0  0
   24.1635  -21.2737  -10.4810 C   0  0  0  0  0  0  0  0  0  0  0  0
   24.1056  -20.7512  -12.9269 C   0  0  2  0  0  0  0  0  0  0  0  0
   24.7372  -20.0860  -14.0273 N   0  0  0  0  0  0  0  0  0  0  0  0
   22.7129  -20.2880  -12.7320 C   0  0  0  0  0  0  0  0  0  0  0  0
   22.5365  -19.0891  -12.4173 O   0  0  0  0  0  0  0  0  0  0  0  0
   18.7497  -21.4494  -18.7831 O   0  0  0  0  0  0  0  0  0  0  0  0
   19.0534  -20.9751  -17.5123 C   0  0  0  0  0  0  0  0  0  0  0  0
   20.2141  -20.2968  -17.2312 C   0  0  0  0  0  0  0  0  0  0  0  0
   20.4634  -19.8474  -15.9419 C   0  0  0  0  0  0  0  0  0  0  0  0
   19.5766  -20.0573  -14.9107 C   0  0  0  0  0  0  0  0  0  0  0  0
   19.8093  -19.6077  -13.5261 C   0  0  0  0  0  0  0  0  0  0  0  0
   20.2192  -20.7637  -12.6893 C   0  0  2  0  0  0  0  0  0  0  0  0
   21.6025  -21.1514  -12.8893 N   0  0  0  0  0  0  0  0  0  0  0  0
   19.3645  -21.9566  -12.7888 C   0  0  0  0  0  0  0  0  0  0  0  0
   18.1377  -21.8655  -12.4616 O   0  0  0  0  0  0  0  0  0  0  0  0
   18.4143  -20.7362  -15.1906 C   0  0  0  0  0  0  0  0  0  0  0  0
   18.1464  -21.1948  -16.4764 C   0  0  0  0  0  0  0  0  0  0  0  0
   19.7666  -23.2125  -13.2160 O   0  0  0  0  0  0  0  0  0  0  0  0
  2  1  1  6
  2 10  1  0
  2  3  1  0
  3  4  1  0
  4  9  1  0
  4  5  2  0
  5  6  1  0
  6  7  2  0
  8  7  1  0
  9  8  2  0
 10 11  2  0
 13 15  1  0
 13 14  1  1
 13 12  1  0
 15 16  1  6
 16 10  1  0
 17 26  1  0
 17 15  1  0
 18 17  2  0
 20 30  2  0
 20 19  1  0
 21 20  1  0
 22 23  1  0
 22 21  2  0
 23 29  2  0
 24 23  1  0
 25 26  1  0
 25 24  1  6
 27 25  1  0
 28 27  2  0
 29 30  1  0
 31 27  1  0
M  END
$$$$
