FVY.pdb
     RDKit          3D

 31 32  0  0  1  0  0  0  0  0999 V2000
   27.6327  -22.3002  -17.7905 N   0  0  0  0  0  0  0  0  0  0  0  0
   27.7586  -22.4930  -16.3777 C   0  0  1  0  0  0  0  0  0  0  0  0
   29.2145  -22.1574  -16.0266 C   0  0  0  0  0  0  0  0  0  0  0  0
   30.1190  -23.1980  -16.5594 C   0  0  0  0  0  0  0  0  0  0  0  0
   30.2233  -24.4221  -15.9641 C   0  0  0  0  0  0  0  0  0  0  0  0
   31.0541  -25.3945  -16.4443 C   0  0  0  0  0  0  0  0  0  0  0  0
   31.8040  -25.1248  -17.5605 C   0  0  0  0  0  0  0  0  0  0  0  0
   31.7282  -23.9084  -18.1875 C   0  0  0  0  0  0  0  0  0  0  0  0
   30.8826  -22.9483  -17.6815 C   0  0  0  0  0  0  0  0  0  0  0  0
   26.9389  -21.4909  -15.6224 C   0  0  0  0  0  0  0  0  0  0  0  0
   26.4216  -20.5175  -16.1834 O   0  0  0  0  0  0  0  0  0  0  0  0
   23.2269  -20.6095  -13.2257 C   0  0  0  0  0  0  0  0  0  0  0  0
   24.3054  -21.4252  -13.9358 C   0  0  2  0  0  0  0  0  0  0  0  0
   24.0719  -22.9038  -13.8230 C   0  0  0  0  0  0  0  0  0  0  0  0
   25.6880  -21.0270  -13.4700 C   0  0  2  0  0  0  0  0  0  0  0  0
   26.7398  -21.6526  -14.2147 N   0  0  0  0  0  0  0  0  0  0  0  0
   25.8462  -21.2388  -12.0132 C   0  0  0  0  0  0  0  0  0  0  0  0
   25.6059  -22.3813  -11.5612 O   0  0  0  0  0  0  0  0  0  0  0  0
   28.1186  -20.4175   -3.6495 O   0  0  0  0  0  0  0  0  0  0  0  0
   27.9206  -20.0829   -4.9839 C   0  0  0  0  0  0  0  0  0  0  0  0
   27.7219  -18.7901   -5.4031 C   0  0  0  0  0  0  0  0  0  0  0  0
   27.5286  -18.5166   -6.7501 C   0  0  0  0  0  0  0  0  0  0  0  0
   27.5280  -19.5082   -7.7042 C   0  0  0  0  0  0  0  0  0  0  0  0
   27.3141  -19.2615   -9.1418 C   0  0  0  0  0  0  0  0  0  0  0  0
   26.5114  -20.3673   -9.7230 C   0  0  2  0  0  0  0  0  0  0  0  0
   26.2529  -20.2013  -11.1406 N   0  0  0  0  0  0  0  0  0  0  0  0
   25.2471  -20.6667   -9.0338 C   0  0  0  0  0  0  0  0  0  0  0  0
   24.2236  -19.9527   -9.2847 O   0  0  0  0  0  0  0  0  0  0  0  0
   27.7268  -20.8028   -7.2861 C   0  0  0  0  0  0  0  0  0  0  0  0
   27.9220  -21.0972   -5.9405 C   0  0  0  0  0  0  0  0  0  0  0  0
   25.0445  -21.6789   -8.1085 O   0  0  0  0  0  0  0  0  0  0  0  0
  2  1  1  6
  2 10  1  0
  2  3  1  0
  3  4  1  0
  4  9  1  0
  4  5  2  0
  5  6  1  0
  6  7  2  0
  8  7  1  0
  9  8  2  0
 10 11  2  0
 13 15  1  0
 13 14  1  1
 13 12  1  0
 15 16  1  6
 16 10  1  0
 17 26  1  0
 17 15  1  0
 18 17  2  0
 20 30  2  0
 20 19  1  0
 21 20  1  0
 22 23  1  0
 22 21  2  0
 23 29  2  0
 24 23  1  0
 25 26  1  0
 25 24  1  1
 27 25  1  0
 28 27  2  0
 29 30  1  0
 31 27  1  0
M  END
$$$$
