FVY.pdb
     RDKit          3D

 31 32  0  0  1  0  0  0  0  0999 V2000
   21.4726  -21.8026  -14.9460 N   0  0  0  0  0  0  0  0  0  0  0  0
   22.1630  -20.7685  -14.2369 C   0  0  1  0  0  0  0  0  0  0  0  0
   21.1587  -20.1959  -13.2274 C   0  0  0  0  0  0  0  0  0  0  0  0
   20.2079  -19.2943  -13.9115 C   0  0  0  0  0  0  0  0  0  0  0  0
   20.5862  -18.0545  -14.3398 C   0  0  0  0  0  0  0  0  0  0  0  0
   19.7198  -17.2097  -14.9737 C   0  0  0  0  0  0  0  0  0  0  0  0
   18.4304  -17.6278  -15.1832 C   0  0  0  0  0  0  0  0  0  0  0  0
   18.0110  -18.8649  -14.7686 C   0  0  0  0  0  0  0  0  0  0  0  0
   18.9058  -19.6945  -14.1329 C   0  0  0  0  0  0  0  0  0  0  0  0
   23.2698  -21.3358  -13.4004 C   0  0  0  0  0  0  0  0  0  0  0  0
   23.1486  -22.4123  -12.8037 O   0  0  0  0  0  0  0  0  0  0  0  0
   26.8217  -21.8003  -14.6638 C   0  0  0  0  0  0  0  0  0  0  0  0
   26.9328  -21.0246  -13.3529 C   0  0  2  0  0  0  0  0  0  0  0  0
   28.1265  -21.4385  -12.5422 C   0  0  0  0  0  0  0  0  0  0  0  0
   25.6473  -21.1033  -12.5600 C   0  0  2  0  0  0  0  0  0  0  0  0
   24.5057  -20.6245  -13.2810 N   0  0  0  0  0  0  0  0  0  0  0  0
   25.7851  -20.4367  -11.2452 C   0  0  0  0  0  0  0  0  0  0  0  0
   25.5468  -19.2089  -11.1868 O   0  0  0  0  0  0  0  0  0  0  0  0
   28.6253  -18.7268   -3.1293 O   0  0  0  0  0  0  0  0  0  0  0  0
   28.2876  -19.4011   -4.2969 C   0  0  0  0  0  0  0  0  0  0  0  0
   29.1729  -19.5831   -5.3311 C   0  0  0  0  0  0  0  0  0  0  0  0
   28.7783  -20.2647   -6.4740 C   0  0  0  0  0  0  0  0  0  0  0  0
   27.5093  -20.7773   -6.6174 C   0  0  0  0  0  0  0  0  0  0  0  0
   27.0471  -21.4957   -7.8189 C   0  0  0  0  0  0  0  0  0  0  0  0
   26.5860  -20.5182   -8.8371 C   0  0  2  0  0  0  0  0  0  0  0  0
   26.1721  -21.1408  -10.0801 N   0  0  0  0  0  0  0  0  0  0  0  0
   27.5187  -19.4206   -9.1344 C   0  0  0  0  0  0  0  0  0  0  0  0
   28.5212  -19.6491   -9.8849 O   0  0  0  0  0  0  0  0  0  0  0  0
   26.6220  -20.5959   -5.5829 C   0  0  0  0  0  0  0  0  0  0  0  0
   26.9985  -19.9153   -4.4295 C   0  0  0  0  0  0  0  0  0  0  0  0
   27.4186  -18.1188   -8.6685 O   0  0  0  0  0  0  0  0  0  0  0  0
  2  1  1  1
  2 10  1  0
  2  3  1  0
  3  4  1  0
  4  9  1  0
  4  5  2  0
  5  6  1  0
  6  7  2  0
  8  7  1  0
  9  8  2  0
 10 11  2  0
 13 15  1  0
 13 14  1  1
 13 12  1  0
 15 16  1  6
 16 10  1  0
 17 26  1  0
 17 15  1  0
 18 17  2  0
 20 30  2  0
 20 19  1  0
 21 20  1  0
 22 23  1  0
 22 21  2  0
 23 29  2  0
 24 23  1  0
 25 26  1  0
 25 24  1  1
 27 25  1  0
 28 27  2  0
 29 30  1  0
 31 27  1  0
M  END
$$$$
