FVY.pdb
     RDKit          3D

 31 32  0  0  1  0  0  0  0  0999 V2000
   24.8328  -11.3269  -20.3197 N   0  0  0  0  0  0  0  0  0  0  0  0
   24.7058  -10.0630  -19.6597 C   0  0  1  0  0  0  0  0  0  0  0  0
   24.1326   -9.0911  -20.7001 C   0  0  0  0  0  0  0  0  0  0  0  0
   25.1556   -8.7754  -21.7193 C   0  0  0  0  0  0  0  0  0  0  0  0
   25.1930   -9.4311  -22.9161 C   0  0  0  0  0  0  0  0  0  0  0  0
   26.1315   -9.1509  -23.8684 C   0  0  0  0  0  0  0  0  0  0  0  0
   27.0625   -8.1784  -23.6064 C   0  0  0  0  0  0  0  0  0  0  0  0
   27.0592   -7.4971  -22.4173 C   0  0  0  0  0  0  0  0  0  0  0  0
   26.1018   -7.8005  -21.4769 C   0  0  0  0  0  0  0  0  0  0  0  0
   23.6715  -10.1228  -18.5766 C   0  0  0  0  0  0  0  0  0  0  0  0
   22.7391  -10.9347  -18.6109 O   0  0  0  0  0  0  0  0  0  0  0  0
   23.9085  -11.1778  -15.2541 C   0  0  0  0  0  0  0  0  0  0  0  0
   23.4202   -9.7407  -15.0837 C   0  0  2  0  0  0  0  0  0  0  0  0
   22.4806   -9.5893  -13.9228 C   0  0  0  0  0  0  0  0  0  0  0  0
   22.8309   -9.2071  -16.3703 C   0  0  2  0  0  0  0  0  0  0  0  0
   23.7530   -9.2235  -17.4665 N   0  0  0  0  0  0  0  0  0  0  0  0
   22.2365   -7.8654  -16.1734 C   0  0  0  0  0  0  0  0  0  0  0  0
   23.0097   -6.9211  -15.8940 O   0  0  0  0  0  0  0  0  0  0  0  0
   15.7104   -9.1205  -19.6293 O   0  0  0  0  0  0  0  0  0  0  0  0
   16.7410   -8.3321  -19.1311 C   0  0  0  0  0  0  0  0  0  0  0  0
   18.0653   -8.5977  -19.3801 C   0  0  0  0  0  0  0  0  0  0  0  0
   19.0515   -7.7744  -18.8547 C   0  0  0  0  0  0  0  0  0  0  0  0
   18.7515   -6.6790  -18.0777 C   0  0  0  0  0  0  0  0  0  0  0  0
   19.7686   -5.7877  -17.4909 C   0  0  0  0  0  0  0  0  0  0  0  0
   20.2128   -6.3320  -16.1827 C   0  0  2  0  0  0  0  0  0  0  0  0
   20.8454   -7.6328  -16.2907 N   0  0  0  0  0  0  0  0  0  0  0  0
   19.1853   -6.3809  -15.1315 C   0  0  0  0  0  0  0  0  0  0  0  0
   18.6854   -5.2901  -14.7064 O   0  0  0  0  0  0  0  0  0  0  0  0
   17.4262   -6.4119  -17.8276 C   0  0  0  0  0  0  0  0  0  0  0  0
   16.4232   -7.2253  -18.3451 C   0  0  0  0  0  0  0  0  0  0  0  0
   18.6860   -7.5278  -14.5341 O   0  0  0  0  0  0  0  0  0  0  0  0
  2  1  1  6
  2 10  1  0
  2  3  1  0
  3  4  1  0
  4  9  1  0
  4  5  2  0
  5  6  1  0
  6  7  2  0
  8  7  1  0
  9  8  2  0
 10 11  2  0
 13 15  1  0
 13 14  1  1
 13 12  1  0
 15 16  1  6
 16 10  1  0
 17 26  1  0
 17 15  1  0
 18 17  2  0
 20 30  2  0
 20 19  1  0
 21 20  1  0
 22 23  1  0
 22 21  2  0
 23 29  2  0
 24 23  1  0
 25 26  1  0
 25 24  1  6
 27 25  1  0
 28 27  2  0
 29 30  1  0
 31 27  1  0
M  END
$$$$
