FVY.pdb
     RDKit          3D

 31 32  0  0  1  0  0  0  0  0999 V2000
   28.4555  -21.4420  -16.4074 N   0  0  0  0  0  0  0  0  0  0  0  0
   27.7455  -20.4582  -15.6478 C   0  0  1  0  0  0  0  0  0  0  0  0
   26.8764  -19.6868  -16.6504 C   0  0  0  0  0  0  0  0  0  0  0  0
   27.7179  -18.7844  -17.4643 C   0  0  0  0  0  0  0  0  0  0  0  0
   28.0797  -19.1080  -18.7403 C   0  0  0  0  0  0  0  0  0  0  0  0
   28.8564  -18.2851  -19.5056 C   0  0  0  0  0  0  0  0  0  0  0  0
   29.2824  -17.0974  -18.9678 C   0  0  0  0  0  0  0  0  0  0  0  0
   28.9412  -16.7357  -17.6907 C   0  0  0  0  0  0  0  0  0  0  0  0
   28.1575  -17.5845  -16.9435 C   0  0  0  0  0  0  0  0  0  0  0  0
   26.7713  -21.1028  -14.7088 C   0  0  0  0  0  0  0  0  0  0  0  0
   26.2405  -22.1898  -14.9667 O   0  0  0  0  0  0  0  0  0  0  0  0
   27.3074  -21.1282  -10.7892 C   0  0  0  0  0  0  0  0  0  0  0  0
   25.8817  -20.6697  -11.0892 C   0  0  2  0  0  0  0  0  0  0  0  0
   24.8855  -21.2198  -10.1103 C   0  0  0  0  0  0  0  0  0  0  0  0
   25.5012  -20.9685  -12.5221 C   0  0  2  0  0  0  0  0  0  0  0  0
   26.4380  -20.4557  -13.4769 N   0  0  0  0  0  0  0  0  0  0  0  0
   24.1197  -20.5237  -12.8153 C   0  0  0  0  0  0  0  0  0  0  0  0
   23.8540  -19.3098  -12.6626 O   0  0  0  0  0  0  0  0  0  0  0  0
   16.0121  -19.8655  -15.9978 O   0  0  0  0  0  0  0  0  0  0  0  0
   17.3467  -20.1694  -15.7560 C   0  0  0  0  0  0  0  0  0  0  0  0
   18.3364  -19.2171  -15.7569 C   0  0  0  0  0  0  0  0  0  0  0  0
   19.6528  -19.5806  -15.5093 C   0  0  0  0  0  0  0  0  0  0  0  0
   20.0159  -20.8838  -15.2572 C   0  0  0  0  0  0  0  0  0  0  0  0
   21.4031  -21.3129  -15.0022 C   0  0  0  0  0  0  0  0  0  0  0  0
   21.7563  -21.0408  -13.5859 C   0  0  2  0  0  0  0  0  0  0  0  0
   23.1162  -21.4204  -13.2535 N   0  0  0  0  0  0  0  0  0  0  0  0
   20.8396  -21.6019  -12.5819 C   0  0  0  0  0  0  0  0  0  0  0  0
   21.0040  -22.8052  -12.2006 O   0  0  0  0  0  0  0  0  0  0  0  0
   19.0262  -21.8382  -15.2560 C   0  0  0  0  0  0  0  0  0  0  0  0
   17.7010  -21.4937  -15.5021 C   0  0  0  0  0  0  0  0  0  0  0  0
   19.7795  -20.9367  -11.9859 O   0  0  0  0  0  0  0  0  0  0  0  0
  2  1  1  6
  2 10  1  0
  2  3  1  0
  3  4  1  0
  4  9  1  0
  4  5  2  0
  5  6  1  0
  6  7  2  0
  8  7  1  0
  9  8  2  0
 10 11  2  0
 13 15  1  0
 13 14  1  1
 13 12  1  0
 15 16  1  6
 16 10  1  0
 17 26  1  0
 17 15  1  0
 18 17  2  0
 20 30  2  0
 20 19  1  0
 21 20  1  0
 22 23  1  0
 22 21  2  0
 23 29  2  0
 24 23  1  0
 25 26  1  0
 25 24  1  6
 27 25  1  0
 28 27  2  0
 29 30  1  0
 31 27  1  0
M  END
$$$$
