FVY.pdb
     RDKit          3D

 31 32  0  0  1  0  0  0  0  0999 V2000
   20.4751  -13.4525  -16.5095 N   0  0  0  0  0  0  0  0  0  0  0  0
   20.1364  -12.2001  -17.1144 C   0  0  1  0  0  0  0  0  0  0  0  0
   18.6134  -12.2130  -17.3042 C   0  0  0  0  0  0  0  0  0  0  0  0
   18.2465  -13.1200  -18.4122 C   0  0  0  0  0  0  0  0  0  0  0  0
   18.2645  -12.6996  -19.7108 C   0  0  0  0  0  0  0  0  0  0  0  0
   17.9286  -13.5254  -20.7460 C   0  0  0  0  0  0  0  0  0  0  0  0
   17.5630  -14.8168  -20.4634 C   0  0  0  0  0  0  0  0  0  0  0  0
   17.5320  -15.2777  -19.1731 C   0  0  0  0  0  0  0  0  0  0  0  0
   17.8757  -14.4234  -18.1509 C   0  0  0  0  0  0  0  0  0  0  0  0
   20.3986  -11.0608  -16.1766 C   0  0  0  0  0  0  0  0  0  0  0  0
   20.2188  -11.1665  -14.9575 O   0  0  0  0  0  0  0  0  0  0  0  0
   23.4625   -9.0422  -15.4161 C   0  0  0  0  0  0  0  0  0  0  0  0
   22.4374   -8.0555  -15.9714 C   0  0  2  0  0  0  0  0  0  0  0  0
   22.5320   -6.7055  -15.3218 C   0  0  0  0  0  0  0  0  0  0  0  0
   21.0381   -8.6255  -15.9057 C   0  0  2  0  0  0  0  0  0  0  0  0
   20.8712   -9.8120  -16.6910 N   0  0  0  0  0  0  0  0  0  0  0  0
   20.0237   -7.5998  -16.2388 C   0  0  0  0  0  0  0  0  0  0  0  0
   19.8789   -7.2937  -17.4442 O   0  0  0  0  0  0  0  0  0  0  0  0
   13.1137   -2.3191  -16.4474 O   0  0  0  0  0  0  0  0  0  0  0  0
   14.0563   -3.3303  -16.3025 C   0  0  0  0  0  0  0  0  0  0  0  0
   14.9937   -3.6144  -17.2653 C   0  0  0  0  0  0  0  0  0  0  0  0
   15.9101   -4.6374  -17.0648 C   0  0  0  0  0  0  0  0  0  0  0  0
   15.9192   -5.3955  -15.9164 C   0  0  0  0  0  0  0  0  0  0  0  0
   16.8664   -6.4980  -15.6702 C   0  0  0  0  0  0  0  0  0  0  0  0
   18.2371   -5.9502  -15.5083 C   0  0  2  0  0  0  0  0  0  0  0  0
   19.2330   -6.9718  -15.2470 N   0  0  0  0  0  0  0  0  0  0  0  0
   18.3792   -4.8729  -14.5171 C   0  0  0  0  0  0  0  0  0  0  0  0
   18.6789   -5.1742  -13.3172 O   0  0  0  0  0  0  0  0  0  0  0  0
   14.9813   -5.1123  -14.9517 C   0  0  0  0  0  0  0  0  0  0  0  0
   14.0544   -4.0910  -15.1342 C   0  0  0  0  0  0  0  0  0  0  0  0
   18.2165   -3.5177  -14.7591 O   0  0  0  0  0  0  0  0  0  0  0  0
  2  1  1  1
  2 10  1  0
  2  3  1  0
  3  4  1  0
  4  9  1  0
  4  5  2  0
  5  6  1  0
  6  7  2  0
  8  7  1  0
  9  8  2  0
 10 11  2  0
 13 15  1  0
 13 14  1  1
 13 12  1  0
 15 16  1  6
 16 10  1  0
 17 26  1  0
 17 15  1  0
 18 17  2  0
 20 30  2  0
 20 19  1  0
 21 20  1  0
 22 23  1  0
 22 21  2  0
 23 29  2  0
 24 23  1  0
 25 26  1  0
 25 24  1  1
 27 25  1  0
 28 27  2  0
 29 30  1  0
 31 27  1  0
M  END
$$$$
