FVY.pdb
     RDKit          3D

 31 32  0  0  1  0  0  0  0  0999 V2000
   13.0239  -23.1545   -2.6032 N   0  0  0  0  0  0  0  0  0  0  0  0
   14.1851  -23.3286   -1.7845 C   0  0  1  0  0  0  0  0  0  0  0  0
   15.3861  -22.9272   -2.6517 C   0  0  0  0  0  0  0  0  0  0  0  0
   15.6571  -23.9730   -3.6606 C   0  0  0  0  0  0  0  0  0  0  0  0
   15.1765  -23.8737   -4.9344 C   0  0  0  0  0  0  0  0  0  0  0  0
   15.4183  -24.8312   -5.8784 C   0  0  0  0  0  0  0  0  0  0  0  0
   16.1691  -25.9240   -5.5274 C   0  0  0  0  0  0  0  0  0  0  0  0
   16.6699  -26.0613   -4.2591 C   0  0  0  0  0  0  0  0  0  0  0  0
   16.4103  -25.0809   -3.3294 C   0  0  0  0  0  0  0  0  0  0  0  0
   14.1906  -22.3560   -0.6441 C   0  0  0  0  0  0  0  0  0  0  0  0
   13.5083  -21.3246   -0.6650 O   0  0  0  0  0  0  0  0  0  0  0  0
   13.0412  -23.0699    2.6890 C   0  0  0  0  0  0  0  0  0  0  0  0
   14.4708  -22.5796    2.9093 C   0  0  2  0  0  0  0  0  0  0  0  0
   14.6155  -21.7878    4.1764 C   0  0  0  0  0  0  0  0  0  0  0  0
   14.9830  -21.8263    1.7020 C   0  0  2  0  0  0  0  0  0  0  0  0
   15.0009  -22.6152    0.5064 N   0  0  0  0  0  0  0  0  0  0  0  0
   16.3017  -21.2101    1.9726 C   0  0  0  0  0  0  0  0  0  0  0  0
   17.2948  -21.9688    2.0479 O   0  0  0  0  0  0  0  0  0  0  0  0
   16.3882  -13.1800    4.0198 O   0  0  0  0  0  0  0  0  0  0  0  0
   16.8304  -14.3550    3.4232 C   0  0  0  0  0  0  0  0  0  0  0  0
   18.1495  -14.7373    3.4251 C   0  0  0  0  0  0  0  0  0  0  0  0
   18.5321  -15.9223    2.8120 C   0  0  0  0  0  0  0  0  0  0  0  0
   17.6251  -16.7485    2.1888 C   0  0  0  0  0  0  0  0  0  0  0  0
   17.9920  -18.0079    1.5159 C   0  0  0  0  0  0  0  0  0  0  0  0
   17.7216  -19.1534    2.4211 C   0  0  2  0  0  0  0  0  0  0  0  0
   16.4603  -19.8142    2.1447 N   0  0  0  0  0  0  0  0  0  0  0  0
   17.8087  -18.8622    3.8601 C   0  0  0  0  0  0  0  0  0  0  0  0
   18.9565  -18.7730    4.4031 O   0  0  0  0  0  0  0  0  0  0  0  0
   16.3042  -16.3671    2.1861 C   0  0  0  0  0  0  0  0  0  0  0  0
   15.9010  -15.1829    2.7950 C   0  0  0  0  0  0  0  0  0  0  0  0
   16.7369  -18.6673    4.7173 O   0  0  0  0  0  0  0  0  0  0  0  0
  2  1  1  6
  2 10  1  0
  2  3  1  0
  3  4  1  0
  4  9  1  0
  4  5  2  0
  5  6  1  0
  6  7  2  0
  8  7  1  0
  9  8  2  0
 10 11  2  0
 13 15  1  0
 13 14  1  1
 13 12  1  0
 15 16  1  6
 16 10  1  0
 17 26  1  0
 17 15  1  0
 18 17  2  0
 20 30  2  0
 20 19  1  0
 21 20  1  0
 22 23  1  0
 22 21  2  0
 23 29  2  0
 24 23  1  0
 25 26  1  0
 25 24  1  6
 27 25  1  0
 28 27  2  0
 29 30  1  0
 31 27  1  0
M  END
$$$$
