FVY.pdb
     RDKit          3D

 31 32  0  0  1  0  0  0  0  0999 V2000
   23.7057  -16.2009  -17.5407 N   0  0  0  0  0  0  0  0  0  0  0  0
   23.4871  -17.5751  -17.2049 C   0  0  1  0  0  0  0  0  0  0  0  0
   24.7648  -18.0539  -16.5022 C   0  0  0  0  0  0  0  0  0  0  0  0
   25.8531  -18.2262  -17.4876 C   0  0  0  0  0  0  0  0  0  0  0  0
   25.8231  -19.2303  -18.4119 C   0  0  0  0  0  0  0  0  0  0  0  0
   26.8205  -19.4027  -19.3293 C   0  0  0  0  0  0  0  0  0  0  0  0
   27.8826  -18.5351  -19.3150 C   0  0  0  0  0  0  0  0  0  0  0  0
   27.9506  -17.5140  -18.4034 C   0  0  0  0  0  0  0  0  0  0  0  0
   26.9312  -17.3647  -17.4915 C   0  0  0  0  0  0  0  0  0  0  0  0
   22.4063  -17.7126  -16.1756 C   0  0  0  0  0  0  0  0  0  0  0  0
   22.2737  -16.8943  -15.2577 O   0  0  0  0  0  0  0  0  0  0  0  0
   19.0606  -17.1525  -16.4275 C   0  0  0  0  0  0  0  0  0  0  0  0
   19.0571  -18.6130  -15.9807 C   0  0  2  0  0  0  0  0  0  0  0  0
   17.8969  -18.9345  -15.0840 C   0  0  0  0  0  0  0  0  0  0  0  0
   20.3823  -18.9991  -15.3626 C   0  0  2  0  0  0  0  0  0  0  0  0
   21.4955  -18.8140  -16.2450 N   0  0  0  0  0  0  0  0  0  0  0  0
   20.3394  -20.3738  -14.8142 C   0  0  0  0  0  0  0  0  0  0  0  0
   20.3272  -21.3253  -15.6279 O   0  0  0  0  0  0  0  0  0  0  0  0
   25.6828  -23.1798  -15.8450 O   0  0  0  0  0  0  0  0  0  0  0  0
   24.6473  -23.0168  -14.9322 C   0  0  0  0  0  0  0  0  0  0  0  0
   23.7676  -24.0245  -14.6204 C   0  0  0  0  0  0  0  0  0  0  0  0
   22.7519  -23.8025  -13.7009 C   0  0  0  0  0  0  0  0  0  0  0  0
   22.5857  -22.5884  -13.0746 C   0  0  0  0  0  0  0  0  0  0  0  0
   21.5134  -22.3083  -12.1025 C   0  0  0  0  0  0  0  0  0  0  0  0
   20.2667  -21.9507  -12.8255 C   0  0  2  0  0  0  0  0  0  0  0  0
   20.3119  -20.6295  -13.4225 N   0  0  0  0  0  0  0  0  0  0  0  0
   19.0216  -22.0898  -12.0551 C   0  0  0  0  0  0  0  0  0  0  0  0
   18.4732  -21.0461  -11.5751 O   0  0  0  0  0  0  0  0  0  0  0  0
   23.4656  -21.5788  -13.3858 C   0  0  0  0  0  0  0  0  0  0  0  0
   24.4900  -21.7817  -14.3050 C   0  0  0  0  0  0  0  0  0  0  0  0
   18.3587  -23.2774  -11.7872 O   0  0  0  0  0  0  0  0  0  0  0  0
  2  1  1  1
  2 10  1  0
  2  3  1  0
  3  4  1  0
  4  9  1  0
  4  5  2  0
  5  6  1  0
  6  7  2  0
  8  7  1  0
  9  8  2  0
 10 11  2  0
 13 15  1  0
 13 14  1  1
 13 12  1  0
 15 16  1  6
 16 10  1  0
 17 26  1  0
 17 15  1  0
 18 17  2  0
 20 30  2  0
 20 19  1  0
 21 20  1  0
 22 23  1  0
 22 21  2  0
 23 29  2  0
 24 23  1  0
 25 26  1  0
 25 24  1  1
 27 25  1  0
 28 27  2  0
 29 30  1  0
 31 27  1  0
M  END
$$$$
