LTP.pdb
     RDKit          3D

 23 23  0  0  1  0  0  0  0  0999 V2000
   22.0778  -17.4475  -18.5628 C   0  0  0  0  0  0  0  0  0  0  0  0
   21.5862  -18.5325  -17.6324 C   0  0  2  0  0  0  0  0  0  0  0  0
   20.1118  -18.7662  -17.8781 C   0  0  0  0  0  0  0  0  0  0  0  0
   21.8595  -18.1086  -16.2223 C   0  0  0  0  0  0  0  0  0  0  0  0
   23.1944  -18.6762  -15.8000 C   0  0  2  0  0  0  0  0  0  0  0  0
   23.5320  -19.8626  -16.5304 N   0  0  0  0  0  0  0  0  0  0  0  0
   23.1939  -18.9244  -14.3163 C   0  0  0  0  0  0  0  0  0  0  0  0
   22.1304  -18.7370  -13.6788 O   0  0  0  0  0  0  0  0  0  0  0  0
   22.1981  -20.9372  -13.2647 C   0  0  0  0  0  0  0  0  0  0  0  0
   23.4667  -21.2630  -12.5069 C   0  0  1  0  0  0  0  0  0  0  0  0
   24.2145  -22.1249  -13.3423 O   0  0  0  0  0  0  0  0  0  0  0  0
   24.2807  -19.9718  -12.2799 C   0  0  2  0  0  0  0  0  0  0  0  0
   24.3269  -19.3544  -13.6185 N   0  0  0  0  0  0  0  0  0  0  0  0
   25.6507  -20.3084  -11.8227 C   0  0  0  0  0  0  0  0  0  0  0  0
   26.3690  -20.9290  -12.6858 O   0  0  0  0  0  0  0  0  0  0  0  0
   26.1767  -19.9904  -10.5404 N   0  0  0  0  0  0  0  0  0  0  0  0
   25.4758  -19.2946   -9.5135 C   0  0  0  0  0  0  0  0  0  0  0  0
   26.0502  -19.9709   -8.2526 C   0  0  0  0  0  0  0  0  0  0  0  0
   27.5407  -20.0109   -8.6391 C   0  0  0  0  0  0  0  0  0  0  0  0
   27.5110  -20.2778  -10.1278 C   0  0  1  0  0  0  0  0  0  0  0  0
   27.9068  -21.6854  -10.4095 C   0  0  0  0  0  0  0  0  0  0  0  0
   27.0355  -22.5256  -10.6473 O   0  0  0  0  0  0  0  0  0  0  0  0
   29.2341  -22.0235  -10.3998 O   0  0  0  0  0  0  0  0  0  0  0  0
  2  3  1  1
  2  1  1  0
  4  2  1  0
  5  7  1  0
  5  4  1  0
  5  6  1  6
  7 13  1  0
  8  7  2  0
 10  9  1  6
 10 12  1  0
 11 10  1  0
 12 13  1  6
 12 14  1  0
 14 16  1  0
 15 14  2  0
 16 20  1  0
 16 17  1  0
 17 18  1  0
 19 18  1  0
 20 19  1  0
 20 21  1  1
 21 23  1  0
 22 21  2  0
M  END
$$$$
