LTP.pdb
     RDKit          3D

 23 23  0  0  1  0  0  0  0  0999 V2000
   18.0802  -13.8212  -20.3819 C   0  0  0  0  0  0  0  0  0  0  0  0
   18.4741  -14.9041  -19.4037 C   0  0  2  0  0  0  0  0  0  0  0  0
   17.2590  -15.3131  -18.6005 C   0  0  0  0  0  0  0  0  0  0  0  0
   19.5723  -14.3791  -18.5312 C   0  0  0  0  0  0  0  0  0  0  0  0
   20.7224  -13.9503  -19.4120 C   0  0  2  0  0  0  0  0  0  0  0  0
   21.3999  -15.0694  -19.9982 N   0  0  0  0  0  0  0  0  0  0  0  0
   21.6683  -13.0841  -18.6258 C   0  0  0  0  0  0  0  0  0  0  0  0
   22.5891  -13.6376  -17.9792 O   0  0  0  0  0  0  0  0  0  0  0  0
   24.0760  -10.6418  -19.7415 C   0  0  0  0  0  0  0  0  0  0  0  0
   23.0673   -9.8851  -18.9049 C   0  0  1  0  0  0  0  0  0  0  0  0
   22.0268   -9.5098  -19.7859 O   0  0  0  0  0  0  0  0  0  0  0  0
   22.4831  -10.8210  -17.8259 C   0  0  2  0  0  0  0  0  0  0  0  0
   21.5647  -11.6901  -18.5851 N   0  0  0  0  0  0  0  0  0  0  0  0
   21.7296  -10.0312  -16.8221 C   0  0  0  0  0  0  0  0  0  0  0  0
   20.6886   -9.4351  -17.2771 O   0  0  0  0  0  0  0  0  0  0  0  0
   22.0884   -9.9121  -15.4513 N   0  0  0  0  0  0  0  0  0  0  0  0
   23.1365  -10.6332  -14.8099 C   0  0  0  0  0  0  0  0  0  0  0  0
   23.6299   -9.5907  -13.7867 C   0  0  0  0  0  0  0  0  0  0  0  0
   22.2732   -9.0704  -13.2756 C   0  0  0  0  0  0  0  0  0  0  0  0
   21.4014   -9.0883  -14.5117 C   0  0  1  0  0  0  0  0  0  0  0  0
   21.1868   -7.7030  -15.0142 C   0  0  0  0  0  0  0  0  0  0  0  0
   21.8344   -7.3015  -15.9842 O   0  0  0  0  0  0  0  0  0  0  0  0
   20.2723   -6.8973  -14.3894 O   0  0  0  0  0  0  0  0  0  0  0  0
  2  3  1  1
  2  1  1  0
  4  2  1  0
  5  7  1  0
  5  4  1  0
  5  6  1  1
  7 13  1  0
  8  7  2  0
 10  9  1  6
 10 12  1  0
 11 10  1  0
 12 13  1  6
 12 14  1  0
 14 16  1  0
 15 14  2  0
 16 20  1  0
 16 17  1  0
 17 18  1  0
 19 18  1  0
 20 19  1  0
 20 21  1  6
 21 23  1  0
 22 21  2  0
M  END
$$$$
