LTP.pdb
     RDKit          3D

 23 23  0  0  1  0  0  0  0  0999 V2000
   26.9057  -19.5331   -4.5351 C   0  0  0  0  0  0  0  0  0  0  0  0
   27.7610  -20.1442   -5.6211 C   0  0  2  0  0  0  0  0  0  0  0  0
   29.1921  -20.2279   -5.1375 C   0  0  0  0  0  0  0  0  0  0  0  0
   27.6341  -19.3042   -6.8545 C   0  0  0  0  0  0  0  0  0  0  0  0
   26.3195  -19.6296   -7.5243 C   0  0  2  0  0  0  0  0  0  0  0  0
   25.8291  -20.9237   -7.1509 N   0  0  0  0  0  0  0  0  0  0  0  0
   26.4659  -19.5056   -9.0164 C   0  0  0  0  0  0  0  0  0  0  0  0
   26.9834  -18.4627   -9.4821 O   0  0  0  0  0  0  0  0  0  0  0  0
   28.2602  -21.6291  -11.3043 C   0  0  0  0  0  0  0  0  0  0  0  0
   26.8392  -21.6481  -11.8239 C   0  0  1  0  0  0  0  0  0  0  0  0
   26.2130  -22.7622  -11.2186 O   0  0  0  0  0  0  0  0  0  0  0  0
   26.1054  -20.3677  -11.3727 C   0  0  2  0  0  0  0  0  0  0  0  0
   26.0501  -20.5021   -9.9050 N   0  0  0  0  0  0  0  0  0  0  0  0
   24.7344  -20.3418  -11.9374 C   0  0  0  0  0  0  0  0  0  0  0  0
   23.8718  -21.0355  -11.2888 O   0  0  0  0  0  0  0  0  0  0  0  0
   24.3526  -19.6206  -13.1019 N   0  0  0  0  0  0  0  0  0  0  0  0
   25.1659  -18.6704  -13.7843 C   0  0  0  0  0  0  0  0  0  0  0  0
   24.7257  -18.8983  -15.2443 C   0  0  0  0  0  0  0  0  0  0  0  0
   23.2019  -18.9945  -15.0409 C   0  0  0  0  0  0  0  0  0  0  0  0
   23.0684  -19.7106  -13.7152 C   0  0  1  0  0  0  0  0  0  0  0  0
   22.6332  -21.1186  -13.9287 C   0  0  0  0  0  0  0  0  0  0  0  0
   23.4801  -21.9917  -14.1343 O   0  0  0  0  0  0  0  0  0  0  0  0
   21.2977  -21.4204  -13.8929 O   0  0  0  0  0  0  0  0  0  0  0  0
  2  3  1  1
  2  1  1  0
  4  2  1  0
  5  7  1  0
  5  4  1  0
  5  6  1  6
  7 13  1  0
  8  7  2  0
 10  9  1  1
 10 12  1  0
 11 10  1  0
 12 13  1  1
 12 14  1  0
 14 16  1  0
 15 14  2  0
 16 20  1  0
 16 17  1  0
 17 18  1  0
 19 18  1  0
 20 19  1  0
 20 21  1  6
 21 23  1  0
 22 21  2  0
M  END
$$$$
