LTP.pdb
     RDKit          3D

 23 23  0  0  1  0  0  0  0  0999 V2000
   19.7269  -10.8025  -20.8673 C   0  0  0  0  0  0  0  0  0  0  0  0
   18.4911  -10.6501  -20.0104 C   0  0  2  0  0  0  0  0  0  0  0  0
   17.4977   -9.7614  -20.7261 C   0  0  0  0  0  0  0  0  0  0  0  0
   18.8989  -10.0824  -18.6859 C   0  0  0  0  0  0  0  0  0  0  0  0
   19.8911  -11.0239  -18.0444 C   0  0  2  0  0  0  0  0  0  0  0  0
   19.2992  -12.2860  -17.7099 N   0  0  0  0  0  0  0  0  0  0  0  0
   20.5072  -10.3678  -16.8390 C   0  0  0  0  0  0  0  0  0  0  0  0
   19.9228  -10.4760  -15.7348 O   0  0  0  0  0  0  0  0  0  0  0  0
   23.7413  -10.8153  -15.0993 C   0  0  0  0  0  0  0  0  0  0  0  0
   23.7239   -9.4184  -15.6809 C   0  0  1  0  0  0  0  0  0  0  0  0
   24.2264   -9.5334  -16.9978 O   0  0  0  0  0  0  0  0  0  0  0  0
   22.2703   -8.9055  -15.7535 C   0  0  2  0  0  0  0  0  0  0  0  0
   21.7019   -9.6433  -16.8970 N   0  0  0  0  0  0  0  0  0  0  0  0
   22.2587   -7.4480  -16.0265 C   0  0  0  0  0  0  0  0  0  0  0  0
   22.6231   -7.1194  -17.2120 O   0  0  0  0  0  0  0  0  0  0  0  0
   21.8808   -6.4514  -15.0851 N   0  0  0  0  0  0  0  0  0  0  0  0
   21.2750   -6.7025  -13.8203 C   0  0  0  0  0  0  0  0  0  0  0  0
   21.8785   -5.5652  -12.9721 C   0  0  0  0  0  0  0  0  0  0  0  0
   21.7390   -4.3995  -13.9692 C   0  0  0  0  0  0  0  0  0  0  0  0
   22.0064   -5.0488  -15.3091 C   0  0  1  0  0  0  0  0  0  0  0  0
   23.3562   -4.6674  -15.8092 C   0  0  0  0  0  0  0  0  0  0  0  0
   24.2975   -5.4536  -15.6773 O   0  0  0  0  0  0  0  0  0  0  0  0
   23.5293   -3.4479  -16.4083 O   0  0  0  0  0  0  0  0  0  0  0  0
  2  3  1  6
  2  1  1  0
  4  2  1  0
  5  7  1  0
  5  4  1  0
  5  6  1  1
  7 13  1  0
  8  7  2  0
 10  9  1  6
 10 12  1  0
 11 10  1  0
 12 13  1  6
 12 14  1  0
 14 16  1  0
 15 14  2  0
 16 20  1  0
 16 17  1  0
 17 18  1  0
 19 18  1  0
 20 19  1  0
 20 21  1  1
 21 23  1  0
 22 21  2  0
M  END
$$$$
