LTP.pdb
     RDKit          3D

 23 23  0  0  1  0  0  0  0  0999 V2000
   24.4472  -21.2779   -8.2566 C   0  0  0  0  0  0  0  0  0  0  0  0
   24.5850  -21.2871   -9.7618 C   0  0  2  0  0  0  0  0  0  0  0  0
   26.0385  -21.0829  -10.1282 C   0  0  0  0  0  0  0  0  0  0  0  0
   23.7081  -20.2117  -10.3253 C   0  0  0  0  0  0  0  0  0  0  0  0
   23.6941  -20.3425  -11.8304 C   0  0  2  0  0  0  0  0  0  0  0  0
   23.5106  -21.7001  -12.2526 N   0  0  0  0  0  0  0  0  0  0  0  0
   24.9544  -19.7533  -12.4027 C   0  0  0  0  0  0  0  0  0  0  0  0
   25.3411  -18.6392  -11.9766 O   0  0  0  0  0  0  0  0  0  0  0  0
   28.5010  -20.9993  -12.7095 C   0  0  0  0  0  0  0  0  0  0  0  0
   27.9253  -20.8536  -14.1013 C   0  0  1  0  0  0  0  0  0  0  0  0
   27.3163  -22.0926  -14.4077 O   0  0  0  0  0  0  0  0  0  0  0  0
   26.8372  -19.7593  -14.0998 C   0  0  2  0  0  0  0  0  0  0  0  0
   25.7120  -20.3939  -13.3882 N   0  0  0  0  0  0  0  0  0  0  0  0
   26.4443  -19.4313  -15.4917 C   0  0  0  0  0  0  0  0  0  0  0  0
   25.7521  -20.3354  -16.0829 O   0  0  0  0  0  0  0  0  0  0  0  0
   26.7807  -18.2245  -16.1643 N   0  0  0  0  0  0  0  0  0  0  0  0
   27.4356  -17.1071  -15.5705 C   0  0  0  0  0  0  0  0  0  0  0  0
   28.2733  -16.5902  -16.7572 C   0  0  0  0  0  0  0  0  0  0  0  0
   27.2218  -16.6933  -17.8780 C   0  0  0  0  0  0  0  0  0  0  0  0
   26.4515  -17.9460  -17.5235 C   0  0  1  0  0  0  0  0  0  0  0  0
   26.8212  -19.0586  -18.4417 C   0  0  0  0  0  0  0  0  0  0  0  0
   27.5446  -19.9697  -18.0317 O   0  0  0  0  0  0  0  0  0  0  0  0
   26.3506  -19.0508  -19.7279 O   0  0  0  0  0  0  0  0  0  0  0  0
  2  3  1  1
  2  1  1  0
  4  2  1  0
  5  7  1  0
  5  4  1  0
  5  6  1  1
  7 13  1  0
  8  7  2  0
 10  9  1  1
 10 12  1  0
 11 10  1  0
 12 13  1  1
 12 14  1  0
 14 16  1  0
 15 14  2  0
 16 20  1  0
 16 17  1  0
 17 18  1  0
 19 18  1  0
 20 19  1  0
 20 21  1  6
 21 23  1  0
 22 21  2  0
M  END
$$$$
