LTP.pdb
     RDKit          3D

 23 23  0  0  1  0  0  0  0  0999 V2000
   32.3451   -5.1962  -14.4488 C   0  0  0  0  0  0  0  0  0  0  0  0
   33.2738   -4.7411  -15.5512 C   0  0  2  0  0  0  0  0  0  0  0  0
   32.9523   -3.3070  -15.9103 C   0  0  0  0  0  0  0  0  0  0  0  0
   33.1098   -5.6623  -16.7205 C   0  0  0  0  0  0  0  0  0  0  0  0
   33.4727   -7.0624  -16.2839 C   0  0  2  0  0  0  0  0  0  0  0  0
   34.8397   -7.1595  -15.8633 N   0  0  0  0  0  0  0  0  0  0  0  0
   33.1666   -8.0344  -17.3904 C   0  0  0  0  0  0  0  0  0  0  0  0
   34.1234   -8.5457  -18.0193 O   0  0  0  0  0  0  0  0  0  0  0  0
   33.5459  -10.7011  -17.9720 C   0  0  0  0  0  0  0  0  0  0  0  0
   32.0372  -10.7317  -18.0833 C   0  0  1  0  0  0  0  0  0  0  0  0
   31.5451  -10.7793  -16.7584 O   0  0  0  0  0  0  0  0  0  0  0  0
   31.5400   -9.4291  -18.7449 C   0  0  2  0  0  0  0  0  0  0  0  0
   31.8625   -8.3918  -17.7473 N   0  0  0  0  0  0  0  0  0  0  0  0
   30.0743   -9.4957  -18.9602 C   0  0  0  0  0  0  0  0  0  0  0  0
   29.3743   -9.5493  -17.8863 O   0  0  0  0  0  0  0  0  0  0  0  0
   29.4431   -9.5012  -20.2344 N   0  0  0  0  0  0  0  0  0  0  0  0
   30.1063   -9.3143  -21.4814 C   0  0  0  0  0  0  0  0  0  0  0  0
   29.2707  -10.2275  -22.4008 C   0  0  0  0  0  0  0  0  0  0  0  0
   27.8567   -9.8527  -21.9183 C   0  0  0  0  0  0  0  0  0  0  0  0
   28.0375   -9.6382  -20.4319 C   0  0  1  0  0  0  0  0  0  0  0  0
   27.4609  -10.7802  -19.6698 C   0  0  0  0  0  0  0  0  0  0  0  0
   28.2116  -11.6433  -19.2081 O   0  0  0  0  0  0  0  0  0  0  0  0
   26.1045  -10.8526  -19.4946 O   0  0  0  0  0  0  0  0  0  0  0  0
  2  3  1  6
  2  1  1  0
  4  2  1  0
  5  7  1  0
  5  4  1  0
  5  6  1  6
  7 13  1  0
  8  7  2  0
 10  9  1  1
 10 12  1  0
 11 10  1  0
 12 13  1  1
 12 14  1  0
 14 16  1  0
 15 14  2  0
 16 20  1  0
 16 17  1  0
 17 18  1  0
 19 18  1  0
 20 19  1  0
 20 21  1  1
 21 23  1  0
 22 21  2  0
M  END
$$$$
