LTP.pdb
     RDKit          3D

 23 23  0  0  1  0  0  0  0  0999 V2000
   21.2288  -19.9666  -12.2145 C   0  0  0  0  0  0  0  0  0  0  0  0
   22.3386  -20.7890  -12.8280 C   0  0  2  0  0  0  0  0  0  0  0  0
   21.7337  -21.8601  -13.7088 C   0  0  0  0  0  0  0  0  0  0  0  0
   23.1642  -21.3720  -11.7228 C   0  0  0  0  0  0  0  0  0  0  0  0
   23.7944  -20.2403  -10.9454 C   0  0  2  0  0  0  0  0  0  0  0  0
   24.4191  -19.2774  -11.8043 N   0  0  0  0  0  0  0  0  0  0  0  0
   24.7669  -20.7947   -9.9405 C   0  0  0  0  0  0  0  0  0  0  0  0
   24.4445  -21.8239   -9.3008 O   0  0  0  0  0  0  0  0  0  0  0  0
   28.2394  -21.8486  -10.6415 C   0  0  0  0  0  0  0  0  0  0  0  0
   28.3128  -20.7759   -9.5768 C   0  0  1  0  0  0  0  0  0  0  0  0
   28.4148  -19.5443  -10.2644 O   0  0  0  0  0  0  0  0  0  0  0  0
   27.0070  -20.7720   -8.7544 C   0  0  2  0  0  0  0  0  0  0  0  0
   26.0133  -20.2123   -9.6895 N   0  0  0  0  0  0  0  0  0  0  0  0
   27.1535  -19.8888   -7.5722 C   0  0  0  0  0  0  0  0  0  0  0  0
   26.8296  -18.6635   -7.7722 O   0  0  0  0  0  0  0  0  0  0  0  0
   27.6109  -20.3154   -6.2952 N   0  0  0  0  0  0  0  0  0  0  0  0
   27.8660  -21.6667   -5.9223 C   0  0  0  0  0  0  0  0  0  0  0  0
   29.0513  -21.4874   -4.9527 C   0  0  0  0  0  0  0  0  0  0  0  0
   28.5451  -20.2740   -4.1501 C   0  0  0  0  0  0  0  0  0  0  0  0
   27.8220  -19.4432   -5.1870 C   0  0  1  0  0  0  0  0  0  0  0  0
   28.6306  -18.2456   -5.5469 C   0  0  0  0  0  0  0  0  0  0  0  0
   29.2476  -18.2277   -6.6149 O   0  0  0  0  0  0  0  0  0  0  0  0
   28.6751  -17.1828   -4.6842 O   0  0  0  0  0  0  0  0  0  0  0  0
  2  3  1  1
  2  1  1  0
  4  2  1  0
  5  7  1  0
  5  4  1  0
  5  6  1  6
  7 13  1  0
  8  7  2  0
 10  9  1  6
 10 12  1  0
 11 10  1  0
 12 13  1  6
 12 14  1  0
 14 16  1  0
 15 14  2  0
 16 20  1  0
 16 17  1  0
 17 18  1  0
 19 18  1  0
 20 19  1  0
 20 21  1  6
 21 23  1  0
 22 21  2  0
M  END
$$$$
