LTP.pdb
     RDKit          3D

 23 23  0  0  1  0  0  0  0  0999 V2000
   31.1683  -23.4187  -11.2091 C   0  0  0  0  0  0  0  0  0  0  0  0
   32.0157  -22.3069  -11.7841 C   0  0  2  0  0  0  0  0  0  0  0  0
   33.2050  -22.0709  -10.8793 C   0  0  0  0  0  0  0  0  0  0  0  0
   31.1636  -21.0829  -11.9211 C   0  0  0  0  0  0  0  0  0  0  0  0
   30.1036  -21.3496  -12.9642 C   0  0  2  0  0  0  0  0  0  0  0  0
   30.5970  -21.1580  -14.2964 N   0  0  0  0  0  0  0  0  0  0  0  0
   28.8986  -20.4905  -12.6943 C   0  0  0  0  0  0  0  0  0  0  0  0
   29.0362  -19.2442  -12.7124 O   0  0  0  0  0  0  0  0  0  0  0  0
   26.2470  -19.2961  -14.2411 C   0  0  0  0  0  0  0  0  0  0  0  0
   25.5709  -20.1184  -13.1657 C   0  0  1  0  0  0  0  0  0  0  0  0
   25.3994  -21.4128  -13.7086 O   0  0  0  0  0  0  0  0  0  0  0  0
   26.4954  -20.2214  -11.9343 C   0  0  2  0  0  0  0  0  0  0  0  0
   27.6333  -21.0214  -12.4245 N   0  0  0  0  0  0  0  0  0  0  0  0
   25.8012  -20.9361  -10.8360 C   0  0  0  0  0  0  0  0  0  0  0  0
   25.2610  -22.0493  -11.1749 O   0  0  0  0  0  0  0  0  0  0  0  0
   25.7131  -20.4694   -9.4956 N   0  0  0  0  0  0  0  0  0  0  0  0
   26.4834  -19.4060   -8.9428 C   0  0  0  0  0  0  0  0  0  0  0  0
   25.4739  -18.7938   -7.9511 C   0  0  0  0  0  0  0  0  0  0  0  0
   24.9057  -20.0852   -7.3331 C   0  0  0  0  0  0  0  0  0  0  0  0
   24.8737  -21.0486   -8.4990 C   0  0  1  0  0  0  0  0  0  0  0  0
   23.4750  -21.2438   -8.9712 C   0  0  0  0  0  0  0  0  0  0  0  0
   23.0889  -20.6579   -9.9857 O   0  0  0  0  0  0  0  0  0  0  0  0
   22.6399  -22.0722   -8.2695 O   0  0  0  0  0  0  0  0  0  0  0  0
  2  3  1  1
  2  1  1  0
  4  2  1  0
  5  7  1  0
  5  4  1  0
  5  6  1  6
  7 13  1  0
  8  7  2  0
 10  9  1  6
 10 12  1  0
 11 10  1  0
 12 13  1  6
 12 14  1  0
 14 16  1  0
 15 14  2  0
 16 20  1  0
 16 17  1  0
 17 18  1  0
 19 18  1  0
 20 19  1  0
 20 21  1  6
 21 23  1  0
 22 21  2  0
M  END
$$$$
