LTP.pdb
     RDKit          3D

 23 23  0  0  1  0  0  0  0  0999 V2000
   27.1232  -22.4539  -19.7455 C   0  0  0  0  0  0  0  0  0  0  0  0
   27.2064  -21.2064  -18.8961 C   0  0  2  0  0  0  0  0  0  0  0  0
   27.1849  -19.9908  -19.7966 C   0  0  0  0  0  0  0  0  0  0  0  0
   28.4570  -21.2738  -18.0748 C   0  0  0  0  0  0  0  0  0  0  0  0
   28.4710  -22.5869  -17.3277 C   0  0  2  0  0  0  0  0  0  0  0  0
   27.6552  -22.5465  -16.1496 N   0  0  0  0  0  0  0  0  0  0  0  0
   29.8887  -22.9709  -17.0029 C   0  0  0  0  0  0  0  0  0  0  0  0
   30.4635  -22.3885  -16.0527 O   0  0  0  0  0  0  0  0  0  0  0  0
   31.3681  -25.5318  -15.3246 C   0  0  0  0  0  0  0  0  0  0  0  0
   31.8503  -25.7092  -16.7479 C   0  0  1  0  0  0  0  0  0  0  0  0
   30.8418  -26.4400  -17.4177 O   0  0  0  0  0  0  0  0  0  0  0  0
   31.9872  -24.3289  -17.4243 C   0  0  2  0  0  0  0  0  0  0  0  0
   30.5922  -23.9480  -17.7142 N   0  0  0  0  0  0  0  0  0  0  0  0
   32.7571  -24.4550  -18.6854 C   0  0  0  0  0  0  0  0  0  0  0  0
   32.0840  -24.8943  -19.6855 O   0  0  0  0  0  0  0  0  0  0  0  0
   34.1334  -24.1274  -18.8294 N   0  0  0  0  0  0  0  0  0  0  0  0
   34.9565  -23.5678  -17.8099 C   0  0  0  0  0  0  0  0  0  0  0  0
   36.3155  -24.2191  -18.1361 C   0  0  0  0  0  0  0  0  0  0  0  0
   36.3169  -24.0566  -19.6679 C   0  0  0  0  0  0  0  0  0  0  0  0
   34.8666  -24.2631  -20.0449 C   0  0  1  0  0  0  0  0  0  0  0  0
   34.6813  -25.5974  -20.6795 C   0  0  0  0  0  0  0  0  0  0  0  0
   34.2973  -26.5482  -19.9938 O   0  0  0  0  0  0  0  0  0  0  0  0
   34.9408  -25.7460  -22.0160 O   0  0  0  0  0  0  0  0  0  0  0  0
  2  3  1  6
  2  1  1  0
  4  2  1  0
  5  7  1  0
  5  4  1  0
  5  6  1  1
  7 13  1  0
  8  7  2  0
 10  9  1  1
 10 12  1  0
 11 10  1  0
 12 13  1  6
 12 14  1  0
 14 16  1  0
 15 14  2  0
 16 20  1  0
 16 17  1  0
 17 18  1  0
 19 18  1  0
 20 19  1  0
 20 21  1  1
 21 23  1  0
 22 21  2  0
M  END
$$$$
