LTP.pdb
     RDKit          3D

 23 23  0  0  1  0  0  0  0  0999 V2000
   28.0138  -24.3540  -17.0520 C   0  0  0  0  0  0  0  0  0  0  0  0
   28.0597  -23.0664  -17.8423 C   0  0  2  0  0  0  0  0  0  0  0  0
   29.3965  -22.9617  -18.5429 C   0  0  0  0  0  0  0  0  0  0  0  0
   27.8281  -21.9238  -16.9023 C   0  0  0  0  0  0  0  0  0  0  0  0
   26.5024  -22.1333  -16.2086 C   0  0  2  0  0  0  0  0  0  0  0  0
   25.4033  -22.1178  -17.1288 N   0  0  0  0  0  0  0  0  0  0  0  0
   26.3283  -21.1041  -15.1253 C   0  0  0  0  0  0  0  0  0  0  0  0
   26.6094  -19.9098  -15.3841 O   0  0  0  0  0  0  0  0  0  0  0  0
   23.0500  -21.1443  -13.8542 C   0  0  0  0  0  0  0  0  0  0  0  0
   23.9959  -19.9763  -13.6783 C   0  0  1  0  0  0  0  0  0  0  0  0
   23.3138  -19.0343  -12.8738 O   0  0  0  0  0  0  0  0  0  0  0  0
   25.2593  -20.4419  -12.9244 C   0  0  2  0  0  0  0  0  0  0  0  0
   25.8671  -21.4219  -13.8440 N   0  0  0  0  0  0  0  0  0  0  0  0
   24.8779  -21.1008  -11.6517 C   0  0  0  0  0  0  0  0  0  0  0  0
   24.0475  -22.0709  -11.7755 O   0  0  0  0  0  0  0  0  0  0  0  0
   25.3656  -20.7271  -10.3693 N   0  0  0  0  0  0  0  0  0  0  0  0
   26.4187  -19.7981  -10.1286 C   0  0  0  0  0  0  0  0  0  0  0  0
   25.9490  -19.1535   -8.8092 C   0  0  0  0  0  0  0  0  0  0  0  0
   25.4952  -20.4168   -8.0535 C   0  0  0  0  0  0  0  0  0  0  0  0
   24.8992  -21.2824   -9.1415 C   0  0  1  0  0  0  0  0  0  0  0  0
   23.4133  -21.2877   -9.0434 C   0  0  0  0  0  0  0  0  0  0  0  0
   22.7502  -20.6045   -9.8276 O   0  0  0  0  0  0  0  0  0  0  0  0
   22.8077  -22.0527   -8.0821 O   0  0  0  0  0  0  0  0  0  0  0  0
  2  3  1  1
  2  1  1  0
  4  2  1  0
  5  7  1  0
  5  4  1  0
  5  6  1  6
  7 13  1  0
  8  7  2  0
 10  9  1  1
 10 12  1  0
 11 10  1  0
 12 13  1  6
 12 14  1  0
 14 16  1  0
 15 14  2  0
 16 20  1  0
 16 17  1  0
 17 18  1  0
 19 18  1  0
 20 19  1  0
 20 21  1  6
 21 23  1  0
 22 21  2  0
M  END
$$$$
