LTP.pdb
     RDKit          3D

 23 23  0  0  1  0  0  0  0  0999 V2000
   28.4121  -20.4909   -6.5572 C   0  0  0  0  0  0  0  0  0  0  0  0
   27.4511  -20.0066   -7.6186 C   0  0  2  0  0  0  0  0  0  0  0  0
   27.1157  -18.5544   -7.3588 C   0  0  0  0  0  0  0  0  0  0  0  0
   26.2330  -20.8775   -7.5892 C   0  0  0  0  0  0  0  0  0  0  0  0
   25.3392  -20.4929   -8.7449 C   0  0  2  0  0  0  0  0  0  0  0  0
   24.0311  -21.0677   -8.6302 N   0  0  0  0  0  0  0  0  0  0  0  0
   25.9964  -20.8740  -10.0433 C   0  0  0  0  0  0  0  0  0  0  0  0
   26.5325  -22.0040  -10.1334 O   0  0  0  0  0  0  0  0  0  0  0  0
   25.4503  -22.7271  -11.9439 C   0  0  0  0  0  0  0  0  0  0  0  0
   25.2591  -21.5123  -12.8256 C   0  0  1  0  0  0  0  0  0  0  0  0
   24.0063  -20.9607  -12.4706 O   0  0  0  0  0  0  0  0  0  0  0  0
   26.3575  -20.4722  -12.5199 C   0  0  2  0  0  0  0  0  0  0  0  0
   26.0350  -20.0233  -11.1526 N   0  0  0  0  0  0  0  0  0  0  0  0
   26.2606  -19.3368  -13.4689 C   0  0  0  0  0  0  0  0  0  0  0  0
   25.1897  -18.6379  -13.3646 O   0  0  0  0  0  0  0  0  0  0  0  0
   27.2483  -19.0044  -14.4363 N   0  0  0  0  0  0  0  0  0  0  0  0
   28.5349  -19.6077  -14.5388 C   0  0  0  0  0  0  0  0  0  0  0  0
   28.7553  -19.5773  -16.0645 C   0  0  0  0  0  0  0  0  0  0  0  0
   28.2578  -18.1513  -16.3675 C   0  0  0  0  0  0  0  0  0  0  0  0
   27.1027  -17.9705  -15.4076 C   0  0  1  0  0  0  0  0  0  0  0  0
   25.8065  -18.0481  -16.1365 C   0  0  0  0  0  0  0  0  0  0  0  0
   25.3461  -17.0340  -16.6668 O   0  0  0  0  0  0  0  0  0  0  0  0
   25.1468  -19.2464  -16.2056 O   0  0  0  0  0  0  0  0  0  0  0  0
  2  3  1  1
  2  1  1  0
  4  2  1  0
  5  7  1  0
  5  4  1  0
  5  6  1  1
  7 13  1  0
  8  7  2  0
 10  9  1  1
 10 12  1  0
 11 10  1  0
 12 13  1  1
 12 14  1  0
 14 16  1  0
 15 14  2  0
 16 20  1  0
 16 17  1  0
 17 18  1  0
 19 18  1  0
 20 19  1  0
 20 21  1  6
 21 23  1  0
 22 21  2  0
M  END
$$$$
