PTH.pdb
     RDKit          3D

 25 26  0  0  1  0  0  0  0  0999 V2000
    9.3499  -14.4648   18.8573 N   0  0  0  0  0  0  0  0  0  0  0  0
    8.9852  -13.9420   17.5607 C   0  0  0  0  0  0  0  0  0  0  0  0
    7.9170  -12.9206   17.7579 C   0  0  0  0  0  0  0  0  0  0  0  0
    7.4080  -13.1399   19.1630 C   0  0  0  0  0  0  0  0  0  0  0  0
    8.5939  -13.7737   19.8465 C   0  0  1  0  0  0  0  0  0  0  0  0
    8.2032  -14.6418   20.9765 C   0  0  0  0  0  0  0  0  0  0  0  0
    7.3705  -14.1920   21.8077 O   0  0  0  0  0  0  0  0  0  0  0  0
    7.9189  -18.7610   20.8192 C   0  0  0  0  0  0  0  0  0  0  0  0
    8.8019  -18.2496   21.9347 C   0  0  1  0  0  0  0  0  0  0  0  0
   10.1132  -18.3996   21.5641 O   0  0  0  0  0  0  0  0  0  0  0  0
    8.4185  -16.8079   22.2000 C   0  0  2  0  0  0  0  0  0  0  0  0
    8.7646  -15.9425   21.1005 N   0  0  0  0  0  0  0  0  0  0  0  0
    9.2729  -16.3907   23.3678 C   0  0  0  0  0  0  0  0  0  0  0  0
   10.3653  -15.8054   23.1511 O   0  0  0  0  0  0  0  0  0  0  0  0
    8.8875  -16.6356   24.7109 N   0  0  0  0  0  0  0  0  0  0  0  0
    9.6916  -16.0832   25.7799 C   0  0  1  0  0  0  0  0  0  0  0  0
    8.8413  -15.3358   26.7890 C   0  0  0  0  0  0  0  0  0  0  0  0
    9.6789  -14.8689   27.9248 C   0  0  0  0  0  0  0  0  0  0  0  0
   11.0314  -14.9764   28.1305 C   0  0  0  0  0  0  0  0  0  0  0  0
   11.3186  -14.4003   29.3063 N   0  0  0  0  0  0  0  0  0  0  0  0
   10.1677  -13.9331   29.8413 C   0  0  0  0  0  0  0  0  0  0  0  0
    9.1574  -14.2151   29.0029 N   0  0  0  0  0  0  0  0  0  0  0  0
   10.4372  -17.1676   26.4672 C   0  0  0  0  0  0  0  0  0  0  0  0
    9.9795  -18.4636   26.3760 O   0  0  0  0  0  0  0  0  0  0  0  0
   11.4866  -16.9130   27.1345 O   0  0  0  0  0  0  0  0  0  0  0  0
  1  5  1  0
  1  2  1  0
  2  3  1  0
  4  3  1  0
  5  6  1  1
  5  4  1  0
  6  7  2  0
  9  8  1  6
  9 10  1  0
 11  9  1  0
 12  6  1  0
 11 12  1  6
 13 14  2  0
 13 11  1  0
 15 13  1  0
 16 17  1  1
 16 15  1  0
 17 18  1  0
 18 22  1  0
 18 19  2  0
 19 20  1  0
 21 20  1  0
 22 21  2  0
 23 24  1  0
 23 16  1  0
 25 23  2  0
M  END
$$$$
