PTH.pdb
     RDKit          3D

 25 26  0  0  1  0  0  0  0  0999 V2000
    9.3453  -14.3212   19.3539 N   0  0  0  0  0  0  0  0  0  0  0  0
    8.9975  -13.7336   18.0806 C   0  0  0  0  0  0  0  0  0  0  0  0
    7.7920  -12.8791   18.2795 C   0  0  0  0  0  0  0  0  0  0  0  0
    7.2282  -13.2882   19.6198 C   0  0  0  0  0  0  0  0  0  0  0  0
    8.4420  -13.8249   20.3365 C   0  0  1  0  0  0  0  0  0  0  0  0
    8.0995  -14.8347   21.3593 C   0  0  0  0  0  0  0  0  0  0  0  0
    7.1643  -14.5713   22.1609 O   0  0  0  0  0  0  0  0  0  0  0  0
    8.6317  -19.4362   23.0268 C   0  0  0  0  0  0  0  0  0  0  0  0
    9.1567  -18.4055   22.0534 C   0  0  1  0  0  0  0  0  0  0  0  0
    8.9230  -18.8449   20.7760 O   0  0  0  0  0  0  0  0  0  0  0  0
    8.4740  -17.0892   22.3653 C   0  0  2  0  0  0  0  0  0  0  0  0
    8.8189  -16.0601   21.4170 N   0  0  0  0  0  0  0  0  0  0  0  0
    9.0432  -16.6654   23.6936 C   0  0  0  0  0  0  0  0  0  0  0  0
   10.1881  -16.1452   23.7330 O   0  0  0  0  0  0  0  0  0  0  0  0
    8.3303  -16.8328   24.9086 N   0  0  0  0  0  0  0  0  0  0  0  0
    8.9023  -16.3113   26.1314 C   0  0  1  0  0  0  0  0  0  0  0  0
    7.8539  -15.6366   26.9948 C   0  0  0  0  0  0  0  0  0  0  0  0
    7.3612  -14.3986   26.3359 C   0  0  0  0  0  0  0  0  0  0  0  0
    8.0156  -13.5075   25.5230 C   0  0  0  0  0  0  0  0  0  0  0  0
    7.1464  -12.5480   25.1758 N   0  0  0  0  0  0  0  0  0  0  0  0
    5.9572  -12.8231   25.7579 C   0  0  0  0  0  0  0  0  0  0  0  0
    6.0780  -13.9547   26.4708 N   0  0  0  0  0  0  0  0  0  0  0  0
    9.5454  -17.4073   26.8992 C   0  0  0  0  0  0  0  0  0  0  0  0
   10.2795  -17.1022   28.0242 O   0  0  0  0  0  0  0  0  0  0  0  0
    9.4259  -18.6162   26.5308 O   0  0  0  0  0  0  0  0  0  0  0  0
  1  5  1  0
  1  2  1  0
  2  3  1  0
  4  3  1  0
  5  6  1  1
  5  4  1  0
  6  7  2  0
  9  8  1  1
  9 10  1  0
 11  9  1  0
 12  6  1  0
 11 12  1  6
 13 14  2  0
 13 11  1  0
 15 13  1  0
 16 17  1  1
 16 15  1  0
 17 18  1  0
 18 22  1  0
 18 19  2  0
 19 20  1  0
 21 20  1  0
 22 21  2  0
 23 24  1  0
 23 16  1  0
 25 23  2  0
M  END
$$$$
