PTH.pdb
     RDKit          3D

 25 26  0  0  1  0  0  0  0  0999 V2000
    7.5114  -18.3870   19.7654 N   0  0  0  0  0  0  0  0  0  0  0  0
    6.5620  -19.0063   18.8695 C   0  0  0  0  0  0  0  0  0  0  0  0
    7.0855  -18.8767   17.4795 C   0  0  0  0  0  0  0  0  0  0  0  0
    8.1753  -17.8338   17.5579 C   0  0  0  0  0  0  0  0  0  0  0  0
    8.6194  -17.9306   18.9961 C   0  0  1  0  0  0  0  0  0  0  0  0
    9.1844  -16.6635   19.5044 C   0  0  0  0  0  0  0  0  0  0  0  0
   10.2603  -16.2497   18.9968 O   0  0  0  0  0  0  0  0  0  0  0  0
    7.7169  -13.0835   19.7205 C   0  0  0  0  0  0  0  0  0  0  0  0
    7.9284  -13.6381   21.1108 C   0  0  1  0  0  0  0  0  0  0  0  0
    6.7365  -14.1306   21.5759 O   0  0  0  0  0  0  0  0  0  0  0  0
    9.0155  -14.6902   21.0252 C   0  0  2  0  0  0  0  0  0  0  0  0
    8.5148  -15.9504   20.5367 N   0  0  0  0  0  0  0  0  0  0  0  0
    9.4460  -14.9161   22.4506 C   0  0  0  0  0  0  0  0  0  0  0  0
   10.1225  -14.0310   23.0352 O   0  0  0  0  0  0  0  0  0  0  0  0
    9.1138  -16.0981   23.1613 N   0  0  0  0  0  0  0  0  0  0  0  0
    9.6555  -16.2897   24.4895 C   0  0  1  0  0  0  0  0  0  0  0  0
    8.5583  -16.5026   25.5146 C   0  0  0  0  0  0  0  0  0  0  0  0
    7.7475  -15.2661   25.6673 C   0  0  0  0  0  0  0  0  0  0  0  0
    8.1356  -13.9836   25.9633 C   0  0  0  0  0  0  0  0  0  0  0  0
    7.0380  -13.2147   25.9918 N   0  0  0  0  0  0  0  0  0  0  0  0
    5.9675  -13.9946   25.7182 C   0  0  0  0  0  0  0  0  0  0  0  0
    6.3913  -15.2530   25.5179 N   0  0  0  0  0  0  0  0  0  0  0  0
   10.5754  -17.4550   24.4999 C   0  0  0  0  0  0  0  0  0  0  0  0
   10.8013  -18.1465   23.3300 O   0  0  0  0  0  0  0  0  0  0  0  0
   11.1525  -17.8182   25.5706 O   0  0  0  0  0  0  0  0  0  0  0  0
  1  5  1  0
  1  2  1  0
  2  3  1  0
  4  3  1  0
  5  6  1  1
  5  4  1  0
  6  7  2  0
  9  8  1  6
  9 10  1  0
 11  9  1  0
 12  6  1  0
 11 12  1  1
 13 14  2  0
 13 11  1  0
 15 13  1  0
 16 17  1  1
 16 15  1  0
 17 18  1  0
 18 22  1  0
 18 19  2  0
 19 20  1  0
 21 20  1  0
 22 21  2  0
 23 24  1  0
 23 16  1  0
 25 23  2  0
M  END
$$$$
