PTH.pdb
     RDKit          3D

 25 26  0  0  1  0  0  0  0  0999 V2000
    9.2592  -14.0895   19.6596 N   0  0  0  0  0  0  0  0  0  0  0  0
    8.9788  -13.5439   18.3515 C   0  0  0  0  0  0  0  0  0  0  0  0
    7.6087  -12.9566   18.3793 C   0  0  0  0  0  0  0  0  0  0  0  0
    6.9599  -13.5135   19.6245 C   0  0  0  0  0  0  0  0  0  0  0  0
    8.1462  -13.8170   20.5051 C   0  0  1  0  0  0  0  0  0  0  0  0
    7.8785  -14.9071   21.4659 C   0  0  0  0  0  0  0  0  0  0  0  0
    6.8091  -14.8613   22.1298 O   0  0  0  0  0  0  0  0  0  0  0  0
    9.0476  -19.3626   23.1828 C   0  0  0  0  0  0  0  0  0  0  0  0
    9.3952  -18.2819   22.1844 C   0  0  1  0  0  0  0  0  0  0  0  0
    9.1525  -18.7538   20.9204 O   0  0  0  0  0  0  0  0  0  0  0  0
    8.5752  -17.0557   22.5307 C   0  0  2  0  0  0  0  0  0  0  0  0
    8.8157  -15.9658   21.6186 N   0  0  0  0  0  0  0  0  0  0  0  0
    9.0875  -16.6173   23.8773 C   0  0  0  0  0  0  0  0  0  0  0  0
   10.2215  -16.0781   23.9569 O   0  0  0  0  0  0  0  0  0  0  0  0
    8.3326  -16.7918   25.0657 N   0  0  0  0  0  0  0  0  0  0  0  0
    8.9017  -16.3596   26.3241 C   0  0  1  0  0  0  0  0  0  0  0  0
    7.8936  -15.5937   27.1590 C   0  0  0  0  0  0  0  0  0  0  0  0
    7.5281  -14.3194   26.4865 C   0  0  0  0  0  0  0  0  0  0  0  0
    8.1150  -13.6787   25.4244 C   0  0  0  0  0  0  0  0  0  0  0  0
    7.4212  -12.5576   25.1822 N   0  0  0  0  0  0  0  0  0  0  0  0
    6.4085  -12.4850   26.0755 C   0  0  0  0  0  0  0  0  0  0  0  0
    6.4650  -13.5595   26.8790 N   0  0  0  0  0  0  0  0  0  0  0  0
    9.3895  -17.5336   27.0910 C   0  0  0  0  0  0  0  0  0  0  0  0
   10.1430  -17.3320   28.2264 O   0  0  0  0  0  0  0  0  0  0  0  0
    9.1203  -18.7149   26.7122 O   0  0  0  0  0  0  0  0  0  0  0  0
  1  5  1  0
  1  2  1  0
  2  3  1  0
  4  3  1  0
  5  6  1  6
  5  4  1  0
  6  7  2  0
  9  8  1  1
  9 10  1  0
 11  9  1  0
 12  6  1  0
 11 12  1  6
 13 14  2  0
 13 11  1  0
 15 13  1  0
 16 17  1  1
 16 15  1  0
 17 18  1  0
 18 22  1  0
 18 19  2  0
 19 20  1  0
 21 20  1  0
 22 21  2  0
 23 24  1  0
 23 16  1  0
 25 23  2  0
M  END
$$$$
