PTH.pdb
     RDKit          3D

 25 26  0  0  1  0  0  0  0  0999 V2000
    8.6051  -14.6712   18.5938 N   0  0  0  0  0  0  0  0  0  0  0  0
    8.2452  -13.5895   17.7062 C   0  0  0  0  0  0  0  0  0  0  0  0
    7.9497  -12.3879   18.5378 C   0  0  0  0  0  0  0  0  0  0  0  0
    7.7798  -12.9076   19.9459 C   0  0  0  0  0  0  0  0  0  0  0  0
    8.5968  -14.1753   19.9286 C   0  0  1  0  0  0  0  0  0  0  0  0
    8.1184  -15.1747   20.9062 C   0  0  0  0  0  0  0  0  0  0  0  0
    6.8782  -15.3803   20.9833 O   0  0  0  0  0  0  0  0  0  0  0  0
    8.8297  -19.1981   23.4334 C   0  0  0  0  0  0  0  0  0  0  0  0
    9.3520  -18.2040   22.4212 C   0  0  1  0  0  0  0  0  0  0  0  0
    9.1674  -18.7163   21.1631 O   0  0  0  0  0  0  0  0  0  0  0  0
    8.6230  -16.8947   22.6447 C   0  0  2  0  0  0  0  0  0  0  0  0
    9.0502  -15.8709   21.7245 N   0  0  0  0  0  0  0  0  0  0  0  0
    9.0458  -16.4481   24.0194 C   0  0  0  0  0  0  0  0  0  0  0  0
   10.1776  -15.9202   24.1723 O   0  0  0  0  0  0  0  0  0  0  0  0
    8.2086  -16.6025   25.1542 N   0  0  0  0  0  0  0  0  0  0  0  0
    8.7003  -16.1782   26.4475 C   0  0  1  0  0  0  0  0  0  0  0  0
    7.5997  -15.5596   27.2877 C   0  0  0  0  0  0  0  0  0  0  0  0
    7.2097  -14.2362   26.7343 C   0  0  0  0  0  0  0  0  0  0  0  0
    7.9245  -13.3524   25.9654 C   0  0  0  0  0  0  0  0  0  0  0  0
    7.1416  -12.2935   25.7153 N   0  0  0  0  0  0  0  0  0  0  0  0
    5.9470  -12.4991   26.3152 C   0  0  0  0  0  0  0  0  0  0  0  0
    5.9784  -13.6862   26.9421 N   0  0  0  0  0  0  0  0  0  0  0  0
    9.2861  -17.3339   27.1724 C   0  0  0  0  0  0  0  0  0  0  0  0
   10.1650  -17.1053   28.2082 O   0  0  0  0  0  0  0  0  0  0  0  0
    8.9864  -18.5241   26.8484 O   0  0  0  0  0  0  0  0  0  0  0  0
  1  5  1  0
  1  2  1  0
  2  3  1  0
  4  3  1  0
  5  6  1  1
  5  4  1  0
  6  7  2  0
  9  8  1  1
  9 10  1  0
 11  9  1  0
 12  6  1  0
 11 12  1  6
 13 14  2  0
 13 11  1  0
 15 13  1  0
 16 17  1  1
 16 15  1  0
 17 18  1  0
 18 22  1  0
 18 19  2  0
 19 20  1  0
 21 20  1  0
 22 21  2  0
 23 24  1  0
 23 16  1  0
 25 23  2  0
M  END
$$$$
