PTH.pdb
     RDKit          3D

 25 26  0  0  1  0  0  0  0  0999 V2000
    9.4255  -14.3949   19.6926 N   0  0  0  0  0  0  0  0  0  0  0  0
    9.5162  -13.9702   18.3146 C   0  0  0  0  0  0  0  0  0  0  0  0
    8.3146  -13.1434   18.0056 C   0  0  0  0  0  0  0  0  0  0  0  0
    7.3413  -13.4169   19.1277 C   0  0  0  0  0  0  0  0  0  0  0  0
    8.2513  -13.8230   20.2599 C   0  0  1  0  0  0  0  0  0  0  0  0
    7.5895  -14.7210   21.2288 C   0  0  0  0  0  0  0  0  0  0  0  0
    6.4321  -14.4172   21.6220 O   0  0  0  0  0  0  0  0  0  0  0  0
    7.1887  -18.6405   21.1629 C   0  0  0  0  0  0  0  0  0  0  0  0
    7.9734  -18.2228   22.3858 C   0  0  1  0  0  0  0  0  0  0  0  0
    9.3053  -18.4513   22.1551 O   0  0  0  0  0  0  0  0  0  0  0  0
    7.6569  -16.7665   22.6594 C   0  0  2  0  0  0  0  0  0  0  0  0
    8.2598  -15.8878   21.6890 N   0  0  0  0  0  0  0  0  0  0  0  0
    8.3145  -16.4713   23.9816 C   0  0  0  0  0  0  0  0  0  0  0  0
    9.4775  -15.9915   23.9953 O   0  0  0  0  0  0  0  0  0  0  0  0
    7.6654  -16.7163   25.2191 N   0  0  0  0  0  0  0  0  0  0  0  0
    8.3395  -16.3487   26.4458 C   0  0  1  0  0  0  0  0  0  0  0  0
    7.4370  -15.5403   27.3580 C   0  0  0  0  0  0  0  0  0  0  0  0
    7.2110  -14.1847   26.7915 C   0  0  0  0  0  0  0  0  0  0  0  0
    7.7556  -13.5860   25.6834 C   0  0  0  0  0  0  0  0  0  0  0  0
    7.2387  -12.3533   25.5824 N   0  0  0  0  0  0  0  0  0  0  0  0
    6.3786  -12.1694   26.6097 C   0  0  0  0  0  0  0  0  0  0  0  0
    6.3543  -13.2854   27.3562 N   0  0  0  0  0  0  0  0  0  0  0  0
    8.7992  -17.5677   27.1578 C   0  0  0  0  0  0  0  0  0  0  0  0
    9.5742  -17.4362   28.2891 O   0  0  0  0  0  0  0  0  0  0  0  0
    8.4866  -18.7235   26.7363 O   0  0  0  0  0  0  0  0  0  0  0  0
  1  5  1  0
  1  2  1  0
  2  3  1  0
  4  3  1  0
  5  6  1  1
  5  4  1  0
  6  7  2  0
  9  8  1  6
  9 10  1  0
 11  9  1  0
 12  6  1  0
 11 12  1  6
 13 14  2  0
 13 11  1  0
 15 13  1  0
 16 17  1  1
 16 15  1  0
 17 18  1  0
 18 22  1  0
 18 19  2  0
 19 20  1  0
 21 20  1  0
 22 21  2  0
 23 24  1  0
 23 16  1  0
 25 23  2  0
M  END
$$$$
