PTH.pdb
     RDKit          3D

 25 26  0  0  1  0  0  0  0  0999 V2000
    7.8524  -18.0672   17.7220 N   0  0  0  0  0  0  0  0  0  0  0  0
    6.8528  -18.2426   16.6937 C   0  0  0  0  0  0  0  0  0  0  0  0
    6.9974  -17.1285   15.7135 C   0  0  0  0  0  0  0  0  0  0  0  0
    7.8567  -16.0964   16.4047 C   0  0  0  0  0  0  0  0  0  0  0  0
    8.6392  -16.9276   17.3905 C   0  0  1  0  0  0  0  0  0  0  0  0
    9.0578  -16.1570   18.5796 C   0  0  0  0  0  0  0  0  0  0  0  0
   10.1936  -15.6128   18.5622 O   0  0  0  0  0  0  0  0  0  0  0  0
    6.6191  -13.8000   20.9343 C   0  0  0  0  0  0  0  0  0  0  0  0
    7.3505  -14.8854   21.6909 C   0  0  1  0  0  0  0  0  0  0  0  0
    6.4846  -15.9228   21.9221 O   0  0  0  0  0  0  0  0  0  0  0  0
    8.5562  -15.2878   20.8661 C   0  0  2  0  0  0  0  0  0  0  0  0
    8.1867  -16.0475   19.6983 N   0  0  0  0  0  0  0  0  0  0  0  0
    9.3409  -16.2140   21.7574 C   0  0  0  0  0  0  0  0  0  0  0  0
    9.2486  -17.4568   21.5845 O   0  0  0  0  0  0  0  0  0  0  0  0
   10.1850  -15.7320   22.7908 N   0  0  0  0  0  0  0  0  0  0  0  0
   11.0673  -16.6621   23.4623 C   0  0  1  0  0  0  0  0  0  0  0  0
   12.5244  -16.2896   23.2669 C   0  0  0  0  0  0  0  0  0  0  0  0
   13.4029  -17.2418   23.9956 C   0  0  0  0  0  0  0  0  0  0  0  0
   13.0814  -18.2746   24.8399 C   0  0  0  0  0  0  0  0  0  0  0  0
   14.2229  -18.8449   25.2503 N   0  0  0  0  0  0  0  0  0  0  0  0
   15.2554  -18.1861   24.6767 C   0  0  0  0  0  0  0  0  0  0  0  0
   14.7639  -17.2022   23.9062 N   0  0  0  0  0  0  0  0  0  0  0  0
   10.7564  -16.6997   24.9135 C   0  0  0  0  0  0  0  0  0  0  0  0
    9.7989  -15.8490   25.4206 O   0  0  0  0  0  0  0  0  0  0  0  0
   11.3611  -17.5041   25.6872 O   0  0  0  0  0  0  0  0  0  0  0  0
  1  5  1  0
  1  2  1  0
  2  3  1  0
  4  3  1  0
  5  6  1  1
  5  4  1  0
  6  7  2  0
  9  8  1  6
  9 10  1  0
 11  9  1  0
 12  6  1  0
 11 12  1  6
 13 14  2  0
 13 11  1  0
 15 13  1  0
 16 17  1  1
 16 15  1  0
 17 18  1  0
 18 22  1  0
 18 19  2  0
 19 20  1  0
 21 20  1  0
 22 21  2  0
 23 24  1  0
 23 16  1  0
 25 23  2  0
M  END
$$$$
