PTH.pdb
     RDKit          3D

 25 26  0  0  1  0  0  0  0  0999 V2000
    7.9237  -14.5402   18.7510 N   0  0  0  0  0  0  0  0  0  0  0  0
    7.4532  -13.2441   18.3195 C   0  0  0  0  0  0  0  0  0  0  0  0
    7.9266  -12.2291   19.3036 C   0  0  0  0  0  0  0  0  0  0  0  0
    8.3600  -13.0189   20.5160 C   0  0  0  0  0  0  0  0  0  0  0  0
    8.7095  -14.3619   19.9251 C   0  0  1  0  0  0  0  0  0  0  0  0
    8.5513  -15.4681   20.8916 C   0  0  0  0  0  0  0  0  0  0  0  0
    7.3826  -15.8097   21.2138 O   0  0  0  0  0  0  0  0  0  0  0  0
   10.4267  -19.4858   22.8886 C   0  0  0  0  0  0  0  0  0  0  0  0
   10.6341  -18.3212   21.9471 C   0  0  1  0  0  0  0  0  0  0  0  0
   10.5636  -18.7785   20.6567 O   0  0  0  0  0  0  0  0  0  0  0  0
    9.5831  -17.2781   22.2682 C   0  0  2  0  0  0  0  0  0  0  0  0
    9.6998  -16.1126   21.4283 N   0  0  0  0  0  0  0  0  0  0  0  0
    9.8964  -16.8353   23.6731 C   0  0  0  0  0  0  0  0  0  0  0  0
   10.8238  -16.0064   23.8630 O   0  0  0  0  0  0  0  0  0  0  0  0
    9.1791  -17.3222   24.7960 N   0  0  0  0  0  0  0  0  0  0  0  0
    9.5466  -16.8550   26.1154 C   0  0  1  0  0  0  0  0  0  0  0  0
    8.3421  -16.3440   26.8823 C   0  0  0  0  0  0  0  0  0  0  0  0
    7.7087  -15.2130   26.1548 C   0  0  0  0  0  0  0  0  0  0  0  0
    8.2692  -14.0832   25.6140 C   0  0  0  0  0  0  0  0  0  0  0  0
    7.2875  -13.3590   25.0584 N   0  0  0  0  0  0  0  0  0  0  0  0
    6.1202  -14.0167   25.2421 C   0  0  0  0  0  0  0  0  0  0  0  0
    6.3672  -15.1536   25.9127 N   0  0  0  0  0  0  0  0  0  0  0  0
   10.1922  -17.9511   26.8810 C   0  0  0  0  0  0  0  0  0  0  0  0
   10.7162  -17.6858   28.1271 O   0  0  0  0  0  0  0  0  0  0  0  0
   10.2656  -19.1238   26.4007 O   0  0  0  0  0  0  0  0  0  0  0  0
  1  5  1  0
  1  2  1  0
  2  3  1  0
  4  3  1  0
  5  6  1  1
  5  4  1  0
  6  7  2  0
  9  8  1  1
  9 10  1  0
 11  9  1  0
 12  6  1  0
 11 12  1  6
 13 14  2  0
 13 11  1  0
 15 13  1  0
 16 17  1  1
 16 15  1  0
 17 18  1  0
 18 22  1  0
 18 19  2  0
 19 20  1  0
 21 20  1  0
 22 21  2  0
 23 24  1  0
 23 16  1  0
 25 23  2  0
M  END
$$$$
