PTH.pdb
     RDKit          3D

 25 26  0  0  1  0  0  0  0  0999 V2000
    8.4091  -15.4705   17.4347 N   0  0  0  0  0  0  0  0  0  0  0  0
    7.5701  -15.1733   16.2967 C   0  0  0  0  0  0  0  0  0  0  0  0
    7.8262  -13.7621   15.8893 C   0  0  0  0  0  0  0  0  0  0  0  0
    8.5541  -13.1350   17.0548 C   0  0  0  0  0  0  0  0  0  0  0  0
    9.2080  -14.3248   17.7119 C   0  0  1  0  0  0  0  0  0  0  0  0
    9.4354  -14.1234   19.1579 C   0  0  0  0  0  0  0  0  0  0  0  0
   10.2696  -13.2475   19.5093 O   0  0  0  0  0  0  0  0  0  0  0  0
    7.0735  -13.5003   22.1496 C   0  0  0  0  0  0  0  0  0  0  0  0
    7.7624  -14.8290   22.3625 C   0  0  1  0  0  0  0  0  0  0  0  0
    6.8889  -15.8358   22.0420 O   0  0  0  0  0  0  0  0  0  0  0  0
    9.0179  -14.8366   21.5142 C   0  0  2  0  0  0  0  0  0  0  0  0
    8.7216  -14.9075   20.1055 N   0  0  0  0  0  0  0  0  0  0  0  0
    9.7197  -16.1189   21.8764 C   0  0  0  0  0  0  0  0  0  0  0  0
   10.0216  -16.9321   20.9650 O   0  0  0  0  0  0  0  0  0  0  0  0
   10.0544  -16.4442   23.2161 N   0  0  0  0  0  0  0  0  0  0  0  0
   11.3334  -17.0656   23.4850 C   0  0  1  0  0  0  0  0  0  0  0  0
   12.4851  -16.2015   23.0089 C   0  0  0  0  0  0  0  0  0  0  0  0
   13.7838  -16.8488   23.3313 C   0  0  0  0  0  0  0  0  0  0  0  0
   14.1280  -18.1768   23.3614 C   0  0  0  0  0  0  0  0  0  0  0  0
   15.4199  -18.2622   23.7088 N   0  0  0  0  0  0  0  0  0  0  0  0
   15.8914  -17.0087   23.8972 C   0  0  0  0  0  0  0  0  0  0  0  0
   14.8971  -16.1355   23.6684 N   0  0  0  0  0  0  0  0  0  0  0  0
   11.4767  -17.3238   24.9401 C   0  0  0  0  0  0  0  0  0  0  0  0
   12.1644  -18.4402   25.3625 O   0  0  0  0  0  0  0  0  0  0  0  0
   10.9744  -16.5299   25.7937 O   0  0  0  0  0  0  0  0  0  0  0  0
  1  5  1  0
  1  2  1  0
  2  3  1  0
  4  3  1  0
  5  6  1  1
  5  4  1  0
  6  7  2  0
  9  8  1  6
  9 10  1  0
 11  9  1  0
 12  6  1  0
 11 12  1  6
 13 14  2  0
 13 11  1  0
 15 13  1  0
 16 17  1  1
 16 15  1  0
 17 18  1  0
 18 22  1  0
 18 19  2  0
 19 20  1  0
 21 20  1  0
 22 21  2  0
 23 24  1  0
 23 16  1  0
 25 23  2  0
M  END
$$$$
