HMQ.pdb
     RDKit          3D

 28 28  0  0  1  0  0  0  0  0999 V2000
    8.0977  -17.2045   20.6884 N   0  0  0  0  0  0  0  0  0  0  0  0
    8.8040  -15.9698   20.8206 C   0  0  1  0  0  0  0  0  0  0  0  0
    8.2740  -14.9747   19.8044 C   0  0  0  0  0  0  0  0  0  0  0  0
    8.3897  -15.5390   18.4369 C   0  0  0  0  0  0  0  0  0  0  0  0
    9.5400  -15.7089   17.6709 C   0  0  0  0  0  0  0  0  0  0  0  0
    9.1812  -16.2561   16.4940 N   0  0  0  0  0  0  0  0  0  0  0  0
    7.8579  -16.4364   16.4888 C   0  0  0  0  0  0  0  0  0  0  0  0
    7.3758  -15.9988   17.6741 N   0  0  0  0  0  0  0  0  0  0  0  0
    8.7611  -15.4152   22.1969 C   0  0  0  0  0  0  0  0  0  0  0  0
    9.4857  -14.3980   22.4168 O   0  0  0  0  0  0  0  0  0  0  0  0
    6.6770  -10.7647   25.8276 C   0  0  0  0  0  0  0  0  0  0  0  0
    6.9147  -12.4933   26.2765 S   0  0  0  0  0  0  0  0  0  0  0  0
    6.6884  -13.5540   24.8002 C   0  0  0  0  0  0  0  0  0  0  0  0
    6.8456  -14.9935   25.1826 C   0  0  0  0  0  0  0  0  0  0  0  0
    8.1118  -15.5566   24.6484 C   0  0  2  0  0  0  0  0  0  0  0  0
    7.9771  -15.9473   23.2438 N   0  0  0  0  0  0  0  0  0  0  0  0
    8.5614  -16.7503   25.3811 C   0  0  0  0  0  0  0  0  0  0  0  0
    8.4492  -17.9381   24.9842 O   0  0  0  0  0  0  0  0  0  0  0  0
    6.3324  -20.4801   27.7614 N   0  0  0  0  0  0  0  0  0  0  0  0
    7.5725  -20.8753   28.3560 C   0  0  0  0  0  0  0  0  0  0  0  0
    7.6618  -21.9908   28.9280 O   0  0  0  0  0  0  0  0  0  0  0  0
    8.7683  -19.9977   28.3166 C   0  0  0  0  0  0  0  0  0  0  0  0
    8.4214  -18.7262   27.6361 C   0  0  0  0  0  0  0  0  0  0  0  0
    9.5898  -17.7865   27.4555 C   0  0  2  0  0  0  0  0  0  0  0  0
    9.1973  -16.6502   26.6751 N   0  0  0  0  0  0  0  0  0  0  0  0
   10.7987  -18.4525   26.9752 C   0  0  0  0  0  0  0  0  0  0  0  0
   11.2770  -18.2002   25.8406 O   0  0  0  0  0  0  0  0  0  0  0  0
   11.4826  -19.3906   27.7314 O   0  0  0  0  0  0  0  0  0  0  0  0
  2  1  1  1
  2  3  1  0
  3  4  1  0
  4  8  1  0
  5  6  1  0
  5  4  2  0
  6  7  1  0
  7  8  2  0
  9  2  1  0
  9 10  2  0
 12 11  1  0
 13 14  1  0
 13 12  1  0
 15 14  1  1
 15 16  1  0
 16  9  1  0
 17 25  1  0
 17 15  1  0
 18 17  2  0
 19 20  1  0
 20 21  2  0
 20 22  1  0
 22 23  1  0
 24 23  1  6
 24 25  1  0
 24 26  1  0
 26 27  2  0
 26 28  1  0
M  END
$$$$
