HMQ.pdb
     RDKit          3D

 28 28  0  0  1  0  0  0  0  0999 V2000
   10.0842  -16.6572   19.8334 N   0  0  0  0  0  0  0  0  0  0  0  0
    9.1036  -16.8935   20.8452 C   0  0  1  0  0  0  0  0  0  0  0  0
    8.9248  -18.3888   21.0343 C   0  0  0  0  0  0  0  0  0  0  0  0
    8.2450  -18.9701   19.8503 C   0  0  0  0  0  0  0  0  0  0  0  0
    7.8903  -18.3340   18.6635 C   0  0  0  0  0  0  0  0  0  0  0  0
    7.2941  -19.2403   17.8658 N   0  0  0  0  0  0  0  0  0  0  0  0
    7.2597  -20.4152   18.4998 C   0  0  0  0  0  0  0  0  0  0  0  0
    7.8398  -20.2497   19.7102 N   0  0  0  0  0  0  0  0  0  0  0  0
    9.4130  -16.2169   22.1297 C   0  0  0  0  0  0  0  0  0  0  0  0
   10.6028  -16.3305   22.5535 O   0  0  0  0  0  0  0  0  0  0  0  0
    5.7310  -12.5145   27.5899 C   0  0  0  0  0  0  0  0  0  0  0  0
    6.7989  -11.9420   26.2567 S   0  0  0  0  0  0  0  0  0  0  0  0
    8.0507  -13.2228   25.8716 C   0  0  0  0  0  0  0  0  0  0  0  0
    7.7611  -13.8266   24.5319 C   0  0  0  0  0  0  0  0  0  0  0  0
    8.7723  -14.8543   24.1753 C   0  0  2  0  0  0  0  0  0  0  0  0
    8.4769  -15.4745   22.8823 N   0  0  0  0  0  0  0  0  0  0  0  0
    8.8540  -15.9432   25.1610 C   0  0  0  0  0  0  0  0  0  0  0  0
    7.9155  -16.7193   25.4737 O   0  0  0  0  0  0  0  0  0  0  0  0
   13.3724  -19.5681   25.4355 N   0  0  0  0  0  0  0  0  0  0  0  0
   12.1899  -19.4885   24.6336 C   0  0  0  0  0  0  0  0  0  0  0  0
   12.2005  -19.9411   23.4611 O   0  0  0  0  0  0  0  0  0  0  0  0
   10.9390  -18.8811   25.1510 C   0  0  0  0  0  0  0  0  0  0  0  0
   11.2011  -18.2740   26.4787 C   0  0  0  0  0  0  0  0  0  0  0  0
   10.1861  -17.2344   26.8909 C   0  0  2  0  0  0  0  0  0  0  0  0
   10.0748  -16.2218   25.8827 N   0  0  0  0  0  0  0  0  0  0  0  0
   10.4058  -16.7141   28.2387 C   0  0  0  0  0  0  0  0  0  0  0  0
   10.5756  -15.4860   28.4456 O   0  0  0  0  0  0  0  0  0  0  0  0
   10.4399  -17.5321   29.3565 O   0  0  0  0  0  0  0  0  0  0  0  0
  2  1  1  6
  2  3  1  0
  3  4  1  0
  4  8  1  0
  5  6  1  0
  5  4  2  0
  6  7  1  0
  7  8  2  0
  9  2  1  0
  9 10  2  0
 12 11  1  0
 13 14  1  0
 13 12  1  0
 15 14  1  1
 15 16  1  0
 16  9  1  0
 17 25  1  0
 17 15  1  0
 18 17  2  0
 19 20  1  0
 20 21  2  0
 20 22  1  0
 22 23  1  0
 24 23  1  6
 24 25  1  0
 24 26  1  0
 26 27  2  0
 26 28  1  0
M  END
$$$$
