HMQ.pdb
     RDKit          3D

 28 28  0  0  1  0  0  0  0  0999 V2000
   10.1488  -14.7807   20.0322 N   0  0  0  0  0  0  0  0  0  0  0  0
    8.9377  -14.4527   20.7153 C   0  0  1  0  0  0  0  0  0  0  0  0
    7.7803  -15.1970   20.0749 C   0  0  0  0  0  0  0  0  0  0  0  0
    7.6585  -14.8097   18.6476 C   0  0  0  0  0  0  0  0  0  0  0  0
    7.7738  -13.5399   18.0880 C   0  0  0  0  0  0  0  0  0  0  0  0
    7.5914  -13.6511   16.7585 N   0  0  0  0  0  0  0  0  0  0  0  0
    7.3670  -14.9335   16.4607 C   0  0  0  0  0  0  0  0  0  0  0  0
    7.4080  -15.6396   17.6134 N   0  0  0  0  0  0  0  0  0  0  0  0
    9.0031  -14.7048   22.1768 C   0  0  0  0  0  0  0  0  0  0  0  0
    9.7891  -15.6255   22.5545 O   0  0  0  0  0  0  0  0  0  0  0  0
    6.9915  -10.9372   27.5739 C   0  0  0  0  0  0  0  0  0  0  0  0
    5.7559  -11.7719   26.5628 S   0  0  0  0  0  0  0  0  0  0  0  0
    6.5042  -13.2331   25.7499 C   0  0  0  0  0  0  0  0  0  0  0  0
    7.8909  -12.9020   25.2912 C   0  0  0  0  0  0  0  0  0  0  0  0
    8.5108  -14.0496   24.5809 C   0  0  2  0  0  0  0  0  0  0  0  0
    8.2562  -13.9922   23.1402 N   0  0  0  0  0  0  0  0  0  0  0  0
    8.0105  -15.3510   25.0501 C   0  0  0  0  0  0  0  0  0  0  0  0
    6.9807  -15.9351   24.6266 O   0  0  0  0  0  0  0  0  0  0  0  0
    7.9730  -19.0649   22.8469 N   0  0  0  0  0  0  0  0  0  0  0  0
    8.8947  -19.9104   23.5422 C   0  0  0  0  0  0  0  0  0  0  0  0
    8.9765  -21.1268   23.2371 O   0  0  0  0  0  0  0  0  0  0  0  0
    9.7656  -19.3875   24.6238 C   0  0  0  0  0  0  0  0  0  0  0  0
    9.5551  -17.9255   24.7595 C   0  0  0  0  0  0  0  0  0  0  0  0
    8.8740  -17.5188   26.0446 C   0  0  2  0  0  0  0  0  0  0  0  0
    8.6929  -16.0976   26.0824 N   0  0  0  0  0  0  0  0  0  0  0  0
    9.5119  -18.0719   27.2374 C   0  0  0  0  0  0  0  0  0  0  0  0
    9.1289  -19.1589   27.7389 O   0  0  0  0  0  0  0  0  0  0  0  0
   10.5642  -17.4401   27.8801 O   0  0  0  0  0  0  0  0  0  0  0  0
  2  1  1  6
  2  3  1  0
  3  4  1  0
  4  8  1  0
  5  6  1  0
  5  4  2  0
  6  7  1  0
  7  8  2  0
  9  2  1  0
  9 10  2  0
 12 11  1  0
 13 14  1  0
 13 12  1  0
 15 14  1  1
 15 16  1  0
 16  9  1  0
 17 25  1  0
 17 15  1  0
 18 17  2  0
 19 20  1  0
 20 21  2  0
 20 22  1  0
 22 23  1  0
 24 23  1  6
 24 25  1  0
 24 26  1  0
 26 27  2  0
 26 28  1  0
M  END
$$$$
