HMQ.pdb
     RDKit          3D

 28 28  0  0  1  0  0  0  0  0999 V2000
    9.7270  -16.2993   19.6096 N   0  0  0  0  0  0  0  0  0  0  0  0
    8.7323  -16.4877   20.6176 C   0  0  1  0  0  0  0  0  0  0  0  0
    8.4671  -17.9719   20.7928 C   0  0  0  0  0  0  0  0  0  0  0  0
    7.6629  -18.4794   19.6536 C   0  0  0  0  0  0  0  0  0  0  0  0
    7.2605  -17.7925   18.5111 C   0  0  0  0  0  0  0  0  0  0  0  0
    6.5482  -18.6393   17.7438 N   0  0  0  0  0  0  0  0  0  0  0  0
    6.4866  -19.8253   18.3545 C   0  0  0  0  0  0  0  0  0  0  0  0
    7.1667  -19.7271   19.5193 N   0  0  0  0  0  0  0  0  0  0  0  0
    9.0774  -15.8417   21.9088 C   0  0  0  0  0  0  0  0  0  0  0  0
   10.3131  -15.7422   22.1758 O   0  0  0  0  0  0  0  0  0  0  0  0
    6.9943  -11.1989   27.9501 C   0  0  0  0  0  0  0  0  0  0  0  0
    6.4845  -12.0423   26.4420 S   0  0  0  0  0  0  0  0  0  0  0  0
    7.7915  -13.2122   25.9137 C   0  0  0  0  0  0  0  0  0  0  0  0
    7.4150  -13.8337   24.6041 C   0  0  0  0  0  0  0  0  0  0  0  0
    8.4703  -14.7634   24.1269 C   0  0  2  0  0  0  0  0  0  0  0  0
    8.1272  -15.3465   22.8285 N   0  0  0  0  0  0  0  0  0  0  0  0
    8.7044  -15.8854   25.0490 C   0  0  0  0  0  0  0  0  0  0  0  0
    7.8632  -16.7680   25.3562 O   0  0  0  0  0  0  0  0  0  0  0  0
   14.1702  -18.6590   25.7632 N   0  0  0  0  0  0  0  0  0  0  0  0
   13.1423  -18.9567   24.8132 C   0  0  0  0  0  0  0  0  0  0  0  0
   13.4271  -19.5872   23.7640 O   0  0  0  0  0  0  0  0  0  0  0  0
   11.7358  -18.5384   25.0329 C   0  0  0  0  0  0  0  0  0  0  0  0
   11.6546  -17.7188   26.2665 C   0  0  0  0  0  0  0  0  0  0  0  0
   10.2727  -17.1851   26.5606 C   0  0  2  0  0  0  0  0  0  0  0  0
    9.9777  -16.0727   25.7065 N   0  0  0  0  0  0  0  0  0  0  0  0
   10.0430  -16.9259   27.9803 C   0  0  0  0  0  0  0  0  0  0  0  0
   10.2676  -17.8052   28.8500 O   0  0  0  0  0  0  0  0  0  0  0  0
    9.5696  -15.7109   28.4486 O   0  0  0  0  0  0  0  0  0  0  0  0
  2  1  1  6
  2  3  1  0
  3  4  1  0
  4  8  1  0
  5  6  1  0
  5  4  2  0
  6  7  1  0
  7  8  2  0
  9  2  1  0
  9 10  2  0
 12 11  1  0
 13 14  1  0
 13 12  1  0
 15 14  1  1
 15 16  1  0
 16  9  1  0
 17 25  1  0
 17 15  1  0
 18 17  2  0
 19 20  1  0
 20 21  2  0
 20 22  1  0
 22 23  1  0
 24 23  1  1
 24 25  1  0
 24 26  1  0
 26 27  2  0
 26 28  1  0
M  END
$$$$
