HMQ.pdb
     RDKit          3D

 28 28  0  0  1  0  0  0  0  0999 V2000
    9.5121  -16.2564   19.0189 N   0  0  0  0  0  0  0  0  0  0  0  0
    8.4921  -16.3860   20.0108 C   0  0  1  0  0  0  0  0  0  0  0  0
    8.1215  -17.8498   20.1644 C   0  0  0  0  0  0  0  0  0  0  0  0
    7.1093  -18.2243   19.1461 C   0  0  0  0  0  0  0  0  0  0  0  0
    6.5458  -17.4217   18.1575 C   0  0  0  0  0  0  0  0  0  0  0  0
    5.6732  -18.1714   17.4578 N   0  0  0  0  0  0  0  0  0  0  0  0
    5.6650  -19.4073   17.9638 C   0  0  0  0  0  0  0  0  0  0  0  0
    6.5412  -19.4389   18.9935 N   0  0  0  0  0  0  0  0  0  0  0  0
    8.8627  -15.7801   21.3143 C   0  0  0  0  0  0  0  0  0  0  0  0
   10.1015  -15.7333   21.5814 O   0  0  0  0  0  0  0  0  0  0  0  0
    6.4876  -12.0020   27.8988 C   0  0  0  0  0  0  0  0  0  0  0  0
    6.0716  -12.5900   26.2474 S   0  0  0  0  0  0  0  0  0  0  0  0
    7.4880  -13.5142   25.5433 C   0  0  0  0  0  0  0  0  0  0  0  0
    7.1674  -13.9424   24.1444 C   0  0  0  0  0  0  0  0  0  0  0  0
    8.3031  -14.6796   23.5340 C   0  0  2  0  0  0  0  0  0  0  0  0
    7.9329  -15.2678   22.2454 N   0  0  0  0  0  0  0  0  0  0  0  0
    8.7917  -15.7798   24.3795 C   0  0  0  0  0  0  0  0  0  0  0  0
    8.0842  -16.6976   24.8675 O   0  0  0  0  0  0  0  0  0  0  0  0
   14.4783  -18.0513   23.9096 N   0  0  0  0  0  0  0  0  0  0  0  0
   14.2888  -16.6838   24.2864 C   0  0  0  0  0  0  0  0  0  0  0  0
   15.1989  -15.8452   24.0670 O   0  0  0  0  0  0  0  0  0  0  0  0
   13.0366  -16.2223   24.9350 C   0  0  0  0  0  0  0  0  0  0  0  0
   12.0892  -17.3590   25.0370 C   0  0  0  0  0  0  0  0  0  0  0  0
   10.7143  -16.9717   25.5272 C   0  0  2  0  0  0  0  0  0  0  0  0
   10.1876  -15.9006   24.7338 N   0  0  0  0  0  0  0  0  0  0  0  0
   10.6603  -16.7309   26.9676 C   0  0  0  0  0  0  0  0  0  0  0  0
   11.0502  -17.5976   27.7902 O   0  0  0  0  0  0  0  0  0  0  0  0
   10.1824  -15.5479   27.5076 O   0  0  0  0  0  0  0  0  0  0  0  0
  2  1  1  6
  2  3  1  0
  3  4  1  0
  4  8  1  0
  5  6  1  0
  5  4  2  0
  6  7  1  0
  7  8  2  0
  9  2  1  0
  9 10  2  0
 12 11  1  0
 13 14  1  0
 13 12  1  0
 15 14  1  1
 15 16  1  0
 16  9  1  0
 17 25  1  0
 17 15  1  0
 18 17  2  0
 19 20  1  0
 20 21  2  0
 20 22  1  0
 22 23  1  0
 24 23  1  6
 24 25  1  0
 24 26  1  0
 26 27  2  0
 26 28  1  0
M  END
$$$$
