HMQ.pdb
     RDKit          3D

 28 28  0  0  1  0  0  0  0  0999 V2000
   10.0731  -13.3710   20.2292 N   0  0  0  0  0  0  0  0  0  0  0  0
    8.8740  -13.9536   20.7429 C   0  0  1  0  0  0  0  0  0  0  0  0
    8.5366  -15.1993   19.9441 C   0  0  0  0  0  0  0  0  0  0  0  0
    8.2256  -14.8308   18.5408 C   0  0  0  0  0  0  0  0  0  0  0  0
    8.2523  -13.5669   17.9571 C   0  0  0  0  0  0  0  0  0  0  0  0
    7.8998  -13.6963   16.6640 N   0  0  0  0  0  0  0  0  0  0  0  0
    7.6536  -14.9844   16.4119 C   0  0  0  0  0  0  0  0  0  0  0  0
    7.8525  -15.6759   17.5570 N   0  0  0  0  0  0  0  0  0  0  0  0
    8.9401  -14.2426   22.1974 C   0  0  0  0  0  0  0  0  0  0  0  0
   10.0843  -14.5297   22.6629 O   0  0  0  0  0  0  0  0  0  0  0  0
    7.2320  -12.1051   27.8049 C   0  0  0  0  0  0  0  0  0  0  0  0
    5.9743  -11.7395   26.5678 S   0  0  0  0  0  0  0  0  0  0  0  0
    6.4163  -12.5381   24.9795 C   0  0  0  0  0  0  0  0  0  0  0  0
    6.6681  -13.9979   25.2002 C   0  0  0  0  0  0  0  0  0  0  0  0
    7.9059  -14.4406   24.5088 C   0  0  2  0  0  0  0  0  0  0  0  0
    7.8259  -14.2150   23.0644 N   0  0  0  0  0  0  0  0  0  0  0  0
    8.1884  -15.8714   24.7013 C   0  0  0  0  0  0  0  0  0  0  0  0
    7.3847  -16.8124   24.4792 O   0  0  0  0  0  0  0  0  0  0  0  0
   13.2662  -19.0230   23.5280 N   0  0  0  0  0  0  0  0  0  0  0  0
   12.2428  -18.4270   22.7248 C   0  0  0  0  0  0  0  0  0  0  0  0
   12.4082  -18.3195   21.4836 O   0  0  0  0  0  0  0  0  0  0  0  0
   10.9792  -17.9270   23.3206 C   0  0  0  0  0  0  0  0  0  0  0  0
   11.0029  -18.1571   24.7857 C   0  0  0  0  0  0  0  0  0  0  0  0
    9.7529  -17.7012   25.5002 C   0  0  2  0  0  0  0  0  0  0  0  0
    9.4708  -16.3323   25.1829 N   0  0  0  0  0  0  0  0  0  0  0  0
    9.7667  -17.9920   26.9323 C   0  0  0  0  0  0  0  0  0  0  0  0
    9.9821  -19.1536   27.3613 O   0  0  0  0  0  0  0  0  0  0  0  0
    9.5459  -17.0177   27.8923 O   0  0  0  0  0  0  0  0  0  0  0  0
  2  1  1  6
  2  3  1  0
  3  4  1  0
  4  8  1  0
  5  6  1  0
  5  4  2  0
  6  7  1  0
  7  8  2  0
  9  2  1  0
  9 10  2  0
 12 11  1  0
 13 14  1  0
 13 12  1  0
 15 14  1  1
 15 16  1  0
 16  9  1  0
 17 25  1  0
 17 15  1  0
 18 17  2  0
 19 20  1  0
 20 21  2  0
 20 22  1  0
 22 23  1  0
 24 23  1  1
 24 25  1  0
 24 26  1  0
 26 27  2  0
 26 28  1  0
M  END
$$$$
