HMQ.pdb
     RDKit          3D

 28 28  0  0  1  0  0  0  0  0999 V2000
   10.1738  -15.2025   20.0194 N   0  0  0  0  0  0  0  0  0  0  0  0
    8.9603  -14.6937   20.5757 C   0  0  1  0  0  0  0  0  0  0  0  0
    7.7810  -15.2165   19.7758 C   0  0  0  0  0  0  0  0  0  0  0  0
    7.9031  -14.7916   18.3593 C   0  0  0  0  0  0  0  0  0  0  0  0
    7.7619  -13.5114   17.8300 C   0  0  0  0  0  0  0  0  0  0  0  0
    7.9555  -13.5858   16.4995 N   0  0  0  0  0  0  0  0  0  0  0  0
    8.2115  -14.8550   16.1721 C   0  0  0  0  0  0  0  0  0  0  0  0
    8.1795  -15.5899   17.3070 N   0  0  0  0  0  0  0  0  0  0  0  0
    8.8096  -14.9909   22.0223 C   0  0  0  0  0  0  0  0  0  0  0  0
    9.6130  -15.8432   22.5085 O   0  0  0  0  0  0  0  0  0  0  0  0
    5.8513  -11.2826   28.1917 C   0  0  0  0  0  0  0  0  0  0  0  0
    6.8377  -11.0840   26.6972 S   0  0  0  0  0  0  0  0  0  0  0  0
    7.5607  -12.6959   26.2127 C   0  0  0  0  0  0  0  0  0  0  0  0
    7.3661  -12.9166   24.7442 C   0  0  0  0  0  0  0  0  0  0  0  0
    8.0321  -14.1659   24.2953 C   0  0  2  0  0  0  0  0  0  0  0  0
    7.8450  -14.3903   22.8606 N   0  0  0  0  0  0  0  0  0  0  0  0
    7.5256  -15.3636   24.9831 C   0  0  0  0  0  0  0  0  0  0  0  0
    6.7955  -15.3658   26.0069 O   0  0  0  0  0  0  0  0  0  0  0  0
   12.3989  -17.4545   22.8044 N   0  0  0  0  0  0  0  0  0  0  0  0
   12.4499  -18.0772   24.0917 C   0  0  0  0  0  0  0  0  0  0  0  0
   13.5496  -18.4840   24.5441 O   0  0  0  0  0  0  0  0  0  0  0  0
   11.2298  -18.2587   24.9165 C   0  0  0  0  0  0  0  0  0  0  0  0
   10.1143  -17.4847   24.3193 C   0  0  0  0  0  0  0  0  0  0  0  0
    8.8349  -17.5317   25.1204 C   0  0  2  0  0  0  0  0  0  0  0  0
    7.8400  -16.6949   24.5169 N   0  0  0  0  0  0  0  0  0  0  0  0
    9.0364  -17.2870   26.5469 C   0  0  0  0  0  0  0  0  0  0  0  0
    8.6632  -18.1190   27.4119 O   0  0  0  0  0  0  0  0  0  0  0  0
    9.6433  -16.1377   27.0270 O   0  0  0  0  0  0  0  0  0  0  0  0
  2  1  1  6
  2  3  1  0
  3  4  1  0
  4  8  1  0
  5  6  1  0
  5  4  2  0
  6  7  1  0
  7  8  2  0
  9  2  1  0
  9 10  2  0
 12 11  1  0
 13 14  1  0
 13 12  1  0
 15 14  1  1
 15 16  1  0
 16  9  1  0
 17 25  1  0
 17 15  1  0
 18 17  2  0
 19 20  1  0
 20 21  2  0
 20 22  1  0
 22 23  1  0
 24 23  1  6
 24 25  1  0
 24 26  1  0
 26 27  2  0
 26 28  1  0
M  END
$$$$
