HMQ.pdb
     RDKit          3D

 28 28  0  0  1  0  0  0  0  0999 V2000
    8.0006  -16.1446   20.3691 N   0  0  0  0  0  0  0  0  0  0  0  0
    8.7466  -14.9573   20.6424 C   0  0  1  0  0  0  0  0  0  0  0  0
    8.1262  -13.7896   19.8972 C   0  0  0  0  0  0  0  0  0  0  0  0
    8.2009  -14.0267   18.4343 C   0  0  0  0  0  0  0  0  0  0  0  0
    9.2659  -14.5414   17.6996 C   0  0  0  0  0  0  0  0  0  0  0  0
    8.8982  -14.5841   16.4049 N   0  0  0  0  0  0  0  0  0  0  0  0
    7.6510  -14.1192   16.2961 C   0  0  0  0  0  0  0  0  0  0  0  0
    7.2263  -13.7794   17.5343 N   0  0  0  0  0  0  0  0  0  0  0  0
    8.8767  -14.6684   22.0926 C   0  0  0  0  0  0  0  0  0  0  0  0
    9.6742  -13.7354   22.4114 O   0  0  0  0  0  0  0  0  0  0  0  0
    6.1133  -12.6756   27.6902 C   0  0  0  0  0  0  0  0  0  0  0  0
    7.3863  -12.1962   26.5089 S   0  0  0  0  0  0  0  0  0  0  0  0
    7.2025  -13.1717   24.9693 C   0  0  0  0  0  0  0  0  0  0  0  0
    7.3356  -14.6315   25.2764 C   0  0  0  0  0  0  0  0  0  0  0  0
    8.4721  -15.2355   24.5352 C   0  0  2  0  0  0  0  0  0  0  0  0
    8.1778  -15.3597   23.1063 N   0  0  0  0  0  0  0  0  0  0  0  0
    8.8190  -16.5815   25.0169 C   0  0  0  0  0  0  0  0  0  0  0  0
    8.0656  -17.5877   24.9830 O   0  0  0  0  0  0  0  0  0  0  0  0
   14.6408  -18.4031   27.3416 N   0  0  0  0  0  0  0  0  0  0  0  0
   13.9182  -19.5530   26.8905 C   0  0  0  0  0  0  0  0  0  0  0  0
   14.5441  -20.5894   26.5532 O   0  0  0  0  0  0  0  0  0  0  0  0
   12.4367  -19.5575   26.8083 C   0  0  0  0  0  0  0  0  0  0  0  0
   11.9718  -18.2600   26.2603 C   0  0  0  0  0  0  0  0  0  0  0  0
   10.4708  -18.1463   26.1379 C   0  0  2  0  0  0  0  0  0  0  0  0
   10.1121  -16.8696   25.5944 N   0  0  0  0  0  0  0  0  0  0  0  0
    9.7624  -18.4924   27.3684 C   0  0  0  0  0  0  0  0  0  0  0  0
    9.3429  -19.6590   27.5749 O   0  0  0  0  0  0  0  0  0  0  0  0
    9.5130  -17.5676   28.3695 O   0  0  0  0  0  0  0  0  0  0  0  0
  2  1  1  1
  2  3  1  0
  3  4  1  0
  4  8  1  0
  5  6  1  0
  5  4  2  0
  6  7  1  0
  7  8  2  0
  9  2  1  0
  9 10  2  0
 12 11  1  0
 13 14  1  0
 13 12  1  0
 15 14  1  1
 15 16  1  0
 16  9  1  0
 17 25  1  0
 17 15  1  0
 18 17  2  0
 19 20  1  0
 20 21  2  0
 20 22  1  0
 22 23  1  0
 24 23  1  1
 24 25  1  0
 24 26  1  0
 26 27  2  0
 26 28  1  0
M  END
$$$$
