HMQ.pdb
     RDKit          3D

 28 28  0  0  1  0  0  0  0  0999 V2000
    7.8373  -15.5980   19.6866 N   0  0  0  0  0  0  0  0  0  0  0  0
    9.0440  -14.8725   19.9283 C   0  0  1  0  0  0  0  0  0  0  0  0
    9.0492  -13.6086   19.0879 C   0  0  0  0  0  0  0  0  0  0  0  0
    8.7126  -13.9364   17.6803 C   0  0  0  0  0  0  0  0  0  0  0  0
    7.5703  -13.5864   16.9651 C   0  0  0  0  0  0  0  0  0  0  0  0
    7.6833  -14.0938   15.7230 N   0  0  0  0  0  0  0  0  0  0  0  0
    8.8449  -14.7458   15.6284 C   0  0  0  0  0  0  0  0  0  0  0  0
    9.4723  -14.6494   16.8226 N   0  0  0  0  0  0  0  0  0  0  0  0
    9.2679  -14.5705   21.3644 C   0  0  0  0  0  0  0  0  0  0  0  0
   10.3497  -13.9749   21.6524 O   0  0  0  0  0  0  0  0  0  0  0  0
    6.7933  -11.8457   28.0817 C   0  0  0  0  0  0  0  0  0  0  0  0
    6.2829  -12.6586   26.5571 S   0  0  0  0  0  0  0  0  0  0  0  0
    7.6788  -13.6288   25.8744 C   0  0  0  0  0  0  0  0  0  0  0  0
    7.4442  -13.8982   24.4199 C   0  0  0  0  0  0  0  0  0  0  0  0
    8.5950  -14.6146   23.8132 C   0  0  2  0  0  0  0  0  0  0  0  0
    8.3635  -14.9031   22.3966 N   0  0  0  0  0  0  0  0  0  0  0  0
    8.8787  -15.9006   24.4687 C   0  0  0  0  0  0  0  0  0  0  0  0
    8.0547  -16.8363   24.6321 O   0  0  0  0  0  0  0  0  0  0  0  0
   14.4239  -18.7423   24.7438 N   0  0  0  0  0  0  0  0  0  0  0  0
   13.5774  -18.3630   23.6541 C   0  0  0  0  0  0  0  0  0  0  0  0
   14.0171  -18.4107   22.4776 O   0  0  0  0  0  0  0  0  0  0  0  0
   12.1817  -17.9105   23.8747 C   0  0  0  0  0  0  0  0  0  0  0  0
   11.9015  -17.8760   25.3308 C   0  0  0  0  0  0  0  0  0  0  0  0
   10.5003  -17.4316   25.6773 C   0  0  2  0  0  0  0  0  0  0  0  0
   10.1865  -16.2069   25.0021 N   0  0  0  0  0  0  0  0  0  0  0  0
   10.2409  -17.4048   27.1152 C   0  0  0  0  0  0  0  0  0  0  0  0
   10.4156  -18.4238   27.8299 O   0  0  0  0  0  0  0  0  0  0  0  0
    9.7925  -16.2691   27.7700 O   0  0  0  0  0  0  0  0  0  0  0  0
  2  1  1  1
  2  3  1  0
  3  4  1  0
  4  8  1  0
  5  6  1  0
  5  4  2  0
  6  7  1  0
  7  8  2  0
  9  2  1  0
  9 10  2  0
 12 11  1  0
 13 14  1  0
 13 12  1  0
 15 14  1  1
 15 16  1  0
 16  9  1  0
 17 25  1  0
 17 15  1  0
 18 17  2  0
 19 20  1  0
 20 21  2  0
 20 22  1  0
 22 23  1  0
 24 23  1  1
 24 25  1  0
 24 26  1  0
 26 27  2  0
 26 28  1  0
M  END
$$$$
