HMQ.pdb
     RDKit          3D

 28 28  0  0  1  0  0  0  0  0999 V2000
    8.9921  -17.1572   19.8191 N   0  0  0  0  0  0  0  0  0  0  0  0
    8.2475  -17.3740   21.0189 C   0  0  1  0  0  0  0  0  0  0  0  0
    8.2790  -18.8499   21.3719 C   0  0  0  0  0  0  0  0  0  0  0  0
    7.7269  -19.6495   20.2504 C   0  0  0  0  0  0  0  0  0  0  0  0
    6.3947  -19.7971   19.8732 C   0  0  0  0  0  0  0  0  0  0  0  0
    6.3515  -20.6120   18.8022 N   0  0  0  0  0  0  0  0  0  0  0  0
    7.5969  -20.9813   18.4918 C   0  0  0  0  0  0  0  0  0  0  0  0
    8.4353  -20.3938   19.3755 N   0  0  0  0  0  0  0  0  0  0  0  0
    8.7078  -16.5345   22.1534 C   0  0  0  0  0  0  0  0  0  0  0  0
    9.9446  -16.5884   22.4281 O   0  0  0  0  0  0  0  0  0  0  0  0
    6.0746  -11.9327   27.7775 C   0  0  0  0  0  0  0  0  0  0  0  0
    6.5018  -11.8119   26.0315 S   0  0  0  0  0  0  0  0  0  0  0  0
    7.7640  -13.0721   25.6134 C   0  0  0  0  0  0  0  0  0  0  0  0
    7.3263  -13.8459   24.4081 C   0  0  0  0  0  0  0  0  0  0  0  0
    8.3180  -14.8926   24.0517 C   0  0  2  0  0  0  0  0  0  0  0  0
    7.8628  -15.7028   22.9204 N   0  0  0  0  0  0  0  0  0  0  0  0
    8.5917  -15.8223   25.1584 C   0  0  0  0  0  0  0  0  0  0  0  0
    8.0056  -16.9169   25.3566 O   0  0  0  0  0  0  0  0  0  0  0  0
    7.1222  -19.4715   27.8429 N   0  0  0  0  0  0  0  0  0  0  0  0
    8.4511  -19.7040   28.3198 C   0  0  0  0  0  0  0  0  0  0  0  0
    8.7486  -20.8195   28.8168 O   0  0  0  0  0  0  0  0  0  0  0  0
    9.4989  -18.6561   28.2441 C   0  0  0  0  0  0  0  0  0  0  0  0
    9.1060  -17.6415   27.2361 C   0  0  0  0  0  0  0  0  0  0  0  0
   10.1015  -16.5174   27.0745 C   0  0  2  0  0  0  0  0  0  0  0  0
    9.6020  -15.5402   26.1526 N   0  0  0  0  0  0  0  0  0  0  0  0
   11.4551  -16.9817   26.7779 C   0  0  0  0  0  0  0  0  0  0  0  0
   12.2787  -17.2241   27.6959 O   0  0  0  0  0  0  0  0  0  0  0  0
   11.9075  -17.1805   25.4835 O   0  0  0  0  0  0  0  0  0  0  0  0
  2  1  1  6
  2  3  1  0
  3  4  1  0
  4  8  1  0
  5  6  1  0
  5  4  2  0
  6  7  1  0
  7  8  2  0
  9  2  1  0
  9 10  2  0
 12 11  1  0
 13 14  1  0
 13 12  1  0
 15 14  1  1
 15 16  1  0
 16  9  1  0
 17 25  1  0
 17 15  1  0
 18 17  2  0
 19 20  1  0
 20 21  2  0
 20 22  1  0
 22 23  1  0
 24 23  1  6
 24 25  1  0
 24 26  1  0
 26 27  2  0
 26 28  1  0
M  END
$$$$
