HMQ.pdb
     RDKit          3D

 28 28  0  0  1  0  0  0  0  0999 V2000
    9.5156  -16.5693   19.6444 N   0  0  0  0  0  0  0  0  0  0  0  0
    8.6475  -16.7413   20.7659 C   0  0  1  0  0  0  0  0  0  0  0  0
    8.5500  -18.2172   21.1061 C   0  0  0  0  0  0  0  0  0  0  0  0
    7.6499  -18.8993   20.1436 C   0  0  0  0  0  0  0  0  0  0  0  0
    6.9814  -18.3494   19.0529 C   0  0  0  0  0  0  0  0  0  0  0  0
    6.2762  -19.3299   18.4574 N   0  0  0  0  0  0  0  0  0  0  0  0
    6.4732  -20.4689   19.1263 C   0  0  0  0  0  0  0  0  0  0  0  0
    7.3112  -20.2055   20.1546 N   0  0  0  0  0  0  0  0  0  0  0  0
    9.0504  -15.9372   21.9469 C   0  0  0  0  0  0  0  0  0  0  0  0
   10.2315  -15.4757   21.9372 O   0  0  0  0  0  0  0  0  0  0  0  0
    6.6911  -11.0630   27.6355 C   0  0  0  0  0  0  0  0  0  0  0  0
    6.2224  -12.3897   26.5105 S   0  0  0  0  0  0  0  0  0  0  0  0
    7.7248  -13.2193   25.8699 C   0  0  0  0  0  0  0  0  0  0  0  0
    7.3577  -14.1247   24.7347 C   0  0  0  0  0  0  0  0  0  0  0  0
    8.5617  -14.7652   24.1466 C   0  0  2  0  0  0  0  0  0  0  0  0
    8.2097  -15.6678   23.0490 N   0  0  0  0  0  0  0  0  0  0  0  0
    9.3225  -15.5594   25.1236 C   0  0  0  0  0  0  0  0  0  0  0  0
    9.7992  -15.1287   26.2045 O   0  0  0  0  0  0  0  0  0  0  0  0
   11.9548  -19.0317   22.3221 N   0  0  0  0  0  0  0  0  0  0  0  0
   12.3454  -18.8326   23.6843 C   0  0  0  0  0  0  0  0  0  0  0  0
   12.8223  -19.7912   24.3423 O   0  0  0  0  0  0  0  0  0  0  0  0
   12.2022  -17.5139   24.3493 C   0  0  0  0  0  0  0  0  0  0  0  0
   11.7353  -17.7152   25.7426 C   0  0  0  0  0  0  0  0  0  0  0  0
   10.2339  -17.8018   25.8818 C   0  0  2  0  0  0  0  0  0  0  0  0
    9.5960  -16.9625   24.9109 N   0  0  0  0  0  0  0  0  0  0  0  0
    9.7670  -17.5936   27.2508 C   0  0  0  0  0  0  0  0  0  0  0  0
   10.2293  -18.2642   28.2081 O   0  0  0  0  0  0  0  0  0  0  0  0
    8.7987  -16.6565   27.5731 O   0  0  0  0  0  0  0  0  0  0  0  0
  2  1  1  6
  2  3  1  0
  3  4  1  0
  4  8  1  0
  5  6  1  0
  5  4  2  0
  6  7  1  0
  7  8  2  0
  9  2  1  0
  9 10  2  0
 12 11  1  0
 13 14  1  0
 13 12  1  0
 15 14  1  1
 15 16  1  0
 16  9  1  0
 17 25  1  0
 17 15  1  0
 18 17  2  0
 19 20  1  0
 20 21  2  0
 20 22  1  0
 22 23  1  0
 24 23  1  1
 24 25  1  0
 24 26  1  0
 26 27  2  0
 26 28  1  0
M  END
$$$$
