HMQ.pdb
     RDKit          3D

 28 28  0  0  1  0  0  0  0  0999 V2000
   10.8404  -14.0663   19.6932 N   0  0  0  0  0  0  0  0  0  0  0  0
    9.5281  -14.2539   20.2258 C   0  0  1  0  0  0  0  0  0  0  0  0
    8.8479  -15.3992   19.4983 C   0  0  0  0  0  0  0  0  0  0  0  0
    8.3802  -14.9445   18.1655 C   0  0  0  0  0  0  0  0  0  0  0  0
    8.6160  -13.7219   17.5422 C   0  0  0  0  0  0  0  0  0  0  0  0
    8.0033  -13.7392   16.3432 N   0  0  0  0  0  0  0  0  0  0  0  0
    7.3945  -14.9176   16.1880 C   0  0  0  0  0  0  0  0  0  0  0  0
    7.6248  -15.6523   17.2998 N   0  0  0  0  0  0  0  0  0  0  0  0
    9.5170  -14.4614   21.6956 C   0  0  0  0  0  0  0  0  0  0  0  0
   10.5246  -15.0532   22.1882 O   0  0  0  0  0  0  0  0  0  0  0  0
    6.5267  -12.0482   28.6228 C   0  0  0  0  0  0  0  0  0  0  0  0
    6.3439  -12.1009   26.8313 S   0  0  0  0  0  0  0  0  0  0  0  0
    7.5444  -13.2880   26.1202 C   0  0  0  0  0  0  0  0  0  0  0  0
    7.4694  -13.2487   24.6249 C   0  0  0  0  0  0  0  0  0  0  0  0
    8.5534  -14.0571   24.0107 C   0  0  2  0  0  0  0  0  0  0  0  0
    8.4716  -14.0454   22.5489 N   0  0  0  0  0  0  0  0  0  0  0  0
    8.5220  -15.4675   24.4276 C   0  0  0  0  0  0  0  0  0  0  0  0
    7.6265  -16.2988   24.1305 O   0  0  0  0  0  0  0  0  0  0  0  0
   12.8506  -18.6834   23.4218 N   0  0  0  0  0  0  0  0  0  0  0  0
   11.6073  -18.5173   22.7332 C   0  0  0  0  0  0  0  0  0  0  0  0
   11.5824  -18.5425   21.4769 O   0  0  0  0  0  0  0  0  0  0  0  0
   10.3335  -18.3140   23.4665 C   0  0  0  0  0  0  0  0  0  0  0  0
   10.6172  -18.1868   24.9168 C   0  0  0  0  0  0  0  0  0  0  0  0
    9.5756  -17.4047   25.6811 C   0  0  2  0  0  0  0  0  0  0  0  0
    9.5649  -16.0380   25.2495 N   0  0  0  0  0  0  0  0  0  0  0  0
    9.6732  -17.5732   27.1294 C   0  0  0  0  0  0  0  0  0  0  0  0
    9.8519  -16.5897   27.8913 O   0  0  0  0  0  0  0  0  0  0  0  0
    9.5760  -18.8115   27.7434 O   0  0  0  0  0  0  0  0  0  0  0  0
  2  1  1  6
  2  3  1  0
  3  4  1  0
  4  8  1  0
  5  6  1  0
  5  4  2  0
  6  7  1  0
  7  8  2  0
  9  2  1  0
  9 10  2  0
 12 11  1  0
 13 14  1  0
 13 12  1  0
 15 14  1  1
 15 16  1  0
 16  9  1  0
 17 25  1  0
 17 15  1  0
 18 17  2  0
 19 20  1  0
 20 21  2  0
 20 22  1  0
 22 23  1  0
 24 23  1  6
 24 25  1  0
 24 26  1  0
 26 27  2  0
 26 28  1  0
M  END
$$$$
