HMQ.pdb
     RDKit          3D

 28 28  0  0  1  0  0  0  0  0999 V2000
   10.7309  -16.2506   19.8890 N   0  0  0  0  0  0  0  0  0  0  0  0
    9.7736  -16.8200   20.7837 C   0  0  1  0  0  0  0  0  0  0  0  0
    9.9599  -18.3256   20.8295 C   0  0  0  0  0  0  0  0  0  0  0  0
    9.5651  -18.9233   19.5300 C   0  0  0  0  0  0  0  0  0  0  0  0
    8.4760  -19.7471   19.2575 C   0  0  0  0  0  0  0  0  0  0  0  0
    8.5027  -20.0551   17.9469 N   0  0  0  0  0  0  0  0  0  0  0  0
    9.5595  -19.4611   17.3867 C   0  0  0  0  0  0  0  0  0  0  0  0
   10.2070  -18.7710   18.3528 N   0  0  0  0  0  0  0  0  0  0  0  0
    9.8173  -16.2259   22.1434 C   0  0  0  0  0  0  0  0  0  0  0  0
   10.8907  -16.3945   22.7972 O   0  0  0  0  0  0  0  0  0  0  0  0
    6.3517  -11.7276   27.6969 C   0  0  0  0  0  0  0  0  0  0  0  0
    6.2319  -12.4633   26.0567 S   0  0  0  0  0  0  0  0  0  0  0  0
    7.6387  -13.6047   25.7850 C   0  0  0  0  0  0  0  0  0  0  0  0
    7.6262  -14.0951   24.3699 C   0  0  0  0  0  0  0  0  0  0  0  0
    8.7522  -15.0292   24.1144 C   0  0  2  0  0  0  0  0  0  0  0  0
    8.7550  -15.5032   22.7292 N   0  0  0  0  0  0  0  0  0  0  0  0
    8.7115  -16.2231   24.9729 C   0  0  0  0  0  0  0  0  0  0  0  0
    8.3322  -17.3679   24.6169 O   0  0  0  0  0  0  0  0  0  0  0  0
   13.8021  -17.6982   25.2176 N   0  0  0  0  0  0  0  0  0  0  0  0
   12.9377  -18.8370   25.2792 C   0  0  0  0  0  0  0  0  0  0  0  0
   13.3694  -19.9663   24.9358 O   0  0  0  0  0  0  0  0  0  0  0  0
   11.5324  -18.7224   25.7414 C   0  0  0  0  0  0  0  0  0  0  0  0
   11.2374  -17.3059   26.0680 C   0  0  0  0  0  0  0  0  0  0  0  0
   10.0256  -17.1175   26.9495 C   0  0  2  0  0  0  0  0  0  0  0  0
    9.1226  -16.1750   26.3576 N   0  0  0  0  0  0  0  0  0  0  0  0
   10.3625  -16.8290   28.3419 C   0  0  0  0  0  0  0  0  0  0  0  0
   10.7302  -17.7387   29.1274 O   0  0  0  0  0  0  0  0  0  0  0  0
   10.2982  -15.5515   28.8745 O   0  0  0  0  0  0  0  0  0  0  0  0
  2  1  1  6
  2  3  1  0
  3  4  1  0
  4  8  1  0
  5  6  1  0
  5  4  2  0
  6  7  1  0
  7  8  2  0
  9  2  1  0
  9 10  2  0
 12 11  1  0
 13 14  1  0
 13 12  1  0
 15 14  1  6
 15 16  1  0
 16  9  1  0
 17 25  1  0
 17 15  1  0
 18 17  2  0
 19 20  1  0
 20 21  2  0
 20 22  1  0
 22 23  1  0
 24 23  1  6
 24 25  1  0
 24 26  1  0
 26 27  2  0
 26 28  1  0
M  END
$$$$
