LQP.pdb
     RDKit          3D

 25 25  0  0  1  0  0  0  0  0999 V2000
    9.2257  -13.5129   20.5784 C   0  0  0  0  0  0  0  0  0  0  0  0
    8.3429  -13.6210   19.3406 C   0  0  2  0  0  0  0  0  0  0  0  0
    7.9198  -12.2369   18.9622 C   0  0  0  0  0  0  0  0  0  0  0  0
    7.1679  -14.4967   19.6362 C   0  0  0  0  0  0  0  0  0  0  0  0
    7.6353  -15.7096   20.3914 C   0  0  2  0  0  0  0  0  0  0  0  0
    7.2962  -16.9502   19.7223 N   0  0  0  0  0  0  0  0  0  0  0  0
    7.0159  -15.7601   21.7594 C   0  0  0  0  0  0  0  0  0  0  0  0
    5.7948  -15.5973   21.9561 O   0  0  0  0  0  0  0  0  0  0  0  0
    7.6375  -20.0989   25.5556 N   0  0  0  0  0  0  0  0  0  0  0  0
    7.3079  -19.0920   26.5023 C   0  0  0  0  0  0  0  0  0  0  0  0
    7.0900  -19.4217   27.6859 O   0  0  0  0  0  0  0  0  0  0  0  0
    7.2134  -17.6576   26.1310 C   0  0  0  0  0  0  0  0  0  0  0  0
    7.5602  -17.4839   24.6533 C   0  0  0  0  0  0  0  0  0  0  0  0
    7.3990  -16.0290   24.2468 C   0  0  2  0  0  0  0  0  0  0  0  0
    7.8678  -16.0020   22.8438 N   0  0  0  0  0  0  0  0  0  0  0  0
    8.2782  -15.1145   25.0048 C   0  0  0  0  0  0  0  0  0  0  0  0
    9.5416  -15.1075   24.7774 O   0  0  0  0  0  0  0  0  0  0  0  0
    7.8284  -14.2150   25.9910 N   0  0  0  0  0  0  0  0  0  0  0  0
    6.4439  -13.9754   26.3305 C   0  0  0  0  0  0  0  0  0  0  0  0
    6.4078  -12.6480   27.0283 C   0  0  0  0  0  0  0  0  0  0  0  0
    7.7854  -12.0939   26.9025 C   0  0  0  0  0  0  0  0  0  0  0  0
    8.6568  -13.3494   26.8421 C   0  0  1  0  0  0  0  0  0  0  0  0
    8.8435  -13.9258   28.1756 C   0  0  0  0  0  0  0  0  0  0  0  0
    9.7592  -13.4364   29.0932 O   0  0  0  0  0  0  0  0  0  0  0  0
    8.1563  -14.9252   28.5587 O   0  0  0  0  0  0  0  0  0  0  0  0
  2  1  1  1
  2  3  1  0
  4  2  1  0
  5  4  1  0
  5  6  1  6
  7  5  1  0
  7  8  2  0
  9 10  1  0
 10 12  1  0
 11 10  2  0
 13 12  1  0
 14 13  1  1
 14 15  1  0
 14 16  1  0
 15  7  1  0
 16 17  2  0
 16 18  1  0
 18 22  1  0
 19 20  1  0
 19 18  1  0
 20 21  1  0
 22 21  1  0
 22 23  1  1
 23 25  2  0
 23 24  1  0
M  END
$$$$
