LQP.pdb
     RDKit          3D

 25 25  0  0  1  0  0  0  0  0999 V2000
    9.6890  -13.7246   19.5042 C   0  0  0  0  0  0  0  0  0  0  0  0
    8.3120  -13.7621   18.8519 C   0  0  2  0  0  0  0  0  0  0  0  0
    8.0762  -12.4307   18.2118 C   0  0  0  0  0  0  0  0  0  0  0  0
    7.2752  -14.0707   19.8837 C   0  0  0  0  0  0  0  0  0  0  0  0
    7.6000  -15.3890   20.5291 C   0  0  2  0  0  0  0  0  0  0  0  0
    7.1140  -16.5209   19.7645 N   0  0  0  0  0  0  0  0  0  0  0  0
    6.9852  -15.4814   21.8970 C   0  0  0  0  0  0  0  0  0  0  0  0
    5.7661  -15.3162   22.1038 O   0  0  0  0  0  0  0  0  0  0  0  0
    7.8022  -20.0295   25.4178 N   0  0  0  0  0  0  0  0  0  0  0  0
    7.3310  -19.1165   26.3993 C   0  0  0  0  0  0  0  0  0  0  0  0
    7.0647  -19.5402   27.5424 O   0  0  0  0  0  0  0  0  0  0  0  0
    7.1440  -17.6721   26.1110 C   0  0  0  0  0  0  0  0  0  0  0  0
    7.5740  -17.3732   24.6758 C   0  0  0  0  0  0  0  0  0  0  0  0
    7.3644  -15.9011   24.3640 C   0  0  2  0  0  0  0  0  0  0  0  0
    7.8392  -15.7663   22.9692 N   0  0  0  0  0  0  0  0  0  0  0  0
    8.2075  -15.0086   25.1865 C   0  0  0  0  0  0  0  0  0  0  0  0
    9.4507  -14.8622   24.9021 O   0  0  0  0  0  0  0  0  0  0  0  0
    7.7428  -14.2763   26.2964 N   0  0  0  0  0  0  0  0  0  0  0  0
    6.4101  -14.3593   26.8501 C   0  0  0  0  0  0  0  0  0  0  0  0
    6.2106  -13.1062   27.6503 C   0  0  0  0  0  0  0  0  0  0  0  0
    7.4060  -12.2611   27.3721 C   0  0  0  0  0  0  0  0  0  0  0  0
    8.4978  -13.2933   27.0859 C   0  0  1  0  0  0  0  0  0  0  0  0
    9.0081  -13.8784   28.3278 C   0  0  0  0  0  0  0  0  0  0  0  0
    8.7058  -15.1659   28.7413 O   0  0  0  0  0  0  0  0  0  0  0  0
    9.7698  -13.2139   29.0999 O   0  0  0  0  0  0  0  0  0  0  0  0
  2  1  1  1
  2  3  1  0
  4  2  1  0
  5  4  1  0
  5  6  1  6
  7  5  1  0
  7  8  2  0
  9 10  1  0
 10 12  1  0
 11 10  2  0
 13 12  1  0
 14 13  1  1
 14 15  1  0
 14 16  1  0
 15  7  1  0
 16 17  2  0
 16 18  1  0
 18 22  1  0
 19 20  1  0
 19 18  1  0
 20 21  1  0
 22 21  1  0
 22 23  1  1
 23 25  2  0
 23 24  1  0
M  END
$$$$
