LQP.pdb
     RDKit          3D

 25 25  0  0  1  0  0  0  0  0999 V2000
    9.7520  -13.5367   19.4878 C   0  0  0  0  0  0  0  0  0  0  0  0
    8.3790  -13.6639   18.8383 C   0  0  2  0  0  0  0  0  0  0  0  0
    8.0539  -12.3496   18.2021 C   0  0  0  0  0  0  0  0  0  0  0  0
    7.3674  -14.0431   19.8715 C   0  0  0  0  0  0  0  0  0  0  0  0
    7.7477  -15.3686   20.4698 C   0  0  2  0  0  0  0  0  0  0  0  0
    7.3594  -16.4903   19.6373 N   0  0  0  0  0  0  0  0  0  0  0  0
    7.0902  -15.5609   21.8072 C   0  0  0  0  0  0  0  0  0  0  0  0
    5.8525  -15.5412   21.9622 O   0  0  0  0  0  0  0  0  0  0  0  0
    8.6967  -19.6816   26.2651 N   0  0  0  0  0  0  0  0  0  0  0  0
    7.4263  -19.0595   26.3993 C   0  0  0  0  0  0  0  0  0  0  0  0
    6.4593  -19.7380   26.8015 O   0  0  0  0  0  0  0  0  0  0  0  0
    7.2091  -17.6268   26.0767 C   0  0  0  0  0  0  0  0  0  0  0  0
    7.6211  -17.3559   24.6307 C   0  0  0  0  0  0  0  0  0  0  0  0
    7.4163  -15.8883   24.2957 C   0  0  2  0  0  0  0  0  0  0  0  0
    7.9251  -15.7694   22.9115 N   0  0  0  0  0  0  0  0  0  0  0  0
    8.2370  -14.9837   25.1277 C   0  0  0  0  0  0  0  0  0  0  0  0
    9.5038  -14.9105   24.9341 O   0  0  0  0  0  0  0  0  0  0  0  0
    7.7254  -14.1633   26.1521 N   0  0  0  0  0  0  0  0  0  0  0  0
    6.3232  -13.9854   26.4546 C   0  0  0  0  0  0  0  0  0  0  0  0
    6.2220  -12.7077   27.2340 C   0  0  0  0  0  0  0  0  0  0  0  0
    7.5856  -12.1080   27.1951 C   0  0  0  0  0  0  0  0  0  0  0  0
    8.4965  -13.3318   27.0869 C   0  0  1  0  0  0  0  0  0  0  0  0
    8.6537  -13.9882   28.3868 C   0  0  0  0  0  0  0  0  0  0  0  0
    8.0157  -15.1716   28.7223 O   0  0  0  0  0  0  0  0  0  0  0  0
    9.4009  -13.4881   29.2864 O   0  0  0  0  0  0  0  0  0  0  0  0
  2  1  1  1
  2  3  1  0
  4  2  1  0
  5  4  1  0
  5  6  1  6
  7  5  1  0
  7  8  2  0
  9 10  1  0
 10 12  1  0
 11 10  2  0
 13 12  1  0
 14 13  1  1
 14 15  1  0
 14 16  1  0
 15  7  1  0
 16 17  2  0
 16 18  1  0
 18 22  1  0
 19 20  1  0
 19 18  1  0
 20 21  1  0
 22 21  1  0
 22 23  1  1
 23 25  2  0
 23 24  1  0
M  END
$$$$
