LQP.pdb
     RDKit          3D

 25 25  0  0  1  0  0  0  0  0999 V2000
    4.8420  -11.9950   26.9901 C   0  0  0  0  0  0  0  0  0  0  0  0
    6.1701  -12.5708   27.4672 C   0  0  2  0  0  0  0  0  0  0  0  0
    6.5911  -11.7990   28.6776 C   0  0  0  0  0  0  0  0  0  0  0  0
    7.1821  -12.4753   26.3712 C   0  0  0  0  0  0  0  0  0  0  0  0
    6.9453  -13.5841   25.3842 C   0  0  2  0  0  0  0  0  0  0  0  0
    7.0160  -14.8985   25.9919 N   0  0  0  0  0  0  0  0  0  0  0  0
    7.9678  -13.5490   24.2837 C   0  0  0  0  0  0  0  0  0  0  0  0
    8.3295  -12.4916   23.7293 O   0  0  0  0  0  0  0  0  0  0  0  0
   12.9048  -15.3814   23.8270 N   0  0  0  0  0  0  0  0  0  0  0  0
   12.7086  -15.9147   22.5247 C   0  0  0  0  0  0  0  0  0  0  0  0
   13.6905  -16.0296   21.7632 O   0  0  0  0  0  0  0  0  0  0  0  0
   11.3726  -16.3409   22.0375 C   0  0  0  0  0  0  0  0  0  0  0  0
   10.3247  -16.0891   23.1204 C   0  0  0  0  0  0  0  0  0  0  0  0
    9.4677  -14.8908   22.7490 C   0  0  2  0  0  0  0  0  0  0  0  0
    8.5236  -14.7694   23.8815 N   0  0  0  0  0  0  0  0  0  0  0  0
    8.6504  -15.1156   21.5384 C   0  0  0  0  0  0  0  0  0  0  0  0
    7.6458  -15.9135   21.5844 O   0  0  0  0  0  0  0  0  0  0  0  0
    8.8895  -14.5028   20.2929 N   0  0  0  0  0  0  0  0  0  0  0  0
    9.9721  -13.5881   20.0088 C   0  0  0  0  0  0  0  0  0  0  0  0
    9.5666  -12.8281   18.7807 C   0  0  0  0  0  0  0  0  0  0  0  0
    8.1585  -13.2326   18.5085 C   0  0  0  0  0  0  0  0  0  0  0  0
    8.0957  -14.6557   19.0655 C   0  0  1  0  0  0  0  0  0  0  0  0
    8.7120  -15.6107   18.1418 C   0  0  0  0  0  0  0  0  0  0  0  0
    9.9808  -16.1360   18.3269 O   0  0  0  0  0  0  0  0  0  0  0  0
    8.0942  -16.0092   17.1039 O   0  0  0  0  0  0  0  0  0  0  0  0
  2  1  1  6
  2  3  1  0
  4  2  1  0
  5  4  1  0
  5  6  1  1
  7  5  1  0
  7  8  2  0
  9 10  1  0
 10 12  1  0
 11 10  2  0
 13 12  1  0
 14 13  1  1
 14 15  1  0
 14 16  1  0
 15  7  1  0
 16 17  2  0
 16 18  1  0
 18 22  1  0
 19 20  1  0
 19 18  1  0
 20 21  1  0
 22 21  1  0
 22 23  1  6
 23 25  2  0
 23 24  1  0
M  END
$$$$
