LQP.pdb
     RDKit          3D

 25 25  0  0  1  0  0  0  0  0999 V2000
    9.6361  -13.5294   19.6203 C   0  0  0  0  0  0  0  0  0  0  0  0
    8.1775  -13.5529   19.1786 C   0  0  2  0  0  0  0  0  0  0  0  0
    7.8309  -12.1845   18.6832 C   0  0  0  0  0  0  0  0  0  0  0  0
    7.3112  -13.9610   20.3265 C   0  0  0  0  0  0  0  0  0  0  0  0
    7.6731  -15.3590   20.7439 C   0  0  2  0  0  0  0  0  0  0  0  0
    7.0707  -16.3695   19.8965 N   0  0  0  0  0  0  0  0  0  0  0  0
    7.2199  -15.6324   22.1502 C   0  0  0  0  0  0  0  0  0  0  0  0
    6.0357  -15.4962   22.5183 O   0  0  0  0  0  0  0  0  0  0  0  0
    7.3162  -20.1286   26.0329 N   0  0  0  0  0  0  0  0  0  0  0  0
    6.3173  -19.6426   25.1470 C   0  0  0  0  0  0  0  0  0  0  0  0
    5.2258  -20.2432   25.0771 O   0  0  0  0  0  0  0  0  0  0  0  0
    6.5280  -18.4419   24.2996 C   0  0  0  0  0  0  0  0  0  0  0  0
    7.9205  -17.8681   24.5559 C   0  0  0  0  0  0  0  0  0  0  0  0
    7.8811  -16.3510   24.4852 C   0  0  2  0  0  0  0  0  0  0  0  0
    8.1880  -16.0571   23.0680 N   0  0  0  0  0  0  0  0  0  0  0  0
    8.9390  -15.7055   25.2903 C   0  0  0  0  0  0  0  0  0  0  0  0
   10.1730  -15.8807   24.9829 O   0  0  0  0  0  0  0  0  0  0  0  0
    8.6970  -14.8817   26.4069 N   0  0  0  0  0  0  0  0  0  0  0  0
    7.3914  -14.4677   26.8691 C   0  0  0  0  0  0  0  0  0  0  0  0
    7.6149  -13.2545   27.7227 C   0  0  0  0  0  0  0  0  0  0  0  0
    9.0585  -12.9190   27.5682 C   0  0  0  0  0  0  0  0  0  0  0  0
    9.7008  -14.2801   27.2959 C   0  0  1  0  0  0  0  0  0  0  0  0
    9.8525  -15.0482   28.5337 C   0  0  0  0  0  0  0  0  0  0  0  0
    9.1396  -16.2058   28.8016 O   0  0  0  0  0  0  0  0  0  0  0  0
   10.6652  -14.6769   29.4389 O   0  0  0  0  0  0  0  0  0  0  0  0
  2  1  1  1
  2  3  1  0
  4  2  1  0
  5  4  1  0
  5  6  1  6
  7  5  1  0
  7  8  2  0
  9 10  1  0
 10 12  1  0
 11 10  2  0
 13 12  1  0
 14 13  1  6
 14 15  1  0
 14 16  1  0
 15  7  1  0
 16 17  2  0
 16 18  1  0
 18 22  1  0
 19 20  1  0
 19 18  1  0
 20 21  1  0
 22 21  1  0
 22 23  1  1
 23 25  2  0
 23 24  1  0
M  END
$$$$
