LQP.pdb
     RDKit          3D

 25 25  0  0  1  0  0  0  0  0999 V2000
    5.2800  -12.5051   26.4440 C   0  0  0  0  0  0  0  0  0  0  0  0
    6.4926  -12.5699   27.3651 C   0  0  2  0  0  0  0  0  0  0  0  0
    6.6534  -11.2247   27.9995 C   0  0  0  0  0  0  0  0  0  0  0  0
    7.7023  -12.9575   26.5770 C   0  0  0  0  0  0  0  0  0  0  0  0
    7.5382  -14.3685   26.0851 C   0  0  2  0  0  0  0  0  0  0  0  0
    7.6117  -15.3456   27.1536 N   0  0  0  0  0  0  0  0  0  0  0  0
    8.6098  -14.7171   25.0911 C   0  0  0  0  0  0  0  0  0  0  0  0
    9.8129  -14.4378   25.2669 O   0  0  0  0  0  0  0  0  0  0  0  0
   12.3431  -17.4539   23.3985 N   0  0  0  0  0  0  0  0  0  0  0  0
   11.9373  -17.4756   22.0370 C   0  0  0  0  0  0  0  0  0  0  0  0
   12.7820  -17.7403   21.1575 O   0  0  0  0  0  0  0  0  0  0  0  0
   10.5395  -17.1935   21.6237 C   0  0  0  0  0  0  0  0  0  0  0  0
    9.6911  -16.8810   22.8551 C   0  0  0  0  0  0  0  0  0  0  0  0
    9.0783  -15.4965   22.7292 C   0  0  2  0  0  0  0  0  0  0  0  0
    8.2149  -15.3842   23.9254 N   0  0  0  0  0  0  0  0  0  0  0  0
    8.1933  -15.3590   21.5536 C   0  0  0  0  0  0  0  0  0  0  0  0
    7.0428  -15.9284   21.5494 O   0  0  0  0  0  0  0  0  0  0  0  0
    8.5184  -14.6262   20.3955 N   0  0  0  0  0  0  0  0  0  0  0  0
    9.7474  -13.8933   20.1912 C   0  0  0  0  0  0  0  0  0  0  0  0
    9.4673  -12.9022   19.1005 C   0  0  0  0  0  0  0  0  0  0  0  0
    8.0032  -12.9990   18.8403 C   0  0  0  0  0  0  0  0  0  0  0  0
    7.6860  -14.4521   19.1968 C   0  0  1  0  0  0  0  0  0  0  0  0
    8.0941  -15.3594   18.1220 C   0  0  0  0  0  0  0  0  0  0  0  0
    7.3439  -15.5645   16.9751 O   0  0  0  0  0  0  0  0  0  0  0  0
    9.1816  -16.0148   18.1962 O   0  0  0  0  0  0  0  0  0  0  0  0
  2  1  1  6
  2  3  1  0
  4  2  1  0
  5  4  1  0
  5  6  1  1
  7  5  1  0
  7  8  2  0
  9 10  1  0
 10 12  1  0
 11 10  2  0
 13 12  1  0
 14 13  1  6
 14 15  1  0
 14 16  1  0
 15  7  1  0
 16 17  2  0
 16 18  1  0
 18 22  1  0
 19 20  1  0
 19 18  1  0
 20 21  1  0
 22 21  1  0
 22 23  1  6
 23 25  2  0
 23 24  1  0
M  END
$$$$
