LQP.pdb
     RDKit          3D

 25 25  0  0  1  0  0  0  0  0999 V2000
    7.3804  -12.2093   19.4314 C   0  0  0  0  0  0  0  0  0  0  0  0
    8.1088  -13.3388   20.1503 C   0  0  2  0  0  0  0  0  0  0  0  0
    9.5726  -13.0333   20.1100 C   0  0  0  0  0  0  0  0  0  0  0  0
    7.7973  -14.6410   19.4856 C   0  0  0  0  0  0  0  0  0  0  0  0
    8.1746  -15.7670   20.4073 C   0  0  2  0  0  0  0  0  0  0  0  0
    7.8788  -17.0712   19.8475 N   0  0  0  0  0  0  0  0  0  0  0  0
    7.4318  -15.6649   21.7095 C   0  0  0  0  0  0  0  0  0  0  0  0
    6.2882  -15.1748   21.7998 O   0  0  0  0  0  0  0  0  0  0  0  0
    7.5150  -20.0136   25.8274 N   0  0  0  0  0  0  0  0  0  0  0  0
    7.1599  -18.9296   26.6746 C   0  0  0  0  0  0  0  0  0  0  0  0
    6.8660  -19.1624   27.8648 O   0  0  0  0  0  0  0  0  0  0  0  0
    7.1265  -17.5262   26.1915 C   0  0  0  0  0  0  0  0  0  0  0  0
    7.4667  -17.4853   24.7027 C   0  0  0  0  0  0  0  0  0  0  0  0
    7.4856  -16.0481   24.2107 C   0  0  2  0  0  0  0  0  0  0  0  0
    8.0730  -16.1478   22.8565 N   0  0  0  0  0  0  0  0  0  0  0  0
    8.3829  -15.1774   24.9986 C   0  0  0  0  0  0  0  0  0  0  0  0
    9.6531  -15.2447   24.8254 O   0  0  0  0  0  0  0  0  0  0  0  0
    7.9441  -14.2439   25.9577 N   0  0  0  0  0  0  0  0  0  0  0  0
    6.5659  -13.8767   26.1929 C   0  0  0  0  0  0  0  0  0  0  0  0
    6.5999  -12.5547   26.9011 C   0  0  0  0  0  0  0  0  0  0  0  0
    8.0288  -12.1320   26.8875 C   0  0  0  0  0  0  0  0  0  0  0  0
    8.7813  -13.4635   26.8796 C   0  0  1  0  0  0  0  0  0  0  0  0
    8.8098  -14.0605   28.2168 C   0  0  0  0  0  0  0  0  0  0  0  0
    9.6907  -13.6604   29.2087 O   0  0  0  0  0  0  0  0  0  0  0  0
    8.0073  -14.9951   28.5335 O   0  0  0  0  0  0  0  0  0  0  0  0
  2  1  1  6
  2  3  1  0
  4  2  1  0
  5  4  1  0
  5  6  1  6
  7  5  1  0
  7  8  2  0
  9 10  1  0
 10 12  1  0
 11 10  2  0
 13 12  1  0
 14 13  1  1
 14 15  1  0
 14 16  1  0
 15  7  1  0
 16 17  2  0
 16 18  1  0
 18 22  1  0
 19 20  1  0
 19 18  1  0
 20 21  1  0
 22 21  1  0
 22 23  1  1
 23 25  2  0
 23 24  1  0
M  END
$$$$
