LQP.pdb
     RDKit          3D

 25 25  0  0  1  0  0  0  0  0999 V2000
   10.0023  -13.6244   19.3083 C   0  0  0  0  0  0  0  0  0  0  0  0
    8.5827  -13.7757   18.7744 C   0  0  2  0  0  0  0  0  0  0  0  0
    8.1819  -12.4662   18.1723 C   0  0  0  0  0  0  0  0  0  0  0  0
    7.6674  -14.1759   19.8865 C   0  0  0  0  0  0  0  0  0  0  0  0
    8.0859  -15.5221   20.4084 C   0  0  2  0  0  0  0  0  0  0  0  0
    7.8170  -16.5941   19.4700 N   0  0  0  0  0  0  0  0  0  0  0  0
    7.3576  -15.8534   21.6803 C   0  0  0  0  0  0  0  0  0  0  0  0
    6.2876  -16.4944   21.7003 O   0  0  0  0  0  0  0  0  0  0  0  0
    6.2192  -18.7169   26.2376 N   0  0  0  0  0  0  0  0  0  0  0  0
    7.5198  -18.6165   25.6744 C   0  0  0  0  0  0  0  0  0  0  0  0
    8.3987  -19.4270   26.0318 O   0  0  0  0  0  0  0  0  0  0  0  0
    7.8700  -17.5780   24.6728 C   0  0  0  0  0  0  0  0  0  0  0  0
    6.6719  -16.6583   24.4436 C   0  0  0  0  0  0  0  0  0  0  0  0
    7.1474  -15.2500   24.1292 C   0  0  2  0  0  0  0  0  0  0  0  0
    7.9255  -15.4122   22.8814 N   0  0  0  0  0  0  0  0  0  0  0  0
    8.0792  -14.7130   25.1428 C   0  0  0  0  0  0  0  0  0  0  0  0
    9.3388  -14.9359   25.0349 O   0  0  0  0  0  0  0  0  0  0  0  0
    7.6860  -13.9468   26.2573 N   0  0  0  0  0  0  0  0  0  0  0  0
    6.3202  -13.6360   26.6143 C   0  0  0  0  0  0  0  0  0  0  0  0
    6.3856  -12.4417   27.5196 C   0  0  0  0  0  0  0  0  0  0  0  0
    7.8108  -12.0068   27.5032 C   0  0  0  0  0  0  0  0  0  0  0  0
    8.5658  -13.3123   27.2488 C   0  0  1  0  0  0  0  0  0  0  0  0
    8.6626  -14.1119   28.4721 C   0  0  0  0  0  0  0  0  0  0  0  0
    9.5951  -13.8677   29.4675 O   0  0  0  0  0  0  0  0  0  0  0  0
    7.8755  -15.0893   28.6791 O   0  0  0  0  0  0  0  0  0  0  0  0
  2  1  1  1
  2  3  1  0
  4  2  1  0
  5  4  1  0
  5  6  1  6
  7  5  1  0
  7  8  2  0
  9 10  1  0
 10 12  1  0
 11 10  2  0
 13 12  1  0
 14 13  1  1
 14 15  1  0
 14 16  1  0
 15  7  1  0
 16 17  2  0
 16 18  1  0
 18 22  1  0
 19 20  1  0
 19 18  1  0
 20 21  1  0
 22 21  1  0
 22 23  1  1
 23 25  2  0
 23 24  1  0
M  END
$$$$
