LQP.pdb
     RDKit          3D

 25 25  0  0  1  0  0  0  0  0999 V2000
    9.5416  -13.3330   19.4178 C   0  0  0  0  0  0  0  0  0  0  0  0
    8.1180  -13.5601   18.9230 C   0  0  2  0  0  0  0  0  0  0  0  0
    7.6228  -12.2675   18.3556 C   0  0  0  0  0  0  0  0  0  0  0  0
    7.2618  -14.0313   20.0541 C   0  0  0  0  0  0  0  0  0  0  0  0
    7.7739  -15.3587   20.5395 C   0  0  2  0  0  0  0  0  0  0  0  0
    7.4289  -16.4505   19.6502 N   0  0  0  0  0  0  0  0  0  0  0  0
    7.2052  -15.6906   21.8902 C   0  0  0  0  0  0  0  0  0  0  0  0
    5.9904  -15.9015   22.0799 O   0  0  0  0  0  0  0  0  0  0  0  0
    6.4571  -19.8097   25.0549 N   0  0  0  0  0  0  0  0  0  0  0  0
    6.8397  -19.0431   26.1884 C   0  0  0  0  0  0  0  0  0  0  0  0
    6.5125  -19.4389   27.3256 O   0  0  0  0  0  0  0  0  0  0  0  0
    7.6173  -17.7843   26.0660 C   0  0  0  0  0  0  0  0  0  0  0  0
    7.8263  -17.4491   24.5902 C   0  0  0  0  0  0  0  0  0  0  0  0
    7.6610  -15.9556   24.3656 C   0  0  2  0  0  0  0  0  0  0  0  0
    8.0985  -15.7601   22.9659 N   0  0  0  0  0  0  0  0  0  0  0  0
    8.5599  -15.1397   25.2083 C   0  0  0  0  0  0  0  0  0  0  0  0
    9.8323  -15.2513   25.0802 O   0  0  0  0  0  0  0  0  0  0  0  0
    8.1204  -14.2138   26.1745 N   0  0  0  0  0  0  0  0  0  0  0  0
    6.7518  -13.7858   26.3561 C   0  0  0  0  0  0  0  0  0  0  0  0
    6.8149  -12.4883   27.1063 C   0  0  0  0  0  0  0  0  0  0  0  0
    8.2615  -12.1367   27.1731 C   0  0  0  0  0  0  0  0  0  0  0  0
    8.9486  -13.5030   27.1589 C   0  0  1  0  0  0  0  0  0  0  0  0
    8.8834  -14.1393   28.4765 C   0  0  0  0  0  0  0  0  0  0  0  0
    9.7301  -13.8089   29.5223 O   0  0  0  0  0  0  0  0  0  0  0  0
    8.0255  -15.0451   28.7241 O   0  0  0  0  0  0  0  0  0  0  0  0
  2  1  1  1
  2  3  1  0
  4  2  1  0
  5  4  1  0
  5  6  1  6
  7  5  1  0
  7  8  2  0
  9 10  1  0
 10 12  1  0
 11 10  2  0
 13 12  1  0
 14 13  1  1
 14 15  1  0
 14 16  1  0
 15  7  1  0
 16 17  2  0
 16 18  1  0
 18 22  1  0
 19 20  1  0
 19 18  1  0
 20 21  1  0
 22 21  1  0
 22 23  1  1
 23 25  2  0
 23 24  1  0
M  END
$$$$
