LQP.pdb
     RDKit          3D

 25 25  0  0  1  0  0  0  0  0999 V2000
    9.7545  -13.5324   19.5819 C   0  0  0  0  0  0  0  0  0  0  0  0
    8.4225  -13.6994   18.8601 C   0  0  2  0  0  0  0  0  0  0  0  0
    8.0920  -12.3938   18.2089 C   0  0  0  0  0  0  0  0  0  0  0  0
    7.3693  -14.1117   19.8376 C   0  0  0  0  0  0  0  0  0  0  0  0
    7.7821  -15.4006   20.4919 C   0  0  2  0  0  0  0  0  0  0  0  0
    7.4535  -16.5643   19.6920 N   0  0  0  0  0  0  0  0  0  0  0  0
    7.1005  -15.5691   21.8204 C   0  0  0  0  0  0  0  0  0  0  0  0
    5.8625  -15.6670   21.9384 O   0  0  0  0  0  0  0  0  0  0  0  0
    7.7126  -19.8902   25.3740 N   0  0  0  0  0  0  0  0  0  0  0  0
    7.2758  -18.9664   26.3613 C   0  0  0  0  0  0  0  0  0  0  0  0
    6.9842  -19.3886   27.4987 O   0  0  0  0  0  0  0  0  0  0  0  0
    7.1541  -17.5127   26.0856 C   0  0  0  0  0  0  0  0  0  0  0  0
    7.4904  -17.2359   24.6212 C   0  0  0  0  0  0  0  0  0  0  0  0
    7.3717  -15.7495   24.3303 C   0  0  2  0  0  0  0  0  0  0  0  0
    7.9126  -15.6153   22.9598 N   0  0  0  0  0  0  0  0  0  0  0  0
    8.2239  -14.9177   25.2054 C   0  0  0  0  0  0  0  0  0  0  0  0
    9.4935  -14.8860   25.0184 O   0  0  0  0  0  0  0  0  0  0  0  0
    7.7409  -14.1257   26.2653 N   0  0  0  0  0  0  0  0  0  0  0  0
    6.3471  -13.9515   26.6068 C   0  0  0  0  0  0  0  0  0  0  0  0
    6.2704  -12.6968   27.4254 C   0  0  0  0  0  0  0  0  0  0  0  0
    7.6354  -12.1014   27.3710 C   0  0  0  0  0  0  0  0  0  0  0  0
    8.5380  -13.3249   27.2051 C   0  0  1  0  0  0  0  0  0  0  0  0
    8.7235  -14.0196   28.4811 C   0  0  0  0  0  0  0  0  0  0  0  0
    9.6351  -13.6127   29.4420 O   0  0  0  0  0  0  0  0  0  0  0  0
    8.0391  -15.0521   28.7697 O   0  0  0  0  0  0  0  0  0  0  0  0
  2  1  1  1
  2  3  1  0
  4  2  1  0
  5  4  1  0
  5  6  1  6
  7  5  1  0
  7  8  2  0
  9 10  1  0
 10 12  1  0
 11 10  2  0
 13 12  1  0
 14 13  1  1
 14 15  1  0
 14 16  1  0
 15  7  1  0
 16 17  2  0
 16 18  1  0
 18 22  1  0
 19 20  1  0
 19 18  1  0
 20 21  1  0
 22 21  1  0
 22 23  1  1
 23 25  2  0
 23 24  1  0
M  END
$$$$
