LQP.pdb
     RDKit          3D

 25 25  0  0  1  0  0  0  0  0999 V2000
    9.6657  -13.6617   19.8840 C   0  0  0  0  0  0  0  0  0  0  0  0
    8.4117  -13.7490   19.0220 C   0  0  2  0  0  0  0  0  0  0  0  0
    8.1654  -12.3931   18.4400 C   0  0  0  0  0  0  0  0  0  0  0  0
    7.2598  -14.2103   19.8556 C   0  0  0  0  0  0  0  0  0  0  0  0
    7.6131  -15.5208   20.5018 C   0  0  2  0  0  0  0  0  0  0  0  0
    7.1606  -16.6636   19.7329 N   0  0  0  0  0  0  0  0  0  0  0  0
    6.9919  -15.6302   21.8655 C   0  0  0  0  0  0  0  0  0  0  0  0
    5.7581  -15.6213   22.0501 O   0  0  0  0  0  0  0  0  0  0  0  0
    7.6539  -19.9412   25.5107 N   0  0  0  0  0  0  0  0  0  0  0  0
    7.3281  -18.9717   26.4971 C   0  0  0  0  0  0  0  0  0  0  0  0
    7.1590  -19.3414   27.6769 O   0  0  0  0  0  0  0  0  0  0  0  0
    7.1815  -17.5306   26.1718 C   0  0  0  0  0  0  0  0  0  0  0  0
    7.4762  -17.3043   24.6899 C   0  0  0  0  0  0  0  0  0  0  0  0
    7.3812  -15.8246   24.3588 C   0  0  2  0  0  0  0  0  0  0  0  0
    7.8570  -15.7461   22.9601 N   0  0  0  0  0  0  0  0  0  0  0  0
    8.2966  -14.9902   25.1651 C   0  0  0  0  0  0  0  0  0  0  0  0
    9.5605  -15.0317   24.9447 O   0  0  0  0  0  0  0  0  0  0  0  0
    7.8819  -14.1195   26.1916 N   0  0  0  0  0  0  0  0  0  0  0  0
    6.5077  -13.8312   26.5348 C   0  0  0  0  0  0  0  0  0  0  0  0
    6.5287  -12.5391   27.2966 C   0  0  0  0  0  0  0  0  0  0  0  0
    7.9318  -12.0456   27.2055 C   0  0  0  0  0  0  0  0  0  0  0  0
    8.7435  -13.3365   27.0885 C   0  0  1  0  0  0  0  0  0  0  0  0
    8.8925  -13.9852   28.3932 C   0  0  0  0  0  0  0  0  0  0  0  0
    9.8399  -13.6014   29.3287 O   0  0  0  0  0  0  0  0  0  0  0  0
    8.1402  -14.9530   28.7327 O   0  0  0  0  0  0  0  0  0  0  0  0
  2  1  1  1
  2  3  1  0
  4  2  1  0
  5  4  1  0
  5  6  1  6
  7  5  1  0
  7  8  2  0
  9 10  1  0
 10 12  1  0
 11 10  2  0
 13 12  1  0
 14 13  1  1
 14 15  1  0
 14 16  1  0
 15  7  1  0
 16 17  2  0
 16 18  1  0
 18 22  1  0
 19 20  1  0
 19 18  1  0
 20 21  1  0
 22 21  1  0
 22 23  1  1
 23 25  2  0
 23 24  1  0
M  END
$$$$
