LQP.pdb
     RDKit          3D

 25 25  0  0  1  0  0  0  0  0999 V2000
    9.5856  -13.7069   19.8746 C   0  0  0  0  0  0  0  0  0  0  0  0
    8.3436  -13.8643   19.0051 C   0  0  2  0  0  0  0  0  0  0  0  0
    8.0535  -12.5353   18.3827 C   0  0  0  0  0  0  0  0  0  0  0  0
    7.2016  -14.3439   19.8421 C   0  0  0  0  0  0  0  0  0  0  0  0
    7.5980  -15.6195   20.5316 C   0  0  2  0  0  0  0  0  0  0  0  0
    7.1783  -16.8019   19.8051 N   0  0  0  0  0  0  0  0  0  0  0  0
    6.9857  -15.7004   21.9014 C   0  0  0  0  0  0  0  0  0  0  0  0
    5.7542  -15.6584   22.0960 O   0  0  0  0  0  0  0  0  0  0  0  0
    7.3880  -20.1090   25.3656 N   0  0  0  0  0  0  0  0  0  0  0  0
    7.0719  -19.1656   26.3800 C   0  0  0  0  0  0  0  0  0  0  0  0
    6.8283  -19.5751   27.5332 O   0  0  0  0  0  0  0  0  0  0  0  0
    7.0215  -17.7057   26.1144 C   0  0  0  0  0  0  0  0  0  0  0  0
    7.4425  -17.4295   24.6720 C   0  0  0  0  0  0  0  0  0  0  0  0
    7.3880  -15.9378   24.3889 C   0  0  2  0  0  0  0  0  0  0  0  0
    7.8568  -15.8282   22.9899 N   0  0  0  0  0  0  0  0  0  0  0  0
    8.3323  -15.1562   25.2144 C   0  0  0  0  0  0  0  0  0  0  0  0
    9.5873  -15.1795   24.9455 O   0  0  0  0  0  0  0  0  0  0  0  0
    7.9555  -14.3565   26.3110 N   0  0  0  0  0  0  0  0  0  0  0  0
    6.6040  -14.1922   26.7967 C   0  0  0  0  0  0  0  0  0  0  0  0
    6.6005  -12.9286   27.6052 C   0  0  0  0  0  0  0  0  0  0  0  0
    7.9452  -12.3201   27.3995 C   0  0  0  0  0  0  0  0  0  0  0  0
    8.8388  -13.5364   27.1520 C   0  0  1  0  0  0  0  0  0  0  0  0
    9.1665  -14.2138   28.4085 C   0  0  0  0  0  0  0  0  0  0  0  0
   10.1324  -13.7547   29.2895 O   0  0  0  0  0  0  0  0  0  0  0  0
    8.5639  -15.2793   28.7542 O   0  0  0  0  0  0  0  0  0  0  0  0
  2  1  1  1
  2  3  1  0
  4  2  1  0
  5  4  1  0
  5  6  1  6
  7  5  1  0
  7  8  2  0
  9 10  1  0
 10 12  1  0
 11 10  2  0
 13 12  1  0
 14 13  1  1
 14 15  1  0
 14 16  1  0
 15  7  1  0
 16 17  2  0
 16 18  1  0
 18 22  1  0
 19 20  1  0
 19 18  1  0
 20 21  1  0
 22 21  1  0
 22 23  1  1
 23 25  2  0
 23 24  1  0
M  END
$$$$
