LQP.pdb
     RDKit          3D

 25 25  0  0  1  0  0  0  0  0999 V2000
    7.3409  -12.2319   19.6879 C   0  0  0  0  0  0  0  0  0  0  0  0
    7.8953  -13.5030   20.3203 C   0  0  2  0  0  0  0  0  0  0  0  0
    9.3800  -13.4910   20.1375 C   0  0  0  0  0  0  0  0  0  0  0  0
    7.2690  -14.6986   19.6778 C   0  0  0  0  0  0  0  0  0  0  0  0
    7.5951  -15.9213   20.4894 C   0  0  2  0  0  0  0  0  0  0  0  0
    7.0847  -17.1406   19.8938 N   0  0  0  0  0  0  0  0  0  0  0  0
    7.0065  -15.8215   21.8683 C   0  0  0  0  0  0  0  0  0  0  0  0
    5.8087  -15.5400   22.0743 O   0  0  0  0  0  0  0  0  0  0  0  0
    7.4638  -20.0593   25.7774 N   0  0  0  0  0  0  0  0  0  0  0  0
    7.1145  -19.0197   26.6807 C   0  0  0  0  0  0  0  0  0  0  0  0
    6.8285  -19.3124   27.8595 O   0  0  0  0  0  0  0  0  0  0  0  0
    7.0779  -17.5936   26.2694 C   0  0  0  0  0  0  0  0  0  0  0  0
    7.4118  -17.4772   24.7831 C   0  0  0  0  0  0  0  0  0  0  0  0
    7.4067  -16.0182   24.3597 C   0  0  2  0  0  0  0  0  0  0  0  0
    7.8603  -16.0592   22.9520 N   0  0  0  0  0  0  0  0  0  0  0  0
    8.3892  -15.1970   25.0975 C   0  0  0  0  0  0  0  0  0  0  0  0
    9.6388  -15.2919   24.8196 O   0  0  0  0  0  0  0  0  0  0  0  0
    8.0559  -14.2834   26.1165 N   0  0  0  0  0  0  0  0  0  0  0  0
    6.7118  -13.8945   26.4795 C   0  0  0  0  0  0  0  0  0  0  0  0
    6.8372  -12.5953   27.2187 C   0  0  0  0  0  0  0  0  0  0  0  0
    8.2693  -12.2024   27.0940 C   0  0  0  0  0  0  0  0  0  0  0  0
    8.9869  -13.5486   26.9843 C   0  0  1  0  0  0  0  0  0  0  0  0
    9.1154  -14.1856   28.2969 C   0  0  0  0  0  0  0  0  0  0  0  0
    8.3855  -15.3013   28.6745 O   0  0  0  0  0  0  0  0  0  0  0  0
    9.9224  -13.7313   29.1687 O   0  0  0  0  0  0  0  0  0  0  0  0
  2  1  1  6
  2  3  1  0
  4  2  1  0
  5  4  1  0
  5  6  1  6
  7  5  1  0
  7  8  2  0
  9 10  1  0
 10 12  1  0
 11 10  2  0
 13 12  1  0
 14 13  1  1
 14 15  1  0
 14 16  1  0
 15  7  1  0
 16 17  2  0
 16 18  1  0
 18 22  1  0
 19 20  1  0
 19 18  1  0
 20 21  1  0
 22 21  1  0
 22 23  1  1
 23 25  2  0
 23 24  1  0
M  END
$$$$
