NWF.pdb
     RDKit          3D

 34 36  0  0  1  0  0  0  0  0999 V2000
    8.5532  -13.2038   16.1403 N   0  0  0  0  0  0  0  0  0  0  0  0
    8.0575  -14.3056   16.8952 C   0  0  0  0  0  0  0  0  0  0  0  0
    7.7474  -15.3500   16.2743 O   0  0  0  0  0  0  0  0  0  0  0  0
    7.8979  -14.2610   18.3669 C   0  0  0  0  0  0  0  0  0  0  0  0
    8.6822  -15.3645   18.9814 C   0  0  2  0  0  0  0  0  0  0  0  0
    8.1644  -16.6292   18.5646 N   0  0  0  0  0  0  0  0  0  0  0  0
    8.8526  -15.2445   20.4420 C   0  0  0  0  0  0  0  0  0  0  0  0
    9.3915  -14.1951   20.8937 O   0  0  0  0  0  0  0  0  0  0  0  0
    8.4589  -16.2163   21.3821 N   0  0  0  0  0  0  0  0  0  0  0  0
    8.5790  -16.0474   22.8214 C   0  0  1  0  0  0  0  0  0  0  0  0
    7.4226  -16.5830   23.5677 C   0  0  0  0  0  0  0  0  0  0  0  0
    6.8086  -15.6905   24.5681 C   0  0  0  0  0  0  0  0  0  0  0  0
    5.7758  -16.1128   25.4451 C   0  0  0  0  0  0  0  0  0  0  0  0
    5.4608  -15.1056   26.2631 N   0  0  0  0  0  0  0  0  0  0  0  0
    6.2091  -14.0265   26.0011 C   0  0  0  0  0  0  0  0  0  0  0  0
    6.2601  -12.7528   26.5499 C   0  0  0  0  0  0  0  0  0  0  0  0
    7.1591  -11.8541   26.0250 C   0  0  0  0  0  0  0  0  0  0  0  0
    7.9850  -12.1984   24.9885 C   0  0  0  0  0  0  0  0  0  0  0  0
    7.9403  -13.4624   24.4381 C   0  0  0  0  0  0  0  0  0  0  0  0
    7.0503  -14.3935   24.9408 C   0  0  0  0  0  0  0  0  0  0  0  0
    9.8574  -16.5725   23.2963 C   0  0  0  0  0  0  0  0  0  0  0  0
   10.3894  -17.5530   22.7175 O   0  0  0  0  0  0  0  0  0  0  0  0
   10.5349  -16.0048   24.4102 N   0  0  0  0  0  0  0  0  0  0  0  0
   11.7803  -16.6124   24.8518 C   0  0  1  0  0  0  0  0  0  0  0  0
   12.4758  -15.6155   25.7466 C   0  0  0  0  0  0  0  0  0  0  0  0
   11.6666  -15.1809   26.9049 C   0  0  0  0  0  0  0  0  0  0  0  0
   11.7084  -15.8229   28.1226 C   0  0  0  0  0  0  0  0  0  0  0  0
   10.9619  -15.4157   29.2006 C   0  0  0  0  0  0  0  0  0  0  0  0
   10.1318  -14.3176   29.0671 C   0  0  0  0  0  0  0  0  0  0  0  0
   10.0914  -13.6751   27.8440 C   0  0  0  0  0  0  0  0  0  0  0  0
   10.8386  -14.0788   26.7574 C   0  0  0  0  0  0  0  0  0  0  0  0
   11.5299  -17.8671   25.6010 C   0  0  0  0  0  0  0  0  0  0  0  0
   12.5130  -18.7780   25.9403 O   0  0  0  0  0  0  0  0  0  0  0  0
   10.3492  -18.1205   25.9494 O   0  0  0  0  0  0  0  0  0  0  0  0
  2  1  1  0
  2  3  2  0
  4  2  1  0
  5  7  1  0
  5  4  1  0
  5  6  1  1
  7  8  2  0
  9 10  1  0
  9  7  1  0
 10 11  1  1
 11 12  1  0
 12 20  1  0
 13 14  1  0
 13 12  2  0
 14 15  1  0
 15 20  2  0
 15 16  1  0
 16 17  2  0
 17 18  1  0
 19 18  2  0
 20 19  1  0
 21 10  1  0
 22 21  2  0
 23 21  1  0
 24 25  1  1
 24 23  1  0
 25 26  1  0
 26 27  2  0
 27 28  1  0
 29 28  2  0
 30 29  1  0
 31 26  1  0
 31 30  2  0
 32 24  1  0
 32 33  1  0
 34 32  2  0
M  END
$$$$
