NWF.pdb
     RDKit          3D

 34 36  0  0  1  0  0  0  0  0999 V2000
   10.5500  -20.4917   17.8035 N   0  0  0  0  0  0  0  0  0  0  0  0
   11.6633  -19.6891   18.1856 C   0  0  0  0  0  0  0  0  0  0  0  0
   12.6759  -19.7003   17.4460 O   0  0  0  0  0  0  0  0  0  0  0  0
   11.6662  -18.8538   19.4085 C   0  0  0  0  0  0  0  0  0  0  0  0
   10.6659  -17.7635   19.2630 C   0  0  2  0  0  0  0  0  0  0  0  0
   11.0584  -16.8700   18.2195 N   0  0  0  0  0  0  0  0  0  0  0  0
   10.3223  -17.0856   20.5276 C   0  0  0  0  0  0  0  0  0  0  0  0
   11.1419  -16.2449   20.9935 O   0  0  0  0  0  0  0  0  0  0  0  0
    9.1419  -17.3035   21.2643 N   0  0  0  0  0  0  0  0  0  0  0  0
    8.8386  -16.6424   22.5235 C   0  0  1  0  0  0  0  0  0  0  0  0
    7.3902  -16.5487   22.7961 C   0  0  0  0  0  0  0  0  0  0  0  0
    6.9867  -15.7479   23.9668 C   0  0  0  0  0  0  0  0  0  0  0  0
    6.4937  -16.3293   25.1639 C   0  0  0  0  0  0  0  0  0  0  0  0
    6.2614  -15.3616   26.0540 N   0  0  0  0  0  0  0  0  0  0  0  0
    6.5622  -14.1611   25.5428 C   0  0  0  0  0  0  0  0  0  0  0  0
    6.4905  -12.8708   26.0487 C   0  0  0  0  0  0  0  0  0  0  0  0
    6.8742  -11.8309   25.2347 C   0  0  0  0  0  0  0  0  0  0  0  0
    7.3159  -12.0537   23.9578 C   0  0  0  0  0  0  0  0  0  0  0  0
    7.3903  -13.3333   23.4482 C   0  0  0  0  0  0  0  0  0  0  0  0
    7.0145  -14.4043   24.2378 C   0  0  0  0  0  0  0  0  0  0  0  0
    9.5872  -17.2541   23.6193 C   0  0  0  0  0  0  0  0  0  0  0  0
    9.7408  -18.5008   23.6580 O   0  0  0  0  0  0  0  0  0  0  0  0
   10.1590  -16.4767   24.6636 N   0  0  0  0  0  0  0  0  0  0  0  0
   11.0975  -17.1146   25.5733 C   0  0  1  0  0  0  0  0  0  0  0  0
   11.8481  -16.0179   26.2888 C   0  0  0  0  0  0  0  0  0  0  0  0
   11.0380  -15.2872   27.2863 C   0  0  0  0  0  0  0  0  0  0  0  0
   10.9135  -15.7061   28.5924 C   0  0  0  0  0  0  0  0  0  0  0  0
   10.1664  -15.0243   29.5209 C   0  0  0  0  0  0  0  0  0  0  0  0
    9.5089  -13.8695   29.1378 C   0  0  0  0  0  0  0  0  0  0  0  0
    9.6351  -13.4512   27.8265 C   0  0  0  0  0  0  0  0  0  0  0  0
   10.3839  -14.1313   26.8890 C   0  0  0  0  0  0  0  0  0  0  0  0
   10.3931  -17.9656   26.5622 C   0  0  0  0  0  0  0  0  0  0  0  0
   11.0291  -18.8161   27.4473 O   0  0  0  0  0  0  0  0  0  0  0  0
    9.1378  -17.9122   26.5983 O   0  0  0  0  0  0  0  0  0  0  0  0
  2  1  1  0
  2  3  2  0
  4  2  1  0
  5  7  1  0
  5  4  1  0
  5  6  1  6
  7  8  2  0
  9 10  1  0
  9  7  1  0
 10 11  1  1
 11 12  1  0
 12 20  1  0
 13 14  1  0
 13 12  2  0
 14 15  1  0
 15 20  2  0
 15 16  1  0
 16 17  2  0
 17 18  1  0
 19 18  2  0
 20 19  1  0
 21 10  1  0
 22 21  2  0
 23 21  1  0
 24 25  1  1
 24 23  1  0
 25 26  1  0
 26 27  2  0
 27 28  1  0
 29 28  2  0
 30 29  1  0
 31 26  1  0
 31 30  2  0
 32 24  1  0
 32 33  1  0
 34 32  2  0
M  END
$$$$
