NWF.pdb
     RDKit          3D

 34 36  0  0  1  0  0  0  0  0999 V2000
   12.4571  -16.5978   16.2810 N   0  0  0  0  0  0  0  0  0  0  0  0
   12.7960  -16.8967   17.6321 C   0  0  0  0  0  0  0  0  0  0  0  0
   13.6275  -17.8122   17.8395 O   0  0  0  0  0  0  0  0  0  0  0  0
   12.2088  -16.1741   18.7837 C   0  0  0  0  0  0  0  0  0  0  0  0
   11.4502  -17.1314   19.6314 C   0  0  2  0  0  0  0  0  0  0  0  0
   10.4753  -17.8203   18.8462 N   0  0  0  0  0  0  0  0  0  0  0  0
   10.9069  -16.5427   20.8704 C   0  0  0  0  0  0  0  0  0  0  0  0
   11.6543  -15.7782   21.5431 O   0  0  0  0  0  0  0  0  0  0  0  0
    9.6087  -16.7675   21.3680 N   0  0  0  0  0  0  0  0  0  0  0  0
    9.1199  -16.2326   22.6288 C   0  0  1  0  0  0  0  0  0  0  0  0
    7.6568  -16.0331   22.6469 C   0  0  0  0  0  0  0  0  0  0  0  0
    7.0836  -15.4428   23.8705 C   0  0  0  0  0  0  0  0  0  0  0  0
    6.4930  -16.2237   24.8979 C   0  0  0  0  0  0  0  0  0  0  0  0
    6.1117  -15.4182   25.8921 N   0  0  0  0  0  0  0  0  0  0  0  0
    6.4022  -14.1418   25.6098 C   0  0  0  0  0  0  0  0  0  0  0  0
    6.2055  -12.9513   26.2954 C   0  0  0  0  0  0  0  0  0  0  0  0
    6.6206  -11.7825   25.7012 C   0  0  0  0  0  0  0  0  0  0  0  0
    7.2124  -11.7844   24.4664 C   0  0  0  0  0  0  0  0  0  0  0  0
    7.4115  -12.9637   23.7791 C   0  0  0  0  0  0  0  0  0  0  0  0
    7.0088  -14.1589   24.3456 C   0  0  0  0  0  0  0  0  0  0  0  0
    9.6000  -17.0376   23.7500 C   0  0  0  0  0  0  0  0  0  0  0  0
    9.5814  -18.2921   23.6778 O   0  0  0  0  0  0  0  0  0  0  0  0
   10.0967  -16.4432   24.9424 N   0  0  0  0  0  0  0  0  0  0  0  0
   10.9411  -17.2399   25.8186 C   0  0  1  0  0  0  0  0  0  0  0  0
   11.8019  -16.2832   26.6072 C   0  0  0  0  0  0  0  0  0  0  0  0
   11.0386  -15.3783   27.4927 C   0  0  0  0  0  0  0  0  0  0  0  0
   10.5550  -14.1599   27.0703 C   0  0  0  0  0  0  0  0  0  0  0  0
    9.8406  -13.3220   27.8903 C   0  0  0  0  0  0  0  0  0  0  0  0
    9.5921  -13.7089   29.1946 C   0  0  0  0  0  0  0  0  0  0  0  0
   10.0787  -14.9319   29.6164 C   0  0  0  0  0  0  0  0  0  0  0  0
   10.7968  -15.7783   28.7978 C   0  0  0  0  0  0  0  0  0  0  0  0
   10.1278  -18.0618   26.7467 C   0  0  0  0  0  0  0  0  0  0  0  0
    8.7461  -18.0445   26.7913 O   0  0  0  0  0  0  0  0  0  0  0  0
   10.7316  -18.8219   27.5450 O   0  0  0  0  0  0  0  0  0  0  0  0
  2  1  1  0
  2  3  2  0
  4  2  1  0
  5  7  1  0
  5  4  1  0
  5  6  1  6
  7  8  2  0
  9 10  1  0
  9  7  1  0
 10 11  1  6
 11 12  1  0
 12 20  1  0
 13 14  1  0
 13 12  2  0
 14 15  1  0
 15 20  2  0
 15 16  1  0
 16 17  2  0
 17 18  1  0
 19 18  2  0
 20 19  1  0
 21 10  1  0
 22 21  2  0
 23 21  1  0
 24 25  1  1
 24 23  1  0
 25 26  1  0
 26 27  2  0
 27 28  1  0
 29 28  2  0
 30 29  1  0
 31 26  1  0
 31 30  2  0
 32 24  1  0
 32 33  1  0
 34 32  2  0
M  END
$$$$
