NWF.pdb
     RDKit          3D

 34 36  0  0  1  0  0  0  0  0999 V2000
   12.7768  -16.7083   16.2403 N   0  0  0  0  0  0  0  0  0  0  0  0
   11.5487  -17.0175   16.8928 C   0  0  0  0  0  0  0  0  0  0  0  0
   10.8565  -17.9536   16.4270 O   0  0  0  0  0  0  0  0  0  0  0  0
   11.0680  -16.2823   18.0851 C   0  0  0  0  0  0  0  0  0  0  0  0
   10.9661  -17.2199   19.2344 C   0  0  2  0  0  0  0  0  0  0  0  0
   10.1199  -18.3212   18.8990 N   0  0  0  0  0  0  0  0  0  0  0  0
   10.6192  -16.5723   20.5140 C   0  0  0  0  0  0  0  0  0  0  0  0
   11.3167  -15.5891   20.8913 O   0  0  0  0  0  0  0  0  0  0  0  0
    9.5623  -16.9671   21.3568 N   0  0  0  0  0  0  0  0  0  0  0  0
    9.2085  -16.2809   22.5891 C   0  0  1  0  0  0  0  0  0  0  0  0
    7.7510  -16.1247   22.7691 C   0  0  0  0  0  0  0  0  0  0  0  0
    7.3039  -15.4565   24.0052 C   0  0  0  0  0  0  0  0  0  0  0  0
    6.5984  -16.1334   25.0339 C   0  0  0  0  0  0  0  0  0  0  0  0
    6.3751  -15.2842   26.0398 N   0  0  0  0  0  0  0  0  0  0  0  0
    6.8802  -14.0751   25.7643 C   0  0  0  0  0  0  0  0  0  0  0  0
    6.9021  -12.8758   26.4624 C   0  0  0  0  0  0  0  0  0  0  0  0
    7.5075  -11.7910   25.8724 C   0  0  0  0  0  0  0  0  0  0  0  0
    8.0754  -11.8829   24.6298 C   0  0  0  0  0  0  0  0  0  0  0  0
    8.0579  -13.0716   23.9301 C   0  0  0  0  0  0  0  0  0  0  0  0
    7.4597  -14.1843   24.4919 C   0  0  0  0  0  0  0  0  0  0  0  0
    9.8606  -16.9115   23.7348 C   0  0  0  0  0  0  0  0  0  0  0  0
    9.6404  -18.1206   23.9976 O   0  0  0  0  0  0  0  0  0  0  0  0
   10.7519  -16.1946   24.5795 N   0  0  0  0  0  0  0  0  0  0  0  0
   11.2721  -16.8567   25.7654 C   0  0  1  0  0  0  0  0  0  0  0  0
   10.1044  -17.1155   26.6861 C   0  0  0  0  0  0  0  0  0  0  0  0
    9.6296  -15.9150   27.4064 C   0  0  0  0  0  0  0  0  0  0  0  0
    8.7087  -15.0429   26.8697 C   0  0  0  0  0  0  0  0  0  0  0  0
    8.2626  -13.9313   27.5409 C   0  0  0  0  0  0  0  0  0  0  0  0
    8.7525  -13.6691   28.8073 C   0  0  0  0  0  0  0  0  0  0  0  0
    9.6768  -14.5457   29.3438 C   0  0  0  0  0  0  0  0  0  0  0  0
   10.1290  -15.6639   28.6751 C   0  0  0  0  0  0  0  0  0  0  0  0
   11.9296  -18.1398   25.4194 C   0  0  0  0  0  0  0  0  0  0  0  0
   12.6638  -18.9008   26.3100 O   0  0  0  0  0  0  0  0  0  0  0  0
   11.8141  -18.5631   24.2415 O   0  0  0  0  0  0  0  0  0  0  0  0
  2  1  1  0
  2  3  2  0
  4  2  1  0
  5  7  1  0
  5  4  1  0
  5  6  1  6
  7  8  2  0
  9 10  1  0
  9  7  1  0
 10 11  1  1
 11 12  1  0
 12 20  1  0
 13 14  1  0
 13 12  2  0
 14 15  1  0
 15 20  2  0
 15 16  1  0
 16 17  2  0
 17 18  1  0
 19 18  2  0
 20 19  1  0
 21 10  1  0
 22 21  2  0
 23 21  1  0
 24 25  1  1
 24 23  1  0
 25 26  1  0
 26 27  2  0
 27 28  1  0
 29 28  2  0
 30 29  1  0
 31 26  1  0
 31 30  2  0
 32 24  1  0
 32 33  1  0
 34 32  2  0
M  END
$$$$
