NWF.pdb
     RDKit          3D

 34 36  0  0  1  0  0  0  0  0999 V2000
   10.7989  -19.5291   17.8409 N   0  0  0  0  0  0  0  0  0  0  0  0
   11.2442  -19.1567   19.1421 C   0  0  0  0  0  0  0  0  0  0  0  0
   11.9599  -19.9709   19.7724 O   0  0  0  0  0  0  0  0  0  0  0  0
   10.8961  -17.8600   19.7670 C   0  0  0  0  0  0  0  0  0  0  0  0
   10.7834  -18.0367   21.2389 C   0  0  2  0  0  0  0  0  0  0  0  0
    9.8625  -19.0868   21.5405 N   0  0  0  0  0  0  0  0  0  0  0  0
   10.5233  -16.7875   21.9796 C   0  0  0  0  0  0  0  0  0  0  0  0
   11.3082  -15.8145   21.7989 O   0  0  0  0  0  0  0  0  0  0  0  0
    9.4594  -16.5915   22.8812 N   0  0  0  0  0  0  0  0  0  0  0  0
    9.1407  -15.3114   23.4931 C   0  0  1  0  0  0  0  0  0  0  0  0
    7.7504  -14.8793   23.2453 C   0  0  0  0  0  0  0  0  0  0  0  0
    7.3186  -14.8112   21.8370 C   0  0  0  0  0  0  0  0  0  0  0  0
    6.4336  -15.7570   21.2569 C   0  0  0  0  0  0  0  0  0  0  0  0
    6.1912  -15.4069   19.9915 N   0  0  0  0  0  0  0  0  0  0  0  0
    6.8524  -14.2873   19.6713 C   0  0  0  0  0  0  0  0  0  0  0  0
    6.9398  -13.5390   18.5059 C   0  0  0  0  0  0  0  0  0  0  0  0
    7.7398  -12.4203   18.5099 C   0  0  0  0  0  0  0  0  0  0  0  0
    8.4352  -12.0481   19.6293 C   0  0  0  0  0  0  0  0  0  0  0  0
    8.3530  -12.7867   20.7913 C   0  0  0  0  0  0  0  0  0  0  0  0
    7.5573  -13.9169   20.8257 C   0  0  0  0  0  0  0  0  0  0  0  0
    9.4923  -15.3171   24.9115 C   0  0  0  0  0  0  0  0  0  0  0  0
    9.4741  -14.2463   25.5690 O   0  0  0  0  0  0  0  0  0  0  0  0
    9.8615  -16.5118   25.5884 N   0  0  0  0  0  0  0  0  0  0  0  0
   10.0946  -16.4562   27.0229 C   0  0  1  0  0  0  0  0  0  0  0  0
    8.7875  -16.0809   27.6778 C   0  0  0  0  0  0  0  0  0  0  0  0
    8.3925  -14.6720   27.4671 C   0  0  0  0  0  0  0  0  0  0  0  0
    9.2335  -13.6163   27.7407 C   0  0  0  0  0  0  0  0  0  0  0  0
    8.8695  -12.3079   27.5391 C   0  0  0  0  0  0  0  0  0  0  0  0
    7.6093  -12.0298   27.0419 C   0  0  0  0  0  0  0  0  0  0  0  0
    6.7670  -13.0909   26.7683 C   0  0  0  0  0  0  0  0  0  0  0  0
    7.1264  -14.4073   26.9683 C   0  0  0  0  0  0  0  0  0  0  0  0
   10.5566  -17.7655   27.5433 C   0  0  0  0  0  0  0  0  0  0  0  0
   11.0105  -17.9719   28.8327 O   0  0  0  0  0  0  0  0  0  0  0  0
   10.5360  -18.7508   26.7632 O   0  0  0  0  0  0  0  0  0  0  0  0
  2  1  1  0
  2  3  2  0
  4  2  1  0
  5  7  1  0
  5  4  1  0
  5  6  1  6
  7  8  2  0
  9 10  1  0
  9  7  1  0
 10 11  1  1
 11 12  1  0
 12 20  1  0
 13 14  1  0
 13 12  2  0
 14 15  1  0
 15 20  2  0
 15 16  1  0
 16 17  2  0
 17 18  1  0
 19 18  2  0
 20 19  1  0
 21 10  1  0
 22 21  2  0
 23 21  1  0
 24 25  1  1
 24 23  1  0
 25 26  1  0
 26 27  2  0
 27 28  1  0
 29 28  2  0
 30 29  1  0
 31 26  1  0
 31 30  2  0
 32 24  1  0
 32 33  1  0
 34 32  2  0
M  END
$$$$
