NWF.pdb
     RDKit          3D

 34 36  0  0  1  0  0  0  0  0999 V2000
   13.0738  -18.5606   17.5909 N   0  0  0  0  0  0  0  0  0  0  0  0
   12.2555  -17.4102   17.3990 C   0  0  0  0  0  0  0  0  0  0  0  0
   12.3300  -16.8144   16.2982 O   0  0  0  0  0  0  0  0  0  0  0  0
   11.3330  -16.9011   18.4397 C   0  0  0  0  0  0  0  0  0  0  0  0
   11.4662  -17.7318   19.6655 C   0  0  2  0  0  0  0  0  0  0  0  0
   10.8018  -18.9841   19.4872 N   0  0  0  0  0  0  0  0  0  0  0  0
   11.0949  -17.0344   20.9116 C   0  0  0  0  0  0  0  0  0  0  0  0
   11.6670  -15.9391   21.1733 O   0  0  0  0  0  0  0  0  0  0  0  0
   10.1444  -17.4974   21.8420 N   0  0  0  0  0  0  0  0  0  0  0  0
    9.7646  -16.7703   23.0428 C   0  0  1  0  0  0  0  0  0  0  0  0
    8.3029  -16.7006   23.2416 C   0  0  0  0  0  0  0  0  0  0  0  0
    7.5353  -15.9267   22.2485 C   0  0  0  0  0  0  0  0  0  0  0  0
    6.2895  -16.3641   21.7280 C   0  0  0  0  0  0  0  0  0  0  0  0
    5.8168  -15.4356   20.8930 N   0  0  0  0  0  0  0  0  0  0  0  0
    6.6574  -14.3966   20.8097 C   0  0  0  0  0  0  0  0  0  0  0  0
    6.6298  -13.2109   20.0890 C   0  0  0  0  0  0  0  0  0  0  0  0
    7.6875  -12.3425   20.2251 C   0  0  0  0  0  0  0  0  0  0  0  0
    8.7436  -12.6324   21.0471 C   0  0  0  0  0  0  0  0  0  0  0  0
    8.7778  -13.8087   21.7668 C   0  0  0  0  0  0  0  0  0  0  0  0
    7.7314  -14.7056   21.6568 C   0  0  0  0  0  0  0  0  0  0  0  0
   10.4746  -17.2941   24.2077 C   0  0  0  0  0  0  0  0  0  0  0  0
   10.8688  -18.4873   24.2208 O   0  0  0  0  0  0  0  0  0  0  0  0
   10.7412  -16.4887   25.3489 N   0  0  0  0  0  0  0  0  0  0  0  0
   11.4501  -17.0833   26.4711 C   0  0  1  0  0  0  0  0  0  0  0  0
   12.1260  -15.9623   27.2224 C   0  0  0  0  0  0  0  0  0  0  0  0
   11.2065  -14.8885   27.6547 C   0  0  0  0  0  0  0  0  0  0  0  0
   10.8978  -14.6633   28.9779 C   0  0  0  0  0  0  0  0  0  0  0  0
   10.0489  -13.6622   29.3804 C   0  0  0  0  0  0  0  0  0  0  0  0
    9.4761  -12.8421   28.4254 C   0  0  0  0  0  0  0  0  0  0  0  0
    9.7871  -13.0701   27.0982 C   0  0  0  0  0  0  0  0  0  0  0  0
   10.6391  -14.0738   26.6871 C   0  0  0  0  0  0  0  0  0  0  0  0
   10.5194  -17.8009   27.3750 C   0  0  0  0  0  0  0  0  0  0  0  0
    9.1489  -17.8489   27.1992 O   0  0  0  0  0  0  0  0  0  0  0  0
   11.0057  -18.4033   28.3652 O   0  0  0  0  0  0  0  0  0  0  0  0
  2  1  1  0
  2  3  2  0
  4  2  1  0
  5  7  1  0
  5  4  1  0
  5  6  1  6
  7  8  2  0
  9 10  1  0
  9  7  1  0
 10 11  1  1
 11 12  1  0
 12 20  1  0
 13 14  1  0
 13 12  2  0
 14 15  1  0
 15 20  2  0
 15 16  1  0
 16 17  2  0
 17 18  1  0
 19 18  2  0
 20 19  1  0
 21 10  1  0
 22 21  2  0
 23 21  1  0
 24 25  1  1
 24 23  1  0
 25 26  1  0
 26 27  2  0
 27 28  1  0
 29 28  2  0
 30 29  1  0
 31 26  1  0
 31 30  2  0
 32 24  1  0
 32 33  1  0
 34 32  2  0
M  END
$$$$
