NWF.pdb
     RDKit          3D

 34 36  0  0  1  0  0  0  0  0999 V2000
   13.7405  -16.1160   17.4153 N   0  0  0  0  0  0  0  0  0  0  0  0
   12.4144  -16.6181   17.5540 C   0  0  0  0  0  0  0  0  0  0  0  0
   12.0503  -17.5346   16.7795 O   0  0  0  0  0  0  0  0  0  0  0  0
   11.4647  -16.1025   18.5666 C   0  0  0  0  0  0  0  0  0  0  0  0
   11.1943  -17.1624   19.5734 C   0  0  2  0  0  0  0  0  0  0  0  0
   10.3394  -18.1636   19.0182 N   0  0  0  0  0  0  0  0  0  0  0  0
   10.7403  -16.6522   20.8813 C   0  0  0  0  0  0  0  0  0  0  0  0
   11.4957  -15.8529   21.5027 O   0  0  0  0  0  0  0  0  0  0  0  0
    9.5200  -16.9888   21.4985 N   0  0  0  0  0  0  0  0  0  0  0  0
    9.1203  -16.5177   22.8149 C   0  0  1  0  0  0  0  0  0  0  0  0
    7.6577  -16.5344   23.0184 C   0  0  0  0  0  0  0  0  0  0  0  0
    7.1458  -15.8258   24.2059 C   0  0  0  0  0  0  0  0  0  0  0  0
    6.5817  -16.4996   25.3204 C   0  0  0  0  0  0  0  0  0  0  0  0
    6.2565  -15.6012   26.2530 N   0  0  0  0  0  0  0  0  0  0  0  0
    6.5605  -14.3616   25.8479 C   0  0  0  0  0  0  0  0  0  0  0  0
    6.4150  -13.1113   26.4322 C   0  0  0  0  0  0  0  0  0  0  0  0
    6.8287  -12.0092   25.7213 C   0  0  0  0  0  0  0  0  0  0  0  0
    7.3703  -12.1331   24.4697 C   0  0  0  0  0  0  0  0  0  0  0  0
    7.5185  -13.3725   23.8826 C   0  0  0  0  0  0  0  0  0  0  0  0
    7.1154  -14.5038   24.5678 C   0  0  0  0  0  0  0  0  0  0  0  0
    9.8501  -17.2317   23.8604 C   0  0  0  0  0  0  0  0  0  0  0  0
   10.0039  -18.4766   23.7829 O   0  0  0  0  0  0  0  0  0  0  0  0
   10.4031  -16.5578   24.9837 N   0  0  0  0  0  0  0  0  0  0  0  0
   11.2545  -17.3058   25.8953 C   0  0  1  0  0  0  0  0  0  0  0  0
   12.0716  -16.3036   26.6738 C   0  0  0  0  0  0  0  0  0  0  0  0
   11.2665  -15.4088   27.5320 C   0  0  0  0  0  0  0  0  0  0  0  0
   10.9834  -15.6992   28.8482 C   0  0  0  0  0  0  0  0  0  0  0  0
   10.2412  -14.8655   29.6475 C   0  0  0  0  0  0  0  0  0  0  0  0
    9.7540  -13.6845   29.1178 C   0  0  0  0  0  0  0  0  0  0  0  0
   10.0392  -13.3953   27.7967 C   0  0  0  0  0  0  0  0  0  0  0  0
   10.7842  -14.2283   26.9884 C   0  0  0  0  0  0  0  0  0  0  0  0
   10.4492  -18.1280   26.8299 C   0  0  0  0  0  0  0  0  0  0  0  0
    9.0674  -18.1233   26.8749 O   0  0  0  0  0  0  0  0  0  0  0  0
   11.0602  -18.8764   27.6339 O   0  0  0  0  0  0  0  0  0  0  0  0
  2  1  1  0
  2  3  2  0
  4  2  1  0
  5  7  1  0
  5  4  1  0
  5  6  1  6
  7  8  2  0
  9 10  1  0
  9  7  1  0
 10 11  1  1
 11 12  1  0
 12 20  1  0
 13 14  1  0
 13 12  2  0
 14 15  1  0
 15 20  2  0
 15 16  1  0
 16 17  2  0
 17 18  1  0
 19 18  2  0
 20 19  1  0
 21 10  1  0
 22 21  2  0
 23 21  1  0
 24 25  1  1
 24 23  1  0
 25 26  1  0
 26 27  2  0
 27 28  1  0
 29 28  2  0
 30 29  1  0
 31 26  1  0
 31 30  2  0
 32 24  1  0
 32 33  1  0
 34 32  2  0
M  END
$$$$
