NWF.pdb
     RDKit          3D

 34 36  0  0  1  0  0  0  0  0999 V2000
   12.1808  -19.2088   17.2987 N   0  0  0  0  0  0  0  0  0  0  0  0
   12.2797  -17.7898   17.3783 C   0  0  0  0  0  0  0  0  0  0  0  0
   12.6481  -17.1691   16.3529 O   0  0  0  0  0  0  0  0  0  0  0  0
   11.9669  -17.0332   18.6123 C   0  0  0  0  0  0  0  0  0  0  0  0
   10.6963  -17.5414   19.1933 C   0  0  2  0  0  0  0  0  0  0  0  0
    9.6492  -17.4752   18.2234 N   0  0  0  0  0  0  0  0  0  0  0  0
   10.3417  -16.9383   20.4923 C   0  0  0  0  0  0  0  0  0  0  0  0
   11.1339  -16.0896   20.9901 O   0  0  0  0  0  0  0  0  0  0  0  0
    9.1792  -17.2366   21.2292 N   0  0  0  0  0  0  0  0  0  0  0  0
    8.8500  -16.6251   22.5068 C   0  0  1  0  0  0  0  0  0  0  0  0
    7.4020  -16.6295   22.7970 C   0  0  0  0  0  0  0  0  0  0  0  0
    6.9624  -15.8777   23.9869 C   0  0  0  0  0  0  0  0  0  0  0  0
    6.4244  -16.5072   25.1394 C   0  0  0  0  0  0  0  0  0  0  0  0
    6.1665  -15.5776   26.0625 N   0  0  0  0  0  0  0  0  0  0  0  0
    6.4919  -14.3581   25.6153 C   0  0  0  0  0  0  0  0  0  0  0  0
    6.4100  -13.0907   26.1745 C   0  0  0  0  0  0  0  0  0  0  0  0
    6.8280  -12.0190   25.4207 C   0  0  0  0  0  0  0  0  0  0  0  0
    7.3129  -12.1891   24.1515 C   0  0  0  0  0  0  0  0  0  0  0  0
    7.3977  -13.4458   23.5891 C   0  0  0  0  0  0  0  0  0  0  0  0
    6.9884  -14.5474   24.3174 C   0  0  0  0  0  0  0  0  0  0  0  0
    9.6489  -17.2132   23.5799 C   0  0  0  0  0  0  0  0  0  0  0  0
    9.8265  -18.4566   23.6236 O   0  0  0  0  0  0  0  0  0  0  0  0
   10.2439  -16.4162   24.5960 N   0  0  0  0  0  0  0  0  0  0  0  0
   11.1366  -17.0555   25.5497 C   0  0  1  0  0  0  0  0  0  0  0  0
   11.9395  -15.9652   26.2166 C   0  0  0  0  0  0  0  0  0  0  0  0
   11.1627  -15.1437   27.1690 C   0  0  0  0  0  0  0  0  0  0  0  0
   10.9857  -15.5027   28.4868 C   0  0  0  0  0  0  0  0  0  0  0  0
   10.2697  -14.7369   29.3733 C   0  0  0  0  0  0  0  0  0  0  0  0
    9.6996  -13.5560   28.9338 C   0  0  0  0  0  0  0  0  0  0  0  0
    9.8784  -13.1979   27.6109 C   0  0  0  0  0  0  0  0  0  0  0  0
   10.5964  -13.9624   26.7153 C   0  0  0  0  0  0  0  0  0  0  0  0
   10.3764  -17.8132   26.5726 C   0  0  0  0  0  0  0  0  0  0  0  0
   10.9494  -18.6933   27.4718 O   0  0  0  0  0  0  0  0  0  0  0  0
    9.1317  -17.6467   26.6260 O   0  0  0  0  0  0  0  0  0  0  0  0
  2  1  1  0
  2  3  2  0
  4  2  1  0
  5  7  1  0
  5  4  1  0
  5  6  1  6
  7  8  2  0
  9 10  1  0
  9  7  1  0
 10 11  1  1
 11 12  1  0
 12 20  1  0
 13 14  1  0
 13 12  2  0
 14 15  1  0
 15 20  2  0
 15 16  1  0
 16 17  2  0
 17 18  1  0
 19 18  2  0
 20 19  1  0
 21 10  1  0
 22 21  2  0
 23 21  1  0
 24 25  1  1
 24 23  1  0
 25 26  1  0
 26 27  2  0
 27 28  1  0
 29 28  2  0
 30 29  1  0
 31 26  1  0
 31 30  2  0
 32 24  1  0
 32 33  1  0
 34 32  2  0
M  END
$$$$
