NWF.pdb
     RDKit          3D

 34 36  0  0  1  0  0  0  0  0999 V2000
   12.6254  -18.5336   17.1305 N   0  0  0  0  0  0  0  0  0  0  0  0
   11.9118  -17.3239   16.8914 C   0  0  0  0  0  0  0  0  0  0  0  0
   11.7860  -16.9422   15.7036 O   0  0  0  0  0  0  0  0  0  0  0  0
   11.3218  -16.5134   17.9813 C   0  0  0  0  0  0  0  0  0  0  0  0
   10.8655  -17.4133   19.0733 C   0  0  2  0  0  0  0  0  0  0  0  0
    9.8796  -18.3237   18.5826 N   0  0  0  0  0  0  0  0  0  0  0  0
   10.4640  -16.7112   20.3073 C   0  0  0  0  0  0  0  0  0  0  0  0
   11.3165  -15.9722   20.8753 O   0  0  0  0  0  0  0  0  0  0  0  0
    9.1936  -16.8004   20.9086 N   0  0  0  0  0  0  0  0  0  0  0  0
    8.8404  -16.1456   22.1580 C   0  0  1  0  0  0  0  0  0  0  0  0
    7.4789  -16.4785   22.6236 C   0  0  0  0  0  0  0  0  0  0  0  0
    7.0114  -15.7975   23.8450 C   0  0  0  0  0  0  0  0  0  0  0  0
    6.3991  -16.4868   24.9240 C   0  0  0  0  0  0  0  0  0  0  0  0
    6.1315  -15.6165   25.9005 N   0  0  0  0  0  0  0  0  0  0  0  0
    6.5195  -14.3814   25.5582 C   0  0  0  0  0  0  0  0  0  0  0  0
    6.4561  -13.1550   26.2046 C   0  0  0  0  0  0  0  0  0  0  0  0
    6.9455  -12.0489   25.5501 C   0  0  0  0  0  0  0  0  0  0  0  0
    7.4823  -12.1461   24.2941 C   0  0  0  0  0  0  0  0  0  0  0  0
    7.5491  -13.3617   23.6455 C   0  0  0  0  0  0  0  0  0  0  0  0
    7.0684  -14.4962   24.2728 C   0  0  0  0  0  0  0  0  0  0  0  0
    9.8648  -16.3853   23.1722 C   0  0  0  0  0  0  0  0  0  0  0  0
   10.9966  -15.8501   23.0626 O   0  0  0  0  0  0  0  0  0  0  0  0
    9.6245  -17.2175   24.2999 N   0  0  0  0  0  0  0  0  0  0  0  0
   10.2335  -16.8607   25.5715 C   0  0  1  0  0  0  0  0  0  0  0  0
    9.6760  -15.5181   25.9775 C   0  0  0  0  0  0  0  0  0  0  0  0
   10.2787  -14.9645   27.2086 C   0  0  0  0  0  0  0  0  0  0  0  0
   10.1458  -13.6423   27.5707 C   0  0  0  0  0  0  0  0  0  0  0  0
   10.7000  -13.1291   28.7172 C   0  0  0  0  0  0  0  0  0  0  0  0
   11.4225  -13.9662   29.5477 C   0  0  0  0  0  0  0  0  0  0  0  0
   11.5547  -15.2926   29.1821 C   0  0  0  0  0  0  0  0  0  0  0  0
   11.0006  -15.8146   28.0321 C   0  0  0  0  0  0  0  0  0  0  0  0
    9.9248  -17.8667   26.6160 C   0  0  0  0  0  0  0  0  0  0  0  0
    8.9966  -18.8804   26.4672 O   0  0  0  0  0  0  0  0  0  0  0  0
   10.5446  -17.7936   27.7070 O   0  0  0  0  0  0  0  0  0  0  0  0
  2  1  1  0
  2  3  2  0
  4  2  1  0
  5  7  1  0
  5  4  1  0
  5  6  1  6
  7  8  2  0
  9 10  1  0
  9  7  1  0
 10 11  1  1
 11 12  1  0
 12 20  1  0
 13 14  1  0
 13 12  2  0
 14 15  1  0
 15 20  2  0
 15 16  1  0
 16 17  2  0
 17 18  1  0
 19 18  2  0
 20 19  1  0
 21 10  1  0
 22 21  2  0
 23 21  1  0
 24 25  1  1
 24 23  1  0
 25 26  1  0
 26 27  2  0
 27 28  1  0
 29 28  2  0
 30 29  1  0
 31 26  1  0
 31 30  2  0
 32 24  1  0
 32 33  1  0
 34 32  2  0
M  END
$$$$
