NWF.pdb
     RDKit          3D

 34 36  0  0  1  0  0  0  0  0999 V2000
   11.2785  -16.1289   16.2647 N   0  0  0  0  0  0  0  0  0  0  0  0
   10.0405  -16.4996   16.8644 C   0  0  0  0  0  0  0  0  0  0  0  0
    9.2936  -17.2833   16.2316 O   0  0  0  0  0  0  0  0  0  0  0  0
    9.6112  -15.9987   18.1903 C   0  0  0  0  0  0  0  0  0  0  0  0
    9.9229  -17.0180   19.2268 C   0  0  2  0  0  0  0  0  0  0  0  0
    9.2131  -18.2284   18.9574 N   0  0  0  0  0  0  0  0  0  0  0  0
    9.7712  -16.5364   20.6131 C   0  0  0  0  0  0  0  0  0  0  0  0
   10.3876  -15.4861   20.9487 O   0  0  0  0  0  0  0  0  0  0  0  0
    8.9867  -17.1606   21.6022 N   0  0  0  0  0  0  0  0  0  0  0  0
    8.8828  -16.6869   22.9731 C   0  0  1  0  0  0  0  0  0  0  0  0
    7.6207  -17.0822   23.6301 C   0  0  0  0  0  0  0  0  0  0  0  0
    6.9945  -16.0842   24.5168 C   0  0  0  0  0  0  0  0  0  0  0  0
    6.0600  -16.4312   25.5271 C   0  0  0  0  0  0  0  0  0  0  0  0
    5.7095  -15.3282   26.1929 N   0  0  0  0  0  0  0  0  0  0  0  0
    6.3417  -14.2542   25.7030 C   0  0  0  0  0  0  0  0  0  0  0  0
    6.3146  -12.9064   26.0328 C   0  0  0  0  0  0  0  0  0  0  0  0
    7.0961  -12.0423   25.3020 C   0  0  0  0  0  0  0  0  0  0  0  0
    7.8824  -12.4913   24.2748 C   0  0  0  0  0  0  0  0  0  0  0  0
    7.9148  -13.8294   23.9415 C   0  0  0  0  0  0  0  0  0  0  0  0
    7.1438  -14.7284   24.6549 C   0  0  0  0  0  0  0  0  0  0  0  0
   10.0681  -17.0654   23.7395 C   0  0  0  0  0  0  0  0  0  0  0  0
   10.6732  -18.1348   23.4759 O   0  0  0  0  0  0  0  0  0  0  0  0
   10.5718  -16.2535   24.7926 N   0  0  0  0  0  0  0  0  0  0  0  0
   11.6880  -16.7498   25.5820 C   0  0  1  0  0  0  0  0  0  0  0  0
   12.1621  -15.6143   26.4561 C   0  0  0  0  0  0  0  0  0  0  0  0
   11.1409  -15.1181   27.4029 C   0  0  0  0  0  0  0  0  0  0  0  0
   10.2600  -14.1088   27.0832 C   0  0  0  0  0  0  0  0  0  0  0  0
    9.3072  -13.6521   27.9599 C   0  0  0  0  0  0  0  0  0  0  0  0
    9.2217  -14.2225   29.2169 C   0  0  0  0  0  0  0  0  0  0  0  0
   10.1070  -15.2350   29.5355 C   0  0  0  0  0  0  0  0  0  0  0  0
   11.0662  -15.6986   28.6596 C   0  0  0  0  0  0  0  0  0  0  0  0
   11.2793  -17.8958   26.4293 C   0  0  0  0  0  0  0  0  0  0  0  0
   12.1630  -18.7075   27.1160 O   0  0  0  0  0  0  0  0  0  0  0  0
   10.0519  -18.1472   26.5294 O   0  0  0  0  0  0  0  0  0  0  0  0
  2  1  1  0
  2  3  2  0
  4  2  1  0
  5  7  1  0
  5  4  1  0
  5  6  1  6
  7  8  2  0
  9 10  1  0
  9  7  1  0
 10 11  1  1
 11 12  1  0
 12 20  1  0
 13 14  1  0
 13 12  2  0
 14 15  1  0
 15 20  2  0
 15 16  1  0
 16 17  2  0
 17 18  1  0
 19 18  2  0
 20 19  1  0
 21 10  1  0
 22 21  2  0
 23 21  1  0
 24 25  1  1
 24 23  1  0
 25 26  1  0
 26 27  2  0
 27 28  1  0
 29 28  2  0
 30 29  1  0
 31 26  1  0
 31 30  2  0
 32 24  1  0
 32 33  1  0
 34 32  2  0
M  END
$$$$
