NWF.pdb
     RDKit          3D

 34 36  0  0  1  0  0  0  0  0999 V2000
   12.0378  -18.6765   17.8995 N   0  0  0  0  0  0  0  0  0  0  0  0
   12.8066  -17.5696   18.3616 C   0  0  0  0  0  0  0  0  0  0  0  0
   13.7659  -17.1846   17.6517 O   0  0  0  0  0  0  0  0  0  0  0  0
   12.5163  -16.8680   19.6330 C   0  0  0  0  0  0  0  0  0  0  0  0
   11.1836  -17.2926   20.1371 C   0  0  2  0  0  0  0  0  0  0  0  0
   10.1640  -16.9251   19.2060 N   0  0  0  0  0  0  0  0  0  0  0  0
   10.9005  -16.8749   21.5236 C   0  0  0  0  0  0  0  0  0  0  0  0
   11.6404  -15.9918   22.0415 O   0  0  0  0  0  0  0  0  0  0  0  0
    9.8611  -17.3875   22.3237 N   0  0  0  0  0  0  0  0  0  0  0  0
    9.5388  -16.8891   23.6512 C   0  0  1  0  0  0  0  0  0  0  0  0
    8.0883  -16.7217   23.8725 C   0  0  0  0  0  0  0  0  0  0  0  0
    7.5468  -15.3593   23.7143 C   0  0  0  0  0  0  0  0  0  0  0  0
    7.2838  -14.7782   22.4465 C   0  0  0  0  0  0  0  0  0  0  0  0
    6.7561  -13.5648   22.6251 N   0  0  0  0  0  0  0  0  0  0  0  0
    6.6432  -13.2809   23.9289 C   0  0  0  0  0  0  0  0  0  0  0  0
    6.1757  -12.1721   24.6202 C   0  0  0  0  0  0  0  0  0  0  0  0
    6.2119  -12.2000   25.9947 C   0  0  0  0  0  0  0  0  0  0  0  0
    6.6949  -13.2883   26.6708 C   0  0  0  0  0  0  0  0  0  0  0  0
    7.1609  -14.3942   25.9906 C   0  0  0  0  0  0  0  0  0  0  0  0
    7.1387  -14.4032   24.6082 C   0  0  0  0  0  0  0  0  0  0  0  0
   10.1822  -17.7061   24.6779 C   0  0  0  0  0  0  0  0  0  0  0  0
   10.2508  -18.9532   24.5386 O   0  0  0  0  0  0  0  0  0  0  0  0
   10.7440  -17.1319   25.8512 N   0  0  0  0  0  0  0  0  0  0  0  0
   11.3548  -18.0128   26.8342 C   0  0  1  0  0  0  0  0  0  0  0  0
   12.2835  -17.1729   27.6769 C   0  0  0  0  0  0  0  0  0  0  0  0
   11.6546  -15.9564   28.2338 C   0  0  0  0  0  0  0  0  0  0  0  0
   11.5216  -14.7918   27.5107 C   0  0  0  0  0  0  0  0  0  0  0  0
   10.9318  -13.6639   28.0253 C   0  0  0  0  0  0  0  0  0  0  0  0
   10.4493  -13.6891   29.3211 C   0  0  0  0  0  0  0  0  0  0  0  0
   10.5841  -14.8589   30.0449 C   0  0  0  0  0  0  0  0  0  0  0  0
   11.1753  -15.9954   29.5340 C   0  0  0  0  0  0  0  0  0  0  0  0
   10.3299  -18.6454   27.6989 C   0  0  0  0  0  0  0  0  0  0  0  0
   10.5975  -19.6447   28.6161 O   0  0  0  0  0  0  0  0  0  0  0  0
    9.1418  -18.2499   27.5915 O   0  0  0  0  0  0  0  0  0  0  0  0
  2  1  1  0
  2  3  2  0
  4  2  1  0
  5  7  1  0
  5  4  1  0
  5  6  1  6
  7  8  2  0
  9 10  1  0
  9  7  1  0
 10 11  1  1
 11 12  1  0
 12 20  1  0
 13 14  1  0
 13 12  2  0
 14 15  1  0
 15 20  2  0
 15 16  1  0
 16 17  2  0
 17 18  1  0
 19 18  2  0
 20 19  1  0
 21 10  1  0
 22 21  2  0
 23 21  1  0
 24 25  1  1
 24 23  1  0
 25 26  1  0
 26 27  2  0
 27 28  1  0
 29 28  2  0
 30 29  1  0
 31 26  1  0
 31 30  2  0
 32 24  1  0
 32 33  1  0
 34 32  2  0
M  END
$$$$
