NWF.pdb
     RDKit          3D

 34 36  0  0  1  0  0  0  0  0999 V2000
   10.8798  -18.6208   16.8268 N   0  0  0  0  0  0  0  0  0  0  0  0
   10.8465  -17.1988   16.9072 C   0  0  0  0  0  0  0  0  0  0  0  0
   11.1811  -16.5459   15.8902 O   0  0  0  0  0  0  0  0  0  0  0  0
   10.4363  -16.4753   18.1325 C   0  0  0  0  0  0  0  0  0  0  0  0
   10.1880  -17.4546   19.2232 C   0  0  2  0  0  0  0  0  0  0  0  0
    9.1454  -18.3568   18.8482 N   0  0  0  0  0  0  0  0  0  0  0  0
    9.9951  -16.8433   20.5522 C   0  0  0  0  0  0  0  0  0  0  0  0
   10.8119  -15.9535   20.9217 O   0  0  0  0  0  0  0  0  0  0  0  0
    8.9630  -17.1764   21.4507 N   0  0  0  0  0  0  0  0  0  0  0  0
    8.8145  -16.5840   22.7703 C   0  0  1  0  0  0  0  0  0  0  0  0
    7.5056  -16.8701   23.3915 C   0  0  0  0  0  0  0  0  0  0  0  0
    6.9571  -15.8354   24.2876 C   0  0  0  0  0  0  0  0  0  0  0  0
    6.0477  -16.1294   25.3368 C   0  0  0  0  0  0  0  0  0  0  0  0
    5.7706  -15.0045   26.0003 N   0  0  0  0  0  0  0  0  0  0  0  0
    6.4293  -13.9648   25.4727 C   0  0  0  0  0  0  0  0  0  0  0  0
    6.4728  -12.6134   25.7851 C   0  0  0  0  0  0  0  0  0  0  0  0
    7.2623  -11.7928   25.0140 C   0  0  0  0  0  0  0  0  0  0  0  0
    7.9889  -12.2877   23.9641 C   0  0  0  0  0  0  0  0  0  0  0  0
    7.9511  -13.6298   23.6479 C   0  0  0  0  0  0  0  0  0  0  0  0
    7.1698  -14.4858   24.4018 C   0  0  0  0  0  0  0  0  0  0  0  0
    9.9432  -16.9439   23.6260 C   0  0  0  0  0  0  0  0  0  0  0  0
   10.5143  -18.0539   23.4810 O   0  0  0  0  0  0  0  0  0  0  0  0
   10.4285  -16.0685   24.6360 N   0  0  0  0  0  0  0  0  0  0  0  0
   11.6157  -16.4554   25.3817 C   0  0  1  0  0  0  0  0  0  0  0  0
   11.9732  -15.3036   26.2894 C   0  0  0  0  0  0  0  0  0  0  0  0
   11.0157  -15.0905   27.3954 C   0  0  0  0  0  0  0  0  0  0  0  0
   11.0676  -15.8064   28.5708 C   0  0  0  0  0  0  0  0  0  0  0  0
   10.1826  -15.6044   29.6008 C   0  0  0  0  0  0  0  0  0  0  0  0
    9.1958  -14.6456   29.4608 C   0  0  0  0  0  0  0  0  0  0  0  0
    9.1455  -13.9286   28.2803 C   0  0  0  0  0  0  0  0  0  0  0  0
   10.0314  -14.1264   27.2419 C   0  0  0  0  0  0  0  0  0  0  0  0
   11.3683  -17.6722   26.1920 C   0  0  0  0  0  0  0  0  0  0  0  0
   12.3559  -18.3794   26.8521 O   0  0  0  0  0  0  0  0  0  0  0  0
   10.1861  -18.0890   26.2845 O   0  0  0  0  0  0  0  0  0  0  0  0
  2  1  1  0
  2  3  2  0
  4  2  1  0
  5  7  1  0
  5  4  1  0
  5  6  1  6
  7  8  2  0
  9 10  1  0
  9  7  1  0
 10 11  1  1
 11 12  1  0
 12 20  1  0
 13 14  1  0
 13 12  2  0
 14 15  1  0
 15 20  2  0
 15 16  1  0
 16 17  2  0
 17 18  1  0
 19 18  2  0
 20 19  1  0
 21 10  1  0
 22 21  2  0
 23 21  1  0
 24 25  1  1
 24 23  1  0
 25 26  1  0
 26 27  2  0
 27 28  1  0
 29 28  2  0
 30 29  1  0
 31 26  1  0
 31 30  2  0
 32 24  1  0
 32 33  1  0
 34 32  2  0
M  END
$$$$
