DAC.pdb
     RDKit          3D

 20 19  0  0  1  0  0  0  0  0999 V2000
   17.8003  -11.8358  -16.8758 N   0  0  0  0  0  0  0  0  0  0  0  0
   17.3091  -10.9415  -15.8461 C   0  0  1  0  0  0  0  0  0  0  0  0
   17.7413  -11.5405  -14.5172 C   0  0  0  0  0  0  0  0  0  0  0  0
   16.9262  -12.7689  -14.3223 C   0  0  0  0  0  0  0  0  0  0  0  0
   15.6706  -12.6943  -14.3468 O   0  0  0  0  0  0  0  0  0  0  0  0
   17.8901   -9.6092  -16.0720 C   0  0  0  0  0  0  0  0  0  0  0  0
   19.1299   -9.4893  -16.2217 O   0  0  0  0  0  0  0  0  0  0  0  0
   17.4816  -14.0237  -14.1096 O   0  0  0  0  0  0  0  0  0  0  0  0
   16.4935   -6.1293  -16.4050 C   0  0  0  0  0  0  0  0  0  0  0  0
   17.6803   -7.0936  -16.3106 C   0  0  2  0  0  0  0  0  0  0  0  0
   17.1325   -8.4064  -16.1363 N   0  0  0  0  0  0  0  0  0  0  0  0
   18.4935   -6.6368  -15.1611 C   0  0  0  0  0  0  0  0  0  0  0  0
   18.2486   -6.8865  -13.9676 O   0  0  0  0  0  0  0  0  0  0  0  0
   19.6457   -5.8464  -15.4932 N   0  0  0  0  0  0  0  0  0  0  0  0
   20.5500   -5.3374  -14.5062 C   0  0  1  0  0  0  0  0  0  0  0  0
   21.9767   -5.7144  -14.9244 C   0  0  0  0  0  0  0  0  0  0  0  0
   23.2069   -4.9404  -13.8727 S   0  0  0  0  0  0  0  0  0  0  0  0
   20.4508   -3.8642  -14.4789 C   0  0  0  0  0  0  0  0  0  0  0  0
   20.5954   -3.1843  -13.2858 O   0  0  0  0  0  0  0  0  0  0  0  0
   20.2368   -3.2117  -15.5207 O   0  0  0  0  0  0  0  0  0  0  0  0
  2  1  1  6
  2  3  1  0
  4  5  2  0
  4  3  1  0
  6  2  1  0
  7  6  2  0
  8  4  1  0
 10  9  1  1
 10 12  1  0
 10 11  1  0
 11  6  1  0
 12 13  2  0
 14 15  1  0
 14 12  1  0
 15 16  1  6
 16 17  1  0
 18 15  1  0
 19 18  1  0
 20 18  2  0
M  END
$$$$
