DAC.pdb
     RDKit          3D

 20 19  0  0  1  0  0  0  0  0999 V2000
   18.6747  -12.8683  -16.8726 N   0  0  0  0  0  0  0  0  0  0  0  0
   17.9854  -11.6294  -16.5703 C   0  0  1  0  0  0  0  0  0  0  0  0
   17.5011  -11.7485  -15.1340 C   0  0  0  0  0  0  0  0  0  0  0  0
   16.3821  -12.7279  -15.1451 C   0  0  0  0  0  0  0  0  0  0  0  0
   15.4124  -12.5575  -15.9281 O   0  0  0  0  0  0  0  0  0  0  0  0
   18.9302  -10.5164  -16.7492 C   0  0  0  0  0  0  0  0  0  0  0  0
   20.0918  -10.6066  -16.2840 O   0  0  0  0  0  0  0  0  0  0  0  0
   16.3428  -13.8462  -14.3229 O   0  0  0  0  0  0  0  0  0  0  0  0
   18.8461   -7.2155  -18.5463 C   0  0  0  0  0  0  0  0  0  0  0  0
   19.4943   -8.1754  -17.5434 C   0  0  2  0  0  0  0  0  0  0  0  0
   18.6209   -9.3060  -17.4305 N   0  0  0  0  0  0  0  0  0  0  0  0
   19.6423   -7.4164  -16.2812 C   0  0  0  0  0  0  0  0  0  0  0  0
   18.7458   -7.2548  -15.4345 O   0  0  0  0  0  0  0  0  0  0  0  0
   20.9371   -6.8375  -16.0552 N   0  0  0  0  0  0  0  0  0  0  0  0
   21.2738   -6.1299  -14.8565 C   0  0  1  0  0  0  0  0  0  0  0  0
   22.6175   -6.6651  -14.3462 C   0  0  0  0  0  0  0  0  0  0  0  0
   22.4460   -8.2786  -13.5808 S   0  0  0  0  0  0  0  0  0  0  0  0
   21.4382   -4.6973  -15.1751 C   0  0  0  0  0  0  0  0  0  0  0  0
   21.4327   -3.7595  -14.1617 O   0  0  0  0  0  0  0  0  0  0  0  0
   21.5836   -4.3098  -16.3522 O   0  0  0  0  0  0  0  0  0  0  0  0
  2  1  1  1
  2  3  1  0
  4  5  2  0
  4  3  1  0
  6  2  1  0
  7  6  2  0
  8  4  1  0
 10  9  1  6
 10 12  1  0
 10 11  1  0
 11  6  1  0
 12 13  2  0
 14 15  1  0
 14 12  1  0
 15 16  1  6
 16 17  1  0
 18 15  1  0
 19 18  1  0
 20 18  2  0
M  END
$$$$
