DAC.pdb
     RDKit          3D

 20 19  0  0  1  0  0  0  0  0999 V2000
   18.3493  -15.5341  -16.9811 N   0  0  0  0  0  0  0  0  0  0  0  0
   17.7334  -14.2764  -16.6067 C   0  0  1  0  0  0  0  0  0  0  0  0
   17.3151  -14.4208  -15.1521 C   0  0  0  0  0  0  0  0  0  0  0  0
   16.1568  -15.3533  -15.1359 C   0  0  0  0  0  0  0  0  0  0  0  0
   15.2061  -15.1803  -15.9414 O   0  0  0  0  0  0  0  0  0  0  0  0
   18.7185  -13.2012  -16.7991 C   0  0  0  0  0  0  0  0  0  0  0  0
   19.8846  -13.3408  -16.3582 O   0  0  0  0  0  0  0  0  0  0  0  0
   16.0596  -16.4294  -14.2638 O   0  0  0  0  0  0  0  0  0  0  0  0
   18.7438   -9.8891  -18.5740 C   0  0  0  0  0  0  0  0  0  0  0  0
   19.3444  -10.8635  -17.5556 C   0  0  2  0  0  0  0  0  0  0  0  0
   18.4444  -11.9752  -17.4676 N   0  0  0  0  0  0  0  0  0  0  0  0
   19.4747  -10.1088  -16.2888 C   0  0  0  0  0  0  0  0  0  0  0  0
   18.5843   -9.9980  -15.4275 O   0  0  0  0  0  0  0  0  0  0  0  0
   20.7433   -9.4698  -16.0766 N   0  0  0  0  0  0  0  0  0  0  0  0
   21.0448   -8.7121  -14.8993 C   0  0  1  0  0  0  0  0  0  0  0  0
   22.5678   -8.5548  -14.8084 C   0  0  0  0  0  0  0  0  0  0  0  0
   23.3761  -10.1055  -14.4083 S   0  0  0  0  0  0  0  0  0  0  0  0
   20.4484   -7.3673  -15.0285 C   0  0  0  0  0  0  0  0  0  0  0  0
   20.2160   -6.6038  -13.9016 O   0  0  0  0  0  0  0  0  0  0  0  0
   20.1461   -6.8991  -16.1448 O   0  0  0  0  0  0  0  0  0  0  0  0
  2  1  1  1
  2  3  1  0
  4  5  2  0
  4  3  1  0
  6  2  1  0
  7  6  2  0
  8  4  1  0
 10  9  1  6
 10 12  1  0
 10 11  1  0
 11  6  1  0
 12 13  2  0
 14 15  1  0
 14 12  1  0
 15 16  1  6
 16 17  1  0
 18 15  1  0
 19 18  1  0
 20 18  2  0
M  END
$$$$
