DAC.pdb
     RDKit          3D

 20 19  0  0  1  0  0  0  0  0999 V2000
   16.8510   -9.8944  -15.3975 N   0  0  0  0  0  0  0  0  0  0  0  0
   17.4937   -9.9813  -14.1010 C   0  0  1  0  0  0  0  0  0  0  0  0
   18.8221   -9.2533  -14.2321 C   0  0  0  0  0  0  0  0  0  0  0  0
   19.7289  -10.1607  -14.9843 C   0  0  0  0  0  0  0  0  0  0  0  0
   19.4336  -11.3776  -15.1047 O   0  0  0  0  0  0  0  0  0  0  0  0
   16.6122   -9.3568  -13.1027 C   0  0  0  0  0  0  0  0  0  0  0  0
   16.2043   -8.1840  -13.2812 O   0  0  0  0  0  0  0  0  0  0  0  0
   20.9105   -9.7345  -15.5761 O   0  0  0  0  0  0  0  0  0  0  0  0
   14.8093  -10.5631  -10.0430 C   0  0  0  0  0  0  0  0  0  0  0  0
   15.2987   -9.4174  -10.9348 C   0  0  2  0  0  0  0  0  0  0  0  0
   16.1713   -9.9987  -11.9117 N   0  0  0  0  0  0  0  0  0  0  0  0
   15.9767   -8.4555  -10.0368 C   0  0  0  0  0  0  0  0  0  0  0  0
   17.0547   -8.6611   -9.4515 O   0  0  0  0  0  0  0  0  0  0  0  0
   15.3045   -7.1996   -9.8541 N   0  0  0  0  0  0  0  0  0  0  0  0
   15.8269   -6.1507   -9.0308 C   0  0  1  0  0  0  0  0  0  0  0  0
   16.3388   -5.0326   -9.9475 C   0  0  0  0  0  0  0  0  0  0  0  0
   16.8520   -3.5882   -9.0155 S   0  0  0  0  0  0  0  0  0  0  0  0
   14.7352   -5.6036   -8.2003 C   0  0  0  0  0  0  0  0  0  0  0  0
   15.0123   -5.0795   -6.9533 O   0  0  0  0  0  0  0  0  0  0  0  0
   13.5544   -5.6039   -8.6036 O   0  0  0  0  0  0  0  0  0  0  0  0
  2  1  1  6
  2  3  1  0
  4  5  2  0
  4  3  1  0
  6  2  1  0
  7  6  2  0
  8  4  1  0
 10  9  1  1
 10 12  1  0
 10 11  1  0
 11  6  1  0
 12 13  2  0
 14 15  1  0
 14 12  1  0
 15 16  1  6
 16 17  1  0
 18 15  1  0
 19 18  1  0
 20 18  2  0
M  END
$$$$
