DAC.pdb
     RDKit          3D

 20 19  0  0  1  0  0  0  0  0999 V2000
   15.3980  -12.7183  -13.6152 N   0  0  0  0  0  0  0  0  0  0  0  0
   16.4974  -11.8485  -13.2463 C   0  0  1  0  0  0  0  0  0  0  0  0
   17.2264  -11.5092  -14.5367 C   0  0  0  0  0  0  0  0  0  0  0  0
   17.7885  -12.7855  -15.0527 C   0  0  0  0  0  0  0  0  0  0  0  0
   17.7978  -13.0069  -16.2911 O   0  0  0  0  0  0  0  0  0  0  0  0
   15.9448  -10.6548  -12.5880 C   0  0  0  0  0  0  0  0  0  0  0  0
   16.0194   -9.5401  -13.1586 O   0  0  0  0  0  0  0  0  0  0  0  0
   18.3166  -13.7712  -14.2295 O   0  0  0  0  0  0  0  0  0  0  0  0
   13.8937  -10.0467   -9.5045 C   0  0  0  0  0  0  0  0  0  0  0  0
   14.7456   -9.5198  -10.6638 C   0  0  2  0  0  0  0  0  0  0  0  0
   15.3116  -10.6648  -11.3137 N   0  0  0  0  0  0  0  0  0  0  0  0
   15.7579   -8.6247  -10.0592 C   0  0  0  0  0  0  0  0  0  0  0  0
   16.7504   -9.0019   -9.4116 O   0  0  0  0  0  0  0  0  0  0  0  0
   15.5398   -7.2193  -10.2592 N   0  0  0  0  0  0  0  0  0  0  0  0
   16.3843   -6.2128   -9.6894 C   0  0  1  0  0  0  0  0  0  0  0  0
   16.9185   -5.3352  -10.8282 C   0  0  0  0  0  0  0  0  0  0  0  0
   17.6469   -6.3165  -12.1415 S   0  0  0  0  0  0  0  0  0  0  0  0
   15.5781   -5.3627   -8.7904 C   0  0  0  0  0  0  0  0  0  0  0  0
   16.1998   -4.4501   -7.9614 O   0  0  0  0  0  0  0  0  0  0  0  0
   14.3338   -5.4506   -8.7619 O   0  0  0  0  0  0  0  0  0  0  0  0
  2  1  1  6
  2  3  1  0
  4  5  2  0
  4  3  1  0
  6  2  1  0
  7  6  2  0
  8  4  1  0
 10  9  1  1
 10 12  1  0
 10 11  1  0
 11  6  1  0
 12 13  2  0
 14 15  1  0
 14 12  1  0
 15 16  1  6
 16 17  1  0
 18 15  1  0
 19 18  1  0
 20 18  2  0
M  END
$$$$
