DAC.pdb
     RDKit          3D

 20 19  0  0  1  0  0  0  0  0999 V2000
   17.1638  -11.9284  -16.6325 N   0  0  0  0  0  0  0  0  0  0  0  0
   16.6550  -11.0083  -15.6346 C   0  0  1  0  0  0  0  0  0  0  0  0
   16.8858  -11.6697  -14.2852 C   0  0  0  0  0  0  0  0  0  0  0  0
   15.9190  -12.7960  -14.1956 C   0  0  0  0  0  0  0  0  0  0  0  0
   14.6859  -12.5684  -14.2968 O   0  0  0  0  0  0  0  0  0  0  0  0
   17.3812   -9.7356  -15.7629 C   0  0  0  0  0  0  0  0  0  0  0  0
   18.6295   -9.7424  -15.8869 O   0  0  0  0  0  0  0  0  0  0  0  0
   16.3053  -14.1157  -14.0023 O   0  0  0  0  0  0  0  0  0  0  0  0
   16.3824   -6.1055  -15.7525 C   0  0  0  0  0  0  0  0  0  0  0  0
   17.4503   -7.2018  -15.8237 C   0  0  2  0  0  0  0  0  0  0  0  0
   16.7595   -8.4556  -15.7572 N   0  0  0  0  0  0  0  0  0  0  0  0
   18.3594   -6.9681  -14.6791 C   0  0  0  0  0  0  0  0  0  0  0  0
   18.1704   -7.3784  -13.5203 O   0  0  0  0  0  0  0  0  0  0  0  0
   19.5396   -6.2039  -14.9719 N   0  0  0  0  0  0  0  0  0  0  0  0
   20.5373   -5.9069  -13.9884 C   0  0  1  0  0  0  0  0  0  0  0  0
   21.5485   -7.0600  -13.9690 C   0  0  0  0  0  0  0  0  0  0  0  0
   22.9442   -6.7056  -12.8991 S   0  0  0  0  0  0  0  0  0  0  0  0
   21.2492   -4.6749  -14.3839 C   0  0  0  0  0  0  0  0  0  0  0  0
   21.8023   -3.8569  -13.4188 O   0  0  0  0  0  0  0  0  0  0  0  0
   21.3640   -4.3520  -15.5837 O   0  0  0  0  0  0  0  0  0  0  0  0
  2  1  1  6
  2  3  1  0
  4  5  2  0
  4  3  1  0
  6  2  1  0
  7  6  2  0
  8  4  1  0
 10  9  1  1
 10 12  1  0
 10 11  1  0
 11  6  1  0
 12 13  2  0
 14 15  1  0
 14 12  1  0
 15 16  1  6
 16 17  1  0
 18 15  1  0
 19 18  1  0
 20 18  2  0
M  END
$$$$
