DAC.pdb
     RDKit          3D

 20 19  0  0  1  0  0  0  0  0999 V2000
   16.5741  -12.9665  -12.9834 N   0  0  0  0  0  0  0  0  0  0  0  0
   15.9542  -11.7403  -13.4455 C   0  0  1  0  0  0  0  0  0  0  0  0
   14.4524  -11.9679  -13.3778 C   0  0  0  0  0  0  0  0  0  0  0  0
   14.1293  -12.9711  -14.4269 C   0  0  0  0  0  0  0  0  0  0  0  0
   14.4556  -12.7508  -15.6217 O   0  0  0  0  0  0  0  0  0  0  0  0
   16.3911  -10.6408  -12.5716 C   0  0  0  0  0  0  0  0  0  0  0  0
   15.9740  -10.5833  -11.3899 O   0  0  0  0  0  0  0  0  0  0  0  0
   13.4730  -14.1654  -14.1599 O   0  0  0  0  0  0  0  0  0  0  0  0
   18.6919   -7.6884  -12.9779 C   0  0  0  0  0  0  0  0  0  0  0  0
   17.7216   -8.5262  -12.1389 C   0  0  2  0  0  0  0  0  0  0  0  0
   17.2782   -9.6034  -12.9737 N   0  0  0  0  0  0  0  0  0  0  0  0
   16.6326   -7.6108  -11.7296 C   0  0  0  0  0  0  0  0  0  0  0  0
   15.6811   -7.2636  -12.4513 O   0  0  0  0  0  0  0  0  0  0  0  0
   16.7191   -7.1070  -10.3874 N   0  0  0  0  0  0  0  0  0  0  0  0
   15.7609   -6.1969   -9.8355 C   0  0  1  0  0  0  0  0  0  0  0  0
   14.7460   -7.0071   -9.0195 C   0  0  0  0  0  0  0  0  0  0  0  0
   15.5527   -8.1102   -7.8572 S   0  0  0  0  0  0  0  0  0  0  0  0
   16.4536   -5.2680   -8.9199 C   0  0  0  0  0  0  0  0  0  0  0  0
   15.7710   -4.1988   -8.3745 O   0  0  0  0  0  0  0  0  0  0  0  0
   17.6551   -5.4284   -8.6241 O   0  0  0  0  0  0  0  0  0  0  0  0
  2  1  1  1
  2  3  1  0
  4  5  2  0
  4  3  1  0
  6  2  1  0
  7  6  2  0
  8  4  1  0
 10  9  1  6
 10 12  1  0
 10 11  1  0
 11  6  1  0
 12 13  2  0
 14 15  1  0
 14 12  1  0
 15 16  1  1
 16 17  1  0
 18 15  1  0
 19 18  1  0
 20 18  2  0
M  END
$$$$
