DAC.pdb
     RDKit          3D

 20 19  0  0  1  0  0  0  0  0999 V2000
   19.4537  -11.3570  -17.3207 N   0  0  0  0  0  0  0  0  0  0  0  0
   18.5655  -10.6581  -16.4129 C   0  0  1  0  0  0  0  0  0  0  0  0
   18.6604  -11.3819  -15.0792 C   0  0  0  0  0  0  0  0  0  0  0  0
   17.9739  -12.6890  -15.2579 C   0  0  0  0  0  0  0  0  0  0  0  0
   16.7497  -12.7157  -15.5464 O   0  0  0  0  0  0  0  0  0  0  0  0
   19.0050   -9.2576  -16.3193 C   0  0  0  0  0  0  0  0  0  0  0  0
   20.2291   -8.9944  -16.2412 O   0  0  0  0  0  0  0  0  0  0  0  0
   18.6191  -13.9110  -15.1218 O   0  0  0  0  0  0  0  0  0  0  0  0
   17.2488   -5.9275  -16.2682 C   0  0  0  0  0  0  0  0  0  0  0  0
   18.5265   -6.7704  -16.2013 C   0  0  2  0  0  0  0  0  0  0  0  0
   18.1227   -8.1411  -16.3100 N   0  0  0  0  0  0  0  0  0  0  0  0
   19.1684   -6.4457  -14.9076 C   0  0  0  0  0  0  0  0  0  0  0  0
   18.8419   -6.9245  -13.8071 O   0  0  0  0  0  0  0  0  0  0  0  0
   20.2477   -5.5003  -14.9720 N   0  0  0  0  0  0  0  0  0  0  0  0
   21.0041   -5.1046  -13.8222 C   0  0  1  0  0  0  0  0  0  0  0  0
   22.0526   -6.1886  -13.5427 C   0  0  0  0  0  0  0  0  0  0  0  0
   23.2227   -6.3491  -14.8931 S   0  0  0  0  0  0  0  0  0  0  0  0
   21.7121   -3.8442  -14.1242 C   0  0  0  0  0  0  0  0  0  0  0  0
   22.4322   -3.2027  -13.1360 O   0  0  0  0  0  0  0  0  0  0  0  0
   21.6745   -3.3394  -15.2646 O   0  0  0  0  0  0  0  0  0  0  0  0
  2  1  1  6
  2  3  1  0
  4  5  2  0
  4  3  1  0
  6  2  1  0
  7  6  2  0
  8  4  1  0
 10  9  1  1
 10 12  1  0
 10 11  1  0
 11  6  1  0
 12 13  2  0
 14 15  1  0
 14 12  1  0
 15 16  1  6
 16 17  1  0
 18 15  1  0
 19 18  1  0
 20 18  2  0
M  END
$$$$
