DAC.pdb
     RDKit          3D

 20 19  0  0  1  0  0  0  0  0999 V2000
   17.4244  -12.0029  -17.1454 N   0  0  0  0  0  0  0  0  0  0  0  0
   17.2490  -11.0691  -16.0506 C   0  0  1  0  0  0  0  0  0  0  0  0
   17.5623  -11.8387  -14.7773 C   0  0  0  0  0  0  0  0  0  0  0  0
   16.4266  -12.7733  -14.5580 C   0  0  0  0  0  0  0  0  0  0  0  0
   15.2548  -12.4048  -14.8293 O   0  0  0  0  0  0  0  0  0  0  0  0
   18.1635   -9.9355  -16.2558 C   0  0  0  0  0  0  0  0  0  0  0  0
   19.3968  -10.1423  -16.3550 O   0  0  0  0  0  0  0  0  0  0  0  0
   16.5863  -14.0595  -14.0596 O   0  0  0  0  0  0  0  0  0  0  0  0
   17.7299   -6.2187  -16.6640 C   0  0  0  0  0  0  0  0  0  0  0  0
   18.6218   -7.4542  -16.5056 C   0  0  2  0  0  0  0  0  0  0  0  0
   17.7462   -8.5786  -16.3540 N   0  0  0  0  0  0  0  0  0  0  0  0
   19.4693   -7.2027  -15.3182 C   0  0  0  0  0  0  0  0  0  0  0  0
   19.0976   -7.3178  -14.1370 O   0  0  0  0  0  0  0  0  0  0  0  0
   20.8185   -6.7959  -15.5956 N   0  0  0  0  0  0  0  0  0  0  0  0
   21.8059   -6.6284  -14.5720 C   0  0  1  0  0  0  0  0  0  0  0  0
   23.1569   -7.0935  -15.1295 C   0  0  0  0  0  0  0  0  0  0  0  0
   23.2094   -8.8727  -15.3537 S   0  0  0  0  0  0  0  0  0  0  0  0
   21.9130   -5.1936  -14.2389 C   0  0  0  0  0  0  0  0  0  0  0  0
   22.4474   -4.8041  -13.0267 O   0  0  0  0  0  0  0  0  0  0  0  0
   21.5274   -4.3148  -15.0363 O   0  0  0  0  0  0  0  0  0  0  0  0
  2  1  1  6
  2  3  1  0
  4  5  2  0
  4  3  1  0
  6  2  1  0
  7  6  2  0
  8  4  1  0
 10  9  1  1
 10 12  1  0
 10 11  1  0
 11  6  1  0
 12 13  2  0
 14 15  1  0
 14 12  1  0
 15 16  1  6
 16 17  1  0
 18 15  1  0
 19 18  1  0
 20 18  2  0
M  END
$$$$
