DAC.pdb
     RDKit          3D

 20 19  0  0  1  0  0  0  0  0999 V2000
   14.9803  -10.9698  -11.7502 N   0  0  0  0  0  0  0  0  0  0  0  0
   16.0902  -10.1448  -11.3158 C   0  0  1  0  0  0  0  0  0  0  0  0
   16.9961   -9.9747  -12.5250 C   0  0  0  0  0  0  0  0  0  0  0  0
   17.5647  -11.3169  -12.8193 C   0  0  0  0  0  0  0  0  0  0  0  0
   18.2233  -11.4967  -13.8759 O   0  0  0  0  0  0  0  0  0  0  0  0
   15.5552   -8.8616  -10.8355 C   0  0  0  0  0  0  0  0  0  0  0  0
   14.8471   -8.1597  -11.5969 O   0  0  0  0  0  0  0  0  0  0  0  0
   17.4082  -12.4098  -11.9771 O   0  0  0  0  0  0  0  0  0  0  0  0
   15.6067   -7.0213   -7.5570 C   0  0  0  0  0  0  0  0  0  0  0  0
   15.3194   -7.0656   -9.0613 C   0  0  2  0  0  0  0  0  0  0  0  0
   15.7847   -8.3363   -9.5330 N   0  0  0  0  0  0  0  0  0  0  0  0
   16.0407   -5.9166   -9.6536 C   0  0  0  0  0  0  0  0  0  0  0  0
   17.2295   -5.9298  -10.0188 O   0  0  0  0  0  0  0  0  0  0  0  0
   15.2721   -4.7124   -9.8007 N   0  0  0  0  0  0  0  0  0  0  0  0
   15.8416   -3.4761  -10.2458 C   0  0  1  0  0  0  0  0  0  0  0  0
   15.3243   -3.1930  -11.6617 C   0  0  0  0  0  0  0  0  0  0  0  0
   15.7762   -1.5494  -12.2210 S   0  0  0  0  0  0  0  0  0  0  0  0
   15.3803   -2.3887   -9.3595 C   0  0  0  0  0  0  0  0  0  0  0  0
   16.2287   -1.3448   -9.0479 O   0  0  0  0  0  0  0  0  0  0  0  0
   14.2284   -2.3910   -8.8798 O   0  0  0  0  0  0  0  0  0  0  0  0
  2  1  1  6
  2  3  1  0
  4  5  2  0
  4  3  1  0
  6  2  1  0
  7  6  2  0
  8  4  1  0
 10  9  1  1
 10 12  1  0
 10 11  1  0
 11  6  1  0
 12 13  2  0
 14 15  1  0
 14 12  1  0
 15 16  1  6
 16 17  1  0
 18 15  1  0
 19 18  1  0
 20 18  2  0
M  END
$$$$
