QQY.pdb
     RDKit          3D

 31 31  0  0  1  0  0  0  0  0999 V2000
   18.8594  -23.5567    4.3251 N   0  0  0  0  0  0  0  0  0  0  0  0
   17.4693  -23.8492    4.1733 C   0  0  0  0  0  0  0  0  0  0  0  0
   17.1438  -25.0542    4.2127 O   0  0  0  0  0  0  0  0  0  0  0  0
   16.5023  -22.7686    3.9839 C   0  0  0  0  0  0  0  0  0  0  0  0
   17.0931  -21.3931    4.0151 C   0  0  0  0  0  0  0  0  0  0  0  0
   16.7203  -20.5683    5.1998 C   0  0  2  0  0  0  0  0  0  0  0  0
   15.2786  -20.3866    5.2012 N   0  0  0  0  0  0  0  0  0  0  0  0
   17.4154  -19.2357    5.1846 C   0  0  0  0  0  0  0  0  0  0  0  0
   18.6515  -19.2340    5.0626 O   0  0  0  0  0  0  0  0  0  0  0  0
   14.1858  -13.7858    4.1318 N   0  0  0  0  0  0  0  0  0  0  0  0
   15.5106  -13.3537    4.3624 C   0  0  0  0  0  0  0  0  0  0  0  0
   15.7563  -12.1353    4.2689 O   0  0  0  0  0  0  0  0  0  0  0  0
   16.6116  -14.3070    4.7142 C   0  0  0  0  0  0  0  0  0  0  0  0
   16.1150  -15.7012    4.8024 C   0  0  0  0  0  0  0  0  0  0  0  0
   17.1256  -16.7383    5.2378 C   0  0  2  0  0  0  0  0  0  0  0  0
   16.6387  -18.0744    5.3078 N   0  0  0  0  0  0  0  0  0  0  0  0
   17.7788  -16.2963    6.4770 C   0  0  0  0  0  0  0  0  0  0  0  0
   17.3323  -16.6494    7.6286 O   0  0  0  0  0  0  0  0  0  0  0  0
   22.7013   -9.5771    8.0731 O   0  0  0  0  0  0  0  0  0  0  0  0
   22.2843  -10.8976    7.9695 C   0  0  0  0  0  0  0  0  0  0  0  0
   21.9598  -11.4943    6.7855 C   0  0  0  0  0  0  0  0  0  0  0  0
   21.5470  -12.7935    6.6619 C   0  0  0  0  0  0  0  0  0  0  0  0
   21.4499  -13.5643    7.8235 C   0  0  0  0  0  0  0  0  0  0  0  0
   20.9886  -14.9614    7.7267 C   0  0  0  0  0  0  0  0  0  0  0  0
   19.5032  -15.0265    7.8088 C   0  0  2  0  0  0  0  0  0  0  0  0
   18.9285  -15.4644    6.5170 N   0  0  0  0  0  0  0  0  0  0  0  0
   18.8604  -13.7628    8.1867 C   0  0  0  0  0  0  0  0  0  0  0  0
   18.7772  -13.3964    9.5147 O   0  0  0  0  0  0  0  0  0  0  0  0
   21.7725  -12.9795    9.0222 C   0  0  0  0  0  0  0  0  0  0  0  0
   22.1892  -11.6624    9.1325 C   0  0  0  0  0  0  0  0  0  0  0  0
   18.3860  -13.0138    7.3099 O   0  0  0  0  0  0  0  0  0  0  0  0
  2  3  2  0
  2  1  1  0
  4  2  1  0
  5  4  1  0
  6  5  1  0
  6  7  1  6
  8  9  2  0
  8  6  1  0
 11 10  1  0
 11 12  2  0
 13 11  1  0
 14 13  1  0
 15 14  1  1
 15 16  1  0
 16  8  1  0
 17 15  1  0
 17 18  2  0
 19 20  1  0
 20 21  2  0
 21 22  1  0
 23 22  2  0
 23 24  1  0
 25 24  1  6
 25 26  1  0
 26 17  1  0
 27 25  1  0
 28 27  1  0
 29 23  1  0
 30 20  1  0
 30 29  2  0
 31 27  2  0
M  END
$$$$
