QQY.pdb
     RDKit          3D

 31 31  0  0  1  0  0  0  0  0999 V2000
   32.3647  -25.4270  -15.4658 N   0  0  0  0  0  0  0  0  0  0  0  0
   32.5314  -25.6568  -16.8659 C   0  0  0  0  0  0  0  0  0  0  0  0
   33.2186  -26.6472  -17.1922 O   0  0  0  0  0  0  0  0  0  0  0  0
   31.9143  -24.7591  -17.8415 C   0  0  0  0  0  0  0  0  0  0  0  0
   31.1475  -23.6214  -17.2416 C   0  0  0  0  0  0  0  0  0  0  0  0
   29.7084  -23.8991  -16.9687 C   0  0  2  0  0  0  0  0  0  0  0  0
   29.0895  -24.3767  -18.1936 N   0  0  0  0  0  0  0  0  0  0  0  0
   28.9963  -22.6747  -16.4658 C   0  0  0  0  0  0  0  0  0  0  0  0
   29.5299  -22.0387  -15.5419 O   0  0  0  0  0  0  0  0  0  0  0  0
   24.6193  -19.5967  -19.9723 N   0  0  0  0  0  0  0  0  0  0  0  0
   24.7245  -18.8320  -18.7895 C   0  0  0  0  0  0  0  0  0  0  0  0
   24.1369  -17.7337  -18.7452 O   0  0  0  0  0  0  0  0  0  0  0  0
   25.5098  -19.3009  -17.6028 C   0  0  0  0  0  0  0  0  0  0  0  0
   26.2405  -20.5569  -17.8972 C   0  0  0  0  0  0  0  0  0  0  0  0
   27.0038  -21.1657  -16.7425 C   0  0  2  0  0  0  0  0  0  0  0  0
   27.7775  -22.3176  -17.0609 N   0  0  0  0  0  0  0  0  0  0  0  0
   26.0927  -21.3773  -15.6098 C   0  0  0  0  0  0  0  0  0  0  0  0
   25.2761  -22.3687  -15.5872 O   0  0  0  0  0  0  0  0  0  0  0  0
   21.8237  -21.1470   -7.9589 O   0  0  0  0  0  0  0  0  0  0  0  0
   22.6773  -20.8325   -9.0080 C   0  0  0  0  0  0  0  0  0  0  0  0
   22.2714  -20.1923  -10.1432 C   0  0  0  0  0  0  0  0  0  0  0  0
   23.0962  -19.8733  -11.1881 C   0  0  0  0  0  0  0  0  0  0  0  0
   24.4451  -20.2249  -11.0900 C   0  0  0  0  0  0  0  0  0  0  0  0
   25.3556  -19.9137  -12.2073 C   0  0  0  0  0  0  0  0  0  0  0  0
   25.1118  -20.8361  -13.3505 C   0  0  2  0  0  0  0  0  0  0  0  0
   26.0316  -20.5332  -14.4699 N   0  0  0  0  0  0  0  0  0  0  0  0
   23.7398  -20.8093  -13.8700 C   0  0  0  0  0  0  0  0  0  0  0  0
   23.3044  -19.7393  -14.6250 O   0  0  0  0  0  0  0  0  0  0  0  0
   24.8695  -20.8691   -9.9552 C   0  0  0  0  0  0  0  0  0  0  0  0
   24.0230  -21.1859   -8.9047 C   0  0  0  0  0  0  0  0  0  0  0  0
   22.9606  -21.7532  -13.6317 O   0  0  0  0  0  0  0  0  0  0  0  0
  2  3  2  0
  2  1  1  0
  4  2  1  0
  5  4  1  0
  6  5  1  0
  6  7  1  6
  8  9  2  0
  8  6  1  0
 11 10  1  0
 11 12  2  0
 13 11  1  0
 14 13  1  0
 15 14  1  6
 15 16  1  0
 16  8  1  0
 17 15  1  0
 17 18  2  0
 19 20  1  0
 20 21  2  0
 21 22  1  0
 23 22  2  0
 23 24  1  0
 25 24  1  1
 25 26  1  0
 26 17  1  0
 27 25  1  0
 28 27  1  0
 29 23  1  0
 30 20  1  0
 30 29  2  0
 31 27  2  0
M  END
$$$$
