QQY.pdb
     RDKit          3D

 31 31  0  0  1  0  0  0  0  0999 V2000
   15.5120  -26.4928  -11.9874 N   0  0  0  0  0  0  0  0  0  0  0  0
   16.3532  -27.2059  -11.0792 C   0  0  0  0  0  0  0  0  0  0  0  0
   15.9994  -28.3663  -10.7829 O   0  0  0  0  0  0  0  0  0  0  0  0
   17.5609  -26.5798  -10.5427 C   0  0  0  0  0  0  0  0  0  0  0  0
   17.8445  -25.2122  -11.0823 C   0  0  0  0  0  0  0  0  0  0  0  0
   19.1042  -24.5839  -10.5911 C   0  0  2  0  0  0  0  0  0  0  0  0
   18.9558  -24.2977   -9.1742 N   0  0  0  0  0  0  0  0  0  0  0  0
   19.4243  -23.3256  -11.3482 C   0  0  0  0  0  0  0  0  0  0  0  0
   18.9791  -22.2563  -10.8996 O   0  0  0  0  0  0  0  0  0  0  0  0
   22.9720  -19.4258  -13.6269 N   0  0  0  0  0  0  0  0  0  0  0  0
   23.3112  -20.6626  -14.2187 C   0  0  0  0  0  0  0  0  0  0  0  0
   24.4743  -21.0856  -14.0711 O   0  0  0  0  0  0  0  0  0  0  0  0
   22.3233  -21.4691  -15.0051 C   0  0  0  0  0  0  0  0  0  0  0  0
   21.8127  -22.6181  -14.2196 C   0  0  0  0  0  0  0  0  0  0  0  0
   20.6348  -22.3317  -13.3157 C   0  0  2  0  0  0  0  0  0  0  0  0
   20.2022  -23.4238  -12.5111 N   0  0  0  0  0  0  0  0  0  0  0  0
   19.5500  -21.7275  -14.1005 C   0  0  0  0  0  0  0  0  0  0  0  0
   18.7343  -22.4521  -14.7786 O   0  0  0  0  0  0  0  0  0  0  0  0
   20.0854  -13.9145  -13.5681 O   0  0  0  0  0  0  0  0  0  0  0  0
   19.4144  -15.1238  -13.6931 C   0  0  0  0  0  0  0  0  0  0  0  0
   18.5455  -15.4015  -14.7085 C   0  0  0  0  0  0  0  0  0  0  0  0
   17.8744  -16.5862  -14.8499 C   0  0  0  0  0  0  0  0  0  0  0  0
   18.0906  -17.5808  -13.8924 C   0  0  0  0  0  0  0  0  0  0  0  0
   17.3674  -18.8608  -14.0047 C   0  0  0  0  0  0  0  0  0  0  0  0
   18.1144  -19.8062  -14.8796 C   0  0  2  0  0  0  0  0  0  0  0  0
   19.3087  -20.3308  -14.1801 N   0  0  0  0  0  0  0  0  0  0  0  0
   18.5516  -19.2337  -16.1579 C   0  0  0  0  0  0  0  0  0  0  0  0
   17.6202  -18.8466  -17.0998 O   0  0  0  0  0  0  0  0  0  0  0  0
   18.9612  -17.3176  -12.8649 C   0  0  0  0  0  0  0  0  0  0  0  0
   19.6340  -16.1132  -12.7343 C   0  0  0  0  0  0  0  0  0  0  0  0
   19.7670  -19.0941  -16.3994 O   0  0  0  0  0  0  0  0  0  0  0  0
  2  3  2  0
  2  1  1  0
  4  2  1  0
  5  4  1  0
  6  5  1  0
  6  7  1  1
  8  9  2  0
  8  6  1  0
 11 10  1  0
 11 12  2  0
 13 11  1  0
 14 13  1  0
 15 14  1  6
 15 16  1  0
 16  8  1  0
 17 15  1  0
 17 18  2  0
 19 20  1  0
 20 21  2  0
 21 22  1  0
 23 22  2  0
 23 24  1  0
 25 24  1  1
 25 26  1  0
 26 17  1  0
 27 25  1  0
 28 27  1  0
 29 23  1  0
 30 20  1  0
 30 29  2  0
 31 27  2  0
M  END
$$$$
