QQY.pdb
     RDKit          3D

 31 31  0  0  1  0  0  0  0  0999 V2000
   29.2872  -18.7914  -17.9683 N   0  0  0  0  0  0  0  0  0  0  0  0
   29.2828  -17.3801  -17.7470 C   0  0  0  0  0  0  0  0  0  0  0  0
   30.1177  -16.7105  -18.3907 O   0  0  0  0  0  0  0  0  0  0  0  0
   28.3350  -16.7814  -16.8080 C   0  0  0  0  0  0  0  0  0  0  0  0
   27.4625  -17.7659  -16.0928 C   0  0  0  0  0  0  0  0  0  0  0  0
   26.3266  -18.3067  -16.8928 C   0  0  2  0  0  0  0  0  0  0  0  0
   25.4337  -17.2102  -17.2274 N   0  0  0  0  0  0  0  0  0  0  0  0
   25.5834  -19.3760  -16.1423 C   0  0  0  0  0  0  0  0  0  0  0  0
   24.6227  -19.0220  -15.4390 O   0  0  0  0  0  0  0  0  0  0  0  0
   26.5141  -25.6809  -17.1688 N   0  0  0  0  0  0  0  0  0  0  0  0
   25.6489  -25.6327  -16.0534 C   0  0  0  0  0  0  0  0  0  0  0  0
   25.2278  -26.7101  -15.5891 O   0  0  0  0  0  0  0  0  0  0  0  0
   25.2325  -24.3399  -15.4212 C   0  0  0  0  0  0  0  0  0  0  0  0
   25.8276  -23.1765  -16.1217 C   0  0  0  0  0  0  0  0  0  0  0  0
   25.5002  -21.8175  -15.5453 C   0  0  2  0  0  0  0  0  0  0  0  0
   26.0098  -20.7056  -16.2742 N   0  0  0  0  0  0  0  0  0  0  0  0
   25.8611  -21.7888  -14.1217 C   0  0  0  0  0  0  0  0  0  0  0  0
   27.0571  -22.0491  -13.7318 O   0  0  0  0  0  0  0  0  0  0  0  0
   27.8345  -19.5126   -6.1344 O   0  0  0  0  0  0  0  0  0  0  0  0
   27.4978  -19.7071   -7.4674 C   0  0  0  0  0  0  0  0  0  0  0  0
   26.3441  -19.2408   -8.0285 C   0  0  0  0  0  0  0  0  0  0  0  0
   25.9936  -19.4216   -9.3394 C   0  0  0  0  0  0  0  0  0  0  0  0
   26.8733  -20.1306  -10.1617 C   0  0  0  0  0  0  0  0  0  0  0  0
   26.5155  -20.3603  -11.5736 C   0  0  0  0  0  0  0  0  0  0  0  0
   25.4166  -21.3597  -11.6767 C   0  0  2  0  0  0  0  0  0  0  0  0
   24.9512  -21.4802  -13.0766 N   0  0  0  0  0  0  0  0  0  0  0  0
   24.2510  -21.0693  -10.8340 C   0  0  0  0  0  0  0  0  0  0  0  0
   24.1974  -21.5394   -9.5376 O   0  0  0  0  0  0  0  0  0  0  0  0
   28.0376  -20.6063   -9.6131 C   0  0  0  0  0  0  0  0  0  0  0  0
   28.3797  -20.4157   -8.2838 C   0  0  0  0  0  0  0  0  0  0  0  0
   23.3032  -20.3962  -11.2852 O   0  0  0  0  0  0  0  0  0  0  0  0
  2  3  2  0
  2  1  1  0
  4  2  1  0
  5  4  1  0
  6  5  1  0
  6  7  1  1
  8  9  2  0
  8  6  1  0
 11 10  1  0
 11 12  2  0
 13 11  1  0
 14 13  1  0
 15 14  1  6
 15 16  1  0
 16  8  1  0
 17 15  1  0
 17 18  2  0
 19 20  1  0
 20 21  2  0
 21 22  1  0
 23 22  2  0
 23 24  1  0
 25 24  1  6
 25 26  1  0
 26 17  1  0
 27 25  1  0
 28 27  1  0
 29 23  1  0
 30 20  1  0
 30 29  2  0
 31 27  2  0
M  END
$$$$
