QQY.pdb
     RDKit          3D

 31 31  0  0  1  0  0  0  0  0999 V2000
   29.1434  -22.2156  -16.0248 N   0  0  0  0  0  0  0  0  0  0  0  0
   29.7093  -21.2663  -16.9300 C   0  0  0  0  0  0  0  0  0  0  0  0
   30.4728  -21.7179  -17.8090 O   0  0  0  0  0  0  0  0  0  0  0  0
   29.3894  -19.8446  -16.8065 C   0  0  0  0  0  0  0  0  0  0  0  0
   28.4970  -19.5061  -15.6529 C   0  0  0  0  0  0  0  0  0  0  0  0
   27.0832  -19.9594  -15.7890 C   0  0  2  0  0  0  0  0  0  0  0  0
   26.5130  -19.3445  -16.9757 N   0  0  0  0  0  0  0  0  0  0  0  0
   26.2713  -19.6050  -14.5748 C   0  0  0  0  0  0  0  0  0  0  0  0
   26.2146  -18.4070  -14.2513 O   0  0  0  0  0  0  0  0  0  0  0  0
   22.2867  -21.5909  -15.3293 N   0  0  0  0  0  0  0  0  0  0  0  0
   21.9071  -20.3700  -14.7291 C   0  0  0  0  0  0  0  0  0  0  0  0
   21.0979  -19.6425  -15.3370 O   0  0  0  0  0  0  0  0  0  0  0  0
   22.4414  -19.9341  -13.3990 C   0  0  0  0  0  0  0  0  0  0  0  0
   23.3888  -20.9293  -12.8419 C   0  0  0  0  0  0  0  0  0  0  0  0
   24.8253  -20.4755  -12.7106 C   0  0  2  0  0  0  0  0  0  0  0  0
   25.6259  -20.6362  -13.8769 N   0  0  0  0  0  0  0  0  0  0  0  0
   25.4227  -21.0797  -11.5124 C   0  0  0  0  0  0  0  0  0  0  0  0
   26.5184  -21.7471  -11.5780 O   0  0  0  0  0  0  0  0  0  0  0  0
   29.7540  -19.8171   -4.2662 O   0  0  0  0  0  0  0  0  0  0  0  0
   29.0396  -19.8994   -5.4540 C   0  0  0  0  0  0  0  0  0  0  0  0
   28.8296  -21.0681   -6.1272 C   0  0  0  0  0  0  0  0  0  0  0  0
   28.1288  -21.1708   -7.2985 C   0  0  0  0  0  0  0  0  0  0  0  0
   27.5905  -20.0028   -7.8453 C   0  0  0  0  0  0  0  0  0  0  0  0
   26.8477  -20.0764   -9.1169 C   0  0  0  0  0  0  0  0  0  0  0  0
   25.7249  -21.0484   -9.0090 C   0  0  2  0  0  0  0  0  0  0  0  0
   24.8635  -20.9854  -10.2110 N   0  0  0  0  0  0  0  0  0  0  0  0
   24.8725  -20.8624   -7.8292 C   0  0  0  0  0  0  0  0  0  0  0  0
   23.7849  -20.0147   -7.8854 O   0  0  0  0  0  0  0  0  0  0  0  0
   27.7926  -18.8193   -7.1811 C   0  0  0  0  0  0  0  0  0  0  0  0
   28.5044  -18.7302   -5.9954 C   0  0  0  0  0  0  0  0  0  0  0  0
   25.1267  -21.4694   -6.7700 O   0  0  0  0  0  0  0  0  0  0  0  0
  2  3  2  0
  2  1  1  0
  4  2  1  0
  5  4  1  0
  6  5  1  0
  6  7  1  6
  8  9  2  0
  8  6  1  0
 11 10  1  0
 11 12  2  0
 13 11  1  0
 14 13  1  0
 15 14  1  6
 15 16  1  0
 16  8  1  0
 17 15  1  0
 17 18  2  0
 19 20  1  0
 20 21  2  0
 21 22  1  0
 23 22  2  0
 23 24  1  0
 25 24  1  6
 25 26  1  0
 26 17  1  0
 27 25  1  0
 28 27  1  0
 29 23  1  0
 30 20  1  0
 30 29  2  0
 31 27  2  0
M  END
$$$$
