QQY.pdb
     RDKit          3D

 31 31  0  0  1  0  0  0  0  0999 V2000
   31.2119  -32.0881    2.6553 N   0  0  0  0  0  0  0  0  0  0  0  0
   31.0817  -32.4969    4.0179 C   0  0  0  0  0  0  0  0  0  0  0  0
   31.7729  -31.8801    4.8554 O   0  0  0  0  0  0  0  0  0  0  0  0
   30.1751  -33.5857    4.3802 C   0  0  0  0  0  0  0  0  0  0  0  0
   29.4541  -34.2053    3.2234 C   0  0  0  0  0  0  0  0  0  0  0  0
   27.9662  -34.1470    3.2971 C   0  0  2  0  0  0  0  0  0  0  0  0
   27.5172  -35.0789    4.3177 N   0  0  0  0  0  0  0  0  0  0  0  0
   27.3352  -34.4772    1.9735 C   0  0  0  0  0  0  0  0  0  0  0  0
   27.4864  -35.6301    1.5367 O   0  0  0  0  0  0  0  0  0  0  0  0
   22.9147  -30.6702   -0.7462 N   0  0  0  0  0  0  0  0  0  0  0  0
   23.1193  -31.6913   -1.7004 C   0  0  0  0  0  0  0  0  0  0  0  0
   22.4143  -31.6853   -2.7282 O   0  0  0  0  0  0  0  0  0  0  0  0
   24.1484  -32.7640   -1.5137 C   0  0  0  0  0  0  0  0  0  0  0  0
   24.8339  -32.6369   -0.2052 C   0  0  0  0  0  0  0  0  0  0  0  0
   25.9512  -33.6218    0.0560 C   0  0  2  0  0  0  0  0  0  0  0  0
   26.6152  -33.4750    1.3068 N   0  0  0  0  0  0  0  0  0  0  0  0
   26.8719  -33.6336   -1.0885 C   0  0  0  0  0  0  0  0  0  0  0  0
   27.8708  -32.8282   -1.1488 O   0  0  0  0  0  0  0  0  0  0  0  0
   33.0631  -35.2675   -6.6907 O   0  0  0  0  0  0  0  0  0  0  0  0
   32.1121  -35.1476   -5.6860 C   0  0  0  0  0  0  0  0  0  0  0  0
   32.2200  -35.7584   -4.4701 C   0  0  0  0  0  0  0  0  0  0  0  0
   31.2946  -35.6531   -3.4669 C   0  0  0  0  0  0  0  0  0  0  0  0
   30.1618  -34.8687   -3.6992 C   0  0  0  0  0  0  0  0  0  0  0  0
   29.1362  -34.7515   -2.6464 C   0  0  0  0  0  0  0  0  0  0  0  0
   27.7899  -34.5518   -3.2503 C   0  0  2  0  0  0  0  0  0  0  0  0
   26.7483  -34.5086   -2.1995 N   0  0  0  0  0  0  0  0  0  0  0  0
   27.4057  -35.5757   -4.2287 C   0  0  0  0  0  0  0  0  0  0  0  0
   26.2239  -36.2721   -4.0768 O   0  0  0  0  0  0  0  0  0  0  0  0
   30.0378  -34.2478   -4.9167 C   0  0  0  0  0  0  0  0  0  0  0  0
   30.9830  -34.3632   -5.9235 C   0  0  0  0  0  0  0  0  0  0  0  0
   28.1453  -35.8216   -5.2021 O   0  0  0  0  0  0  0  0  0  0  0  0
  2  3  2  0
  2  1  1  0
  4  2  1  0
  5  4  1  0
  6  5  1  0
  6  7  1  1
  8  9  2  0
  8  6  1  0
 11 10  1  0
 11 12  2  0
 13 11  1  0
 14 13  1  0
 15 14  1  6
 15 16  1  0
 16  8  1  0
 17 15  1  0
 17 18  2  0
 19 20  1  0
 20 21  2  0
 21 22  1  0
 23 22  2  0
 23 24  1  0
 25 24  1  1
 25 26  1  0
 26 17  1  0
 27 25  1  0
 28 27  1  0
 29 23  1  0
 30 20  1  0
 30 29  2  0
 31 27  2  0
M  END
$$$$
