QQY.pdb
     RDKit          3D

 31 31  0  0  1  0  0  0  0  0999 V2000
   31.9786  -24.6637  -15.4899 N   0  0  0  0  0  0  0  0  0  0  0  0
   32.2117  -25.3804  -16.7035 C   0  0  0  0  0  0  0  0  0  0  0  0
   32.7908  -26.4819  -16.6001 O   0  0  0  0  0  0  0  0  0  0  0  0
   31.7805  -24.8242  -17.9855 C   0  0  0  0  0  0  0  0  0  0  0  0
   31.0584  -23.5165  -17.8845 C   0  0  0  0  0  0  0  0  0  0  0  0
   29.5705  -23.6098  -17.8970 C   0  0  2  0  0  0  0  0  0  0  0  0
   29.1440  -24.0156  -19.2255 N   0  0  0  0  0  0  0  0  0  0  0  0
   28.9329  -22.3020  -17.5197 C   0  0  0  0  0  0  0  0  0  0  0  0
   29.1783  -21.3160  -18.2343 O   0  0  0  0  0  0  0  0  0  0  0  0
   24.4511  -19.6336  -18.7553 N   0  0  0  0  0  0  0  0  0  0  0  0
   24.2718  -20.9378  -18.2435 C   0  0  0  0  0  0  0  0  0  0  0  0
   23.2917  -21.5963  -18.6425 O   0  0  0  0  0  0  0  0  0  0  0  0
   25.2167  -21.5427  -17.2505 C   0  0  0  0  0  0  0  0  0  0  0  0
   26.3238  -20.6140  -16.9191 C   0  0  0  0  0  0  0  0  0  0  0  0
   27.3568  -21.1351  -15.9455 C   0  0  2  0  0  0  0  0  0  0  0  0
   28.1016  -22.2638  -16.3907 N   0  0  0  0  0  0  0  0  0  0  0  0
   26.7336  -21.3368  -14.6307 C   0  0  0  0  0  0  0  0  0  0  0  0
   25.9757  -22.3481  -14.4003 O   0  0  0  0  0  0  0  0  0  0  0  0
   24.1202  -20.7113   -6.2597 O   0  0  0  0  0  0  0  0  0  0  0  0
   24.8082  -20.5098   -7.4490 C   0  0  0  0  0  0  0  0  0  0  0  0
   25.5181  -19.3773   -7.7259 C   0  0  0  0  0  0  0  0  0  0  0  0
   26.2027  -19.1592   -8.8910 C   0  0  0  0  0  0  0  0  0  0  0  0
   26.1754  -20.1607   -9.8652 C   0  0  0  0  0  0  0  0  0  0  0  0
   26.8857  -19.9480  -11.1397 C   0  0  0  0  0  0  0  0  0  0  0  0
   26.2497  -20.7394  -12.2289 C   0  0  2  0  0  0  0  0  0  0  0  0
   26.9054  -20.4613  -13.5264 N   0  0  0  0  0  0  0  0  0  0  0  0
   24.8100  -20.5052  -12.3882 C   0  0  0  0  0  0  0  0  0  0  0  0
   23.8988  -21.3773  -11.8280 O   0  0  0  0  0  0  0  0  0  0  0  0
   25.4660  -21.3056   -9.6026 C   0  0  0  0  0  0  0  0  0  0  0  0
   24.7774  -21.5130   -8.4181 C   0  0  0  0  0  0  0  0  0  0  0  0
   24.4028  -19.5169  -13.0304 O   0  0  0  0  0  0  0  0  0  0  0  0
  2  3  2  0
  2  1  1  0
  4  2  1  0
  5  4  1  0
  6  5  1  0
  6  7  1  6
  8  9  2  0
  8  6  1  0
 11 10  1  0
 11 12  2  0
 13 11  1  0
 14 13  1  0
 15 14  1  6
 15 16  1  0
 16  8  1  0
 17 15  1  0
 17 18  2  0
 19 20  1  0
 20 21  2  0
 21 22  1  0
 23 22  2  0
 23 24  1  0
 25 24  1  1
 25 26  1  0
 26 17  1  0
 27 25  1  0
 28 27  1  0
 29 23  1  0
 30 20  1  0
 30 29  2  0
 31 27  2  0
M  END
$$$$
