QQY.pdb
     RDKit          3D

 31 31  0  0  1  0  0  0  0  0999 V2000
   23.3853  -13.6296  -18.0229 N   0  0  0  0  0  0  0  0  0  0  0  0
   22.3245  -13.5251  -17.0719 C   0  0  0  0  0  0  0  0  0  0  0  0
   21.5528  -12.5516  -17.1996 O   0  0  0  0  0  0  0  0  0  0  0  0
   22.1774  -14.5250  -16.0149 C   0  0  0  0  0  0  0  0  0  0  0  0
   23.2937  -15.5202  -15.9407 C   0  0  0  0  0  0  0  0  0  0  0  0
   23.2696  -16.5812  -16.9877 C   0  0  2  0  0  0  0  0  0  0  0  0
   21.9077  -16.7179  -17.4758 N   0  0  0  0  0  0  0  0  0  0  0  0
   23.7678  -17.8947  -16.4531 C   0  0  0  0  0  0  0  0  0  0  0  0
   22.9818  -18.5725  -15.7708 O   0  0  0  0  0  0  0  0  0  0  0  0
   29.2536  -20.5485  -18.5615 N   0  0  0  0  0  0  0  0  0  0  0  0
   28.8638  -21.3826  -17.4904 C   0  0  0  0  0  0  0  0  0  0  0  0
   29.5804  -22.3661  -17.2203 O   0  0  0  0  0  0  0  0  0  0  0  0
   27.6315  -21.1186  -16.6803 C   0  0  0  0  0  0  0  0  0  0  0  0
   26.9593  -19.8677  -17.1066 C   0  0  0  0  0  0  0  0  0  0  0  0
   25.6961  -19.5061  -16.3582 C   0  0  2  0  0  0  0  0  0  0  0  0
   25.0825  -18.2827  -16.7502 N   0  0  0  0  0  0  0  0  0  0  0  0
   25.9412  -19.5917  -14.9124 C   0  0  0  0  0  0  0  0  0  0  0  0
   26.3434  -18.5718  -14.2429 O   0  0  0  0  0  0  0  0  0  0  0  0
   26.4762  -19.9813   -6.4180 O   0  0  0  0  0  0  0  0  0  0  0  0
   26.2210  -19.9076   -7.7809 C   0  0  0  0  0  0  0  0  0  0  0  0
   26.6466  -18.8802   -8.5724 C   0  0  0  0  0  0  0  0  0  0  0  0
   26.4059  -18.7888   -9.9168 C   0  0  0  0  0  0  0  0  0  0  0  0
   25.6757  -19.8141  -10.5237 C   0  0  0  0  0  0  0  0  0  0  0  0
   25.3818  -19.7351  -11.9664 C   0  0  0  0  0  0  0  0  0  0  0  0
   26.1124  -20.8011  -12.7061 C   0  0  2  0  0  0  0  0  0  0  0  0
   25.7619  -20.7718  -14.1439 N   0  0  0  0  0  0  0  0  0  0  0  0
   25.8716  -22.1599  -12.2075 C   0  0  0  0  0  0  0  0  0  0  0  0
   26.6507  -22.6745  -11.1912 O   0  0  0  0  0  0  0  0  0  0  0  0
   25.2403  -20.8544   -9.7420 C   0  0  0  0  0  0  0  0  0  0  0  0
   25.4915  -20.9341   -8.3816 C   0  0  0  0  0  0  0  0  0  0  0  0
   24.9618  -22.8563  -12.6996 O   0  0  0  0  0  0  0  0  0  0  0  0
  2  3  2  0
  2  1  1  0
  4  2  1  0
  5  4  1  0
  6  5  1  0
  6  7  1  1
  8  9  2  0
  8  6  1  0
 11 10  1  0
 11 12  2  0
 13 11  1  0
 14 13  1  0
 15 14  1  6
 15 16  1  0
 16  8  1  0
 17 15  1  0
 17 18  2  0
 19 20  1  0
 20 21  2  0
 21 22  1  0
 23 22  2  0
 23 24  1  0
 25 24  1  1
 25 26  1  0
 26 17  1  0
 27 25  1  0
 28 27  1  0
 29 23  1  0
 30 20  1  0
 30 29  2  0
 31 27  2  0
M  END
$$$$
