QQY.pdb
     RDKit          3D

 31 31  0  0  1  0  0  0  0  0999 V2000
   30.4108  -25.5441  -23.0587 N   0  0  0  0  0  0  0  0  0  0  0  0
   29.8435  -24.3041  -23.4846 C   0  0  0  0  0  0  0  0  0  0  0  0
   30.5419  -23.6014  -24.2448 O   0  0  0  0  0  0  0  0  0  0  0  0
   28.5094  -23.9079  -23.0352 C   0  0  0  0  0  0  0  0  0  0  0  0
   27.8166  -24.9199  -22.1763 C   0  0  0  0  0  0  0  0  0  0  0  0
   26.9361  -24.3554  -21.1139 C   0  0  2  0  0  0  0  0  0  0  0  0
   27.7481  -23.5420  -20.2247 N   0  0  0  0  0  0  0  0  0  0  0  0
   26.2400  -25.4401  -20.3407 C   0  0  0  0  0  0  0  0  0  0  0  0
   25.4943  -26.2074  -20.9718 O   0  0  0  0  0  0  0  0  0  0  0  0
   28.8148  -28.0976  -15.3189 N   0  0  0  0  0  0  0  0  0  0  0  0
   29.2354  -27.8431  -16.6430 C   0  0  0  0  0  0  0  0  0  0  0  0
   30.4263  -28.0671  -16.9349 O   0  0  0  0  0  0  0  0  0  0  0  0
   28.3007  -27.3214  -17.6913 C   0  0  0  0  0  0  0  0  0  0  0  0
   26.9196  -27.1872  -17.1691 C   0  0  0  0  0  0  0  0  0  0  0  0
   25.9250  -26.5175  -18.0904 C   0  0  2  0  0  0  0  0  0  0  0  0
   26.4668  -25.5285  -18.9595 N   0  0  0  0  0  0  0  0  0  0  0  0
   24.7803  -26.0333  -17.3073 C   0  0  0  0  0  0  0  0  0  0  0  0
   24.5935  -26.4138  -16.0947 O   0  0  0  0  0  0  0  0  0  0  0  0
   18.8126  -21.9069  -12.7890 O   0  0  0  0  0  0  0  0  0  0  0  0
   19.8865  -22.4244  -13.5010 C   0  0  0  0  0  0  0  0  0  0  0  0
   20.7990  -21.6494  -14.1568 C   0  0  0  0  0  0  0  0  0  0  0  0
   21.8639  -22.1393  -14.8638 C   0  0  0  0  0  0  0  0  0  0  0  0
   22.0318  -23.5255  -14.9203 C   0  0  0  0  0  0  0  0  0  0  0  0
   23.1573  -24.0858  -15.6908 C   0  0  0  0  0  0  0  0  0  0  0  0
   22.6678  -24.7021  -16.9548 C   0  0  2  0  0  0  0  0  0  0  0  0
   23.8047  -25.1281  -17.8014 N   0  0  0  0  0  0  0  0  0  0  0  0
   21.8035  -23.8313  -17.7596 C   0  0  0  0  0  0  0  0  0  0  0  0
   22.1933  -23.4456  -19.0261 O   0  0  0  0  0  0  0  0  0  0  0  0
   21.1231  -24.3190  -14.2665 C   0  0  0  0  0  0  0  0  0  0  0  0
   20.0493  -23.8091  -13.5542 C   0  0  0  0  0  0  0  0  0  0  0  0
   20.7127  -23.4354  -17.3032 O   0  0  0  0  0  0  0  0  0  0  0  0
  2  3  2  0
  2  1  1  0
  4  2  1  0
  5  4  1  0
  6  5  1  0
  6  7  1  1
  8  9  2  0
  8  6  1  0
 11 10  1  0
 11 12  2  0
 13 11  1  0
 14 13  1  0
 15 14  1  1
 15 16  1  0
 16  8  1  0
 17 15  1  0
 17 18  2  0
 19 20  1  0
 20 21  2  0
 21 22  1  0
 23 22  2  0
 23 24  1  0
 25 24  1  1
 25 26  1  0
 26 17  1  0
 27 25  1  0
 28 27  1  0
 29 23  1  0
 30 20  1  0
 30 29  2  0
 31 27  2  0
M  END
$$$$
