QQY.pdb
     RDKit          3D

 31 31  0  0  1  0  0  0  0  0999 V2000
   25.5287  -14.0924  -21.1901 N   0  0  0  0  0  0  0  0  0  0  0  0
   24.3654  -13.4837  -21.7532 C   0  0  0  0  0  0  0  0  0  0  0  0
   24.5171  -12.8857  -22.8390 O   0  0  0  0  0  0  0  0  0  0  0  0
   23.0770  -13.5754  -21.0674 C   0  0  0  0  0  0  0  0  0  0  0  0
   22.5128  -12.2606  -20.6258 C   0  0  0  0  0  0  0  0  0  0  0  0
   22.9565  -11.7988  -19.2796 C   0  0  2  0  0  0  0  0  0  0  0  0
   22.4404  -12.7203  -18.2816 N   0  0  0  0  0  0  0  0  0  0  0  0
   22.4855  -10.4004  -18.9935 C   0  0  0  0  0  0  0  0  0  0  0  0
   22.8662   -9.4983  -19.7579 O   0  0  0  0  0  0  0  0  0  0  0  0
   18.0336   -9.1852  -14.4699 N   0  0  0  0  0  0  0  0  0  0  0  0
   18.3290   -7.9161  -15.0151 C   0  0  0  0  0  0  0  0  0  0  0  0
   17.7026   -6.9297  -14.5814 O   0  0  0  0  0  0  0  0  0  0  0  0
   19.3624   -7.7269  -16.0832 C   0  0  0  0  0  0  0  0  0  0  0  0
   19.9481   -9.0213  -16.5074 C   0  0  0  0  0  0  0  0  0  0  0  0
   21.0884   -8.9400  -17.4970 C   0  0  2  0  0  0  0  0  0  0  0  0
   21.6484  -10.1892  -17.8882 N   0  0  0  0  0  0  0  0  0  0  0  0
   22.0924   -7.9843  -17.0108 C   0  0  0  0  0  0  0  0  0  0  0  0
   22.7916   -8.2281  -15.9611 O   0  0  0  0  0  0  0  0  0  0  0  0
   28.0438   -1.5576  -16.6102 O   0  0  0  0  0  0  0  0  0  0  0  0
   27.2200   -2.6294  -16.9275 C   0  0  0  0  0  0  0  0  0  0  0  0
   26.7102   -2.8439  -18.1754 C   0  0  0  0  0  0  0  0  0  0  0  0
   25.8969   -3.8934  -18.5087 C   0  0  0  0  0  0  0  0  0  0  0  0
   25.5639   -4.8090  -17.5070 C   0  0  0  0  0  0  0  0  0  0  0  0
   24.6732   -5.9392  -17.8287 C   0  0  0  0  0  0  0  0  0  0  0  0
   23.3940   -5.8253  -17.0752 C   0  0  2  0  0  0  0  0  0  0  0  0
   22.3755   -6.7414  -17.6357 N   0  0  0  0  0  0  0  0  0  0  0  0
   22.8236   -4.4736  -17.0486 C   0  0  0  0  0  0  0  0  0  0  0  0
   21.8239   -4.1247  -17.9338 O   0  0  0  0  0  0  0  0  0  0  0  0
   26.0681   -4.6078  -16.2467 C   0  0  0  0  0  0  0  0  0  0  0  0
   26.8907   -3.5405  -15.9234 C   0  0  0  0  0  0  0  0  0  0  0  0
   23.2394   -3.6336  -16.2262 O   0  0  0  0  0  0  0  0  0  0  0  0
  2  3  2  0
  2  1  1  0
  4  2  1  0
  5  4  1  0
  6  5  1  0
  6  7  1  1
  8  9  2  0
  8  6  1  0
 11 10  1  0
 11 12  2  0
 13 11  1  0
 14 13  1  0
 15 14  1  1
 15 16  1  0
 16  8  1  0
 17 15  1  0
 17 18  2  0
 19 20  1  0
 20 21  2  0
 21 22  1  0
 23 22  2  0
 23 24  1  0
 25 24  1  6
 25 26  1  0
 26 17  1  0
 27 25  1  0
 28 27  1  0
 29 23  1  0
 30 20  1  0
 30 29  2  0
 31 27  2  0
M  END
$$$$
