QQY.pdb
     RDKit          3D

 31 31  0  0  1  0  0  0  0  0999 V2000
   17.7220  -14.9184  -15.7159 N   0  0  0  0  0  0  0  0  0  0  0  0
   16.5105  -14.2563  -15.3486 C   0  0  0  0  0  0  0  0  0  0  0  0
   15.4844  -14.9648  -15.2806 O   0  0  0  0  0  0  0  0  0  0  0  0
   16.5069  -12.8203  -15.0720 C   0  0  0  0  0  0  0  0  0  0  0  0
   17.8298  -12.1464  -15.2662 C   0  0  0  0  0  0  0  0  0  0  0  0
   17.8150  -10.6630  -15.1180 C   0  0  2  0  0  0  0  0  0  0  0  0
   16.8522  -10.1143  -16.0581 N   0  0  0  0  0  0  0  0  0  0  0  0
   19.1757  -10.0713  -15.3578 C   0  0  0  0  0  0  0  0  0  0  0  0
   20.1128  -10.4818  -14.6534 O   0  0  0  0  0  0  0  0  0  0  0  0
   23.6315   -9.0529  -17.5147 N   0  0  0  0  0  0  0  0  0  0  0  0
   22.8534   -9.9954  -18.2227 C   0  0  0  0  0  0  0  0  0  0  0  0
   23.3919  -11.0677  -18.5600 O   0  0  0  0  0  0  0  0  0  0  0  0
   21.4179   -9.7451  -18.5712 C   0  0  0  0  0  0  0  0  0  0  0  0
   20.9639   -8.4206  -18.0837 C   0  0  0  0  0  0  0  0  0  0  0  0
   20.5031   -8.3665  -16.6445 C   0  0  2  0  0  0  0  0  0  0  0  0
   19.3147   -9.0953  -16.3554 N   0  0  0  0  0  0  0  0  0  0  0  0
   20.4447   -6.9675  -16.2006 C   0  0  0  0  0  0  0  0  0  0  0  0
   19.7612   -6.0915  -16.8455 O   0  0  0  0  0  0  0  0  0  0  0  0
   17.8589   -7.6667   -9.6656 O   0  0  0  0  0  0  0  0  0  0  0  0
   18.2636   -6.9606  -10.7906 C   0  0  0  0  0  0  0  0  0  0  0  0
   18.8390   -5.7240  -10.7370 C   0  0  0  0  0  0  0  0  0  0  0  0
   19.2448   -5.0116  -11.8332 C   0  0  0  0  0  0  0  0  0  0  0  0
   19.0594   -5.5855  -13.0938 C   0  0  0  0  0  0  0  0  0  0  0  0
   19.4671   -4.8352  -14.2959 C   0  0  0  0  0  0  0  0  0  0  0  0
   20.9052   -5.0760  -14.5975 C   0  0  2  0  0  0  0  0  0  0  0  0
   21.1161   -6.4683  -15.0538 N   0  0  0  0  0  0  0  0  0  0  0  0
   21.8118   -4.8248  -13.4715 C   0  0  0  0  0  0  0  0  0  0  0  0
   21.8880   -3.5669  -12.9090 O   0  0  0  0  0  0  0  0  0  0  0  0
   18.4822   -6.8283  -13.1653 C   0  0  0  0  0  0  0  0  0  0  0  0
   18.0760   -7.5383  -12.0466 C   0  0  0  0  0  0  0  0  0  0  0  0
   22.5180   -5.7468  -13.0173 O   0  0  0  0  0  0  0  0  0  0  0  0
  2  3  2  0
  2  1  1  0
  4  2  1  0
  5  4  1  0
  6  5  1  0
  6  7  1  6
  8  9  2  0
  8  6  1  0
 11 10  1  0
 11 12  2  0
 13 11  1  0
 14 13  1  0
 15 14  1  6
 15 16  1  0
 16  8  1  0
 17 15  1  0
 17 18  2  0
 19 20  1  0
 20 21  2  0
 21 22  1  0
 23 22  2  0
 23 24  1  0
 25 24  1  1
 25 26  1  0
 26 17  1  0
 27 25  1  0
 28 27  1  0
 29 23  1  0
 30 20  1  0
 30 29  2  0
 31 27  2  0
M  END
$$$$
