TLN.pdb
     RDKit          3D

 24 23  0  0  1  0  0  0  0  0999 V2000
   20.1556  -13.4014  -21.2742 C   0  0  0  0  0  0  0  0  0  0  0  0
   20.5236  -12.4670  -20.1168 C   0  0  1  0  0  0  0  0  0  0  0  0
   19.3489  -12.0890  -19.4762 O   0  0  0  0  0  0  0  0  0  0  0  0
   21.3269  -13.3024  -19.1429 C   0  0  2  0  0  0  0  0  0  0  0  0
   20.6185  -14.4847  -18.7314 N   0  0  0  0  0  0  0  0  0  0  0  0
   21.6835  -12.5283  -17.9261 C   0  0  0  0  0  0  0  0  0  0  0  0
   20.9266  -12.5314  -16.9043 O   0  0  0  0  0  0  0  0  0  0  0  0
   26.9931  -10.4654  -15.8240 C   0  0  0  0  0  0  0  0  0  0  0  0
   25.5118  -10.2423  -15.7054 C   0  0  2  0  0  0  0  0  0  0  0  0
   25.1567  -10.5588  -14.2352 C   0  0  0  0  0  0  0  0  0  0  0  0
   24.6836  -11.1017  -16.5498 C   0  0  0  0  0  0  0  0  0  0  0  0
   23.2177  -10.9663  -16.6278 C   0  0  2  0  0  0  0  0  0  0  0  0
   22.8711  -11.7638  -17.8596 N   0  0  0  0  0  0  0  0  0  0  0  0
   22.6144   -9.6634  -16.8746 C   0  0  0  0  0  0  0  0  0  0  0  0
   22.6088   -9.1630  -18.0473 O   0  0  0  0  0  0  0  0  0  0  0  0
   19.7450   -5.1835  -16.7149 N   0  0  0  0  0  0  0  0  0  0  0  0
   19.2546   -6.4997  -16.8774 C   0  0  0  0  0  0  0  0  0  0  0  0
   18.0447   -6.5937  -17.2558 O   0  0  0  0  0  0  0  0  0  0  0  0
   19.9752   -7.7466  -16.6613 C   0  0  0  0  0  0  0  0  0  0  0  0
   21.4021   -7.5767  -16.1645 C   0  0  2  0  0  0  0  0  0  0  0  0
   21.9936   -8.8681  -15.8787 N   0  0  0  0  0  0  0  0  0  0  0  0
   21.4122   -6.6220  -15.0568 C   0  0  0  0  0  0  0  0  0  0  0  0
   21.7440   -6.9732  -13.9108 O   0  0  0  0  0  0  0  0  0  0  0  0
   21.0447   -5.3113  -15.3023 O   0  0  0  0  0  0  0  0  0  0  0  0
  2  3  1  0
  2  1  1  6
  4  2  1  0
  4  5  1  1
  6  4  1  0
  6  7  2  0
  9 11  1  0
  9  8  1  1
  9 10  1  0
 12 13  1  0
 12 11  1  6
 13  6  1  0
 14 12  1  0
 15 14  2  0
 16 17  1  0
 17 19  1  0
 17 18  2  0
 20 19  1  1
 20 21  1  0
 21 14  1  0
 22 24  1  0
 22 20  1  0
 23 22  2  0
M  END
$$$$
