TLN.pdb
     RDKit          3D

 24 23  0  0  1  0  0  0  0  0999 V2000
   26.7949  -24.4988  -17.2820 C   0  0  0  0  0  0  0  0  0  0  0  0
   25.7860  -23.6584  -16.4920 C   0  0  1  0  0  0  0  0  0  0  0  0
   24.6049  -23.6007  -17.2233 O   0  0  0  0  0  0  0  0  0  0  0  0
   25.5001  -24.4313  -15.2221 C   0  0  2  0  0  0  0  0  0  0  0  0
   24.9111  -25.7158  -15.4912 N   0  0  0  0  0  0  0  0  0  0  0  0
   24.5865  -23.6816  -14.3219 C   0  0  0  0  0  0  0  0  0  0  0  0
   23.4221  -24.1203  -14.0595 O   0  0  0  0  0  0  0  0  0  0  0  0
   23.7181  -20.4141   -9.8413 C   0  0  0  0  0  0  0  0  0  0  0  0
   24.9258  -21.0522  -10.4676 C   0  0  2  0  0  0  0  0  0  0  0  0
   26.1430  -20.2755   -9.9171 C   0  0  0  0  0  0  0  0  0  0  0  0
   24.9831  -20.9770  -11.9266 C   0  0  0  0  0  0  0  0  0  0  0  0
   24.0505  -21.7140  -12.7987 C   0  0  2  0  0  0  0  0  0  0  0  0
   24.9757  -22.4595  -13.7270 N   0  0  0  0  0  0  0  0  0  0  0  0
   23.1620  -20.9906  -13.6985 C   0  0  0  0  0  0  0  0  0  0  0  0
   23.6353  -20.2929  -14.6549 O   0  0  0  0  0  0  0  0  0  0  0  0
   18.8358  -19.0689  -16.2757 N   0  0  0  0  0  0  0  0  0  0  0  0
   18.5963  -20.2264  -15.4997 C   0  0  0  0  0  0  0  0  0  0  0  0
   17.4403  -20.7411  -15.6211 O   0  0  0  0  0  0  0  0  0  0  0  0
   19.5183  -20.8870  -14.5864 C   0  0  0  0  0  0  0  0  0  0  0  0
   20.8977  -20.2525  -14.5083 C   0  0  2  0  0  0  0  0  0  0  0  0
   21.7475  -21.0026  -13.6059 N   0  0  0  0  0  0  0  0  0  0  0  0
   20.7530  -18.8305  -14.1988 C   0  0  0  0  0  0  0  0  0  0  0  0
   20.7039  -18.4324  -13.0217 O   0  0  0  0  0  0  0  0  0  0  0  0
   20.6708  -17.9257  -15.2418 O   0  0  0  0  0  0  0  0  0  0  0  0
  2  3  1  0
  2  1  1  6
  4  2  1  0
  4  5  1  6
  6  4  1  0
  6  7  2  0
  9 11  1  0
  9  8  1  1
  9 10  1  0
 12 13  1  0
 12 11  1  1
 13  6  1  0
 14 12  1  0
 15 14  2  0
 16 17  1  0
 17 19  1  0
 17 18  2  0
 20 19  1  1
 20 21  1  0
 21 14  1  0
 22 24  1  0
 22 20  1  0
 23 22  2  0
M  END
$$$$
