TLN.pdb
     RDKit          3D

 24 23  0  0  1  0  0  0  0  0999 V2000
   21.8402   -9.0821  -20.9490 C   0  0  0  0  0  0  0  0  0  0  0  0
   20.8160  -10.1272  -20.4942 C   0  0  1  0  0  0  0  0  0  0  0  0
   20.2481  -10.6977  -21.6279 O   0  0  0  0  0  0  0  0  0  0  0  0
   21.6055  -11.2071  -19.7856 C   0  0  2  0  0  0  0  0  0  0  0  0
   20.8087  -12.3752  -19.5215 N   0  0  0  0  0  0  0  0  0  0  0  0
   22.1574  -10.7206  -18.4949 C   0  0  0  0  0  0  0  0  0  0  0  0
   21.4160  -10.6083  -17.4679 O   0  0  0  0  0  0  0  0  0  0  0  0
   27.8455  -10.4064  -16.3136 C   0  0  0  0  0  0  0  0  0  0  0  0
   26.4625   -9.8545  -16.1117 C   0  0  2  0  0  0  0  0  0  0  0  0
   26.0197  -10.3354  -14.7116 C   0  0  0  0  0  0  0  0  0  0  0  0
   25.4612  -10.3192  -17.0703 C   0  0  0  0  0  0  0  0  0  0  0  0
   24.0658   -9.8436  -17.0571 C   0  0  2  0  0  0  0  0  0  0  0  0
   23.5196  -10.3664  -18.3616 N   0  0  0  0  0  0  0  0  0  0  0  0
   23.7778   -8.4163  -17.1052 C   0  0  0  0  0  0  0  0  0  0  0  0
   23.8133   -7.7846  -18.2121 O   0  0  0  0  0  0  0  0  0  0  0  0
   21.6892   -3.6207  -16.4192 N   0  0  0  0  0  0  0  0  0  0  0  0
   21.2896   -4.7730  -17.1346 C   0  0  0  0  0  0  0  0  0  0  0  0
   20.3501   -4.6017  -17.9736 O   0  0  0  0  0  0  0  0  0  0  0  0
   21.8298   -6.1202  -17.0174 C   0  0  0  0  0  0  0  0  0  0  0  0
   23.0212   -6.2467  -16.0814 C   0  0  2  0  0  0  0  0  0  0  0  0
   23.4347   -7.6313  -15.9758 N   0  0  0  0  0  0  0  0  0  0  0  0
   22.7064   -5.5867  -14.8149 C   0  0  0  0  0  0  0  0  0  0  0  0
   22.5957   -6.2394  -13.7620 O   0  0  0  0  0  0  0  0  0  0  0  0
   22.5318   -4.2146  -14.8029 O   0  0  0  0  0  0  0  0  0  0  0  0
  2  3  1  0
  2  1  1  6
  4  2  1  0
  4  5  1  1
  6  4  1  0
  6  7  2  0
  9 11  1  0
  9  8  1  6
  9 10  1  0
 12 13  1  0
 12 11  1  6
 13  6  1  0
 14 12  1  0
 15 14  2  0
 16 17  1  0
 17 19  1  0
 17 18  2  0
 20 19  1  6
 20 21  1  0
 21 14  1  0
 22 24  1  0
 22 20  1  0
 23 22  2  0
M  END
$$$$
