TLN.pdb
     RDKit          3D

 24 23  0  0  1  0  0  0  0  0999 V2000
   12.3725  -25.1685   -5.0996 C   0  0  0  0  0  0  0  0  0  0  0  0
   12.6765  -23.8621   -5.8406 C   0  0  1  0  0  0  0  0  0  0  0  0
   11.5406  -23.4952   -6.5534 O   0  0  0  0  0  0  0  0  0  0  0  0
   12.9022  -22.8158   -4.7700 C   0  0  2  0  0  0  0  0  0  0  0  0
   13.0475  -21.4966   -5.3246 N   0  0  0  0  0  0  0  0  0  0  0  0
   14.1124  -23.1152   -3.9620 C   0  0  0  0  0  0  0  0  0  0  0  0
   15.2533  -23.2304   -4.5117 O   0  0  0  0  0  0  0  0  0  0  0  0
   16.2222  -24.1198    1.2431 C   0  0  0  0  0  0  0  0  0  0  0  0
   15.9721  -22.7788    0.6130 C   0  0  2  0  0  0  0  0  0  0  0  0
   15.3528  -21.9024    1.7249 C   0  0  0  0  0  0  0  0  0  0  0  0
   15.0370  -22.7841   -0.5109 C   0  0  0  0  0  0  0  0  0  0  0  0
   15.2776  -23.5574   -1.7427 C   0  0  2  0  0  0  0  0  0  0  0  0
   14.0407  -23.2822   -2.5599 N   0  0  0  0  0  0  0  0  0  0  0  0
   15.3463  -25.0118   -1.6929 C   0  0  0  0  0  0  0  0  0  0  0  0
   14.2907  -25.7054   -1.5193 O   0  0  0  0  0  0  0  0  0  0  0  0
   17.0746  -30.1264   -1.7866 N   0  0  0  0  0  0  0  0  0  0  0  0
   17.9067  -29.2054   -2.4637 C   0  0  0  0  0  0  0  0  0  0  0  0
   18.8881  -29.7105   -3.0943 O   0  0  0  0  0  0  0  0  0  0  0  0
   17.7649  -27.7570   -2.5178 C   0  0  0  0  0  0  0  0  0  0  0  0
   16.5732  -27.2071   -1.7504 C   0  0  2  0  0  0  0  0  0  0  0  0
   16.5409  -25.7613   -1.8376 N   0  0  0  0  0  0  0  0  0  0  0  0
   16.5839  -27.7547   -0.3943 C   0  0  0  0  0  0  0  0  0  0  0  0
   16.2617  -28.9361   -0.1774 O   0  0  0  0  0  0  0  0  0  0  0  0
   16.9604  -26.9340    0.6536 O   0  0  0  0  0  0  0  0  0  0  0  0
  2  3  1  0
  2  1  1  1
  4  2  1  0
  4  5  1  6
  6  4  1  0
  6  7  2  0
  9 11  1  0
  9  8  1  1
  9 10  1  0
 12 13  1  0
 12 11  1  1
 13  6  1  0
 14 12  1  0
 15 14  2  0
 16 17  1  0
 17 19  1  0
 17 18  2  0
 20 19  1  1
 20 21  1  0
 21 14  1  0
 22 24  1  0
 22 20  1  0
 23 22  2  0
M  END
$$$$
