TLN.pdb
     RDKit          3D

 24 23  0  0  1  0  0  0  0  0999 V2000
   15.4698   -9.1669  -18.7653 C   0  0  0  0  0  0  0  0  0  0  0  0
   16.2663   -8.9548  -17.4736 C   0  0  1  0  0  0  0  0  0  0  0  0
   16.5469  -10.2028  -16.9288 O   0  0  0  0  0  0  0  0  0  0  0  0
   17.5816   -8.3315  -17.8898 C   0  0  2  0  0  0  0  0  0  0  0  0
   18.3078   -9.1644  -18.8108 N   0  0  0  0  0  0  0  0  0  0  0  0
   18.4543   -8.0663  -16.7171 C   0  0  0  0  0  0  0  0  0  0  0  0
   18.0281   -7.3973  -15.7233 O   0  0  0  0  0  0  0  0  0  0  0  0
   23.5974  -10.7408  -14.8181 C   0  0  0  0  0  0  0  0  0  0  0  0
   22.7339   -9.5317  -14.5938 C   0  0  2  0  0  0  0  0  0  0  0  0
   22.2772   -9.6106  -13.1196 C   0  0  0  0  0  0  0  0  0  0  0  0
   21.5303   -9.4646  -15.4211 C   0  0  0  0  0  0  0  0  0  0  0  0
   20.6628   -8.2735  -15.4689 C   0  0  2  0  0  0  0  0  0  0  0  0
   19.7834   -8.5454  -16.6631 N   0  0  0  0  0  0  0  0  0  0  0  0
   21.2335   -6.9623  -15.7472 C   0  0  0  0  0  0  0  0  0  0  0  0
   21.7451   -6.7062  -16.8865 O   0  0  0  0  0  0  0  0  0  0  0  0
   20.8922   -1.7897  -17.6168 N   0  0  0  0  0  0  0  0  0  0  0  0
   21.5941   -2.7326  -16.8308 C   0  0  0  0  0  0  0  0  0  0  0  0
   22.7496   -2.3735  -16.4414 O   0  0  0  0  0  0  0  0  0  0  0  0
   21.1437   -4.0559  -16.4225 C   0  0  0  0  0  0  0  0  0  0  0  0
   21.7923   -4.5828  -15.1523 C   0  0  2  0  0  0  0  0  0  0  0  0
   21.2625   -5.8899  -14.8205 N   0  0  0  0  0  0  0  0  0  0  0  0
   21.6760   -3.5725  -14.1015 C   0  0  0  0  0  0  0  0  0  0  0  0
   20.5639   -3.2244  -13.6670 O   0  0  0  0  0  0  0  0  0  0  0  0
   22.8295   -3.0037  -13.5922 O   0  0  0  0  0  0  0  0  0  0  0  0
  2  3  1  0
  2  1  1  6
  4  2  1  0
  4  5  1  6
  6  4  1  0
  6  7  2  0
  9 11  1  0
  9  8  1  6
  9 10  1  0
 12 13  1  0
 12 11  1  6
 13  6  1  0
 14 12  1  0
 15 14  2  0
 16 17  1  0
 17 19  1  0
 17 18  2  0
 20 19  1  6
 20 21  1  0
 21 14  1  0
 22 24  1  0
 22 20  1  0
 23 22  2  0
M  END
$$$$
