TLN.pdb
     RDKit          3D

 24 23  0  0  1  0  0  0  0  0999 V2000
   23.1405  -10.2041  -22.4471 C   0  0  0  0  0  0  0  0  0  0  0  0
   22.6050   -9.4958  -21.1982 C   0  0  1  0  0  0  0  0  0  0  0  0
   21.2696   -9.1786  -21.4203 O   0  0  0  0  0  0  0  0  0  0  0  0
   22.6524  -10.5189  -20.0834 C   0  0  2  0  0  0  0  0  0  0  0  0
   21.8116  -11.6541  -20.3544 N   0  0  0  0  0  0  0  0  0  0  0  0
   22.2329   -9.9304  -18.7854 C   0  0  0  0  0  0  0  0  0  0  0  0
   21.0483  -10.0854  -18.3499 O   0  0  0  0  0  0  0  0  0  0  0  0
   22.7730  -10.2353  -13.9300 C   0  0  0  0  0  0  0  0  0  0  0  0
   23.8316  -10.1214  -14.9905 C   0  0  2  0  0  0  0  0  0  0  0  0
   25.1819  -10.1526  -14.2398 C   0  0  0  0  0  0  0  0  0  0  0  0
   23.7961   -8.8881  -15.7750 C   0  0  0  0  0  0  0  0  0  0  0  0
   22.6885   -8.5587  -16.6903 C   0  0  2  0  0  0  0  0  0  0  0  0
   23.1303   -9.1804  -17.9909 N   0  0  0  0  0  0  0  0  0  0  0  0
   22.4164   -7.1712  -17.0416 C   0  0  0  0  0  0  0  0  0  0  0  0
   23.2546   -6.4999  -17.7289 O   0  0  0  0  0  0  0  0  0  0  0  0
   18.8637   -3.3684  -19.6984 N   0  0  0  0  0  0  0  0  0  0  0  0
   20.0357   -3.8112  -19.0430 C   0  0  0  0  0  0  0  0  0  0  0  0
   20.9667   -2.9518  -18.9395 O   0  0  0  0  0  0  0  0  0  0  0  0
   20.2913   -5.1294  -18.4794 C   0  0  0  0  0  0  0  0  0  0  0  0
   20.9665   -5.1169  -17.1172 C   0  0  2  0  0  0  0  0  0  0  0  0
   21.2394   -6.4702  -16.6773 N   0  0  0  0  0  0  0  0  0  0  0  0
   20.1710   -4.3054  -16.1967 C   0  0  0  0  0  0  0  0  0  0  0  0
   19.3152   -4.8255  -15.4592 O   0  0  0  0  0  0  0  0  0  0  0  0
   20.3846   -2.9394  -16.1564 O   0  0  0  0  0  0  0  0  0  0  0  0
  2  3  1  0
  2  1  1  6
  4  2  1  0
  4  5  1  6
  6  4  1  0
  6  7  2  0
  9 11  1  0
  9  8  1  1
  9 10  1  0
 12 13  1  0
 12 11  1  1
 13  6  1  0
 14 12  1  0
 15 14  2  0
 16 17  1  0
 17 19  1  0
 17 18  2  0
 20 19  1  6
 20 21  1  0
 21 14  1  0
 22 24  1  0
 22 20  1  0
 23 22  2  0
M  END
$$$$
