TLN.pdb
     RDKit          3D

 24 23  0  0  1  0  0  0  0  0999 V2000
   29.4905  -24.4256  -17.4513 C   0  0  0  0  0  0  0  0  0  0  0  0
   28.8356  -23.4637  -16.4542 C   0  0  1  0  0  0  0  0  0  0  0  0
   29.7192  -22.4160  -16.2202 O   0  0  0  0  0  0  0  0  0  0  0  0
   27.6239  -22.8912  -17.1583 C   0  0  2  0  0  0  0  0  0  0  0  0
   27.9704  -22.2549  -18.4009 N   0  0  0  0  0  0  0  0  0  0  0  0
   26.9193  -21.8968  -16.3087 C   0  0  0  0  0  0  0  0  0  0  0  0
   26.4617  -22.2199  -15.1671 O   0  0  0  0  0  0  0  0  0  0  0  0
   26.8119  -15.7818  -16.5370 C   0  0  0  0  0  0  0  0  0  0  0  0
   26.1539  -16.9656  -15.8859 C   0  0  2  0  0  0  0  0  0  0  0  0
   26.4440  -16.8274  -14.3744 C   0  0  0  0  0  0  0  0  0  0  0  0
   26.6597  -18.2700  -16.3104 C   0  0  0  0  0  0  0  0  0  0  0  0
   26.0786  -19.5405  -15.8398 C   0  0  2  0  0  0  0  0  0  0  0  0
   26.7325  -20.5620  -16.7356 N   0  0  0  0  0  0  0  0  0  0  0  0
   24.6536  -19.7979  -15.9993 C   0  0  0  0  0  0  0  0  0  0  0  0
   24.1753  -20.1148  -17.1379 O   0  0  0  0  0  0  0  0  0  0  0  0
   19.4419  -21.6467  -14.3839 N   0  0  0  0  0  0  0  0  0  0  0  0
   20.1692  -20.5141  -13.9510 C   0  0  0  0  0  0  0  0  0  0  0  0
   19.4702  -19.5127  -13.5983 O   0  0  0  0  0  0  0  0  0  0  0  0
   21.6158  -20.3697  -13.8656 C   0  0  0  0  0  0  0  0  0  0  0  0
   22.2869  -19.9306  -15.1573 C   0  0  2  0  0  0  0  0  0  0  0  0
   23.7067  -19.7338  -14.9462 N   0  0  0  0  0  0  0  0  0  0  0  0
   21.5674  -18.7801  -15.7027 C   0  0  0  0  0  0  0  0  0  0  0  0
   21.8521  -17.6212  -15.3528 O   0  0  0  0  0  0  0  0  0  0  0  0
   20.5568  -18.9996  -16.6214 O   0  0  0  0  0  0  0  0  0  0  0  0
  2  3  1  0
  2  1  1  6
  4  2  1  0
  4  5  1  6
  6  4  1  0
  6  7  2  0
  9 11  1  0
  9  8  1  6
  9 10  1  0
 12 13  1  0
 12 11  1  6
 13  6  1  0
 14 12  1  0
 15 14  2  0
 16 17  1  0
 17 19  1  0
 17 18  2  0
 20 19  1  1
 20 21  1  0
 21 14  1  0
 22 24  1  0
 22 20  1  0
 23 22  2  0
M  END
$$$$
