TLN.pdb
     RDKit          3D

 24 23  0  0  1  0  0  0  0  0999 V2000
   22.3745  -15.7547  -16.8965 C   0  0  0  0  0  0  0  0  0  0  0  0
   22.5979  -17.1676  -17.4459 C   0  0  1  0  0  0  0  0  0  0  0  0
   23.8327  -17.1929  -18.0845 O   0  0  0  0  0  0  0  0  0  0  0  0
   22.6887  -18.0771  -16.2391 C   0  0  2  0  0  0  0  0  0  0  0  0
   23.1401  -19.3972  -16.5890 N   0  0  0  0  0  0  0  0  0  0  0  0
   21.3778  -18.2022  -15.5512 C   0  0  0  0  0  0  0  0  0  0  0  0
   20.4092  -18.8186  -16.0977 O   0  0  0  0  0  0  0  0  0  0  0  0
   19.0135  -20.2812  -11.8286 C   0  0  0  0  0  0  0  0  0  0  0  0
   20.2762  -19.4680  -11.7810 C   0  0  2  0  0  0  0  0  0  0  0  0
   20.7027  -19.4429  -10.2959 C   0  0  0  0  0  0  0  0  0  0  0  0
   20.1393  -18.0801  -12.2198 C   0  0  0  0  0  0  0  0  0  0  0  0
   19.8074  -17.7136  -13.6086 C   0  0  2  0  0  0  0  0  0  0  0  0
   21.1602  -17.6436  -14.2708 N   0  0  0  0  0  0  0  0  0  0  0  0
   19.2083  -16.4182  -13.9012 C   0  0  0  0  0  0  0  0  0  0  0  0
   19.9418  -15.3942  -14.0984 O   0  0  0  0  0  0  0  0  0  0  0  0
   17.8893  -12.0502  -16.4720 N   0  0  0  0  0  0  0  0  0  0  0  0
   17.2412  -13.2995  -16.3359 C   0  0  0  0  0  0  0  0  0  0  0  0
   16.0365  -13.3416  -16.7395 O   0  0  0  0  0  0  0  0  0  0  0  0
   17.7958  -14.5303  -15.7900 C   0  0  0  0  0  0  0  0  0  0  0  0
   17.2590  -14.9155  -14.4207 C   0  0  2  0  0  0  0  0  0  0  0  0
   17.8133  -16.1866  -14.0010 N   0  0  0  0  0  0  0  0  0  0  0  0
   15.7985  -14.8434  -14.4421 C   0  0  0  0  0  0  0  0  0  0  0  0
   15.1140  -15.8147  -14.8091 O   0  0  0  0  0  0  0  0  0  0  0  0
   15.1825  -13.6702  -14.0452 O   0  0  0  0  0  0  0  0  0  0  0  0
  2  3  1  0
  2  1  1  1
  4  2  1  0
  4  5  1  6
  6  4  1  0
  6  7  2  0
  9 11  1  0
  9  8  1  1
  9 10  1  0
 12 13  1  0
 12 11  1  1
 13  6  1  0
 14 12  1  0
 15 14  2  0
 16 17  1  0
 17 19  1  0
 17 18  2  0
 20 19  1  6
 20 21  1  0
 21 14  1  0
 22 24  1  0
 22 20  1  0
 23 22  2  0
M  END
$$$$
