DTY.pdb
     RDKit          3D

 28 28  0  0  1  0  0  0  0  0999 V2000
    8.9306  -18.7166   18.4169 N   0  0  0  0  0  0  0  0  0  0  0  0
    8.7203  -18.4257   19.8228 C   0  0  1  0  0  0  0  0  0  0  0  0
    9.6181  -19.3158   20.6467 C   0  0  0  0  0  0  0  0  0  0  0  0
    9.3101  -20.7256   20.2849 C   0  0  0  0  0  0  0  0  0  0  0  0
    8.4999  -21.0057   19.3410 O   0  0  0  0  0  0  0  0  0  0  0  0
    9.0093  -16.9866   20.0439 C   0  0  0  0  0  0  0  0  0  0  0  0
   10.1715  -16.5068   19.8460 O   0  0  0  0  0  0  0  0  0  0  0  0
    9.8853  -21.8012   20.9521 O   0  0  0  0  0  0  0  0  0  0  0  0
    7.3278  -12.4068   20.8241 C   0  0  0  0  0  0  0  0  0  0  0  0
    7.1356  -13.8634   20.4767 C   0  0  1  0  0  0  0  0  0  0  0  0
    6.7157  -13.9396   19.1718 O   0  0  0  0  0  0  0  0  0  0  0  0
    8.3826  -14.6777   20.7722 C   0  0  2  0  0  0  0  0  0  0  0  0
    8.0252  -16.0592   20.4846 N   0  0  0  0  0  0  0  0  0  0  0  0
    8.7334  -14.4981   22.2075 C   0  0  0  0  0  0  0  0  0  0  0  0
    8.0875  -13.7045   22.9415 O   0  0  0  0  0  0  0  0  0  0  0  0
   10.9148  -14.8559   30.4933 O   0  0  0  0  0  0  0  0  0  0  0  0
   10.4548  -14.9165   29.1689 C   0  0  0  0  0  0  0  0  0  0  0  0
   10.2714  -16.1560   28.5976 C   0  0  0  0  0  0  0  0  0  0  0  0
    9.8208  -16.2315   27.3002 C   0  0  0  0  0  0  0  0  0  0  0  0
    9.5376  -15.0999   26.5268 C   0  0  0  0  0  0  0  0  0  0  0  0
    9.0812  -15.2307   25.1291 C   0  0  0  0  0  0  0  0  0  0  0  0
   10.2169  -15.0411   24.1870 C   0  0  2  0  0  0  0  0  0  0  0  0
    9.8051  -15.2119   22.8010 N   0  0  0  0  0  0  0  0  0  0  0  0
   11.2899  -16.0068   24.4662 C   0  0  0  0  0  0  0  0  0  0  0  0
   12.1977  -15.6871   25.2859 O   0  0  0  0  0  0  0  0  0  0  0  0
    9.7411  -13.8893   27.1535 C   0  0  0  0  0  0  0  0  0  0  0  0
   10.1931  -13.7790   28.4567 C   0  0  0  0  0  0  0  0  0  0  0  0
   11.4065  -17.2691   23.9059 O   0  0  0  0  0  0  0  0  0  0  0  0
  2  1  1  6
  2  3  1  0
  3  4  1  0
  4  8  1  0
  5  4  2  0
  6  2  1  0
  7  6  2  0
 10  9  1  6
 10 11  1  0
 10 12  1  0
 12 14  1  0
 12 13  1  1
 13  6  1  0
 14 15  2  0
 16 17  1  0
 17 18  2  0
 18 19  1  0
 20 19  2  0
 20 21  1  0
 22 21  1  1
 22 24  1  0
 23 22  1  0
 23 14  1  0
 24 25  2  0
 24 28  1  0
 26 20  1  0
 27 17  1  0
 27 26  2  0
M  END
$$$$
