DTY.pdb
     RDKit          3D

 28 28  0  0  1  0  0  0  0  0999 V2000
    9.8941  -16.0148   15.7503 N   0  0  0  0  0  0  0  0  0  0  0  0
   11.1864  -15.6081   16.2697 C   0  0  1  0  0  0  0  0  0  0  0  0
   11.8258  -14.6488   15.2961 C   0  0  0  0  0  0  0  0  0  0  0  0
   12.5149  -15.4567   14.2541 C   0  0  0  0  0  0  0  0  0  0  0  0
   11.9950  -16.5256   13.7928 O   0  0  0  0  0  0  0  0  0  0  0  0
   10.9735  -14.9890   17.6019 C   0  0  0  0  0  0  0  0  0  0  0  0
   11.9278  -14.4308   18.2326 O   0  0  0  0  0  0  0  0  0  0  0  0
   13.7513  -15.0903   13.7341 O   0  0  0  0  0  0  0  0  0  0  0  0
    7.9317  -12.7505   18.7117 C   0  0  0  0  0  0  0  0  0  0  0  0
    8.1525  -13.8926   19.6740 C   0  0  1  0  0  0  0  0  0  0  0  0
    7.1887  -14.8416   19.4392 O   0  0  0  0  0  0  0  0  0  0  0  0
    9.5730  -14.4230   19.5952 C   0  0  2  0  0  0  0  0  0  0  0  0
    9.7105  -14.9762   18.2557 N   0  0  0  0  0  0  0  0  0  0  0  0
    9.7413  -15.4754   20.6342 C   0  0  0  0  0  0  0  0  0  0  0  0
    9.3303  -16.6503   20.4437 O   0  0  0  0  0  0  0  0  0  0  0  0
   16.1478  -14.5486   20.3570 O   0  0  0  0  0  0  0  0  0  0  0  0
   15.0415  -15.2012   20.9223 C   0  0  0  0  0  0  0  0  0  0  0  0
   14.0865  -15.7191   20.0762 C   0  0  0  0  0  0  0  0  0  0  0  0
   12.9965  -16.3617   20.6157 C   0  0  0  0  0  0  0  0  0  0  0  0
   12.8102  -16.5156   21.9942 C   0  0  0  0  0  0  0  0  0  0  0  0
   11.6102  -17.1901   22.5273 C   0  0  0  0  0  0  0  0  0  0  0  0
   10.5769  -16.1923   22.9149 C   0  0  2  0  0  0  0  0  0  0  0  0
   10.3693  -15.1956   21.8742 N   0  0  0  0  0  0  0  0  0  0  0  0
   10.9686  -15.4909   24.1464 C   0  0  0  0  0  0  0  0  0  0  0  0
   11.1788  -16.1695   25.1921 O   0  0  0  0  0  0  0  0  0  0  0  0
   13.7991  -15.9762   22.7884 C   0  0  0  0  0  0  0  0  0  0  0  0
   14.9076  -15.3242   22.2776 C   0  0  0  0  0  0  0  0  0  0  0  0
   11.1373  -14.1215   24.2773 O   0  0  0  0  0  0  0  0  0  0  0  0
  2  1  1  6
  2  3  1  0
  3  4  1  0
  4  8  1  0
  5  4  2  0
  6  2  1  0
  7  6  2  0
 10  9  1  6
 10 11  1  0
 10 12  1  0
 12 14  1  0
 12 13  1  6
 13  6  1  0
 14 15  2  0
 16 17  1  0
 17 18  2  0
 18 19  1  0
 20 19  2  0
 20 21  1  0
 22 21  1  6
 22 24  1  0
 23 22  1  0
 23 14  1  0
 24 25  2  0
 24 28  1  0
 26 20  1  0
 27 17  1  0
 27 26  2  0
M  END
$$$$
