DTY.pdb
     RDKit          3D

 28 28  0  0  1  0  0  0  0  0999 V2000
   11.7048  -15.0176   17.8378 N   0  0  0  0  0  0  0  0  0  0  0  0
   12.1307  -15.1605   19.2175 C   0  0  1  0  0  0  0  0  0  0  0  0
   13.0684  -14.0291   19.5604 C   0  0  0  0  0  0  0  0  0  0  0  0
   14.4021  -14.3605   18.9905 C   0  0  0  0  0  0  0  0  0  0  0  0
   14.6205  -15.4814   18.4235 O   0  0  0  0  0  0  0  0  0  0  0  0
   10.9199  -15.1590   20.0761 C   0  0  0  0  0  0  0  0  0  0  0  0
   10.0053  -14.2860   19.9293 O   0  0  0  0  0  0  0  0  0  0  0  0
   15.4700  -13.4720   19.0465 O   0  0  0  0  0  0  0  0  0  0  0  0
    8.2380  -17.2395   19.9881 C   0  0  0  0  0  0  0  0  0  0  0  0
    8.7080  -17.3594   21.4178 C   0  0  1  0  0  0  0  0  0  0  0  0
    9.4307  -18.5208   21.5340 O   0  0  0  0  0  0  0  0  0  0  0  0
    9.4589  -16.1179   21.8652 C   0  0  2  0  0  0  0  0  0  0  0  0
   10.7003  -16.1161   21.1050 N   0  0  0  0  0  0  0  0  0  0  0  0
    9.7205  -16.2265   23.3264 C   0  0  0  0  0  0  0  0  0  0  0  0
   10.8691  -16.5003   23.7638 O   0  0  0  0  0  0  0  0  0  0  0  0
    6.5666  -10.1682   26.1125 O   0  0  0  0  0  0  0  0  0  0  0  0
    6.8704  -11.5358   26.1944 C   0  0  0  0  0  0  0  0  0  0  0  0
    5.8282  -12.4332   26.2623 C   0  0  0  0  0  0  0  0  0  0  0  0
    6.1104  -13.7771   26.3428 C   0  0  0  0  0  0  0  0  0  0  0  0
    7.4164  -14.2800   26.3591 C   0  0  0  0  0  0  0  0  0  0  0  0
    7.6701  -15.7296   26.4734 C   0  0  0  0  0  0  0  0  0  0  0  0
    8.8941  -16.1087   25.7174 C   0  0  2  0  0  0  0  0  0  0  0  0
    8.6891  -16.0261   24.2784 N   0  0  0  0  0  0  0  0  0  0  0  0
    9.2996  -17.4842   26.0420 C   0  0  0  0  0  0  0  0  0  0  0  0
    9.0368  -18.4062   25.2179 O   0  0  0  0  0  0  0  0  0  0  0  0
    8.4155  -13.3331   26.2891 C   0  0  0  0  0  0  0  0  0  0  0  0
    8.1655  -11.9746   26.2071 C   0  0  0  0  0  0  0  0  0  0  0  0
    9.9622  -17.8808   27.1929 O   0  0  0  0  0  0  0  0  0  0  0  0
  2  1  1  6
  2  3  1  0
  3  4  1  0
  4  8  1  0
  5  4  2  0
  6  2  1  0
  7  6  2  0
 10  9  1  6
 10 11  1  0
 10 12  1  0
 12 14  1  0
 12 13  1  6
 13  6  1  0
 14 15  2  0
 16 17  1  0
 17 18  2  0
 18 19  1  0
 20 19  2  0
 20 21  1  0
 22 21  1  1
 22 24  1  0
 23 22  1  0
 23 14  1  0
 24 25  2  0
 24 28  1  0
 26 20  1  0
 27 17  1  0
 27 26  2  0
M  END
$$$$
