DTY.pdb
     RDKit          3D

 28 28  0  0  1  0  0  0  0  0999 V2000
    9.7217  -17.4621   17.7513 N   0  0  0  0  0  0  0  0  0  0  0  0
   10.6583  -17.5729   18.8539 C   0  0  1  0  0  0  0  0  0  0  0  0
   12.0523  -17.3066   18.3410 C   0  0  0  0  0  0  0  0  0  0  0  0
   12.5739  -18.5785   17.7722 C   0  0  0  0  0  0  0  0  0  0  0  0
   11.8229  -19.3629   17.1041 O   0  0  0  0  0  0  0  0  0  0  0  0
   10.2554  -16.6003   19.9003 C   0  0  0  0  0  0  0  0  0  0  0  0
   10.8234  -15.4659   20.0037 O   0  0  0  0  0  0  0  0  0  0  0  0
   13.8965  -18.9738   17.9388 O   0  0  0  0  0  0  0  0  0  0  0  0
    6.7192  -15.3286   20.5307 C   0  0  0  0  0  0  0  0  0  0  0  0
    7.2976  -15.8806   21.8112 C   0  0  1  0  0  0  0  0  0  0  0  0
    6.7712  -17.1324   22.0132 O   0  0  0  0  0  0  0  0  0  0  0  0
    8.8155  -15.8440   21.8002 C   0  0  2  0  0  0  0  0  0  0  0  0
    9.2247  -16.8630   20.8444 N   0  0  0  0  0  0  0  0  0  0  0  0
    9.3045  -16.1607   23.1698 C   0  0  0  0  0  0  0  0  0  0  0  0
    9.7818  -17.2928   23.4454 O   0  0  0  0  0  0  0  0  0  0  0  0
    5.0516  -11.1281   26.2006 O   0  0  0  0  0  0  0  0  0  0  0  0
    6.2339  -11.8840   26.2123 C   0  0  0  0  0  0  0  0  0  0  0  0
    6.4525  -12.7377   27.2705 C   0  0  0  0  0  0  0  0  0  0  0  0
    7.6068  -13.4854   27.2958 C   0  0  0  0  0  0  0  0  0  0  0  0
    8.5774  -13.4195   26.2897 C   0  0  0  0  0  0  0  0  0  0  0  0
    9.8134  -14.2220   26.3738 C   0  0  0  0  0  0  0  0  0  0  0  0
    9.6820  -15.4719   25.5775 C   0  0  2  0  0  0  0  0  0  0  0  0
    9.2516  -15.2020   24.2131 N   0  0  0  0  0  0  0  0  0  0  0  0
    8.7027  -16.3793   26.1935 C   0  0  0  0  0  0  0  0  0  0  0  0
    8.9593  -16.8705   27.3297 O   0  0  0  0  0  0  0  0  0  0  0  0
    8.3019  -12.5474   25.2585 C   0  0  0  0  0  0  0  0  0  0  0  0
    7.1507  -11.7816   25.2030 C   0  0  0  0  0  0  0  0  0  0  0  0
    7.4909  -16.7579   25.6374 O   0  0  0  0  0  0  0  0  0  0  0  0
  2  1  1  6
  2  3  1  0
  3  4  1  0
  4  8  1  0
  5  4  2  0
  6  2  1  0
  7  6  2  0
 10  9  1  6
 10 11  1  0
 10 12  1  0
 12 14  1  0
 12 13  1  6
 13  6  1  0
 14 15  2  0
 16 17  1  0
 17 18  2  0
 18 19  1  0
 20 19  2  0
 20 21  1  0
 22 21  1  1
 22 24  1  0
 23 22  1  0
 23 14  1  0
 24 25  2  0
 24 28  1  0
 26 20  1  0
 27 17  1  0
 27 26  2  0
M  END
$$$$
