DTY.pdb
     RDKit          3D

 28 28  0  0  1  0  0  0  0  0999 V2000
    9.5667  -18.1241   18.4438 N   0  0  0  0  0  0  0  0  0  0  0  0
   10.7193  -17.4713   19.0358 C   0  0  1  0  0  0  0  0  0  0  0  0
   11.5785  -16.9007   17.9344 C   0  0  0  0  0  0  0  0  0  0  0  0
   12.2052  -18.0418   17.2144 C   0  0  0  0  0  0  0  0  0  0  0  0
   11.7041  -18.5000   16.1352 O   0  0  0  0  0  0  0  0  0  0  0  0
   10.2285  -16.4188   19.9603 C   0  0  0  0  0  0  0  0  0  0  0  0
   10.9957  -15.4917   20.3750 O   0  0  0  0  0  0  0  0  0  0  0  0
   13.3599  -18.6621   17.6779 O   0  0  0  0  0  0  0  0  0  0  0  0
    6.4592  -14.7208   20.1559 C   0  0  0  0  0  0  0  0  0  0  0  0
    6.9770  -15.3729   21.4152 C   0  0  1  0  0  0  0  0  0  0  0  0
    6.3944  -16.6111   21.5258 O   0  0  0  0  0  0  0  0  0  0  0  0
    8.4947  -15.4000   21.4471 C   0  0  2  0  0  0  0  0  0  0  0  0
    8.8901  -16.3731   20.4393 N   0  0  0  0  0  0  0  0  0  0  0  0
    8.9300  -15.8226   22.8062 C   0  0  0  0  0  0  0  0  0  0  0  0
    9.2465  -17.0175   23.0465 O   0  0  0  0  0  0  0  0  0  0  0  0
   11.1602  -15.5676   31.3450 O   0  0  0  0  0  0  0  0  0  0  0  0
   10.8168  -15.2161   30.0306 C   0  0  0  0  0  0  0  0  0  0  0  0
    9.9415  -14.1699   29.8421 C   0  0  0  0  0  0  0  0  0  0  0  0
    9.5957  -13.8136   28.5593 C   0  0  0  0  0  0  0  0  0  0  0  0
   10.0948  -14.4685   27.4276 C   0  0  0  0  0  0  0  0  0  0  0  0
    9.6738  -14.0670   26.0710 C   0  0  0  0  0  0  0  0  0  0  0  0
    9.4000  -15.2644   25.2314 C   0  0  2  0  0  0  0  0  0  0  0  0
    9.0048  -14.8984   23.8788 N   0  0  0  0  0  0  0  0  0  0  0  0
    8.3221  -16.0743   25.8179 C   0  0  0  0  0  0  0  0  0  0  0  0
    7.1227  -15.7345   25.6076 O   0  0  0  0  0  0  0  0  0  0  0  0
   10.9654  -15.5065   27.6811 C   0  0  0  0  0  0  0  0  0  0  0  0
   11.3336  -15.8898   28.9587 C   0  0  0  0  0  0  0  0  0  0  0  0
    8.4956  -17.2066   26.5982 O   0  0  0  0  0  0  0  0  0  0  0  0
  2  1  1  6
  2  3  1  0
  3  4  1  0
  4  8  1  0
  5  4  2  0
  6  2  1  0
  7  6  2  0
 10  9  1  6
 10 11  1  0
 10 12  1  0
 12 14  1  0
 12 13  1  6
 13  6  1  0
 14 15  2  0
 16 17  1  0
 17 18  2  0
 18 19  1  0
 20 19  2  0
 20 21  1  0
 22 21  1  1
 22 24  1  0
 23 22  1  0
 23 14  1  0
 24 25  2  0
 24 28  1  0
 26 20  1  0
 27 17  1  0
 27 26  2  0
M  END
$$$$
