DTY.pdb
     RDKit          3D

 28 28  0  0  1  0  0  0  0  0999 V2000
    9.5972  -16.3698   19.5408 N   0  0  0  0  0  0  0  0  0  0  0  0
    8.9714  -15.3303   20.3364 C   0  0  1  0  0  0  0  0  0  0  0  0
    7.7462  -14.8295   19.6117 C   0  0  0  0  0  0  0  0  0  0  0  0
    8.1642  -14.4343   18.2397 C   0  0  0  0  0  0  0  0  0  0  0  0
    9.3836  -14.5013   17.8732 O   0  0  0  0  0  0  0  0  0  0  0  0
    8.6367  -15.9044   21.6637 C   0  0  0  0  0  0  0  0  0  0  0  0
    7.4306  -15.9978   22.0595 O   0  0  0  0  0  0  0  0  0  0  0  0
    7.2537  -13.9754   17.2944 O   0  0  0  0  0  0  0  0  0  0  0  0
    8.9715  -19.2552   22.7474 C   0  0  0  0  0  0  0  0  0  0  0  0
    9.7534  -18.4354   23.7452 C   0  0  1  0  0  0  0  0  0  0  0  0
   11.0850  -18.5282   23.4244 O   0  0  0  0  0  0  0  0  0  0  0  0
    9.2359  -17.0102   23.8254 C   0  0  2  0  0  0  0  0  0  0  0  0
    9.6228  -16.3821   22.5705 N   0  0  0  0  0  0  0  0  0  0  0  0
    9.8810  -16.3393   24.9868 C   0  0  0  0  0  0  0  0  0  0  0  0
   10.9734  -15.7257   24.8602 O   0  0  0  0  0  0  0  0  0  0  0  0
    6.4998  -10.8213   25.3685 O   0  0  0  0  0  0  0  0  0  0  0  0
    7.0587  -11.8846   26.0940 C   0  0  0  0  0  0  0  0  0  0  0  0
    8.3403  -11.7428   26.5773 C   0  0  0  0  0  0  0  0  0  0  0  0
    8.9015  -12.7765   27.2905 C   0  0  0  0  0  0  0  0  0  0  0  0
    8.2270  -13.9749   27.5505 C   0  0  0  0  0  0  0  0  0  0  0  0
    8.8807  -15.0669   28.2983 C   0  0  0  0  0  0  0  0  0  0  0  0
    9.8942  -15.7497   27.4497 C   0  0  2  0  0  0  0  0  0  0  0  0
    9.2916  -16.3654   26.2761 N   0  0  0  0  0  0  0  0  0  0  0  0
   10.5860  -16.8002   28.2112 C   0  0  0  0  0  0  0  0  0  0  0  0
   10.3573  -18.0100   27.9244 O   0  0  0  0  0  0  0  0  0  0  0  0
    6.9490  -14.0567   27.0408 C   0  0  0  0  0  0  0  0  0  0  0  0
    6.3556  -13.0355   26.3198 C   0  0  0  0  0  0  0  0  0  0  0  0
   11.4914  -16.5894   29.2392 O   0  0  0  0  0  0  0  0  0  0  0  0
  2  1  1  6
  2  3  1  0
  3  4  1  0
  4  8  1  0
  5  4  2  0
  6  2  1  0
  7  6  2  0
 10  9  1  6
 10 11  1  0
 10 12  1  0
 12 14  1  0
 12 13  1  6
 13  6  1  0
 14 15  2  0
 16 17  1  0
 17 18  2  0
 18 19  1  0
 20 19  2  0
 20 21  1  0
 22 21  1  1
 22 24  1  0
 23 22  1  0
 23 14  1  0
 24 25  2  0
 24 28  1  0
 26 20  1  0
 27 17  1  0
 27 26  2  0
M  END
$$$$
