DTY.pdb
     RDKit          3D

 28 28  0  0  1  0  0  0  0  0999 V2000
   10.5374  -15.9733   17.1191 N   0  0  0  0  0  0  0  0  0  0  0  0
   11.0890  -16.4945   18.3558 C   0  0  1  0  0  0  0  0  0  0  0  0
   12.5911  -16.5664   18.2302 C   0  0  0  0  0  0  0  0  0  0  0  0
   12.9091  -17.6053   17.2139 C   0  0  0  0  0  0  0  0  0  0  0  0
   13.2654  -17.2885   16.0313 O   0  0  0  0  0  0  0  0  0  0  0  0
   10.6656  -15.6002   19.4622 C   0  0  0  0  0  0  0  0  0  0  0  0
   11.4304  -14.6823   19.9011 O   0  0  0  0  0  0  0  0  0  0  0  0
   12.8348  -18.9640   17.4994 O   0  0  0  0  0  0  0  0  0  0  0  0
    7.2121  -13.7092   19.7162 C   0  0  0  0  0  0  0  0  0  0  0  0
    7.5088  -14.5461   20.9372 C   0  0  1  0  0  0  0  0  0  0  0  0
    6.7932  -15.7136   20.8393 O   0  0  0  0  0  0  0  0  0  0  0  0
    9.0015  -14.7511   21.1249 C   0  0  2  0  0  0  0  0  0  0  0  0
    9.3979  -15.7042   20.0985 N   0  0  0  0  0  0  0  0  0  0  0  0
    9.2341  -15.2987   22.4893 C   0  0  0  0  0  0  0  0  0  0  0  0
    9.4738  -16.5218   22.6679 O   0  0  0  0  0  0  0  0  0  0  0  0
   10.7490  -15.8195   31.1506 O   0  0  0  0  0  0  0  0  0  0  0  0
   10.4436  -15.3184   29.8759 C   0  0  0  0  0  0  0  0  0  0  0  0
   11.2890  -15.6266   28.8335 C   0  0  0  0  0  0  0  0  0  0  0  0
   11.0026  -15.1429   27.5781 C   0  0  0  0  0  0  0  0  0  0  0  0
    9.8842  -14.3462   27.3073 C   0  0  0  0  0  0  0  0  0  0  0  0
    9.6326  -13.8281   25.9482 C   0  0  0  0  0  0  0  0  0  0  0  0
    9.4296  -14.9477   24.9897 C   0  0  2  0  0  0  0  0  0  0  0  0
    9.1948  -14.4659   23.6361 N   0  0  0  0  0  0  0  0  0  0  0  0
    8.2770  -15.7693   25.3877 C   0  0  0  0  0  0  0  0  0  0  0  0
    7.1317  -15.4639   24.9482 O   0  0  0  0  0  0  0  0  0  0  0  0
    9.0771  -14.0723   28.3905 C   0  0  0  0  0  0  0  0  0  0  0  0
    9.3369  -14.5434   29.6654 C   0  0  0  0  0  0  0  0  0  0  0  0
    8.3236  -16.8780   26.2181 O   0  0  0  0  0  0  0  0  0  0  0  0
  2  1  1  6
  2  3  1  0
  3  4  1  0
  4  8  1  0
  5  4  2  0
  6  2  1  0
  7  6  2  0
 10  9  1  6
 10 11  1  0
 10 12  1  0
 12 14  1  0
 12 13  1  6
 13  6  1  0
 14 15  2  0
 16 17  1  0
 17 18  2  0
 18 19  1  0
 20 19  2  0
 20 21  1  0
 22 21  1  1
 22 24  1  0
 23 22  1  0
 23 14  1  0
 24 25  2  0
 24 28  1  0
 26 20  1  0
 27 17  1  0
 27 26  2  0
M  END
$$$$
