DTY.pdb
     RDKit          3D

 28 28  0  0  1  0  0  0  0  0999 V2000
    9.2128  -15.4484   17.6006 N   0  0  0  0  0  0  0  0  0  0  0  0
    8.9033  -14.1985   18.2694 C   0  0  1  0  0  0  0  0  0  0  0  0
    7.9085  -13.4296   17.4350 C   0  0  0  0  0  0  0  0  0  0  0  0
    8.2245  -13.6888   16.0045 C   0  0  0  0  0  0  0  0  0  0  0  0
    8.9480  -14.6786   15.6544 O   0  0  0  0  0  0  0  0  0  0  0  0
    8.3700  -14.5169   19.6176 C   0  0  0  0  0  0  0  0  0  0  0  0
    7.9941  -13.5986   20.4147 O   0  0  0  0  0  0  0  0  0  0  0  0
    7.7508  -12.8715   14.9843 O   0  0  0  0  0  0  0  0  0  0  0  0
    5.9198  -17.5009   20.4169 C   0  0  0  0  0  0  0  0  0  0  0  0
    7.0858  -17.4773   21.3755 C   0  0  1  0  0  0  0  0  0  0  0  0
    7.9522  -18.4808   21.0193 O   0  0  0  0  0  0  0  0  0  0  0  0
    7.7272  -16.1027   21.4415 C   0  0  2  0  0  0  0  0  0  0  0  0
    8.2437  -15.8471   20.1048 N   0  0  0  0  0  0  0  0  0  0  0  0
    8.8247  -16.1425   22.4462 C   0  0  0  0  0  0  0  0  0  0  0  0
   10.0121  -16.3851   22.1043 O   0  0  0  0  0  0  0  0  0  0  0  0
    5.1071  -12.3173   27.5068 O   0  0  0  0  0  0  0  0  0  0  0  0
    6.2987  -12.8549   26.9966 C   0  0  0  0  0  0  0  0  0  0  0  0
    6.4688  -12.8853   25.6305 C   0  0  0  0  0  0  0  0  0  0  0  0
    7.6318  -13.4092   25.1154 C   0  0  0  0  0  0  0  0  0  0  0  0
    8.6585  -13.9168   25.9198 C   0  0  0  0  0  0  0  0  0  0  0  0
    9.8778  -14.4935   25.3201 C   0  0  0  0  0  0  0  0  0  0  0  0
    9.6200  -15.8765   24.8359 C   0  0  2  0  0  0  0  0  0  0  0  0
    8.5753  -15.9094   23.8223 N   0  0  0  0  0  0  0  0  0  0  0  0
    9.2055  -16.7465   25.9463 C   0  0  0  0  0  0  0  0  0  0  0  0
   10.0104  -16.9375   26.9023 O   0  0  0  0  0  0  0  0  0  0  0  0
    8.4293  -13.8590   27.2777 C   0  0  0  0  0  0  0  0  0  0  0  0
    7.2711  -13.3384   27.8276 C   0  0  0  0  0  0  0  0  0  0  0  0
    7.9848  -17.3940   26.0529 O   0  0  0  0  0  0  0  0  0  0  0  0
  2  1  1  6
  2  3  1  0
  3  4  1  0
  4  8  1  0
  5  4  2  0
  6  2  1  0
  7  6  2  0
 10  9  1  6
 10 11  1  0
 10 12  1  0
 12 14  1  0
 12 13  1  6
 13  6  1  0
 14 15  2  0
 16 17  1  0
 17 18  2  0
 18 19  1  0
 20 19  2  0
 20 21  1  0
 22 21  1  1
 22 24  1  0
 23 22  1  0
 23 14  1  0
 24 25  2  0
 24 28  1  0
 26 20  1  0
 27 17  1  0
 27 26  2  0
M  END
$$$$
