DTY.pdb
     RDKit          3D

 28 28  0  0  1  0  0  0  0  0999 V2000
    8.4889  -18.0006   17.5663 N   0  0  0  0  0  0  0  0  0  0  0  0
    9.6734  -17.5387   18.2654 C   0  0  1  0  0  0  0  0  0  0  0  0
   10.5493  -16.7814   17.2977 C   0  0  0  0  0  0  0  0  0  0  0  0
   11.4109  -17.7726   16.5989 C   0  0  0  0  0  0  0  0  0  0  0  0
   12.0910  -17.4505   15.5696 O   0  0  0  0  0  0  0  0  0  0  0  0
    9.2361  -16.6894   19.4016 C   0  0  0  0  0  0  0  0  0  0  0  0
    9.1570  -15.4240   19.2901 O   0  0  0  0  0  0  0  0  0  0  0  0
   11.5177  -19.0904   17.0291 O   0  0  0  0  0  0  0  0  0  0  0  0
    6.0116  -16.6460   21.0189 C   0  0  0  0  0  0  0  0  0  0  0  0
    7.0266  -16.8908   22.1093 C   0  0  1  0  0  0  0  0  0  0  0  0
    7.0198  -18.2312   22.4063 O   0  0  0  0  0  0  0  0  0  0  0  0
    8.3940  -16.3494   21.7318 C   0  0  2  0  0  0  0  0  0  0  0  0
    8.8811  -17.2207   20.6722 N   0  0  0  0  0  0  0  0  0  0  0  0
    9.2736  -16.4133   22.9308 C   0  0  0  0  0  0  0  0  0  0  0  0
   10.1545  -17.3058   23.0455 O   0  0  0  0  0  0  0  0  0  0  0  0
    5.0233  -11.6813   26.2560 O   0  0  0  0  0  0  0  0  0  0  0  0
    6.2808  -12.2995   26.1782 C   0  0  0  0  0  0  0  0  0  0  0  0
    6.9597  -12.2499   24.9812 C   0  0  0  0  0  0  0  0  0  0  0  0
    8.1935  -12.8512   24.8898 C   0  0  0  0  0  0  0  0  0  0  0  0
    8.7966  -13.5162   25.9634 C   0  0  0  0  0  0  0  0  0  0  0  0
   10.1112  -14.1696   25.8097 C   0  0  0  0  0  0  0  0  0  0  0  0
    9.9582  -15.5175   25.1985 C   0  0  2  0  0  0  0  0  0  0  0  0
    9.1533  -15.4741   23.9861 N   0  0  0  0  0  0  0  0  0  0  0  0
    9.3142  -16.4446   26.1406 C   0  0  0  0  0  0  0  0  0  0  0  0
    9.8845  -16.6852   27.2429 O   0  0  0  0  0  0  0  0  0  0  0  0
    8.0681  -13.5320   27.1335 C   0  0  0  0  0  0  0  0  0  0  0  0
    6.8252  -12.9370   27.2585 C   0  0  0  0  0  0  0  0  0  0  0  0
    8.1088  -17.0971   25.9351 O   0  0  0  0  0  0  0  0  0  0  0  0
  2  1  1  6
  2  3  1  0
  3  4  1  0
  4  8  1  0
  5  4  2  0
  6  2  1  0
  7  6  2  0
 10  9  1  6
 10 11  1  0
 10 12  1  0
 12 14  1  0
 12 13  1  6
 13  6  1  0
 14 15  2  0
 16 17  1  0
 17 18  2  0
 18 19  1  0
 20 19  2  0
 20 21  1  0
 22 21  1  1
 22 24  1  0
 23 22  1  0
 23 14  1  0
 24 25  2  0
 24 28  1  0
 26 20  1  0
 27 17  1  0
 27 26  2  0
M  END
$$$$
