DTY.pdb
     RDKit          3D

 28 28  0  0  1  0  0  0  0  0999 V2000
   11.5698  -16.6161   18.2300 N   0  0  0  0  0  0  0  0  0  0  0  0
   11.3545  -17.3161   19.4825 C   0  0  1  0  0  0  0  0  0  0  0  0
   12.6697  -17.8811   19.9602 C   0  0  0  0  0  0  0  0  0  0  0  0
   13.1794  -18.7935   18.9015 C   0  0  0  0  0  0  0  0  0  0  0  0
   12.3971  -19.5757   18.2677 O   0  0  0  0  0  0  0  0  0  0  0  0
   10.7763  -16.3546   20.4544 C   0  0  0  0  0  0  0  0  0  0  0  0
   11.3464  -15.2449   20.7066 O   0  0  0  0  0  0  0  0  0  0  0  0
   14.5243  -18.8395   18.5518 O   0  0  0  0  0  0  0  0  0  0  0  0
    7.1648  -14.9189   20.8258 C   0  0  0  0  0  0  0  0  0  0  0  0
    7.6000  -15.6472   22.0745 C   0  0  1  0  0  0  0  0  0  0  0  0
    7.0060  -16.8849   22.0763 O   0  0  0  0  0  0  0  0  0  0  0  0
    9.1127  -15.6885   22.1989 C   0  0  2  0  0  0  0  0  0  0  0  0
    9.5661  -16.6013   21.1595 N   0  0  0  0  0  0  0  0  0  0  0  0
    9.4604  -16.1972   23.5538 C   0  0  0  0  0  0  0  0  0  0  0  0
    9.8311  -17.3880   23.7270 O   0  0  0  0  0  0  0  0  0  0  0  0
    5.4855  -11.0354   26.3824 O   0  0  0  0  0  0  0  0  0  0  0  0
    6.5656  -11.9223   26.5099 C   0  0  0  0  0  0  0  0  0  0  0  0
    6.4282  -13.0011   27.3546 C   0  0  0  0  0  0  0  0  0  0  0  0
    7.4784  -13.8793   27.4898 C   0  0  0  0  0  0  0  0  0  0  0  0
    8.6893  -13.7276   26.8046 C   0  0  0  0  0  0  0  0  0  0  0  0
    9.7979  -14.6818   27.0024 C   0  0  0  0  0  0  0  0  0  0  0  0
    9.6889  -15.8172   26.0472 C   0  0  2  0  0  0  0  0  0  0  0  0
    9.3876  -15.3623   24.6974 N   0  0  0  0  0  0  0  0  0  0  0  0
    8.6273  -16.7455   26.4631 C   0  0  0  0  0  0  0  0  0  0  0  0
    7.5763  -16.8199   25.7645 O   0  0  0  0  0  0  0  0  0  0  0  0
    8.7658  -12.6292   25.9754 C   0  0  0  0  0  0  0  0  0  0  0  0
    7.7282  -11.7275   25.8169 C   0  0  0  0  0  0  0  0  0  0  0  0
    8.6668  -17.5720   27.5750 O   0  0  0  0  0  0  0  0  0  0  0  0
  2  1  1  6
  2  3  1  0
  3  4  1  0
  4  8  1  0
  5  4  2  0
  6  2  1  0
  7  6  2  0
 10  9  1  6
 10 11  1  0
 10 12  1  0
 12 14  1  0
 12 13  1  6
 13  6  1  0
 14 15  2  0
 16 17  1  0
 17 18  2  0
 18 19  1  0
 20 19  2  0
 20 21  1  0
 22 21  1  1
 22 24  1  0
 23 22  1  0
 23 14  1  0
 24 25  2  0
 24 28  1  0
 26 20  1  0
 27 17  1  0
 27 26  2  0
M  END
$$$$
