DTY.pdb
     RDKit          3D

 28 28  0  0  1  0  0  0  0  0999 V2000
    9.1308  -13.7359   18.0594 N   0  0  0  0  0  0  0  0  0  0  0  0
    9.8850  -14.4592   19.0661 C   0  0  1  0  0  0  0  0  0  0  0  0
   11.0871  -13.6373   19.4619 C   0  0  0  0  0  0  0  0  0  0  0  0
   12.2443  -14.1152   18.6583 C   0  0  0  0  0  0  0  0  0  0  0  0
   12.0990  -14.9912   17.7432 O   0  0  0  0  0  0  0  0  0  0  0  0
    8.9852  -14.7190   20.2176 C   0  0  0  0  0  0  0  0  0  0  0  0
    8.1702  -13.8344   20.6337 O   0  0  0  0  0  0  0  0  0  0  0  0
   13.5330  -13.6350   18.8623 O   0  0  0  0  0  0  0  0  0  0  0  0
    6.5901  -17.5596   20.4175 C   0  0  0  0  0  0  0  0  0  0  0  0
    7.4096  -17.5645   21.6854 C   0  0  1  0  0  0  0  0  0  0  0  0
    8.3474  -18.5621   21.5842 O   0  0  0  0  0  0  0  0  0  0  0  0
    7.9952  -16.1945   21.9777 C   0  0  2  0  0  0  0  0  0  0  0  0
    8.9709  -15.9531   20.9246 N   0  0  0  0  0  0  0  0  0  0  0  0
    8.6443  -16.2353   23.3165 C   0  0  0  0  0  0  0  0  0  0  0  0
    9.8972  -16.2863   23.4315 O   0  0  0  0  0  0  0  0  0  0  0  0
    6.6280  -10.1525   26.5076 O   0  0  0  0  0  0  0  0  0  0  0  0
    6.8767  -11.5311   26.5913 C   0  0  0  0  0  0  0  0  0  0  0  0
    5.7991  -12.3868   26.6444 C   0  0  0  0  0  0  0  0  0  0  0  0
    6.0272  -13.7409   26.7264 C   0  0  0  0  0  0  0  0  0  0  0  0
    7.3120  -14.2948   26.7587 C   0  0  0  0  0  0  0  0  0  0  0  0
    7.5070  -15.7534   26.8740 C   0  0  0  0  0  0  0  0  0  0  0  0
    8.4637  -16.2374   25.8425 C   0  0  2  0  0  0  0  0  0  0  0  0
    7.8786  -16.2181   24.5096 N   0  0  0  0  0  0  0  0  0  0  0  0
    8.8887  -17.6145   26.1341 C   0  0  0  0  0  0  0  0  0  0  0  0
    9.5882  -17.8297   27.1649 O   0  0  0  0  0  0  0  0  0  0  0  0
    8.3485  -13.3879   26.7030 C   0  0  0  0  0  0  0  0  0  0  0  0
    8.1532  -12.0205   26.6199 C   0  0  0  0  0  0  0  0  0  0  0  0
    8.5877  -18.7315   25.3708 O   0  0  0  0  0  0  0  0  0  0  0  0
  2  1  1  6
  2  3  1  0
  3  4  1  0
  4  8  1  0
  5  4  2  0
  6  2  1  0
  7  6  2  0
 10  9  1  6
 10 11  1  0
 10 12  1  0
 12 14  1  0
 12 13  1  6
 13  6  1  0
 14 15  2  0
 16 17  1  0
 17 18  2  0
 18 19  1  0
 20 19  2  0
 20 21  1  0
 22 21  1  1
 22 24  1  0
 23 22  1  0
 23 14  1  0
 24 25  2  0
 24 28  1  0
 26 20  1  0
 27 17  1  0
 27 26  2  0
M  END
$$$$
