DTY.pdb
     RDKit          3D

 28 28  0  0  1  0  0  0  0  0999 V2000
   10.0567  -16.2115   18.3759 N   0  0  0  0  0  0  0  0  0  0  0  0
    9.1962  -15.0555   18.5446 C   0  0  1  0  0  0  0  0  0  0  0  0
    8.2482  -14.9754   17.3732 C   0  0  0  0  0  0  0  0  0  0  0  0
    9.0618  -15.0422   16.1295 C   0  0  0  0  0  0  0  0  0  0  0  0
    9.9395  -14.1565   15.8633 O   0  0  0  0  0  0  0  0  0  0  0  0
    8.4758  -15.2014   19.8341 C   0  0  0  0  0  0  0  0  0  0  0  0
    7.5840  -14.3670   20.1924 O   0  0  0  0  0  0  0  0  0  0  0  0
    8.9080  -16.0658   15.2012 O   0  0  0  0  0  0  0  0  0  0  0  0
    6.3853  -18.0047   20.9190 C   0  0  0  0  0  0  0  0  0  0  0  0
    7.4230  -17.7970   21.9956 C   0  0  1  0  0  0  0  0  0  0  0  0
    8.3851  -18.7661   21.8545 O   0  0  0  0  0  0  0  0  0  0  0  0
    7.9678  -16.3798   21.9808 C   0  0  2  0  0  0  0  0  0  0  0  0
    8.7270  -16.2653   20.7441 N   0  0  0  0  0  0  0  0  0  0  0  0
    8.8432  -16.1990   23.1709 C   0  0  0  0  0  0  0  0  0  0  0  0
   10.0909  -16.0803   23.0495 O   0  0  0  0  0  0  0  0  0  0  0  0
    6.3700  -10.3439   26.0890 O   0  0  0  0  0  0  0  0  0  0  0  0
    6.8193  -11.6590   26.2843 C   0  0  0  0  0  0  0  0  0  0  0  0
    8.1686  -11.8681   26.4632 C   0  0  0  0  0  0  0  0  0  0  0  0
    8.6240  -13.1517   26.6560 C   0  0  0  0  0  0  0  0  0  0  0  0
    7.7751  -14.2641   26.6791 C   0  0  0  0  0  0  0  0  0  0  0  0
    8.3136  -15.6261   26.8629 C   0  0  0  0  0  0  0  0  0  0  0  0
    9.1224  -16.0336   25.6825 C   0  0  2  0  0  0  0  0  0  0  0  0
    8.3068  -16.1534   24.4825 N   0  0  0  0  0  0  0  0  0  0  0  0
    9.7742  -17.3295   25.9222 C   0  0  0  0  0  0  0  0  0  0  0  0
    9.3727  -18.3406   25.2780 O   0  0  0  0  0  0  0  0  0  0  0  0
    6.4369  -13.9905   26.4941 C   0  0  0  0  0  0  0  0  0  0  0  0
    5.9465  -12.7115   26.2980 C   0  0  0  0  0  0  0  0  0  0  0  0
   10.8160  -17.5584   26.8072 O   0  0  0  0  0  0  0  0  0  0  0  0
  2  1  1  6
  2  3  1  0
  3  4  1  0
  4  8  1  0
  5  4  2  0
  6  2  1  0
  7  6  2  0
 10  9  1  6
 10 11  1  0
 10 12  1  0
 12 14  1  0
 12 13  1  6
 13  6  1  0
 14 15  2  0
 16 17  1  0
 17 18  2  0
 18 19  1  0
 20 19  2  0
 20 21  1  0
 22 21  1  1
 22 24  1  0
 23 22  1  0
 23 14  1  0
 24 25  2  0
 24 28  1  0
 26 20  1  0
 27 17  1  0
 27 26  2  0
M  END
$$$$
