DTY.pdb
     RDKit          3D

 28 28  0  0  1  0  0  0  0  0999 V2000
   11.6436  -17.1441   18.3476 N   0  0  0  0  0  0  0  0  0  0  0  0
   10.5182  -17.6669   19.0996 C   0  0  1  0  0  0  0  0  0  0  0  0
   10.9233  -18.9691   19.7455 C   0  0  0  0  0  0  0  0  0  0  0  0
   11.5325  -19.8246   18.6918 C   0  0  0  0  0  0  0  0  0  0  0  0
   11.0294  -19.8948   17.5223 O   0  0  0  0  0  0  0  0  0  0  0  0
   10.1214  -16.6479   20.1033 C   0  0  0  0  0  0  0  0  0  0  0  0
   10.9403  -15.7601   20.5047 O   0  0  0  0  0  0  0  0  0  0  0  0
   12.6724  -20.5853   18.9265 O   0  0  0  0  0  0  0  0  0  0  0  0
    6.8391  -14.3908   20.4145 C   0  0  0  0  0  0  0  0  0  0  0  0
    7.0592  -15.3035   21.5967 C   0  0  1  0  0  0  0  0  0  0  0  0
    6.2290  -16.3883   21.4594 O   0  0  0  0  0  0  0  0  0  0  0  0
    8.5250  -15.6648   21.7585 C   0  0  2  0  0  0  0  0  0  0  0  0
    8.8211  -16.5929   20.6769 N   0  0  0  0  0  0  0  0  0  0  0  0
    8.7077  -16.3086   23.0880 C   0  0  0  0  0  0  0  0  0  0  0  0
    8.8739  -17.5524   23.1919 O   0  0  0  0  0  0  0  0  0  0  0  0
    5.4518  -10.8551   26.5776 O   0  0  0  0  0  0  0  0  0  0  0  0
    6.4018  -11.8877   26.5577 C   0  0  0  0  0  0  0  0  0  0  0  0
    6.2761  -12.9082   27.4737 C   0  0  0  0  0  0  0  0  0  0  0  0
    7.1997  -13.9276   27.4663 C   0  0  0  0  0  0  0  0  0  0  0  0
    8.2694  -13.9776   26.5653 C   0  0  0  0  0  0  0  0  0  0  0  0
    9.2510  -15.0790   26.6131 C   0  0  0  0  0  0  0  0  0  0  0  0
    8.9188  -16.1213   25.6048 C   0  0  2  0  0  0  0  0  0  0  0  0
    8.7017  -15.5477   24.2844 N   0  0  0  0  0  0  0  0  0  0  0  0
    7.7010  -16.8486   25.9919 C   0  0  0  0  0  0  0  0  0  0  0  0
    6.6447  -16.6662   25.3216 O   0  0  0  0  0  0  0  0  0  0  0  0
    8.3416  -12.9285   25.6743 C   0  0  0  0  0  0  0  0  0  0  0  0
    7.4292  -11.8884   25.6553 C   0  0  0  0  0  0  0  0  0  0  0  0
    7.5941  -17.7414   27.0466 O   0  0  0  0  0  0  0  0  0  0  0  0
  2  1  1  1
  2  3  1  0
  3  4  1  0
  4  8  1  0
  5  4  2  0
  6  2  1  0
  7  6  2  0
 10  9  1  6
 10 11  1  0
 10 12  1  0
 12 14  1  0
 12 13  1  6
 13  6  1  0
 14 15  2  0
 16 17  1  0
 17 18  2  0
 18 19  1  0
 20 19  2  0
 20 21  1  0
 22 21  1  1
 22 24  1  0
 23 22  1  0
 23 14  1  0
 24 25  2  0
 24 28  1  0
 26 20  1  0
 27 17  1  0
 27 26  2  0
M  END
$$$$
