FGL.pdb
     RDKit          3D

 24 24  0  0  1  0  0  0  0  0999 V2000
   25.5253  -21.8041  -13.0931 N   0  0  0  0  0  0  0  0  0  0  0  0
   25.7074  -20.4743  -12.6061 C   0  0  1  0  0  0  0  0  0  0  0  0
   24.4967  -19.9828  -11.8186 C   0  0  0  0  0  0  0  0  0  0  0  0
   23.2341  -20.1614  -12.5782 C   0  0  0  0  0  0  0  0  0  0  0  0
   22.2903  -21.1201  -12.3184 C   0  0  0  0  0  0  0  0  0  0  0  0
   21.1242  -21.2407  -13.0656 C   0  0  0  0  0  0  0  0  0  0  0  0
   20.9059  -20.3704  -14.1020 C   0  0  0  0  0  0  0  0  0  0  0  0
   21.8441  -19.4016  -14.3760 C   0  0  0  0  0  0  0  0  0  0  0  0
   23.0001  -19.2934  -13.6240 C   0  0  0  0  0  0  0  0  0  0  0  0
   26.8934  -20.4040  -11.7497 C   0  0  0  0  0  0  0  0  0  0  0  0
   27.1713  -19.3782  -11.0783 O   0  0  0  0  0  0  0  0  0  0  0  0
   27.8168  -21.5085  -11.6232 N   0  0  0  0  0  0  0  0  0  0  0  0
   28.9943  -21.3495  -10.8175 C   0  0  0  0  0  0  0  0  0  0  0  0
   28.7669  -21.2600   -9.3753 C   0  0  0  0  0  0  0  0  0  0  0  0
   29.5716  -21.9010   -8.6069 O   0  0  0  0  0  0  0  0  0  0  0  0
   28.4956  -18.2319   -4.4640 C   0  0  0  0  0  0  0  0  0  0  0  0
   28.0216  -19.5431   -5.0700 C   0  0  2  0  0  0  0  0  0  0  0  0
   28.6289  -20.6855   -4.3331 C   0  0  0  0  0  0  0  0  0  0  0  0
   28.2107  -19.5776   -6.5393 C   0  0  0  0  0  0  0  0  0  0  0  0
   27.5433  -20.6865   -7.2776 C   0  0  2  0  0  0  0  0  0  0  0  0
   27.7411  -20.5327   -8.7284 N   0  0  0  0  0  0  0  0  0  0  0  0
   26.0774  -20.6812   -7.0762 C   0  0  0  0  0  0  0  0  0  0  0  0
   25.4653  -21.2206   -5.9549 O   0  0  0  0  0  0  0  0  0  0  0  0
   25.3338  -20.1713   -7.9452 O   0  0  0  0  0  0  0  0  0  0  0  0
  2  1  1  1
  3  2  1  0
  4  3  1  0
  5  4  2  0
  6  5  1  0
  7  8  1  0
  7  6  2  0
  8  9  2  0
  9  4  1  0
 10  2  1  0
 10 12  1  0
 11 10  2  0
 13 12  1  0
 13 14  1  0
 14 21  1  0
 15 14  2  0
 17 16  1  1
 17 19  1  0
 18 17  1  0
 20 19  1  1
 20 22  1  0
 21 20  1  0
 22 24  2  0
 22 23  1  0
M  END
$$$$
