FGL.pdb
     RDKit          3D

 24 24  0  0  1  0  0  0  0  0999 V2000
   27.0411  -22.5578  -11.0655 N   0  0  0  0  0  0  0  0  0  0  0  0
   26.5431  -21.2572  -11.3802 C   0  0  1  0  0  0  0  0  0  0  0  0
   27.5040  -20.1556  -10.9431 C   0  0  0  0  0  0  0  0  0  0  0  0
   27.7129  -20.1560   -9.4736 C   0  0  0  0  0  0  0  0  0  0  0  0
   26.7928  -19.7355   -8.5496 C   0  0  0  0  0  0  0  0  0  0  0  0
   27.0445  -19.7580   -7.1825 C   0  0  0  0  0  0  0  0  0  0  0  0
   28.2570  -20.2173   -6.7375 C   0  0  0  0  0  0  0  0  0  0  0  0
   29.1922  -20.6434   -7.6527 C   0  0  0  0  0  0  0  0  0  0  0  0
   28.9279  -20.6153   -9.0103 C   0  0  0  0  0  0  0  0  0  0  0  0
   26.3052  -21.1380  -12.8204 C   0  0  0  0  0  0  0  0  0  0  0  0
   27.1960  -21.4013  -13.6675 O   0  0  0  0  0  0  0  0  0  0  0  0
   25.0329  -20.7111  -13.3567 N   0  0  0  0  0  0  0  0  0  0  0  0
   24.5125  -21.3587  -14.5275 C   0  0  0  0  0  0  0  0  0  0  0  0
   23.2457  -20.8300  -15.0327 C   0  0  0  0  0  0  0  0  0  0  0  0
   22.8166  -21.2875  -16.1532 O   0  0  0  0  0  0  0  0  0  0  0  0
   20.8171  -22.8783  -13.0045 C   0  0  0  0  0  0  0  0  0  0  0  0
   21.2507  -21.6338  -12.2466 C   0  0  2  0  0  0  0  0  0  0  0  0
   21.0044  -21.8214  -10.7902 C   0  0  0  0  0  0  0  0  0  0  0  0
   20.6680  -20.3995  -12.8237 C   0  0  0  0  0  0  0  0  0  0  0  0
   20.9903  -20.1058  -14.2484 C   0  0  2  0  0  0  0  0  0  0  0  0
   22.4321  -19.8554  -14.4100 N   0  0  0  0  0  0  0  0  0  0  0  0
   20.3200  -18.8756  -14.7245 C   0  0  0  0  0  0  0  0  0  0  0  0
   21.0119  -17.7707  -15.1968 O   0  0  0  0  0  0  0  0  0  0  0  0
   19.0698  -18.8052  -14.7099 O   0  0  0  0  0  0  0  0  0  0  0  0
  2  1  1  6
  3  2  1  0
  4  3  1  0
  5  4  2  0
  6  5  1  0
  7  8  1  0
  7  6  2  0
  8  9  2  0
  9  4  1  0
 10  2  1  0
 10 12  1  0
 11 10  2  0
 13 12  1  0
 13 14  1  0
 14 21  1  0
 15 14  2  0
 17 16  1  6
 17 19  1  0
 18 17  1  0
 20 19  1  1
 20 22  1  0
 21 20  1  0
 22 24  2  0
 22 23  1  0
M  END
$$$$
