FGL.pdb
     RDKit          3D

 24 24  0  0  1  0  0  0  0  0999 V2000
   28.0811  -24.0713  -17.8795 N   0  0  0  0  0  0  0  0  0  0  0  0
   27.6148  -25.0813  -16.9845 C   0  0  1  0  0  0  0  0  0  0  0  0
   28.7639  -25.7948  -16.2786 C   0  0  0  0  0  0  0  0  0  0  0  0
   29.5594  -26.6240  -17.2181 C   0  0  0  0  0  0  0  0  0  0  0  0
   29.2265  -27.8898  -17.6232 C   0  0  0  0  0  0  0  0  0  0  0  0
   30.0122  -28.6211  -18.5067 C   0  0  0  0  0  0  0  0  0  0  0  0
   31.1639  -28.0591  -18.9935 C   0  0  0  0  0  0  0  0  0  0  0  0
   31.5126  -26.7885  -18.5964 C   0  0  0  0  0  0  0  0  0  0  0  0
   30.7209  -26.0724  -17.7165 C   0  0  0  0  0  0  0  0  0  0  0  0
   26.7259  -24.4979  -15.9774 C   0  0  0  0  0  0  0  0  0  0  0  0
   26.8369  -23.3034  -15.6015 O   0  0  0  0  0  0  0  0  0  0  0  0
   25.6667  -25.2582  -15.3540 N   0  0  0  0  0  0  0  0  0  0  0  0
   24.7951  -24.6083  -14.4164 C   0  0  0  0  0  0  0  0  0  0  0  0
   23.3748  -24.6108  -14.7660 C   0  0  0  0  0  0  0  0  0  0  0  0
   23.0538  -25.0179  -15.9408 O   0  0  0  0  0  0  0  0  0  0  0  0
   17.6016  -24.3328  -12.5019 C   0  0  0  0  0  0  0  0  0  0  0  0
   18.5345  -24.5958  -13.6731 C   0  0  2  0  0  0  0  0  0  0  0  0
   18.2497  -25.9383  -14.2504 C   0  0  0  0  0  0  0  0  0  0  0  0
   19.9535  -24.3576  -13.3187 C   0  0  0  0  0  0  0  0  0  0  0  0
   20.9234  -24.2723  -14.4466 C   0  0  2  0  0  0  0  0  0  0  0  0
   22.3030  -24.2071  -13.9367 N   0  0  0  0  0  0  0  0  0  0  0  0
   20.7380  -23.0390  -15.2430 C   0  0  0  0  0  0  0  0  0  0  0  0
   19.9251  -22.9772  -16.3647 O   0  0  0  0  0  0  0  0  0  0  0  0
   21.3326  -21.9891  -14.9080 O   0  0  0  0  0  0  0  0  0  0  0  0
  2  1  1  6
  3  2  1  0
  4  3  1  0
  5  4  2  0
  6  5  1  0
  7  8  1  0
  7  6  2  0
  8  9  2  0
  9  4  1  0
 10  2  1  0
 10 12  1  0
 11 10  2  0
 13 12  1  0
 13 14  1  0
 14 21  1  0
 15 14  2  0
 17 16  1  1
 17 19  1  0
 18 17  1  0
 20 19  1  1
 20 22  1  0
 21 20  1  0
 22 24  2  0
 22 23  1  0
M  END
$$$$
