FGL.pdb
     RDKit          3D

 24 24  0  0  1  0  0  0  0  0999 V2000
   25.5214  -21.4947  -11.6470 N   0  0  0  0  0  0  0  0  0  0  0  0
   26.7660  -20.8629  -11.3464 C   0  0  1  0  0  0  0  0  0  0  0  0
   27.4910  -21.5477  -10.1917 C   0  0  0  0  0  0  0  0  0  0  0  0
   27.0515  -21.0228   -8.8747 C   0  0  0  0  0  0  0  0  0  0  0  0
   27.7323  -20.0934   -8.1331 C   0  0  0  0  0  0  0  0  0  0  0  0
   27.2719  -19.6381   -6.9029 C   0  0  0  0  0  0  0  0  0  0  0  0
   26.0932  -20.1346   -6.4092 C   0  0  0  0  0  0  0  0  0  0  0  0
   25.3972  -21.0687   -7.1419 C   0  0  0  0  0  0  0  0  0  0  0  0
   25.8676  -21.5126   -8.3648 C   0  0  0  0  0  0  0  0  0  0  0  0
   27.6362  -20.8665  -12.5244 C   0  0  0  0  0  0  0  0  0  0  0  0
   28.8888  -20.8208  -12.4284 O   0  0  0  0  0  0  0  0  0  0  0  0
   27.1095  -20.9232  -13.8690 N   0  0  0  0  0  0  0  0  0  0  0  0
   25.6874  -20.9452  -14.0649 C   0  0  0  0  0  0  0  0  0  0  0  0
   25.0281  -19.6395  -14.0633 C   0  0  0  0  0  0  0  0  0  0  0  0
   24.7175  -19.1332  -12.9249 O   0  0  0  0  0  0  0  0  0  0  0  0
   25.3006  -14.7975  -17.1201 C   0  0  0  0  0  0  0  0  0  0  0  0
   25.0149  -15.6252  -15.8774 C   0  0  2  0  0  0  0  0  0  0  0  0
   26.2971  -16.0605  -15.2581 C   0  0  0  0  0  0  0  0  0  0  0  0
   24.0497  -16.7171  -16.1458 C   0  0  0  0  0  0  0  0  0  0  0  0
   23.8143  -17.6927  -15.0445 C   0  0  2  0  0  0  0  0  0  0  0  0
   24.6918  -18.8650  -15.1975 N   0  0  0  0  0  0  0  0  0  0  0  0
   22.4345  -18.2269  -15.0647 C   0  0  0  0  0  0  0  0  0  0  0  0
   21.3623  -17.5769  -14.4726 O   0  0  0  0  0  0  0  0  0  0  0  0
   22.1992  -19.3154  -15.6374 O   0  0  0  0  0  0  0  0  0  0  0  0
  2  1  1  6
  3  2  1  0
  4  3  1  0
  5  4  2  0
  6  5  1  0
  7  8  1  0
  7  6  2  0
  8  9  2  0
  9  4  1  0
 10  2  1  0
 10 12  1  0
 11 10  2  0
 13 12  1  0
 13 14  1  0
 14 21  1  0
 15 14  2  0
 17 16  1  6
 17 19  1  0
 18 17  1  0
 20 19  1  6
 20 22  1  0
 21 20  1  0
 22 24  2  0
 22 23  1  0
M  END
$$$$
