FGL.pdb
     RDKit          3D

 24 24  0  0  1  0  0  0  0  0999 V2000
   22.5762  -18.9272  -17.2739 N   0  0  0  0  0  0  0  0  0  0  0  0
   22.9826  -18.0365  -16.2347 C   0  0  1  0  0  0  0  0  0  0  0  0
   22.3985  -18.4317  -14.8818 C   0  0  0  0  0  0  0  0  0  0  0  0
   20.9230  -18.5824  -14.9400 C   0  0  0  0  0  0  0  0  0  0  0  0
   20.0344  -17.5524  -15.1033 C   0  0  0  0  0  0  0  0  0  0  0  0
   18.6596  -17.7536  -15.1498 C   0  0  0  0  0  0  0  0  0  0  0  0
   18.1700  -19.0282  -15.0283 C   0  0  0  0  0  0  0  0  0  0  0  0
   19.0493  -20.0739  -14.8638 C   0  0  0  0  0  0  0  0  0  0  0  0
   20.4151  -19.8588  -14.8193 C   0  0  0  0  0  0  0  0  0  0  0  0
   24.4433  -18.0065  -16.1326 C   0  0  0  0  0  0  0  0  0  0  0  0
   25.1641  -18.9194  -16.6093 O   0  0  0  0  0  0  0  0  0  0  0  0
   25.1461  -16.9263  -15.4783 N   0  0  0  0  0  0  0  0  0  0  0  0
   26.5810  -16.9461  -15.4378 C   0  0  0  0  0  0  0  0  0  0  0  0
   27.1784  -18.0710  -14.7186 C   0  0  0  0  0  0  0  0  0  0  0  0
   28.1654  -17.8185  -13.9371 O   0  0  0  0  0  0  0  0  0  0  0  0
   26.6135  -19.2521  -11.4240 C   0  0  0  0  0  0  0  0  0  0  0  0
   25.8541  -20.2676  -12.2626 C   0  0  2  0  0  0  0  0  0  0  0  0
   24.8850  -21.0034  -11.4045 C   0  0  0  0  0  0  0  0  0  0  0  0
   26.7647  -21.1280  -13.0541 C   0  0  0  0  0  0  0  0  0  0  0  0
   27.5752  -20.4580  -14.1096 C   0  0  2  0  0  0  0  0  0  0  0  0
   26.7791  -19.4254  -14.7935 N   0  0  0  0  0  0  0  0  0  0  0  0
   27.9914  -21.4025  -15.1699 C   0  0  0  0  0  0  0  0  0  0  0  0
   28.7833  -22.5142  -14.9253 O   0  0  0  0  0  0  0  0  0  0  0  0
   27.6237  -21.2099  -16.3513 O   0  0  0  0  0  0  0  0  0  0  0  0
  2  1  1  6
  3  2  1  0
  4  3  1  0
  5  4  2  0
  6  5  1  0
  7  8  1  0
  7  6  2  0
  8  9  2  0
  9  4  1  0
 10  2  1  0
 10 12  1  0
 11 10  2  0
 13 12  1  0
 13 14  1  0
 14 21  1  0
 15 14  2  0
 17 16  1  1
 17 19  1  0
 18 17  1  0
 20 19  1  1
 20 22  1  0
 21 20  1  0
 22 24  2  0
 22 23  1  0
M  END
$$$$
