FGL.pdb
     RDKit          3D

 24 24  0  0  1  0  0  0  0  0999 V2000
   26.4254  -19.5747  -17.2080 N   0  0  0  0  0  0  0  0  0  0  0  0
   25.8941  -18.2942  -16.8666 C   0  0  1  0  0  0  0  0  0  0  0  0
   24.4163  -18.1738  -17.2261 C   0  0  0  0  0  0  0  0  0  0  0  0
   24.2122  -18.0564  -18.6916 C   0  0  0  0  0  0  0  0  0  0  0  0
   24.3360  -16.8971  -19.4113 C   0  0  0  0  0  0  0  0  0  0  0  0
   24.1318  -16.8467  -20.7855 C   0  0  0  0  0  0  0  0  0  0  0  0
   23.7937  -17.9973  -21.4497 C   0  0  0  0  0  0  0  0  0  0  0  0
   23.6653  -19.1702  -20.7415 C   0  0  0  0  0  0  0  0  0  0  0  0
   23.8716  -19.2053  -19.3741 C   0  0  0  0  0  0  0  0  0  0  0  0
   26.0579  -18.0409  -15.4335 C   0  0  0  0  0  0  0  0  0  0  0  0
   25.6010  -17.0075  -14.8823 O   0  0  0  0  0  0  0  0  0  0  0  0
   26.7541  -18.9623  -14.5646 N   0  0  0  0  0  0  0  0  0  0  0  0
   26.8243  -18.6831  -13.1581 C   0  0  0  0  0  0  0  0  0  0  0  0
   26.1256  -19.6300  -12.2893 C   0  0  0  0  0  0  0  0  0  0  0  0
   25.6918  -20.7149  -12.8218 O   0  0  0  0  0  0  0  0  0  0  0  0
   27.9092  -21.2672   -8.5204 C   0  0  0  0  0  0  0  0  0  0  0  0
   26.9667  -20.0990   -8.2793 C   0  0  2  0  0  0  0  0  0  0  0  0
   27.1200  -19.6102   -6.8813 C   0  0  0  0  0  0  0  0  0  0  0  0
   25.5755  -20.4144   -8.6807 C   0  0  0  0  0  0  0  0  0  0  0  0
   25.3216  -20.6027  -10.1367 C   0  0  2  0  0  0  0  0  0  0  0  0
   25.8734  -19.4755  -10.9066 N   0  0  0  0  0  0  0  0  0  0  0  0
   23.8752  -20.6229  -10.4476 C   0  0  0  0  0  0  0  0  0  0  0  0
   23.0615  -21.7168  -10.1945 O   0  0  0  0  0  0  0  0  0  0  0  0
   23.3377  -19.6165  -10.9639 O   0  0  0  0  0  0  0  0  0  0  0  0
  2  1  1  1
  3  2  1  0
  4  3  1  0
  5  4  2  0
  6  5  1  0
  7  8  1  0
  7  6  2  0
  8  9  2  0
  9  4  1  0
 10  2  1  0
 10 12  1  0
 11 10  2  0
 13 12  1  0
 13 14  1  0
 14 21  1  0
 15 14  2  0
 17 16  1  1
 17 19  1  0
 18 17  1  0
 20 19  1  1
 20 22  1  0
 21 20  1  0
 22 24  2  0
 22 23  1  0
M  END
$$$$
