FGL.pdb
     RDKit          3D

 24 24  0  0  1  0  0  0  0  0999 V2000
   18.3370  -15.2460    8.0726 N   0  0  0  0  0  0  0  0  0  0  0  0
   17.8374  -15.4957    6.7586 C   0  0  1  0  0  0  0  0  0  0  0  0
   18.9087  -15.2936    5.6913 C   0  0  0  0  0  0  0  0  0  0  0  0
   19.4713  -13.9205    5.7265 C   0  0  0  0  0  0  0  0  0  0  0  0
   18.9191  -12.8296    5.1082 C   0  0  0  0  0  0  0  0  0  0  0  0
   19.4920  -11.5648    5.1751 C   0  0  0  0  0  0  0  0  0  0  0  0
   20.6528  -11.3977    5.8851 C   0  0  0  0  0  0  0  0  0  0  0  0
   21.2202  -12.4833    6.5120 C   0  0  0  0  0  0  0  0  0  0  0  0
   20.6389  -13.7363    6.4368 C   0  0  0  0  0  0  0  0  0  0  0  0
   17.3205  -16.8626    6.6620 C   0  0  0  0  0  0  0  0  0  0  0  0
   16.6687  -17.2601    5.6632 O   0  0  0  0  0  0  0  0  0  0  0  0
   17.5277  -17.8385    7.7076 N   0  0  0  0  0  0  0  0  0  0  0  0
   17.0224  -19.1710    7.5334 C   0  0  0  0  0  0  0  0  0  0  0  0
   17.3292  -20.1101    8.6121 C   0  0  0  0  0  0  0  0  0  0  0  0
   18.4790  -20.0117    9.1752 O   0  0  0  0  0  0  0  0  0  0  0  0
   15.0040  -24.4993   12.3668 C   0  0  0  0  0  0  0  0  0  0  0  0
   16.1724  -23.6136   11.9648 C   0  0  2  0  0  0  0  0  0  0  0  0
   16.6909  -22.8932   13.1603 C   0  0  0  0  0  0  0  0  0  0  0  0
   15.8420  -22.7469   10.8092 C   0  0  0  0  0  0  0  0  0  0  0  0
   16.9779  -22.0446   10.1485 C   0  0  2  0  0  0  0  0  0  0  0  0
   16.4827  -21.1287    9.1075 N   0  0  0  0  0  0  0  0  0  0  0  0
   17.8790  -22.9871    9.4493 C   0  0  0  0  0  0  0  0  0  0  0  0
   19.0540  -23.4668   10.0080 O   0  0  0  0  0  0  0  0  0  0  0  0
   17.5883  -23.3846    8.2979 O   0  0  0  0  0  0  0  0  0  0  0  0
  2  1  1  1
  3  2  1  0
  4  3  1  0
  5  4  2  0
  6  5  1  0
  7  8  1  0
  7  6  2  0
  8  9  2  0
  9  4  1  0
 10  2  1  0
 10 12  1  0
 11 10  2  0
 13 12  1  0
 13 14  1  0
 14 21  1  0
 15 14  2  0
 17 16  1  1
 17 19  1  0
 18 17  1  0
 20 19  1  6
 20 22  1  0
 21 20  1  0
 22 24  2  0
 22 23  1  0
M  END
$$$$
