FGL.pdb
     RDKit          3D

 24 24  0  0  1  0  0  0  0  0999 V2000
   21.3064   -2.8613  -16.4144 N   0  0  0  0  0  0  0  0  0  0  0  0
   21.2312   -1.4389  -16.3159 C   0  0  1  0  0  0  0  0  0  0  0  0
   19.8982   -0.8999  -16.8261 C   0  0  0  0  0  0  0  0  0  0  0  0
   19.7691   -1.0486  -18.2973 C   0  0  0  0  0  0  0  0  0  0  0  0
   20.2472   -0.1573  -19.2216 C   0  0  0  0  0  0  0  0  0  0  0  0
   20.0961   -0.3488  -20.5902 C   0  0  0  0  0  0  0  0  0  0  0  0
   19.4453   -1.4697  -21.0366 C   0  0  0  0  0  0  0  0  0  0  0  0
   18.9591   -2.3749  -20.1212 C   0  0  0  0  0  0  0  0  0  0  0  0
   19.1168   -2.1712  -18.7620 C   0  0  0  0  0  0  0  0  0  0  0  0
   21.4162   -1.0146  -14.9264 C   0  0  0  0  0  0  0  0  0  0  0  0
   21.3989   -1.8321  -13.9715 O   0  0  0  0  0  0  0  0  0  0  0  0
   21.6300    0.3688  -14.5670 N   0  0  0  0  0  0  0  0  0  0  0  0
   21.8177    0.7137  -13.1862 C   0  0  0  0  0  0  0  0  0  0  0  0
   22.0854    2.1264  -12.9176 C   0  0  0  0  0  0  0  0  0  0  0  0
   22.3307    2.8855  -13.9239 O   0  0  0  0  0  0  0  0  0  0  0  0
   19.8742    5.8945  -11.5174 C   0  0  0  0  0  0  0  0  0  0  0  0
   20.2996    4.9630  -10.3938 C   0  0  2  0  0  0  0  0  0  0  0  0
   19.6818    5.4058   -9.1134 C   0  0  0  0  0  0  0  0  0  0  0  0
   21.7696    4.7823  -10.3471 C   0  0  0  0  0  0  0  0  0  0  0  0
   22.4132    4.1898  -11.5533 C   0  0  2  0  0  0  0  0  0  0  0  0
   22.1032    2.7538  -11.6504 N   0  0  0  0  0  0  0  0  0  0  0  0
   23.8892    4.2717  -11.4888 C   0  0  0  0  0  0  0  0  0  0  0  0
   24.5879    5.4621  -11.6215 O   0  0  0  0  0  0  0  0  0  0  0  0
   24.5608    3.2306  -11.3067 O   0  0  0  0  0  0  0  0  0  0  0  0
  2  1  1  1
  3  2  1  0
  4  3  1  0
  5  4  2  0
  6  5  1  0
  7  8  1  0
  7  6  2  0
  8  9  2  0
  9  4  1  0
 10  2  1  0
 10 12  1  0
 11 10  2  0
 13 12  1  0
 13 14  1  0
 14 21  1  0
 15 14  2  0
 17 16  1  6
 17 19  1  0
 18 17  1  0
 20 19  1  1
 20 22  1  0
 21 20  1  0
 22 24  2  0
 22 23  1  0
M  END
$$$$
