FGL.pdb
     RDKit          3D

 24 24  0  0  1  0  0  0  0  0999 V2000
   28.8483  -21.3006   -8.8763 N   0  0  0  0  0  0  0  0  0  0  0  0
   27.4635  -20.9580   -8.8182 C   0  0  1  0  0  0  0  0  0  0  0  0
   27.2403  -19.5811   -8.2002 C   0  0  0  0  0  0  0  0  0  0  0  0
   27.7124  -19.5237   -6.7941 C   0  0  0  0  0  0  0  0  0  0  0  0
   27.1547  -20.2134   -5.7499 C   0  0  0  0  0  0  0  0  0  0  0  0
   27.6398  -20.1201   -4.4504 C   0  0  0  0  0  0  0  0  0  0  0  0
   28.7161  -19.3090   -4.1995 C   0  0  0  0  0  0  0  0  0  0  0  0
   29.2879  -18.6094   -5.2374 C   0  0  0  0  0  0  0  0  0  0  0  0
   28.7944  -18.7120   -6.5257 C   0  0  0  0  0  0  0  0  0  0  0  0
   26.8774  -20.9785  -10.1602 C   0  0  0  0  0  0  0  0  0  0  0  0
   27.5553  -20.7243  -11.1879 O   0  0  0  0  0  0  0  0  0  0  0  0
   25.4849  -21.2923  -10.3863 N   0  0  0  0  0  0  0  0  0  0  0  0
   24.9904  -21.3582  -11.7324 C   0  0  0  0  0  0  0  0  0  0  0  0
   23.7353  -20.6493  -11.9809 C   0  0  0  0  0  0  0  0  0  0  0  0
   23.2108  -20.0097  -10.9988 O   0  0  0  0  0  0  0  0  0  0  0  0
   22.0102  -17.2022  -14.5833 C   0  0  0  0  0  0  0  0  0  0  0  0
   22.1414  -18.5340  -15.3047 C   0  0  2  0  0  0  0  0  0  0  0  0
   21.8713  -18.3471  -16.7570 C   0  0  0  0  0  0  0  0  0  0  0  0
   21.3440  -19.6002  -14.6542 C   0  0  0  0  0  0  0  0  0  0  0  0
   21.7050  -19.9494  -13.2514 C   0  0  2  0  0  0  0  0  0  0  0  0
   23.0285  -20.5926  -13.2043 N   0  0  0  0  0  0  0  0  0  0  0  0
   20.7667  -20.9333  -12.6677 C   0  0  0  0  0  0  0  0  0  0  0  0
   19.5678  -20.5743  -12.0705 O   0  0  0  0  0  0  0  0  0  0  0  0
   21.0464  -22.1534  -12.7025 O   0  0  0  0  0  0  0  0  0  0  0  0
  2  1  1  6
  3  2  1  0
  4  3  1  0
  5  4  2  0
  6  5  1  0
  7  8  1  0
  7  6  2  0
  8  9  2  0
  9  4  1  0
 10  2  1  0
 10 12  1  0
 11 10  2  0
 13 12  1  0
 13 14  1  0
 14 21  1  0
 15 14  2  0
 17 16  1  1
 17 19  1  0
 18 17  1  0
 20 19  1  6
 20 22  1  0
 21 20  1  0
 22 24  2  0
 22 23  1  0
M  END
$$$$
