FGL.pdb
     RDKit          3D

 24 24  0  0  1  0  0  0  0  0999 V2000
   23.6171  -21.8682  -14.4255 N   0  0  0  0  0  0  0  0  0  0  0  0
   24.5396  -21.0284  -15.1200 C   0  0  1  0  0  0  0  0  0  0  0  0
   23.8866  -19.7360  -15.6005 C   0  0  0  0  0  0  0  0  0  0  0  0
   22.7256  -20.0001  -16.4869 C   0  0  0  0  0  0  0  0  0  0  0  0
   22.8070  -20.5062  -17.7575 C   0  0  0  0  0  0  0  0  0  0  0  0
   21.6830  -20.7328  -18.5436 C   0  0  0  0  0  0  0  0  0  0  0  0
   20.4449  -20.4406  -18.0329 C   0  0  0  0  0  0  0  0  0  0  0  0
   20.3459  -19.9317  -16.7581 C   0  0  0  0  0  0  0  0  0  0  0  0
   21.4732  -19.7113  -15.9872 C   0  0  0  0  0  0  0  0  0  0  0  0
   25.6749  -20.6961  -14.2565 C   0  0  0  0  0  0  0  0  0  0  0  0
   26.6207  -19.9671  -14.6493 O   0  0  0  0  0  0  0  0  0  0  0  0
   25.7782  -21.1851  -12.9005 N   0  0  0  0  0  0  0  0  0  0  0  0
   26.8803  -20.7608  -12.0840 C   0  0  0  0  0  0  0  0  0  0  0  0
   26.7662  -21.0670  -10.6583 C   0  0  0  0  0  0  0  0  0  0  0  0
   26.4155  -22.2589  -10.3337 O   0  0  0  0  0  0  0  0  0  0  0  0
   28.6253  -18.7452   -5.4527 C   0  0  0  0  0  0  0  0  0  0  0  0
   28.2873  -19.8574   -6.4325 C   0  0  2  0  0  0  0  0  0  0  0  0
   29.4958  -20.2108   -7.2273 C   0  0  0  0  0  0  0  0  0  0  0  0
   27.0822  -19.5442   -7.2359 C   0  0  0  0  0  0  0  0  0  0  0  0
   26.6395  -20.5763   -8.2151 C   0  0  2  0  0  0  0  0  0  0  0  0
   27.0044  -20.1781   -9.5847 N   0  0  0  0  0  0  0  0  0  0  0  0
   25.1680  -20.7312   -8.2276 C   0  0  0  0  0  0  0  0  0  0  0  0
   24.4930  -21.6182   -7.4028 O   0  0  0  0  0  0  0  0  0  0  0  0
   24.4782  -20.0397   -9.0113 O   0  0  0  0  0  0  0  0  0  0  0  0
  2  1  1  1
  3  2  1  0
  4  3  1  0
  5  4  2  0
  6  5  1  0
  7  8  1  0
  7  6  2  0
  8  9  2  0
  9  4  1  0
 10  2  1  0
 10 12  1  0
 11 10  2  0
 13 12  1  0
 13 14  1  0
 14 21  1  0
 15 14  2  0
 17 16  1  6
 17 19  1  0
 18 17  1  0
 20 19  1  1
 20 22  1  0
 21 20  1  0
 22 24  2  0
 22 23  1  0
M  END
$$$$
