FGL.pdb
     RDKit          3D

 24 24  0  0  1  0  0  0  0  0999 V2000
   22.1902  -20.8733  -12.5191 N   0  0  0  0  0  0  0  0  0  0  0  0
   23.4960  -20.7169  -13.0749 C   0  0  1  0  0  0  0  0  0  0  0  0
   23.4903  -19.8120  -14.3032 C   0  0  0  0  0  0  0  0  0  0  0  0
   22.6641  -20.3751  -15.4002 C   0  0  0  0  0  0  0  0  0  0  0  0
   21.3593  -20.0408  -15.6515 C   0  0  0  0  0  0  0  0  0  0  0  0
   20.6331  -20.6025  -16.6954 C   0  0  0  0  0  0  0  0  0  0  0  0
   21.2408  -21.5258  -17.5064 C   0  0  0  0  0  0  0  0  0  0  0  0
   22.5509  -21.8725  -17.2674 C   0  0  0  0  0  0  0  0  0  0  0  0
   23.2613  -21.3052  -16.2247 C   0  0  0  0  0  0  0  0  0  0  0  0
   24.4106  -20.1590  -12.0764 C   0  0  0  0  0  0  0  0  0  0  0  0
   24.0531  -19.2613  -11.2722 O   0  0  0  0  0  0  0  0  0  0  0  0
   25.7796  -20.6055  -11.9534 N   0  0  0  0  0  0  0  0  0  0  0  0
   26.6091  -20.0485  -10.9224 C   0  0  0  0  0  0  0  0  0  0  0  0
   26.4388  -20.6291   -9.5907 C   0  0  0  0  0  0  0  0  0  0  0  0
   25.7982  -21.7385   -9.5046 O   0  0  0  0  0  0  0  0  0  0  0  0
   29.6973  -21.0484   -6.3305 C   0  0  0  0  0  0  0  0  0  0  0  0
   28.8227  -19.8123   -6.1954 C   0  0  2  0  0  0  0  0  0  0  0  0
   29.4007  -18.8973   -5.1729 C   0  0  0  0  0  0  0  0  0  0  0  0
   27.3971  -20.1592   -5.9871 C   0  0  0  0  0  0  0  0  0  0  0  0
   26.6964  -20.8317   -7.1171 C   0  0  2  0  0  0  0  0  0  0  0  0
   26.9112  -20.0911   -8.3712 N   0  0  0  0  0  0  0  0  0  0  0  0
   25.2301  -20.8588   -6.9205 C   0  0  0  0  0  0  0  0  0  0  0  0
   24.3442  -20.1695   -7.7347 O   0  0  0  0  0  0  0  0  0  0  0  0
   24.7424  -21.5286   -5.9815 O   0  0  0  0  0  0  0  0  0  0  0  0
  2  1  1  1
  3  2  1  0
  4  3  1  0
  5  4  2  0
  6  5  1  0
  7  8  1  0
  7  6  2  0
  8  9  2  0
  9  4  1  0
 10  2  1  0
 10 12  1  0
 11 10  2  0
 13 12  1  0
 13 14  1  0
 14 21  1  0
 15 14  2  0
 17 16  1  1
 17 19  1  0
 18 17  1  0
 20 19  1  1
 20 22  1  0
 21 20  1  0
 22 24  2  0
 22 23  1  0
M  END
$$$$
