FGL.pdb
     RDKit          3D

 24 24  0  0  1  0  0  0  0  0999 V2000
   20.5332  -19.5913  -14.1314 N   0  0  0  0  0  0  0  0  0  0  0  0
   21.9279  -19.2884  -14.0912 C   0  0  1  0  0  0  0  0  0  0  0  0
   22.7647  -20.4988  -13.6880 C   0  0  0  0  0  0  0  0  0  0  0  0
   22.3584  -21.0351  -12.3650 C   0  0  0  0  0  0  0  0  0  0  0  0
   22.9716  -20.7395  -11.1760 C   0  0  0  0  0  0  0  0  0  0  0  0
   22.5469  -21.2734   -9.9647 C   0  0  0  0  0  0  0  0  0  0  0  0
   21.4750  -22.1280   -9.9544 C   0  0  0  0  0  0  0  0  0  0  0  0
   20.8481  -22.4352  -11.1403 C   0  0  0  0  0  0  0  0  0  0  0  0
   21.2817  -21.8963  -12.3383 C   0  0  0  0  0  0  0  0  0  0  0  0
   22.3825  -18.8090  -15.3983 C   0  0  0  0  0  0  0  0  0  0  0  0
   21.7113  -17.9931  -16.0797 O   0  0  0  0  0  0  0  0  0  0  0  0
   23.6296  -19.2434  -15.9852 N   0  0  0  0  0  0  0  0  0  0  0  0
   24.7701  -18.3729  -15.9331 C   0  0  0  0  0  0  0  0  0  0  0  0
   25.9345  -18.8976  -15.2200 C   0  0  0  0  0  0  0  0  0  0  0  0
   27.0700  -18.3439  -15.4499 O   0  0  0  0  0  0  0  0  0  0  0  0
   26.9660  -19.1186  -11.2436 C   0  0  0  0  0  0  0  0  0  0  0  0
   26.3551  -20.4849  -11.5105 C   0  0  2  0  0  0  0  0  0  0  0  0
   26.1827  -21.2175  -10.2258 C   0  0  0  0  0  0  0  0  0  0  0  0
   27.0925  -21.2290  -12.5586 C   0  0  0  0  0  0  0  0  0  0  0  0
   27.2236  -20.5674  -13.8872 C   0  0  2  0  0  0  0  0  0  0  0  0
   25.9428  -19.9643  -14.2917 N   0  0  0  0  0  0  0  0  0  0  0  0
   27.5596  -21.5344  -14.9556 C   0  0  0  0  0  0  0  0  0  0  0  0
   28.8206  -22.0919  -15.1029 O   0  0  0  0  0  0  0  0  0  0  0  0
   26.6805  -21.8810  -15.7773 O   0  0  0  0  0  0  0  0  0  0  0  0
  2  1  1  6
  3  2  1  0
  4  3  1  0
  5  4  2  0
  6  5  1  0
  7  8  1  0
  7  6  2  0
  8  9  2  0
  9  4  1  0
 10  2  1  0
 10 12  1  0
 11 10  2  0
 13 12  1  0
 13 14  1  0
 14 21  1  0
 15 14  2  0
 17 16  1  1
 17 19  1  0
 18 17  1  0
 20 19  1  1
 20 22  1  0
 21 20  1  0
 22 24  2  0
 22 23  1  0
M  END
$$$$
