FGL.pdb
     RDKit          3D

 24 24  0  0  1  0  0  0  0  0999 V2000
   30.2171  -21.4948   -1.6016 N   0  0  0  0  0  0  0  0  0  0  0  0
   31.4772  -20.8714   -1.8508 C   0  0  1  0  0  0  0  0  0  0  0  0
   31.3202  -19.5210   -2.5432 C   0  0  0  0  0  0  0  0  0  0  0  0
   30.4715  -19.6181   -3.7571 C   0  0  0  0  0  0  0  0  0  0  0  0
   29.2879  -18.9533   -3.9429 C   0  0  0  0  0  0  0  0  0  0  0  0
   28.5333  -19.0837   -5.1032 C   0  0  0  0  0  0  0  0  0  0  0  0
   28.9861  -19.9068   -6.1016 C   0  0  0  0  0  0  0  0  0  0  0  0
   30.1732  -20.5817   -5.9306 C   0  0  0  0  0  0  0  0  0  0  0  0
   30.9136  -20.4424   -4.7704 C   0  0  0  0  0  0  0  0  0  0  0  0
   32.2079  -20.6811   -0.5959 C   0  0  0  0  0  0  0  0  0  0  0  0
   33.0490  -19.7588   -0.4471 O   0  0  0  0  0  0  0  0  0  0  0  0
   32.0074  -21.5410    0.5483 N   0  0  0  0  0  0  0  0  0  0  0  0
   32.4507  -21.1024    1.8414 C   0  0  0  0  0  0  0  0  0  0  0  0
   32.9316  -22.1549    2.7361 C   0  0  0  0  0  0  0  0  0  0  0  0
   32.1954  -23.1978    2.8748 O   0  0  0  0  0  0  0  0  0  0  0  0
   37.7601  -24.1883    6.0784 C   0  0  0  0  0  0  0  0  0  0  0  0
   36.3597  -24.4355    5.5407 C   0  0  2  0  0  0  0  0  0  0  0  0
   36.2872  -25.7932    4.9339 C   0  0  0  0  0  0  0  0  0  0  0  0
   35.8983  -23.3346    4.6626 C   0  0  0  0  0  0  0  0  0  0  0  0
   34.4344  -23.2544    4.3971 C   0  0  2  0  0  0  0  0  0  0  0  0
   34.1374  -22.1460    3.4747 N   0  0  0  0  0  0  0  0  0  0  0  0
   33.6648  -22.9619    5.6266 C   0  0  0  0  0  0  0  0  0  0  0  0
   33.1271  -23.9508    6.4364 O   0  0  0  0  0  0  0  0  0  0  0  0
   33.4770  -21.7732    5.9727 O   0  0  0  0  0  0  0  0  0  0  0  0
  2  1  1  1
  3  2  1  0
  4  3  1  0
  5  4  2  0
  6  5  1  0
  7  8  1  0
  7  6  2  0
  8  9  2  0
  9  4  1  0
 10  2  1  0
 10 12  1  0
 11 10  2  0
 13 12  1  0
 13 14  1  0
 14 21  1  0
 15 14  2  0
 17 16  1  6
 17 19  1  0
 18 17  1  0
 20 19  1  1
 20 22  1  0
 21 20  1  0
 22 24  2  0
 22 23  1  0
M  END
$$$$
