ERW.pdb
     RDKit          3D

 35 36  0  0  1  0  0  0  0  0999 V2000
   22.9863  -22.7761  -17.8306 N   0  0  0  0  0  0  0  0  0  0  0  0
   22.4118  -22.3773  -16.5701 C   0  0  1  0  0  0  0  0  0  0  0  0
   22.2355  -20.8805  -16.4914 C   0  0  0  0  0  0  0  0  0  0  0  0
   23.5701  -20.1678  -16.4826 C   0  0  0  0  0  0  0  0  0  0  0  0
   23.4353  -18.7107  -16.4845 C   0  0  0  0  0  0  0  0  0  0  0  0
   22.3028  -18.1418  -16.5606 O   0  0  0  0  0  0  0  0  0  0  0  0
   21.0451  -22.9696  -16.3723 C   0  0  0  0  0  0  0  0  0  0  0  0
   20.0929  -22.7235  -17.1850 O   0  0  0  0  0  0  0  0  0  0  0  0
   24.5446  -17.8810  -16.4007 O   0  0  0  0  0  0  0  0  0  0  0  0
   21.8737  -29.3321  -16.7234 N   0  0  0  0  0  0  0  0  0  0  0  0
   21.2768  -29.2890  -15.4415 C   0  0  0  0  0  0  0  0  0  0  0  0
   21.7709  -29.8991  -14.4125 N   0  0  0  0  0  0  0  0  0  0  0  0
   20.0670  -28.5643  -15.2003 N   0  0  0  0  0  0  0  0  0  0  0  0
   19.4006  -27.8466  -16.2113 C   0  0  0  0  0  0  0  0  0  0  0  0
   19.7014  -26.3767  -16.3189 C   0  0  0  0  0  0  0  0  0  0  0  0
   19.3038  -25.7780  -14.9871 C   0  0  0  0  0  0  0  0  0  0  0  0
   19.4340  -24.2834  -14.9199 C   0  0  2  0  0  0  0  0  0  0  0  0
   20.7589  -23.8245  -15.2798 N   0  0  0  0  0  0  0  0  0  0  0  0
   19.1333  -23.8562  -13.5187 C   0  0  0  0  0  0  0  0  0  0  0  0
   19.9510  -24.1049  -12.5682 O   0  0  0  0  0  0  0  0  0  0  0  0
   21.2580  -29.8583  -13.5078 N   0  0  0  0  0  0  0  0  0  0  0  0
   17.9511  -23.1682  -13.1529 C   0  0  1  0  0  0  0  0  0  0  0  0
   17.7583  -22.6205  -11.8205 C   0  0  0  0  0  0  0  0  0  0  0  0
   17.7371  -21.1407  -11.8943 C   0  0  0  0  0  0  0  0  0  0  0  0
   18.9518  -20.4858  -12.3811 C   0  0  0  0  0  0  0  0  0  0  0  0
   20.2344  -20.6022  -11.9406 N   0  0  0  0  0  0  0  0  0  0  0  0
   20.9933  -19.8071  -12.7242 C   0  0  0  0  0  0  0  0  0  0  0  0
   20.2297  -19.1924  -13.6425 C   0  0  0  0  0  0  0  0  0  0  0  0
   20.4755  -18.2872  -14.6735 C   0  0  0  0  0  0  0  0  0  0  0  0
   19.4575  -17.8181  -15.4714 C   0  0  0  0  0  0  0  0  0  0  0  0
   18.1527  -18.2294  -15.2792 C   0  0  0  0  0  0  0  0  0  0  0  0
   17.8914  -19.1292  -14.2594 C   0  0  0  0  0  0  0  0  0  0  0  0
   18.9275  -19.5954  -13.4601 C   0  0  0  0  0  0  0  0  0  0  0  0
   16.5797  -23.2315  -11.1529 O   0  0  0  0  0  0  0  0  0  0  0  0
   15.8811  -24.1006  -11.7484 O   0  0  0  0  0  0  0  0  0  0  0  0
  2  3  1  0
  2  1  1  6
  4  3  1  0
  5  4  1  0
  5  6  2  0
  7  2  1  0
  8  7  2  0
  9  5  1  0
 10 11  1  0
 11 12  2  0
 11 13  1  0
 13 14  1  0
 15 14  1  0
 16 15  1  0
 17 16  1  1
 17 18  1  0
 18  7  1  0
 19 21  1  0
 19 17  1  0
 20 19  2  0
 22 21  1  0
 22 23  1  1
 23 24  1  0
 24 25  2  0
 24 32  1  0
 25 26  1  0
 26 27  1  0
 27 28  2  0
 29 28  1  0
 30 29  2  0
 31 32  2  0
 31 30  1  0
 32 27  1  0
 33 22  1  0
 34 33  2  0
 35 33  1  0
M  END
$$$$
