ERW.pdb
     RDKit          3D

 35 36  0  0  1  0  0  0  0  0999 V2000
   24.3093  -16.2267  -15.9687 N   0  0  0  0  0  0  0  0  0  0  0  0
   25.2215  -17.2042  -15.4299 C   0  0  1  0  0  0  0  0  0  0  0  0
   26.3218  -16.5517  -14.6290 C   0  0  0  0  0  0  0  0  0  0  0  0
   27.4161  -16.0188  -15.5276 C   0  0  0  0  0  0  0  0  0  0  0  0
   27.9154  -17.0212  -16.4695 C   0  0  0  0  0  0  0  0  0  0  0  0
   27.5684  -17.0257  -17.6909 O   0  0  0  0  0  0  0  0  0  0  0  0
   24.5278  -18.1512  -14.4920 C   0  0  0  0  0  0  0  0  0  0  0  0
   23.9701  -17.7344  -13.4228 O   0  0  0  0  0  0  0  0  0  0  0  0
   28.7965  -18.0157  -16.0688 O   0  0  0  0  0  0  0  0  0  0  0  0
   22.3227  -26.3394  -12.4925 N   0  0  0  0  0  0  0  0  0  0  0  0
   21.4324  -25.6770  -13.3699 C   0  0  0  0  0  0  0  0  0  0  0  0
   20.1524  -25.8682  -13.3526 N   0  0  0  0  0  0  0  0  0  0  0  0
   21.8986  -24.7463  -14.3514 N   0  0  0  0  0  0  0  0  0  0  0  0
   23.1983  -24.2064  -14.3249 C   0  0  0  0  0  0  0  0  0  0  0  0
   23.4117  -22.9772  -13.4846 C   0  0  0  0  0  0  0  0  0  0  0  0
   23.7341  -21.8650  -14.4589 C   0  0  0  0  0  0  0  0  0  0  0  0
   24.0049  -20.5375  -13.8110 C   0  0  2  0  0  0  0  0  0  0  0  0
   24.4629  -19.5413  -14.7563 N   0  0  0  0  0  0  0  0  0  0  0  0
   25.0562  -20.7392  -12.7668 C   0  0  0  0  0  0  0  0  0  0  0  0
   26.2797  -20.9127  -13.0938 O   0  0  0  0  0  0  0  0  0  0  0  0
   19.5547  -25.3408  -14.0218 N   0  0  0  0  0  0  0  0  0  0  0  0
   24.7791  -20.7567  -11.3784 C   0  0  2  0  0  0  0  0  0  0  0  0
   25.7684  -21.1758  -10.3996 C   0  0  0  0  0  0  0  0  0  0  0  0
   26.8845  -20.2014  -10.3787 C   0  0  0  0  0  0  0  0  0  0  0  0
   28.0021  -20.4957   -9.4810 C   0  0  0  0  0  0  0  0  0  0  0  0
   29.1119  -21.2529   -9.6992 N   0  0  0  0  0  0  0  0  0  0  0  0
   29.8500  -21.2040   -8.5699 C   0  0  0  0  0  0  0  0  0  0  0  0
   29.2397  -20.4421   -7.6473 C   0  0  0  0  0  0  0  0  0  0  0  0
   29.5382  -20.0585   -6.3409 C   0  0  0  0  0  0  0  0  0  0  0  0
   28.6910  -19.2468   -5.6225 C   0  0  0  0  0  0  0  0  0  0  0  0
   27.5120  -18.7812   -6.1721 C   0  0  0  0  0  0  0  0  0  0  0  0
   27.2007  -19.1525   -7.4695 C   0  0  0  0  0  0  0  0  0  0  0  0
   28.0640  -19.9729   -8.1846 C   0  0  0  0  0  0  0  0  0  0  0  0
   25.1408  -21.4380   -9.0785 O   0  0  0  0  0  0  0  0  0  0  0  0
   25.7280  -22.1528   -8.2171 O   0  0  0  0  0  0  0  0  0  0  0  0
  2  3  1  0
  2  1  1  1
  4  3  1  0
  5  4  1  0
  5  6  2  0
  7  2  1  0
  8  7  2  0
  9  5  1  0
 10 11  1  0
 11 12  2  0
 11 13  1  0
 13 14  1  0
 15 14  1  0
 16 15  1  0
 17 16  1  6
 17 18  1  0
 18  7  1  0
 19 21  1  0
 19 17  1  0
 20 19  2  0
 22 21  1  0
 22 23  1  1
 23 24  1  0
 24 25  2  0
 24 32  1  0
 25 26  1  0
 26 27  1  0
 27 28  2  0
 29 28  1  0
 30 29  2  0
 31 32  2  0
 31 30  1  0
 32 27  1  0
 33 22  1  0
 34 33  2  0
 35 33  1  0
M  END
$$$$
