ERW.pdb
     RDKit          3D

 35 36  0  0  1  0  0  0  0  0999 V2000
   27.3855  -17.7441  -15.5189 N   0  0  0  0  0  0  0  0  0  0  0  0
   26.2855  -17.3287  -14.6848 C   0  0  1  0  0  0  0  0  0  0  0  0
   25.3293  -16.4342  -15.4353 C   0  0  0  0  0  0  0  0  0  0  0  0
   25.2516  -16.8140  -16.8978 C   0  0  0  0  0  0  0  0  0  0  0  0
   23.9021  -17.1975  -17.3136 C   0  0  0  0  0  0  0  0  0  0  0  0
   23.6499  -17.5894  -18.4947 O   0  0  0  0  0  0  0  0  0  0  0  0
   25.4753  -18.5023  -14.2116 C   0  0  0  0  0  0  0  0  0  0  0  0
   24.4978  -18.3504  -13.4059 O   0  0  0  0  0  0  0  0  0  0  0  0
   22.8322  -17.1518  -16.4309 O   0  0  0  0  0  0  0  0  0  0  0  0
   22.9341  -26.3623  -14.6930 N   0  0  0  0  0  0  0  0  0  0  0  0
   23.0297  -25.6045  -15.8837 C   0  0  0  0  0  0  0  0  0  0  0  0
   22.0952  -25.5763  -16.7788 N   0  0  0  0  0  0  0  0  0  0  0  0
   24.1860  -24.8163  -16.1817 N   0  0  0  0  0  0  0  0  0  0  0  0
   25.2203  -24.6082  -15.2498 C   0  0  0  0  0  0  0  0  0  0  0  0
   25.0062  -23.5344  -14.2183 C   0  0  0  0  0  0  0  0  0  0  0  0
   25.4225  -22.2395  -14.8815 C   0  0  0  0  0  0  0  0  0  0  0  0
   25.2279  -21.0195  -14.0276 C   0  0  2  0  0  0  0  0  0  0  0  0
   25.7614  -19.8216  -14.6408 N   0  0  0  0  0  0  0  0  0  0  0  0
   25.9236  -21.2521  -12.7244 C   0  0  0  0  0  0  0  0  0  0  0  0
   27.1450  -21.6278  -12.6918 O   0  0  0  0  0  0  0  0  0  0  0  0
   22.2481  -25.0282  -17.6503 N   0  0  0  0  0  0  0  0  0  0  0  0
   25.2953  -21.0821  -11.4671 C   0  0  1  0  0  0  0  0  0  0  0  0
   25.9837  -21.3587  -10.2172 C   0  0  0  0  0  0  0  0  0  0  0  0
   27.2597  -20.6062  -10.1803 C   0  0  0  0  0  0  0  0  0  0  0  0
   28.2574  -21.0445   -9.2037 C   0  0  0  0  0  0  0  0  0  0  0  0
   29.2471  -21.9700   -9.3324 N   0  0  0  0  0  0  0  0  0  0  0  0
   29.9095  -22.0041   -8.1567 C   0  0  0  0  0  0  0  0  0  0  0  0
   29.3677  -21.1313   -7.2914 C   0  0  0  0  0  0  0  0  0  0  0  0
   29.6377  -20.7619   -5.9748 C   0  0  0  0  0  0  0  0  0  0  0  0
   28.8833  -19.8090   -5.3302 C   0  0  0  0  0  0  0  0  0  0  0  0
   27.8293  -19.1823   -5.9667 C   0  0  0  0  0  0  0  0  0  0  0  0
   27.5480  -19.5374   -7.2755 C   0  0  0  0  0  0  0  0  0  0  0  0
   28.3167  -20.5013   -7.9156 C   0  0  0  0  0  0  0  0  0  0  0  0
   25.0909  -21.1358   -9.0505 O   0  0  0  0  0  0  0  0  0  0  0  0
   24.1221  -20.3274   -9.1261 O   0  0  0  0  0  0  0  0  0  0  0  0
  2  3  1  0
  2  1  1  6
  4  3  1  0
  5  4  1  0
  5  6  2  0
  7  2  1  0
  8  7  2  0
  9  5  1  0
 10 11  1  0
 11 12  2  0
 11 13  1  0
 13 14  1  0
 15 14  1  0
 16 15  1  0
 17 16  1  6
 17 18  1  0
 18  7  1  0
 19 21  1  0
 19 17  1  0
 20 19  2  0
 22 21  1  0
 22 23  1  1
 23 24  1  0
 24 25  2  0
 24 32  1  0
 25 26  1  0
 26 27  1  0
 27 28  2  0
 29 28  1  0
 30 29  2  0
 31 32  2  0
 31 30  1  0
 32 27  1  0
 33 22  1  0
 34 33  2  0
 35 33  1  0
M  END
$$$$
