ERW.pdb
     RDKit          3D

 35 36  0  0  1  0  0  0  0  0999 V2000
   27.6883  -19.0625  -17.3957 N   0  0  0  0  0  0  0  0  0  0  0  0
   28.0505  -18.8231  -16.0211 C   0  0  1  0  0  0  0  0  0  0  0  0
   28.4275  -17.3798  -15.7917 C   0  0  0  0  0  0  0  0  0  0  0  0
   29.4958  -16.9279  -16.7631 C   0  0  0  0  0  0  0  0  0  0  0  0
   28.9695  -16.0743  -17.8288 C   0  0  0  0  0  0  0  0  0  0  0  0
   29.5845  -15.9182  -18.9286 O   0  0  0  0  0  0  0  0  0  0  0  0
   26.9071  -19.1091  -15.0892 C   0  0  0  0  0  0  0  0  0  0  0  0
   25.8944  -18.3355  -15.0267 O   0  0  0  0  0  0  0  0  0  0  0  0
   27.7677  -15.3954  -17.6854 O   0  0  0  0  0  0  0  0  0  0  0  0
   24.2754  -25.8557  -14.1697 N   0  0  0  0  0  0  0  0  0  0  0  0
   23.2915  -24.9202  -13.7721 C   0  0  0  0  0  0  0  0  0  0  0  0
   22.4543  -25.1428  -12.8104 N   0  0  0  0  0  0  0  0  0  0  0  0
   23.1526  -23.6538  -14.4231 N   0  0  0  0  0  0  0  0  0  0  0  0
   24.0320  -23.2223  -15.4341 C   0  0  0  0  0  0  0  0  0  0  0  0
   24.7138  -21.8974  -15.2284 C   0  0  0  0  0  0  0  0  0  0  0  0
   25.1276  -21.8703  -13.7730 C   0  0  0  0  0  0  0  0  0  0  0  0
   25.8237  -20.6075  -13.3536 C   0  0  2  0  0  0  0  0  0  0  0  0
   26.9053  -20.2470  -14.2457 N   0  0  0  0  0  0  0  0  0  0  0  0
   26.3743  -20.8182  -11.9792 C   0  0  0  0  0  0  0  0  0  0  0  0
   27.4111  -21.5422  -11.7927 O   0  0  0  0  0  0  0  0  0  0  0  0
   21.7230  -24.4316  -12.6038 N   0  0  0  0  0  0  0  0  0  0  0  0
   25.7996  -20.2503  -10.8165 C   0  0  2  0  0  0  0  0  0  0  0  0
   25.8996  -20.8900   -9.5153 C   0  0  0  0  0  0  0  0  0  0  0  0
   27.0715  -20.3479   -8.7883 C   0  0  0  0  0  0  0  0  0  0  0  0
   27.1060  -20.5575   -7.3405 C   0  0  0  0  0  0  0  0  0  0  0  0
   26.4530  -21.4810   -6.5833 N   0  0  0  0  0  0  0  0  0  0  0  0
   26.8260  -21.2747   -5.3025 C   0  0  0  0  0  0  0  0  0  0  0  0
   27.6912  -20.2499   -5.2286 C   0  0  0  0  0  0  0  0  0  0  0  0
   28.3759  -19.6192   -4.1912 C   0  0  0  0  0  0  0  0  0  0  0  0
   29.2187  -18.5586   -4.4313 C   0  0  0  0  0  0  0  0  0  0  0  0
   29.4174  -18.0806   -5.7122 C   0  0  0  0  0  0  0  0  0  0  0  0
   28.7450  -18.6965   -6.7546 C   0  0  0  0  0  0  0  0  0  0  0  0
   27.8964  -19.7663   -6.4995 C   0  0  0  0  0  0  0  0  0  0  0  0
   24.6128  -20.8112   -8.7766 O   0  0  0  0  0  0  0  0  0  0  0  0
   24.4963  -21.3282   -7.6289 O   0  0  0  0  0  0  0  0  0  0  0  0
  2  3  1  0
  2  1  1  6
  4  3  1  0
  5  4  1  0
  5  6  2  0
  7  2  1  0
  8  7  2  0
  9  5  1  0
 10 11  1  0
 11 12  2  0
 11 13  1  0
 13 14  1  0
 15 14  1  0
 16 15  1  0
 17 16  1  6
 17 18  1  0
 18  7  1  0
 19 21  1  0
 19 17  1  0
 20 19  2  0
 22 21  1  0
 22 23  1  1
 23 24  1  0
 24 25  2  0
 24 32  1  0
 25 26  1  0
 26 27  1  0
 27 28  2  0
 29 28  1  0
 30 29  2  0
 31 32  2  0
 31 30  1  0
 32 27  1  0
 33 22  1  0
 34 33  2  0
 35 33  1  0
M  END
$$$$
