ERW.pdb
     RDKit          3D

 35 36  0  0  1  0  0  0  0  0999 V2000
   22.8838  -25.6649  -16.4015 N   0  0  0  0  0  0  0  0  0  0  0  0
   23.9304  -24.7291  -16.0743 C   0  0  1  0  0  0  0  0  0  0  0  0
   24.8457  -24.4895  -17.2501 C   0  0  0  0  0  0  0  0  0  0  0  0
   25.8754  -25.5904  -17.3805 C   0  0  0  0  0  0  0  0  0  0  0  0
   26.9505  -25.4817  -16.3938 C   0  0  0  0  0  0  0  0  0  0  0  0
   27.0557  -26.2944  -15.4240 O   0  0  0  0  0  0  0  0  0  0  0  0
   23.3737  -23.3851  -15.6980 C   0  0  0  0  0  0  0  0  0  0  0  0
   22.6032  -22.7431  -16.4867 O   0  0  0  0  0  0  0  0  0  0  0  0
   27.9094  -24.4817  -16.4752 O   0  0  0  0  0  0  0  0  0  0  0  0
   18.0413  -22.7125  -11.4162 N   0  0  0  0  0  0  0  0  0  0  0  0
   18.0195  -22.5863  -12.8251 C   0  0  0  0  0  0  0  0  0  0  0  0
   16.9270  -22.6119  -13.5187 N   0  0  0  0  0  0  0  0  0  0  0  0
   19.2222  -22.4284  -13.5838 N   0  0  0  0  0  0  0  0  0  0  0  0
   20.4982  -22.4376  -12.9896 C   0  0  0  0  0  0  0  0  0  0  0  0
   21.1556  -21.1043  -12.7595 C   0  0  0  0  0  0  0  0  0  0  0  0
   22.6430  -21.3805  -12.7251 C   0  0  0  0  0  0  0  0  0  0  0  0
   23.2912  -21.4352  -14.0786 C   0  0  2  0  0  0  0  0  0  0  0  0
   23.6788  -22.7783  -14.4549 N   0  0  0  0  0  0  0  0  0  0  0  0
   24.5089  -20.5677  -14.0429 C   0  0  0  0  0  0  0  0  0  0  0  0
   25.5009  -20.8617  -13.2922 O   0  0  0  0  0  0  0  0  0  0  0  0
   16.9831  -22.5001  -14.5520 N   0  0  0  0  0  0  0  0  0  0  0  0
   24.6451  -19.3878  -14.8135 C   0  0  1  0  0  0  0  0  0  0  0  0
   25.8539  -18.5814  -14.7821 C   0  0  0  0  0  0  0  0  0  0  0  0
   26.2014  -18.2687  -13.3759 C   0  0  0  0  0  0  0  0  0  0  0  0
   26.9377  -19.2926  -12.6337 C   0  0  0  0  0  0  0  0  0  0  0  0
   28.1689  -19.8201  -12.8754 N   0  0  0  0  0  0  0  0  0  0  0  0
   28.4101  -20.7203  -11.8989 C   0  0  0  0  0  0  0  0  0  0  0  0
   27.3696  -20.7780  -11.0513 C   0  0  0  0  0  0  0  0  0  0  0  0
   27.0829  -21.5115   -9.9013 C   0  0  0  0  0  0  0  0  0  0  0  0
   25.8938  -21.3504   -9.2282 C   0  0  0  0  0  0  0  0  0  0  0  0
   24.9401  -20.4532   -9.6687 C   0  0  0  0  0  0  0  0  0  0  0  0
   25.2096  -19.7159  -10.8097 C   0  0  0  0  0  0  0  0  0  0  0  0
   26.4136  -19.8877  -11.4810 C   0  0  0  0  0  0  0  0  0  0  0  0
   26.9431  -19.2135  -15.5708 O   0  0  0  0  0  0  0  0  0  0  0  0
   27.3458  -20.3792  -15.2936 O   0  0  0  0  0  0  0  0  0  0  0  0
  2  3  1  0
  2  1  1  6
  4  3  1  0
  5  4  1  0
  5  6  2  0
  7  2  1  0
  8  7  2  0
  9  5  1  0
 10 11  1  0
 11 12  2  0
 11 13  1  0
 13 14  1  0
 15 14  1  0
 16 15  1  0
 17 16  1  1
 17 18  1  0
 18  7  1  0
 19 21  1  0
 19 17  1  0
 20 19  2  0
 22 21  1  0
 22 23  1  1
 23 24  1  0
 24 25  2  0
 24 32  1  0
 25 26  1  0
 26 27  1  0
 27 28  2  0
 29 28  1  0
 30 29  2  0
 31 32  2  0
 31 30  1  0
 32 27  1  0
 33 22  1  0
 34 33  2  0
 35 33  1  0
M  END
$$$$
