ERW.pdb
     RDKit          3D

 35 36  0  0  1  0  0  0  0  0999 V2000
   21.3153  -18.6570  -15.0027 N   0  0  0  0  0  0  0  0  0  0  0  0
   22.7467  -18.7754  -14.8797 C   0  0  1  0  0  0  0  0  0  0  0  0
   23.3969  -17.4299  -14.6683 C   0  0  0  0  0  0  0  0  0  0  0  0
   23.6472  -16.7257  -15.9838 C   0  0  0  0  0  0  0  0  0  0  0  0
   24.5175  -17.4886  -16.8793 C   0  0  0  0  0  0  0  0  0  0  0  0
   24.0503  -18.2294  -17.7985 O   0  0  0  0  0  0  0  0  0  0  0  0
   23.1331  -19.6163  -13.6959 C   0  0  0  0  0  0  0  0  0  0  0  0
   22.5142  -19.5192  -12.5844 O   0  0  0  0  0  0  0  0  0  0  0  0
   25.8995  -17.4348  -16.7649 O   0  0  0  0  0  0  0  0  0  0  0  0
   22.4995  -25.4595  -15.0136 N   0  0  0  0  0  0  0  0  0  0  0  0
   23.3763  -26.0786  -14.0921 C   0  0  0  0  0  0  0  0  0  0  0  0
   23.0321  -27.0899  -13.3612 N   0  0  0  0  0  0  0  0  0  0  0  0
   24.7160  -25.6140  -13.9016 N   0  0  0  0  0  0  0  0  0  0  0  0
   25.2725  -24.5741  -14.6699 C   0  0  0  0  0  0  0  0  0  0  0  0
   24.6876  -23.2002  -14.4877 C   0  0  0  0  0  0  0  0  0  0  0  0
   25.2382  -22.6908  -13.1735 C   0  0  0  0  0  0  0  0  0  0  0  0
   24.5928  -21.4263  -12.6837 C   0  0  2  0  0  0  0  0  0  0  0  0
   24.1959  -20.5502  -13.7656 N   0  0  0  0  0  0  0  0  0  0  0  0
   25.5774  -20.7123  -11.8135 C   0  0  0  0  0  0  0  0  0  0  0  0
   26.4764  -19.9595  -12.3225 O   0  0  0  0  0  0  0  0  0  0  0  0
   23.7361  -27.5126  -12.7216 N   0  0  0  0  0  0  0  0  0  0  0  0
   25.5875  -20.8194  -10.4018 C   0  0  2  0  0  0  0  0  0  0  0  0
   26.5613  -20.1178   -9.5820 C   0  0  0  0  0  0  0  0  0  0  0  0
   25.9410  -19.7481   -8.2880 C   0  0  0  0  0  0  0  0  0  0  0  0
   26.7890  -19.0428   -7.3262 C   0  0  0  0  0  0  0  0  0  0  0  0
   27.1498  -17.7310   -7.2887 N   0  0  0  0  0  0  0  0  0  0  0  0
   27.9296  -17.5682   -6.1989 C   0  0  0  0  0  0  0  0  0  0  0  0
   28.0728  -18.7356   -5.5502 C   0  0  0  0  0  0  0  0  0  0  0  0
   28.7512  -19.1411   -4.4021 C   0  0  0  0  0  0  0  0  0  0  0  0
   28.7132  -20.4477   -3.9728 C   0  0  0  0  0  0  0  0  0  0  0  0
   27.9990  -21.4062   -4.6655 C   0  0  0  0  0  0  0  0  0  0  0  0
   27.3187  -21.0196   -5.8083 C   0  0  0  0  0  0  0  0  0  0  0  0
   27.3649  -19.6975   -6.2319 C   0  0  0  0  0  0  0  0  0  0  0  0
   27.8273  -20.8880   -9.4725 O   0  0  0  0  0  0  0  0  0  0  0  0
   27.8165  -22.1518   -9.4997 O   0  0  0  0  0  0  0  0  0  0  0  0
  2  3  1  0
  2  1  1  1
  4  3  1  0
  5  4  1  0
  5  6  2  0
  7  2  1  0
  8  7  2  0
  9  5  1  0
 10 11  1  0
 11 12  2  0
 11 13  1  0
 13 14  1  0
 15 14  1  0
 16 15  1  0
 17 16  1  6
 17 18  1  0
 18  7  1  0
 19 21  1  0
 19 17  1  0
 20 19  2  0
 22 21  1  0
 22 23  1  1
 23 24  1  0
 24 25  2  0
 24 32  1  0
 25 26  1  0
 26 27  1  0
 27 28  2  0
 29 28  1  0
 30 29  2  0
 31 32  2  0
 31 30  1  0
 32 27  1  0
 33 22  1  0
 34 33  2  0
 35 33  1  0
M  END
$$$$
