ERW.pdb
     RDKit          3D

 35 36  0  0  1  0  0  0  0  0999 V2000
   28.8217  -19.6157  -15.8936 N   0  0  0  0  0  0  0  0  0  0  0  0
   28.4392  -18.2264  -15.9356 C   0  0  1  0  0  0  0  0  0  0  0  0
   28.7541  -17.6063  -17.2750 C   0  0  0  0  0  0  0  0  0  0  0  0
   30.2167  -17.7677  -17.6272 C   0  0  0  0  0  0  0  0  0  0  0  0
   30.4727  -17.6367  -19.0620 C   0  0  0  0  0  0  0  0  0  0  0  0
   30.9724  -18.5843  -19.7435 O   0  0  0  0  0  0  0  0  0  0  0  0
   26.9606  -18.0527  -15.7324 C   0  0  0  0  0  0  0  0  0  0  0  0
   26.3329  -17.0675  -16.2455 O   0  0  0  0  0  0  0  0  0  0  0  0
   30.1776  -16.4659  -19.7461 O   0  0  0  0  0  0  0  0  0  0  0  0
   26.9077  -24.9817  -16.9428 N   0  0  0  0  0  0  0  0  0  0  0  0
   25.6038  -25.0847  -16.4040 C   0  0  0  0  0  0  0  0  0  0  0  0
   25.2395  -26.0458  -15.6174 N   0  0  0  0  0  0  0  0  0  0  0  0
   24.5883  -24.1230  -16.7058 N   0  0  0  0  0  0  0  0  0  0  0  0
   24.8856  -22.8370  -17.1948 C   0  0  0  0  0  0  0  0  0  0  0  0
   25.8972  -22.0302  -16.4276 C   0  0  0  0  0  0  0  0  0  0  0  0
   25.5624  -20.5808  -16.7057 C   0  0  0  0  0  0  0  0  0  0  0  0
   25.1403  -19.8021  -15.4930 C   0  0  2  0  0  0  0  0  0  0  0  0
   26.2045  -18.9739  -14.9667 N   0  0  0  0  0  0  0  0  0  0  0  0
   24.7161  -20.7780  -14.4422 C   0  0  0  0  0  0  0  0  0  0  0  0
   23.7087  -21.5428  -14.6267 O   0  0  0  0  0  0  0  0  0  0  0  0
   24.2524  -26.0821  -15.2893 N   0  0  0  0  0  0  0  0  0  0  0  0
   25.3790  -20.9180  -13.1989 C   0  0  1  0  0  0  0  0  0  0  0  0
   24.7738  -21.6151  -12.0763 C   0  0  0  0  0  0  0  0  0  0  0  0
   25.8347  -22.0591  -11.1420 C   0  0  0  0  0  0  0  0  0  0  0  0
   26.2061  -21.1300  -10.0741 C   0  0  0  0  0  0  0  0  0  0  0  0
   25.4104  -20.4170   -9.2309 N   0  0  0  0  0  0  0  0  0  0  0  0
   26.2278  -19.7175   -8.4156 C   0  0  0  0  0  0  0  0  0  0  0  0
   27.5124  -19.9656   -8.7196 C   0  0  0  0  0  0  0  0  0  0  0  0
   28.7387  -19.5287   -8.2214 C   0  0  0  0  0  0  0  0  0  0  0  0
   29.9266  -19.9708   -8.7563 C   0  0  0  0  0  0  0  0  0  0  0  0
   29.9463  -20.8664   -9.8081 C   0  0  0  0  0  0  0  0  0  0  0  0
   28.7363  -21.3110  -10.3146 C   0  0  0  0  0  0  0  0  0  0  0  0
   27.5435  -20.8570   -9.7663 C   0  0  0  0  0  0  0  0  0  0  0  0
   23.6938  -20.8032  -11.4578 O   0  0  0  0  0  0  0  0  0  0  0  0
   23.6688  -19.5476  -11.6027 O   0  0  0  0  0  0  0  0  0  0  0  0
  2  3  1  0
  2  1  1  6
  4  3  1  0
  5  4  1  0
  5  6  2  0
  7  2  1  0
  8  7  2  0
  9  5  1  0
 10 11  1  0
 11 12  2  0
 11 13  1  0
 13 14  1  0
 15 14  1  0
 16 15  1  0
 17 16  1  6
 17 18  1  0
 18  7  1  0
 19 21  1  0
 19 17  1  0
 20 19  2  0
 22 21  1  0
 22 23  1  1
 23 24  1  0
 24 25  2  0
 24 32  1  0
 25 26  1  0
 26 27  1  0
 27 28  2  0
 29 28  1  0
 30 29  2  0
 31 32  2  0
 31 30  1  0
 32 27  1  0
 33 22  1  0
 34 33  2  0
 35 33  1  0
M  END
$$$$
