ERW.pdb
     RDKit          3D

 35 36  0  0  1  0  0  0  0  0999 V2000
   26.6833  -23.7734  -15.1513 N   0  0  0  0  0  0  0  0  0  0  0  0
   25.7862  -23.0863  -16.0463 C   0  0  1  0  0  0  0  0  0  0  0  0
   25.1785  -24.0315  -17.0538 C   0  0  0  0  0  0  0  0  0  0  0  0
   26.2401  -24.6633  -17.9273 C   0  0  0  0  0  0  0  0  0  0  0  0
   26.5814  -23.8421  -19.0895 C   0  0  0  0  0  0  0  0  0  0  0  0
   27.4387  -24.2173  -19.9476 O   0  0  0  0  0  0  0  0  0  0  0  0
   24.6339  -22.4665  -15.3074 C   0  0  0  0  0  0  0  0  0  0  0  0
   23.4483  -22.5056  -15.7771 O   0  0  0  0  0  0  0  0  0  0  0  0
   25.9789  -22.6112  -19.3082 O   0  0  0  0  0  0  0  0  0  0  0  0
   24.4292  -22.1620   -7.3320 N   0  0  0  0  0  0  0  0  0  0  0  0
   23.8036  -20.9877   -7.8124 C   0  0  0  0  0  0  0  0  0  0  0  0
   22.8083  -20.4214   -7.2091 N   0  0  0  0  0  0  0  0  0  0  0  0
   24.2329  -20.3472   -9.0175 N   0  0  0  0  0  0  0  0  0  0  0  0
   25.2619  -20.8670   -9.8254 C   0  0  0  0  0  0  0  0  0  0  0  0
   24.8479  -21.6447  -11.0446 C   0  0  0  0  0  0  0  0  0  0  0  0
   24.2427  -20.6314  -11.9917 C   0  0  0  0  0  0  0  0  0  0  0  0
   23.7524  -21.2139  -13.2862 C   0  0  2  0  0  0  0  0  0  0  0  0
   24.8156  -21.8170  -14.0618 N   0  0  0  0  0  0  0  0  0  0  0  0
   23.1321  -20.1110  -14.0833 C   0  0  0  0  0  0  0  0  0  0  0  0
   23.8576  -19.2249  -14.6511 O   0  0  0  0  0  0  0  0  0  0  0  0
   22.3623  -19.5883   -7.6452 N   0  0  0  0  0  0  0  0  0  0  0  0
   21.7341  -19.9699  -14.2578 C   0  0  1  0  0  0  0  0  0  0  0  0
   21.1593  -18.8819  -15.0312 C   0  0  0  0  0  0  0  0  0  0  0  0
   21.7305  -18.8937  -16.3985 C   0  0  0  0  0  0  0  0  0  0  0  0
   21.2370  -17.8786  -17.3298 C   0  0  0  0  0  0  0  0  0  0  0  0
   21.3595  -16.5240  -17.2789 N   0  0  0  0  0  0  0  0  0  0  0  0
   20.7474  -16.0319  -18.3768 C   0  0  0  0  0  0  0  0  0  0  0  0
   20.2418  -17.0329  -19.1162 C   0  0  0  0  0  0  0  0  0  0  0  0
   19.5293  -17.1038  -20.3121 C   0  0  0  0  0  0  0  0  0  0  0  0
   19.1325  -18.3117  -20.8377 C   0  0  0  0  0  0  0  0  0  0  0  0
   19.4276  -19.5001  -20.1978 C   0  0  0  0  0  0  0  0  0  0  0  0
   20.1355  -19.4472  -19.0086 C   0  0  0  0  0  0  0  0  0  0  0  0
   20.5304  -18.2215  -18.4877 C   0  0  0  0  0  0  0  0  0  0  0  0
   19.6747  -18.9056  -14.9723 O   0  0  0  0  0  0  0  0  0  0  0  0
   19.0561  -19.9858  -14.7522 O   0  0  0  0  0  0  0  0  0  0  0  0
  2  3  1  0
  2  1  1  1
  4  3  1  0
  5  4  1  0
  5  6  2  0
  7  2  1  0
  8  7  2  0
  9  5  1  0
 10 11  1  0
 11 12  2  0
 11 13  1  0
 13 14  1  0
 15 14  1  0
 16 15  1  0
 17 16  1  1
 17 18  1  0
 18  7  1  0
 19 21  1  0
 19 17  1  0
 20 19  2  0
 22 21  1  0
 22 23  1  1
 23 24  1  0
 24 25  2  0
 24 32  1  0
 25 26  1  0
 26 27  1  0
 27 28  2  0
 29 28  1  0
 30 29  2  0
 31 32  2  0
 31 30  1  0
 32 27  1  0
 33 22  1  0
 34 33  2  0
 35 33  1  0
M  END
$$$$
