ERW.pdb
     RDKit          3D

 35 36  0  0  1  0  0  0  0  0999 V2000
   27.9921  -20.4389  -16.4684 N   0  0  0  0  0  0  0  0  0  0  0  0
   28.4290  -19.7311  -15.2910 C   0  0  1  0  0  0  0  0  0  0  0  0
   28.9500  -18.3567  -15.6333 C   0  0  0  0  0  0  0  0  0  0  0  0
   28.0215  -17.6366  -16.5864 C   0  0  0  0  0  0  0  0  0  0  0  0
   28.2648  -17.9842  -17.9868 C   0  0  0  0  0  0  0  0  0  0  0  0
   29.2635  -18.6839  -18.3406 O   0  0  0  0  0  0  0  0  0  0  0  0
   27.3010  -19.5204  -14.3210 C   0  0  0  0  0  0  0  0  0  0  0  0
   26.4286  -18.6083  -14.5080 O   0  0  0  0  0  0  0  0  0  0  0  0
   27.4097  -17.5643  -18.9960 O   0  0  0  0  0  0  0  0  0  0  0  0
   21.6771  -24.4286  -14.4674 N   0  0  0  0  0  0  0  0  0  0  0  0
   22.9284  -24.5768  -13.8242 C   0  0  0  0  0  0  0  0  0  0  0  0
   23.3484  -25.7056  -13.3501 N   0  0  0  0  0  0  0  0  0  0  0  0
   23.8179  -23.4702  -13.6475 N   0  0  0  0  0  0  0  0  0  0  0  0
   23.9635  -22.4552  -14.6119 C   0  0  0  0  0  0  0  0  0  0  0  0
   25.0324  -21.4258  -14.3659 C   0  0  0  0  0  0  0  0  0  0  0  0
   24.7818  -20.8997  -12.9693 C   0  0  0  0  0  0  0  0  0  0  0  0
   25.9970  -20.3246  -12.3001 C   0  0  2  0  0  0  0  0  0  0  0  0
   27.1588  -20.3246  -13.1636 N   0  0  0  0  0  0  0  0  0  0  0  0
   26.2901  -21.1492  -11.0874 C   0  0  0  0  0  0  0  0  0  0  0  0
   27.3410  -21.8743  -11.0266 O   0  0  0  0  0  0  0  0  0  0  0  0
   24.3151  -25.7639  -12.9688 N   0  0  0  0  0  0  0  0  0  0  0  0
   25.4453  -21.1886   -9.9519 C   0  0  1  0  0  0  0  0  0  0  0  0
   25.9427  -20.9292   -8.6111 C   0  0  0  0  0  0  0  0  0  0  0  0
   26.8435  -19.7529   -8.6386 C   0  0  0  0  0  0  0  0  0  0  0  0
   27.3484  -19.2768   -7.3503 C   0  0  0  0  0  0  0  0  0  0  0  0
   26.9598  -18.2015   -6.6118 N   0  0  0  0  0  0  0  0  0  0  0  0
   27.7188  -18.1958   -5.4954 C   0  0  0  0  0  0  0  0  0  0  0  0
   28.5737  -19.2316   -5.5082 C   0  0  0  0  0  0  0  0  0  0  0  0
   29.5600  -19.6981   -4.6407 C   0  0  0  0  0  0  0  0  0  0  0  0
   30.2985  -20.8210   -4.9349 C   0  0  0  0  0  0  0  0  0  0  0  0
   30.0875  -21.5284   -6.1027 C   0  0  0  0  0  0  0  0  0  0  0  0
   29.1107  -21.0785   -6.9754 C   0  0  0  0  0  0  0  0  0  0  0  0
   28.3718  -19.9432   -6.6675 C   0  0  0  0  0  0  0  0  0  0  0  0
   24.8289  -20.8425   -7.6314 O   0  0  0  0  0  0  0  0  0  0  0  0
   23.7399  -20.2812   -7.9425 O   0  0  0  0  0  0  0  0  0  0  0  0
  2  3  1  0
  2  1  1  6
  4  3  1  0
  5  4  1  0
  5  6  2  0
  7  2  1  0
  8  7  2  0
  9  5  1  0
 10 11  1  0
 11 12  2  0
 11 13  1  0
 13 14  1  0
 15 14  1  0
 16 15  1  0
 17 16  1  6
 17 18  1  0
 18  7  1  0
 19 21  1  0
 19 17  1  0
 20 19  2  0
 22 21  1  0
 22 23  1  1
 23 24  1  0
 24 25  2  0
 24 32  1  0
 25 26  1  0
 26 27  1  0
 27 28  2  0
 29 28  1  0
 30 29  2  0
 31 32  2  0
 31 30  1  0
 32 27  1  0
 33 22  1  0
 34 33  2  0
 35 33  1  0
M  END
$$$$
