ERW.pdb
     RDKit          3D

 35 36  0  0  1  0  0  0  0  0999 V2000
   20.2363  -24.3479  -14.1274 N   0  0  0  0  0  0  0  0  0  0  0  0
   20.8706  -23.0710  -13.9146 C   0  0  1  0  0  0  0  0  0  0  0  0
   20.0728  -22.2081  -12.9678 C   0  0  0  0  0  0  0  0  0  0  0  0
   19.1245  -21.2981  -13.7173 C   0  0  0  0  0  0  0  0  0  0  0  0
   17.7603  -21.3418  -13.1898 C   0  0  0  0  0  0  0  0  0  0  0  0
   17.4260  -22.1383  -12.2592 O   0  0  0  0  0  0  0  0  0  0  0  0
   22.2304  -23.2248  -13.2940 C   0  0  0  0  0  0  0  0  0  0  0  0
   22.3945  -23.8824  -12.2131 O   0  0  0  0  0  0  0  0  0  0  0  0
   16.7661  -20.5091  -13.6839 O   0  0  0  0  0  0  0  0  0  0  0  0
   28.0804  -18.3887  -14.2706 N   0  0  0  0  0  0  0  0  0  0  0  0
   28.9168  -19.5080  -14.4914 C   0  0  0  0  0  0  0  0  0  0  0  0
   30.1457  -19.5607  -14.0884 N   0  0  0  0  0  0  0  0  0  0  0  0
   28.4525  -20.6661  -15.1916 N   0  0  0  0  0  0  0  0  0  0  0  0
   27.1079  -20.8302  -15.5744 C   0  0  0  0  0  0  0  0  0  0  0  0
   26.0887  -20.9212  -14.4719 C   0  0  0  0  0  0  0  0  0  0  0  0
   25.7848  -22.3952  -14.3147 C   0  0  0  0  0  0  0  0  0  0  0  0
   24.7113  -22.6994  -13.3094 C   0  0  2  0  0  0  0  0  0  0  0  0
   23.3831  -22.6494  -13.8829 N   0  0  0  0  0  0  0  0  0  0  0  0
   24.8072  -21.6886  -12.2114 C   0  0  0  0  0  0  0  0  0  0  0  0
   24.2228  -20.5561  -12.3106 O   0  0  0  0  0  0  0  0  0  0  0  0
   30.7124  -20.4056  -14.3077 N   0  0  0  0  0  0  0  0  0  0  0  0
   25.5362  -21.9054  -11.0172 C   0  0  2  0  0  0  0  0  0  0  0  0
   25.7254  -20.8575  -10.0279 C   0  0  0  0  0  0  0  0  0  0  0  0
   26.8061  -21.2511   -9.0936 C   0  0  0  0  0  0  0  0  0  0  0  0
   27.1502  -20.2950   -8.0406 C   0  0  0  0  0  0  0  0  0  0  0  0
   26.8073  -18.9838   -7.9157 N   0  0  0  0  0  0  0  0  0  0  0  0
   27.3576  -18.5409   -6.7653 C   0  0  0  0  0  0  0  0  0  0  0  0
   28.0375  -19.5304   -6.1631 C   0  0  0  0  0  0  0  0  0  0  0  0
   28.7809  -19.6341   -4.9886 C   0  0  0  0  0  0  0  0  0  0  0  0
   29.3821  -20.8169   -4.6247 C   0  0  0  0  0  0  0  0  0  0  0  0
   29.2691  -21.9467   -5.4118 C   0  0  0  0  0  0  0  0  0  0  0  0
   28.5333  -21.8608   -6.5819 C   0  0  0  0  0  0  0  0  0  0  0  0
   27.9313  -20.6609   -6.9389 C   0  0  0  0  0  0  0  0  0  0  0  0
   25.9088  -19.5329  -10.6756 O   0  0  0  0  0  0  0  0  0  0  0  0
   26.8798  -19.3279  -11.4588 O   0  0  0  0  0  0  0  0  0  0  0  0
  2  3  1  0
  2  1  1  1
  4  3  1  0
  5  4  1  0
  5  6  2  0
  7  2  1  0
  8  7  2  0
  9  5  1  0
 10 11  1  0
 11 12  2  0
 11 13  1  0
 13 14  1  0
 15 14  1  0
 16 15  1  0
 17 16  1  6
 17 18  1  0
 18  7  1  0
 19 21  1  0
 19 17  1  0
 20 19  2  0
 22 21  1  0
 22 23  1  1
 23 24  1  0
 24 25  2  0
 24 32  1  0
 25 26  1  0
 26 27  1  0
 27 28  2  0
 29 28  1  0
 30 29  2  0
 31 32  2  0
 31 30  1  0
 32 27  1  0
 33 22  1  0
 34 33  2  0
 35 33  1  0
M  END
$$$$
