ERW.pdb
     RDKit          3D

 35 36  0  0  1  0  0  0  0  0999 V2000
   23.7525  -18.4408  -17.2362 N   0  0  0  0  0  0  0  0  0  0  0  0
   24.3731  -18.3403  -15.9390 C   0  0  1  0  0  0  0  0  0  0  0  0
   23.3855  -17.9005  -14.8859 C   0  0  0  0  0  0  0  0  0  0  0  0
   22.1454  -18.7672  -14.8968 C   0  0  0  0  0  0  0  0  0  0  0  0
   21.1573  -18.3564  -13.8986 C   0  0  0  0  0  0  0  0  0  0  0  0
   21.2472  -17.2507  -13.2810 O   0  0  0  0  0  0  0  0  0  0  0  0
   24.9119  -19.6653  -15.4787 C   0  0  0  0  0  0  0  0  0  0  0  0
   24.2367  -20.7389  -15.6173 O   0  0  0  0  0  0  0  0  0  0  0  0
   20.0710  -19.1600  -13.5821 O   0  0  0  0  0  0  0  0  0  0  0  0
   29.3090  -25.1083  -16.4587 N   0  0  0  0  0  0  0  0  0  0  0  0
   30.5259  -24.9481  -15.7552 C   0  0  0  0  0  0  0  0  0  0  0  0
   31.3358  -25.9286  -15.5144 N   0  0  0  0  0  0  0  0  0  0  0  0
   30.9400  -23.6747  -15.2512 N   0  0  0  0  0  0  0  0  0  0  0  0
   30.1450  -22.5192  -15.3700 C   0  0  0  0  0  0  0  0  0  0  0  0
   28.8036  -22.5385  -14.6896 C   0  0  0  0  0  0  0  0  0  0  0  0
   28.2135  -21.1621  -14.9065 C   0  0  0  0  0  0  0  0  0  0  0  0
   26.7901  -21.0226  -14.4484 C   0  0  2  0  0  0  0  0  0  0  0  0
   26.1887  -19.7770  -14.8756 N   0  0  0  0  0  0  0  0  0  0  0  0
   26.7779  -21.0833  -12.9542 C   0  0  0  0  0  0  0  0  0  0  0  0
   27.8668  -21.0264  -12.2873 O   0  0  0  0  0  0  0  0  0  0  0  0
   32.2073  -25.7422  -14.9768 N   0  0  0  0  0  0  0  0  0  0  0  0
   25.5917  -21.2095  -12.1915 C   0  0  1  0  0  0  0  0  0  0  0  0
   25.6079  -21.2314  -10.7383 C   0  0  0  0  0  0  0  0  0  0  0  0
   26.3059  -20.0251  -10.2349 C   0  0  0  0  0  0  0  0  0  0  0  0
   27.5802  -20.2375   -9.5475 C   0  0  0  0  0  0  0  0  0  0  0  0
   28.7213  -20.8250  -10.0006 N   0  0  0  0  0  0  0  0  0  0  0  0
   29.6207  -20.7648   -8.9958 C   0  0  0  0  0  0  0  0  0  0  0  0
   29.0821  -20.1602   -7.9242 C   0  0  0  0  0  0  0  0  0  0  0  0
   29.5402  -19.8397   -6.6474 C   0  0  0  0  0  0  0  0  0  0  0  0
   28.7306  -19.2013   -5.7363 C   0  0  0  0  0  0  0  0  0  0  0  0
   27.4322  -18.8537   -6.0558 C   0  0  0  0  0  0  0  0  0  0  0  0
   26.9616  -19.1644   -7.3207 C   0  0  0  0  0  0  0  0  0  0  0  0
   27.7884  -19.8095   -8.2317 C   0  0  0  0  0  0  0  0  0  0  0  0
   24.2436  -21.4411  -10.1881 O   0  0  0  0  0  0  0  0  0  0  0  0
   23.2270  -21.3451  -10.9333 O   0  0  0  0  0  0  0  0  0  0  0  0
  2  3  1  0
  2  1  1  6
  4  3  1  0
  5  4  1  0
  5  6  2  0
  7  2  1  0
  8  7  2  0
  9  5  1  0
 10 11  1  0
 11 12  2  0
 11 13  1  0
 13 14  1  0
 15 14  1  0
 16 15  1  0
 17 16  1  1
 17 18  1  0
 18  7  1  0
 19 21  1  0
 19 17  1  0
 20 19  2  0
 22 21  1  0
 22 23  1  1
 23 24  1  0
 24 25  2  0
 24 32  1  0
 25 26  1  0
 26 27  1  0
 27 28  2  0
 29 28  1  0
 30 29  2  0
 31 32  2  0
 31 30  1  0
 32 27  1  0
 33 22  1  0
 34 33  2  0
 35 33  1  0
M  END
$$$$
