VQS.pdb
     RDKit          3D

 23 22  0  0  1  0  0  0  0  0999 V2000
    7.2739  -13.2202   21.4766 C   0  0  0  0  0  0  0  0  0  0  0  0
    8.3368  -13.3482   20.4413 C   0  0  2  0  0  0  0  0  0  0  0  0
    8.1464  -12.3009   19.3481 C   0  0  0  0  0  0  0  0  0  0  0  0
    8.3279  -14.6942   19.7561 C   0  0  2  0  0  0  0  0  0  0  0  0
    7.1019  -15.0309   19.1260 N   0  0  0  0  0  0  0  0  0  0  0  0
    8.6491  -15.7214   20.7800 C   0  0  0  0  0  0  0  0  0  0  0  0
    7.6748  -16.3093   21.3239 O   0  0  0  0  0  0  0  0  0  0  0  0
   14.1877  -18.7050   21.5858 N   0  0  0  0  0  0  0  0  0  0  0  0
   13.4397  -19.1994   22.6888 C   0  0  0  0  0  0  0  0  0  0  0  0
   13.9596  -20.0498   23.4484 O   0  0  0  0  0  0  0  0  0  0  0  0
   12.0383  -18.7111   22.9471 C   0  0  0  0  0  0  0  0  0  0  0  0
   11.6374  -17.6899   21.9205 C   0  0  0  0  0  0  0  0  0  0  0  0
   10.2780  -17.1209   22.1262 C   0  0  2  0  0  0  0  0  0  0  0  0
    9.9537  -16.0742   21.1758 N   0  0  0  0  0  0  0  0  0  0  0  0
   10.0120  -16.6366   23.4920 C   0  0  0  0  0  0  0  0  0  0  0  0
   10.5076  -15.5943   23.9695 O   0  0  0  0  0  0  0  0  0  0  0  0
    6.7434  -17.9134   25.5713 O   0  0  0  0  0  0  0  0  0  0  0  0
    7.3980  -16.7157   25.8890 C   0  0  0  0  0  0  0  0  0  0  0  0
    8.8782  -16.9835   25.7331 C   0  0  2  0  0  0  0  0  0  0  0  0
    9.1444  -17.3686   24.3564 N   0  0  0  0  0  0  0  0  0  0  0  0
    9.4041  -17.9390   26.6992 C   0  0  0  0  0  0  0  0  0  0  0  0
    9.9192  -19.0107   26.3083 O   0  0  0  0  0  0  0  0  0  0  0  0
    9.3564  -17.7052   28.0641 O   0  0  0  0  0  0  0  0  0  0  0  0
  2  1  1  1
  2  4  1  0
  2  3  1  0
  4  6  1  0
  4  5  1  1
  6  7  2  0
  9 11  1  0
  9  8  1  0
 10  9  2  0
 13 12  1  1
 12 11  1  0
 13 15  1  0
 14  6  1  0
 14 13  1  0
 15 16  2  0
 18 17  1  0
 19 18  1  6
 19 21  1  0
 20 19  1  0
 20 15  1  0
 21 22  2  0
 21 23  1  0
M  END
$$$$
