VQS.pdb
     RDKit          3D

 23 22  0  0  1  0  0  0  0  0999 V2000
    7.4576  -13.3115   21.1025 C   0  0  0  0  0  0  0  0  0  0  0  0
    8.3914  -13.3391   19.9427 C   0  0  2  0  0  0  0  0  0  0  0  0
    7.9605  -12.3264   18.8858 C   0  0  0  0  0  0  0  0  0  0  0  0
    8.4358  -14.6849   19.2584 C   0  0  2  0  0  0  0  0  0  0  0  0
    7.1842  -15.1455   18.7737 N   0  0  0  0  0  0  0  0  0  0  0  0
    8.9731  -15.6674   20.2346 C   0  0  0  0  0  0  0  0  0  0  0  0
    8.1312  -16.3474   20.8821 O   0  0  0  0  0  0  0  0  0  0  0  0
   14.3439  -18.8279   19.8561 N   0  0  0  0  0  0  0  0  0  0  0  0
   13.9638  -19.1394   21.1899 C   0  0  0  0  0  0  0  0  0  0  0  0
   14.6777  -19.9187   21.8633 O   0  0  0  0  0  0  0  0  0  0  0  0
   12.7189  -18.5429   21.7929 C   0  0  0  0  0  0  0  0  0  0  0  0
   12.1534  -17.4806   20.8934 C   0  0  0  0  0  0  0  0  0  0  0  0
   10.8772  -16.8885   21.3780 C   0  0  2  0  0  0  0  0  0  0  0  0
   10.3430  -15.8835   20.4788 N   0  0  0  0  0  0  0  0  0  0  0  0
   10.9316  -16.3388   22.7440 C   0  0  0  0  0  0  0  0  0  0  0  0
   11.5574  -15.3029   23.0527 O   0  0  0  0  0  0  0  0  0  0  0  0
    7.9968  -17.1167   25.3385 O   0  0  0  0  0  0  0  0  0  0  0  0
    8.8534  -16.0234   25.5252 C   0  0  0  0  0  0  0  0  0  0  0  0
   10.2440  -16.5062   25.1786 C   0  0  2  0  0  0  0  0  0  0  0  0
   10.2449  -16.9946   23.8089 N   0  0  0  0  0  0  0  0  0  0  0  0
   10.7786  -17.4764   26.1251 C   0  0  0  0  0  0  0  0  0  0  0  0
   11.0427  -18.6413   25.7510 O   0  0  0  0  0  0  0  0  0  0  0  0
   11.0121  -17.1556   27.4527 O   0  0  0  0  0  0  0  0  0  0  0  0
  2  1  1  1
  2  4  1  0
  2  3  1  0
  4  6  1  0
  4  5  1  1
  6  7  2  0
  9 11  1  0
  9  8  1  0
 10  9  2  0
 13 12  1  6
 12 11  1  0
 13 15  1  0
 14  6  1  0
 14 13  1  0
 15 16  2  0
 18 17  1  0
 19 18  1  1
 19 21  1  0
 20 19  1  0
 20 15  1  0
 21 22  2  0
 21 23  1  0
M  END
$$$$
