VQS.pdb
     RDKit          3D

 23 22  0  0  1  0  0  0  0  0999 V2000
    7.1164  -13.4799   21.2547 C   0  0  0  0  0  0  0  0  0  0  0  0
    8.2862  -13.3647   20.3403 C   0  0  2  0  0  0  0  0  0  0  0  0
    7.9980  -12.3605   19.2282 C   0  0  0  0  0  0  0  0  0  0  0  0
    8.6319  -14.6703   19.6642 C   0  0  2  0  0  0  0  0  0  0  0  0
    7.6217  -15.1809   18.8085 N   0  0  0  0  0  0  0  0  0  0  0  0
    8.9189  -15.6653   20.7293 C   0  0  0  0  0  0  0  0  0  0  0  0
    8.0187  -16.5137   20.9752 O   0  0  0  0  0  0  0  0  0  0  0  0
   14.4631  -18.1595   21.8395 N   0  0  0  0  0  0  0  0  0  0  0  0
   13.6992  -18.7905   22.8587 C   0  0  0  0  0  0  0  0  0  0  0  0
   14.2265  -19.6953   23.5469 O   0  0  0  0  0  0  0  0  0  0  0  0
   12.2721  -18.3811   23.1135 C   0  0  0  0  0  0  0  0  0  0  0  0
   11.8923  -17.2190   22.2403 C   0  0  0  0  0  0  0  0  0  0  0  0
   10.4763  -16.7853   22.3858 C   0  0  2  0  0  0  0  0  0  0  0  0
   10.1148  -15.7195   21.4707 N   0  0  0  0  0  0  0  0  0  0  0  0
   10.0852  -16.4044   23.7543 C   0  0  0  0  0  0  0  0  0  0  0  0
   10.4790  -15.3667   24.3271 O   0  0  0  0  0  0  0  0  0  0  0  0
    6.8377  -18.1048   25.5126 O   0  0  0  0  0  0  0  0  0  0  0  0
    7.3375  -16.8868   25.9928 C   0  0  0  0  0  0  0  0  0  0  0  0
    8.8440  -16.9731   25.8906 C   0  0  2  0  0  0  0  0  0  0  0  0
    9.2074  -17.2392   24.5080 N   0  0  0  0  0  0  0  0  0  0  0  0
    9.4397  -17.9201   26.8241 C   0  0  0  0  0  0  0  0  0  0  0  0
   10.1163  -18.8830   26.3980 O   0  0  0  0  0  0  0  0  0  0  0  0
    9.2845  -17.7960   28.1953 O   0  0  0  0  0  0  0  0  0  0  0  0
  2  1  1  1
  2  4  1  0
  2  3  1  0
  4  6  1  0
  4  5  1  1
  6  7  2  0
  9 11  1  0
  9  8  1  0
 10  9  2  0
 13 12  1  1
 12 11  1  0
 13 15  1  0
 14  6  1  0
 14 13  1  0
 15 16  2  0
 18 17  1  0
 19 18  1  6
 19 21  1  0
 20 19  1  0
 20 15  1  0
 21 22  2  0
 21 23  1  0
M  END
$$$$
