VQS.pdb
     RDKit          3D

 23 22  0  0  1  0  0  0  0  0999 V2000
    6.1315  -11.8438   27.4218 C   0  0  0  0  0  0  0  0  0  0  0  0
    6.9124  -12.7603   26.5454 C   0  0  2  0  0  0  0  0  0  0  0  0
    7.8648  -11.9663   25.6563 C   0  0  0  0  0  0  0  0  0  0  0  0
    6.0374  -13.5745   25.6220 C   0  0  2  0  0  0  0  0  0  0  0  0
    5.1024  -14.4155   26.2793 N   0  0  0  0  0  0  0  0  0  0  0  0
    6.9303  -14.4057   24.7742 C   0  0  0  0  0  0  0  0  0  0  0  0
    7.2560  -15.5371   25.2265 O   0  0  0  0  0  0  0  0  0  0  0  0
    8.8699  -12.9308   18.9179 N   0  0  0  0  0  0  0  0  0  0  0  0
    7.7744  -13.8302   19.0260 C   0  0  0  0  0  0  0  0  0  0  0  0
    7.0379  -14.0196   18.0300 O   0  0  0  0  0  0  0  0  0  0  0  0
    7.4967  -14.5501   20.3197 C   0  0  0  0  0  0  0  0  0  0  0  0
    8.5435  -14.2168   21.3446 C   0  0  0  0  0  0  0  0  0  0  0  0
    8.3000  -14.8211   22.6824 C   0  0  2  0  0  0  0  0  0  0  0  0
    7.4288  -14.0152   23.5164 N   0  0  0  0  0  0  0  0  0  0  0  0
    9.5189  -15.1597   23.4377 C   0  0  0  0  0  0  0  0  0  0  0  0
   10.3483  -14.3147   23.8352 O   0  0  0  0  0  0  0  0  0  0  0  0
    9.7347  -17.8067   26.0955 O   0  0  0  0  0  0  0  0  0  0  0  0
   10.7850  -18.1578   25.2368 C   0  0  0  0  0  0  0  0  0  0  0  0
   11.0560  -16.9448   24.3752 C   0  0  2  0  0  0  0  0  0  0  0  0
    9.8108  -16.5194   23.7563 N   0  0  0  0  0  0  0  0  0  0  0  0
   12.1290  -17.1419   23.4094 C   0  0  0  0  0  0  0  0  0  0  0  0
   11.9042  -17.0168   22.1845 O   0  0  0  0  0  0  0  0  0  0  0  0
   13.4174  -17.4698   23.7997 O   0  0  0  0  0  0  0  0  0  0  0  0
  2  1  1  6
  2  4  1  0
  2  3  1  0
  4  6  1  0
  4  5  1  1
  6  7  2  0
  9 11  1  0
  9  8  1  0
 10  9  2  0
 13 12  1  6
 12 11  1  0
 13 15  1  0
 14  6  1  0
 14 13  1  0
 15 16  2  0
 18 17  1  0
 19 18  1  6
 19 21  1  0
 20 19  1  0
 20 15  1  0
 21 22  2  0
 21 23  1  0
M  END
$$$$
