VQS.pdb
     RDKit          3D

 23 22  0  0  1  0  0  0  0  0999 V2000
    6.3507  -11.6323   27.3358 C   0  0  0  0  0  0  0  0  0  0  0  0
    7.1057  -12.6330   26.5318 C   0  0  2  0  0  0  0  0  0  0  0  0
    8.0847  -11.9346   25.5926 C   0  0  0  0  0  0  0  0  0  0  0  0
    6.2088  -13.4848   25.6650 C   0  0  2  0  0  0  0  0  0  0  0  0
    5.2105  -14.2043   26.3715 N   0  0  0  0  0  0  0  0  0  0  0  0
    7.0736  -14.4432   24.9297 C   0  0  0  0  0  0  0  0  0  0  0  0
    7.4916  -15.4442   25.5731 O   0  0  0  0  0  0  0  0  0  0  0  0
    5.4988  -17.0931   20.5746 N   0  0  0  0  0  0  0  0  0  0  0  0
    6.5892  -16.3050   20.1159 C   0  0  0  0  0  0  0  0  0  0  0  0
    7.2914  -16.7255   19.1671 O   0  0  0  0  0  0  0  0  0  0  0  0
    6.9023  -14.9790   20.7586 C   0  0  0  0  0  0  0  0  0  0  0  0
    8.2702  -15.0032   21.3794 C   0  0  0  0  0  0  0  0  0  0  0  0
    8.2688  -15.2527   22.8464 C   0  0  2  0  0  0  0  0  0  0  0  0
    7.4504  -14.3060   23.5799 N   0  0  0  0  0  0  0  0  0  0  0  0
    9.6056  -15.3189   23.4623 C   0  0  0  0  0  0  0  0  0  0  0  0
   10.3987  -14.3552   23.5089 O   0  0  0  0  0  0  0  0  0  0  0  0
   10.4661  -18.1090   26.2307 O   0  0  0  0  0  0  0  0  0  0  0  0
   11.2601  -16.9611   26.1047 C   0  0  0  0  0  0  0  0  0  0  0  0
   11.3924  -16.6938   24.6221 C   0  0  2  0  0  0  0  0  0  0  0  0
   10.0641  -16.5344   24.0522 N   0  0  0  0  0  0  0  0  0  0  0  0
   12.1940  -17.6866   23.9186 C   0  0  0  0  0  0  0  0  0  0  0  0
   13.3915  -17.8675   24.2346 O   0  0  0  0  0  0  0  0  0  0  0  0
   11.6737  -18.4563   22.8907 O   0  0  0  0  0  0  0  0  0  0  0  0
  2  1  1  6
  2  4  1  0
  2  3  1  0
  4  6  1  0
  4  5  1  1
  6  7  2  0
  9 11  1  0
  9  8  1  0
 10  9  2  0
 13 12  1  6
 12 11  1  0
 13 15  1  0
 14  6  1  0
 14 13  1  0
 15 16  2  0
 18 17  1  0
 19 18  1  1
 19 21  1  0
 20 19  1  0
 20 15  1  0
 21 22  2  0
 21 23  1  0
M  END
$$$$
