VQS.pdb
     RDKit          3D

 23 22  0  0  1  0  0  0  0  0999 V2000
    7.0571  -12.3106   19.0827 C   0  0  0  0  0  0  0  0  0  0  0  0
    7.9916  -13.2623   19.7452 C   0  0  2  0  0  0  0  0  0  0  0  0
    9.3784  -12.6409   19.8825 C   0  0  0  0  0  0  0  0  0  0  0  0
    8.1684  -14.5457   18.9688 C   0  0  2  0  0  0  0  0  0  0  0  0
    6.9641  -15.2450   18.6965 N   0  0  0  0  0  0  0  0  0  0  0  0
    9.0762  -15.4229   19.7519 C   0  0  0  0  0  0  0  0  0  0  0  0
    8.5733  -16.0319   20.7352 O   0  0  0  0  0  0  0  0  0  0  0  0
   15.9235  -17.6223   19.5478 N   0  0  0  0  0  0  0  0  0  0  0  0
   14.6391  -18.1715   19.2847 C   0  0  0  0  0  0  0  0  0  0  0  0
   14.4956  -18.9562   18.3182 O   0  0  0  0  0  0  0  0  0  0  0  0
   13.4602  -17.8186   20.1535 C   0  0  0  0  0  0  0  0  0  0  0  0
   12.5702  -16.8274   19.4586 C   0  0  0  0  0  0  0  0  0  0  0  0
   11.3263  -16.4976   20.2057 C   0  0  2  0  0  0  0  0  0  0  0  0
   10.4425  -15.6138   19.4697 N   0  0  0  0  0  0  0  0  0  0  0  0
   11.5444  -15.9520   21.5568 C   0  0  0  0  0  0  0  0  0  0  0  0
   11.4268  -14.7427   21.8462 O   0  0  0  0  0  0  0  0  0  0  0  0
    9.6992  -16.2950   25.4366 O   0  0  0  0  0  0  0  0  0  0  0  0
   10.0164  -16.4981   24.0868 C   0  0  0  0  0  0  0  0  0  0  0  0
   11.5242  -16.5876   24.0112 C   0  0  2  0  0  0  0  0  0  0  0  0
   11.9133  -16.8179   22.6291 N   0  0  0  0  0  0  0  0  0  0  0  0
   12.0986  -17.5615   24.9301 C   0  0  0  0  0  0  0  0  0  0  0  0
   12.5315  -18.6541   24.4996 O   0  0  0  0  0  0  0  0  0  0  0  0
   12.1875  -17.3228   26.2921 O   0  0  0  0  0  0  0  0  0  0  0  0
  2  1  1  6
  2  4  1  0
  2  3  1  0
  4  6  1  0
  4  5  1  1
  6  7  2  0
  9 11  1  0
  9  8  1  0
 10  9  2  0
 13 12  1  6
 12 11  1  0
 13 15  1  0
 14  6  1  0
 14 13  1  0
 15 16  2  0
 18 17  1  0
 19 18  1  6
 19 21  1  0
 20 19  1  0
 20 15  1  0
 21 22  2  0
 21 23  1  0
M  END
$$$$
