VQS.pdb
     RDKit          3D

 23 22  0  0  1  0  0  0  0  0999 V2000
    7.8806  -12.4959   26.9738 C   0  0  0  0  0  0  0  0  0  0  0  0
    6.9314  -12.2366   25.8560 C   0  0  2  0  0  0  0  0  0  0  0  0
    5.9700  -11.1097   26.2223 C   0  0  0  0  0  0  0  0  0  0  0  0
    6.0802  -13.4381   25.5198 C   0  0  2  0  0  0  0  0  0  0  0  0
    5.4744  -14.0675   26.6380 N   0  0  0  0  0  0  0  0  0  0  0  0
    6.9462  -14.4194   24.8168 C   0  0  0  0  0  0  0  0  0  0  0  0
    7.4202  -15.3610   25.5092 O   0  0  0  0  0  0  0  0  0  0  0  0
    6.1659  -17.0639   20.0870 N   0  0  0  0  0  0  0  0  0  0  0  0
    7.5569  -17.2916   19.9031 C   0  0  0  0  0  0  0  0  0  0  0  0
    7.9319  -18.2984   19.2581 O   0  0  0  0  0  0  0  0  0  0  0  0
    8.5734  -16.3378   20.4743 C   0  0  0  0  0  0  0  0  0  0  0  0
    7.8942  -15.2437   21.2482 C   0  0  0  0  0  0  0  0  0  0  0  0
    8.0040  -15.3843   22.7255 C   0  0  2  0  0  0  0  0  0  0  0  0
    7.2666  -14.3646   23.4467 N   0  0  0  0  0  0  0  0  0  0  0  0
    9.3838  -15.4410   23.2390 C   0  0  0  0  0  0  0  0  0  0  0  0
   10.1277  -14.4435   23.3463 O   0  0  0  0  0  0  0  0  0  0  0  0
   10.6045  -17.1280   26.3195 O   0  0  0  0  0  0  0  0  0  0  0  0
   11.3326  -17.7640   25.3050 C   0  0  0  0  0  0  0  0  0  0  0  0
   11.3156  -16.8290   24.1164 C   0  0  2  0  0  0  0  0  0  0  0  0
    9.9459  -16.6865   23.6493 N   0  0  0  0  0  0  0  0  0  0  0  0
   12.2373  -17.2149   23.0561 C   0  0  0  0  0  0  0  0  0  0  0  0
   13.4646  -17.2967   23.2877 O   0  0  0  0  0  0  0  0  0  0  0  0
   11.8016  -17.5016   21.7724 O   0  0  0  0  0  0  0  0  0  0  0  0
  2  1  1  1
  2  4  1  0
  2  3  1  0
  4  6  1  0
  4  5  1  1
  6  7  2  0
  9 11  1  0
  9  8  1  0
 10  9  2  0
 13 12  1  6
 12 11  1  0
 13 15  1  0
 14  6  1  0
 14 13  1  0
 15 16  2  0
 18 17  1  0
 19 18  1  1
 19 21  1  0
 20 19  1  0
 20 15  1  0
 21 22  2  0
 21 23  1  0
M  END
$$$$
