VQS.pdb
     RDKit          3D

 23 22  0  0  1  0  0  0  0  0999 V2000
    7.4799  -12.2807   19.0101 C   0  0  0  0  0  0  0  0  0  0  0  0
    7.9453  -13.4829   19.7557 C   0  0  2  0  0  0  0  0  0  0  0  0
    8.9728  -13.0908   20.8134 C   0  0  0  0  0  0  0  0  0  0  0  0
    8.6116  -14.5036   18.8638 C   0  0  2  0  0  0  0  0  0  0  0  0
    7.8371  -14.9109   17.7468 N   0  0  0  0  0  0  0  0  0  0  0  0
    8.9273  -15.6913   19.6985 C   0  0  0  0  0  0  0  0  0  0  0  0
    7.9671  -16.4548   19.9910 O   0  0  0  0  0  0  0  0  0  0  0  0
   14.0070  -18.4887   17.5046 N   0  0  0  0  0  0  0  0  0  0  0  0
   12.8021  -18.6867   18.2323 C   0  0  0  0  0  0  0  0  0  0  0  0
   11.9988  -19.5719   17.8562 O   0  0  0  0  0  0  0  0  0  0  0  0
   12.4887  -17.8458   19.4422 C   0  0  0  0  0  0  0  0  0  0  0  0
   11.1777  -18.2604   20.0480 C   0  0  0  0  0  0  0  0  0  0  0  0
   10.5478  -17.2208   20.9062 C   0  0  2  0  0  0  0  0  0  0  0  0
   10.2122  -16.0129   20.1767 N   0  0  0  0  0  0  0  0  0  0  0  0
   11.3194  -16.8634   22.1094 C   0  0  0  0  0  0  0  0  0  0  0  0
   12.1384  -15.9216   22.1563 O   0  0  0  0  0  0  0  0  0  0  0  0
   11.9096  -17.6083   26.8484 O   0  0  0  0  0  0  0  0  0  0  0  0
   11.1675  -17.9366   25.7059 C   0  0  0  0  0  0  0  0  0  0  0  0
   11.9060  -17.3376   24.5299 C   0  0  2  0  0  0  0  0  0  0  0  0
   11.1549  -17.6088   23.3147 N   0  0  0  0  0  0  0  0  0  0  0  0
   13.2985  -17.7568   24.4394 C   0  0  0  0  0  0  0  0  0  0  0  0
   14.1152  -17.4239   25.3275 O   0  0  0  0  0  0  0  0  0  0  0  0
   13.7668  -18.5265   23.3867 O   0  0  0  0  0  0  0  0  0  0  0  0
  2  1  1  6
  2  4  1  0
  2  3  1  0
  4  6  1  0
  4  5  1  6
  6  7  2  0
  9 11  1  0
  9  8  1  0
 10  9  2  0
 13 12  1  6
 12 11  1  0
 13 15  1  0
 14  6  1  0
 14 13  1  0
 15 16  2  0
 18 17  1  0
 19 18  1  1
 19 21  1  0
 20 19  1  0
 20 15  1  0
 21 22  2  0
 21 23  1  0
M  END
$$$$
