VQS.pdb
     RDKit          3D

 23 22  0  0  1  0  0  0  0  0999 V2000
    8.0263  -13.3807   20.6587 C   0  0  0  0  0  0  0  0  0  0  0  0
    8.7329  -12.8207   19.4734 C   0  0  2  0  0  0  0  0  0  0  0  0
    7.9230  -11.6842   18.8564 C   0  0  0  0  0  0  0  0  0  0  0  0
    8.9450  -13.8422   18.3812 C   0  0  2  0  0  0  0  0  0  0  0  0
    7.7720  -14.5312   17.9777 N   0  0  0  0  0  0  0  0  0  0  0  0
    9.9439  -14.8253   18.8737 C   0  0  0  0  0  0  0  0  0  0  0  0
    9.5186  -15.9786   19.1556 O   0  0  0  0  0  0  0  0  0  0  0  0
   14.5621  -18.9953   18.9943 N   0  0  0  0  0  0  0  0  0  0  0  0
   14.4772  -17.7076   18.3984 C   0  0  0  0  0  0  0  0  0  0  0  0
   14.3027  -17.6165   17.1608 O   0  0  0  0  0  0  0  0  0  0  0  0
   14.5948  -16.4631   19.2390 C   0  0  0  0  0  0  0  0  0  0  0  0
   13.5881  -15.4357   18.8049 C   0  0  0  0  0  0  0  0  0  0  0  0
   12.2942  -15.5039   19.5366 C   0  0  2  0  0  0  0  0  0  0  0  0
   11.3153  -14.5540   19.0434 N   0  0  0  0  0  0  0  0  0  0  0  0
   12.4052  -15.3718   20.9999 C   0  0  0  0  0  0  0  0  0  0  0  0
   13.0200  -14.4462   21.5702 O   0  0  0  0  0  0  0  0  0  0  0  0
    9.9480  -17.5621   23.4774 O   0  0  0  0  0  0  0  0  0  0  0  0
   10.5187  -16.3562   23.9064 C   0  0  0  0  0  0  0  0  0  0  0  0
   11.9052  -16.3020   23.3049 C   0  0  2  0  0  0  0  0  0  0  0  0
   11.7911  -16.3342   21.8556 N   0  0  0  0  0  0  0  0  0  0  0  0
   12.8076  -17.3215   23.8238 C   0  0  0  0  0  0  0  0  0  0  0  0
   13.0734  -17.3638   25.0461 O   0  0  0  0  0  0  0  0  0  0  0  0
   13.3974  -18.2677   23.0012 O   0  0  0  0  0  0  0  0  0  0  0  0
  2  1  1  1
  2  4  1  0
  2  3  1  0
  4  6  1  0
  4  5  1  1
  6  7  2  0
  9 11  1  0
  9  8  1  0
 10  9  2  0
 13 12  1  6
 12 11  1  0
 13 15  1  0
 14  6  1  0
 14 13  1  0
 15 16  2  0
 18 17  1  0
 19 18  1  1
 19 21  1  0
 20 19  1  0
 20 15  1  0
 21 22  2  0
 21 23  1  0
M  END
$$$$
