VQS.pdb
     RDKit          3D

 23 22  0  0  1  0  0  0  0  0999 V2000
    7.2624  -13.3645   21.5009 C   0  0  0  0  0  0  0  0  0  0  0  0
    8.3467  -13.3812   20.4801 C   0  0  2  0  0  0  0  0  0  0  0  0
    8.1027  -12.3070   19.4244 C   0  0  0  0  0  0  0  0  0  0  0  0
    8.4381  -14.6970   19.7443 C   0  0  2  0  0  0  0  0  0  0  0  0
    7.2318  -15.1156   19.1253 N   0  0  0  0  0  0  0  0  0  0  0  0
    8.8693  -15.7292   20.7218 C   0  0  0  0  0  0  0  0  0  0  0  0
    7.9586  -16.3589   21.3258 O   0  0  0  0  0  0  0  0  0  0  0  0
   14.6345  -18.3597   21.2962 N   0  0  0  0  0  0  0  0  0  0  0  0
   13.9276  -18.9683   22.3688 C   0  0  0  0  0  0  0  0  0  0  0  0
   14.5081  -19.8245   23.0762 O   0  0  0  0  0  0  0  0  0  0  0  0
   12.4975  -18.5929   22.6571 C   0  0  0  0  0  0  0  0  0  0  0  0
   12.0551  -17.4714   21.7605 C   0  0  0  0  0  0  0  0  0  0  0  0
   10.6398  -17.0563   21.9579 C   0  0  2  0  0  0  0  0  0  0  0  0
   10.2108  -16.0435   21.0123 N   0  0  0  0  0  0  0  0  0  0  0  0
   10.3110  -16.6154   23.3248 C   0  0  0  0  0  0  0  0  0  0  0  0
   10.5404  -15.4673   23.7596 O   0  0  0  0  0  0  0  0  0  0  0  0
    7.3800  -16.6959   26.8899 O   0  0  0  0  0  0  0  0  0  0  0  0
    7.7459  -17.1634   25.6205 C   0  0  0  0  0  0  0  0  0  0  0  0
    9.2571  -17.1307   25.5724 C   0  0  2  0  0  0  0  0  0  0  0  0
    9.6941  -17.5187   24.2408 N   0  0  0  0  0  0  0  0  0  0  0  0
    9.8923  -17.9117   26.6258 C   0  0  0  0  0  0  0  0  0  0  0  0
    9.6427  -17.6678   27.8278 O   0  0  0  0  0  0  0  0  0  0  0  0
   10.7817  -18.9366   26.3456 O   0  0  0  0  0  0  0  0  0  0  0  0
  2  1  1  1
  2  4  1  0
  2  3  1  0
  4  6  1  0
  4  5  1  1
  6  7  2  0
  9 11  1  0
  9  8  1  0
 10  9  2  0
 13 12  1  1
 12 11  1  0
 13 15  1  0
 14  6  1  0
 14 13  1  0
 15 16  2  0
 18 17  1  0
 19 18  1  6
 19 21  1  0
 20 19  1  0
 20 15  1  0
 21 22  2  0
 21 23  1  0
M  END
$$$$
