VQS.pdb
     RDKit          3D

 23 22  0  0  1  0  0  0  0  0999 V2000
    7.5630  -12.3795   20.1612 C   0  0  0  0  0  0  0  0  0  0  0  0
    8.3513  -13.4357   19.4677 C   0  0  2  0  0  0  0  0  0  0  0  0
    7.8330  -13.6432   18.0477 C   0  0  0  0  0  0  0  0  0  0  0  0
    8.2685  -14.7766   20.1579 C   0  0  2  0  0  0  0  0  0  0  0  0
    6.9807  -15.3723   20.1441 N   0  0  0  0  0  0  0  0  0  0  0  0
    8.7029  -14.5846   21.5656 C   0  0  0  0  0  0  0  0  0  0  0  0
    9.9283  -14.3571   21.7587 O   0  0  0  0  0  0  0  0  0  0  0  0
    5.5613  -12.2938   26.4709 N   0  0  0  0  0  0  0  0  0  0  0  0
    6.8107  -12.6425   27.0521 C   0  0  0  0  0  0  0  0  0  0  0  0
    7.0960  -12.2112   28.1936 O   0  0  0  0  0  0  0  0  0  0  0  0
    7.7849  -13.5197   26.3100 C   0  0  0  0  0  0  0  0  0  0  0  0
    7.3117  -13.7629   24.9048 C   0  0  0  0  0  0  0  0  0  0  0  0
    8.2720  -14.5261   24.0625 C   0  0  2  0  0  0  0  0  0  0  0  0
    7.8452  -14.6404   22.6810 N   0  0  0  0  0  0  0  0  0  0  0  0
    8.6166  -15.8631   24.5769 C   0  0  0  0  0  0  0  0  0  0  0  0
    7.8009  -16.8044   24.6695 O   0  0  0  0  0  0  0  0  0  0  0  0
   12.5295  -16.9697   24.6838 O   0  0  0  0  0  0  0  0  0  0  0  0
   11.5139  -17.9282   24.5670 C   0  0  0  0  0  0  0  0  0  0  0  0
   10.3807  -17.4599   25.4523 C   0  0  2  0  0  0  0  0  0  0  0  0
    9.9476  -16.1453   25.0064 N   0  0  0  0  0  0  0  0  0  0  0  0
   10.6955  -17.4993   26.8743 C   0  0  0  0  0  0  0  0  0  0  0  0
   11.0704  -18.5681   27.4067 O   0  0  0  0  0  0  0  0  0  0  0  0
   10.5947  -16.3767   27.6802 O   0  0  0  0  0  0  0  0  0  0  0  0
  2  1  1  1
  2  4  1  0
  2  3  1  0
  4  6  1  0
  4  5  1  1
  6  7  2  0
  9 11  1  0
  9  8  1  0
 10  9  2  0
 13 12  1  1
 12 11  1  0
 13 15  1  0
 14  6  1  0
 14 13  1  0
 15 16  2  0
 18 17  1  0
 19 18  1  6
 19 21  1  0
 20 19  1  0
 20 15  1  0
 21 22  2  0
 21 23  1  0
M  END
$$$$
