VQS.pdb
     RDKit          3D

 23 22  0  0  1  0  0  0  0  0999 V2000
    6.8711  -12.6059   18.7960 C   0  0  0  0  0  0  0  0  0  0  0  0
    8.0924  -13.3268   19.2504 C   0  0  2  0  0  0  0  0  0  0  0  0
    9.0851  -12.3527   19.8779 C   0  0  0  0  0  0  0  0  0  0  0  0
    8.8197  -14.0166   18.1206 C   0  0  2  0  0  0  0  0  0  0  0  0
    8.0346  -14.9449   17.3889 N   0  0  0  0  0  0  0  0  0  0  0  0
    9.9910  -14.7201   18.7038 C   0  0  0  0  0  0  0  0  0  0  0  0
    9.7820  -15.8593   19.2029 O   0  0  0  0  0  0  0  0  0  0  0  0
   16.0658  -13.7449   17.2733 N   0  0  0  0  0  0  0  0  0  0  0  0
   16.1870  -14.6407   18.3703 C   0  0  0  0  0  0  0  0  0  0  0  0
   17.3282  -14.9975   18.7455 O   0  0  0  0  0  0  0  0  0  0  0  0
   14.9622  -15.1589   19.0776 C   0  0  0  0  0  0  0  0  0  0  0  0
   13.7390  -14.4074   18.6342 C   0  0  0  0  0  0  0  0  0  0  0  0
   12.4665  -14.9224   19.2085 C   0  0  2  0  0  0  0  0  0  0  0  0
   11.3001  -14.2023   18.7342 N   0  0  0  0  0  0  0  0  0  0  0  0
   12.4342  -14.9843   20.6802 C   0  0  0  0  0  0  0  0  0  0  0  0
   12.5607  -13.9870   21.4214 O   0  0  0  0  0  0  0  0  0  0  0  0
   10.0039  -16.7347   22.6497 O   0  0  0  0  0  0  0  0  0  0  0  0
   11.1614  -17.2701   23.2305 C   0  0  0  0  0  0  0  0  0  0  0  0
   12.3084  -16.3901   22.7864 C   0  0  2  0  0  0  0  0  0  0  0  0
   12.2505  -16.2350   21.3417 N   0  0  0  0  0  0  0  0  0  0  0  0
   13.6105  -16.8470   23.2542 C   0  0  0  0  0  0  0  0  0  0  0  0
   14.4831  -17.2084   22.4331 O   0  0  0  0  0  0  0  0  0  0  0  0
   13.9300  -16.8991   24.6015 O   0  0  0  0  0  0  0  0  0  0  0  0
  2  1  1  6
  2  4  1  0
  2  3  1  0
  4  6  1  0
  4  5  1  1
  6  7  2  0
  9 11  1  0
  9  8  1  0
 10  9  2  0
 13 12  1  1
 12 11  1  0
 13 15  1  0
 14  6  1  0
 14 13  1  0
 15 16  2  0
 18 17  1  0
 19 18  1  6
 19 21  1  0
 20 19  1  0
 20 15  1  0
 21 22  2  0
 21 23  1  0
M  END
$$$$
