VQS.pdb
     RDKit          3D

 23 22  0  0  1  0  0  0  0  0999 V2000
    7.1280  -12.6779   18.9232 C   0  0  0  0  0  0  0  0  0  0  0  0
    8.2981  -13.4948   19.3491 C   0  0  2  0  0  0  0  0  0  0  0  0
    9.3095  -12.6304   20.0961 C   0  0  0  0  0  0  0  0  0  0  0  0
    9.0353  -14.1135   18.1849 C   0  0  2  0  0  0  0  0  0  0  0  0
    8.2428  -14.9525   17.3594 N   0  0  0  0  0  0  0  0  0  0  0  0
   10.1676  -14.9005   18.7376 C   0  0  0  0  0  0  0  0  0  0  0  0
    9.9185  -16.0835   19.0970 O   0  0  0  0  0  0  0  0  0  0  0  0
   16.2080  -13.3786   17.9415 N   0  0  0  0  0  0  0  0  0  0  0  0
   15.4998  -14.1772   17.0028 C   0  0  0  0  0  0  0  0  0  0  0  0
   15.9657  -14.3225   15.8486 O   0  0  0  0  0  0  0  0  0  0  0  0
   14.2041  -14.8439   17.3846 C   0  0  0  0  0  0  0  0  0  0  0  0
   13.9198  -14.6469   18.8467 C   0  0  0  0  0  0  0  0  0  0  0  0
   12.6198  -15.2145   19.2961 C   0  0  2  0  0  0  0  0  0  0  0  0
   11.4815  -14.4157   18.8835 N   0  0  0  0  0  0  0  0  0  0  0  0
   12.5291  -15.4790   20.7427 C   0  0  0  0  0  0  0  0  0  0  0  0
   12.5263  -14.5848   21.6146 O   0  0  0  0  0  0  0  0  0  0  0  0
   11.2174  -18.6480   24.0902 O   0  0  0  0  0  0  0  0  0  0  0  0
   11.3363  -18.3536   22.7253 C   0  0  0  0  0  0  0  0  0  0  0  0
   12.2527  -17.1546   22.6253 C   0  0  2  0  0  0  0  0  0  0  0  0
   12.4379  -16.8196   21.2224 N   0  0  0  0  0  0  0  0  0  0  0  0
   13.5126  -17.3210   23.3379 C   0  0  0  0  0  0  0  0  0  0  0  0
   14.5671  -17.5558   22.7059 O   0  0  0  0  0  0  0  0  0  0  0  0
   13.5936  -17.2281   24.7180 O   0  0  0  0  0  0  0  0  0  0  0  0
  2  1  1  6
  2  4  1  0
  2  3  1  0
  4  6  1  0
  4  5  1  1
  6  7  2  0
  9 11  1  0
  9  8  1  0
 10  9  2  0
 13 12  1  1
 12 11  1  0
 13 15  1  0
 14  6  1  0
 14 13  1  0
 15 16  2  0
 18 17  1  0
 19 18  1  6
 19 21  1  0
 20 19  1  0
 20 15  1  0
 21 22  2  0
 21 23  1  0
M  END
$$$$
