VQS.pdb
     RDKit          3D

 23 22  0  0  1  0  0  0  0  0999 V2000
    7.0353  -13.6392   20.8880 C   0  0  0  0  0  0  0  0  0  0  0  0
    8.2639  -13.2715   20.1310 C   0  0  2  0  0  0  0  0  0  0  0  0
    7.9562  -12.1784   19.1118 C   0  0  0  0  0  0  0  0  0  0  0  0
    8.8446  -14.4318   19.3577 C   0  0  2  0  0  0  0  0  0  0  0  0
    7.9881  -14.9690   18.3621 N   0  0  0  0  0  0  0  0  0  0  0  0
    9.1857  -15.4971   20.3353 C   0  0  0  0  0  0  0  0  0  0  0  0
    8.3834  -16.4658   20.4268 O   0  0  0  0  0  0  0  0  0  0  0  0
   14.0327  -19.7160   20.3103 N   0  0  0  0  0  0  0  0  0  0  0  0
   13.7020  -18.3495   20.5195 C   0  0  0  0  0  0  0  0  0  0  0  0
   14.6217  -17.5009   20.5867 O   0  0  0  0  0  0  0  0  0  0  0  0
   12.2650  -17.9198   20.6594 C   0  0  0  0  0  0  0  0  0  0  0  0
   12.0921  -17.0402   21.8651 C   0  0  0  0  0  0  0  0  0  0  0  0
   10.7004  -16.5551   22.0704 C   0  0  2  0  0  0  0  0  0  0  0  0
   10.3313  -15.4928   21.1542 N   0  0  0  0  0  0  0  0  0  0  0  0
   10.3894  -16.1380   23.4488 C   0  0  0  0  0  0  0  0  0  0  0  0
   10.6804  -15.0182   23.9193 O   0  0  0  0  0  0  0  0  0  0  0  0
    7.3009  -17.5682   25.4260 O   0  0  0  0  0  0  0  0  0  0  0  0
    7.9810  -16.4392   25.9022 C   0  0  0  0  0  0  0  0  0  0  0  0
    9.4561  -16.7257   25.7317 C   0  0  2  0  0  0  0  0  0  0  0  0
    9.7176  -17.0323   24.3345 N   0  0  0  0  0  0  0  0  0  0  0  0
    9.9616  -17.7476   26.6390 C   0  0  0  0  0  0  0  0  0  0  0  0
   10.4726  -18.7958   26.1846 O   0  0  0  0  0  0  0  0  0  0  0  0
    9.8984  -17.6038   28.0156 O   0  0  0  0  0  0  0  0  0  0  0  0
  2  1  1  6
  2  4  1  0
  2  3  1  0
  4  6  1  0
  4  5  1  6
  6  7  2  0
  9 11  1  0
  9  8  1  0
 10  9  2  0
 13 12  1  1
 12 11  1  0
 13 15  1  0
 14  6  1  0
 14 13  1  0
 15 16  2  0
 18 17  1  0
 19 18  1  6
 19 21  1  0
 20 19  1  0
 20 15  1  0
 21 22  2  0
 21 23  1  0
M  END
$$$$
