VQS.pdb
     RDKit          3D

 23 22  0  0  1  0  0  0  0  0999 V2000
    7.0762  -13.7691   21.4065 C   0  0  0  0  0  0  0  0  0  0  0  0
    8.2247  -13.5155   20.4930 C   0  0  2  0  0  0  0  0  0  0  0  0
    7.8211  -12.5494   19.3831 C   0  0  0  0  0  0  0  0  0  0  0  0
    8.7212  -14.7701   19.8142 C   0  0  2  0  0  0  0  0  0  0  0  0
    7.7550  -15.4338   19.0145 N   0  0  0  0  0  0  0  0  0  0  0  0
    9.1973  -15.6958   20.8741 C   0  0  0  0  0  0  0  0  0  0  0  0
    8.3969  -16.5962   21.2471 O   0  0  0  0  0  0  0  0  0  0  0  0
   13.9961  -19.2013   22.3797 N   0  0  0  0  0  0  0  0  0  0  0  0
   13.3177  -18.7141   21.2296 C   0  0  0  0  0  0  0  0  0  0  0  0
   13.0284  -19.5108   20.3066 O   0  0  0  0  0  0  0  0  0  0  0  0
   12.9478  -17.2583   21.1154 C   0  0  0  0  0  0  0  0  0  0  0  0
   12.4347  -16.7393   22.4287 C   0  0  0  0  0  0  0  0  0  0  0  0
   10.9582  -16.5617   22.4782 C   0  0  2  0  0  0  0  0  0  0  0  0
   10.4670  -15.6315   21.4795 N   0  0  0  0  0  0  0  0  0  0  0  0
   10.4263  -16.1825   23.7989 C   0  0  0  0  0  0  0  0  0  0  0  0
   10.6439  -15.0814   24.3465 O   0  0  0  0  0  0  0  0  0  0  0  0
    7.2311  -18.1314   25.3100 O   0  0  0  0  0  0  0  0  0  0  0  0
    7.5613  -16.8550   25.7849 C   0  0  0  0  0  0  0  0  0  0  0  0
    9.0712  -16.8010   25.8505 C   0  0  2  0  0  0  0  0  0  0  0  0
    9.6103  -17.0946   24.5323 N   0  0  0  0  0  0  0  0  0  0  0  0
    9.6412  -17.6423   26.8947 C   0  0  0  0  0  0  0  0  0  0  0  0
   10.4569  -18.5449   26.6007 O   0  0  0  0  0  0  0  0  0  0  0  0
    9.3100  -17.4809   28.2304 O   0  0  0  0  0  0  0  0  0  0  0  0
  2  1  1  1
  2  4  1  0
  2  3  1  0
  4  6  1  0
  4  5  1  1
  6  7  2  0
  9 11  1  0
  9  8  1  0
 10  9  2  0
 13 12  1  1
 12 11  1  0
 13 15  1  0
 14  6  1  0
 14 13  1  0
 15 16  2  0
 18 17  1  0
 19 18  1  6
 19 21  1  0
 20 19  1  0
 20 15  1  0
 21 22  2  0
 21 23  1  0
M  END
$$$$
