KQW.pdb
     RDKit          3D

 33 34  0  0  1  0  0  0  0  0999 V2000
    9.9114  -13.0947   19.0488 N   0  0  0  0  0  0  0  0  0  0  0  0
    8.6245  -13.5642   19.4076 C   0  0  1  0  0  0  0  0  0  0  0  0
    7.5882  -13.6324   18.3389 C   0  0  0  0  0  0  0  0  0  0  0  0
    8.0252  -13.9444   16.9674 C   0  0  0  0  0  0  0  0  0  0  0  0
    7.4147  -15.1001   16.2689 C   0  0  0  0  0  0  0  0  0  0  0  0
    7.7372  -15.2454   14.8205 C   0  0  0  0  0  0  0  0  0  0  0  0
    7.1895  -16.4366   14.2404 N   0  0  0  0  0  0  0  0  0  0  0  0
    8.6605  -14.8244   20.1984 C   0  0  0  0  0  0  0  0  0  0  0  0
    7.5473  -15.2870   20.5585 O   0  0  0  0  0  0  0  0  0  0  0  0
   12.2651  -19.8203   19.6293 N   0  0  0  0  0  0  0  0  0  0  0  0
   12.6351  -18.4630   19.4444 C   0  0  0  0  0  0  0  0  0  0  0  0
   13.6930  -18.2283   18.8223 O   0  0  0  0  0  0  0  0  0  0  0  0
   11.7944  -17.3693   19.9729 C   0  0  0  0  0  0  0  0  0  0  0  0
   10.5260  -17.8139   20.6321 C   0  0  0  0  0  0  0  0  0  0  0  0
    9.7540  -16.7379   21.3135 C   0  0  2  0  0  0  0  0  0  0  0  0
    9.8205  -15.5024   20.5544 N   0  0  0  0  0  0  0  0  0  0  0  0
   10.2062  -16.4603   22.7010 C   0  0  0  0  0  0  0  0  0  0  0  0
   11.2171  -15.7400   22.8776 O   0  0  0  0  0  0  0  0  0  0  0  0
    9.5518  -16.9703   23.8537 N   0  0  0  0  0  0  0  0  0  0  0  0
    9.9478  -16.5147   25.1549 C   0  0  1  0  0  0  0  0  0  0  0  0
    9.7764  -15.0487   25.3800 C   0  0  0  0  0  0  0  0  0  0  0  0
    8.3594  -14.6337   25.5443 C   0  0  0  0  0  0  0  0  0  0  0  0
    7.2561  -15.4132   25.2074 C   0  0  0  0  0  0  0  0  0  0  0  0
    6.1213  -14.7289   25.4877 N   0  0  0  0  0  0  0  0  0  0  0  0
    6.4392  -13.5259   25.9974 C   0  0  0  0  0  0  0  0  0  0  0  0
    5.6846  -12.4455   26.4474 C   0  0  0  0  0  0  0  0  0  0  0  0
    6.3104  -11.3144   26.9289 C   0  0  0  0  0  0  0  0  0  0  0  0
    7.7001  -11.2773   26.9547 C   0  0  0  0  0  0  0  0  0  0  0  0
    8.4572  -12.3343   26.5145 C   0  0  0  0  0  0  0  0  0  0  0  0
    7.8286  -13.4645   26.0335 C   0  0  0  0  0  0  0  0  0  0  0  0
    9.1550  -17.2169   26.2304 C   0  0  0  0  0  0  0  0  0  0  0  0
    8.2057  -17.9395   25.8334 O   0  0  0  0  0  0  0  0  0  0  0  0
    9.4864  -17.0484   27.5626 O   0  0  0  0  0  0  0  0  0  0  0  0
  2  1  1  6
  2  3  1  0
  4  3  1  0
  4  5  1  0
  5  6  1  0
  6  7  1  0
  8  9  2  0
  8  2  1  0
 10 11  1  0
 11 13  1  0
 12 11  2  0
 13 14  1  0
 15 14  1  6
 15 16  1  0
 16  8  1  0
 17 15  1  0
 17 19  1  0
 18 17  2  0
 20 19  1  0
 20 31  1  0
 20 21  1  6
 22 21  1  0
 22 30  1  0
 23 24  1  0
 23 22  2  0
 24 25  1  0
 25 26  1  0
 25 30  2  0
 26 27  2  0
 27 28  1  0
 29 28  2  0
 30 29  1  0
 31 32  2  0
 31 33  1  0
M  END
$$$$
