KQW.pdb
     RDKit          3D

 33 34  0  0  1  0  0  0  0  0999 V2000
    7.4396  -16.8988   19.1049 N   0  0  0  0  0  0  0  0  0  0  0  0
    8.4328  -15.9901   19.5443 C   0  0  1  0  0  0  0  0  0  0  0  0
    8.0049  -14.6016   19.8752 C   0  0  0  0  0  0  0  0  0  0  0  0
    7.3188  -13.8197   18.8325 C   0  0  0  0  0  0  0  0  0  0  0  0
    7.9921  -13.6252   17.5267 C   0  0  0  0  0  0  0  0  0  0  0  0
    7.2285  -12.8693   16.4931 C   0  0  0  0  0  0  0  0  0  0  0  0
    7.9439  -12.7276   15.2587 N   0  0  0  0  0  0  0  0  0  0  0  0
    9.3065  -16.5488   20.6116 C   0  0  0  0  0  0  0  0  0  0  0  0
    8.7404  -17.2704   21.4728 O   0  0  0  0  0  0  0  0  0  0  0  0
   15.7262  -19.1915   21.8356 N   0  0  0  0  0  0  0  0  0  0  0  0
   15.1499  -17.9080   22.0196 C   0  0  0  0  0  0  0  0  0  0  0  0
   15.8809  -16.9110   21.8380 O   0  0  0  0  0  0  0  0  0  0  0  0
   13.7337  -17.7623   22.4136 C   0  0  0  0  0  0  0  0  0  0  0  0
   12.8576  -17.1202   21.3836 C   0  0  0  0  0  0  0  0  0  0  0  0
   11.4433  -16.9055   21.7981 C   0  0  2  0  0  0  0  0  0  0  0  0
   10.6748  -16.3258   20.7117 N   0  0  0  0  0  0  0  0  0  0  0  0
   11.2927  -16.0373   22.9940 C   0  0  0  0  0  0  0  0  0  0  0  0
   11.4074  -14.7958   22.8615 O   0  0  0  0  0  0  0  0  0  0  0  0
   11.0233  -16.5383   24.2954 N   0  0  0  0  0  0  0  0  0  0  0  0
   10.0219  -15.9076   25.1058 C   0  0  1  0  0  0  0  0  0  0  0  0
    8.6601  -15.8691   24.4949 C   0  0  0  0  0  0  0  0  0  0  0  0
    7.6521  -15.1690   25.3321 C   0  0  0  0  0  0  0  0  0  0  0  0
    6.6238  -15.7944   26.0319 C   0  0  0  0  0  0  0  0  0  0  0  0
    5.8946  -14.8599   26.6874 N   0  0  0  0  0  0  0  0  0  0  0  0
    6.4073  -13.6410   26.4435 C   0  0  0  0  0  0  0  0  0  0  0  0
    6.0605  -12.3557   26.8522 C   0  0  0  0  0  0  0  0  0  0  0  0
    6.7961  -11.2696   26.4254 C   0  0  0  0  0  0  0  0  0  0  0  0
    7.8825  -11.4849   25.5848 C   0  0  0  0  0  0  0  0  0  0  0  0
    8.2363  -12.7458   25.1735 C   0  0  0  0  0  0  0  0  0  0  0  0
    7.4988  -13.8304   25.6021 C   0  0  0  0  0  0  0  0  0  0  0  0
    9.8853  -16.6151   26.4321 C   0  0  0  0  0  0  0  0  0  0  0  0
    9.8283  -15.8767   27.4482 O   0  0  0  0  0  0  0  0  0  0  0  0
    9.8295  -17.9961   26.4827 O   0  0  0  0  0  0  0  0  0  0  0  0
  2  1  1  1
  2  3  1  0
  4  3  1  0
  4  5  1  0
  5  6  1  0
  6  7  1  0
  8  9  2  0
  8  2  1  0
 10 11  1  0
 11 13  1  0
 12 11  2  0
 13 14  1  0
 15 14  1  6
 15 16  1  0
 16  8  1  0
 17 15  1  0
 17 19  1  0
 18 17  2  0
 20 19  1  0
 20 31  1  0
 20 21  1  6
 22 21  1  0
 22 30  1  0
 23 24  1  0
 23 22  2  0
 24 25  1  0
 25 26  1  0
 25 30  2  0
 26 27  2  0
 27 28  1  0
 29 28  2  0
 30 29  1  0
 31 32  2  0
 31 33  1  0
M  END
$$$$
