KQW.pdb
     RDKit          3D

 33 34  0  0  1  0  0  0  0  0999 V2000
    6.5454  -17.1266   20.6482 N   0  0  0  0  0  0  0  0  0  0  0  0
    7.6080  -16.2912   21.0703 C   0  0  1  0  0  0  0  0  0  0  0  0
    7.2983  -14.8592   21.3426 C   0  0  0  0  0  0  0  0  0  0  0  0
    6.9233  -14.0017   20.2053 C   0  0  0  0  0  0  0  0  0  0  0  0
    7.9964  -13.4278   19.3594 C   0  0  0  0  0  0  0  0  0  0  0  0
    7.5636  -12.4860   18.2878 C   0  0  0  0  0  0  0  0  0  0  0  0
    8.6631  -11.8941   17.5832 N   0  0  0  0  0  0  0  0  0  0  0  0
    8.4154  -16.8822   22.1718 C   0  0  0  0  0  0  0  0  0  0  0  0
    7.8055  -17.6541   22.9561 O   0  0  0  0  0  0  0  0  0  0  0  0
   14.6858  -18.5488   22.2706 N   0  0  0  0  0  0  0  0  0  0  0  0
   13.7616  -17.8270   21.4717 C   0  0  0  0  0  0  0  0  0  0  0  0
   14.2134  -17.1721   20.5081 O   0  0  0  0  0  0  0  0  0  0  0  0
   12.3160  -17.8521   21.7748 C   0  0  0  0  0  0  0  0  0  0  0  0
   11.9508  -17.3510   23.1373 C   0  0  0  0  0  0  0  0  0  0  0  0
   10.4916  -17.3261   23.4341 C   0  0  2  0  0  0  0  0  0  0  0  0
    9.7676  -16.6378   22.3809 N   0  0  0  0  0  0  0  0  0  0  0  0
   10.1529  -16.6860   24.7311 C   0  0  0  0  0  0  0  0  0  0  0  0
    9.6570  -15.5344   24.7289 O   0  0  0  0  0  0  0  0  0  0  0  0
   10.3613  -17.3104   25.9896 N   0  0  0  0  0  0  0  0  0  0  0  0
   10.0777  -16.5884   27.1961 C   0  0  1  0  0  0  0  0  0  0  0  0
    8.6350  -16.5589   27.5795 C   0  0  0  0  0  0  0  0  0  0  0  0
    7.8359  -15.5686   26.8127 C   0  0  0  0  0  0  0  0  0  0  0  0
    6.8537  -15.8880   25.8792 C   0  0  0  0  0  0  0  0  0  0  0  0
    6.3285  -14.7468   25.3729 N   0  0  0  0  0  0  0  0  0  0  0  0
    6.9308  -13.6872   25.9408 C   0  0  0  0  0  0  0  0  0  0  0  0
    6.7858  -12.3099   25.7949 C   0  0  0  0  0  0  0  0  0  0  0  0
    7.5679  -11.4475   26.5348 C   0  0  0  0  0  0  0  0  0  0  0  0
    8.4967  -11.9796   27.4221 C   0  0  0  0  0  0  0  0  0  0  0  0
    8.6511  -13.3348   27.5766 C   0  0  0  0  0  0  0  0  0  0  0  0
    7.8674  -14.1951   26.8353 C   0  0  0  0  0  0  0  0  0  0  0  0
   10.8272  -17.1840   28.3631 C   0  0  0  0  0  0  0  0  0  0  0  0
   11.4245  -18.2677   28.1404 O   0  0  0  0  0  0  0  0  0  0  0  0
   10.8314  -16.5429   29.5887 O   0  0  0  0  0  0  0  0  0  0  0  0
  2  1  1  1
  2  3  1  0
  4  3  1  0
  4  5  1  0
  5  6  1  0
  6  7  1  0
  8  9  2  0
  8  2  1  0
 10 11  1  0
 11 13  1  0
 12 11  2  0
 13 14  1  0
 15 14  1  6
 15 16  1  0
 16  8  1  0
 17 15  1  0
 17 19  1  0
 18 17  2  0
 20 19  1  0
 20 31  1  0
 20 21  1  1
 22 21  1  0
 22 30  1  0
 23 24  1  0
 23 22  2  0
 24 25  1  0
 25 26  1  0
 25 30  2  0
 26 27  2  0
 27 28  1  0
 29 28  2  0
 30 29  1  0
 31 32  2  0
 31 33  1  0
M  END
$$$$
