KQW.pdb
     RDKit          3D

 33 34  0  0  1  0  0  0  0  0999 V2000
    7.1290  -15.9384   21.7835 N   0  0  0  0  0  0  0  0  0  0  0  0
    7.8410  -16.6069   20.7581 C   0  0  1  0  0  0  0  0  0  0  0  0
    7.5231  -16.2497   19.3467 C   0  0  0  0  0  0  0  0  0  0  0  0
    7.9224  -14.9178   18.8610 C   0  0  0  0  0  0  0  0  0  0  0  0
    7.7688  -14.6076   17.4199 C   0  0  0  0  0  0  0  0  0  0  0  0
    8.0687  -13.2066   17.0077 C   0  0  0  0  0  0  0  0  0  0  0  0
    7.9683  -13.0045   15.5918 N   0  0  0  0  0  0  0  0  0  0  0  0
    9.3116  -16.6295   20.9854 C   0  0  0  0  0  0  0  0  0  0  0  0
    9.9622  -17.4855   20.3322 O   0  0  0  0  0  0  0  0  0  0  0  0
   14.6221  -14.6018   20.3365 N   0  0  0  0  0  0  0  0  0  0  0  0
   13.3291  -14.4257   19.7793 C   0  0  0  0  0  0  0  0  0  0  0  0
   13.2499  -13.9018   18.6477 O   0  0  0  0  0  0  0  0  0  0  0  0
   12.1214  -14.8484   20.5178 C   0  0  0  0  0  0  0  0  0  0  0  0
   12.3854  -15.4469   21.8642 C   0  0  0  0  0  0  0  0  0  0  0  0
   11.2443  -16.1952   22.4608 C   0  0  2  0  0  0  0  0  0  0  0  0
    9.9910  -15.7841   21.8547 N   0  0  0  0  0  0  0  0  0  0  0  0
   11.1265  -16.0379   23.9332 C   0  0  0  0  0  0  0  0  0  0  0  0
   11.6361  -15.0308   24.4791 O   0  0  0  0  0  0  0  0  0  0  0  0
   10.4619  -16.9741   24.7693 N   0  0  0  0  0  0  0  0  0  0  0  0
   10.6421  -16.9098   26.1908 C   0  0  1  0  0  0  0  0  0  0  0  0
   10.2534  -15.6076   26.8093 C   0  0  0  0  0  0  0  0  0  0  0  0
    8.8845  -15.1607   26.4441 C   0  0  0  0  0  0  0  0  0  0  0  0
    7.8661  -15.9969   25.9947 C   0  0  0  0  0  0  0  0  0  0  0  0
    6.7545  -15.2608   25.7552 N   0  0  0  0  0  0  0  0  0  0  0  0
    7.0059  -13.9690   26.0314 C   0  0  0  0  0  0  0  0  0  0  0  0
    6.2398  -12.8080   25.9656 C   0  0  0  0  0  0  0  0  0  0  0  0
    6.7879  -11.5937   26.3236 C   0  0  0  0  0  0  0  0  0  0  0  0
    8.1114  -11.5552   26.7479 C   0  0  0  0  0  0  0  0  0  0  0  0
    8.8787  -12.6912   26.8179 C   0  0  0  0  0  0  0  0  0  0  0  0
    8.3280  -13.9044   26.4593 C   0  0  0  0  0  0  0  0  0  0  0  0
    9.8311  -17.9798   26.8805 C   0  0  0  0  0  0  0  0  0  0  0  0
    9.1220  -18.7019   26.1345 O   0  0  0  0  0  0  0  0  0  0  0  0
    9.8931  -18.1238   28.2548 O   0  0  0  0  0  0  0  0  0  0  0  0
  2  1  1  1
  2  3  1  0
  4  3  1  0
  4  5  1  0
  5  6  1  0
  6  7  1  0
  8  9  2  0
  8  2  1  0
 10 11  1  0
 11 13  1  0
 12 11  2  0
 13 14  1  0
 15 14  1  6
 15 16  1  0
 16  8  1  0
 17 15  1  0
 17 19  1  0
 18 17  2  0
 20 19  1  0
 20 31  1  0
 20 21  1  1
 22 21  1  0
 22 30  1  0
 23 24  1  0
 23 22  2  0
 24 25  1  0
 25 26  1  0
 25 30  2  0
 26 27  2  0
 27 28  1  0
 29 28  2  0
 30 29  1  0
 31 32  2  0
 31 33  1  0
M  END
$$$$
