KQW.pdb
     RDKit          3D

 33 34  0  0  1  0  0  0  0  0999 V2000
    9.2767  -16.5151   18.4785 N   0  0  0  0  0  0  0  0  0  0  0  0
    8.5846  -17.6777   18.8965 C   0  0  1  0  0  0  0  0  0  0  0  0
    8.3043  -18.7237   17.8727 C   0  0  0  0  0  0  0  0  0  0  0  0
    7.1128  -18.5608   17.0223 C   0  0  0  0  0  0  0  0  0  0  0  0
    7.1972  -18.9455   15.5936 C   0  0  0  0  0  0  0  0  0  0  0  0
    5.9598  -18.7608   14.7829 C   0  0  0  0  0  0  0  0  0  0  0  0
    6.1875  -18.8912   13.3735 N   0  0  0  0  0  0  0  0  0  0  0  0
    9.1467  -18.2799   20.1359 C   0  0  0  0  0  0  0  0  0  0  0  0
    8.5383  -19.2819   20.5927 O   0  0  0  0  0  0  0  0  0  0  0  0
   14.9537  -17.7660   22.9333 N   0  0  0  0  0  0  0  0  0  0  0  0
   14.2735  -18.8945   23.4598 C   0  0  0  0  0  0  0  0  0  0  0  0
   14.9578  -19.7757   24.0222 O   0  0  0  0  0  0  0  0  0  0  0  0
   12.8061  -19.0179   23.3424 C   0  0  0  0  0  0  0  0  0  0  0  0
   12.2198  -18.4001   22.1113 C   0  0  0  0  0  0  0  0  0  0  0  0
   10.7343  -18.4541   22.0200 C   0  0  2  0  0  0  0  0  0  0  0  0
   10.2737  -17.8128   20.8019 N   0  0  0  0  0  0  0  0  0  0  0  0
   10.0381  -17.8262   23.1722 C   0  0  0  0  0  0  0  0  0  0  0  0
   10.2580  -18.2636   24.3265 O   0  0  0  0  0  0  0  0  0  0  0  0
    9.1260  -16.7455   23.0406 N   0  0  0  0  0  0  0  0  0  0  0  0
    8.4877  -16.2089   24.2077 C   0  0  1  0  0  0  0  0  0  0  0  0
    8.3313  -14.7241   24.2046 C   0  0  0  0  0  0  0  0  0  0  0  0
    8.0763  -14.1500   25.5509 C   0  0  0  0  0  0  0  0  0  0  0  0
    8.6340  -14.6202   26.7368 C   0  0  0  0  0  0  0  0  0  0  0  0
    8.1886  -13.8674   27.7710 N   0  0  0  0  0  0  0  0  0  0  0  0
    7.3570  -12.9179   27.3071 C   0  0  0  0  0  0  0  0  0  0  0  0
    6.6320  -11.8972   27.9167 C   0  0  0  0  0  0  0  0  0  0  0  0
    5.8432  -11.0575   27.1581 C   0  0  0  0  0  0  0  0  0  0  0  0
    5.7886  -11.2514   25.7823 C   0  0  0  0  0  0  0  0  0  0  0  0
    6.4975  -12.2531   25.1673 C   0  0  0  0  0  0  0  0  0  0  0  0
    7.2857  -13.0915   25.9287 C   0  0  0  0  0  0  0  0  0  0  0  0
    7.1060  -16.7928   24.3764 C   0  0  0  0  0  0  0  0  0  0  0  0
    6.5960  -16.6821   25.5203 O   0  0  0  0  0  0  0  0  0  0  0  0
    6.4734  -17.4052   23.3097 O   0  0  0  0  0  0  0  0  0  0  0  0
  2  1  1  6
  2  3  1  0
  4  3  1  0
  4  5  1  0
  5  6  1  0
  6  7  1  0
  8  9  2  0
  8  2  1  0
 10 11  1  0
 11 13  1  0
 12 11  2  0
 13 14  1  0
 15 14  1  1
 15 16  1  0
 16  8  1  0
 17 15  1  0
 17 19  1  0
 18 17  2  0
 20 19  1  0
 20 31  1  0
 20 21  1  6
 22 21  1  0
 22 30  1  0
 23 24  1  0
 23 22  2  0
 24 25  1  0
 25 26  1  0
 25 30  2  0
 26 27  2  0
 27 28  1  0
 29 28  2  0
 30 29  1  0
 31 32  2  0
 31 33  1  0
M  END
$$$$
