KQW.pdb
     RDKit          3D

 33 34  0  0  1  0  0  0  0  0999 V2000
    6.4113  -19.1738   21.1195 N   0  0  0  0  0  0  0  0  0  0  0  0
    7.2876  -19.3768   20.0258 C   0  0  1  0  0  0  0  0  0  0  0  0
    6.6950  -19.4082   18.6588 C   0  0  0  0  0  0  0  0  0  0  0  0
    5.9697  -20.6212   18.2444 C   0  0  0  0  0  0  0  0  0  0  0  0
    5.8618  -20.9299   16.7989 C   0  0  0  0  0  0  0  0  0  0  0  0
    4.9758  -22.0704   16.4288 C   0  0  0  0  0  0  0  0  0  0  0  0
    4.7522  -22.1719   15.0163 N   0  0  0  0  0  0  0  0  0  0  0  0
    8.4891  -18.4997   20.0674 C   0  0  0  0  0  0  0  0  0  0  0  0
    9.2990  -18.6202   19.1123 O   0  0  0  0  0  0  0  0  0  0  0  0
    6.9681  -13.1841   19.0490 N   0  0  0  0  0  0  0  0  0  0  0  0
    8.3664  -13.2265   18.8115 C   0  0  0  0  0  0  0  0  0  0  0  0
    8.8294  -12.4723   17.9294 O   0  0  0  0  0  0  0  0  0  0  0  0
    9.2392  -14.1346   19.5833 C   0  0  0  0  0  0  0  0  0  0  0  0
    8.6253  -15.4562   19.9256 C   0  0  0  0  0  0  0  0  0  0  0  0
    9.4646  -16.3443   20.7770 C   0  0  2  0  0  0  0  0  0  0  0  0
    8.7631  -17.5802   21.0731 N   0  0  0  0  0  0  0  0  0  0  0  0
    9.8847  -15.7250   22.0602 C   0  0  0  0  0  0  0  0  0  0  0  0
   10.7060  -14.7780   22.0373 O   0  0  0  0  0  0  0  0  0  0  0  0
    9.4041  -16.1489   23.3277 N   0  0  0  0  0  0  0  0  0  0  0  0
   10.2259  -15.9808   24.4911 C   0  0  1  0  0  0  0  0  0  0  0  0
    9.8631  -14.8116   25.3459 C   0  0  0  0  0  0  0  0  0  0  0  0
    8.4017  -14.6713   25.5729 C   0  0  0  0  0  0  0  0  0  0  0  0
    7.4731  -15.7013   25.4490 C   0  0  0  0  0  0  0  0  0  0  0  0
    6.2359  -15.2252   25.7272 N   0  0  0  0  0  0  0  0  0  0  0  0
    6.3178  -13.9176   26.0299 C   0  0  0  0  0  0  0  0  0  0  0  0
    5.3764  -12.9551   26.3854 C   0  0  0  0  0  0  0  0  0  0  0  0
    5.7723  -11.6591   26.6435 C   0  0  0  0  0  0  0  0  0  0  0  0
    7.1213  -11.3380   26.5417 C   0  0  0  0  0  0  0  0  0  0  0  0
    8.0606  -12.2759   26.1924 C   0  0  0  0  0  0  0  0  0  0  0  0
    7.6618  -13.5714   25.9348 C   0  0  0  0  0  0  0  0  0  0  0  0
   10.1586  -17.2038   25.3733 C   0  0  0  0  0  0  0  0  0  0  0  0
    9.2850  -18.0557   25.0701 O   0  0  0  0  0  0  0  0  0  0  0  0
   11.0256  -17.3403   26.4423 O   0  0  0  0  0  0  0  0  0  0  0  0
  2  1  1  1
  2  3  1  0
  4  3  1  0
  4  5  1  0
  5  6  1  0
  6  7  1  0
  8  9  2  0
  8  2  1  0
 10 11  1  0
 11 13  1  0
 12 11  2  0
 13 14  1  0
 15 14  1  1
 15 16  1  0
 16  8  1  0
 17 15  1  0
 17 19  1  0
 18 17  2  0
 20 19  1  0
 20 31  1  0
 20 21  1  1
 22 21  1  0
 22 30  1  0
 23 24  1  0
 23 22  2  0
 24 25  1  0
 25 26  1  0
 25 30  2  0
 26 27  2  0
 27 28  1  0
 29 28  2  0
 30 29  1  0
 31 32  2  0
 31 33  1  0
M  END
$$$$
