KQW.pdb
     RDKit          3D

 33 34  0  0  1  0  0  0  0  0999 V2000
    7.4286  -14.5975   20.0802 N   0  0  0  0  0  0  0  0  0  0  0  0
    7.9259  -15.8566   19.6645 C   0  0  1  0  0  0  0  0  0  0  0  0
    8.1476  -16.0675   18.2060 C   0  0  0  0  0  0  0  0  0  0  0  0
    8.1265  -14.8888   17.3232 C   0  0  0  0  0  0  0  0  0  0  0  0
    8.3114  -15.0848   15.8658 C   0  0  0  0  0  0  0  0  0  0  0  0
    8.5254  -13.8534   15.0531 C   0  0  0  0  0  0  0  0  0  0  0  0
    8.8474  -14.1332   13.6844 N   0  0  0  0  0  0  0  0  0  0  0  0
    9.1016  -16.3119   20.4552 C   0  0  0  0  0  0  0  0  0  0  0  0
    9.4590  -17.5057   20.2830 O   0  0  0  0  0  0  0  0  0  0  0  0
   14.3158  -15.8575   19.9127 N   0  0  0  0  0  0  0  0  0  0  0  0
   13.3305  -14.8702   19.6521 C   0  0  0  0  0  0  0  0  0  0  0  0
   13.4656  -14.1707   18.6256 O   0  0  0  0  0  0  0  0  0  0  0  0
   12.1871  -14.6801   20.5680 C   0  0  0  0  0  0  0  0  0  0  0  0
   12.1897  -15.5720   21.7702 C   0  0  0  0  0  0  0  0  0  0  0  0
   10.8540  -16.0869   22.1812 C   0  0  2  0  0  0  0  0  0  0  0  0
    9.8091  -15.5176   21.3499 N   0  0  0  0  0  0  0  0  0  0  0  0
   10.5188  -15.8203   23.6035 C   0  0  0  0  0  0  0  0  0  0  0  0
   10.6269  -14.6515   24.0442 O   0  0  0  0  0  0  0  0  0  0  0  0
   10.0775  -16.8253   24.5048 N   0  0  0  0  0  0  0  0  0  0  0  0
   10.0643  -16.5590   25.9142 C   0  0  1  0  0  0  0  0  0  0  0  0
    8.7084  -16.5789   26.5389 C   0  0  0  0  0  0  0  0  0  0  0  0
    7.7581  -15.6135   25.9288 C   0  0  0  0  0  0  0  0  0  0  0  0
    6.7570  -15.9462   25.0203 C   0  0  0  0  0  0  0  0  0  0  0  0
    6.0792  -14.8269   24.6704 N   0  0  0  0  0  0  0  0  0  0  0  0
    6.5994  -13.7689   25.3171 C   0  0  0  0  0  0  0  0  0  0  0  0
    6.2969  -12.4097   25.3303 C   0  0  0  0  0  0  0  0  0  0  0  0
    7.0280  -11.5435   26.1165 C   0  0  0  0  0  0  0  0  0  0  0  0
    8.0653  -12.0537   26.8892 C   0  0  0  0  0  0  0  0  0  0  0  0
    8.3751  -13.3909   26.8865 C   0  0  0  0  0  0  0  0  0  0  0  0
    7.6422  -14.2550   26.0992 C   0  0  0  0  0  0  0  0  0  0  0  0
   10.9016  -17.5720   26.6566 C   0  0  0  0  0  0  0  0  0  0  0  0
   11.3812  -18.5055   25.9641 O   0  0  0  0  0  0  0  0  0  0  0  0
   11.1048  -17.4440   28.0187 O   0  0  0  0  0  0  0  0  0  0  0  0
  2  1  1  6
  2  3  1  0
  4  3  1  0
  4  5  1  0
  5  6  1  0
  6  7  1  0
  8  9  2  0
  8  2  1  0
 10 11  1  0
 11 13  1  0
 12 11  2  0
 13 14  1  0
 15 14  1  6
 15 16  1  0
 16  8  1  0
 17 15  1  0
 17 19  1  0
 18 17  2  0
 20 19  1  0
 20 31  1  0
 20 21  1  1
 22 21  1  0
 22 30  1  0
 23 24  1  0
 23 22  2  0
 24 25  1  0
 25 26  1  0
 25 30  2  0
 26 27  2  0
 27 28  1  0
 29 28  2  0
 30 29  1  0
 31 32  2  0
 31 33  1  0
M  END
$$$$
