KQW.pdb
     RDKit          3D

 33 34  0  0  1  0  0  0  0  0999 V2000
    9.1949  -20.6180   21.0416 N   0  0  0  0  0  0  0  0  0  0  0  0
   10.4704  -20.1793   20.6104 C   0  0  1  0  0  0  0  0  0  0  0  0
   10.9270  -20.5997   19.2556 C   0  0  0  0  0  0  0  0  0  0  0  0
   10.0024  -21.3911   18.4261 C   0  0  0  0  0  0  0  0  0  0  0  0
   10.3962  -21.7240   17.0367 C   0  0  0  0  0  0  0  0  0  0  0  0
    9.4026  -22.4901   16.2314 C   0  0  0  0  0  0  0  0  0  0  0  0
    9.8342  -22.7264   14.8848 N   0  0  0  0  0  0  0  0  0  0  0  0
   10.6904  -18.7225   20.8203 C   0  0  0  0  0  0  0  0  0  0  0  0
   11.7722  -18.2544   20.3808 O   0  0  0  0  0  0  0  0  0  0  0  0
    6.5236  -14.1383   20.3323 N   0  0  0  0  0  0  0  0  0  0  0  0
    7.7923  -13.5046   20.3797 C   0  0  0  0  0  0  0  0  0  0  0  0
    7.8696  -12.3268   19.9696 O   0  0  0  0  0  0  0  0  0  0  0  0
    8.9777  -14.2190   20.8962 C   0  0  0  0  0  0  0  0  0  0  0  0
    8.8536  -15.7106   20.9154 C   0  0  0  0  0  0  0  0  0  0  0  0
   10.0242  -16.4375   21.4806 C   0  0  2  0  0  0  0  0  0  0  0  0
    9.7955  -17.8708   21.4573 N   0  0  0  0  0  0  0  0  0  0  0  0
   10.3646  -16.0399   22.8708 C   0  0  0  0  0  0  0  0  0  0  0  0
   11.0483  -15.0055   23.0564 O   0  0  0  0  0  0  0  0  0  0  0  0
    9.9556  -16.7730   24.0164 N   0  0  0  0  0  0  0  0  0  0  0  0
   10.3533  -16.3307   25.3216 C   0  0  1  0  0  0  0  0  0  0  0  0
    9.9305  -14.9402   25.6635 C   0  0  0  0  0  0  0  0  0  0  0  0
    8.4576  -14.7742   25.7646 C   0  0  0  0  0  0  0  0  0  0  0  0
    7.5290  -15.8044   25.6436 C   0  0  0  0  0  0  0  0  0  0  0  0
    6.2799  -15.3012   25.7887 N   0  0  0  0  0  0  0  0  0  0  0  0
    6.3539  -13.9755   26.0012 C   0  0  0  0  0  0  0  0  0  0  0  0
    5.3996  -12.9834   26.2109 C   0  0  0  0  0  0  0  0  0  0  0  0
    5.7900  -11.6746   26.4044 C   0  0  0  0  0  0  0  0  0  0  0  0
    7.1467  -11.3705   26.3854 C   0  0  0  0  0  0  0  0  0  0  0  0
    8.0988  -12.3376   26.1798 C   0  0  0  0  0  0  0  0  0  0  0  0
    7.7054  -13.6459   25.9866 C   0  0  0  0  0  0  0  0  0  0  0  0
    9.7838  -17.2346   26.3879 C   0  0  0  0  0  0  0  0  0  0  0  0
    8.9843  -18.1203   25.9915 O   0  0  0  0  0  0  0  0  0  0  0  0
   10.1462  -17.0646   27.7119 O   0  0  0  0  0  0  0  0  0  0  0  0
  2  1  1  6
  2  3  1  0
  4  3  1  0
  4  5  1  0
  5  6  1  0
  6  7  1  0
  8  9  2  0
  8  2  1  0
 10 11  1  0
 11 13  1  0
 12 11  2  0
 13 14  1  0
 15 14  1  1
 15 16  1  0
 16  8  1  0
 17 15  1  0
 17 19  1  0
 18 17  2  0
 20 19  1  0
 20 31  1  0
 20 21  1  1
 22 21  1  0
 22 30  1  0
 23 24  1  0
 23 22  2  0
 24 25  1  0
 25 26  1  0
 25 30  2  0
 26 27  2  0
 27 28  1  0
 29 28  2  0
 30 29  1  0
 31 32  2  0
 31 33  1  0
M  END
$$$$
