KQW.pdb
     RDKit          3D

 33 34  0  0  1  0  0  0  0  0999 V2000
    5.7915  -19.3557   21.6361 N   0  0  0  0  0  0  0  0  0  0  0  0
    7.1818  -19.4765   21.3957 C   0  0  1  0  0  0  0  0  0  0  0  0
    7.6362  -20.5653   20.4854 C   0  0  0  0  0  0  0  0  0  0  0  0
    6.8341  -21.7991   20.4244 C   0  0  0  0  0  0  0  0  0  0  0  0
    6.5303  -22.5163   21.6852 C   0  0  0  0  0  0  0  0  0  0  0  0
    5.8053  -23.8123   21.5527 C   0  0  0  0  0  0  0  0  0  0  0  0
    6.6083  -24.9440   21.9132 N   0  0  0  0  0  0  0  0  0  0  0  0
    7.8303  -18.1831   21.0473 C   0  0  0  0  0  0  0  0  0  0  0  0
    8.9535  -18.2577   20.4856 O   0  0  0  0  0  0  0  0  0  0  0  0
    7.5488  -13.8400   17.9510 N   0  0  0  0  0  0  0  0  0  0  0  0
    8.0311  -12.9814   18.9726 C   0  0  0  0  0  0  0  0  0  0  0  0
    8.6598  -11.9592   18.6243 O   0  0  0  0  0  0  0  0  0  0  0  0
    7.7958  -13.2918   20.3975 C   0  0  0  0  0  0  0  0  0  0  0  0
    7.1260  -14.6061   20.6522 C   0  0  0  0  0  0  0  0  0  0  0  0
    8.0393  -15.7221   21.0245 C   0  0  2  0  0  0  0  0  0  0  0  0
    7.2836  -16.9304   21.3001 N   0  0  0  0  0  0  0  0  0  0  0  0
    8.8988  -15.4287   22.1999 C   0  0  0  0  0  0  0  0  0  0  0  0
    9.5966  -14.3870   22.1971 O   0  0  0  0  0  0  0  0  0  0  0  0
    8.9773  -16.2704   23.3412 N   0  0  0  0  0  0  0  0  0  0  0  0
    9.9010  -15.9567   24.3927 C   0  0  1  0  0  0  0  0  0  0  0  0
    9.6331  -14.6649   25.0919 C   0  0  0  0  0  0  0  0  0  0  0  0
    8.2396  -14.5363   25.5906 C   0  0  0  0  0  0  0  0  0  0  0  0
    7.2846  -15.5488   25.5582 C   0  0  0  0  0  0  0  0  0  0  0  0
    6.1273  -15.0905   26.0924 N   0  0  0  0  0  0  0  0  0  0  0  0
    6.2874  -13.8115   26.4753 C   0  0  0  0  0  0  0  0  0  0  0  0
    5.4441  -12.8758   27.0691 C   0  0  0  0  0  0  0  0  0  0  0  0
    5.9048  -11.6063   27.3504 C   0  0  0  0  0  0  0  0  0  0  0  0
    7.2190  -11.2845   27.0304 C   0  0  0  0  0  0  0  0  0  0  0  0
    8.0618  -12.1961   26.4449 C   0  0  0  0  0  0  0  0  0  0  0  0
    7.5984  -13.4651   26.1647 C   0  0  0  0  0  0  0  0  0  0  0  0
    9.8930  -17.0346   25.4493 C   0  0  0  0  0  0  0  0  0  0  0  0
   10.7057  -16.8847   26.3969 O   0  0  0  0  0  0  0  0  0  0  0  0
    9.0266  -18.1075   25.3436 O   0  0  0  0  0  0  0  0  0  0  0  0
  2  1  1  6
  2  3  1  0
  4  3  1  0
  4  5  1  0
  5  6  1  0
  6  7  1  0
  8  9  2  0
  8  2  1  0
 10 11  1  0
 11 13  1  0
 12 11  2  0
 13 14  1  0
 15 14  1  1
 15 16  1  0
 16  8  1  0
 17 15  1  0
 17 19  1  0
 18 17  2  0
 20 19  1  0
 20 31  1  0
 20 21  1  1
 22 21  1  0
 22 30  1  0
 23 24  1  0
 23 22  2  0
 24 25  1  0
 25 26  1  0
 25 30  2  0
 26 27  2  0
 27 28  1  0
 29 28  2  0
 30 29  1  0
 31 32  2  0
 31 33  1  0
M  END
$$$$
