KQW.pdb
     RDKit          3D

 33 34  0  0  1  0  0  0  0  0999 V2000
    9.3932  -15.4070   18.9839 N   0  0  0  0  0  0  0  0  0  0  0  0
    8.4882  -14.5349   19.6364 C   0  0  1  0  0  0  0  0  0  0  0  0
    7.4659  -13.8443   18.8006 C   0  0  0  0  0  0  0  0  0  0  0  0
    7.8980  -13.2539   17.5223 C   0  0  0  0  0  0  0  0  0  0  0  0
    7.7570  -14.0536   16.2826 C   0  0  0  0  0  0  0  0  0  0  0  0
    8.1844  -13.3938   15.0158 C   0  0  0  0  0  0  0  0  0  0  0  0
    7.9488  -14.2017   13.8551 N   0  0  0  0  0  0  0  0  0  0  0  0
    7.8702  -15.1339   20.8504 C   0  0  0  0  0  0  0  0  0  0  0  0
    6.9014  -14.5051   21.3492 O   0  0  0  0  0  0  0  0  0  0  0  0
    7.5071  -21.1473   22.7177 N   0  0  0  0  0  0  0  0  0  0  0  0
    6.8503  -20.4246   23.7471 C   0  0  0  0  0  0  0  0  0  0  0  0
    6.2486  -21.0797   24.6246 O   0  0  0  0  0  0  0  0  0  0  0  0
    6.8797  -18.9479   23.7740 C   0  0  0  0  0  0  0  0  0  0  0  0
    7.6127  -18.3129   22.6335 C   0  0  0  0  0  0  0  0  0  0  0  0
    7.6201  -16.8236   22.6345 C   0  0  2  0  0  0  0  0  0  0  0  0
    8.2893  -16.3153   21.4509 N   0  0  0  0  0  0  0  0  0  0  0  0
    8.2668  -16.2267   23.8312 C   0  0  0  0  0  0  0  0  0  0  0  0
    8.0760  -15.0133   24.0829 O   0  0  0  0  0  0  0  0  0  0  0  0
    9.0996  -16.9598   24.7179 N   0  0  0  0  0  0  0  0  0  0  0  0
    9.6404  -16.3157   25.8797 C   0  0  1  0  0  0  0  0  0  0  0  0
    8.6278  -15.9352   26.9088 C   0  0  0  0  0  0  0  0  0  0  0  0
    7.6153  -14.9657   26.4171 C   0  0  0  0  0  0  0  0  0  0  0  0
    6.3857  -15.3096   25.8619 C   0  0  0  0  0  0  0  0  0  0  0  0
    5.7156  -14.1821   25.5235 N   0  0  0  0  0  0  0  0  0  0  0  0
    6.4614  -13.1079   25.8366 C   0  0  0  0  0  0  0  0  0  0  0  0
    6.2660  -11.7351   25.7092 C   0  0  0  0  0  0  0  0  0  0  0  0
    7.2392  -10.8534   26.1318 C   0  0  0  0  0  0  0  0  0  0  0  0
    8.4099  -11.3620   26.6832 C   0  0  0  0  0  0  0  0  0  0  0  0
    8.6167  -12.7125   26.8151 C   0  0  0  0  0  0  0  0  0  0  0  0
    7.6416  -13.5920   26.3917 C   0  0  0  0  0  0  0  0  0  0  0  0
   10.6454  -17.2088   26.5659 C   0  0  0  0  0  0  0  0  0  0  0  0
   10.7702  -18.3662   26.0907 O   0  0  0  0  0  0  0  0  0  0  0  0
   11.3660  -16.7423   27.6504 O   0  0  0  0  0  0  0  0  0  0  0  0
  2  1  1  6
  2  3  1  0
  4  3  1  0
  4  5  1  0
  5  6  1  0
  6  7  1  0
  8  9  2  0
  8  2  1  0
 10 11  1  0
 11 13  1  0
 12 11  2  0
 13 14  1  0
 15 14  1  1
 15 16  1  0
 16  8  1  0
 17 15  1  0
 17 19  1  0
 18 17  2  0
 20 19  1  0
 20 31  1  0
 20 21  1  1
 22 21  1  0
 22 30  1  0
 23 24  1  0
 23 22  2  0
 24 25  1  0
 25 26  1  0
 25 30  2  0
 26 27  2  0
 27 28  1  0
 29 28  2  0
 30 29  1  0
 31 32  2  0
 31 33  1  0
M  END
$$$$
