CWV.pdb
     RDKit          3D

 28 29  0  0  1  0  0  0  0  0999 V2000
    6.9499  -13.5555   19.9525 N   0  0  0  0  0  0  0  0  0  0  0  0
    7.0940  -14.8703   20.4946 C   0  0  1  0  0  0  0  0  0  0  0  0
    7.5671  -15.8021   19.3995 C   0  0  0  0  0  0  0  0  0  0  0  0
    7.8247  -17.4860   20.0221 S   0  0  0  0  0  0  0  0  0  0  0  0
    8.0806  -14.9534   21.6025 C   0  0  0  0  0  0  0  0  0  0  0  0
    9.1380  -14.2709   21.5940 O   0  0  0  0  0  0  0  0  0  0  0  0
    7.8986  -15.8130   22.7503 N   0  0  0  0  0  0  0  0  0  0  0  0
    8.8682  -15.8224   23.8251 C   0  0  1  0  0  0  0  0  0  0  0  0
    8.1895  -16.0087   25.1400 C   0  0  0  0  0  0  0  0  0  0  0  0
    7.1434  -15.0377   25.4679 C   0  0  0  0  0  0  0  0  0  0  0  0
    5.7837  -15.1406   25.4209 C   0  0  0  0  0  0  0  0  0  0  0  0
    5.2530  -13.9830   25.8265 N   0  0  0  0  0  0  0  0  0  0  0  0
    6.2422  -13.1338   26.1348 C   0  0  0  0  0  0  0  0  0  0  0  0
    6.2540  -11.8251   26.5987 C   0  0  0  0  0  0  0  0  0  0  0  0
    7.4343  -11.1445   26.8494 C   0  0  0  0  0  0  0  0  0  0  0  0
    8.6390  -11.7771   26.6352 C   0  0  0  0  0  0  0  0  0  0  0  0
    8.6351  -13.0750   26.1752 C   0  0  0  0  0  0  0  0  0  0  0  0
    7.4434  -13.7516   25.9256 C   0  0  0  0  0  0  0  0  0  0  0  0
    9.9770  -16.7671   23.6265 C   0  0  0  0  0  0  0  0  0  0  0  0
    9.7718  -17.9473   23.2256 O   0  0  0  0  0  0  0  0  0  0  0  0
   14.6704  -17.8239   22.9709 C   0  0  0  0  0  0  0  0  0  0  0  0
   13.6521  -16.7304   23.2012 C   0  0  1  0  0  0  0  0  0  0  0  0
   13.5460  -15.9274   21.9296 C   0  0  0  0  0  0  0  0  0  0  0  0
   12.3652  -17.3689   23.6289 C   0  0  2  0  0  0  0  0  0  0  0  0
   11.3199  -16.4024   23.8717 N   0  0  0  0  0  0  0  0  0  0  0  0
   12.6776  -18.1316   24.8874 C   0  0  0  0  0  0  0  0  0  0  0  0
   13.4432  -19.3011   24.8209 O   0  0  0  0  0  0  0  0  0  0  0  0
   12.2824  -17.7699   26.0058 O   0  0  0  0  0  0  0  0  0  0  0  0
  2  3  1  0
  2  1  1  6
  3  4  1  0
  5  2  1  0
  6  5  2  0
  7  5  1  0
  8  7  1  0
  8  9  1  1
 10  9  1  0
 10 18  1  0
 11 12  1  0
 11 10  2  0
 12 13  1  0
 13 18  2  0
 13 14  1  0
 14 15  2  0
 15 16  1  0
 17 16  2  0
 18 17  1  0
 19 20  2  0
 19  8  1  0
 22 24  1  0
 22 21  1  6
 23 22  1  0
 24 25  1  1
 25 19  1  0
 26 24  1  0
 27 26  1  0
 28 26  2  0
M  END
$$$$
