CWV.pdb
     RDKit          3D

 28 29  0  0  1  0  0  0  0  0999 V2000
    6.7427  -14.5914   20.0855 N   0  0  0  0  0  0  0  0  0  0  0  0
    7.0916  -15.7681   20.8183 C   0  0  1  0  0  0  0  0  0  0  0  0
    7.6518  -16.7950   19.8575 C   0  0  0  0  0  0  0  0  0  0  0  0
    7.9861  -18.3724   20.6879 S   0  0  0  0  0  0  0  0  0  0  0  0
    8.1198  -15.5354   21.8654 C   0  0  0  0  0  0  0  0  0  0  0  0
    9.0520  -14.7063   21.6989 O   0  0  0  0  0  0  0  0  0  0  0  0
    8.1224  -16.2360   23.1297 N   0  0  0  0  0  0  0  0  0  0  0  0
    9.1345  -15.9551   24.1259 C   0  0  1  0  0  0  0  0  0  0  0  0
    8.5384  -15.9605   25.4929 C   0  0  0  0  0  0  0  0  0  0  0  0
    7.4082  -15.0539   25.7061 C   0  0  0  0  0  0  0  0  0  0  0  0
    6.0635  -15.2846   25.6894 C   0  0  0  0  0  0  0  0  0  0  0  0
    5.4296  -14.1371   25.9494 N   0  0  0  0  0  0  0  0  0  0  0  0
    6.3374  -13.1692   26.1339 C   0  0  0  0  0  0  0  0  0  0  0  0
    6.2298  -11.8159   26.4255 C   0  0  0  0  0  0  0  0  0  0  0  0
    7.3432  -11.0047   26.5721 C   0  0  0  0  0  0  0  0  0  0  0  0
    8.6006  -11.5481   26.4263 C   0  0  0  0  0  0  0  0  0  0  0  0
    8.7149  -12.8895   26.1370 C   0  0  0  0  0  0  0  0  0  0  0  0
    7.5898  -13.6976   25.9910 C   0  0  0  0  0  0  0  0  0  0  0  0
   10.3267  -16.8099   24.0295 C   0  0  0  0  0  0  0  0  0  0  0  0
   10.2306  -18.0513   23.8164 O   0  0  0  0  0  0  0  0  0  0  0  0
   15.0949  -17.5335   23.4575 C   0  0  0  0  0  0  0  0  0  0  0  0
   14.0045  -16.4959   23.5994 C   0  0  1  0  0  0  0  0  0  0  0  0
   13.8526  -15.8053   22.2678 C   0  0  0  0  0  0  0  0  0  0  0  0
   12.7606  -17.1833   24.0759 C   0  0  2  0  0  0  0  0  0  0  0  0
   11.6320  -16.2870   24.1683 N   0  0  0  0  0  0  0  0  0  0  0  0
   13.0919  -17.7515   25.4289 C   0  0  0  0  0  0  0  0  0  0  0  0
   13.9351  -18.8639   25.5293 O   0  0  0  0  0  0  0  0  0  0  0  0
   12.6460  -17.2751   26.4834 O   0  0  0  0  0  0  0  0  0  0  0  0
  2  3  1  0
  2  1  1  6
  3  4  1  0
  5  2  1  0
  6  5  2  0
  7  5  1  0
  8  7  1  0
  8  9  1  1
 10  9  1  0
 10 18  1  0
 11 12  1  0
 11 10  2  0
 12 13  1  0
 13 18  2  0
 13 14  1  0
 14 15  2  0
 15 16  1  0
 17 16  2  0
 18 17  1  0
 19 20  2  0
 19  8  1  0
 22 24  1  0
 22 21  1  6
 23 22  1  0
 24 25  1  1
 25 19  1  0
 26 24  1  0
 27 26  1  0
 28 26  2  0
M  END
$$$$
