CWV.pdb
     RDKit          3D

 28 29  0  0  1  0  0  0  0  0999 V2000
    6.8706  -17.2612   20.9583 N   0  0  0  0  0  0  0  0  0  0  0  0
    7.5714  -16.0234   20.8179 C   0  0  1  0  0  0  0  0  0  0  0  0
    6.5631  -14.9034   20.6752 C   0  0  0  0  0  0  0  0  0  0  0  0
    5.4867  -15.1546   19.2372 S   0  0  0  0  0  0  0  0  0  0  0  0
    8.4370  -15.6933   21.9796 C   0  0  0  0  0  0  0  0  0  0  0  0
    9.2188  -14.7073   21.9581 O   0  0  0  0  0  0  0  0  0  0  0  0
    8.4429  -16.4714   23.1979 N   0  0  0  0  0  0  0  0  0  0  0  0
    9.3900  -16.1809   24.2533 C   0  0  1  0  0  0  0  0  0  0  0  0
    8.7254  -16.2523   25.5865 C   0  0  0  0  0  0  0  0  0  0  0  0
    7.5752  -15.3669   25.7809 C   0  0  0  0  0  0  0  0  0  0  0  0
    6.2354  -15.6173   25.7184 C   0  0  0  0  0  0  0  0  0  0  0  0
    5.5761  -14.4844   25.9792 N   0  0  0  0  0  0  0  0  0  0  0  0
    6.4626  -13.5066   26.2090 C   0  0  0  0  0  0  0  0  0  0  0  0
    6.3251  -12.1607   26.5215 C   0  0  0  0  0  0  0  0  0  0  0  0
    7.4207  -11.3357   26.7171 C   0  0  0  0  0  0  0  0  0  0  0  0
    8.6902  -11.8574   26.6005 C   0  0  0  0  0  0  0  0  0  0  0  0
    8.8343  -13.1914   26.2908 C   0  0  0  0  0  0  0  0  0  0  0  0
    7.7269  -14.0135   26.0955 C   0  0  0  0  0  0  0  0  0  0  0  0
   10.6201  -16.9838   24.1952 C   0  0  0  0  0  0  0  0  0  0  0  0
   10.5801  -18.2441   24.1194 O   0  0  0  0  0  0  0  0  0  0  0  0
   15.3827  -17.4598   23.3356 C   0  0  0  0  0  0  0  0  0  0  0  0
   14.2464  -16.4801   23.5218 C   0  0  1  0  0  0  0  0  0  0  0  0
   13.9885  -15.8187   22.1917 C   0  0  0  0  0  0  0  0  0  0  0  0
   13.0679  -17.2257   24.0713 C   0  0  2  0  0  0  0  0  0  0  0  0
   11.9011  -16.3878   24.2197 N   0  0  0  0  0  0  0  0  0  0  0  0
   13.5021  -17.7626   25.4079 C   0  0  0  0  0  0  0  0  0  0  0  0
   14.3154  -18.8997   25.4706 O   0  0  0  0  0  0  0  0  0  0  0  0
   13.1686  -17.2384   26.4811 O   0  0  0  0  0  0  0  0  0  0  0  0
  2  3  1  0
  2  1  1  1
  3  4  1  0
  5  2  1  0
  6  5  2  0
  7  5  1  0
  8  7  1  0
  8  9  1  1
 10  9  1  0
 10 18  1  0
 11 12  1  0
 11 10  2  0
 12 13  1  0
 13 18  2  0
 13 14  1  0
 14 15  2  0
 15 16  1  0
 17 16  2  0
 18 17  1  0
 19 20  2  0
 19  8  1  0
 22 24  1  0
 22 21  1  6
 23 22  1  0
 24 25  1  1
 25 19  1  0
 26 24  1  0
 27 26  1  0
 28 26  2  0
M  END
$$$$
