CWV.pdb
     RDKit          3D

 28 29  0  0  1  0  0  0  0  0999 V2000
    7.6015  -16.1545   19.1488 N   0  0  0  0  0  0  0  0  0  0  0  0
    7.0824  -16.7904   20.3190 C   0  0  1  0  0  0  0  0  0  0  0  0
    7.1778  -18.2909   20.1439 C   0  0  0  0  0  0  0  0  0  0  0  0
    8.9031  -18.8451   20.0687 S   0  0  0  0  0  0  0  0  0  0  0  0
    7.8180  -16.4429   21.5623 C   0  0  0  0  0  0  0  0  0  0  0  0
    8.9789  -15.9582   21.5258 O   0  0  0  0  0  0  0  0  0  0  0  0
    7.2605  -16.6359   22.8820 N   0  0  0  0  0  0  0  0  0  0  0  0
    8.0132  -16.2650   24.0615 C   0  0  1  0  0  0  0  0  0  0  0  0
    7.0962  -16.0253   25.2130 C   0  0  0  0  0  0  0  0  0  0  0  0
    7.1368  -14.6843   25.8002 C   0  0  0  0  0  0  0  0  0  0  0  0
    6.3458  -13.5930   25.5885 C   0  0  0  0  0  0  0  0  0  0  0  0
    6.7741  -12.5965   26.3694 N   0  0  0  0  0  0  0  0  0  0  0  0
    7.8262  -13.0216   27.0815 C   0  0  0  0  0  0  0  0  0  0  0  0
    8.6377  -12.4081   28.0267 C   0  0  0  0  0  0  0  0  0  0  0  0
    9.6880  -13.0738   28.6371 C   0  0  0  0  0  0  0  0  0  0  0  0
    9.9434  -14.3857   28.3032 C   0  0  0  0  0  0  0  0  0  0  0  0
    9.1428  -15.0006   27.3667 C   0  0  0  0  0  0  0  0  0  0  0  0
    8.0889  -14.3233   26.7577 C   0  0  0  0  0  0  0  0  0  0  0  0
    9.1037  -17.1927   24.3954 C   0  0  0  0  0  0  0  0  0  0  0  0
    8.9429  -18.4444   24.3390 O   0  0  0  0  0  0  0  0  0  0  0  0
   13.8137  -18.2344   24.7411 C   0  0  0  0  0  0  0  0  0  0  0  0
   12.7796  -17.1486   24.5475 C   0  0  1  0  0  0  0  0  0  0  0  0
   12.8360  -16.7136   23.1050 C   0  0  0  0  0  0  0  0  0  0  0  0
   11.4466  -17.6881   24.9706 C   0  0  2  0  0  0  0  0  0  0  0  0
   10.3791  -16.7319   24.7924 N   0  0  0  0  0  0  0  0  0  0  0  0
   11.5878  -18.0528   26.4232 C   0  0  0  0  0  0  0  0  0  0  0  0
   12.3629  -19.1583   26.7913 O   0  0  0  0  0  0  0  0  0  0  0  0
   11.0401  -17.4106   27.3317 O   0  0  0  0  0  0  0  0  0  0  0  0
  2  3  1  0
  2  1  1  6
  3  4  1  0
  5  2  1  0
  6  5  2  0
  7  5  1  0
  8  7  1  0
  8  9  1  1
 10  9  1  0
 10 18  1  0
 11 12  1  0
 11 10  2  0
 12 13  1  0
 13 18  2  0
 13 14  1  0
 14 15  2  0
 15 16  1  0
 17 16  2  0
 18 17  1  0
 19 20  2  0
 19  8  1  0
 22 24  1  0
 22 21  1  6
 23 22  1  0
 24 25  1  1
 25 19  1  0
 26 24  1  0
 27 26  1  0
 28 26  2  0
M  END
$$$$
