CWV.pdb
     RDKit          3D

 28 29  0  0  1  0  0  0  0  0999 V2000
   10.2890  -15.8541   18.1233 N   0  0  0  0  0  0  0  0  0  0  0  0
    9.1869  -16.3079   18.9125 C   0  0  1  0  0  0  0  0  0  0  0  0
    9.1023  -17.8161   18.8136 C   0  0  0  0  0  0  0  0  0  0  0  0
   10.6126  -18.6103   19.4282 S   0  0  0  0  0  0  0  0  0  0  0  0
    9.3046  -15.9654   20.3535 C   0  0  0  0  0  0  0  0  0  0  0  0
   10.4104  -15.6530   20.8670 O   0  0  0  0  0  0  0  0  0  0  0  0
    8.1739  -15.9684   21.2540 N   0  0  0  0  0  0  0  0  0  0  0  0
    8.3465  -15.6470   22.6548 C   0  0  1  0  0  0  0  0  0  0  0  0
    7.0463  -15.2410   23.2622 C   0  0  0  0  0  0  0  0  0  0  0  0
    7.0648  -14.9691   24.7011 C   0  0  0  0  0  0  0  0  0  0  0  0
    7.0772  -15.8174   25.7696 C   0  0  0  0  0  0  0  0  0  0  0  0
    7.1006  -15.0916   26.8916 N   0  0  0  0  0  0  0  0  0  0  0  0
    7.1035  -13.7911   26.5699 C   0  0  0  0  0  0  0  0  0  0  0  0
    7.1242  -12.6295   27.3305 C   0  0  0  0  0  0  0  0  0  0  0  0
    7.1232  -11.3712   26.7511 C   0  0  0  0  0  0  0  0  0  0  0  0
    7.1013  -11.2582   25.3784 C   0  0  0  0  0  0  0  0  0  0  0  0
    7.0807  -12.4057   24.6177 C   0  0  0  0  0  0  0  0  0  0  0  0
    7.0817  -13.6670   25.2089 C   0  0  0  0  0  0  0  0  0  0  0  0
    9.0275  -16.6925   23.4323 C   0  0  0  0  0  0  0  0  0  0  0  0
    8.6932  -17.9069   23.3358 O   0  0  0  0  0  0  0  0  0  0  0  0
   12.9685  -18.4274   25.5838 C   0  0  0  0  0  0  0  0  0  0  0  0
   12.3019  -17.2606   24.8912 C   0  0  1  0  0  0  0  0  0  0  0  0
   12.8726  -17.1669   23.4988 C   0  0  0  0  0  0  0  0  0  0  0  0
   10.8190  -17.4758   24.9298 C   0  0  2  0  0  0  0  0  0  0  0  0
   10.0849  -16.3919   24.3199 N   0  0  0  0  0  0  0  0  0  0  0  0
   10.4551  -17.6036   26.3838 C   0  0  0  0  0  0  0  0  0  0  0  0
    9.6595  -16.6255   26.9910 O   0  0  0  0  0  0  0  0  0  0  0  0
   10.8327  -18.5517   27.0884 O   0  0  0  0  0  0  0  0  0  0  0  0
  2  3  1  0
  2  1  1  6
  3  4  1  0
  5  2  1  0
  6  5  2  0
  7  5  1  0
  8  7  1  0
  8  9  1  1
 10  9  1  0
 10 18  1  0
 11 12  1  0
 11 10  2  0
 12 13  1  0
 13 18  2  0
 13 14  1  0
 14 15  2  0
 15 16  1  0
 17 16  2  0
 18 17  1  0
 19 20  2  0
 19  8  1  0
 22 24  1  0
 22 21  1  6
 23 22  1  0
 24 25  1  1
 25 19  1  0
 26 24  1  0
 27 26  1  0
 28 26  2  0
M  END
$$$$
