CWV.pdb
     RDKit          3D

 28 29  0  0  1  0  0  0  0  0999 V2000
   10.7950  -18.8848   20.9534 N   0  0  0  0  0  0  0  0  0  0  0  0
   11.3891  -17.5854   20.9964 C   0  0  1  0  0  0  0  0  0  0  0  0
   11.0556  -16.8520   19.7149 C   0  0  0  0  0  0  0  0  0  0  0  0
   12.0736  -15.3645   19.5136 S   0  0  0  0  0  0  0  0  0  0  0  0
   10.9069  -16.7465   22.1240 C   0  0  0  0  0  0  0  0  0  0  0  0
   11.4150  -15.6218   22.3711 O   0  0  0  0  0  0  0  0  0  0  0  0
    9.8369  -17.1580   23.0045 N   0  0  0  0  0  0  0  0  0  0  0  0
    9.4076  -16.3042   24.0918 C   0  0  1  0  0  0  0  0  0  0  0  0
    7.9199  -16.2983   24.1959 C   0  0  0  0  0  0  0  0  0  0  0  0
    7.2572  -15.0317   23.8779 C   0  0  0  0  0  0  0  0  0  0  0  0
    6.8454  -14.5148   22.6842 C   0  0  0  0  0  0  0  0  0  0  0  0
    6.2819  -13.3233   22.9057 N   0  0  0  0  0  0  0  0  0  0  0  0
    6.3211  -13.0595   24.2186 C   0  0  0  0  0  0  0  0  0  0  0  0
    5.8843  -11.9833   24.9796 C   0  0  0  0  0  0  0  0  0  0  0  0
    6.0423  -11.9434   26.3553 C   0  0  0  0  0  0  0  0  0  0  0  0
    6.6502  -12.9995   26.9977 C   0  0  0  0  0  0  0  0  0  0  0  0
    7.0859  -14.0702   26.2494 C   0  0  0  0  0  0  0  0  0  0  0  0
    6.9231  -14.1017   24.8664 C   0  0  0  0  0  0  0  0  0  0  0  0
   10.0595  -16.5938   25.3772 C   0  0  0  0  0  0  0  0  0  0  0  0
   10.8167  -17.5948   25.5200 O   0  0  0  0  0  0  0  0  0  0  0  0
   11.2527  -15.3876   29.9737 C   0  0  0  0  0  0  0  0  0  0  0  0
   10.3591  -15.0542   28.8007 C   0  0  1  0  0  0  0  0  0  0  0  0
   10.6448  -13.6300   28.3968 C   0  0  0  0  0  0  0  0  0  0  0  0
   10.6117  -16.0583   27.7169 C   0  0  2  0  0  0  0  0  0  0  0  0
    9.8731  -15.7698   26.5099 N   0  0  0  0  0  0  0  0  0  0  0  0
   10.1980  -17.3906   28.2798 C   0  0  0  0  0  0  0  0  0  0  0  0
   11.0693  -18.0919   29.1209 O   0  0  0  0  0  0  0  0  0  0  0  0
    9.1006  -17.9117   28.0310 O   0  0  0  0  0  0  0  0  0  0  0  0
  2  3  1  0
  2  1  1  6
  3  4  1  0
  5  2  1  0
  6  5  2  0
  7  5  1  0
  8  7  1  0
  8  9  1  1
 10  9  1  0
 10 18  1  0
 11 12  1  0
 11 10  2  0
 12 13  1  0
 13 18  2  0
 13 14  1  0
 14 15  2  0
 15 16  1  0
 17 16  2  0
 18 17  1  0
 19 20  2  0
 19  8  1  0
 22 24  1  0
 22 21  1  1
 23 22  1  0
 24 25  1  6
 25 19  1  0
 26 24  1  0
 27 26  1  0
 28 26  2  0
M  END
$$$$
