CWV.pdb
     RDKit          3D

 28 29  0  0  1  0  0  0  0  0999 V2000
   10.4474  -15.8999   19.7390 N   0  0  0  0  0  0  0  0  0  0  0  0
   10.2611  -16.8174   20.8192 C   0  0  1  0  0  0  0  0  0  0  0  0
   11.4614  -17.7366   20.8933 C   0  0  0  0  0  0  0  0  0  0  0  0
   11.1930  -19.0902   22.0703 S   0  0  0  0  0  0  0  0  0  0  0  0
   10.1264  -16.1587   22.1443 C   0  0  0  0  0  0  0  0  0  0  0  0
   10.8630  -15.1940   22.4770 O   0  0  0  0  0  0  0  0  0  0  0  0
    9.1550  -16.5749   23.1305 N   0  0  0  0  0  0  0  0  0  0  0  0
    9.1240  -15.9589   24.4401 C   0  0  1  0  0  0  0  0  0  0  0  0
    7.9278  -16.4157   25.2047 C   0  0  0  0  0  0  0  0  0  0  0  0
    6.8467  -15.4390   25.3527 C   0  0  0  0  0  0  0  0  0  0  0  0
    5.4942  -15.6074   25.4161 C   0  0  0  0  0  0  0  0  0  0  0  0
    4.9205  -14.4092   25.5625 N   0  0  0  0  0  0  0  0  0  0  0  0
    5.8749  -13.4696   25.5950 C   0  0  0  0  0  0  0  0  0  0  0  0
    5.8365  -12.0879   25.7279 C   0  0  0  0  0  0  0  0  0  0  0  0
    6.9879  -11.3176   25.7334 C   0  0  0  0  0  0  0  0  0  0  0  0
    8.2140  -11.9321   25.6041 C   0  0  0  0  0  0  0  0  0  0  0  0
    8.2598  -13.3020   25.4719 C   0  0  0  0  0  0  0  0  0  0  0  0
    7.0968  -14.0686   25.4671 C   0  0  0  0  0  0  0  0  0  0  0  0
   10.3705  -16.1091   25.2050 C   0  0  0  0  0  0  0  0  0  0  0  0
   11.4232  -15.4938   24.8747 O   0  0  0  0  0  0  0  0  0  0  0  0
   11.1933  -14.9701   29.4420 C   0  0  0  0  0  0  0  0  0  0  0  0
   10.4162  -15.3519   28.2026 C   0  0  1  0  0  0  0  0  0  0  0  0
   10.2572  -14.1113   27.3607 C   0  0  0  0  0  0  0  0  0  0  0  0
   11.1455  -16.4666   27.5152 C   0  0  2  0  0  0  0  0  0  0  0  0
   10.4513  -16.9438   26.3422 N   0  0  0  0  0  0  0  0  0  0  0  0
   11.2760  -17.5674   28.5322 C   0  0  0  0  0  0  0  0  0  0  0  0
   12.4845  -17.7444   29.2154 O   0  0  0  0  0  0  0  0  0  0  0  0
   10.3477  -18.3440   28.8021 O   0  0  0  0  0  0  0  0  0  0  0  0
  2  3  1  0
  2  1  1  6
  3  4  1  0
  5  2  1  0
  6  5  2  0
  7  5  1  0
  8  7  1  0
  8  9  1  1
 10  9  1  0
 10 18  1  0
 11 12  1  0
 11 10  2  0
 12 13  1  0
 13 18  2  0
 13 14  1  0
 14 15  2  0
 15 16  1  0
 17 16  2  0
 18 17  1  0
 19 20  2  0
 19  8  1  0
 22 24  1  0
 22 21  1  1
 23 22  1  0
 24 25  1  6
 25 19  1  0
 26 24  1  0
 27 26  1  0
 28 26  2  0
M  END
$$$$
