CWV.pdb
     RDKit          3D

 28 29  0  0  1  0  0  0  0  0999 V2000
    7.0184  -15.8078   19.3988 N   0  0  0  0  0  0  0  0  0  0  0  0
    7.0302  -16.5827   20.5999 C   0  0  1  0  0  0  0  0  0  0  0  0
    7.2668  -18.0347   20.2433 C   0  0  0  0  0  0  0  0  0  0  0  0
    8.9391  -18.2974   19.5921 S   0  0  0  0  0  0  0  0  0  0  0  0
    8.0947  -16.1834   21.5565 C   0  0  0  0  0  0  0  0  0  0  0  0
    9.0820  -15.4937   21.1912 O   0  0  0  0  0  0  0  0  0  0  0  0
    8.0721  -16.5553   22.9532 N   0  0  0  0  0  0  0  0  0  0  0  0
    9.1488  -16.1632   23.8377 C   0  0  1  0  0  0  0  0  0  0  0  0
    8.6744  -16.1180   25.2509 C   0  0  0  0  0  0  0  0  0  0  0  0
    7.4855  -15.3017   25.5052 C   0  0  0  0  0  0  0  0  0  0  0  0
    6.1609  -15.6288   25.5027 C   0  0  0  0  0  0  0  0  0  0  0  0
    5.4503  -14.5374   25.8027 N   0  0  0  0  0  0  0  0  0  0  0  0
    6.2888  -13.5112   25.9991 C   0  0  0  0  0  0  0  0  0  0  0  0
    6.0889  -12.1771   26.3283 C   0  0  0  0  0  0  0  0  0  0  0  0
    7.1431  -11.2912   26.4796 C   0  0  0  0  0  0  0  0  0  0  0  0
    8.4337  -11.7380   26.3004 C   0  0  0  0  0  0  0  0  0  0  0  0
    8.6397  -13.0597   25.9737 C   0  0  0  0  0  0  0  0  0  0  0  0
    7.5735  -13.9435   25.8233 C   0  0  0  0  0  0  0  0  0  0  0  0
   10.3751  -16.9590   23.6820 C   0  0  0  0  0  0  0  0  0  0  0  0
   10.3355  -18.2190   23.5999 O   0  0  0  0  0  0  0  0  0  0  0  0
   15.1071  -17.4679   22.6778 C   0  0  0  0  0  0  0  0  0  0  0  0
   13.9594  -16.4925   22.8086 C   0  0  1  0  0  0  0  0  0  0  0  0
   13.6377  -15.9752   21.4294 C   0  0  0  0  0  0  0  0  0  0  0  0
   12.8179  -17.1967   23.4779 C   0  0  2  0  0  0  0  0  0  0  0  0
   11.6514  -16.3564   23.6153 N   0  0  0  0  0  0  0  0  0  0  0  0
   13.3244  -17.6170   24.8306 C   0  0  0  0  0  0  0  0  0  0  0  0
   14.2398  -18.6703   24.9348 O   0  0  0  0  0  0  0  0  0  0  0  0
   12.9641  -17.0666   25.8818 O   0  0  0  0  0  0  0  0  0  0  0  0
  2  3  1  0
  2  1  1  6
  3  4  1  0
  5  2  1  0
  6  5  2  0
  7  5  1  0
  8  7  1  0
  8  9  1  1
 10  9  1  0
 10 18  1  0
 11 12  1  0
 11 10  2  0
 12 13  1  0
 13 18  2  0
 13 14  1  0
 14 15  2  0
 15 16  1  0
 17 16  2  0
 18 17  1  0
 19 20  2  0
 19  8  1  0
 22 24  1  0
 22 21  1  6
 23 22  1  0
 24 25  1  1
 25 19  1  0
 26 24  1  0
 27 26  1  0
 28 26  2  0
M  END
$$$$
