CWV.pdb
     RDKit          3D

 28 29  0  0  1  0  0  0  0  0999 V2000
   10.2178  -15.8811   19.7156 N   0  0  0  0  0  0  0  0  0  0  0  0
   10.2685  -16.8018   20.8079 C   0  0  1  0  0  0  0  0  0  0  0  0
   11.6651  -17.3785   20.8976 C   0  0  0  0  0  0  0  0  0  0  0  0
   12.0909  -18.3285   19.4125 S   0  0  0  0  0  0  0  0  0  0  0  0
    9.9603  -16.1835   22.1234 C   0  0  0  0  0  0  0  0  0  0  0  0
   10.2653  -14.9889   22.3761 O   0  0  0  0  0  0  0  0  0  0  0  0
    9.2996  -16.9009   23.1903 N   0  0  0  0  0  0  0  0  0  0  0  0
    8.9676  -16.2341   24.4315 C   0  0  1  0  0  0  0  0  0  0  0  0
    7.6399  -16.6929   24.9327 C   0  0  0  0  0  0  0  0  0  0  0  0
    6.6012  -15.6659   25.0373 C   0  0  0  0  0  0  0  0  0  0  0  0
    5.2491  -15.7437   24.8715 C   0  0  0  0  0  0  0  0  0  0  0  0
    4.7224  -14.5333   25.0803 N   0  0  0  0  0  0  0  0  0  0  0  0
    5.7066  -13.6745   25.3777 C   0  0  0  0  0  0  0  0  0  0  0  0
    5.7192  -12.3189   25.6783 C   0  0  0  0  0  0  0  0  0  0  0  0
    6.8932  -11.6387   25.9578 C   0  0  0  0  0  0  0  0  0  0  0  0
    8.0907  -12.3195   25.9398 C   0  0  0  0  0  0  0  0  0  0  0  0
    8.0859  -13.6640   25.6425 C   0  0  0  0  0  0  0  0  0  0  0  0
    6.9005  -14.3399   25.3625 C   0  0  0  0  0  0  0  0  0  0  0  0
   10.0157  -16.3191   25.4589 C   0  0  0  0  0  0  0  0  0  0  0  0
   11.0278  -17.0596   25.3064 O   0  0  0  0  0  0  0  0  0  0  0  0
   11.9411  -15.0859   29.7936 C   0  0  0  0  0  0  0  0  0  0  0  0
   10.7756  -14.8766   28.8537 C   0  0  1  0  0  0  0  0  0  0  0  0
   10.7135  -13.4076   28.5201 C   0  0  0  0  0  0  0  0  0  0  0  0
   10.9671  -15.7656   27.6621 C   0  0  2  0  0  0  0  0  0  0  0  0
    9.9435  -15.5792   26.6605 N   0  0  0  0  0  0  0  0  0  0  0  0
   10.9383  -17.1754   28.1861 C   0  0  0  0  0  0  0  0  0  0  0  0
   12.1387  -17.8459   28.4468 O   0  0  0  0  0  0  0  0  0  0  0  0
    9.8824  -17.7882   28.4034 O   0  0  0  0  0  0  0  0  0  0  0  0
  2  3  1  0
  2  1  1  6
  3  4  1  0
  5  2  1  0
  6  5  2  0
  7  5  1  0
  8  7  1  0
  8  9  1  1
 10  9  1  0
 10 18  1  0
 11 12  1  0
 11 10  2  0
 12 13  1  0
 13 18  2  0
 13 14  1  0
 14 15  2  0
 15 16  1  0
 17 16  2  0
 18 17  1  0
 19 20  2  0
 19  8  1  0
 22 24  1  0
 22 21  1  1
 23 22  1  0
 24 25  1  6
 25 19  1  0
 26 24  1  0
 27 26  1  0
 28 26  2  0
M  END
$$$$
