CWV.pdb
     RDKit          3D

 28 29  0  0  1  0  0  0  0  0999 V2000
   11.7334  -16.0633   19.3676 N   0  0  0  0  0  0  0  0  0  0  0  0
   11.5771  -16.8552   20.5474 C   0  0  1  0  0  0  0  0  0  0  0  0
   12.9460  -17.2669   21.0454 C   0  0  0  0  0  0  0  0  0  0  0  0
   13.6023  -18.6728   20.1061 S   0  0  0  0  0  0  0  0  0  0  0  0
   10.8987  -16.1406   21.6595 C   0  0  0  0  0  0  0  0  0  0  0  0
   11.2004  -14.9565   21.9612 O   0  0  0  0  0  0  0  0  0  0  0  0
    9.8608  -16.7470   22.4623 N   0  0  0  0  0  0  0  0  0  0  0  0
    9.2541  -16.0177   23.5556 C   0  0  1  0  0  0  0  0  0  0  0  0
    7.7709  -16.1715   23.5274 C   0  0  0  0  0  0  0  0  0  0  0  0
    7.0329  -15.4945   24.5958 C   0  0  0  0  0  0  0  0  0  0  0  0
    6.2961  -15.9968   25.6285 C   0  0  0  0  0  0  0  0  0  0  0  0
    5.8197  -14.9772   26.3495 N   0  0  0  0  0  0  0  0  0  0  0  0
    6.2336  -13.8259   25.8037 C   0  0  0  0  0  0  0  0  0  0  0  0
    6.0342  -12.4940   26.1422 C   0  0  0  0  0  0  0  0  0  0  0  0
    6.5809  -11.4578   25.4031 C   0  0  0  0  0  0  0  0  0  0  0  0
    7.3482  -11.7472   24.2962 C   0  0  0  0  0  0  0  0  0  0  0  0
    7.5502  -13.0657   23.9544 C   0  0  0  0  0  0  0  0  0  0  0  0
    6.9963  -14.1014   24.7034 C   0  0  0  0  0  0  0  0  0  0  0  0
    9.8257  -16.3258   24.8746 C   0  0  0  0  0  0  0  0  0  0  0  0
   10.3128  -17.4628   25.1311 O   0  0  0  0  0  0  0  0  0  0  0  0
   11.1404  -13.4195   27.6707 C   0  0  0  0  0  0  0  0  0  0  0  0
   10.3841  -14.6227   28.1865 C   0  0  1  0  0  0  0  0  0  0  0  0
    8.9702  -14.1863   28.4756 C   0  0  0  0  0  0  0  0  0  0  0  0
   10.4888  -15.7164   27.1668 C   0  0  2  0  0  0  0  0  0  0  0  0
    9.8594  -15.3695   25.9142 N   0  0  0  0  0  0  0  0  0  0  0  0
    9.8192  -16.9180   27.7758 C   0  0  0  0  0  0  0  0  0  0  0  0
   10.4129  -17.5698   28.8626 O   0  0  0  0  0  0  0  0  0  0  0  0
    8.7445  -17.3716   27.3548 O   0  0  0  0  0  0  0  0  0  0  0  0
  2  3  1  0
  2  1  1  6
  3  4  1  0
  5  2  1  0
  6  5  2  0
  7  5  1  0
  8  7  1  0
  8  9  1  1
 10  9  1  0
 10 18  1  0
 11 12  1  0
 11 10  2  0
 12 13  1  0
 13 18  2  0
 13 14  1  0
 14 15  2  0
 15 16  1  0
 17 16  2  0
 18 17  1  0
 19 20  2  0
 19  8  1  0
 22 24  1  0
 22 21  1  6
 23 22  1  0
 24 25  1  6
 25 19  1  0
 26 24  1  0
 27 26  1  0
 28 26  2  0
M  END
$$$$
