AHM.pdb
     RDKit          3D

 24 24  0  0  1  0  0  0  0  0999 V2000
    8.1292  -12.1702   20.1340 C   0  0  0  0  0  0  0  0  0  0  0  0
    8.3455  -13.5013   19.4389 C   0  0  2  0  0  0  0  0  0  0  0  0
    7.4550  -13.6751   18.3197 N   0  0  0  0  0  0  0  0  0  0  0  0
    8.1760  -14.6254   20.3809 C   0  0  0  0  0  0  0  0  0  0  0  0
    7.0085  -15.0533   20.6207 O   0  0  0  0  0  0  0  0  0  0  0  0
    9.2876  -15.2026   20.9937 N   0  0  0  0  0  0  0  0  0  0  0  0
    9.0946  -16.4114   21.8392 C   0  0  1  0  0  0  0  0  0  0  0  0
   10.2499  -17.2822   21.5557 C   0  0  0  0  0  0  0  0  0  0  0  0
   10.1054  -18.3222   20.5435 C   0  0  0  0  0  0  0  0  0  0  0  0
    9.1133  -18.7335   19.7140 C   0  0  0  0  0  0  0  0  0  0  0  0
    9.5636  -19.7469   18.9193 N   0  0  0  0  0  0  0  0  0  0  0  0
   10.8343  -19.9562   19.2615 C   0  0  0  0  0  0  0  0  0  0  0  0
   11.1681  -19.1169   20.2242 N   0  0  0  0  0  0  0  0  0  0  0  0
    9.1830  -15.8761   23.2495 C   0  0  0  0  0  0  0  0  0  0  0  0
   10.0660  -15.0231   23.4773 O   0  0  0  0  0  0  0  0  0  0  0  0
    6.8270  -10.8513   26.9723 C   0  0  0  0  0  0  0  0  0  0  0  0
    6.2166  -12.5045   26.5363 S   0  0  0  0  0  0  0  0  0  0  0  0
    7.6844  -13.5913   26.4582 C   0  0  0  0  0  0  0  0  0  0  0  0
    7.3034  -14.9852   26.0549 C   0  0  0  0  0  0  0  0  0  0  0  0
    8.5059  -15.7290   25.5959 C   0  0  2  0  0  0  0  0  0  0  0  0
    8.3060  -16.3171   24.2779 N   0  0  0  0  0  0  0  0  0  0  0  0
    8.7758  -16.8661   26.5000 C   0  0  0  0  0  0  0  0  0  0  0  0
    8.4532  -18.0362   26.0880 O   0  0  0  0  0  0  0  0  0  0  0  0
    9.3533  -16.7702   27.7577 O   0  0  0  0  0  0  0  0  0  0  0  0
  2  1  1  1
  2  3  1  0
  2  4  1  0
  4  5  2  0
  6  4  1  0
  6  7  1  0
  7 14  1  0
  7  8  1  6
  9 10  2  0
  9  8  1  0
 11 10  1  0
 12 13  2  0
 12 11  1  0
 13  9  1  0
 14 15  2  0
 14 21  1  0
 17 18  1  0
 17 16  1  0
 19 18  1  0
 20 19  1  1
 21 20  1  0
 22 20  1  0
 22 24  1  0
 23 22  2  0
M  END
$$$$
