AHM.pdb
     RDKit          3D

 24 24  0  0  1  0  0  0  0  0999 V2000
    7.1466  -12.9115   18.6890 C   0  0  0  0  0  0  0  0  0  0  0  0
    8.4035  -13.2942   19.4475 C   0  0  2  0  0  0  0  0  0  0  0  0
    9.4211  -13.8192   18.5730 N   0  0  0  0  0  0  0  0  0  0  0  0
    8.1058  -14.2819   20.5036 C   0  0  0  0  0  0  0  0  0  0  0  0
    7.1439  -14.0597   21.2970 O   0  0  0  0  0  0  0  0  0  0  0  0
    8.8749  -15.4390   20.6209 N   0  0  0  0  0  0  0  0  0  0  0  0
    8.4843  -16.4620   21.6281 C   0  0  1  0  0  0  0  0  0  0  0  0
    8.9923  -17.7445   21.1082 C   0  0  0  0  0  0  0  0  0  0  0  0
    8.1983  -18.4549   20.1122 C   0  0  0  0  0  0  0  0  0  0  0  0
    7.0011  -18.2528   19.5060 C   0  0  0  0  0  0  0  0  0  0  0  0
    6.7718  -19.2393   18.5918 N   0  0  0  0  0  0  0  0  0  0  0  0
    7.8310  -20.0467   18.6370 C   0  0  0  0  0  0  0  0  0  0  0  0
    8.6849  -19.5920   19.5351 N   0  0  0  0  0  0  0  0  0  0  0  0
    9.2589  -16.0597   22.8616 C   0  0  0  0  0  0  0  0  0  0  0  0
   10.2822  -15.3658   22.6866 O   0  0  0  0  0  0  0  0  0  0  0  0
    6.5757  -11.3045   27.7035 C   0  0  0  0  0  0  0  0  0  0  0  0
    6.3490  -12.4464   26.3105 S   0  0  0  0  0  0  0  0  0  0  0  0
    7.8140  -13.5395   26.2970 C   0  0  0  0  0  0  0  0  0  0  0  0
    7.7530  -14.5102   25.1547 C   0  0  0  0  0  0  0  0  0  0  0  0
    8.9244  -15.4244   25.2004 C   0  0  2  0  0  0  0  0  0  0  0  0
    8.8502  -16.4484   24.1666 N   0  0  0  0  0  0  0  0  0  0  0  0
    8.9469  -16.1577   26.4830 C   0  0  0  0  0  0  0  0  0  0  0  0
    8.2911  -17.2572   26.5450 O   0  0  0  0  0  0  0  0  0  0  0  0
    9.6233  -15.7539   27.6250 O   0  0  0  0  0  0  0  0  0  0  0  0
  2  1  1  6
  2  3  1  0
  2  4  1  0
  4  5  2  0
  6  4  1  0
  6  7  1  0
  7 14  1  0
  7  8  1  6
  9 10  2  0
  9  8  1  0
 11 10  1  0
 12 13  2  0
 12 11  1  0
 13  9  1  0
 14 15  2  0
 14 21  1  0
 17 18  1  0
 17 16  1  0
 19 18  1  0
 20 19  1  1
 21 20  1  0
 22 20  1  0
 22 24  1  0
 23 22  2  0
M  END
$$$$
