AHM.pdb
     RDKit          3D

 24 24  0  0  1  0  0  0  0  0999 V2000
    7.4346  -13.2938   18.0634 C   0  0  0  0  0  0  0  0  0  0  0  0
    8.1069  -13.0635   19.4039 C   0  0  2  0  0  0  0  0  0  0  0  0
    9.4505  -12.5658   19.2537 N   0  0  0  0  0  0  0  0  0  0  0  0
    8.1286  -14.3026   20.2063 C   0  0  0  0  0  0  0  0  0  0  0  0
    7.0504  -14.9470   20.3679 O   0  0  0  0  0  0  0  0  0  0  0  0
    9.3202  -14.7510   20.7748 N   0  0  0  0  0  0  0  0  0  0  0  0
    9.3096  -16.0127   21.5631 C   0  0  1  0  0  0  0  0  0  0  0  0
   10.2770  -16.9041   20.8977 C   0  0  0  0  0  0  0  0  0  0  0  0
    9.9370  -18.3149   20.7520 C   0  0  0  0  0  0  0  0  0  0  0  0
    8.7967  -19.0473   20.8220 C   0  0  0  0  0  0  0  0  0  0  0  0
    9.0674  -20.3547   20.5414 N   0  0  0  0  0  0  0  0  0  0  0  0
   10.3756  -20.4234   20.2979 C   0  0  0  0  0  0  0  0  0  0  0  0
   10.9033  -19.2195   20.4193 N   0  0  0  0  0  0  0  0  0  0  0  0
    9.8380  -15.5914   22.9147 C   0  0  0  0  0  0  0  0  0  0  0  0
   10.6992  -14.6874   22.9295 O   0  0  0  0  0  0  0  0  0  0  0  0
    6.1916  -11.6339   27.7478 C   0  0  0  0  0  0  0  0  0  0  0  0
    6.3301  -12.5465   26.1846 S   0  0  0  0  0  0  0  0  0  0  0  0
    7.7679  -13.6608   26.3644 C   0  0  0  0  0  0  0  0  0  0  0  0
    8.0364  -14.4059   25.0902 C   0  0  0  0  0  0  0  0  0  0  0  0
    9.2111  -15.3008   25.2616 C   0  0  2  0  0  0  0  0  0  0  0  0
    9.3823  -16.1906   24.1207 N   0  0  0  0  0  0  0  0  0  0  0  0
    9.0096  -16.1861   26.4274 C   0  0  0  0  0  0  0  0  0  0  0  0
    9.0377  -15.6459   27.5895 O   0  0  0  0  0  0  0  0  0  0  0  0
    8.7892  -17.5543   26.3658 O   0  0  0  0  0  0  0  0  0  0  0  0
  2  1  1  6
  2  3  1  0
  2  4  1  0
  4  5  2  0
  6  4  1  0
  6  7  1  0
  7 14  1  0
  7  8  1  6
  9 10  2  0
  9  8  1  0
 11 10  1  0
 12 13  2  0
 12 11  1  0
 13  9  1  0
 14 15  2  0
 14 21  1  0
 17 18  1  0
 17 16  1  0
 19 18  1  0
 20 19  1  6
 21 20  1  0
 22 20  1  0
 22 24  1  0
 23 22  2  0
M  END
$$$$
