AHM.pdb
     RDKit          3D

 24 24  0  0  1  0  0  0  0  0999 V2000
   14.8282  -16.1054   19.9931 C   0  0  0  0  0  0  0  0  0  0  0  0
   13.8281  -15.4067   19.0911 C   0  0  2  0  0  0  0  0  0  0  0  0
   14.4551  -14.4061   18.2656 N   0  0  0  0  0  0  0  0  0  0  0  0
   12.7460  -14.7853   19.8801 C   0  0  0  0  0  0  0  0  0  0  0  0
   12.8373  -13.5600   20.1870 O   0  0  0  0  0  0  0  0  0  0  0  0
   11.6436  -15.5405   20.2781 N   0  0  0  0  0  0  0  0  0  0  0  0
   10.5519  -14.8729   21.0371 C   0  0  1  0  0  0  0  0  0  0  0  0
    9.3033  -15.2503   20.3503 C   0  0  0  0  0  0  0  0  0  0  0  0
    8.6960  -14.2917   19.4341 C   0  0  0  0  0  0  0  0  0  0  0  0
    8.9807  -13.0288   19.0271 C   0  0  0  0  0  0  0  0  0  0  0  0
    8.0747  -12.6287   18.0887 N   0  0  0  0  0  0  0  0  0  0  0  0
    7.2341  -13.6487   17.9195 C   0  0  0  0  0  0  0  0  0  0  0  0
    7.5922  -14.6419   18.7119 N   0  0  0  0  0  0  0  0  0  0  0  0
   10.6132  -15.5278   22.3975 C   0  0  0  0  0  0  0  0  0  0  0  0
   11.4351  -16.4566   22.5426 O   0  0  0  0  0  0  0  0  0  0  0  0
   10.5722  -14.2098   29.9471 C   0  0  0  0  0  0  0  0  0  0  0  0
    9.4878  -13.9456   28.5153 S   0  0  0  0  0  0  0  0  0  0  0  0
   10.0691  -15.0873   27.2115 C   0  0  0  0  0  0  0  0  0  0  0  0
    9.6712  -14.5994   25.8496 C   0  0  0  0  0  0  0  0  0  0  0  0
   10.1871  -15.5247   24.8066 C   0  0  2  0  0  0  0  0  0  0  0  0
    9.7775  -15.1133   23.4703 N   0  0  0  0  0  0  0  0  0  0  0  0
    9.6169  -16.8744   24.9976 C   0  0  0  0  0  0  0  0  0  0  0  0
   10.0260  -17.5496   26.0074 O   0  0  0  0  0  0  0  0  0  0  0  0
    8.6719  -17.4688   24.1741 O   0  0  0  0  0  0  0  0  0  0  0  0
  2  1  1  1
  2  3  1  0
  2  4  1  0
  4  5  2  0
  6  4  1  0
  6  7  1  0
  7 14  1  0
  7  8  1  6
  9 10  2  0
  9  8  1  0
 11 10  1  0
 12 13  2  0
 12 11  1  0
 13  9  1  0
 14 15  2  0
 14 21  1  0
 17 18  1  0
 17 16  1  0
 19 18  1  0
 20 19  1  1
 21 20  1  0
 22 20  1  0
 22 24  1  0
 23 22  2  0
M  END
$$$$
