AHM.pdb
     RDKit          3D

 24 24  0  0  1  0  0  0  0  0999 V2000
    5.2066  -19.5708   23.6720 C   0  0  0  0  0  0  0  0  0  0  0  0
    5.4073  -19.4089   22.1769 C   0  0  2  0  0  0  0  0  0  0  0  0
    5.7510  -20.6557   21.5419 N   0  0  0  0  0  0  0  0  0  0  0  0
    6.4510  -18.4058   21.8872 C   0  0  0  0  0  0  0  0  0  0  0  0
    7.6626  -18.7732   21.8571 O   0  0  0  0  0  0  0  0  0  0  0  0
    6.1021  -17.0766   21.6516 N   0  0  0  0  0  0  0  0  0  0  0  0
    7.1781  -16.0944   21.3497 C   0  0  1  0  0  0  0  0  0  0  0  0
    6.5792  -15.1253   20.4140 C   0  0  0  0  0  0  0  0  0  0  0  0
    7.4139  -14.0435   19.9040 C   0  0  0  0  0  0  0  0  0  0  0  0
    7.5089  -12.7081   20.1262 C   0  0  0  0  0  0  0  0  0  0  0  0
    8.5332  -12.1874   19.3906 N   0  0  0  0  0  0  0  0  0  0  0  0
    9.0676  -13.2057   18.7175 C   0  0  0  0  0  0  0  0  0  0  0  0
    8.4126  -14.3128   19.0136 N   0  0  0  0  0  0  0  0  0  0  0  0
    7.4399  -15.4333   22.6830 C   0  0  0  0  0  0  0  0  0  0  0  0
    6.4499  -14.9815   23.2953 O   0  0  0  0  0  0  0  0  0  0  0  0
    6.0335  -11.1583   26.9392 C   0  0  0  0  0  0  0  0  0  0  0  0
    6.9740  -12.7091   27.0180 S   0  0  0  0  0  0  0  0  0  0  0  0
    6.9128  -13.4343   25.3412 C   0  0  0  0  0  0  0  0  0  0  0  0
    7.6070  -14.7638   25.3021 C   0  0  0  0  0  0  0  0  0  0  0  0
    8.8640  -14.6587   24.5153 C   0  0  2  0  0  0  0  0  0  0  0  0
    8.7499  -15.3251   23.2247 N   0  0  0  0  0  0  0  0  0  0  0  0
    9.9641  -15.3481   25.2210 C   0  0  0  0  0  0  0  0  0  0  0  0
   10.1665  -16.5811   24.9352 O   0  0  0  0  0  0  0  0  0  0  0  0
   10.7980  -14.7677   26.1656 O   0  0  0  0  0  0  0  0  0  0  0  0
  2  1  1  1
  2  3  1  0
  2  4  1  0
  4  5  2  0
  6  4  1  0
  6  7  1  0
  7 14  1  0
  7  8  1  6
  9 10  2  0
  9  8  1  0
 11 10  1  0
 12 13  2  0
 12 11  1  0
 13  9  1  0
 14 15  2  0
 14 21  1  0
 17 18  1  0
 17 16  1  0
 19 18  1  0
 20 19  1  1
 21 20  1  0
 22 20  1  0
 22 24  1  0
 23 22  2  0
M  END
$$$$
