AHM.pdb
     RDKit          3D

 24 24  0  0  1  0  0  0  0  0999 V2000
    5.4419  -19.4569   24.2983 C   0  0  0  0  0  0  0  0  0  0  0  0
    6.0698  -19.6396   22.9293 C   0  0  2  0  0  0  0  0  0  0  0  0
    6.7396  -20.9096   22.8096 N   0  0  0  0  0  0  0  0  0  0  0  0
    7.0227  -18.5516   22.6332 C   0  0  0  0  0  0  0  0  0  0  0  0
    8.2469  -18.7161   22.9125 O   0  0  0  0  0  0  0  0  0  0  0  0
    6.5759  -17.3639   22.0553 N   0  0  0  0  0  0  0  0  0  0  0  0
    7.5661  -16.2956   21.7524 C   0  0  1  0  0  0  0  0  0  0  0  0
    6.9313  -15.4450   20.7293 C   0  0  0  0  0  0  0  0  0  0  0  0
    7.7161  -14.3694   20.1342 C   0  0  0  0  0  0  0  0  0  0  0  0
    9.0071  -13.9581   20.2096 C   0  0  0  0  0  0  0  0  0  0  0  0
    9.2055  -12.8978   19.3742 N   0  0  0  0  0  0  0  0  0  0  0  0
    8.0343  -12.6596   18.7850 C   0  0  0  0  0  0  0  0  0  0  0  0
    7.1422  -13.5263   19.2272 N   0  0  0  0  0  0  0  0  0  0  0  0
    7.6824  -15.5394   23.0555 C   0  0  0  0  0  0  0  0  0  0  0  0
    6.8947  -14.5863   23.2295 O   0  0  0  0  0  0  0  0  0  0  0  0
    5.8745  -10.9668   27.1169 C   0  0  0  0  0  0  0  0  0  0  0  0
    6.1017  -12.7653   27.2137 S   0  0  0  0  0  0  0  0  0  0  0  0
    7.2111  -13.2192   25.8336 C   0  0  0  0  0  0  0  0  0  0  0  0
    7.4957  -14.6923   25.8315 C   0  0  0  0  0  0  0  0  0  0  0  0
    8.7931  -14.9592   25.1567 C   0  0  2  0  0  0  0  0  0  0  0  0
    8.6417  -15.8886   24.0449 N   0  0  0  0  0  0  0  0  0  0  0  0
    9.7288  -15.6132   26.0949 C   0  0  0  0  0  0  0  0  0  0  0  0
   10.2175  -14.8944   27.0369 O   0  0  0  0  0  0  0  0  0  0  0  0
   10.1187  -16.9435   26.0405 O   0  0  0  0  0  0  0  0  0  0  0  0
  2  1  1  1
  2  3  1  0
  2  4  1  0
  4  5  2  0
  6  4  1  0
  6  7  1  0
  7 14  1  0
  7  8  1  6
  9 10  2  0
  9  8  1  0
 11 10  1  0
 12 13  2  0
 12 11  1  0
 13  9  1  0
 14 15  2  0
 14 21  1  0
 17 18  1  0
 17 16  1  0
 19 18  1  0
 20 19  1  1
 21 20  1  0
 22 20  1  0
 22 24  1  0
 23 22  2  0
M  END
$$$$
