AHM.pdb
     RDKit          3D

 24 24  0  0  1  0  0  0  0  0999 V2000
    8.2837  -12.3058   19.7216 C   0  0  0  0  0  0  0  0  0  0  0  0
    8.2463  -13.7084   19.1443 C   0  0  2  0  0  0  0  0  0  0  0  0
    7.1492  -13.8838   18.2270 N   0  0  0  0  0  0  0  0  0  0  0  0
    8.1581  -14.7206   20.2152 C   0  0  0  0  0  0  0  0  0  0  0  0
    7.0175  -15.0437   20.6608 O   0  0  0  0  0  0  0  0  0  0  0  0
    9.3157  -15.3080   20.7242 N   0  0  0  0  0  0  0  0  0  0  0  0
    9.1870  -16.3752   21.7528 C   0  0  1  0  0  0  0  0  0  0  0  0
   10.3507  -17.2585   21.5557 C   0  0  0  0  0  0  0  0  0  0  0  0
   10.2547  -18.3252   20.5657 C   0  0  0  0  0  0  0  0  0  0  0  0
    9.3167  -18.7375   19.6760 C   0  0  0  0  0  0  0  0  0  0  0  0
    9.7981  -19.7853   18.9467 N   0  0  0  0  0  0  0  0  0  0  0  0
   11.0338  -20.0146   19.3896 C   0  0  0  0  0  0  0  0  0  0  0  0
   11.3169  -19.1547   20.3502 N   0  0  0  0  0  0  0  0  0  0  0  0
    9.3198  -15.6272   23.0591 C   0  0  0  0  0  0  0  0  0  0  0  0
   10.2161  -14.7604   23.1269 O   0  0  0  0  0  0  0  0  0  0  0  0
    6.9279  -10.4650   27.1700 C   0  0  0  0  0  0  0  0  0  0  0  0
    6.1646  -12.0740   26.8174 S   0  0  0  0  0  0  0  0  0  0  0  0
    7.5348  -13.2774   26.6913 C   0  0  0  0  0  0  0  0  0  0  0  0
    7.4125  -14.1066   25.4469 C   0  0  0  0  0  0  0  0  0  0  0  0
    8.5962  -14.9954   25.3091 C   0  0  2  0  0  0  0  0  0  0  0  0
    8.4685  -15.8906   24.1668 N   0  0  0  0  0  0  0  0  0  0  0  0
    8.7113  -15.8752   26.4907 C   0  0  0  0  0  0  0  0  0  0  0  0
    9.0439  -15.3294   27.6018 O   0  0  0  0  0  0  0  0  0  0  0  0
    8.4855  -17.2439   26.4955 O   0  0  0  0  0  0  0  0  0  0  0  0
  2  1  1  1
  2  3  1  0
  2  4  1  0
  4  5  2  0
  6  4  1  0
  6  7  1  0
  7 14  1  0
  7  8  1  6
  9 10  2  0
  9  8  1  0
 11 10  1  0
 12 13  2  0
 12 11  1  0
 13  9  1  0
 14 15  2  0
 14 21  1  0
 17 18  1  0
 17 16  1  0
 19 18  1  0
 20 19  1  1
 21 20  1  0
 22 20  1  0
 22 24  1  0
 23 22  2  0
M  END
$$$$
