AHM.pdb
     RDKit          3D

 24 24  0  0  1  0  0  0  0  0999 V2000
    7.4453  -13.0836   18.8213 C   0  0  0  0  0  0  0  0  0  0  0  0
    8.4861  -13.0720   19.9252 C   0  0  2  0  0  0  0  0  0  0  0  0
    9.8256  -12.9892   19.4012 N   0  0  0  0  0  0  0  0  0  0  0  0
    8.3660  -14.2696   20.7801 C   0  0  0  0  0  0  0  0  0  0  0  0
    7.2251  -14.5937   21.2243 O   0  0  0  0  0  0  0  0  0  0  0  0
    9.4943  -15.0278   21.0902 N   0  0  0  0  0  0  0  0  0  0  0  0
    9.3263  -16.2718   21.8888 C   0  0  1  0  0  0  0  0  0  0  0  0
   10.4221  -17.1639   21.4684 C   0  0  0  0  0  0  0  0  0  0  0  0
   10.2171  -18.0164   20.3029 C   0  0  0  0  0  0  0  0  0  0  0  0
    9.1600  -18.6670   19.7544 C   0  0  0  0  0  0  0  0  0  0  0  0
    9.5448  -19.2880   18.6021 N   0  0  0  0  0  0  0  0  0  0  0  0
   10.8396  -19.0163   18.4436 C   0  0  0  0  0  0  0  0  0  0  0  0
   11.2506  -18.2622   19.4461 N   0  0  0  0  0  0  0  0  0  0  0  0
    9.5484  -15.8133   23.3114 C   0  0  0  0  0  0  0  0  0  0  0  0
   10.6102  -15.2010   23.5500 O   0  0  0  0  0  0  0  0  0  0  0  0
    6.4218  -10.8992   26.5061 C   0  0  0  0  0  0  0  0  0  0  0  0
    6.2618  -12.6823   26.8070 S   0  0  0  0  0  0  0  0  0  0  0  0
    7.7438  -13.4630   26.0750 C   0  0  0  0  0  0  0  0  0  0  0  0
    7.7584  -14.9410   26.3324 C   0  0  0  0  0  0  0  0  0  0  0  0
    8.9331  -15.5622   25.6659 C   0  0  2  0  0  0  0  0  0  0  0  0
    8.5984  -16.0627   24.3392 N   0  0  0  0  0  0  0  0  0  0  0  0
    9.3866  -16.7420   26.4313 C   0  0  0  0  0  0  0  0  0  0  0  0
    9.7683  -16.5495   27.6397 O   0  0  0  0  0  0  0  0  0  0  0  0
    9.4297  -18.0420   25.9488 O   0  0  0  0  0  0  0  0  0  0  0  0
  2  1  1  6
  2  3  1  0
  2  4  1  0
  4  5  2  0
  6  4  1  0
  6  7  1  0
  7 14  1  0
  7  8  1  6
  9 10  2  0
  9  8  1  0
 11 10  1  0
 12 13  2  0
 12 11  1  0
 13  9  1  0
 14 15  2  0
 14 21  1  0
 17 18  1  0
 17 16  1  0
 19 18  1  0
 20 19  1  1
 21 20  1  0
 22 20  1  0
 22 24  1  0
 23 22  2  0
M  END
$$$$
