AHM.pdb
     RDKit          3D

 24 24  0  0  1  0  0  0  0  0999 V2000
   -1.5600  -28.3866   27.5324 C   0  0  0  0  0  0  0  0  0  0  0  0
   -2.3294  -27.1146   27.2292 C   0  0  2  0  0  0  0  0  0  0  0  0
   -1.4689  -25.9594   27.1989 N   0  0  0  0  0  0  0  0  0  0  0  0
   -3.4072  -26.8989   28.2147 C   0  0  0  0  0  0  0  0  0  0  0  0
   -4.3338  -27.7572   28.3073 O   0  0  0  0  0  0  0  0  0  0  0  0
   -3.3998  -25.7661   29.0277 N   0  0  0  0  0  0  0  0  0  0  0  0
   -4.4929  -25.5880   30.0211 C   0  0  1  0  0  0  0  0  0  0  0  0
   -3.8287  -25.5340   31.3361 C   0  0  0  0  0  0  0  0  0  0  0  0
   -3.9147  -26.7004   32.2074 C   0  0  0  0  0  0  0  0  0  0  0  0
   -4.4830  -27.9299   32.1245 C   0  0  0  0  0  0  0  0  0  0  0  0
   -4.1923  -28.6517   33.2452 N   0  0  0  0  0  0  0  0  0  0  0  0
   -3.4434  -27.8635   34.0157 C   0  0  0  0  0  0  0  0  0  0  0  0
   -3.2712  -26.7028   33.4110 N   0  0  0  0  0  0  0  0  0  0  0  0
   -5.0694  -24.2345   29.6760 C   0  0  0  0  0  0  0  0  0  0  0  0
   -4.2572  -23.3226   29.4153 O   0  0  0  0  0  0  0  0  0  0  0  0
   -7.5968  -22.4386   24.6509 C   0  0  0  0  0  0  0  0  0  0  0  0
   -8.7926  -21.5643   25.7004 S   0  0  0  0  0  0  0  0  0  0  0  0
   -8.0443  -21.4705   27.3655 C   0  0  0  0  0  0  0  0  0  0  0  0
   -7.5166  -22.8071   27.7965 C   0  0  0  0  0  0  0  0  0  0  0  0
   -6.8994  -22.7001   29.1448 C   0  0  2  0  0  0  0  0  0  0  0  0
   -6.4712  -23.9991   29.6467 N   0  0  0  0  0  0  0  0  0  0  0  0
   -7.8931  -22.2066   30.1207 C   0  0  0  0  0  0  0  0  0  0  0  0
   -8.4910  -23.0786   30.8454 O   0  0  0  0  0  0  0  0  0  0  0  0
   -8.2291  -20.8752   30.3184 O   0  0  0  0  0  0  0  0  0  0  0  0
  2  1  1  1
  2  3  1  0
  2  4  1  0
  4  5  2  0
  6  4  1  0
  6  7  1  0
  7 14  1  0
  7  8  1  1
  9 10  2  0
  9  8  1  0
 11 10  1  0
 12 13  2  0
 12 11  1  0
 13  9  1  0
 14 15  2  0
 14 21  1  0
 17 18  1  0
 17 16  1  0
 19 18  1  0
 20 19  1  6
 21 20  1  0
 22 20  1  0
 22 24  1  0
 23 22  2  0
M  END
$$$$
