AHM.pdb
     RDKit          3D

 24 24  0  0  1  0  0  0  0  0999 V2000
    8.2717  -12.0265   19.5374 C   0  0  0  0  0  0  0  0  0  0  0  0
    8.5538  -13.3202   18.7967 C   0  0  2  0  0  0  0  0  0  0  0  0
    7.8255  -13.4001   17.5562 N   0  0  0  0  0  0  0  0  0  0  0  0
    8.2292  -14.4923   19.6336 C   0  0  0  0  0  0  0  0  0  0  0  0
    7.5974  -15.4596   19.1149 O   0  0  0  0  0  0  0  0  0  0  0  0
    8.6145  -14.5279   20.9731 N   0  0  0  0  0  0  0  0  0  0  0  0
    8.7218  -15.8459   21.6548 C   0  0  1  0  0  0  0  0  0  0  0  0
    9.8492  -16.5382   21.0042 C   0  0  0  0  0  0  0  0  0  0  0  0
   10.2101  -17.8716   21.4720 C   0  0  0  0  0  0  0  0  0  0  0  0
    9.7434  -18.7234   22.4197 C   0  0  0  0  0  0  0  0  0  0  0  0
   10.4494  -19.8903   22.3825 N   0  0  0  0  0  0  0  0  0  0  0  0
   11.3495  -19.7538   21.4094 C   0  0  0  0  0  0  0  0  0  0  0  0
   11.2177  -18.5603   20.8611 N   0  0  0  0  0  0  0  0  0  0  0  0
    9.0872  -15.4824   23.0752 C   0  0  0  0  0  0  0  0  0  0  0  0
   10.0966  -14.7647   23.2345 O   0  0  0  0  0  0  0  0  0  0  0  0
    6.5641  -10.7185   26.4494 C   0  0  0  0  0  0  0  0  0  0  0  0
    6.4021  -12.4757   26.8754 S   0  0  0  0  0  0  0  0  0  0  0  0
    7.6967  -13.3559   25.9316 C   0  0  0  0  0  0  0  0  0  0  0  0
    7.7077  -14.8187   26.2649 C   0  0  0  0  0  0  0  0  0  0  0  0
    8.7829  -15.5064   25.5026 C   0  0  2  0  0  0  0  0  0  0  0  0
    8.3237  -15.9320   24.1870 N   0  0  0  0  0  0  0  0  0  0  0  0
    9.1881  -16.7444   26.2001 C   0  0  0  0  0  0  0  0  0  0  0  0
    8.7825  -17.8570   25.7097 O   0  0  0  0  0  0  0  0  0  0  0  0
    9.9749  -16.8002   27.3413 O   0  0  0  0  0  0  0  0  0  0  0  0
  2  1  1  1
  2  3  1  0
  2  4  1  0
  4  5  2  0
  6  4  1  0
  6  7  1  0
  7 14  1  0
  7  8  1  6
  9 10  2  0
  9  8  1  0
 11 10  1  0
 12 13  2  0
 12 11  1  0
 13  9  1  0
 14 15  2  0
 14 21  1  0
 17 18  1  0
 17 16  1  0
 19 18  1  0
 20 19  1  1
 21 20  1  0
 22 20  1  0
 22 24  1  0
 23 22  2  0
M  END
$$$$
