AHM.pdb
     RDKit          3D

 24 24  0  0  1  0  0  0  0  0999 V2000
    7.4526  -12.9433   18.4398 C   0  0  0  0  0  0  0  0  0  0  0  0
    8.5848  -13.1224   19.4337 C   0  0  2  0  0  0  0  0  0  0  0  0
    9.8193  -13.4828   18.7841 N   0  0  0  0  0  0  0  0  0  0  0  0
    8.2459  -14.1425   20.4456 C   0  0  0  0  0  0  0  0  0  0  0  0
    7.1374  -14.0593   21.0524 O   0  0  0  0  0  0  0  0  0  0  0  0
    9.1363  -15.1786   20.7247 N   0  0  0  0  0  0  0  0  0  0  0  0
    8.6867  -16.2963   21.5977 C   0  0  1  0  0  0  0  0  0  0  0  0
    9.4937  -17.4627   21.1958 C   0  0  0  0  0  0  0  0  0  0  0  0
    8.9919  -18.3219   20.1295 C   0  0  0  0  0  0  0  0  0  0  0  0
    7.8314  -18.4217   19.4331 C   0  0  0  0  0  0  0  0  0  0  0  0
    7.9398  -19.4009   18.4893 N   0  0  0  0  0  0  0  0  0  0  0  0
    9.1693  -19.9011   18.6066 C   0  0  0  0  0  0  0  0  0  0  0  0
    9.8040  -19.2691   19.5762 N   0  0  0  0  0  0  0  0  0  0  0  0
    9.0828  -15.8453   22.9844 C   0  0  0  0  0  0  0  0  0  0  0  0
   10.2351  -15.3844   23.1226 O   0  0  0  0  0  0  0  0  0  0  0  0
    6.4163  -10.6582   26.2772 C   0  0  0  0  0  0  0  0  0  0  0  0
    6.2853  -12.4113   26.7301 S   0  0  0  0  0  0  0  0  0  0  0  0
    7.5848  -13.2853   25.7873 C   0  0  0  0  0  0  0  0  0  0  0  0
    7.6137  -14.7449   26.1332 C   0  0  0  0  0  0  0  0  0  0  0  0
    8.6846  -15.4296   25.3622 C   0  0  2  0  0  0  0  0  0  0  0  0
    8.1919  -15.9373   24.0885 N   0  0  0  0  0  0  0  0  0  0  0  0
    9.1645  -16.6153   26.1020 C   0  0  0  0  0  0  0  0  0  0  0  0
    8.7264  -17.7604   25.7283 O   0  0  0  0  0  0  0  0  0  0  0  0
   10.0536  -16.5896   27.1667 O   0  0  0  0  0  0  0  0  0  0  0  0
  2  1  1  6
  2  3  1  0
  2  4  1  0
  4  5  2  0
  6  4  1  0
  6  7  1  0
  7 14  1  0
  7  8  1  6
  9 10  2  0
  9  8  1  0
 11 10  1  0
 12 13  2  0
 12 11  1  0
 13  9  1  0
 14 15  2  0
 14 21  1  0
 17 18  1  0
 17 16  1  0
 19 18  1  0
 20 19  1  1
 21 20  1  0
 22 20  1  0
 22 24  1  0
 23 22  2  0
M  END
$$$$
