AHM.pdb
     RDKit          3D

 24 24  0  0  1  0  0  0  0  0999 V2000
    8.1647  -12.3130   19.0838 C   0  0  0  0  0  0  0  0  0  0  0  0
    8.5470  -13.6554   18.4888 C   0  0  2  0  0  0  0  0  0  0  0  0
    7.9216  -13.8748   17.2096 N   0  0  0  0  0  0  0  0  0  0  0  0
    8.1963  -14.7601   19.4032 C   0  0  0  0  0  0  0  0  0  0  0  0
    7.3585  -15.6295   19.0210 O   0  0  0  0  0  0  0  0  0  0  0  0
    8.7813  -14.8395   20.6664 N   0  0  0  0  0  0  0  0  0  0  0  0
    8.6098  -16.0862   21.4601 C   0  0  1  0  0  0  0  0  0  0  0  0
    9.4441  -17.1005   20.7904 C   0  0  0  0  0  0  0  0  0  0  0  0
    8.8132  -17.9934   19.8252 C   0  0  0  0  0  0  0  0  0  0  0  0
    7.5378  -18.2689   19.4522 C   0  0  0  0  0  0  0  0  0  0  0  0
    7.5384  -19.1774   18.4343 N   0  0  0  0  0  0  0  0  0  0  0  0
    8.8163  -19.4581   18.1822 C   0  0  0  0  0  0  0  0  0  0  0  0
    9.5830  -18.7617   19.0006 N   0  0  0  0  0  0  0  0  0  0  0  0
    9.2014  -15.7348   22.8054 C   0  0  0  0  0  0  0  0  0  0  0  0
   10.2499  -15.0567   22.8035 O   0  0  0  0  0  0  0  0  0  0  0  0
    6.5733  -11.2121   27.9761 C   0  0  0  0  0  0  0  0  0  0  0  0
    6.1903  -12.3765   26.6370 S   0  0  0  0  0  0  0  0  0  0  0  0
    7.6619  -13.4438   26.4461 C   0  0  0  0  0  0  0  0  0  0  0  0
    7.4896  -14.4022   25.3047 C   0  0  0  0  0  0  0  0  0  0  0  0
    8.7118  -15.2342   25.1496 C   0  0  2  0  0  0  0  0  0  0  0  0
    8.5999  -16.1525   24.0240 N   0  0  0  0  0  0  0  0  0  0  0  0
    8.8995  -16.0885   26.3405 C   0  0  0  0  0  0  0  0  0  0  0  0
    8.4576  -17.2902   26.2794 O   0  0  0  0  0  0  0  0  0  0  0  0
    9.5182  -15.6962   27.5185 O   0  0  0  0  0  0  0  0  0  0  0  0
  2  1  1  1
  2  3  1  0
  2  4  1  0
  4  5  2  0
  6  4  1  0
  6  7  1  0
  7 14  1  0
  7  8  1  6
  9 10  2  0
  9  8  1  0
 11 10  1  0
 12 13  2  0
 12 11  1  0
 13  9  1  0
 14 15  2  0
 14 21  1  0
 17 18  1  0
 17 16  1  0
 19 18  1  0
 20 19  1  1
 21 20  1  0
 22 20  1  0
 22 24  1  0
 23 22  2  0
M  END
$$$$
