EVR.pdb
     RDKit          3D

 28 27  0  0  1  0  0  0  0  0999 V2000
   23.2489  -20.8406  -14.4965 N   0  0  0  0  0  0  0  0  0  0  0  0
   22.1977  -20.4178  -13.5589 C   0  0  1  0  0  0  0  0  0  0  0  0
   20.8475  -20.6687  -14.2344 C   0  0  0  0  0  0  0  0  0  0  0  0
   20.7177  -19.8377  -15.4785 C   0  0  0  0  0  0  0  0  0  0  0  0
   20.5907  -20.6591  -16.6795 C   0  0  0  0  0  0  0  0  0  0  0  0
   21.3548  -20.5634  -17.6331 O   0  0  0  0  0  0  0  0  0  0  0  0
   22.2411  -21.3033  -12.3600 C   0  0  0  0  0  0  0  0  0  0  0  0
   22.7016  -22.4692  -12.4405 O   0  0  0  0  0  0  0  0  0  0  0  0
   19.5501  -21.6021  -16.7461 O   0  0  0  0  0  0  0  0  0  0  0  0
   23.7617  -19.7916   -9.2505 C   0  0  0  0  0  0  0  0  0  0  0  0
   22.4242  -20.3967   -8.9120 C   0  0  1  0  0  0  0  0  0  0  0  0
   21.4231  -19.2317   -9.0134 C   0  0  0  0  0  0  0  0  0  0  0  0
   21.9449  -21.4509   -9.8287 C   0  0  2  0  0  0  0  0  0  0  0  0
   21.7615  -20.8216  -11.1456 N   0  0  0  0  0  0  0  0  0  0  0  0
   20.6869  -22.1250   -9.5341 C   0  0  0  0  0  0  0  0  0  0  0  0
   19.6450  -21.8176  -10.2066 O   0  0  0  0  0  0  0  0  0  0  0  0
   16.6820  -27.7238   -3.4316 N   0  0  0  0  0  0  0  0  0  0  0  0
   15.7830  -27.1965   -4.4046 C   0  0  0  0  0  0  0  0  0  0  0  0
   14.5223  -27.5026   -4.3086 N   0  0  0  0  0  0  0  0  0  0  0  0
   16.2083  -26.3552   -5.4666 N   0  0  0  0  0  0  0  0  0  0  0  0
   17.5997  -25.8474   -5.4734 C   0  0  0  0  0  0  0  0  0  0  0  0
   17.7570  -25.0640   -6.7392 C   0  0  0  0  0  0  0  0  0  0  0  0
   19.0922  -24.4984   -7.0139 C   0  0  0  0  0  0  0  0  0  0  0  0
   19.1296  -23.5867   -8.2014 C   0  0  2  0  0  0  0  0  0  0  0  0
   20.4500  -23.1200   -8.5600 N   0  0  0  0  0  0  0  0  0  0  0  0
   18.1515  -22.4938   -8.0553 C   0  0  0  0  0  0  0  0  0  0  0  0
   18.5174  -21.4137   -7.5416 O   0  0  0  0  0  0  0  0  0  0  0  0
   16.8565  -22.6425   -8.4701 O   0  0  0  0  0  0  0  0  0  0  0  0
  2  1  1  6
  2  3  1  0
  4  3  1  0
  4  5  1  0
  5  6  2  0
  7  2  1  0
  8  7  2  0
  9  5  1  0
 11 12  1  6
 11 10  1  0
 11 13  1  0
 13 14  1  6
 14  7  1  0
 15 13  1  0
 15 25  1  0
 16 15  2  0
 18 17  1  0
 19 18  2  0
 20 18  1  0
 21 20  1  0
 22 23  1  0
 22 21  1  0
 24 23  1  1
 24 26  1  0
 24 25  1  0
 26 28  1  0
 27 26  2  0
M  END
$$$$
