EVR.pdb
     RDKit          3D

 28 27  0  0  1  0  0  0  0  0999 V2000
   25.0792  -20.4233   -9.0018 N   0  0  0  0  0  0  0  0  0  0  0  0
   24.6840  -20.7055  -10.3900 C   0  0  1  0  0  0  0  0  0  0  0  0
   23.2036  -20.3439  -10.5319 C   0  0  0  0  0  0  0  0  0  0  0  0
   22.3392  -21.5369  -10.2408 C   0  0  0  0  0  0  0  0  0  0  0  0
   21.9658  -21.6165   -8.8310 C   0  0  0  0  0  0  0  0  0  0  0  0
   22.4165  -20.8572   -7.9809 O   0  0  0  0  0  0  0  0  0  0  0  0
   25.4316  -19.7876  -11.2966 C   0  0  0  0  0  0  0  0  0  0  0  0
   25.6948  -18.6113  -10.9430 O   0  0  0  0  0  0  0  0  0  0  0  0
   21.0486  -22.6036   -8.4298 O   0  0  0  0  0  0  0  0  0  0  0  0
   27.8955  -21.6384  -14.1419 C   0  0  0  0  0  0  0  0  0  0  0  0
   27.9562  -20.2350  -13.5976 C   0  0  1  0  0  0  0  0  0  0  0  0
   28.8305  -19.4574  -14.5979 C   0  0  0  0  0  0  0  0  0  0  0  0
   26.6660  -19.5209  -13.5151 C   0  0  2  0  0  0  0  0  0  0  0  0
   25.8345  -20.2506  -12.5456 N   0  0  0  0  0  0  0  0  0  0  0  0
   25.8514  -19.3926  -14.7168 C   0  0  0  0  0  0  0  0  0  0  0  0
   25.1842  -20.4025  -15.1258 O   0  0  0  0  0  0  0  0  0  0  0  0
   19.3746  -14.6192  -18.4617 N   0  0  0  0  0  0  0  0  0  0  0  0
   19.7874  -15.6913  -19.3062 C   0  0  0  0  0  0  0  0  0  0  0  0
   19.0854  -15.9411  -20.3726 N   0  0  0  0  0  0  0  0  0  0  0  0
   20.9280  -16.4909  -19.0299 N   0  0  0  0  0  0  0  0  0  0  0  0
   21.6833  -16.2635  -17.7763 C   0  0  0  0  0  0  0  0  0  0  0  0
   22.8289  -17.2268  -17.7931 C   0  0  0  0  0  0  0  0  0  0  0  0
   23.6352  -17.3284  -16.5611 C   0  0  0  0  0  0  0  0  0  0  0  0
   24.8354  -18.2139  -16.6958 C   0  0  2  0  0  0  0  0  0  0  0  0
   25.6904  -18.2494  -15.5306 N   0  0  0  0  0  0  0  0  0  0  0  0
   25.5682  -17.9194  -17.9402 C   0  0  0  0  0  0  0  0  0  0  0  0
   26.6833  -17.3569  -17.8717 O   0  0  0  0  0  0  0  0  0  0  0  0
   25.0498  -18.2495  -19.1623 O   0  0  0  0  0  0  0  0  0  0  0  0
  2  1  1  1
  2  3  1  0
  4  3  1  0
  4  5  1  0
  5  6  2  0
  7  2  1  0
  8  7  2  0
  9  5  1  0
 11 12  1  6
 11 10  1  0
 11 13  1  0
 13 14  1  1
 14  7  1  0
 15 13  1  0
 15 25  1  0
 16 15  2  0
 18 17  1  0
 19 18  2  0
 20 18  1  0
 21 20  1  0
 22 23  1  0
 22 21  1  0
 24 23  1  1
 24 26  1  0
 24 25  1  0
 26 28  1  0
 27 26  2  0
M  END
$$$$
