EVR.pdb
     RDKit          3D

 28 27  0  0  1  0  0  0  0  0999 V2000
   28.8645  -22.5840  -17.1445 N   0  0  0  0  0  0  0  0  0  0  0  0
   28.0957  -21.4968  -16.5201 C   0  0  1  0  0  0  0  0  0  0  0  0
   27.1612  -20.9200  -17.5861 C   0  0  0  0  0  0  0  0  0  0  0  0
   27.0393  -21.8643  -18.7473 C   0  0  0  0  0  0  0  0  0  0  0  0
   25.6578  -22.0072  -19.1993 C   0  0  0  0  0  0  0  0  0  0  0  0
   25.3400  -22.7112  -20.1510 O   0  0  0  0  0  0  0  0  0  0  0  0
   27.2211  -22.0763  -15.4605 C   0  0  0  0  0  0  0  0  0  0  0  0
   26.9010  -23.2907  -15.4868 O   0  0  0  0  0  0  0  0  0  0  0  0
   24.6472  -21.3106  -18.5137 O   0  0  0  0  0  0  0  0  0  0  0  0
   26.5440  -19.4799  -12.0817 C   0  0  0  0  0  0  0  0  0  0  0  0
   26.7063  -20.9776  -12.0869 C   0  0  1  0  0  0  0  0  0  0  0  0
   26.0022  -21.4588  -10.8054 C   0  0  0  0  0  0  0  0  0  0  0  0
   26.0712  -21.6892  -13.2146 C   0  0  2  0  0  0  0  0  0  0  0  0
   26.7598  -21.2519  -14.4387 N   0  0  0  0  0  0  0  0  0  0  0  0
   24.6501  -21.4873  -13.4670 C   0  0  0  0  0  0  0  0  0  0  0  0
   24.2740  -20.4456  -14.1039 O   0  0  0  0  0  0  0  0  0  0  0  0
   16.9954  -26.1344  -13.1443 N   0  0  0  0  0  0  0  0  0  0  0  0
   18.1830  -26.1255  -13.9334 C   0  0  0  0  0  0  0  0  0  0  0  0
   18.4255  -27.1529  -14.6936 N   0  0  0  0  0  0  0  0  0  0  0  0
   19.1045  -25.0451  -13.9215 N   0  0  0  0  0  0  0  0  0  0  0  0
   18.8103  -23.8535  -13.0925 C   0  0  0  0  0  0  0  0  0  0  0  0
   19.8463  -22.8306  -13.4408 C   0  0  0  0  0  0  0  0  0  0  0  0
   21.2305  -23.1074  -13.0103 C   0  0  0  0  0  0  0  0  0  0  0  0
   22.1897  -21.9969  -13.3090 C   0  0  2  0  0  0  0  0  0  0  0  0
   23.5795  -22.3262  -13.0857 N   0  0  0  0  0  0  0  0  0  0  0  0
   21.7769  -20.7516  -12.6373 C   0  0  0  0  0  0  0  0  0  0  0  0
   22.2311  -20.4932  -11.5009 O   0  0  0  0  0  0  0  0  0  0  0  0
   20.9086  -19.8793  -13.2343 O   0  0  0  0  0  0  0  0  0  0  0  0
  2  1  1  6
  2  3  1  0
  4  3  1  0
  4  5  1  0
  5  6  2  0
  7  2  1  0
  8  7  2  0
  9  5  1  0
 11 12  1  1
 11 10  1  0
 11 13  1  0
 13 14  1  6
 14  7  1  0
 15 13  1  0
 15 25  1  0
 16 15  2  0
 18 17  1  0
 19 18  2  0
 20 18  1  0
 21 20  1  0
 22 23  1  0
 22 21  1  0
 24 23  1  1
 24 26  1  0
 24 25  1  0
 26 28  1  0
 27 26  2  0
M  END
$$$$
