EVR.pdb
     RDKit          3D

 28 27  0  0  1  0  0  0  0  0999 V2000
   19.0271  -10.1497  -16.2515 N   0  0  0  0  0  0  0  0  0  0  0  0
   19.2282   -8.7943  -15.7174 C   0  0  1  0  0  0  0  0  0  0  0  0
   18.0333   -7.9433  -16.1539 C   0  0  0  0  0  0  0  0  0  0  0  0
   16.7438   -8.6528  -15.8561 C   0  0  0  0  0  0  0  0  0  0  0  0
   15.5772   -7.8462  -16.2047 C   0  0  0  0  0  0  0  0  0  0  0  0
   14.4276   -8.2153  -15.9935 O   0  0  0  0  0  0  0  0  0  0  0  0
   19.1820   -8.8547  -14.2282 C   0  0  0  0  0  0  0  0  0  0  0  0
   18.5567   -9.7737  -13.6431 O   0  0  0  0  0  0  0  0  0  0  0  0
   15.7787   -6.5915  -16.8061 O   0  0  0  0  0  0  0  0  0  0  0  0
   21.3934   -5.7479  -12.1621 C   0  0  0  0  0  0  0  0  0  0  0  0
   21.2625   -7.1843  -11.7272 C   0  0  1  0  0  0  0  0  0  0  0  0
   21.3979   -7.1500  -10.1942 C   0  0  0  0  0  0  0  0  0  0  0  0
   19.9688   -7.8311  -12.0260 C   0  0  2  0  0  0  0  0  0  0  0  0
   19.8410   -7.8757  -13.4907 N   0  0  0  0  0  0  0  0  0  0  0  0
   18.7412   -7.2134  -11.5408 C   0  0  0  0  0  0  0  0  0  0  0  0
   18.2564   -6.2146  -12.1730 O   0  0  0  0  0  0  0  0  0  0  0  0
   11.0635   -8.7325   -6.8582 N   0  0  0  0  0  0  0  0  0  0  0  0
   11.2102   -7.3757   -7.2713 C   0  0  0  0  0  0  0  0  0  0  0  0
   10.2480   -6.5424   -7.0030 N   0  0  0  0  0  0  0  0  0  0  0  0
   12.3589   -6.9025   -7.9592 N   0  0  0  0  0  0  0  0  0  0  0  0
   13.4990   -7.8220   -8.1794 C   0  0  0  0  0  0  0  0  0  0  0  0
   14.5239   -7.0472   -8.9476 C   0  0  0  0  0  0  0  0  0  0  0  0
   15.7659   -7.7574   -9.3099 C   0  0  0  0  0  0  0  0  0  0  0  0
   16.7766   -6.8938   -9.9993 C   0  0  2  0  0  0  0  0  0  0  0  0
   17.9767   -7.5856  -10.4129 N   0  0  0  0  0  0  0  0  0  0  0  0
   17.0535   -5.6789   -9.2120 C   0  0  0  0  0  0  0  0  0  0  0  0
   17.9681   -5.7012   -8.3591 O   0  0  0  0  0  0  0  0  0  0  0  0
   16.3287   -4.5339   -9.3984 O   0  0  0  0  0  0  0  0  0  0  0  0
  2  1  1  6
  2  3  1  0
  4  3  1  0
  4  5  1  0
  5  6  2  0
  7  2  1  0
  8  7  2  0
  9  5  1  0
 11 12  1  1
 11 10  1  0
 11 13  1  0
 13 14  1  6
 14  7  1  0
 15 13  1  0
 15 25  1  0
 16 15  2  0
 18 17  1  0
 19 18  2  0
 20 18  1  0
 21 20  1  0
 22 23  1  0
 22 21  1  0
 24 23  1  1
 24 26  1  0
 24 25  1  0
 26 28  1  0
 27 26  2  0
M  END
$$$$
