EVR.pdb
     RDKit          3D

 28 27  0  0  1  0  0  0  0  0999 V2000
   27.7783  -19.9615  -19.1962 N   0  0  0  0  0  0  0  0  0  0  0  0
   27.0769  -19.2906  -18.0913 C   0  0  1  0  0  0  0  0  0  0  0  0
   25.6855  -18.9008  -18.5958 C   0  0  0  0  0  0  0  0  0  0  0  0
   25.7819  -17.7944  -19.6066 C   0  0  0  0  0  0  0  0  0  0  0  0
   24.4707  -17.2639  -19.9703 C   0  0  0  0  0  0  0  0  0  0  0  0
   23.4275  -17.6753  -19.4755 O   0  0  0  0  0  0  0  0  0  0  0  0
   26.8667  -20.2740  -16.9903 C   0  0  0  0  0  0  0  0  0  0  0  0
   26.5488  -21.4624  -17.2444 O   0  0  0  0  0  0  0  0  0  0  0  0
   24.3994  -16.2358  -20.9266 O   0  0  0  0  0  0  0  0  0  0  0  0
   29.5195  -20.4853  -14.4336 C   0  0  0  0  0  0  0  0  0  0  0  0
   28.2104  -20.3960  -13.6935 C   0  0  1  0  0  0  0  0  0  0  0  0
   28.0869  -18.9184  -13.2798 C   0  0  0  0  0  0  0  0  0  0  0  0
   27.0034  -20.7201  -14.4806 C   0  0  2  0  0  0  0  0  0  0  0  0
   27.0253  -19.8576  -15.6720 N   0  0  0  0  0  0  0  0  0  0  0  0
   25.6919  -20.5251  -13.8756 C   0  0  0  0  0  0  0  0  0  0  0  0
   25.1286  -19.3821  -13.9686 O   0  0  0  0  0  0  0  0  0  0  0  0
   17.4790  -24.0016  -13.0679 N   0  0  0  0  0  0  0  0  0  0  0  0
   17.5728  -22.6452  -12.6384 C   0  0  0  0  0  0  0  0  0  0  0  0
   16.4795  -22.0322  -12.2901 N   0  0  0  0  0  0  0  0  0  0  0  0
   18.8055  -21.9430  -12.5763 N   0  0  0  0  0  0  0  0  0  0  0  0
   20.0522  -22.6348  -12.9777 C   0  0  0  0  0  0  0  0  0  0  0  0
   21.1756  -21.6972  -12.6622 C   0  0  0  0  0  0  0  0  0  0  0  0
   22.5283  -22.1078  -13.0860 C   0  0  0  0  0  0  0  0  0  0  0  0
   23.6133  -21.1873  -12.6191 C   0  0  2  0  0  0  0  0  0  0  0  0
   24.9207  -21.4723  -13.1663 N   0  0  0  0  0  0  0  0  0  0  0  0
   23.6142  -21.0798  -11.1492 C   0  0  0  0  0  0  0  0  0  0  0  0
   24.5649  -21.5730  -10.5030 O   0  0  0  0  0  0  0  0  0  0  0  0
   22.5962  -20.4530  -10.4844 O   0  0  0  0  0  0  0  0  0  0  0  0
  2  1  1  6
  2  3  1  0
  4  3  1  0
  4  5  1  0
  5  6  2  0
  7  2  1  0
  8  7  2  0
  9  5  1  0
 11 12  1  6
 11 10  1  0
 11 13  1  0
 13 14  1  6
 14  7  1  0
 15 13  1  0
 15 25  1  0
 16 15  2  0
 18 17  1  0
 19 18  2  0
 20 18  1  0
 21 20  1  0
 22 23  1  0
 22 21  1  0
 24 23  1  1
 24 26  1  0
 24 25  1  0
 26 28  1  0
 27 26  2  0
M  END
$$$$
