EVR.pdb
     RDKit          3D

 28 27  0  0  1  0  0  0  0  0999 V2000
   29.9051  -23.8344  -17.3742 N   0  0  0  0  0  0  0  0  0  0  0  0
   28.7535  -23.0257  -17.8017 C   0  0  1  0  0  0  0  0  0  0  0  0
   27.5894  -23.9830  -18.0674 C   0  0  0  0  0  0  0  0  0  0  0  0
   27.7978  -24.7211  -19.3585 C   0  0  0  0  0  0  0  0  0  0  0  0
   27.3820  -23.9345  -20.5167 C   0  0  0  0  0  0  0  0  0  0  0  0
   26.9035  -22.8103  -20.4187 O   0  0  0  0  0  0  0  0  0  0  0  0
   28.3330  -22.1541  -16.6672 C   0  0  0  0  0  0  0  0  0  0  0  0
   28.4890  -22.5294  -15.4785 O   0  0  0  0  0  0  0  0  0  0  0  0
   27.5384  -24.4869  -21.8000 O   0  0  0  0  0  0  0  0  0  0  0  0
   27.2526  -18.2033  -17.8599 C   0  0  0  0  0  0  0  0  0  0  0  0
   27.9128  -18.5831  -16.5602 C   0  0  1  0  0  0  0  0  0  0  0  0
   27.5194  -17.4690  -15.5734 C   0  0  0  0  0  0  0  0  0  0  0  0
   27.4684  -19.8582  -15.9618 C   0  0  2  0  0  0  0  0  0  0  0  0
   27.7612  -20.9155  -16.9417 N   0  0  0  0  0  0  0  0  0  0  0  0
   26.0635  -20.0224  -15.6111 C   0  0  0  0  0  0  0  0  0  0  0  0
   25.2010  -20.1517  -16.5448 O   0  0  0  0  0  0  0  0  0  0  0  0
   24.1839  -21.6077   -9.3490 N   0  0  0  0  0  0  0  0  0  0  0  0
   23.6490  -20.2860   -9.3563 C   0  0  0  0  0  0  0  0  0  0  0  0
   24.1939  -19.3964   -8.5793 N   0  0  0  0  0  0  0  0  0  0  0  0
   22.5521  -19.9063  -10.1744 N   0  0  0  0  0  0  0  0  0  0  0  0
   21.8630  -20.9378  -10.9836 C   0  0  0  0  0  0  0  0  0  0  0  0
   22.2961  -20.7221  -12.4002 C   0  0  0  0  0  0  0  0  0  0  0  0
   23.7312  -20.4643  -12.6287 C   0  0  0  0  0  0  0  0  0  0  0  0
   24.0881  -20.2698  -14.0700 C   0  0  2  0  0  0  0  0  0  0  0  0
   25.4969  -20.0602  -14.3178 N   0  0  0  0  0  0  0  0  0  0  0  0
   23.2343  -19.2395  -14.6879 C   0  0  0  0  0  0  0  0  0  0  0  0
   23.6082  -18.0461  -14.6673 O   0  0  0  0  0  0  0  0  0  0  0  0
   22.0452  -19.5668  -15.2796 O   0  0  0  0  0  0  0  0  0  0  0  0
  2  1  1  1
  2  3  1  0
  4  3  1  0
  4  5  1  0
  5  6  2  0
  7  2  1  0
  8  7  2  0
  9  5  1  0
 11 12  1  1
 11 10  1  0
 11 13  1  0
 13 14  1  6
 14  7  1  0
 15 13  1  0
 15 25  1  0
 16 15  2  0
 18 17  1  0
 19 18  2  0
 20 18  1  0
 21 20  1  0
 22 23  1  0
 22 21  1  0
 24 23  1  1
 24 26  1  0
 24 25  1  0
 26 28  1  0
 27 26  2  0
M  END
$$$$
