EVR.pdb
     RDKit          3D

 28 27  0  0  1  0  0  0  0  0999 V2000
   16.3843  -13.6163  -16.0509 N   0  0  0  0  0  0  0  0  0  0  0  0
   17.5234  -13.6936  -16.9778 C   0  0  1  0  0  0  0  0  0  0  0  0
   17.0036  -14.2541  -18.3036 C   0  0  0  0  0  0  0  0  0  0  0  0
   16.6536  -15.7074  -18.1607 C   0  0  0  0  0  0  0  0  0  0  0  0
   16.1879  -16.2887  -19.4170 C   0  0  0  0  0  0  0  0  0  0  0  0
   16.0467  -17.4956  -19.5781 O   0  0  0  0  0  0  0  0  0  0  0  0
   18.0033  -12.3109  -17.2631 C   0  0  0  0  0  0  0  0  0  0  0  0
   18.9443  -12.1129  -18.0713 O   0  0  0  0  0  0  0  0  0  0  0  0
   15.8857  -15.4295  -20.4879 O   0  0  0  0  0  0  0  0  0  0  0  0
   15.3785   -9.5956  -17.7031 C   0  0  0  0  0  0  0  0  0  0  0  0
   16.4526   -9.0713  -16.7862 C   0  0  1  0  0  0  0  0  0  0  0  0
   15.8697   -9.2126  -15.3685 C   0  0  0  0  0  0  0  0  0  0  0  0
   17.7281   -9.8159  -16.7982 C   0  0  2  0  0  0  0  0  0  0  0  0
   17.3952  -11.2375  -16.6191 N   0  0  0  0  0  0  0  0  0  0  0  0
   18.7318   -9.5144  -15.7856 C   0  0  0  0  0  0  0  0  0  0  0  0
   18.9486  -10.3616  -14.8541 O   0  0  0  0  0  0  0  0  0  0  0  0
   26.1556  -12.0117  -15.6450 N   0  0  0  0  0  0  0  0  0  0  0  0
   24.8023  -12.3421  -15.3407 C   0  0  0  0  0  0  0  0  0  0  0  0
   24.4484  -13.5931  -15.3851 N   0  0  0  0  0  0  0  0  0  0  0  0
   23.8330  -11.3643  -14.9927 N   0  0  0  0  0  0  0  0  0  0  0  0
   24.2312   -9.9388  -14.9399 C   0  0  0  0  0  0  0  0  0  0  0  0
   23.0283   -9.1814  -14.4707 C   0  0  0  0  0  0  0  0  0  0  0  0
   21.8522   -9.1754  -15.3622 C   0  0  0  0  0  0  0  0  0  0  0  0
   20.7409   -8.2895  -14.8903 C   0  0  2  0  0  0  0  0  0  0  0  0
   19.5371   -8.3581  -15.6880 N   0  0  0  0  0  0  0  0  0  0  0  0
   21.2194   -6.9106  -14.6857 C   0  0  0  0  0  0  0  0  0  0  0  0
   20.7904   -6.0005  -15.4288 O   0  0  0  0  0  0  0  0  0  0  0  0
   22.1213   -6.6128  -13.7013 O   0  0  0  0  0  0  0  0  0  0  0  0
  2  1  1  1
  2  3  1  0
  4  3  1  0
  4  5  1  0
  5  6  2  0
  7  2  1  0
  8  7  2  0
  9  5  1  0
 11 12  1  1
 11 10  1  0
 11 13  1  0
 13 14  1  1
 14  7  1  0
 15 13  1  0
 15 25  1  0
 16 15  2  0
 18 17  1  0
 19 18  2  0
 20 18  1  0
 21 20  1  0
 22 23  1  0
 22 21  1  0
 24 23  1  6
 24 26  1  0
 24 25  1  0
 26 28  1  0
 27 26  2  0
M  END
$$$$
