EVR.pdb
     RDKit          3D

 28 27  0  0  1  0  0  0  0  0999 V2000
   25.6304  -18.5377  -18.7364 N   0  0  0  0  0  0  0  0  0  0  0  0
   24.8802  -19.6414  -18.1184 C   0  0  1  0  0  0  0  0  0  0  0  0
   25.8651  -20.7852  -17.8654 C   0  0  0  0  0  0  0  0  0  0  0  0
   25.7042  -21.8589  -18.9029 C   0  0  0  0  0  0  0  0  0  0  0  0
   26.3141  -21.4899  -20.1776 C   0  0  0  0  0  0  0  0  0  0  0  0
   25.6554  -21.1908  -21.1670 O   0  0  0  0  0  0  0  0  0  0  0  0
   24.3936  -19.1993  -16.7800 C   0  0  0  0  0  0  0  0  0  0  0  0
   25.0615  -18.3888  -16.0907 O   0  0  0  0  0  0  0  0  0  0  0  0
   27.7165  -21.4738  -20.2759 O   0  0  0  0  0  0  0  0  0  0  0  0
   23.2644  -17.0012  -15.9079 C   0  0  0  0  0  0  0  0  0  0  0  0
   22.1864  -17.8248  -15.2530 C   0  0  1  0  0  0  0  0  0  0  0  0
   20.9820  -17.7356  -16.2076 C   0  0  0  0  0  0  0  0  0  0  0  0
   22.4886  -19.2604  -15.0819 C   0  0  2  0  0  0  0  0  0  0  0  0
   23.1866  -19.6988  -16.3003 N   0  0  0  0  0  0  0  0  0  0  0  0
   21.3874  -20.1972  -14.8985 C   0  0  0  0  0  0  0  0  0  0  0  0
   20.6913  -20.5440  -15.9122 O   0  0  0  0  0  0  0  0  0  0  0  0
   15.8586  -24.3408  -10.6299 N   0  0  0  0  0  0  0  0  0  0  0  0
   16.8426  -24.4758   -9.6068 C   0  0  0  0  0  0  0  0  0  0  0  0
   16.4717  -24.9510   -8.4540 N   0  0  0  0  0  0  0  0  0  0  0  0
   18.2026  -24.1145   -9.7972 N   0  0  0  0  0  0  0  0  0  0  0  0
   18.5240  -22.7898  -10.3765 C   0  0  0  0  0  0  0  0  0  0  0  0
   18.6192  -22.9883  -11.8571 C   0  0  0  0  0  0  0  0  0  0  0  0
   19.9216  -22.6989  -12.4882 C   0  0  0  0  0  0  0  0  0  0  0  0
   19.8424  -21.7128  -13.6124 C   0  0  2  0  0  0  0  0  0  0  0  0
   20.9637  -20.8041  -13.6955 N   0  0  0  0  0  0  0  0  0  0  0  0
   18.5398  -21.0233  -13.6154 C   0  0  0  0  0  0  0  0  0  0  0  0
   18.4717  -19.8484  -13.1918 O   0  0  0  0  0  0  0  0  0  0  0  0
   17.4101  -21.6458  -14.0709 O   0  0  0  0  0  0  0  0  0  0  0  0
  2  1  1  1
  2  3  1  0
  4  3  1  0
  4  5  1  0
  5  6  2  0
  7  2  1  0
  8  7  2  0
  9  5  1  0
 11 12  1  6
 11 10  1  0
 11 13  1  0
 13 14  1  6
 14  7  1  0
 15 13  1  0
 15 25  1  0
 16 15  2  0
 18 17  1  0
 19 18  2  0
 20 18  1  0
 21 20  1  0
 22 23  1  0
 22 21  1  0
 24 23  1  1
 24 26  1  0
 24 25  1  0
 26 28  1  0
 27 26  2  0
M  END
$$$$
