YTT.pdb
     RDKit          3D

 27 27  0  0  1  0  0  0  0  0999 V2000
   17.6041  -16.6567   12.3287 O   0  0  0  0  0  0  0  0  0  0  0  0
   16.3910  -16.4205   12.9854 C   0  0  0  0  0  0  0  0  0  0  0  0
   16.2850  -16.6530   14.3432 C   0  0  0  0  0  0  0  0  0  0  0  0
   15.0859  -16.4197   14.9926 C   0  0  0  0  0  0  0  0  0  0  0  0
   13.9627  -15.9540   14.3319 C   0  0  0  0  0  0  0  0  0  0  0  0
   12.6807  -15.6982   14.9936 C   0  0  0  0  0  0  0  0  0  0  0  0
   11.9073  -16.9863   15.0968 C   0  0  2  0  0  0  0  0  0  0  0  0
   11.3996  -17.3274   13.8002 N   0  0  0  0  0  0  0  0  0  0  0  0
   10.7639  -16.8896   16.0346 C   0  0  0  0  0  0  0  0  0  0  0  0
    9.6370  -16.6343   15.5123 O   0  0  0  0  0  0  0  0  0  0  0  0
   14.0945  -15.7264   12.9593 C   0  0  0  0  0  0  0  0  0  0  0  0
   15.2826  -15.9535   12.2949 C   0  0  0  0  0  0  0  0  0  0  0  0
    9.3360  -19.5296   17.7650 C   0  0  0  0  0  0  0  0  0  0  0  0
    9.4145  -18.4343   18.8367 C   0  0  1  0  0  0  0  0  0  0  0  0
   10.5287  -18.7300   19.6109 O   0  0  0  0  0  0  0  0  0  0  0  0
    9.6050  -17.0766   18.1933 C   0  0  2  0  0  0  0  0  0  0  0  0
   10.8518  -17.0580   17.4174 N   0  0  0  0  0  0  0  0  0  0  0  0
    9.7098  -16.0467   19.2652 C   0  0  0  0  0  0  0  0  0  0  0  0
   10.8401  -15.5395   19.5570 O   0  0  0  0  0  0  0  0  0  0  0  0
    7.5476  -12.6717   19.9430 C   0  0  0  0  0  0  0  0  0  0  0  0
    7.6095  -13.6011   21.1094 C   0  0  1  0  0  0  0  0  0  0  0  0
    6.4446  -14.3590   21.2034 O   0  0  0  0  0  0  0  0  0  0  0  0
    8.7762  -14.5619   21.0542 C   0  0  2  0  0  0  0  0  0  0  0  0
    8.6208  -15.5560   20.0238 N   0  0  0  0  0  0  0  0  0  0  0  0
    8.8915  -15.2396   22.3575 C   0  0  0  0  0  0  0  0  0  0  0  0
    8.7535  -16.4791   22.4655 O   0  0  0  0  0  0  0  0  0  0  0  0
    9.1572  -14.5019   23.4909 O   0  0  0  0  0  0  0  0  0  0  0  0
  2  1  1  0
  3  2  2  0
  4  3  1  0
  5  4  2  0
  5 11  1  0
  6  5  1  0
  7  6  1  0
  7  9  1  0
  7  8  1  6
  9 17  1  0
 10  9  2  0
 11 12  2  0
 12  2  1  0
 14 13  1  6
 14 15  1  0
 16 14  1  0
 16 17  1  1
 18 24  1  0
 18 16  1  0
 19 18  2  0
 21 20  1  6
 21 23  1  0
 22 21  1  0
 23 24  1  6
 23 25  1  0
 25 27  1  0
 26 25  2  0
M  END
$$$$
