YTT.pdb
     RDKit          3D

 27 27  0  0  1  0  0  0  0  0999 V2000
   10.1453  -14.0291   30.9491 O   0  0  0  0  0  0  0  0  0  0  0  0
   10.0463  -14.3715   29.5957 C   0  0  0  0  0  0  0  0  0  0  0  0
    9.4103  -13.5195   28.7134 C   0  0  0  0  0  0  0  0  0  0  0  0
    9.3123  -13.8578   27.3755 C   0  0  0  0  0  0  0  0  0  0  0  0
    9.8327  -15.0352   26.8678 C   0  0  0  0  0  0  0  0  0  0  0  0
    9.7437  -15.4191   25.4566 C   0  0  0  0  0  0  0  0  0  0  0  0
    8.3188  -15.7781   25.1267 C   0  0  2  0  0  0  0  0  0  0  0  0
    7.8988  -16.8457   25.9865 N   0  0  0  0  0  0  0  0  0  0  0  0
    8.1541  -16.2189   23.7214 C   0  0  0  0  0  0  0  0  0  0  0  0
    7.8429  -17.4366   23.5539 O   0  0  0  0  0  0  0  0  0  0  0  0
   10.4713  -15.8805   27.7795 C   0  0  0  0  0  0  0  0  0  0  0  0
   10.5785  -15.5595   29.1174 C   0  0  0  0  0  0  0  0  0  0  0  0
    6.2787  -14.3712   20.9599 C   0  0  0  0  0  0  0  0  0  0  0  0
    7.5273  -14.9985   20.3262 C   0  0  1  0  0  0  0  0  0  0  0  0
    8.4172  -13.9546   20.1100 O   0  0  0  0  0  0  0  0  0  0  0  0
    8.1572  -15.9975   21.2742 C   0  0  2  0  0  0  0  0  0  0  0  0
    8.3165  -15.3971   22.6049 N   0  0  0  0  0  0  0  0  0  0  0  0
    9.5096  -16.3592   20.7632 C   0  0  0  0  0  0  0  0  0  0  0  0
   10.5166  -15.6356   21.0499 O   0  0  0  0  0  0  0  0  0  0  0  0
   11.9025  -19.5635   21.0737 C   0  0  0  0  0  0  0  0  0  0  0  0
   11.4850  -19.2401   19.6775 C   0  0  1  0  0  0  0  0  0  0  0  0
   10.3857  -20.0063   19.2974 O   0  0  0  0  0  0  0  0  0  0  0  0
   11.1190  -17.7862   19.4786 C   0  0  2  0  0  0  0  0  0  0  0  0
    9.7931  -17.4837   19.9524 N   0  0  0  0  0  0  0  0  0  0  0  0
   11.1949  -17.4730   18.0408 C   0  0  0  0  0  0  0  0  0  0  0  0
   10.1830  -17.1216   17.3929 O   0  0  0  0  0  0  0  0  0  0  0  0
   12.4027  -17.5655   17.3833 O   0  0  0  0  0  0  0  0  0  0  0  0
  2  1  1  0
  3  2  2  0
  4  3  1  0
  5  4  2  0
  5 11  1  0
  6  5  1  0
  7  6  1  0
  7  9  1  0
  7  8  1  1
  9 17  1  0
 10  9  2  0
 11 12  2  0
 12  2  1  0
 14 13  1  1
 14 15  1  0
 16 14  1  0
 16 17  1  1
 18 24  1  0
 18 16  1  0
 19 18  2  0
 21 20  1  1
 21 23  1  0
 22 21  1  0
 23 24  1  6
 23 25  1  0
 25 27  1  0
 26 25  2  0
M  END
$$$$
