YTT.pdb
     RDKit          3D

 27 27  0  0  1  0  0  0  0  0999 V2000
    5.5083  -10.3564   27.6091 O   0  0  0  0  0  0  0  0  0  0  0  0
    6.0978  -11.5577   27.1992 C   0  0  0  0  0  0  0  0  0  0  0  0
    7.4706  -11.6433   27.0692 C   0  0  0  0  0  0  0  0  0  0  0  0
    8.0536  -12.8307   26.6641 C   0  0  0  0  0  0  0  0  0  0  0  0
    7.3103  -13.9620   26.3765 C   0  0  0  0  0  0  0  0  0  0  0  0
    7.9004  -15.2321   25.9458 C   0  0  0  0  0  0  0  0  0  0  0  0
    6.9887  -15.8909   24.9443 C   0  0  2  0  0  0  0  0  0  0  0  0
    6.3343  -17.0008   25.5730 N   0  0  0  0  0  0  0  0  0  0  0  0
    7.7175  -16.3919   23.7551 C   0  0  0  0  0  0  0  0  0  0  0  0
    8.1928  -17.5638   23.8478 O   0  0  0  0  0  0  0  0  0  0  0  0
    5.9240  -13.8509   26.5153 C   0  0  0  0  0  0  0  0  0  0  0  0
    5.3251  -12.6747   26.9183 C   0  0  0  0  0  0  0  0  0  0  0  0
    9.1542  -16.3659   19.0508 C   0  0  0  0  0  0  0  0  0  0  0  0
    8.3365  -15.7059   20.1689 C   0  0  1  0  0  0  0  0  0  0  0  0
    7.0077  -16.0151   19.9103 O   0  0  0  0  0  0  0  0  0  0  0  0
    8.7245  -16.2774   21.5167 C   0  0  2  0  0  0  0  0  0  0  0  0
    7.9059  -15.6713   22.5747 N   0  0  0  0  0  0  0  0  0  0  0  0
   10.1520  -15.9459   21.7870 C   0  0  0  0  0  0  0  0  0  0  0  0
   10.4546  -14.8737   22.4023 O   0  0  0  0  0  0  0  0  0  0  0  0
   11.8644  -18.2147   23.8947 C   0  0  0  0  0  0  0  0  0  0  0  0
   12.4660  -16.8966   23.5360 C   0  0  1  0  0  0  0  0  0  0  0  0
   13.7572  -16.7841   24.0464 O   0  0  0  0  0  0  0  0  0  0  0  0
   12.5415  -16.6533   22.0453 C   0  0  2  0  0  0  0  0  0  0  0  0
   11.2539  -16.7484   21.4072 N   0  0  0  0  0  0  0  0  0  0  0  0
   13.4444  -17.6537   21.4491 C   0  0  0  0  0  0  0  0  0  0  0  0
   14.6829  -17.6054   21.6254 O   0  0  0  0  0  0  0  0  0  0  0  0
   12.9247  -18.6705   20.6775 O   0  0  0  0  0  0  0  0  0  0  0  0
  2  1  1  0
  3  2  2  0
  4  3  1  0
  5  4  2  0
  5 11  1  0
  6  5  1  0
  7  6  1  0
  7  9  1  0
  7  8  1  1
  9 17  1  0
 10  9  2  0
 11 12  2  0
 12  2  1  0
 14 13  1  6
 14 15  1  0
 16 14  1  0
 16 17  1  1
 18 24  1  0
 18 16  1  0
 19 18  2  0
 21 20  1  6
 21 23  1  0
 22 21  1  0
 23 24  1  6
 23 25  1  0
 25 27  1  0
 26 25  2  0
M  END
$$$$
