YTT.pdb
     RDKit          3D

 27 27  0  0  1  0  0  0  0  0999 V2000
    5.7883  -10.1826   27.6534 O   0  0  0  0  0  0  0  0  0  0  0  0
    6.3312  -11.3688   27.1467 C   0  0  0  0  0  0  0  0  0  0  0  0
    7.1127  -11.3384   26.0078 C   0  0  0  0  0  0  0  0  0  0  0  0
    7.6496  -12.5108   25.5066 C   0  0  0  0  0  0  0  0  0  0  0  0
    7.4360  -13.7400   26.1054 C   0  0  0  0  0  0  0  0  0  0  0  0
    7.9915  -14.9970   25.5971 C   0  0  0  0  0  0  0  0  0  0  0  0
    7.0578  -15.5734   24.5656 C   0  0  2  0  0  0  0  0  0  0  0  0
    6.0416  -16.3331   25.2332 N   0  0  0  0  0  0  0  0  0  0  0  0
    7.7511  -16.4644   23.6055 C   0  0  0  0  0  0  0  0  0  0  0  0
    7.6666  -17.7075   23.8407 O   0  0  0  0  0  0  0  0  0  0  0  0
    6.6424  -13.7453   27.2558 C   0  0  0  0  0  0  0  0  0  0  0  0
    6.0987  -12.5857   27.7700 C   0  0  0  0  0  0  0  0  0  0  0  0
    7.3783  -16.2636   19.8786 C   0  0  0  0  0  0  0  0  0  0  0  0
    8.8468  -16.6168   20.1489 C   0  0  1  0  0  0  0  0  0  0  0  0
    9.5721  -15.4544   19.9225 O   0  0  0  0  0  0  0  0  0  0  0  0
    9.0322  -17.0431   21.5902 C   0  0  2  0  0  0  0  0  0  0  0  0
    8.4699  -16.0288   22.4912 N   0  0  0  0  0  0  0  0  0  0  0  0
   10.4906  -17.1588   21.8739 C   0  0  0  0  0  0  0  0  0  0  0  0
   11.1390  -16.1549   22.3118 O   0  0  0  0  0  0  0  0  0  0  0  0
   12.6758  -19.6220   24.2458 C   0  0  0  0  0  0  0  0  0  0  0  0
   12.9918  -19.6839   22.7882 C   0  0  1  0  0  0  0  0  0  0  0  0
   12.3029  -20.7273   22.1741 O   0  0  0  0  0  0  0  0  0  0  0  0
   12.6534  -18.4122   22.0429 C   0  0  2  0  0  0  0  0  0  0  0  0
   11.2580  -18.3341   21.6950 N   0  0  0  0  0  0  0  0  0  0  0  0
   13.4564  -18.3607   20.8086 C   0  0  0  0  0  0  0  0  0  0  0  0
   12.9283  -18.4697   19.6788 O   0  0  0  0  0  0  0  0  0  0  0  0
   14.8216  -18.1889   20.8873 O   0  0  0  0  0  0  0  0  0  0  0  0
  2  1  1  0
  3  2  2  0
  4  3  1  0
  5  4  2  0
  5 11  1  0
  6  5  1  0
  7  6  1  0
  7  9  1  0
  7  8  1  1
  9 17  1  0
 10  9  2  0
 11 12  2  0
 12  2  1  0
 14 13  1  1
 14 15  1  0
 16 14  1  0
 16 17  1  1
 18 24  1  0
 18 16  1  0
 19 18  2  0
 21 20  1  1
 21 23  1  0
 22 21  1  0
 23 24  1  6
 23 25  1  0
 25 27  1  0
 26 25  2  0
M  END
$$$$
