YTT.pdb
     RDKit          3D

 27 27  0  0  1  0  0  0  0  0999 V2000
    4.6826  -10.0483   25.4774 O   0  0  0  0  0  0  0  0  0  0  0  0
    5.4497  -11.2121   25.6027 C   0  0  0  0  0  0  0  0  0  0  0  0
    6.3515  -11.5537   24.6133 C   0  0  0  0  0  0  0  0  0  0  0  0
    7.1099  -12.7042   24.7369 C   0  0  0  0  0  0  0  0  0  0  0  0
    7.0057  -13.5478   25.8288 C   0  0  0  0  0  0  0  0  0  0  0  0
    7.7955  -14.7718   25.9861 C   0  0  0  0  0  0  0  0  0  0  0  0
    7.4335  -15.7424   24.8930 C   0  0  2  0  0  0  0  0  0  0  0  0
    6.1294  -16.2752   25.1591 N   0  0  0  0  0  0  0  0  0  0  0  0
    8.3879  -16.8721   24.7964 C   0  0  0  0  0  0  0  0  0  0  0  0
    8.0598  -17.9308   25.4123 O   0  0  0  0  0  0  0  0  0  0  0  0
    6.0869  -13.1813   26.8162 C   0  0  0  0  0  0  0  0  0  0  0  0
    5.3220  -12.0375   26.7099 C   0  0  0  0  0  0  0  0  0  0  0  0
   10.7249  -18.3447   21.8643 C   0  0  0  0  0  0  0  0  0  0  0  0
   11.5059  -18.0317   23.1474 C   0  0  1  0  0  0  0  0  0  0  0  0
   12.1217  -16.8051   22.9357 O   0  0  0  0  0  0  0  0  0  0  0  0
   10.5626  -17.9150   24.3264 C   0  0  2  0  0  0  0  0  0  0  0  0
    9.5905  -16.8401   24.0886 N   0  0  0  0  0  0  0  0  0  0  0  0
   11.3519  -17.5667   25.5415 C   0  0  0  0  0  0  0  0  0  0  0  0
   11.9368  -16.4393   25.6232 O   0  0  0  0  0  0  0  0  0  0  0  0
   10.7828  -15.9862   28.4103 C   0  0  0  0  0  0  0  0  0  0  0  0
   11.2722  -17.3251   28.8530 C   0  0  1  0  0  0  0  0  0  0  0  0
   10.2073  -18.1951   29.0749 O   0  0  0  0  0  0  0  0  0  0  0  0
   12.2025  -17.9860   27.8604 C   0  0  2  0  0  0  0  0  0  0  0  0
   11.5195  -18.4098   26.6654 N   0  0  0  0  0  0  0  0  0  0  0  0
   12.8177  -19.1618   28.5009 C   0  0  0  0  0  0  0  0  0  0  0  0
   12.6089  -20.3217   28.0786 O   0  0  0  0  0  0  0  0  0  0  0  0
   13.6440  -18.9930   29.5909 O   0  0  0  0  0  0  0  0  0  0  0  0
  2  1  1  0
  3  2  2  0
  4  3  1  0
  5  4  2  0
  5 11  1  0
  6  5  1  0
  7  6  1  0
  7  9  1  0
  7  8  1  1
  9 17  1  0
 10  9  2  0
 11 12  2  0
 12  2  1  0
 14 13  1  6
 14 15  1  0
 16 14  1  0
 16 17  1  6
 18 24  1  0
 18 16  1  0
 19 18  2  0
 21 20  1  6
 21 23  1  0
 22 21  1  0
 23 24  1  6
 23 25  1  0
 25 27  1  0
 26 25  2  0
M  END
$$$$
