YTT.pdb
     RDKit          3D

 27 27  0  0  1  0  0  0  0  0999 V2000
    5.7108  -10.1242   27.8082 O   0  0  0  0  0  0  0  0  0  0  0  0
    6.2628  -11.2898   27.2650 C   0  0  0  0  0  0  0  0  0  0  0  0
    7.4217  -11.2201   26.5161 C   0  0  0  0  0  0  0  0  0  0  0  0
    7.9677  -12.3722   25.9790 C   0  0  0  0  0  0  0  0  0  0  0  0
    7.3952  -13.6189   26.1602 C   0  0  0  0  0  0  0  0  0  0  0  0
    7.9510  -14.8551   25.6036 C   0  0  0  0  0  0  0  0  0  0  0  0
    6.9301  -15.4992   24.7031 C   0  0  2  0  0  0  0  0  0  0  0  0
    6.1836  -16.4601   25.4613 N   0  0  0  0  0  0  0  0  0  0  0  0
    7.5476  -16.1940   23.5488 C   0  0  0  0  0  0  0  0  0  0  0  0
    7.8269  -17.4187   23.7222 O   0  0  0  0  0  0  0  0  0  0  0  0
    6.2237  -13.6640   26.9212 C   0  0  0  0  0  0  0  0  0  0  0  0
    5.6649  -12.5252   27.4647 C   0  0  0  0  0  0  0  0  0  0  0  0
    6.7571  -15.3987   19.7053 C   0  0  0  0  0  0  0  0  0  0  0  0
    8.2299  -15.7746   19.9142 C   0  0  1  0  0  0  0  0  0  0  0  0
    8.9413  -14.5824   19.8843 O   0  0  0  0  0  0  0  0  0  0  0  0
    8.4222  -16.4319   21.2649 C   0  0  2  0  0  0  0  0  0  0  0  0
    7.8314  -15.5976   22.3192 N   0  0  0  0  0  0  0  0  0  0  0  0
    9.8823  -16.5571   21.5357 C   0  0  0  0  0  0  0  0  0  0  0  0
   10.4025  -15.9570   22.5302 O   0  0  0  0  0  0  0  0  0  0  0  0
   11.8179  -17.8318   23.6388 C   0  0  0  0  0  0  0  0  0  0  0  0
   12.2332  -18.4807   22.3602 C   0  0  1  0  0  0  0  0  0  0  0  0
   11.4466  -19.5985   22.0917 O   0  0  0  0  0  0  0  0  0  0  0  0
   12.1463  -17.5626   21.1616 C   0  0  2  0  0  0  0  0  0  0  0  0
   10.7867  -17.3161   20.7558 N   0  0  0  0  0  0  0  0  0  0  0  0
   12.8744  -18.1811   20.0397 C   0  0  0  0  0  0  0  0  0  0  0  0
   12.2760  -18.6055   19.0253 O   0  0  0  0  0  0  0  0  0  0  0  0
   14.2462  -18.3006   20.0973 O   0  0  0  0  0  0  0  0  0  0  0  0
  2  1  1  0
  3  2  2  0
  4  3  1  0
  5  4  2  0
  5 11  1  0
  6  5  1  0
  7  6  1  0
  7  9  1  0
  7  8  1  1
  9 17  1  0
 10  9  2  0
 11 12  2  0
 12  2  1  0
 14 13  1  1
 14 15  1  0
 16 14  1  0
 16 17  1  1
 18 24  1  0
 18 16  1  0
 19 18  2  0
 21 20  1  1
 21 23  1  0
 22 21  1  0
 23 24  1  6
 23 25  1  0
 25 27  1  0
 26 25  2  0
M  END
$$$$
