YTT.pdb
     RDKit          3D

 27 27  0  0  1  0  0  0  0  0999 V2000
    5.7431  -10.4026   28.3417 O   0  0  0  0  0  0  0  0  0  0  0  0
    6.3181  -11.4859   27.6675 C   0  0  0  0  0  0  0  0  0  0  0  0
    7.6777  -11.7132   27.7604 C   0  0  0  0  0  0  0  0  0  0  0  0
    8.2464  -12.7840   27.0942 C   0  0  0  0  0  0  0  0  0  0  0  0
    7.5013  -13.6577   26.3218 C   0  0  0  0  0  0  0  0  0  0  0  0
    8.0764  -14.7993   25.6056 C   0  0  0  0  0  0  0  0  0  0  0  0
    7.0176  -15.4284   24.7388 C   0  0  2  0  0  0  0  0  0  0  0  0
    6.2746  -16.3700   25.5241 N   0  0  0  0  0  0  0  0  0  0  0  0
    7.5881  -16.1419   23.5718 C   0  0  0  0  0  0  0  0  0  0  0  0
    7.6854  -17.4011   23.6838 O   0  0  0  0  0  0  0  0  0  0  0  0
    6.1285  -13.4073   26.2431 C   0  0  0  0  0  0  0  0  0  0  0  0
    5.5440  -12.3442   26.9009 C   0  0  0  0  0  0  0  0  0  0  0  0
    6.7766  -15.1135   19.9194 C   0  0  0  0  0  0  0  0  0  0  0  0
    8.1972  -15.6919   19.9605 C   0  0  1  0  0  0  0  0  0  0  0  0
    9.0591  -14.6092   19.8449 O   0  0  0  0  0  0  0  0  0  0  0  0
    8.4484  -16.3856   21.2831 C   0  0  2  0  0  0  0  0  0  0  0  0
    8.0117  -15.5276   22.3922 N   0  0  0  0  0  0  0  0  0  0  0  0
    9.9118  -16.6254   21.4302 C   0  0  0  0  0  0  0  0  0  0  0  0
   10.6450  -15.7674   22.0187 O   0  0  0  0  0  0  0  0  0  0  0  0
   12.0389  -19.5932   23.1370 C   0  0  0  0  0  0  0  0  0  0  0  0
   12.2816  -19.4010   21.6768 C   0  0  1  0  0  0  0  0  0  0  0  0
   11.4951  -20.2695   20.9236 O   0  0  0  0  0  0  0  0  0  0  0  0
   11.9967  -17.9951   21.1977 C   0  0  2  0  0  0  0  0  0  0  0  0
   10.5948  -17.7705   20.9563 N   0  0  0  0  0  0  0  0  0  0  0  0
   12.7394  -17.7635   19.9462 C   0  0  0  0  0  0  0  0  0  0  0  0
   12.1485  -17.6012   18.8546 O   0  0  0  0  0  0  0  0  0  0  0  0
   14.1168  -17.7225   19.9658 O   0  0  0  0  0  0  0  0  0  0  0  0
  2  1  1  0
  3  2  2  0
  4  3  1  0
  5  4  2  0
  5 11  1  0
  6  5  1  0
  7  6  1  0
  7  9  1  0
  7  8  1  1
  9 17  1  0
 10  9  2  0
 11 12  2  0
 12  2  1  0
 14 13  1  1
 14 15  1  0
 16 14  1  0
 16 17  1  1
 18 24  1  0
 18 16  1  0
 19 18  2  0
 21 20  1  1
 21 23  1  0
 22 21  1  0
 23 24  1  6
 23 25  1  0
 25 27  1  0
 26 25  2  0
M  END
$$$$
