YTT.pdb
     RDKit          3D

 27 27  0  0  1  0  0  0  0  0999 V2000
    7.9301  -12.3572   16.6827 O   0  0  0  0  0  0  0  0  0  0  0  0
    7.8372  -12.9169   17.9621 C   0  0  0  0  0  0  0  0  0  0  0  0
    6.5994  -13.0919   18.5501 C   0  0  0  0  0  0  0  0  0  0  0  0
    6.5072  -13.6451   19.8148 C   0  0  0  0  0  0  0  0  0  0  0  0
    7.6210  -14.0403   20.5348 C   0  0  0  0  0  0  0  0  0  0  0  0
    7.5534  -14.6286   21.8750 C   0  0  0  0  0  0  0  0  0  0  0  0
    7.9724  -16.0736   21.8066 C   0  0  2  0  0  0  0  0  0  0  0  0
    6.9405  -16.8251   21.1540 N   0  0  0  0  0  0  0  0  0  0  0  0
    8.2021  -16.6631   23.1467 C   0  0  0  0  0  0  0  0  0  0  0  0
    7.2516  -17.3569   23.6188 O   0  0  0  0  0  0  0  0  0  0  0  0
    8.8617  -13.8532   19.9191 C   0  0  0  0  0  0  0  0  0  0  0  0
    8.9728  -13.3030   18.6584 C   0  0  0  0  0  0  0  0  0  0  0  0
    9.2522  -19.4568   23.8826 C   0  0  0  0  0  0  0  0  0  0  0  0
   10.1581  -18.6315   24.8059 C   0  0  1  0  0  0  0  0  0  0  0  0
   11.3332  -18.4118   24.0992 O   0  0  0  0  0  0  0  0  0  0  0  0
    9.5153  -17.2977   25.1243 C   0  0  2  0  0  0  0  0  0  0  0  0
    9.3682  -16.5043   23.8972 N   0  0  0  0  0  0  0  0  0  0  0  0
   10.4011  -16.5475   26.0588 C   0  0  0  0  0  0  0  0  0  0  0  0
   11.3538  -15.8360   25.6050 O   0  0  0  0  0  0  0  0  0  0  0  0
   10.1574  -13.5043   27.5568 C   0  0  0  0  0  0  0  0  0  0  0  0
   10.3714  -14.4335   28.7052 C   0  0  1  0  0  0  0  0  0  0  0  0
    9.1586  -14.7838   29.2939 O   0  0  0  0  0  0  0  0  0  0  0  0
   11.0795  -15.7137   28.3218 C   0  0  2  0  0  0  0  0  0  0  0  0
   10.2768  -16.5511   27.4683 N   0  0  0  0  0  0  0  0  0  0  0  0
   11.4060  -16.4586   29.5506 C   0  0  0  0  0  0  0  0  0  0  0  0
   12.1832  -15.9904   30.4131 O   0  0  0  0  0  0  0  0  0  0  0  0
   10.8489  -17.7006   29.7660 O   0  0  0  0  0  0  0  0  0  0  0  0
  2  1  1  0
  3  2  2  0
  4  3  1  0
  5  4  2  0
  5 11  1  0
  6  5  1  0
  7  6  1  0
  7  9  1  0
  7  8  1  1
  9 17  1  0
 10  9  2  0
 11 12  2  0
 12  2  1  0
 14 13  1  6
 14 15  1  0
 16 14  1  0
 16 17  1  6
 18 24  1  0
 18 16  1  0
 19 18  2  0
 21 20  1  6
 21 23  1  0
 22 21  1  0
 23 24  1  6
 23 25  1  0
 25 27  1  0
 26 25  2  0
M  END
$$$$
