YTT.pdb
     RDKit          3D

 27 27  0  0  1  0  0  0  0  0999 V2000
   10.1216  -14.2865   31.1946 O   0  0  0  0  0  0  0  0  0  0  0  0
   10.0171  -14.5957   29.8336 C   0  0  0  0  0  0  0  0  0  0  0  0
    9.2871  -13.7764   28.9942 C   0  0  0  0  0  0  0  0  0  0  0  0
    9.1836  -14.0818   27.6488 C   0  0  0  0  0  0  0  0  0  0  0  0
    9.7904  -15.1937   27.0916 C   0  0  0  0  0  0  0  0  0  0  0  0
    9.6980  -15.5415   25.6713 C   0  0  0  0  0  0  0  0  0  0  0  0
    8.3504  -16.1546   25.3950 C   0  0  2  0  0  0  0  0  0  0  0  0
    8.2266  -17.3637   26.1552 N   0  0  0  0  0  0  0  0  0  0  0  0
    8.1577  -16.4825   23.9626 C   0  0  0  0  0  0  0  0  0  0  0  0
    8.3556  -17.6922   23.6382 O   0  0  0  0  0  0  0  0  0  0  0  0
   10.5232  -16.0070   27.9605 C   0  0  0  0  0  0  0  0  0  0  0  0
   10.6372  -15.7180   29.3052 C   0  0  0  0  0  0  0  0  0  0  0  0
    6.7304  -15.6056   19.3279 C   0  0  0  0  0  0  0  0  0  0  0  0
    6.9106  -15.0633   20.7519 C   0  0  1  0  0  0  0  0  0  0  0  0
    5.6351  -14.9625   21.2916 O   0  0  0  0  0  0  0  0  0  0  0  0
    7.7265  -16.0282   21.5866 C   0  0  2  0  0  0  0  0  0  0  0  0
    7.7825  -15.5657   22.9794 N   0  0  0  0  0  0  0  0  0  0  0  0
    9.1178  -16.0676   21.0543 C   0  0  0  0  0  0  0  0  0  0  0  0
   10.0290  -15.3599   21.5918 O   0  0  0  0  0  0  0  0  0  0  0  0
   11.7434  -17.0520   22.0588 C   0  0  0  0  0  0  0  0  0  0  0  0
   11.6099  -17.8616   20.8119 C   0  0  1  0  0  0  0  0  0  0  0  0
   10.8828  -19.0255   21.0503 O   0  0  0  0  0  0  0  0  0  0  0  0
   10.9296  -17.1216   19.6819 C   0  0  2  0  0  0  0  0  0  0  0  0
    9.5414  -16.8546   19.9573 N   0  0  0  0  0  0  0  0  0  0  0  0
   11.0250  -17.9375   18.4586 C   0  0  0  0  0  0  0  0  0  0  0  0
   10.0232  -18.5115   17.9746 O   0  0  0  0  0  0  0  0  0  0  0  0
   12.2400  -18.0792   17.8238 O   0  0  0  0  0  0  0  0  0  0  0  0
  2  1  1  0
  3  2  2  0
  4  3  1  0
  5  4  2  0
  5 11  1  0
  6  5  1  0
  7  6  1  0
  7  9  1  0
  7  8  1  1
  9 17  1  0
 10  9  2  0
 11 12  2  0
 12  2  1  0
 14 13  1  6
 14 15  1  0
 16 14  1  0
 16 17  1  1
 18 24  1  0
 18 16  1  0
 19 18  2  0
 21 20  1  1
 21 23  1  0
 22 21  1  0
 23 24  1  1
 23 25  1  0
 25 27  1  0
 26 25  2  0
M  END
$$$$
