YTT.pdb
     RDKit          3D

 27 27  0  0  1  0  0  0  0  0999 V2000
    7.6306  -13.9271   14.6571 O   0  0  0  0  0  0  0  0  0  0  0  0
    7.8557  -13.8681   16.0371 C   0  0  0  0  0  0  0  0  0  0  0  0
    8.8120  -14.6805   16.6154 C   0  0  0  0  0  0  0  0  0  0  0  0
    9.0348  -14.6223   17.9796 C   0  0  0  0  0  0  0  0  0  0  0  0
    8.3294  -13.7700   18.8109 C   0  0  0  0  0  0  0  0  0  0  0  0
    8.5440  -13.6872   20.2579 C   0  0  0  0  0  0  0  0  0  0  0  0
    8.2227  -15.0177   20.8862 C   0  0  2  0  0  0  0  0  0  0  0  0
    6.8395  -15.3169   20.6567 N   0  0  0  0  0  0  0  0  0  0  0  0
    8.4660  -15.0298   22.3481 C   0  0  0  0  0  0  0  0  0  0  0  0
    8.3141  -13.9219   22.9458 O   0  0  0  0  0  0  0  0  0  0  0  0
    7.3677  -12.9583   18.2029 C   0  0  0  0  0  0  0  0  0  0  0  0
    7.1319  -13.0028   16.8439 C   0  0  0  0  0  0  0  0  0  0  0  0
    7.6643  -15.6546   26.6566 C   0  0  0  0  0  0  0  0  0  0  0  0
    7.6346  -15.5638   25.1252 C   0  0  1  0  0  0  0  0  0  0  0  0
    7.4465  -14.2220   24.8210 O   0  0  0  0  0  0  0  0  0  0  0  0
    8.9544  -16.0233   24.5418 C   0  0  2  0  0  0  0  0  0  0  0  0
    8.8412  -16.1553   23.0835 N   0  0  0  0  0  0  0  0  0  0  0  0
    9.2892  -17.3619   25.1045 C   0  0  0  0  0  0  0  0  0  0  0  0
    8.4332  -18.3032   25.0694 O   0  0  0  0  0  0  0  0  0  0  0  0
   12.1968  -19.7266   24.2026 C   0  0  0  0  0  0  0  0  0  0  0  0
   12.1494  -19.5424   25.6831 C   0  0  1  0  0  0  0  0  0  0  0  0
   13.1328  -18.6507   26.1049 O   0  0  0  0  0  0  0  0  0  0  0  0
   10.8193  -19.0260   26.1846 C   0  0  2  0  0  0  0  0  0  0  0  0
   10.5266  -17.7014   25.7010 N   0  0  0  0  0  0  0  0  0  0  0  0
   10.8479  -19.0007   27.6576 C   0  0  0  0  0  0  0  0  0  0  0  0
   10.7398  -17.9294   28.2963 O   0  0  0  0  0  0  0  0  0  0  0  0
   10.9967  -20.1776   28.3592 O   0  0  0  0  0  0  0  0  0  0  0  0
  2  1  1  0
  3  2  2  0
  4  3  1  0
  5  4  2  0
  5 11  1  0
  6  5  1  0
  7  6  1  0
  7  9  1  0
  7  8  1  1
  9 17  1  0
 10  9  2  0
 11 12  2  0
 12  2  1  0
 14 13  1  1
 14 15  1  0
 16 14  1  0
 16 17  1  6
 18 24  1  0
 18 16  1  0
 19 18  2  0
 21 20  1  6
 21 23  1  0
 22 21  1  0
 23 24  1  6
 23 25  1  0
 25 27  1  0
 26 25  2  0
M  END
$$$$
