YTT.pdb
     RDKit          3D

 27 27  0  0  1  0  0  0  0  0999 V2000
    7.5229  -12.4315   16.3206 O   0  0  0  0  0  0  0  0  0  0  0  0
    7.5969  -12.9309   17.6258 C   0  0  0  0  0  0  0  0  0  0  0  0
    6.4389  -13.1556   18.3451 C   0  0  0  0  0  0  0  0  0  0  0  0
    6.5117  -13.6493   19.6354 C   0  0  0  0  0  0  0  0  0  0  0  0
    7.7164  -13.9351   20.2535 C   0  0  0  0  0  0  0  0  0  0  0  0
    7.8235  -14.4584   21.6179 C   0  0  0  0  0  0  0  0  0  0  0  0
    8.3132  -15.8817   21.5687 C   0  0  2  0  0  0  0  0  0  0  0  0
    7.3038  -16.6985   20.9610 N   0  0  0  0  0  0  0  0  0  0  0  0
    8.6079  -16.4286   22.9142 C   0  0  0  0  0  0  0  0  0  0  0  0
    7.6047  -16.8006   23.5946 O   0  0  0  0  0  0  0  0  0  0  0  0
    8.8736  -13.6996   19.5061 C   0  0  0  0  0  0  0  0  0  0  0  0
    8.8202  -13.2076   18.2178 C   0  0  0  0  0  0  0  0  0  0  0  0
   10.5116  -19.4432   23.7778 C   0  0  0  0  0  0  0  0  0  0  0  0
   11.0243  -18.3280   24.6986 C   0  0  1  0  0  0  0  0  0  0  0  0
   12.1947  -17.8557   24.1193 O   0  0  0  0  0  0  0  0  0  0  0  0
   10.0182  -17.1986   24.7732 C   0  0  2  0  0  0  0  0  0  0  0  0
    9.8864  -16.5545   23.4600 N   0  0  0  0  0  0  0  0  0  0  0  0
   10.5100  -16.1794   25.7429 C   0  0  0  0  0  0  0  0  0  0  0  0
   11.2904  -15.2517   25.3554 O   0  0  0  0  0  0  0  0  0  0  0  0
    9.2528  -13.1865   27.2812 C   0  0  0  0  0  0  0  0  0  0  0  0
    9.6056  -14.1231   28.3886 C   0  0  1  0  0  0  0  0  0  0  0  0
    8.4860  -14.8344   28.8137 O   0  0  0  0  0  0  0  0  0  0  0  0
   10.6700  -15.1293   28.0119 C   0  0  2  0  0  0  0  0  0  0  0  0
   10.1750  -16.1435   27.1172 N   0  0  0  0  0  0  0  0  0  0  0  0
   11.1635  -15.7764   29.2403 C   0  0  0  0  0  0  0  0  0  0  0  0
   11.0155  -17.0036   29.4388 O   0  0  0  0  0  0  0  0  0  0  0  0
   11.8045  -15.0232   30.2001 O   0  0  0  0  0  0  0  0  0  0  0  0
  2  1  1  0
  3  2  2  0
  4  3  1  0
  5  4  2  0
  5 11  1  0
  6  5  1  0
  7  6  1  0
  7  9  1  0
  7  8  1  1
  9 17  1  0
 10  9  2  0
 11 12  2  0
 12  2  1  0
 14 13  1  6
 14 15  1  0
 16 14  1  0
 16 17  1  6
 18 24  1  0
 18 16  1  0
 19 18  2  0
 21 20  1  6
 21 23  1  0
 22 21  1  0
 23 24  1  6
 23 25  1  0
 25 27  1  0
 26 25  2  0
M  END
$$$$
