YTT.pdb
     RDKit          3D

 27 27  0  0  1  0  0  0  0  0999 V2000
    5.0413  -10.6917   28.4822 O   0  0  0  0  0  0  0  0  0  0  0  0
    5.7833  -11.5696   27.6840 C   0  0  0  0  0  0  0  0  0  0  0  0
    5.4368  -11.7581   26.3599 C   0  0  0  0  0  0  0  0  0  0  0  0
    6.1700  -12.6259   25.5705 C   0  0  0  0  0  0  0  0  0  0  0  0
    7.2585  -13.3298   26.0551 C   0  0  0  0  0  0  0  0  0  0  0  0
    8.0528  -14.2549   25.2426 C   0  0  0  0  0  0  0  0  0  0  0  0
    7.1511  -15.3179   24.6727 C   0  0  2  0  0  0  0  0  0  0  0  0
    6.7767  -16.2199   25.7223 N   0  0  0  0  0  0  0  0  0  0  0  0
    7.8038  -16.1001   23.5963 C   0  0  0  0  0  0  0  0  0  0  0  0
    8.0157  -17.3244   23.8496 O   0  0  0  0  0  0  0  0  0  0  0  0
    7.5895  -13.1226   27.3970 C   0  0  0  0  0  0  0  0  0  0  0  0
    6.8696  -12.2609   28.1993 C   0  0  0  0  0  0  0  0  0  0  0  0
    9.0757  -16.9362   18.9163 C   0  0  0  0  0  0  0  0  0  0  0  0
    8.4795  -15.9876   19.9646 C   0  0  1  0  0  0  0  0  0  0  0  0
    7.1103  -15.9678   19.7339 O   0  0  0  0  0  0  0  0  0  0  0  0
    8.7386  -16.5119   21.3615 C   0  0  2  0  0  0  0  0  0  0  0  0
    8.1873  -15.5840   22.3575 N   0  0  0  0  0  0  0  0  0  0  0  0
   10.2105  -16.6026   21.5762 C   0  0  0  0  0  0  0  0  0  0  0  0
   10.9176  -15.5452   21.6166 O   0  0  0  0  0  0  0  0  0  0  0  0
   12.2899  -18.3095   24.5471 C   0  0  0  0  0  0  0  0  0  0  0  0
   12.6408  -18.8185   23.1885 C   0  0  1  0  0  0  0  0  0  0  0  0
   11.9589  -20.0006   22.9092 O   0  0  0  0  0  0  0  0  0  0  0  0
   12.3307  -17.8392   22.0785 C   0  0  2  0  0  0  0  0  0  0  0  0
   10.9293  -17.8093   21.7480 N   0  0  0  0  0  0  0  0  0  0  0  0
   13.0954  -18.2267   20.8801 C   0  0  0  0  0  0  0  0  0  0  0  0
   12.5333  -18.7186   19.8754 O   0  0  0  0  0  0  0  0  0  0  0  0
   14.4617  -18.0481   20.8531 O   0  0  0  0  0  0  0  0  0  0  0  0
  2  1  1  0
  3  2  2  0
  4  3  1  0
  5  4  2  0
  5 11  1  0
  6  5  1  0
  7  6  1  0
  7  9  1  0
  7  8  1  1
  9 17  1  0
 10  9  2  0
 11 12  2  0
 12  2  1  0
 14 13  1  6
 14 15  1  0
 16 14  1  0
 16 17  1  1
 18 24  1  0
 18 16  1  0
 19 18  2  0
 21 20  1  1
 21 23  1  0
 22 21  1  0
 23 24  1  6
 23 25  1  0
 25 27  1  0
 26 25  2  0
M  END
$$$$
