YTT.pdb
     RDKit          3D

 27 27  0  0  1  0  0  0  0  0999 V2000
    8.1492  -11.7939   16.8183 O   0  0  0  0  0  0  0  0  0  0  0  0
    7.9538  -12.5902   17.9524 C   0  0  0  0  0  0  0  0  0  0  0  0
    6.7099  -13.1352   18.2066 C   0  0  0  0  0  0  0  0  0  0  0  0
    6.5164  -13.9225   19.3276 C   0  0  0  0  0  0  0  0  0  0  0  0
    7.5324  -14.1960   20.2266 C   0  0  0  0  0  0  0  0  0  0  0  0
    7.3564  -15.0257   21.4213 C   0  0  0  0  0  0  0  0  0  0  0  0
    8.3116  -16.1886   21.3655 C   0  0  2  0  0  0  0  0  0  0  0  0
    7.7605  -17.2009   20.5128 N   0  0  0  0  0  0  0  0  0  0  0  0
    8.5588  -16.7861   22.6991 C   0  0  0  0  0  0  0  0  0  0  0  0
    7.8946  -17.8314   22.9712 O   0  0  0  0  0  0  0  0  0  0  0  0
    8.7813  -13.6337   19.9482 C   0  0  0  0  0  0  0  0  0  0  0  0
    8.9927  -12.8460   18.8348 C   0  0  0  0  0  0  0  0  0  0  0  0
    9.8439  -19.1675   23.5640 C   0  0  0  0  0  0  0  0  0  0  0  0
   10.5165  -18.2615   24.6038 C   0  0  1  0  0  0  0  0  0  0  0  0
   11.7166  -17.8498   24.0394 O   0  0  0  0  0  0  0  0  0  0  0  0
    9.6574  -17.0457   24.8816 C   0  0  2  0  0  0  0  0  0  0  0  0
    9.4527  -16.2810   23.6446 N   0  0  0  0  0  0  0  0  0  0  0  0
   10.3649  -16.1693   25.8574 C   0  0  0  0  0  0  0  0  0  0  0  0
   11.3294  -15.4327   25.4738 O   0  0  0  0  0  0  0  0  0  0  0  0
    9.5820  -13.0252   27.3013 C   0  0  0  0  0  0  0  0  0  0  0  0
    9.7965  -13.9563   28.4481 C   0  0  1  0  0  0  0  0  0  0  0  0
    8.5847  -14.4677   28.9065 O   0  0  0  0  0  0  0  0  0  0  0  0
   10.6900  -15.1298   28.1136 C   0  0  2  0  0  0  0  0  0  0  0  0
   10.0507  -16.0738   27.2337 N   0  0  0  0  0  0  0  0  0  0  0  0
   11.0558  -15.8161   29.3651 C   0  0  0  0  0  0  0  0  0  0  0  0
   10.7300  -17.0058   29.5788 O   0  0  0  0  0  0  0  0  0  0  0  0
   11.7732  -15.1427   30.3301 O   0  0  0  0  0  0  0  0  0  0  0  0
  2  1  1  0
  3  2  2  0
  4  3  1  0
  5  4  2  0
  5 11  1  0
  6  5  1  0
  7  6  1  0
  7  9  1  0
  7  8  1  6
  9 17  1  0
 10  9  2  0
 11 12  2  0
 12  2  1  0
 14 13  1  6
 14 15  1  0
 16 14  1  0
 16 17  1  6
 18 24  1  0
 18 16  1  0
 19 18  2  0
 21 20  1  6
 21 23  1  0
 22 21  1  0
 23 24  1  6
 23 25  1  0
 25 27  1  0
 26 25  2  0
M  END
$$$$
