YTT.pdb
     RDKit          3D

 27 27  0  0  1  0  0  0  0  0999 V2000
    7.3631  -12.0659   16.8683 O   0  0  0  0  0  0  0  0  0  0  0  0
    7.4801  -12.8062   18.0502 C   0  0  0  0  0  0  0  0  0  0  0  0
    8.6250  -12.7052   18.8168 C   0  0  0  0  0  0  0  0  0  0  0  0
    8.7410  -13.4369   19.9853 C   0  0  0  0  0  0  0  0  0  0  0  0
    7.7423  -14.2839   20.4325 C   0  0  0  0  0  0  0  0  0  0  0  0
    7.8377  -15.0704   21.6651 C   0  0  0  0  0  0  0  0  0  0  0  0
    8.8634  -16.1582   21.4839 C   0  0  2  0  0  0  0  0  0  0  0  0
    8.3418  -17.1415   20.5804 N   0  0  0  0  0  0  0  0  0  0  0  0
    9.2087  -16.8321   22.7579 C   0  0  0  0  0  0  0  0  0  0  0  0
    8.8537  -18.0452   22.8586 O   0  0  0  0  0  0  0  0  0  0  0  0
    6.5940  -14.3693   19.6402 C   0  0  0  0  0  0  0  0  0  0  0  0
    6.4609  -13.6470   18.4718 C   0  0  0  0  0  0  0  0  0  0  0  0
   10.5879  -19.0048   23.4021 C   0  0  0  0  0  0  0  0  0  0  0  0
   11.2304  -18.1494   24.5020 C   0  0  1  0  0  0  0  0  0  0  0  0
   12.3453  -17.5537   23.9269 O   0  0  0  0  0  0  0  0  0  0  0  0
   10.2729  -17.0691   24.9599 C   0  0  2  0  0  0  0  0  0  0  0  0
    9.8814  -16.2282   23.8213 N   0  0  0  0  0  0  0  0  0  0  0  0
   10.9638  -16.2057   25.9588 C   0  0  0  0  0  0  0  0  0  0  0  0
   11.6151  -15.1809   25.5773 O   0  0  0  0  0  0  0  0  0  0  0  0
   10.2105  -13.5402   26.8270 C   0  0  0  0  0  0  0  0  0  0  0  0
   10.0699  -14.2728   28.1199 C   0  0  1  0  0  0  0  0  0  0  0  0
    8.8131  -14.8646   28.2217 O   0  0  0  0  0  0  0  0  0  0  0  0
   11.1035  -15.3599   28.3130 C   0  0  2  0  0  0  0  0  0  0  0  0
   10.9634  -16.4273   27.3564 N   0  0  0  0  0  0  0  0  0  0  0  0
   10.9578  -15.9137   29.6706 C   0  0  0  0  0  0  0  0  0  0  0  0
   11.2178  -15.2315   30.6876 O   0  0  0  0  0  0  0  0  0  0  0  0
   10.5261  -17.2119   29.8371 O   0  0  0  0  0  0  0  0  0  0  0  0
  2  1  1  0
  3  2  2  0
  4  3  1  0
  5  4  2  0
  5 11  1  0
  6  5  1  0
  7  6  1  0
  7  9  1  0
  7  8  1  6
  9 17  1  0
 10  9  2  0
 11 12  2  0
 12  2  1  0
 14 13  1  6
 14 15  1  0
 16 14  1  0
 16 17  1  6
 18 24  1  0
 18 16  1  0
 19 18  2  0
 21 20  1  6
 21 23  1  0
 22 21  1  0
 23 24  1  6
 23 25  1  0
 25 27  1  0
 26 25  2  0
M  END
$$$$
