AGT.pdb
     RDKit          3D

 17 16  0  0  1  0  0  0  0  0999 V2000
    7.6078  -19.3881   21.5417 C   0  0  0  0  0  0  0  0  0  0  0  0
    7.7956  -18.5576   22.8040 C   0  0  2  0  0  0  0  0  0  0  0  0
    6.5830  -18.5852   23.5974 N   0  0  0  0  0  0  0  0  0  0  0  0
    8.0823  -17.1761   22.3959 C   0  0  0  0  0  0  0  0  0  0  0  0
    9.1382  -16.9189   21.7413 O   0  0  0  0  0  0  0  0  0  0  0  0
    7.2386  -16.0734   22.6891 N   0  0  0  0  0  0  0  0  0  0  0  0
    7.5822  -14.7446   22.2871 C   0  0  0  0  0  0  0  0  0  0  0  0
    7.8806  -13.8742   23.4573 C   0  0  0  0  0  0  0  0  0  0  0  0
    8.3496  -12.7410   23.2302 O   0  0  0  0  0  0  0  0  0  0  0  0
    6.2170  -11.7959   25.6943 C   0  0  0  0  0  0  0  0  0  0  0  0
    6.7424  -12.8913   26.6030 C   0  0  1  0  0  0  0  0  0  0  0  0
    5.7017  -13.8249   26.6979 O   0  0  0  0  0  0  0  0  0  0  0  0
    7.9524  -13.4916   25.9403 C   0  0  2  0  0  0  0  0  0  0  0  0
    7.6523  -14.2866   24.7943 N   0  0  0  0  0  0  0  0  0  0  0  0
    8.7329  -14.2523   26.9650 C   0  0  0  0  0  0  0  0  0  0  0  0
    9.1420  -13.5683   28.0844 O   0  0  0  0  0  0  0  0  0  0  0  0
    9.0142  -15.4564   26.8341 O   0  0  0  0  0  0  0  0  0  0  0  0
  2  1  1  6
  2  3  1  0
  4  5  2  0
  4  2  1  0
  6  4  1  0
  7  8  1  0
  7  6  1  0
  8  9  2  0
 11 10  1  6
 11 13  1  0
 12 11  1  0
 13 15  1  0
 13 14  1  6
 14  8  1  0
 15 17  2  0
 15 16  1  0
M  END
$$$$
