AGT.pdb
     RDKit          3D

 17 16  0  0  1  0  0  0  0  0999 V2000
    5.4546  -18.6956   19.4004 C   0  0  0  0  0  0  0  0  0  0  0  0
    6.4064  -18.7202   20.5886 C   0  0  2  0  0  0  0  0  0  0  0  0
    5.6600  -18.5669   21.8215 N   0  0  0  0  0  0  0  0  0  0  0  0
    7.3418  -17.5975   20.4399 C   0  0  0  0  0  0  0  0  0  0  0  0
    8.5687  -17.8259   20.2115 O   0  0  0  0  0  0  0  0  0  0  0  0
    6.9622  -16.2336   20.5360 N   0  0  0  0  0  0  0  0  0  0  0  0
    7.9163  -15.1811   20.3707 C   0  0  0  0  0  0  0  0  0  0  0  0
    8.4353  -14.6967   21.6791 C   0  0  0  0  0  0  0  0  0  0  0  0
    9.2843  -13.7831   21.6618 O   0  0  0  0  0  0  0  0  0  0  0  0
    6.5868  -13.3009   24.6732 C   0  0  0  0  0  0  0  0  0  0  0  0
    7.3634  -14.5025   25.1781 C   0  0  1  0  0  0  0  0  0  0  0  0
    6.4373  -15.5537   25.2141 O   0  0  0  0  0  0  0  0  0  0  0  0
    8.4639  -14.7813   24.1908 C   0  0  2  0  0  0  0  0  0  0  0  0
    8.0021  -15.2318   22.9184 N   0  0  0  0  0  0  0  0  0  0  0  0
    9.4328  -15.7385   24.8099 C   0  0  0  0  0  0  0  0  0  0  0  0
   10.0225  -15.3645   25.9934 O   0  0  0  0  0  0  0  0  0  0  0  0
    9.7115  -16.8354   24.2951 O   0  0  0  0  0  0  0  0  0  0  0  0
  2  1  1  6
  2  3  1  0
  4  5  2  0
  4  2  1  0
  6  4  1  0
  7  8  1  0
  7  6  1  0
  8  9  2  0
 11 10  1  6
 11 13  1  0
 12 11  1  0
 13 15  1  0
 13 14  1  6
 14  8  1  0
 15 17  2  0
 15 16  1  0
M  END
$$$$
