AGT.pdb
     RDKit          3D

 17 16  0  0  1  0  0  0  0  0999 V2000
    8.1793  -16.7231   19.0537 C   0  0  0  0  0  0  0  0  0  0  0  0
    8.9602  -16.5773   20.3526 C   0  0  2  0  0  0  0  0  0  0  0  0
    9.3568  -17.8839   20.8389 N   0  0  0  0  0  0  0  0  0  0  0  0
    8.0803  -15.9348   21.3376 C   0  0  0  0  0  0  0  0  0  0  0  0
    7.6791  -14.7469   21.1436 O   0  0  0  0  0  0  0  0  0  0  0  0
    7.6319  -16.5647   22.5275 N   0  0  0  0  0  0  0  0  0  0  0  0
    6.7632  -15.8935   23.4441 C   0  0  0  0  0  0  0  0  0  0  0  0
    7.5118  -14.9629   24.3327 C   0  0  0  0  0  0  0  0  0  0  0  0
    8.7485  -14.8937   24.1868 O   0  0  0  0  0  0  0  0  0  0  0  0
    6.1516  -11.2817   25.8156 C   0  0  0  0  0  0  0  0  0  0  0  0
    6.6454  -12.2661   26.8591 C   0  0  1  0  0  0  0  0  0  0  0  0
    5.4938  -12.8997   27.3450 O   0  0  0  0  0  0  0  0  0  0  0  0
    7.5540  -13.2457   26.1674 C   0  0  2  0  0  0  0  0  0  0  0  0
    6.8738  -14.1694   25.3192 N   0  0  0  0  0  0  0  0  0  0  0  0
    8.3884  -13.9370   27.1988 C   0  0  0  0  0  0  0  0  0  0  0  0
    9.1501  -13.1492   28.0279 O   0  0  0  0  0  0  0  0  0  0  0  0
    8.4105  -15.1740   27.3226 O   0  0  0  0  0  0  0  0  0  0  0  0
  2  1  1  6
  2  3  1  0
  4  5  2  0
  4  2  1  0
  6  4  1  0
  7  8  1  0
  7  6  1  0
  8  9  2  0
 11 10  1  6
 11 13  1  0
 12 11  1  0
 13 15  1  0
 13 14  1  1
 14  8  1  0
 15 17  2  0
 15 16  1  0
M  END
$$$$
