AGT.pdb
     RDKit          3D

 17 16  0  0  1  0  0  0  0  0999 V2000
    6.8688  -20.2631   20.5564 C   0  0  0  0  0  0  0  0  0  0  0  0
    8.0302  -19.5582   21.2438 C   0  0  2  0  0  0  0  0  0  0  0  0
    8.5851  -20.4126   22.2746 N   0  0  0  0  0  0  0  0  0  0  0  0
    7.5120  -18.3271   21.8549 C   0  0  0  0  0  0  0  0  0  0  0  0
    7.7103  -17.2101   21.2868 O   0  0  0  0  0  0  0  0  0  0  0  0
    6.7831  -18.2943   23.0720 N   0  0  0  0  0  0  0  0  0  0  0  0
    6.2414  -17.0735   23.5834 C   0  0  0  0  0  0  0  0  0  0  0  0
    7.2459  -16.3144   24.3777 C   0  0  0  0  0  0  0  0  0  0  0  0
    8.4290  -16.7072   24.3403 O   0  0  0  0  0  0  0  0  0  0  0  0
    6.9559  -12.1749   25.2777 C   0  0  0  0  0  0  0  0  0  0  0  0
    7.2712  -13.1094   26.4305 C   0  0  1  0  0  0  0  0  0  0  0  0
    6.0403  -13.3594   27.0521 O   0  0  0  0  0  0  0  0  0  0  0  0
    7.8526  -14.3696   25.8495 C   0  0  2  0  0  0  0  0  0  0  0  0
    6.9045  -15.1819   25.1592 N   0  0  0  0  0  0  0  0  0  0  0  0
    8.5523  -15.1212   26.9374 C   0  0  0  0  0  0  0  0  0  0  0  0
    9.5815  -14.4825   27.5864 O   0  0  0  0  0  0  0  0  0  0  0  0
    8.2355  -16.2790   27.2617 O   0  0  0  0  0  0  0  0  0  0  0  0
  2  1  1  1
  2  3  1  0
  4  5  2  0
  4  2  1  0
  6  4  1  0
  7  8  1  0
  7  6  1  0
  8  9  2  0
 11 10  1  6
 11 13  1  0
 12 11  1  0
 13 15  1  0
 13 14  1  1
 14  8  1  0
 15 17  2  0
 15 16  1  0
M  END
$$$$
