AGT.pdb
     RDKit          3D

 17 16  0  0  1  0  0  0  0  0999 V2000
    8.6952  -17.0382   18.5681 C   0  0  0  0  0  0  0  0  0  0  0  0
    9.3611  -16.8985   19.9303 C   0  0  2  0  0  0  0  0  0  0  0  0
    9.3249  -18.1676   20.6293 N   0  0  0  0  0  0  0  0  0  0  0  0
    8.6111  -15.8954   20.6976 C   0  0  0  0  0  0  0  0  0  0  0  0
    8.6368  -14.6789   20.3382 O   0  0  0  0  0  0  0  0  0  0  0  0
    7.8358  -16.1964   21.8474 N   0  0  0  0  0  0  0  0  0  0  0  0
    7.0507  -15.1948   22.4998 C   0  0  0  0  0  0  0  0  0  0  0  0
    7.7712  -14.5961   23.6567 C   0  0  0  0  0  0  0  0  0  0  0  0
    9.0178  -14.5892   23.6206 O   0  0  0  0  0  0  0  0  0  0  0  0
    6.4724  -11.3037   25.9441 C   0  0  0  0  0  0  0  0  0  0  0  0
    6.8247  -12.5609   26.7166 C   0  0  1  0  0  0  0  0  0  0  0  0
    5.6065  -13.2216   26.9245 O   0  0  0  0  0  0  0  0  0  0  0  0
    7.7477  -13.3806   25.8564 C   0  0  2  0  0  0  0  0  0  0  0  0
    7.0962  -14.0452   24.7751 N   0  0  0  0  0  0  0  0  0  0  0  0
    8.5001  -14.3325   26.7315 C   0  0  0  0  0  0  0  0  0  0  0  0
    9.2394  -13.7975   27.7589 O   0  0  0  0  0  0  0  0  0  0  0  0
    8.4750  -15.5635   26.5583 O   0  0  0  0  0  0  0  0  0  0  0  0
  2  1  1  6
  2  3  1  0
  4  5  2  0
  4  2  1  0
  6  4  1  0
  7  8  1  0
  7  6  1  0
  8  9  2  0
 11 10  1  6
 11 13  1  0
 12 11  1  0
 13 15  1  0
 13 14  1  6
 14  8  1  0
 15 17  2  0
 15 16  1  0
M  END
$$$$
