AGT.pdb
     RDKit          3D

 17 16  0  0  1  0  0  0  0  0999 V2000
    7.7679  -13.0758   18.4017 C   0  0  0  0  0  0  0  0  0  0  0  0
    8.6877  -13.7024   19.4408 C   0  0  2  0  0  0  0  0  0  0  0  0
    9.0763  -15.0328   19.0170 N   0  0  0  0  0  0  0  0  0  0  0  0
    7.9460  -13.7886   20.7056 C   0  0  0  0  0  0  0  0  0  0  0  0
    7.6005  -12.7262   21.3069 O   0  0  0  0  0  0  0  0  0  0  0  0
    7.5758  -15.0111   21.3238 N   0  0  0  0  0  0  0  0  0  0  0  0
    6.8109  -15.0335   22.5320 C   0  0  0  0  0  0  0  0  0  0  0  0
    7.5981  -14.5338   23.6924 C   0  0  0  0  0  0  0  0  0  0  0  0
    8.8362  -14.4588   23.5618 O   0  0  0  0  0  0  0  0  0  0  0  0
    6.5934  -11.4896   26.2750 C   0  0  0  0  0  0  0  0  0  0  0  0
    6.8818  -12.8055   26.9726 C   0  0  1  0  0  0  0  0  0  0  0  0
    5.6275  -13.3897   27.1949 O   0  0  0  0  0  0  0  0  0  0  0  0
    7.7137  -13.6430   26.0397 C   0  0  2  0  0  0  0  0  0  0  0  0
    6.9947  -14.1489   24.9161 N   0  0  0  0  0  0  0  0  0  0  0  0
    8.3675  -14.7336   26.8278 C   0  0  0  0  0  0  0  0  0  0  0  0
    9.1761  -14.3602   27.8743 O   0  0  0  0  0  0  0  0  0  0  0  0
    8.2029  -15.9383   26.5677 O   0  0  0  0  0  0  0  0  0  0  0  0
  2  1  1  6
  2  3  1  0
  4  5  2  0
  4  2  1  0
  6  4  1  0
  7  8  1  0
  7  6  1  0
  8  9  2  0
 11 10  1  6
 11 13  1  0
 12 11  1  0
 13 15  1  0
 13 14  1  6
 14  8  1  0
 15 17  2  0
 15 16  1  0
M  END
$$$$
