AGT.pdb
     RDKit          3D

 17 16  0  0  1  0  0  0  0  0999 V2000
    8.3142  -18.1535   19.1019 C   0  0  0  0  0  0  0  0  0  0  0  0
    9.1238  -17.0448   19.7603 C   0  0  2  0  0  0  0  0  0  0  0  0
   10.1586  -17.6198   20.5965 N   0  0  0  0  0  0  0  0  0  0  0  0
    8.2086  -16.2506   20.5904 C   0  0  0  0  0  0  0  0  0  0  0  0
    7.2512  -15.6204   20.0464 O   0  0  0  0  0  0  0  0  0  0  0  0
    8.3200  -16.1328   22.0002 N   0  0  0  0  0  0  0  0  0  0  0  0
    7.3168  -15.4694   22.7740 C   0  0  0  0  0  0  0  0  0  0  0  0
    7.9097  -14.7000   23.9021 C   0  0  0  0  0  0  0  0  0  0  0  0
    9.1529  -14.6839   24.0006 O   0  0  0  0  0  0  0  0  0  0  0  0
    6.2740  -11.2635   25.8986 C   0  0  0  0  0  0  0  0  0  0  0  0
    6.6229  -12.4883   26.7231 C   0  0  1  0  0  0  0  0  0  0  0  0
    5.4251  -13.2051   26.8470 O   0  0  0  0  0  0  0  0  0  0  0  0
    7.6507  -13.2757   25.9567 C   0  0  2  0  0  0  0  0  0  0  0  0
    7.1194  -13.9996   24.8480 N   0  0  0  0  0  0  0  0  0  0  0  0
    8.3837  -14.1647   26.9109 C   0  0  0  0  0  0  0  0  0  0  0  0
    9.0612  -13.5620   27.9434 O   0  0  0  0  0  0  0  0  0  0  0  0
    8.3959  -15.4029   26.7974 O   0  0  0  0  0  0  0  0  0  0  0  0
  2  1  1  1
  2  3  1  0
  4  5  2  0
  4  2  1  0
  6  4  1  0
  7  8  1  0
  7  6  1  0
  8  9  2  0
 11 10  1  6
 11 13  1  0
 12 11  1  0
 13 15  1  0
 13 14  1  6
 14  8  1  0
 15 17  2  0
 15 16  1  0
M  END
$$$$
