AGT.pdb
     RDKit          3D

 17 16  0  0  1  0  0  0  0  0999 V2000
    7.8005  -19.3400   19.6058 C   0  0  0  0  0  0  0  0  0  0  0  0
    8.6955  -18.1579   19.9521 C   0  0  2  0  0  0  0  0  0  0  0  0
    9.7218  -18.5738   20.8871 N   0  0  0  0  0  0  0  0  0  0  0  0
    7.8568  -17.1246   20.5735 C   0  0  0  0  0  0  0  0  0  0  0  0
    6.9584  -16.5466   19.8889 O   0  0  0  0  0  0  0  0  0  0  0  0
    7.9813  -16.7123   21.9256 N   0  0  0  0  0  0  0  0  0  0  0  0
    7.0479  -15.8041   22.5167 C   0  0  0  0  0  0  0  0  0  0  0  0
    7.6653  -15.0197   23.6210 C   0  0  0  0  0  0  0  0  0  0  0  0
    8.9101  -15.0115   23.6984 O   0  0  0  0  0  0  0  0  0  0  0  0
    7.1443  -11.6894   27.2082 C   0  0  0  0  0  0  0  0  0  0  0  0
    6.4294  -12.7996   26.4612 C   0  0  1  0  0  0  0  0  0  0  0  0
    5.4823  -12.1538   25.6551 O   0  0  0  0  0  0  0  0  0  0  0  0
    7.4531  -13.5197   25.6264 C   0  0  2  0  0  0  0  0  0  0  0  0
    6.8963  -14.2969   24.5675 N   0  0  0  0  0  0  0  0  0  0  0  0
    8.3200  -14.3380   26.5303 C   0  0  0  0  0  0  0  0  0  0  0  0
    9.3173  -13.6838   27.2127 O   0  0  0  0  0  0  0  0  0  0  0  0
    8.1659  -15.5631   26.6768 O   0  0  0  0  0  0  0  0  0  0  0  0
  2  1  1  1
  2  3  1  0
  4  5  2  0
  4  2  1  0
  6  4  1  0
  7  8  1  0
  7  6  1  0
  8  9  2  0
 11 10  1  6
 11 13  1  0
 12 11  1  0
 13 15  1  0
 13 14  1  6
 14  8  1  0
 15 17  2  0
 15 16  1  0
M  END
$$$$
