AGT.pdb
     RDKit          3D

 17 16  0  0  1  0  0  0  0  0999 V2000
    8.9563  -17.7632   19.3349 C   0  0  0  0  0  0  0  0  0  0  0  0
    8.9904  -17.6883   20.8553 C   0  0  2  0  0  0  0  0  0  0  0  0
    8.0061  -18.5926   21.4157 N   0  0  0  0  0  0  0  0  0  0  0  0
    8.6672  -16.3098   21.2459 C   0  0  0  0  0  0  0  0  0  0  0  0
    9.5091  -15.3831   21.0405 O   0  0  0  0  0  0  0  0  0  0  0  0
    7.4444  -15.9263   21.8553 N   0  0  0  0  0  0  0  0  0  0  0  0
    7.1627  -14.5588   22.1646 C   0  0  0  0  0  0  0  0  0  0  0  0
    7.8335  -14.1282   23.4218 C   0  0  0  0  0  0  0  0  0  0  0  0
    9.0523  -13.8691   23.3672 O   0  0  0  0  0  0  0  0  0  0  0  0
    6.4261  -11.3396   25.8710 C   0  0  0  0  0  0  0  0  0  0  0  0
    6.7147  -12.6171   26.6368 C   0  0  1  0  0  0  0  0  0  0  0  0
    5.4822  -13.2768   26.7348 O   0  0  0  0  0  0  0  0  0  0  0  0
    7.6982  -13.4199   25.8294 C   0  0  2  0  0  0  0  0  0  0  0  0
    7.1424  -14.0064   24.6536 N   0  0  0  0  0  0  0  0  0  0  0  0
    8.3325  -14.4394   26.7217 C   0  0  0  0  0  0  0  0  0  0  0  0
    8.9981  -13.9807   27.8330 O   0  0  0  0  0  0  0  0  0  0  0  0
    8.2750  -15.6598   26.4904 O   0  0  0  0  0  0  0  0  0  0  0  0
  2  1  1  6
  2  3  1  0
  4  5  2  0
  4  2  1  0
  6  4  1  0
  7  8  1  0
  7  6  1  0
  8  9  2  0
 11 10  1  6
 11 13  1  0
 12 11  1  0
 13 15  1  0
 13 14  1  6
 14  8  1  0
 15 17  2  0
 15 16  1  0
M  END
$$$$
