AGT.pdb
     RDKit          3D

 17 16  0  0  1  0  0  0  0  0999 V2000
    9.0502  -16.8201   14.8430 C   0  0  0  0  0  0  0  0  0  0  0  0
    8.6931  -16.7512   16.3215 C   0  0  2  0  0  0  0  0  0  0  0  0
    7.2847  -17.0416   16.5026 N   0  0  0  0  0  0  0  0  0  0  0  0
    8.9761  -15.3883   16.7904 C   0  0  0  0  0  0  0  0  0  0  0  0
   10.1771  -14.9878   16.8744 O   0  0  0  0  0  0  0  0  0  0  0  0
    7.9738  -14.4576   17.1681 N   0  0  0  0  0  0  0  0  0  0  0  0
    8.3071  -13.1278   17.5755 C   0  0  0  0  0  0  0  0  0  0  0  0
    8.8146  -13.0905   18.9744 C   0  0  0  0  0  0  0  0  0  0  0  0
    9.1636  -11.9846   19.4335 O   0  0  0  0  0  0  0  0  0  0  0  0
    6.9614  -13.8498   21.5389 C   0  0  0  0  0  0  0  0  0  0  0  0
    8.2212  -14.4490   22.1353 C   0  0  1  0  0  0  0  0  0  0  0  0
    7.9389  -15.8110   22.3058 O   0  0  0  0  0  0  0  0  0  0  0  0
    9.3356  -14.2446   21.1455 C   0  0  2  0  0  0  0  0  0  0  0  0
    8.9109  -14.2507   19.7835 N   0  0  0  0  0  0  0  0  0  0  0  0
   10.4024  -15.2602   21.4075 C   0  0  0  0  0  0  0  0  0  0  0  0
   10.6430  -16.1922   20.4267 O   0  0  0  0  0  0  0  0  0  0  0  0
   11.0605  -15.2828   22.4623 O   0  0  0  0  0  0  0  0  0  0  0  0
  2  1  1  6
  2  3  1  0
  4  5  2  0
  4  2  1  0
  6  4  1  0
  7  8  1  0
  7  6  1  0
  8  9  2  0
 11 10  1  6
 11 13  1  0
 12 11  1  0
 13 15  1  0
 13 14  1  6
 14  8  1  0
 15 17  2  0
 15 16  1  0
M  END
$$$$
