AGT.pdb
     RDKit          3D

 17 16  0  0  1  0  0  0  0  0999 V2000
    6.7340  -18.6038   20.0614 C   0  0  0  0  0  0  0  0  0  0  0  0
    7.3931  -18.2566   21.3893 C   0  0  2  0  0  0  0  0  0  0  0  0
    6.4818  -18.5380   22.4807 N   0  0  0  0  0  0  0  0  0  0  0  0
    7.7100  -16.8224   21.3737 C   0  0  0  0  0  0  0  0  0  0  0  0
    8.6274  -16.3883   20.6124 O   0  0  0  0  0  0  0  0  0  0  0  0
    7.0446  -15.8565   22.1724 N   0  0  0  0  0  0  0  0  0  0  0  0
    7.4116  -14.4749   22.1312 C   0  0  0  0  0  0  0  0  0  0  0  0
    8.0482  -14.0352   23.4030 C   0  0  0  0  0  0  0  0  0  0  0  0
    9.2187  -13.6084   23.3462 O   0  0  0  0  0  0  0  0  0  0  0  0
    6.6457  -11.5470   26.0728 C   0  0  0  0  0  0  0  0  0  0  0  0
    6.9477  -12.8727   26.7458 C   0  0  1  0  0  0  0  0  0  0  0  0
    5.7199  -13.5455   26.8068 O   0  0  0  0  0  0  0  0  0  0  0  0
    7.9296  -13.6112   25.8775 C   0  0  2  0  0  0  0  0  0  0  0  0
    7.3773  -14.0863   24.6508 N   0  0  0  0  0  0  0  0  0  0  0  0
    8.5475  -14.7118   26.6807 C   0  0  0  0  0  0  0  0  0  0  0  0
    9.1693  -14.3645   27.8560 O   0  0  0  0  0  0  0  0  0  0  0  0
    8.5143  -15.9019   26.3223 O   0  0  0  0  0  0  0  0  0  0  0  0
  2  1  1  6
  2  3  1  0
  4  5  2  0
  4  2  1  0
  6  4  1  0
  7  8  1  0
  7  6  1  0
  8  9  2  0
 11 10  1  6
 11 13  1  0
 12 11  1  0
 13 15  1  0
 13 14  1  6
 14  8  1  0
 15 17  2  0
 15 16  1  0
M  END
$$$$
