AGT.pdb
     RDKit          3D

 17 16  0  0  1  0  0  0  0  0999 V2000
    7.3075  -20.0337   15.1341 C   0  0  0  0  0  0  0  0  0  0  0  0
    8.0956  -18.8081   15.5758 C   0  0  2  0  0  0  0  0  0  0  0  0
    9.4464  -19.1931   15.9334 N   0  0  0  0  0  0  0  0  0  0  0  0
    7.4219  -18.2382   16.7500 C   0  0  0  0  0  0  0  0  0  0  0  0
    6.2781  -17.7042   16.6224 O   0  0  0  0  0  0  0  0  0  0  0  0
    7.9736  -18.2411   18.0574 N   0  0  0  0  0  0  0  0  0  0  0  0
    7.3151  -17.5869   19.1454 C   0  0  0  0  0  0  0  0  0  0  0  0
    8.2743  -16.8301   19.9958 C   0  0  0  0  0  0  0  0  0  0  0  0
    9.4798  -16.8638   19.6779 O   0  0  0  0  0  0  0  0  0  0  0  0
    7.4549  -13.1813   21.4731 C   0  0  0  0  0  0  0  0  0  0  0  0
    8.0109  -14.0875   22.5554 C   0  0  1  0  0  0  0  0  0  0  0  0
    6.8930  -14.5448   23.2661 O   0  0  0  0  0  0  0  0  0  0  0  0
    8.7250  -15.2239   21.8756 C   0  0  2  0  0  0  0  0  0  0  0  0
    7.8664  -16.0877   21.1326 N   0  0  0  0  0  0  0  0  0  0  0  0
    9.5252  -15.9677   22.8976 C   0  0  0  0  0  0  0  0  0  0  0  0
   10.5380  -15.2850   23.5273 O   0  0  0  0  0  0  0  0  0  0  0  0
    9.3039  -17.1570   23.1851 O   0  0  0  0  0  0  0  0  0  0  0  0
  2  1  1  1
  2  3  1  0
  4  5  2  0
  4  2  1  0
  6  4  1  0
  7  8  1  0
  7  6  1  0
  8  9  2  0
 11 10  1  6
 11 13  1  0
 12 11  1  0
 13 15  1  0
 13 14  1  1
 14  8  1  0
 15 17  2  0
 15 16  1  0
M  END
$$$$
