AGT.pdb
     RDKit          3D

 17 16  0  0  1  0  0  0  0  0999 V2000
    8.1050  -11.8268   19.5799 C   0  0  0  0  0  0  0  0  0  0  0  0
    8.3940  -13.1007   18.7976 C   0  0  2  0  0  0  0  0  0  0  0  0
    7.4587  -14.1388   19.1827 N   0  0  0  0  0  0  0  0  0  0  0  0
    9.7611  -13.5286   19.1224 C   0  0  0  0  0  0  0  0  0  0  0  0
   10.7459  -12.8087   18.7737 O   0  0  0  0  0  0  0  0  0  0  0  0
   10.0709  -14.7253   19.8192 N   0  0  0  0  0  0  0  0  0  0  0  0
   11.4187  -15.0623   20.1586 C   0  0  0  0  0  0  0  0  0  0  0  0
   11.5265  -15.5650   21.5556 C   0  0  0  0  0  0  0  0  0  0  0  0
   11.0108  -14.8769   22.4590 O   0  0  0  0  0  0  0  0  0  0  0  0
   11.0025  -19.3660   22.6305 C   0  0  0  0  0  0  0  0  0  0  0  0
   12.2973  -18.8383   23.2192 C   0  0  1  0  0  0  0  0  0  0  0  0
   13.3093  -19.3133   22.3741 O   0  0  0  0  0  0  0  0  0  0  0  0
   12.2297  -17.3355   23.1949 C   0  0  2  0  0  0  0  0  0  0  0  0
   12.1842  -16.7775   21.8827 N   0  0  0  0  0  0  0  0  0  0  0  0
   13.3672  -16.7909   23.9997 C   0  0  0  0  0  0  0  0  0  0  0  0
   13.4011  -17.1019   25.3377 O   0  0  0  0  0  0  0  0  0  0  0  0
   14.2599  -16.0823   23.5026 O   0  0  0  0  0  0  0  0  0  0  0  0
  2  1  1  1
  2  3  1  0
  4  5  2  0
  4  2  1  0
  6  4  1  0
  7  8  1  0
  7  6  1  0
  8  9  2  0
 11 10  1  6
 11 13  1  0
 12 11  1  0
 13 15  1  0
 13 14  1  6
 14  8  1  0
 15 17  2  0
 15 16  1  0
M  END
$$$$
