AGT.pdb
     RDKit          3D

 17 16  0  0  1  0  0  0  0  0999 V2000
    7.2083  -18.8870   20.7749 C   0  0  0  0  0  0  0  0  0  0  0  0
    7.5155  -17.7904   21.7855 C   0  0  2  0  0  0  0  0  0  0  0  0
    6.8840  -18.0973   23.0535 N   0  0  0  0  0  0  0  0  0  0  0  0
    6.9736  -16.5298   21.2612 C   0  0  0  0  0  0  0  0  0  0  0  0
    6.7030  -16.4259   20.0261 O   0  0  0  0  0  0  0  0  0  0  0  0
    6.7228  -15.3838   22.0597 N   0  0  0  0  0  0  0  0  0  0  0  0
    7.4089  -14.1504   21.8292 C   0  0  0  0  0  0  0  0  0  0  0  0
    7.7980  -13.4890   23.1048 C   0  0  0  0  0  0  0  0  0  0  0  0
    8.4832  -12.4495   23.0314 O   0  0  0  0  0  0  0  0  0  0  0  0
    6.2713  -11.6023   25.9993 C   0  0  0  0  0  0  0  0  0  0  0  0
    6.7026  -12.9712   26.4911 C   0  0  1  0  0  0  0  0  0  0  0  0
    5.5776  -13.7922   26.3357 O   0  0  0  0  0  0  0  0  0  0  0  0
    7.8371  -13.4326   25.6172 C   0  0  2  0  0  0  0  0  0  0  0  0
    7.4207  -13.9953   24.3741 N   0  0  0  0  0  0  0  0  0  0  0  0
    8.6955  -14.3734   26.4021 C   0  0  0  0  0  0  0  0  0  0  0  0
    9.2655  -13.8950   27.5574 O   0  0  0  0  0  0  0  0  0  0  0  0
    8.9017  -15.5467   26.0460 O   0  0  0  0  0  0  0  0  0  0  0  0
  2  1  1  6
  2  3  1  0
  4  5  2  0
  4  2  1  0
  6  4  1  0
  7  8  1  0
  7  6  1  0
  8  9  2  0
 11 10  1  6
 11 13  1  0
 12 11  1  0
 13 15  1  0
 13 14  1  6
 14  8  1  0
 15 17  2  0
 15 16  1  0
M  END
$$$$
