IVD.pdb
     RDKit          3D

 24 23  0  0  1  0  0  0  0  0999 V2000
   16.2076  -11.0803  -20.2667 C   0  0  0  0  0  0  0  0  0  0  0  0
   17.4507  -11.7552  -19.7541 C   0  0  0  0  0  0  0  0  0  0  0  0
   17.9271  -11.1709  -18.4536 C   0  0  2  0  0  0  0  0  0  0  0  0
   18.0416   -9.6763  -18.5507 C   0  0  0  0  0  0  0  0  0  0  0  0
   19.1568  -11.8178  -17.8972 C   0  0  2  0  0  0  0  0  0  0  0  0
   18.8814  -13.2366  -17.7757 N   0  0  0  0  0  0  0  0  0  0  0  0
   19.6135  -11.2229  -16.6300 C   0  0  0  0  0  0  0  0  0  0  0  0
   18.8950  -11.2818  -15.6190 O   0  0  0  0  0  0  0  0  0  0  0  0
   23.7222  -10.4042  -15.7511 C   0  0  0  0  0  0  0  0  0  0  0  0
   22.6106  -10.3304  -14.7144 C   0  0  1  0  0  0  0  0  0  0  0  0
   23.0093   -9.5527  -13.4989 C   0  0  0  0  0  0  0  0  0  0  0  0
   21.3029   -9.9399  -15.2982 C   0  0  2  0  0  0  0  0  0  0  0  0
   20.8508  -10.5641  -16.4611 N   0  0  0  0  0  0  0  0  0  0  0  0
   21.3369   -8.4617  -15.5327 C   0  0  0  0  0  0  0  0  0  0  0  0
   21.8361   -7.9764  -16.6048 O   0  0  0  0  0  0  0  0  0  0  0  0
   20.8283   -7.5229  -14.6006 N   0  0  0  0  0  0  0  0  0  0  0  0
   20.9899   -6.0818  -14.8471 C   0  0  1  0  0  0  0  0  0  0  0  0
   19.6300   -5.4481  -15.0788 C   0  0  0  0  0  0  0  0  0  0  0  0
   19.7988   -4.0092  -15.3546 C   0  0  0  0  0  0  0  0  0  0  0  0
   20.8988   -3.5949  -15.7849 O   0  0  0  0  0  0  0  0  0  0  0  0
   21.7079   -5.5131  -13.6931 C   0  0  0  0  0  0  0  0  0  0  0  0
   22.2262   -4.2313  -13.7804 O   0  0  0  0  0  0  0  0  0  0  0  0
   18.7855   -3.0888  -15.1567 O   0  0  0  0  0  0  0  0  0  0  0  0
   21.8866   -6.1250  -12.6098 O   0  0  0  0  0  0  0  0  0  0  0  0
  2  1  1  0
  3  5  1  0
  3  2  1  0
  3  4  1  6
  5  7  1  0
  5  6  1  1
  7  8  2  0
 10 12  1  0
 10  9  1  6
 11 10  1  0
 12 14  1  0
 13  7  1  0
 12 13  1  6
 14 15  2  0
 16 17  1  0
 16 14  1  0
 17 21  1  0
 17 18  1  1
 19 23  1  0
 19 18  1  0
 20 19  2  0
 21 24  2  0
 21 22  1  0
M  END
$$$$
