IVD.pdb
     RDKit          3D

 24 23  0  0  1  0  0  0  0  0999 V2000
   27.9928  -15.9874  -16.1236 C   0  0  0  0  0  0  0  0  0  0  0  0
   27.4212  -16.9280  -17.1495 C   0  0  0  0  0  0  0  0  0  0  0  0
   26.5859  -18.0140  -16.5312 C   0  0  2  0  0  0  0  0  0  0  0  0
   25.2559  -17.4759  -16.0861 C   0  0  0  0  0  0  0  0  0  0  0  0
   27.2839  -18.8033  -15.4682 C   0  0  2  0  0  0  0  0  0  0  0  0
   28.4113  -19.4680  -16.0937 N   0  0  0  0  0  0  0  0  0  0  0  0
   26.4013  -19.7428  -14.7566 C   0  0  0  0  0  0  0  0  0  0  0  0
   25.9325  -20.7283  -15.3488 O   0  0  0  0  0  0  0  0  0  0  0  0
   24.4502  -21.5766  -10.5504 C   0  0  0  0  0  0  0  0  0  0  0  0
   25.4616  -20.6502  -11.2096 C   0  0  1  0  0  0  0  0  0  0  0  0
   26.8715  -20.9675  -10.8188 C   0  0  0  0  0  0  0  0  0  0  0  0
   25.2421  -20.5031  -12.6703 C   0  0  2  0  0  0  0  0  0  0  0  0
   26.0277  -19.6116  -13.4012 N   0  0  0  0  0  0  0  0  0  0  0  0
   23.8021  -20.1499  -12.8769 C   0  0  0  0  0  0  0  0  0  0  0  0
   23.3488  -19.0055  -12.5320 O   0  0  0  0  0  0  0  0  0  0  0  0
   22.8663  -21.0428  -13.4565 N   0  0  0  0  0  0  0  0  0  0  0  0
   21.4764  -20.6122  -13.6718 C   0  0  1  0  0  0  0  0  0  0  0  0
   21.0371  -20.9889  -15.0753 C   0  0  0  0  0  0  0  0  0  0  0  0
   21.7812  -20.1785  -16.0574 C   0  0  0  0  0  0  0  0  0  0  0  0
   21.8479  -18.9384  -15.9005 O   0  0  0  0  0  0  0  0  0  0  0  0
   20.6530  -21.2312  -12.6185 C   0  0  0  0  0  0  0  0  0  0  0  0
   19.5117  -20.5806  -12.1787 O   0  0  0  0  0  0  0  0  0  0  0  0
   22.4145  -20.7337  -17.1546 O   0  0  0  0  0  0  0  0  0  0  0  0
   20.9210  -22.3344  -12.0790 O   0  0  0  0  0  0  0  0  0  0  0  0
  2  1  1  0
  3  5  1  0
  3  2  1  0
  3  4  1  1
  5  7  1  0
  5  6  1  6
  7  8  2  0
 10 12  1  0
 10  9  1  6
 11 10  1  0
 12 14  1  0
 13  7  1  0
 12 13  1  1
 14 15  2  0
 16 17  1  0
 16 14  1  0
 17 21  1  0
 17 18  1  6
 19 23  1  0
 19 18  1  0
 20 19  2  0
 21 24  2  0
 21 22  1  0
M  END
$$$$
