IVD.pdb
     RDKit          3D

 24 23  0  0  1  0  0  0  0  0999 V2000
   17.0967  -13.6175  -13.8653 C   0  0  0  0  0  0  0  0  0  0  0  0
   16.5808  -13.2380  -12.5038 C   0  0  0  0  0  0  0  0  0  0  0  0
   16.1108  -11.8114  -12.4447 C   0  0  2  0  0  0  0  0  0  0  0  0
   17.2011  -10.8723  -12.8755 C   0  0  0  0  0  0  0  0  0  0  0  0
   15.4803  -11.4202  -11.1448 C   0  0  2  0  0  0  0  0  0  0  0  0
   14.4363  -12.3867  -10.8627 N   0  0  0  0  0  0  0  0  0  0  0  0
   14.9839  -10.0341  -11.1244 C   0  0  0  0  0  0  0  0  0  0  0  0
   14.1421   -9.6609  -11.9574 O   0  0  0  0  0  0  0  0  0  0  0  0
   15.8340   -7.3846   -7.8138 C   0  0  0  0  0  0  0  0  0  0  0  0
   14.7166   -7.1043   -8.8080 C   0  0  1  0  0  0  0  0  0  0  0  0
   14.3472   -5.6545   -8.8635 C   0  0  0  0  0  0  0  0  0  0  0  0
   14.9508   -7.7347  -10.1312 C   0  0  2  0  0  0  0  0  0  0  0  0
   15.4019   -9.0531  -10.1988 N   0  0  0  0  0  0  0  0  0  0  0  0
   15.9087   -6.8638  -10.8829 C   0  0  0  0  0  0  0  0  0  0  0  0
   17.1709   -6.9748  -10.7143 O   0  0  0  0  0  0  0  0  0  0  0  0
   15.4874   -5.8794  -11.8115 N   0  0  0  0  0  0  0  0  0  0  0  0
   16.4860   -5.0864  -12.5448 C   0  0  1  0  0  0  0  0  0  0  0  0
   16.4735   -5.4799  -14.0109 C   0  0  0  0  0  0  0  0  0  0  0  0
   17.4098   -4.6201  -14.7585 C   0  0  0  0  0  0  0  0  0  0  0  0
   16.9542   -3.7727  -15.5592 O   0  0  0  0  0  0  0  0  0  0  0  0
   16.1726   -3.6642  -12.3214 C   0  0  0  0  0  0  0  0  0  0  0  0
   14.8488   -3.2687  -12.2185 O   0  0  0  0  0  0  0  0  0  0  0  0
   18.7824   -4.7098  -14.6124 O   0  0  0  0  0  0  0  0  0  0  0  0
   17.0436   -2.7643  -12.2153 O   0  0  0  0  0  0  0  0  0  0  0  0
  2  1  1  0
  3  5  1  0
  3  2  1  0
  3  4  1  1
  5  7  1  0
  5  6  1  6
  7  8  2  0
 10 12  1  0
 10  9  1  1
 11 10  1  0
 12 14  1  0
 13  7  1  0
 12 13  1  1
 14 15  2  0
 16 17  1  0
 16 14  1  0
 17 21  1  0
 17 18  1  6
 19 23  1  0
 19 18  1  0
 20 19  2  0
 21 24  2  0
 21 22  1  0
M  END
$$$$
