IVD.pdb
     RDKit          3D

 24 23  0  0  1  0  0  0  0  0999 V2000
   24.1375  -18.5359  -20.8437 C   0  0  0  0  0  0  0  0  0  0  0  0
   25.5520  -18.9817  -20.5904 C   0  0  0  0  0  0  0  0  0  0  0  0
   25.6685  -19.8626  -19.3779 C   0  0  2  0  0  0  0  0  0  0  0  0
   24.7301  -21.0314  -19.4757 C   0  0  0  0  0  0  0  0  0  0  0  0
   25.5665  -19.1370  -18.0728 C   0  0  2  0  0  0  0  0  0  0  0  0
   26.5242  -18.0482  -18.1077 N   0  0  0  0  0  0  0  0  0  0  0  0
   25.7472  -20.0075  -16.8990 C   0  0  0  0  0  0  0  0  0  0  0  0
   25.1534  -21.0960  -16.8327 O   0  0  0  0  0  0  0  0  0  0  0  0
   28.2248  -18.8512  -13.4226 C   0  0  0  0  0  0  0  0  0  0  0  0
   27.9014  -20.2951  -13.7777 C   0  0  1  0  0  0  0  0  0  0  0  0
   27.9432  -21.2026  -12.5877 C   0  0  0  0  0  0  0  0  0  0  0  0
   26.6807  -20.4240  -14.6122 C   0  0  2  0  0  0  0  0  0  0  0  0
   26.5731  -19.6955  -15.7971 N   0  0  0  0  0  0  0  0  0  0  0  0
   25.5046  -20.0998  -13.7446 C   0  0  0  0  0  0  0  0  0  0  0  0
   25.0234  -18.9163  -13.7030 O   0  0  0  0  0  0  0  0  0  0  0  0
   24.8610  -21.0641  -12.9292 N   0  0  0  0  0  0  0  0  0  0  0  0
   23.7573  -20.6592  -12.0451 C   0  0  1  0  0  0  0  0  0  0  0  0
   22.4616  -21.2872  -12.5260 C   0  0  0  0  0  0  0  0  0  0  0  0
   21.3854  -20.2793  -12.4941 C   0  0  0  0  0  0  0  0  0  0  0  0
   21.3666  -19.4351  -11.5701 O   0  0  0  0  0  0  0  0  0  0  0  0
   24.1214  -21.0546  -10.6732 C   0  0  0  0  0  0  0  0  0  0  0  0
   23.5882  -20.3570   -9.6016 O   0  0  0  0  0  0  0  0  0  0  0  0
   20.3866  -20.2254  -13.4494 O   0  0  0  0  0  0  0  0  0  0  0  0
   24.9004  -22.0029  -10.4021 O   0  0  0  0  0  0  0  0  0  0  0  0
  2  1  1  0
  3  5  1  0
  3  2  1  0
  3  4  1  6
  5  7  1  0
  5  6  1  6
  7  8  2  0
 10 12  1  0
 10  9  1  1
 11 10  1  0
 12 14  1  0
 13  7  1  0
 12 13  1  6
 14 15  2  0
 16 17  1  0
 16 14  1  0
 17 21  1  0
 17 18  1  6
 19 23  1  0
 19 18  1  0
 20 19  2  0
 21 24  2  0
 21 22  1  0
M  END
$$$$
