IVD.pdb
     RDKit          3D

 24 23  0  0  1  0  0  0  0  0999 V2000
   17.6826  -11.9044  -14.7596 C   0  0  0  0  0  0  0  0  0  0  0  0
   17.2955  -11.8653  -13.3061 C   0  0  0  0  0  0  0  0  0  0  0  0
   16.6123  -10.5809  -12.9278 C   0  0  2  0  0  0  0  0  0  0  0  0
   17.4683   -9.3977  -13.2797 C   0  0  0  0  0  0  0  0  0  0  0  0
   16.1061  -10.5397  -11.5199 C   0  0  2  0  0  0  0  0  0  0  0  0
   15.3307  -11.7463  -11.3040 N   0  0  0  0  0  0  0  0  0  0  0  0
   15.3467   -9.3188  -11.2023 C   0  0  0  0  0  0  0  0  0  0  0  0
   14.3511   -9.0105  -11.8772 O   0  0  0  0  0  0  0  0  0  0  0  0
   15.4830   -7.4824   -7.3792 C   0  0  0  0  0  0  0  0  0  0  0  0
   14.4823   -7.0605   -8.4451 C   0  0  1  0  0  0  0  0  0  0  0  0
   13.8985   -5.7073   -8.1817 C   0  0  0  0  0  0  0  0  0  0  0  0
   14.9929   -7.2567   -9.8250 C   0  0  2  0  0  0  0  0  0  0  0  0
   15.6690   -8.4326  -10.1513 N   0  0  0  0  0  0  0  0  0  0  0  0
   15.8768   -6.0927  -10.1489 C   0  0  0  0  0  0  0  0  0  0  0  0
   17.1498   -6.1991  -10.1003 O   0  0  0  0  0  0  0  0  0  0  0  0
   15.3706   -4.8228  -10.5228 N   0  0  0  0  0  0  0  0  0  0  0  0
   16.2516   -3.8457  -11.1806 C   0  0  1  0  0  0  0  0  0  0  0  0
   16.9137   -4.4866  -12.3870 C   0  0  0  0  0  0  0  0  0  0  0  0
   17.6977   -3.4712  -13.1146 C   0  0  0  0  0  0  0  0  0  0  0  0
   17.7201   -2.2951  -12.6869 O   0  0  0  0  0  0  0  0  0  0  0  0
   15.4315   -2.6704  -11.5229 C   0  0  0  0  0  0  0  0  0  0  0  0
   15.9805   -1.4034  -11.4103 O   0  0  0  0  0  0  0  0  0  0  0  0
   18.4162   -3.7644  -14.2596 O   0  0  0  0  0  0  0  0  0  0  0  0
   14.2408   -2.7399  -11.9191 O   0  0  0  0  0  0  0  0  0  0  0  0
  2  1  1  0
  3  5  1  0
  3  2  1  0
  3  4  1  1
  5  7  1  0
  5  6  1  6
  7  8  2  0
 10 12  1  0
 10  9  1  1
 11 10  1  0
 12 14  1  0
 13  7  1  0
 12 13  1  1
 14 15  2  0
 16 17  1  0
 16 14  1  0
 17 21  1  0
 17 18  1  6
 19 23  1  0
 19 18  1  0
 20 19  2  0
 21 24  2  0
 21 22  1  0
M  END
$$$$
