IVD.pdb
     RDKit          3D

 24 23  0  0  1  0  0  0  0  0999 V2000
   23.5766  -19.2724  -18.3242 C   0  0  0  0  0  0  0  0  0  0  0  0
   25.0018  -19.4092  -17.8615 C   0  0  0  0  0  0  0  0  0  0  0  0
   25.1079  -20.0677  -16.5144 C   0  0  2  0  0  0  0  0  0  0  0  0
   24.1302  -19.4636  -15.5470 C   0  0  0  0  0  0  0  0  0  0  0  0
   26.5000  -20.1437  -15.9698 C   0  0  2  0  0  0  0  0  0  0  0  0
   27.3057  -20.8582  -16.9414 N   0  0  0  0  0  0  0  0  0  0  0  0
   26.5754  -20.7430  -14.6270 C   0  0  0  0  0  0  0  0  0  0  0  0
   26.0398  -21.8407  -14.4031 O   0  0  0  0  0  0  0  0  0  0  0  0
   28.3630  -20.9369   -9.9796 C   0  0  0  0  0  0  0  0  0  0  0  0
   28.4895  -20.3775  -11.3891 C   0  0  1  0  0  0  0  0  0  0  0  0
   29.8007  -20.7174  -12.0266 C   0  0  0  0  0  0  0  0  0  0  0  0
   27.2999  -20.6607  -12.2306 C   0  0  2  0  0  0  0  0  0  0  0  0
   27.2327  -20.1498  -13.5271 N   0  0  0  0  0  0  0  0  0  0  0  0
   26.0924  -20.2018  -11.4740 C   0  0  0  0  0  0  0  0  0  0  0  0
   25.7737  -18.9647  -11.4300 O   0  0  0  0  0  0  0  0  0  0  0  0
   25.2410  -21.0908  -10.7713 N   0  0  0  0  0  0  0  0  0  0  0  0
   24.0543  -20.5733  -10.0731 C   0  0  1  0  0  0  0  0  0  0  0  0
   22.8066  -21.2384  -10.6259 C   0  0  0  0  0  0  0  0  0  0  0  0
   21.6364  -20.8285   -9.8274 C   0  0  0  0  0  0  0  0  0  0  0  0
   21.4604  -19.6140   -9.5810 O   0  0  0  0  0  0  0  0  0  0  0  0
   24.2502  -20.8101   -8.6322 C   0  0  0  0  0  0  0  0  0  0  0  0
   23.4269  -20.1692   -7.7207 O   0  0  0  0  0  0  0  0  0  0  0  0
   20.7162  -21.7358   -9.3342 O   0  0  0  0  0  0  0  0  0  0  0  0
   25.1332  -21.5712   -8.1621 O   0  0  0  0  0  0  0  0  0  0  0  0
  2  1  1  0
  3  5  1  0
  3  2  1  0
  3  4  1  1
  5  7  1  0
  5  6  1  6
  7  8  2  0
 10 12  1  0
 10  9  1  1
 11 10  1  0
 12 14  1  0
 13  7  1  0
 12 13  1  6
 14 15  2  0
 16 17  1  0
 16 14  1  0
 17 21  1  0
 17 18  1  6
 19 23  1  0
 19 18  1  0
 20 19  2  0
 21 24  2  0
 21 22  1  0
M  END
$$$$
