IVD.pdb
     RDKit          3D

 24 23  0  0  1  0  0  0  0  0999 V2000
   20.3767  -16.6614  -16.1622 C   0  0  0  0  0  0  0  0  0  0  0  0
   19.2174  -15.7670  -15.8161 C   0  0  0  0  0  0  0  0  0  0  0  0
   19.4160  -14.3568  -16.2974 C   0  0  2  0  0  0  0  0  0  0  0  0
   20.7349  -13.8133  -15.8266 C   0  0  0  0  0  0  0  0  0  0  0  0
   18.2690  -13.4380  -16.0139 C   0  0  2  0  0  0  0  0  0  0  0  0
   17.0617  -14.1010  -16.4687 N   0  0  0  0  0  0  0  0  0  0  0  0
   18.4293  -12.0970  -16.6006 C   0  0  0  0  0  0  0  0  0  0  0  0
   18.8419  -11.9711  -17.7649 O   0  0  0  0  0  0  0  0  0  0  0  0
   16.4588   -9.5353  -18.2114 C   0  0  0  0  0  0  0  0  0  0  0  0
   17.0154   -8.9167  -16.9374 C   0  0  1  0  0  0  0  0  0  0  0  0
   15.9619   -8.6998  -15.8961 C   0  0  0  0  0  0  0  0  0  0  0  0
   18.2369   -9.6042  -16.4488 C   0  0  2  0  0  0  0  0  0  0  0  0
   18.1413  -10.8926  -15.9223 N   0  0  0  0  0  0  0  0  0  0  0  0
   18.8754   -8.7171  -15.4258 C   0  0  0  0  0  0  0  0  0  0  0  0
   18.8051   -8.9925  -14.1795 O   0  0  0  0  0  0  0  0  0  0  0  0
   19.5849   -7.5380  -15.7652 N   0  0  0  0  0  0  0  0  0  0  0  0
   20.1410   -6.6844  -14.7041 C   0  0  1  0  0  0  0  0  0  0  0  0
   21.6556   -6.7874  -14.7076 C   0  0  0  0  0  0  0  0  0  0  0  0
   22.2127   -5.8722  -13.6942 C   0  0  0  0  0  0  0  0  0  0  0  0
   22.6657   -4.7629  -14.0563 O   0  0  0  0  0  0  0  0  0  0  0  0
   19.6503   -5.3146  -14.9354 C   0  0  0  0  0  0  0  0  0  0  0  0
   18.9793   -5.0234  -16.1120 O   0  0  0  0  0  0  0  0  0  0  0  0
   22.2571   -6.1889  -12.3485 O   0  0  0  0  0  0  0  0  0  0  0  0
   19.8022   -4.3702  -14.1200 O   0  0  0  0  0  0  0  0  0  0  0  0
  2  1  1  0
  3  5  1  0
  3  2  1  0
  3  4  1  1
  5  7  1  0
  5  6  1  6
  7  8  2  0
 10 12  1  0
 10  9  1  6
 11 10  1  0
 12 14  1  0
 13  7  1  0
 12 13  1  1
 14 15  2  0
 16 17  1  0
 16 14  1  0
 17 21  1  0
 17 18  1  6
 19 23  1  0
 19 18  1  0
 20 19  2  0
 21 24  2  0
 21 22  1  0
M  END
$$$$
