IVD.pdb
     RDKit          3D

 24 23  0  0  1  0  0  0  0  0999 V2000
   19.1657  -18.2536  -11.8736 C   0  0  0  0  0  0  0  0  0  0  0  0
   19.3264  -18.4456  -13.3572 C   0  0  0  0  0  0  0  0  0  0  0  0
   19.6705  -17.1667  -14.0681 C   0  0  2  0  0  0  0  0  0  0  0  0
   18.6994  -16.0785  -13.7082 C   0  0  0  0  0  0  0  0  0  0  0  0
   19.8664  -17.3121  -15.5449 C   0  0  2  0  0  0  0  0  0  0  0  0
   20.8777  -18.3318  -15.7482 N   0  0  0  0  0  0  0  0  0  0  0  0
   20.1985  -16.0477  -16.2225 C   0  0  0  0  0  0  0  0  0  0  0  0
   21.3571  -15.6032  -16.1802 O   0  0  0  0  0  0  0  0  0  0  0  0
   20.4214  -15.0462  -19.9109 C   0  0  0  0  0  0  0  0  0  0  0  0
   19.3621  -14.2149  -19.2021 C   0  0  1  0  0  0  0  0  0  0  0  0
   17.9717  -14.5745  -19.6248 C   0  0  0  0  0  0  0  0  0  0  0  0
   19.5661  -14.1523  -17.7331 C   0  0  2  0  0  0  0  0  0  0  0  0
   19.2717  -15.2660  -16.9462 N   0  0  0  0  0  0  0  0  0  0  0  0
   18.7840  -12.9842  -17.2183 C   0  0  0  0  0  0  0  0  0  0  0  0
   17.9167  -13.1300  -16.2907 O   0  0  0  0  0  0  0  0  0  0  0  0
   18.9506  -11.6675  -17.7155 N   0  0  0  0  0  0  0  0  0  0  0  0
   18.1868  -10.5575  -17.1253 C   0  0  1  0  0  0  0  0  0  0  0  0
   18.5261  -10.4318  -15.6510 C   0  0  0  0  0  0  0  0  0  0  0  0
   17.8630   -9.2379  -15.0942 C   0  0  0  0  0  0  0  0  0  0  0  0
   16.6696   -9.0071  -15.3930 O   0  0  0  0  0  0  0  0  0  0  0  0
   18.4997   -9.3439  -17.8999 C   0  0  0  0  0  0  0  0  0  0  0  0
   19.3035   -9.4442  -19.0238 O   0  0  0  0  0  0  0  0  0  0  0  0
   18.5080   -8.3538  -14.2483 O   0  0  0  0  0  0  0  0  0  0  0  0
   18.0777   -8.1974  -17.6044 O   0  0  0  0  0  0  0  0  0  0  0  0
  2  1  1  0
  3  5  1  0
  3  2  1  0
  3  4  1  6
  5  7  1  0
  5  6  1  1
  7  8  2  0
 10 12  1  0
 10  9  1  1
 11 10  1  0
 12 14  1  0
 13  7  1  0
 12 13  1  1
 14 15  2  0
 16 17  1  0
 16 14  1  0
 17 21  1  0
 17 18  1  1
 19 23  1  0
 19 18  1  0
 20 19  2  0
 21 24  2  0
 21 22  1  0
M  END
$$$$
