IVD.pdb
     RDKit          3D

 24 23  0  0  1  0  0  0  0  0999 V2000
   21.5715  -15.9471  -20.7650 C   0  0  0  0  0  0  0  0  0  0  0  0
   22.9133  -15.9457  -20.0842 C   0  0  0  0  0  0  0  0  0  0  0  0
   23.0162  -14.8899  -19.0193 C   0  0  2  0  0  0  0  0  0  0  0  0
   22.5582  -13.5583  -19.5423 C   0  0  0  0  0  0  0  0  0  0  0  0
   24.3471  -14.8251  -18.3375 C   0  0  2  0  0  0  0  0  0  0  0  0
   24.6276  -16.1471  -17.8108 N   0  0  0  0  0  0  0  0  0  0  0  0
   24.4296  -13.7791  -17.3044 C   0  0  0  0  0  0  0  0  0  0  0  0
   23.8764  -13.9435  -16.2050 O   0  0  0  0  0  0  0  0  0  0  0  0
   26.5590   -9.8067  -15.2706 C   0  0  0  0  0  0  0  0  0  0  0  0
   26.6027  -11.0103  -16.2008 C   0  0  1  0  0  0  0  0  0  0  0  0
   27.6064  -12.0338  -15.7693 C   0  0  0  0  0  0  0  0  0  0  0  0
   25.2550  -11.5537  -16.5039 C   0  0  2  0  0  0  0  0  0  0  0  0
   25.1133  -12.5542  -17.4658 N   0  0  0  0  0  0  0  0  0  0  0  0
   24.3781  -10.4009  -16.8820 C   0  0  0  0  0  0  0  0  0  0  0  0
   24.5354   -9.7910  -17.9944 O   0  0  0  0  0  0  0  0  0  0  0  0
   23.3375   -9.9200  -16.0485 N   0  0  0  0  0  0  0  0  0  0  0  0
   22.4455   -8.8534  -16.5287 C   0  0  1  0  0  0  0  0  0  0  0  0
   21.1490   -8.8787  -15.7395 C   0  0  0  0  0  0  0  0  0  0  0  0
   20.2858   -7.7655  -16.1765 C   0  0  0  0  0  0  0  0  0  0  0  0
   20.5774   -7.1405  -17.2210 O   0  0  0  0  0  0  0  0  0  0  0  0
   23.1750   -7.5789  -16.4086 C   0  0  0  0  0  0  0  0  0  0  0  0
   23.8667   -7.2999  -15.2410 O   0  0  0  0  0  0  0  0  0  0  0  0
   19.1577   -7.3782  -15.4761 O   0  0  0  0  0  0  0  0  0  0  0  0
   23.2139   -6.7074  -17.3134 O   0  0  0  0  0  0  0  0  0  0  0  0
  2  1  1  0
  3  5  1  0
  3  2  1  0
  3  4  1  6
  5  7  1  0
  5  6  1  1
  7  8  2  0
 10 12  1  0
 10  9  1  1
 11 10  1  0
 12 14  1  0
 13  7  1  0
 12 13  1  6
 14 15  2  0
 16 17  1  0
 16 14  1  0
 17 21  1  0
 17 18  1  1
 19 23  1  0
 19 18  1  0
 20 19  2  0
 21 24  2  0
 21 22  1  0
M  END
$$$$
