IVD.pdb
     RDKit          3D

 24 23  0  0  1  0  0  0  0  0999 V2000
   15.5107  -10.5200  -19.1474 C   0  0  0  0  0  0  0  0  0  0  0  0
   16.8099  -11.1808  -18.7744 C   0  0  0  0  0  0  0  0  0  0  0  0
   17.4606  -10.5368  -17.5821 C   0  0  2  0  0  0  0  0  0  0  0  0
   17.5891   -9.0534  -17.7811 C   0  0  0  0  0  0  0  0  0  0  0  0
   18.7396  -11.1829  -17.1499 C   0  0  2  0  0  0  0  0  0  0  0  0
   18.4649  -12.5928  -16.9482 N   0  0  0  0  0  0  0  0  0  0  0  0
   19.3470  -10.5532  -15.9655 C   0  0  0  0  0  0  0  0  0  0  0  0
   18.7699  -10.6043  -14.8673 O   0  0  0  0  0  0  0  0  0  0  0  0
   22.5665  -11.1839  -13.9605 C   0  0  0  0  0  0  0  0  0  0  0  0
   22.5622   -9.7497  -14.4692 C   0  0  1  0  0  0  0  0  0  0  0  0
   23.6386   -9.4945  -15.4779 C   0  0  0  0  0  0  0  0  0  0  0  0
   21.2115   -9.2858  -14.8740 C   0  0  2  0  0  0  0  0  0  0  0  0
   20.5815   -9.8679  -15.9742 N   0  0  0  0  0  0  0  0  0  0  0  0
   21.2900   -7.8074  -15.0963 C   0  0  0  0  0  0  0  0  0  0  0  0
   21.6834   -7.3298  -16.2148 O   0  0  0  0  0  0  0  0  0  0  0  0
   20.9404   -6.8601  -14.1017 N   0  0  0  0  0  0  0  0  0  0  0  0
   21.0596   -5.4214  -14.3836 C   0  0  1  0  0  0  0  0  0  0  0  0
   19.8133   -4.7018  -13.9002 C   0  0  0  0  0  0  0  0  0  0  0  0
   18.7237   -4.8976  -14.8747 C   0  0  0  0  0  0  0  0  0  0  0  0
   19.0034   -5.2667  -16.0375 O   0  0  0  0  0  0  0  0  0  0  0  0
   22.2945   -4.9445  -13.7369 C   0  0  0  0  0  0  0  0  0  0  0  0
   22.8776   -5.7092  -12.7396 O   0  0  0  0  0  0  0  0  0  0  0  0
   17.3937   -4.6893  -14.5569 O   0  0  0  0  0  0  0  0  0  0  0  0
   22.8687   -3.8667  -14.0346 O   0  0  0  0  0  0  0  0  0  0  0  0
  2  1  1  0
  3  5  1  0
  3  2  1  0
  3  4  1  6
  5  7  1  0
  5  6  1  1
  7  8  2  0
 10 12  1  0
 10  9  1  6
 11 10  1  0
 12 14  1  0
 13  7  1  0
 12 13  1  6
 14 15  2  0
 16 17  1  0
 16 14  1  0
 17 21  1  0
 17 18  1  1
 19 23  1  0
 19 18  1  0
 20 19  2  0
 21 24  2  0
 21 22  1  0
M  END
$$$$
