IVD.pdb
     RDKit          3D

 24 23  0  0  1  0  0  0  0  0999 V2000
   28.9622  -11.9067  -16.2197 C   0  0  0  0  0  0  0  0  0  0  0  0
   27.5810  -12.3927  -15.8738 C   0  0  0  0  0  0  0  0  0  0  0  0
   26.5056  -11.4633  -16.3629 C   0  0  2  0  0  0  0  0  0  0  0  0
   26.7530  -10.0616  -15.8828 C   0  0  0  0  0  0  0  0  0  0  0  0
   25.1104  -11.9357  -16.0974 C   0  0  2  0  0  0  0  0  0  0  0  0
   25.0273  -13.3121  -16.5475 N   0  0  0  0  0  0  0  0  0  0  0  0
   24.0742  -11.0825  -16.7028 C   0  0  0  0  0  0  0  0  0  0  0  0
   23.9560  -11.0261  -17.9375 O   0  0  0  0  0  0  0  0  0  0  0  0
   20.6434  -11.2146  -17.5809 C   0  0  0  0  0  0  0  0  0  0  0  0
   20.7589  -10.0831  -16.5698 C   0  0  1  0  0  0  0  0  0  0  0  0
   20.1491  -10.4299  -15.2473 C   0  0  0  0  0  0  0  0  0  0  0  0
   22.1293   -9.5183  -16.4909 C   0  0  2  0  0  0  0  0  0  0  0  0
   23.1662  -10.2905  -15.9666 N   0  0  0  0  0  0  0  0  0  0  0  0
   22.0468   -8.2407  -15.7150 C   0  0  0  0  0  0  0  0  0  0  0  0
   22.3890   -8.1945  -14.4842 O   0  0  0  0  0  0  0  0  0  0  0  0
   21.5932   -7.0237  -16.2826 N   0  0  0  0  0  0  0  0  0  0  0  0
   21.5346   -5.8062  -15.4592 C   0  0  1  0  0  0  0  0  0  0  0  0
   21.7356   -4.5853  -16.3388 C   0  0  0  0  0  0  0  0  0  0  0  0
   21.6078   -3.3644  -15.5214 C   0  0  0  0  0  0  0  0  0  0  0  0
   20.4892   -3.0596  -15.0497 O   0  0  0  0  0  0  0  0  0  0  0  0
   20.2402   -5.8097  -14.7555 C   0  0  0  0  0  0  0  0  0  0  0  0
   20.1669   -5.3077  -13.4663 O   0  0  0  0  0  0  0  0  0  0  0  0
   22.6800   -2.5336  -15.2506 O   0  0  0  0  0  0  0  0  0  0  0  0
   19.1732   -6.2469  -15.2558 O   0  0  0  0  0  0  0  0  0  0  0  0
  2  1  1  0
  3  5  1  0
  3  2  1  0
  3  4  1  1
  5  7  1  0
  5  6  1  6
  7  8  2  0
 10 12  1  0
 10  9  1  6
 11 10  1  0
 12 14  1  0
 13  7  1  0
 12 13  1  1
 14 15  2  0
 16 17  1  0
 16 14  1  0
 17 21  1  0
 17 18  1  6
 19 23  1  0
 19 18  1  0
 20 19  2  0
 21 24  2  0
 21 22  1  0
M  END
$$$$
