IVD.pdb
     RDKit          3D

 24 23  0  0  1  0  0  0  0  0999 V2000
   19.0104  -18.4333  -16.3830 C   0  0  0  0  0  0  0  0  0  0  0  0
   17.8604  -17.8643  -15.5971 C   0  0  0  0  0  0  0  0  0  0  0  0
   17.4043  -16.5339  -16.1278 C   0  0  2  0  0  0  0  0  0  0  0  0
   18.5696  -15.6029  -16.3062 C   0  0  0  0  0  0  0  0  0  0  0  0
   16.2733  -15.9174  -15.3654 C   0  0  2  0  0  0  0  0  0  0  0  0
   15.2276  -16.9171  -15.2601 N   0  0  0  0  0  0  0  0  0  0  0  0
   15.7883  -14.6554  -15.9487 C   0  0  0  0  0  0  0  0  0  0  0  0
   15.4894  -14.5992  -17.1525 O   0  0  0  0  0  0  0  0  0  0  0  0
   12.7666  -12.8638  -16.3426 C   0  0  0  0  0  0  0  0  0  0  0  0
   13.6733  -11.9434  -15.5385 C   0  0  1  0  0  0  0  0  0  0  0  0
   13.2349  -11.8064  -14.1136 C   0  0  0  0  0  0  0  0  0  0  0  0
   15.1138  -12.2543  -15.7161 C   0  0  2  0  0  0  0  0  0  0  0  0
   15.6279  -13.4543  -15.2240 N   0  0  0  0  0  0  0  0  0  0  0  0
   15.8959  -11.1226  -15.1256 C   0  0  0  0  0  0  0  0  0  0  0  0
   16.8033  -11.3351  -14.2507 O   0  0  0  0  0  0  0  0  0  0  0  0
   15.6857   -9.7692  -15.4904 N   0  0  0  0  0  0  0  0  0  0  0  0
   16.5664   -8.7193  -14.9561 C   0  0  1  0  0  0  0  0  0  0  0  0
   18.0110   -9.0474  -15.2879 C   0  0  0  0  0  0  0  0  0  0  0  0
   18.8803   -7.9412  -14.8454 C   0  0  0  0  0  0  0  0  0  0  0  0
   19.0121   -7.7206  -13.6204 O   0  0  0  0  0  0  0  0  0  0  0  0
   16.1169   -7.4348  -15.5208 C   0  0  0  0  0  0  0  0  0  0  0  0
   16.0323   -6.3237  -14.6975 O   0  0  0  0  0  0  0  0  0  0  0  0
   19.5627   -7.1291  -15.7332 O   0  0  0  0  0  0  0  0  0  0  0  0
   15.7977   -7.2740  -16.7258 O   0  0  0  0  0  0  0  0  0  0  0  0
  2  1  1  0
  3  5  1  0
  3  2  1  0
  3  4  1  1
  5  7  1  0
  5  6  1  6
  7  8  2  0
 10 12  1  0
 10  9  1  1
 11 10  1  0
 12 14  1  0
 13  7  1  0
 12 13  1  1
 14 15  2  0
 16 17  1  0
 16 14  1  0
 17 21  1  0
 17 18  1  6
 19 23  1  0
 19 18  1  0
 20 19  2  0
 21 24  2  0
 21 22  1  0
M  END
$$$$
