IVD.pdb
     RDKit          3D

 24 23  0  0  1  0  0  0  0  0999 V2000
   17.8775  -28.1160   -8.3631 C   0  0  0  0  0  0  0  0  0  0  0  0
   18.5251  -27.0154   -7.5674 C   0  0  0  0  0  0  0  0  0  0  0  0
   18.3719  -25.6691   -8.2183 C   0  0  2  0  0  0  0  0  0  0  0  0
   18.8329  -25.7121   -9.6474 C   0  0  0  0  0  0  0  0  0  0  0  0
   18.9680  -24.5352   -7.4443 C   0  0  2  0  0  0  0  0  0  0  0  0
   18.2780  -24.4719   -6.1701 N   0  0  0  0  0  0  0  0  0  0  0  0
   18.9390  -23.2510   -8.1640 C   0  0  0  0  0  0  0  0  0  0  0  0
   17.8730  -22.6246   -8.2790 O   0  0  0  0  0  0  0  0  0  0  0  0
   22.5854  -21.3283   -9.6263 C   0  0  0  0  0  0  0  0  0  0  0  0
   21.2909  -20.5677   -9.3784 C   0  0  1  0  0  0  0  0  0  0  0  0
   21.2013  -19.3084  -10.1829 C   0  0  0  0  0  0  0  0  0  0  0  0
   20.0892  -21.4361   -9.4515 C   0  0  2  0  0  0  0  0  0  0  0  0
   20.0681  -22.6470   -8.7590 N   0  0  0  0  0  0  0  0  0  0  0  0
   19.8170  -21.7091  -10.8980 C   0  0  0  0  0  0  0  0  0  0  0  0
   20.2738  -22.7585  -11.4673 O   0  0  0  0  0  0  0  0  0  0  0  0
   19.0508  -20.8399  -11.7141 N   0  0  0  0  0  0  0  0  0  0  0  0
   18.6947  -21.2420  -13.0835 C   0  0  1  0  0  0  0  0  0  0  0  0
   17.2031  -21.5127  -13.1642 C   0  0  0  0  0  0  0  0  0  0  0  0
   16.8406  -21.8570  -14.5517 C   0  0  0  0  0  0  0  0  0  0  0  0
   17.7493  -22.0447  -15.3917 O   0  0  0  0  0  0  0  0  0  0  0  0
   19.1414  -20.1697  -13.9899 C   0  0  0  0  0  0  0  0  0  0  0  0
   19.7090  -19.0234  -13.4578 O   0  0  0  0  0  0  0  0  0  0  0  0
   15.5279  -21.9828  -14.9694 O   0  0  0  0  0  0  0  0  0  0  0  0
   19.0406  -20.2247  -15.2416 O   0  0  0  0  0  0  0  0  0  0  0  0
  2  1  1  0
  3  5  1  0
  3  2  1  0
  3  4  1  6
  5  7  1  0
  5  6  1  1
  7  8  2  0
 10 12  1  0
 10  9  1  6
 11 10  1  0
 12 14  1  0
 13  7  1  0
 12 13  1  1
 14 15  2  0
 16 17  1  0
 16 14  1  0
 17 21  1  0
 17 18  1  1
 19 23  1  0
 19 18  1  0
 20 19  2  0
 21 24  2  0
 21 22  1  0
M  END
$$$$
