IVD.pdb
     RDKit          3D

 24 23  0  0  1  0  0  0  0  0999 V2000
   25.3783  -12.1583  -19.9181 C   0  0  0  0  0  0  0  0  0  0  0  0
   25.2394  -11.7877  -18.4664 C   0  0  0  0  0  0  0  0  0  0  0  0
   23.9036  -11.1725  -18.1557 C   0  0  2  0  0  0  0  0  0  0  0  0
   23.5914  -10.0615  -19.1174 C   0  0  0  0  0  0  0  0  0  0  0  0
   23.7219  -10.7763  -16.7239 C   0  0  2  0  0  0  0  0  0  0  0  0
   24.0858  -11.9200  -15.9095 N   0  0  0  0  0  0  0  0  0  0  0  0
   22.3716  -10.2750  -16.4180 C   0  0  0  0  0  0  0  0  0  0  0  0
   21.3858  -10.7323  -17.0188 O   0  0  0  0  0  0  0  0  0  0  0  0
   21.2340   -8.8455  -12.6767 C   0  0  0  0  0  0  0  0  0  0  0  0
   20.2394   -9.0248  -13.8143 C   0  0  1  0  0  0  0  0  0  0  0  0
   18.9415   -8.3238  -13.5587 C   0  0  0  0  0  0  0  0  0  0  0  0
   20.8347   -8.7588  -15.1478 C   0  0  2  0  0  0  0  0  0  0  0  0
   22.0921   -9.2767  -15.4594 N   0  0  0  0  0  0  0  0  0  0  0  0
   20.8698   -7.2743  -15.3383 C   0  0  0  0  0  0  0  0  0  0  0  0
   21.9410   -6.6088  -15.1294 O   0  0  0  0  0  0  0  0  0  0  0  0
   19.7408   -6.5250  -15.7540 N   0  0  0  0  0  0  0  0  0  0  0  0
   19.8784   -5.0896  -16.0442 C   0  0  1  0  0  0  0  0  0  0  0  0
   20.1119   -4.8896  -17.5308 C   0  0  0  0  0  0  0  0  0  0  0  0
   20.1314   -3.4468  -17.8356 C   0  0  0  0  0  0  0  0  0  0  0  0
   21.1103   -2.7583  -17.4687 O   0  0  0  0  0  0  0  0  0  0  0  0
   18.6622   -4.4198  -15.5510 C   0  0  0  0  0  0  0  0  0  0  0  0
   18.6966   -3.0610  -15.2834 O   0  0  0  0  0  0  0  0  0  0  0  0
   19.1057   -2.8150  -18.5153 O   0  0  0  0  0  0  0  0  0  0  0  0
   17.5706   -5.0101  -15.3516 O   0  0  0  0  0  0  0  0  0  0  0  0
  2  1  1  0
  3  5  1  0
  3  2  1  0
  3  4  1  6
  5  7  1  0
  5  6  1  1
  7  8  2  0
 10 12  1  0
 10  9  1  1
 11 10  1  0
 12 14  1  0
 13  7  1  0
 12 13  1  1
 14 15  2  0
 16 17  1  0
 16 14  1  0
 17 21  1  0
 17 18  1  6
 19 23  1  0
 19 18  1  0
 20 19  2  0
 21 24  2  0
 21 22  1  0
M  END
$$$$
