DKH.pdb
     RDKit          3D

 28 28  0  0  1  0  0  0  0  0999 V2000
   27.1479  -19.9092  -12.5880 N   0  0  0  0  0  0  0  0  0  0  0  0
   25.8815  -20.5471  -12.7569 C   0  0  1  0  0  0  0  0  0  0  0  0
   25.1604  -20.7573  -11.4631 C   0  0  0  0  0  0  0  0  0  0  0  0
   26.0534  -21.3779  -10.4580 C   0  0  0  0  0  0  0  0  0  0  0  0
   26.8700  -22.2486  -10.8414 O   0  0  0  0  0  0  0  0  0  0  0  0
   24.9709  -19.7690  -13.6572 C   0  0  0  0  0  0  0  0  0  0  0  0
   24.1985  -18.9396  -13.1364 O   0  0  0  0  0  0  0  0  0  0  0  0
   25.9946  -21.0108   -9.1228 O   0  0  0  0  0  0  0  0  0  0  0  0
   24.9517  -19.9347  -15.0564 N   0  0  0  0  0  0  0  0  0  0  0  0
   24.0945  -19.1353  -15.9042 C   0  0  1  0  0  0  0  0  0  0  0  0
   24.7673  -18.8581  -17.2503 C   0  0  0  0  0  0  0  0  0  0  0  0
   25.8914  -17.8901  -16.9838 C   0  0  0  0  0  0  0  0  0  0  0  0
   26.7014  -17.5954  -18.2163 C   0  0  0  0  0  0  0  0  0  0  0  0
   27.7390  -16.5515  -17.8368 C   0  0  0  0  0  0  0  0  0  0  0  0
   28.5347  -16.2980  -19.0331 N   0  0  0  0  0  0  0  0  0  0  0  0
   22.8290  -19.8515  -16.1177 C   0  0  0  0  0  0  0  0  0  0  0  0
   22.8556  -21.1007  -16.3082 O   0  0  0  0  0  0  0  0  0  0  0  0
   21.5586  -19.1765  -16.1170 N   0  0  0  0  0  0  0  0  0  0  0  0
   20.4354  -19.8384  -15.5444 C   0  0  1  0  0  0  0  0  0  0  0  0
   20.6348  -20.1896  -14.0851 C   0  0  0  0  0  0  0  0  0  0  0  0
   19.4153  -20.7903  -13.4886 C   0  0  0  0  0  0  0  0  0  0  0  0
   18.1912  -20.9924  -14.1152 C   0  0  0  0  0  0  0  0  0  0  0  0
   17.3664  -21.5602  -13.2178 N   0  0  0  0  0  0  0  0  0  0  0  0
   18.0158  -21.7248  -12.0548 C   0  0  0  0  0  0  0  0  0  0  0  0
   19.2592  -21.2492  -12.2445 N   0  0  0  0  0  0  0  0  0  0  0  0
   19.2428  -18.9576  -15.6050 C   0  0  0  0  0  0  0  0  0  0  0  0
   18.1089  -19.4903  -15.5502 O   0  0  0  0  0  0  0  0  0  0  0  0
   19.3606  -17.5951  -15.7179 O   0  0  0  0  0  0  0  0  0  0  0  0
  2  1  1  1
  2  3  1  0
  3  4  1  0
  4  5  2  0
  4  8  1  0
  6  7  2  0
  6  2  1  0
  9  6  1  0
 10  9  1  0
 10 11  1  6
 11 12  1  0
 12 13  1  0
 13 14  1  0
 14 15  1  0
 16 17  2  0
 16 10  1  0
 18 16  1  0
 19 18  1  0
 19 20  1  1
 20 21  1  0
 21 25  1  0
 21 22  2  0
 22 23  1  0
 24 23  1  0
 25 24  2  0
 26 28  1  0
 26 19  1  0
 27 26  2  0
M  END
$$$$
