DKH.pdb
     RDKit          3D

 28 28  0  0  1  0  0  0  0  0999 V2000
   26.8199  -17.8431  -17.5791 N   0  0  0  0  0  0  0  0  0  0  0  0
   25.7395  -18.7319  -17.2926 C   0  0  1  0  0  0  0  0  0  0  0  0
   25.4192  -19.6433  -18.4348 C   0  0  0  0  0  0  0  0  0  0  0  0
   24.8094  -18.8896  -19.5542 C   0  0  0  0  0  0  0  0  0  0  0  0
   24.7158  -17.6433  -19.4540 O   0  0  0  0  0  0  0  0  0  0  0  0
   26.0146  -19.5909  -16.0962 C   0  0  0  0  0  0  0  0  0  0  0  0
   25.3391  -20.6294  -15.9511 O   0  0  0  0  0  0  0  0  0  0  0  0
   24.3503  -19.5386  -20.6895 O   0  0  0  0  0  0  0  0  0  0  0  0
   26.9971  -19.2762  -15.1363 N   0  0  0  0  0  0  0  0  0  0  0  0
   27.2803  -20.1552  -14.0230 C   0  0  1  0  0  0  0  0  0  0  0  0
   28.7128  -19.9552  -13.5234 C   0  0  0  0  0  0  0  0  0  0  0  0
   28.9185  -20.9283  -12.3910 C   0  0  0  0  0  0  0  0  0  0  0  0
   30.3345  -20.9303  -11.8839 C   0  0  0  0  0  0  0  0  0  0  0  0
   30.4503  -22.0566  -10.8698 C   0  0  0  0  0  0  0  0  0  0  0  0
   31.8356  -22.0670  -10.4123 N   0  0  0  0  0  0  0  0  0  0  0  0
   26.3302  -19.8748  -12.9372 C   0  0  0  0  0  0  0  0  0  0  0  0
   26.2030  -18.6868  -12.5250 O   0  0  0  0  0  0  0  0  0  0  0  0
   25.5389  -20.9097  -12.3271 N   0  0  0  0  0  0  0  0  0  0  0  0
   24.6705  -20.5604  -11.2540 C   0  0  1  0  0  0  0  0  0  0  0  0
   23.3453  -21.2912  -11.3019 C   0  0  0  0  0  0  0  0  0  0  0  0
   22.4446  -20.7367  -12.3436 C   0  0  0  0  0  0  0  0  0  0  0  0
   22.6648  -19.6078  -13.1238 C   0  0  0  0  0  0  0  0  0  0  0  0
   21.6024  -19.4636  -13.9353 N   0  0  0  0  0  0  0  0  0  0  0  0
   20.7234  -20.4506  -13.7012 C   0  0  0  0  0  0  0  0  0  0  0  0
   21.2578  -21.2113  -12.7298 N   0  0  0  0  0  0  0  0  0  0  0  0
   25.2989  -20.9151   -9.9574 C   0  0  0  0  0  0  0  0  0  0  0  0
   26.1568  -21.8296   -9.9449 O   0  0  0  0  0  0  0  0  0  0  0  0
   24.9614  -20.2695   -8.7946 O   0  0  0  0  0  0  0  0  0  0  0  0
  2  1  1  6
  2  3  1  0
  3  4  1  0
  4  5  2  0
  4  8  1  0
  6  7  2  0
  6  2  1  0
  9  6  1  0
 10  9  1  0
 10 11  1  1
 11 12  1  0
 12 13  1  0
 13 14  1  0
 14 15  1  0
 16 17  2  0
 16 10  1  0
 18 16  1  0
 19 18  1  0
 19 20  1  6
 20 21  1  0
 21 25  1  0
 21 22  2  0
 22 23  1  0
 24 23  1  0
 25 24  2  0
 26 28  1  0
 26 19  1  0
 27 26  2  0
M  END
$$$$
