DKH.pdb
     RDKit          3D

 28 28  0  0  1  0  0  0  0  0999 V2000
   16.1804  -13.7364  -16.9453 N   0  0  0  0  0  0  0  0  0  0  0  0
   16.8705  -12.8892  -16.0260 C   0  0  1  0  0  0  0  0  0  0  0  0
   18.2522  -13.3722  -15.7165 C   0  0  0  0  0  0  0  0  0  0  0  0
   18.2075  -14.6423  -14.9563 C   0  0  0  0  0  0  0  0  0  0  0  0
   17.2624  -14.8242  -14.1527 O   0  0  0  0  0  0  0  0  0  0  0  0
   16.9888  -11.4833  -16.5306 C   0  0  0  0  0  0  0  0  0  0  0  0
   17.9471  -11.2070  -17.2798 O   0  0  0  0  0  0  0  0  0  0  0  0
   19.1832  -15.6123  -15.1231 O   0  0  0  0  0  0  0  0  0  0  0  0
   16.0695  -10.4690  -16.1961 N   0  0  0  0  0  0  0  0  0  0  0  0
   16.1751   -9.1361  -16.7480 C   0  0  1  0  0  0  0  0  0  0  0  0
   14.8037   -8.4594  -16.8002 C   0  0  0  0  0  0  0  0  0  0  0  0
   14.0494   -9.0921  -17.9414 C   0  0  0  0  0  0  0  0  0  0  0  0
   12.6344   -8.5928  -18.0432 C   0  0  0  0  0  0  0  0  0  0  0  0
   11.9806   -9.3199  -19.2069 C   0  0  0  0  0  0  0  0  0  0  0  0
   10.5740   -8.9325  -19.2053 N   0  0  0  0  0  0  0  0  0  0  0  0
   17.0904   -8.3436  -15.9148 C   0  0  0  0  0  0  0  0  0  0  0  0
   16.9573   -8.3733  -14.6583 O   0  0  0  0  0  0  0  0  0  0  0  0
   18.1347   -7.5338  -16.4831 N   0  0  0  0  0  0  0  0  0  0  0  0
   18.9411   -6.7500  -15.6097 C   0  0  1  0  0  0  0  0  0  0  0  0
   20.2900   -6.4006  -16.2020 C   0  0  0  0  0  0  0  0  0  0  0  0
   21.0720   -5.5080  -15.3101 C   0  0  0  0  0  0  0  0  0  0  0  0
   21.9306   -5.8929  -14.2872 C   0  0  0  0  0  0  0  0  0  0  0  0
   22.4299   -4.7729  -13.7353 N   0  0  0  0  0  0  0  0  0  0  0  0
   21.9244   -3.7005  -14.3646 C   0  0  0  0  0  0  0  0  0  0  0  0
   21.1019   -4.1732  -15.3176 N   0  0  0  0  0  0  0  0  0  0  0  0
   18.2656   -5.4619  -15.3155 C   0  0  0  0  0  0  0  0  0  0  0  0
   17.5909   -4.9248  -16.2260 O   0  0  0  0  0  0  0  0  0  0  0  0
   18.3664   -4.8618  -14.0856 O   0  0  0  0  0  0  0  0  0  0  0  0
  2  1  1  6
  2  3  1  0
  3  4  1  0
  4  5  2  0
  4  8  1  0
  6  7  2  0
  6  2  1  0
  9  6  1  0
 10  9  1  0
 10 11  1  1
 11 12  1  0
 12 13  1  0
 13 14  1  0
 14 15  1  0
 16 17  2  0
 16 10  1  0
 18 16  1  0
 19 18  1  0
 19 20  1  6
 20 21  1  0
 21 25  1  0
 21 22  2  0
 22 23  1  0
 24 23  1  0
 25 24  2  0
 26 28  1  0
 26 19  1  0
 27 26  2  0
M  END
$$$$
