DKH.pdb
     RDKit          3D

 28 28  0  0  1  0  0  0  0  0999 V2000
   25.7873  -11.1562  -18.2774 N   0  0  0  0  0  0  0  0  0  0  0  0
   25.6650  -10.2739  -17.1612 C   0  0  1  0  0  0  0  0  0  0  0  0
   26.8259   -9.3393  -17.0302 C   0  0  0  0  0  0  0  0  0  0  0  0
   28.0732  -10.0861  -16.7485 C   0  0  0  0  0  0  0  0  0  0  0  0
   28.0037  -11.3286  -16.5957 O   0  0  0  0  0  0  0  0  0  0  0  0
   24.4225   -9.4395  -17.2322 C   0  0  0  0  0  0  0  0  0  0  0  0
   24.1262   -8.9194  -18.3265 O   0  0  0  0  0  0  0  0  0  0  0  0
   29.2930   -9.4348  -16.6545 O   0  0  0  0  0  0  0  0  0  0  0  0
   23.5822   -9.2202  -16.1225 N   0  0  0  0  0  0  0  0  0  0  0  0
   22.3272   -8.5119  -16.2484 C   0  0  1  0  0  0  0  0  0  0  0  0
   21.2492   -9.1571  -15.3747 C   0  0  0  0  0  0  0  0  0  0  0  0
   20.6682  -10.2970  -16.1713 C   0  0  0  0  0  0  0  0  0  0  0  0
   19.5592  -11.0032  -15.4409 C   0  0  0  0  0  0  0  0  0  0  0  0
   19.0616  -12.1198  -16.3443 C   0  0  0  0  0  0  0  0  0  0  0  0
   17.9796  -12.7867  -15.6281 N   0  0  0  0  0  0  0  0  0  0  0  0
   22.5241   -7.1125  -15.8448 C   0  0  0  0  0  0  0  0  0  0  0  0
   23.2354   -6.8608  -14.8308 O   0  0  0  0  0  0  0  0  0  0  0  0
   21.9330   -6.0178  -16.5670 N   0  0  0  0  0  0  0  0  0  0  0  0
   22.1142   -4.6960  -16.0694 C   0  0  1  0  0  0  0  0  0  0  0  0
   21.7774   -3.6277  -17.0881 C   0  0  0  0  0  0  0  0  0  0  0  0
   22.0685   -2.2644  -16.5776 C   0  0  0  0  0  0  0  0  0  0  0  0
   23.3022   -1.6247  -16.5597 C   0  0  0  0  0  0  0  0  0  0  0  0
   23.1196   -0.4089  -16.0151 N   0  0  0  0  0  0  0  0  0  0  0  0
   21.8267   -0.2544  -15.6892 C   0  0  0  0  0  0  0  0  0  0  0  0
   21.2084   -1.3955  -16.0408 N   0  0  0  0  0  0  0  0  0  0  0  0
   21.2205   -4.4648  -14.9076 C   0  0  0  0  0  0  0  0  0  0  0  0
   20.1463   -5.1091  -14.8485 O   0  0  0  0  0  0  0  0  0  0  0  0
   21.5463   -3.5736  -13.9163 O   0  0  0  0  0  0  0  0  0  0  0  0
  2  1  1  6
  2  3  1  0
  3  4  1  0
  4  5  2  0
  4  8  1  0
  6  7  2  0
  6  2  1  0
  9  6  1  0
 10  9  1  0
 10 11  1  1
 11 12  1  0
 12 13  1  0
 13 14  1  0
 14 15  1  0
 16 17  2  0
 16 10  1  0
 18 16  1  0
 19 18  1  0
 19 20  1  6
 20 21  1  0
 21 25  1  0
 21 22  2  0
 22 23  1  0
 24 23  1  0
 25 24  2  0
 26 28  1  0
 26 19  1  0
 27 26  2  0
M  END
$$$$
