DKH.pdb
     RDKit          3D

 28 28  0  0  1  0  0  0  0  0999 V2000
   26.9431  -21.2072  -11.7700 N   0  0  0  0  0  0  0  0  0  0  0  0
   25.5217  -21.0708  -11.7807 C   0  0  1  0  0  0  0  0  0  0  0  0
   25.0072  -20.2657  -10.6295 C   0  0  0  0  0  0  0  0  0  0  0  0
   25.4764  -20.8285   -9.3426 C   0  0  0  0  0  0  0  0  0  0  0  0
   26.2834  -21.7877   -9.3693 O   0  0  0  0  0  0  0  0  0  0  0  0
   25.0240  -20.4254  -13.0380 C   0  0  0  0  0  0  0  0  0  0  0  0
   25.1107  -19.1849  -13.1353 O   0  0  0  0  0  0  0  0  0  0  0  0
   25.0389  -20.3131   -8.1327 O   0  0  0  0  0  0  0  0  0  0  0  0
   24.4667  -21.1565  -14.1060 N   0  0  0  0  0  0  0  0  0  0  0  0
   24.2355  -20.5534  -15.4003 C   0  0  1  0  0  0  0  0  0  0  0  0
   24.9132  -21.3647  -16.5067 C   0  0  0  0  0  0  0  0  0  0  0  0
   26.3216  -20.8423  -16.6289 C   0  0  0  0  0  0  0  0  0  0  0  0
   26.3737  -19.4600  -17.2193 C   0  0  0  0  0  0  0  0  0  0  0  0
   27.8360  -19.1297  -17.4698 C   0  0  0  0  0  0  0  0  0  0  0  0
   27.8893  -17.7192  -17.8383 N   0  0  0  0  0  0  0  0  0  0  0  0
   22.7881  -20.4869  -15.6464 C   0  0  0  0  0  0  0  0  0  0  0  0
   22.0872  -21.5233  -15.4673 O   0  0  0  0  0  0  0  0  0  0  0  0
   22.1415  -19.2791  -16.0853 N   0  0  0  0  0  0  0  0  0  0  0  0
   20.7319  -19.2950  -16.2863 C   0  0  1  0  0  0  0  0  0  0  0  0
   20.0795  -17.9555  -16.0166 C   0  0  0  0  0  0  0  0  0  0  0  0
   19.9305  -17.6950  -14.5627 C   0  0  0  0  0  0  0  0  0  0  0  0
   20.2355  -18.5648  -13.5225 C   0  0  0  0  0  0  0  0  0  0  0  0
   19.9514  -17.9326  -12.3702 N   0  0  0  0  0  0  0  0  0  0  0  0
   19.4815  -16.7041  -12.6381 C   0  0  0  0  0  0  0  0  0  0  0  0
   19.4783  -16.5834  -13.9773 N   0  0  0  0  0  0  0  0  0  0  0  0
   20.4250  -19.6348  -17.6978 C   0  0  0  0  0  0  0  0  0  0  0  0
   21.3721  -19.6682  -18.5190 O   0  0  0  0  0  0  0  0  0  0  0  0
   19.1446  -19.9076  -18.1093 O   0  0  0  0  0  0  0  0  0  0  0  0
  2  1  1  6
  2  3  1  0
  3  4  1  0
  4  5  2  0
  4  8  1  0
  6  7  2  0
  6  2  1  0
  9  6  1  0
 10  9  1  0
 10 11  1  6
 11 12  1  0
 12 13  1  0
 13 14  1  0
 14 15  1  0
 16 17  2  0
 16 10  1  0
 18 16  1  0
 19 18  1  0
 19 20  1  6
 20 21  1  0
 21 25  1  0
 21 22  2  0
 22 23  1  0
 24 23  1  0
 25 24  2  0
 26 28  1  0
 26 19  1  0
 27 26  2  0
M  END
$$$$
