DKH.pdb
     RDKit          3D

 28 28  0  0  1  0  0  0  0  0999 V2000
   25.4730  -38.5234   -6.7228 N   0  0  0  0  0  0  0  0  0  0  0  0
   26.7505  -38.6895   -7.3390 C   0  0  1  0  0  0  0  0  0  0  0  0
   26.6564  -38.9458   -8.8099 C   0  0  0  0  0  0  0  0  0  0  0  0
   26.7543  -40.3950   -9.0987 C   0  0  0  0  0  0  0  0  0  0  0  0
   26.9281  -41.1844   -8.1402 O   0  0  0  0  0  0  0  0  0  0  0  0
   27.6319  -37.4931   -7.1471 C   0  0  0  0  0  0  0  0  0  0  0  0
   28.7652  -37.5091   -7.6679 O   0  0  0  0  0  0  0  0  0  0  0  0
   26.6571  -40.8758  -10.3949 O   0  0  0  0  0  0  0  0  0  0  0  0
   27.2361  -36.3601   -6.4086 N   0  0  0  0  0  0  0  0  0  0  0  0
   28.1188  -35.2298   -6.2204 C   0  0  1  0  0  0  0  0  0  0  0  0
   27.3237  -33.9740   -5.8566 C   0  0  0  0  0  0  0  0  0  0  0  0
   27.1557  -33.1819   -7.1279 C   0  0  0  0  0  0  0  0  0  0  0  0
   25.7173  -33.0760   -7.5541 C   0  0  0  0  0  0  0  0  0  0  0  0
   25.6868  -32.2841   -8.8512 C   0  0  0  0  0  0  0  0  0  0  0  0
   24.2816  -32.1104   -9.2026 N   0  0  0  0  0  0  0  0  0  0  0  0
   29.0753  -35.5418   -5.1490 C   0  0  0  0  0  0  0  0  0  0  0  0
   28.6724  -36.1759   -4.1326 O   0  0  0  0  0  0  0  0  0  0  0  0
   30.4572  -35.1486   -5.2189 N   0  0  0  0  0  0  0  0  0  0  0  0
   31.3030  -35.4300   -4.1084 C   0  0  1  0  0  0  0  0  0  0  0  0
   32.7073  -34.8909   -4.2811 C   0  0  0  0  0  0  0  0  0  0  0  0
   33.6027  -35.3141   -3.1752 C   0  0  0  0  0  0  0  0  0  0  0  0
   33.2838  -36.1592   -2.1189 C   0  0  0  0  0  0  0  0  0  0  0  0
   34.3802  -36.2760   -1.3493 N   0  0  0  0  0  0  0  0  0  0  0  0
   35.3748  -35.5427   -1.8733 C   0  0  0  0  0  0  0  0  0  0  0  0
   34.8777  -34.9677   -2.9825 N   0  0  0  0  0  0  0  0  0  0  0  0
   30.7577  -34.7960   -2.8826 C   0  0  0  0  0  0  0  0  0  0  0  0
   31.3183  -35.0421   -1.7882 O   0  0  0  0  0  0  0  0  0  0  0  0
   29.6702  -33.9604   -2.9284 O   0  0  0  0  0  0  0  0  0  0  0  0
  2  1  1  6
  2  3  1  0
  3  4  1  0
  4  5  2  0
  4  8  1  0
  6  7  2  0
  6  2  1  0
  9  6  1  0
 10  9  1  0
 10 11  1  1
 11 12  1  0
 12 13  1  0
 13 14  1  0
 14 15  1  0
 16 17  2  0
 16 10  1  0
 18 16  1  0
 19 18  1  0
 19 20  1  6
 20 21  1  0
 21 25  1  0
 21 22  2  0
 22 23  1  0
 24 23  1  0
 25 24  2  0
 26 28  1  0
 26 19  1  0
 27 26  2  0
M  END
$$$$
