DKH.pdb
     RDKit          3D

 28 28  0  0  1  0  0  0  0  0999 V2000
   16.3329  -12.7166  -16.5383 N   0  0  0  0  0  0  0  0  0  0  0  0
   17.4558  -12.0086  -16.0118 C   0  0  1  0  0  0  0  0  0  0  0  0
   18.7343  -12.3444  -16.7123 C   0  0  0  0  0  0  0  0  0  0  0  0
   19.0858  -13.7688  -16.5112 C   0  0  0  0  0  0  0  0  0  0  0  0
   18.8929  -14.2777  -15.3816 O   0  0  0  0  0  0  0  0  0  0  0  0
   17.2769  -10.5230  -16.0915 C   0  0  0  0  0  0  0  0  0  0  0  0
   17.1405  -10.0077  -17.2192 O   0  0  0  0  0  0  0  0  0  0  0  0
   19.6161  -14.5288  -17.5418 O   0  0  0  0  0  0  0  0  0  0  0  0
   17.2566   -9.6914  -14.9541 N   0  0  0  0  0  0  0  0  0  0  0  0
   17.0903   -8.2586  -15.0637 C   0  0  1  0  0  0  0  0  0  0  0  0
   15.9381   -7.7761  -14.1799 C   0  0  0  0  0  0  0  0  0  0  0  0
   14.6611   -8.1333  -14.8965 C   0  0  0  0  0  0  0  0  0  0  0  0
   13.4370   -7.8275  -14.0780 C   0  0  0  0  0  0  0  0  0  0  0  0
   12.2274   -8.2366  -14.9027 C   0  0  0  0  0  0  0  0  0  0  0  0
   11.0481   -7.8687  -14.1267 N   0  0  0  0  0  0  0  0  0  0  0  0
   18.3394   -7.5988  -14.6582 C   0  0  0  0  0  0  0  0  0  0  0  0
   18.7795   -7.7847  -13.4880 O   0  0  0  0  0  0  0  0  0  0  0  0
   19.0790   -6.7468  -15.5506 N   0  0  0  0  0  0  0  0  0  0  0  0
   20.2157   -6.0536  -15.0455 C   0  0  1  0  0  0  0  0  0  0  0  0
   21.5033   -6.4391  -15.7426 C   0  0  0  0  0  0  0  0  0  0  0  0
   21.8182   -7.8792  -15.5670 C   0  0  0  0  0  0  0  0  0  0  0  0
   22.1612   -8.5212  -14.3830 C   0  0  0  0  0  0  0  0  0  0  0  0
   22.3633   -9.8191  -14.6706 N   0  0  0  0  0  0  0  0  0  0  0  0
   22.1630  -10.0232  -15.9820 C   0  0  0  0  0  0  0  0  0  0  0  0
   21.8328   -8.8293  -16.5051 N   0  0  0  0  0  0  0  0  0  0  0  0
   20.0499   -4.5930  -15.2479 C   0  0  0  0  0  0  0  0  0  0  0  0
   19.0234   -4.1899  -15.8450 O   0  0  0  0  0  0  0  0  0  0  0  0
   20.9853   -3.6945  -14.7999 O   0  0  0  0  0  0  0  0  0  0  0  0
  2  1  1  6
  2  3  1  0
  3  4  1  0
  4  5  2  0
  4  8  1  0
  6  7  2  0
  6  2  1  0
  9  6  1  0
 10  9  1  0
 10 11  1  1
 11 12  1  0
 12 13  1  0
 13 14  1  0
 14 15  1  0
 16 17  2  0
 16 10  1  0
 18 16  1  0
 19 18  1  0
 19 20  1  6
 20 21  1  0
 21 25  1  0
 21 22  2  0
 22 23  1  0
 24 23  1  0
 25 24  2  0
 26 28  1  0
 26 19  1  0
 27 26  2  0
M  END
$$$$
