DKH.pdb
     RDKit          3D

 28 28  0  0  1  0  0  0  0  0999 V2000
   25.5391  -11.6514  -18.5120 N   0  0  0  0  0  0  0  0  0  0  0  0
   25.2492  -10.8668  -17.3546 C   0  0  1  0  0  0  0  0  0  0  0  0
   26.4435  -10.1262  -16.8413 C   0  0  0  0  0  0  0  0  0  0  0  0
   27.4772  -11.0681  -16.3544 C   0  0  0  0  0  0  0  0  0  0  0  0
   27.2505  -12.2985  -16.4370 O   0  0  0  0  0  0  0  0  0  0  0  0
   24.1708   -9.8583  -17.6095 C   0  0  0  0  0  0  0  0  0  0  0  0
   24.3182   -9.0697  -18.5647 O   0  0  0  0  0  0  0  0  0  0  0  0
   28.6701  -10.6090  -15.8186 O   0  0  0  0  0  0  0  0  0  0  0  0
   23.0068   -9.7650  -16.8208 N   0  0  0  0  0  0  0  0  0  0  0  0
   21.8985   -8.9162  -17.2000 C   0  0  1  0  0  0  0  0  0  0  0  0
   20.5691   -9.5235  -16.7466 C   0  0  0  0  0  0  0  0  0  0  0  0
   20.2209  -10.6006  -17.7417 C   0  0  0  0  0  0  0  0  0  0  0  0
   18.9763  -11.3547  -17.3616 C   0  0  0  0  0  0  0  0  0  0  0  0
   18.7052  -12.3654  -18.4641 C   0  0  0  0  0  0  0  0  0  0  0  0
   17.5486  -13.1470  -18.0402 N   0  0  0  0  0  0  0  0  0  0  0  0
   22.0767   -7.5926  -16.5866 C   0  0  0  0  0  0  0  0  0  0  0  0
   22.4335   -7.5205  -15.3762 O   0  0  0  0  0  0  0  0  0  0  0  0
   21.8581   -6.3743  -17.3195 N   0  0  0  0  0  0  0  0  0  0  0  0
   21.9975   -5.1331  -16.6355 C   0  0  1  0  0  0  0  0  0  0  0  0
   21.9748   -3.9382  -17.5650 C   0  0  0  0  0  0  0  0  0  0  0  0
   22.1998   -2.6649  -16.8356 C   0  0  0  0  0  0  0  0  0  0  0  0
   23.3910   -2.2250  -16.2705 C   0  0  0  0  0  0  0  0  0  0  0  0
   23.1541   -1.0261  -15.7098 N   0  0  0  0  0  0  0  0  0  0  0  0
   21.8678   -0.6913  -15.8964 C   0  0  0  0  0  0  0  0  0  0  0  0
   21.3087   -1.7032  -16.5830 N   0  0  0  0  0  0  0  0  0  0  0  0
   20.8719   -4.9482  -15.6865 C   0  0  0  0  0  0  0  0  0  0  0  0
   19.7111   -5.2027  -16.0867 O   0  0  0  0  0  0  0  0  0  0  0  0
   21.0789   -4.5111  -14.4023 O   0  0  0  0  0  0  0  0  0  0  0  0
  2  1  1  6
  2  3  1  0
  3  4  1  0
  4  5  2  0
  4  8  1  0
  6  7  2  0
  6  2  1  0
  9  6  1  0
 10  9  1  0
 10 11  1  1
 11 12  1  0
 12 13  1  0
 13 14  1  0
 14 15  1  0
 16 17  2  0
 16 10  1  0
 18 16  1  0
 19 18  1  0
 19 20  1  6
 20 21  1  0
 21 25  1  0
 21 22  2  0
 22 23  1  0
 24 23  1  0
 25 24  2  0
 26 28  1  0
 26 19  1  0
 27 26  2  0
M  END
$$$$
