DKH.pdb
     RDKit          3D

 28 28  0  0  1  0  0  0  0  0999 V2000
   27.9911  -17.2213  -18.7049 N   0  0  0  0  0  0  0  0  0  0  0  0
   26.5908  -17.0722  -18.4676 C   0  0  1  0  0  0  0  0  0  0  0  0
   25.7978  -16.9513  -19.7304 C   0  0  0  0  0  0  0  0  0  0  0  0
   26.0146  -15.6301  -20.3632 C   0  0  0  0  0  0  0  0  0  0  0  0
   27.1848  -15.1850  -20.4303 O   0  0  0  0  0  0  0  0  0  0  0  0
   26.0230  -18.2195  -17.6889 C   0  0  0  0  0  0  0  0  0  0  0  0
   26.0222  -19.3475  -18.2214 O   0  0  0  0  0  0  0  0  0  0  0  0
   24.9546  -14.8962  -20.8719 O   0  0  0  0  0  0  0  0  0  0  0  0
   25.4941  -18.0774  -16.3905 N   0  0  0  0  0  0  0  0  0  0  0  0
   25.2211  -19.2240  -15.5520 C   0  0  1  0  0  0  0  0  0  0  0  0
   25.9280  -19.0903  -14.2015 C   0  0  0  0  0  0  0  0  0  0  0  0
   25.6034  -20.3345  -13.4153 C   0  0  0  0  0  0  0  0  0  0  0  0
   26.1415  -20.2852  -12.0117 C   0  0  0  0  0  0  0  0  0  0  0  0
   25.8686  -21.6381  -11.3747 C   0  0  0  0  0  0  0  0  0  0  0  0
   26.4465  -21.5945  -10.0359 N   0  0  0  0  0  0  0  0  0  0  0  0
   23.7699  -19.3326  -15.3462 C   0  0  0  0  0  0  0  0  0  0  0  0
   23.1534  -18.3706  -14.8057 O   0  0  0  0  0  0  0  0  0  0  0  0
   23.0267  -20.4995  -15.7402 N   0  0  0  0  0  0  0  0  0  0  0  0
   21.6290  -20.5404  -15.4710 C   0  0  1  0  0  0  0  0  0  0  0  0
   20.9767  -21.8316  -15.9180 C   0  0  0  0  0  0  0  0  0  0  0  0
   19.4983  -21.7768  -15.7943 C   0  0  0  0  0  0  0  0  0  0  0  0
   18.7244  -20.6574  -15.5118 C   0  0  0  0  0  0  0  0  0  0  0  0
   17.4384  -21.0494  -15.4920 N   0  0  0  0  0  0  0  0  0  0  0  0
   17.3677  -22.3649  -15.7492 C   0  0  0  0  0  0  0  0  0  0  0  0
   18.6325  -22.7842  -15.9294 N   0  0  0  0  0  0  0  0  0  0  0  0
   21.3908  -20.4335  -14.0103 C   0  0  0  0  0  0  0  0  0  0  0  0
   20.5842  -19.5638  -13.6032 O   0  0  0  0  0  0  0  0  0  0  0  0
   22.0281  -21.2564  -13.1160 O   0  0  0  0  0  0  0  0  0  0  0  0
  2  1  1  6
  2  3  1  0
  3  4  1  0
  4  5  2  0
  4  8  1  0
  6  7  2  0
  6  2  1  0
  9  6  1  0
 10  9  1  0
 10 11  1  1
 11 12  1  0
 12 13  1  0
 13 14  1  0
 14 15  1  0
 16 17  2  0
 16 10  1  0
 18 16  1  0
 19 18  1  0
 19 20  1  1
 20 21  1  0
 21 25  1  0
 21 22  2  0
 22 23  1  0
 24 23  1  0
 25 24  2  0
 26 28  1  0
 26 19  1  0
 27 26  2  0
M  END
$$$$
