DKH.pdb
     RDKit          3D

 28 28  0  0  1  0  0  0  0  0999 V2000
   26.3768  -16.7973  -19.8510 N   0  0  0  0  0  0  0  0  0  0  0  0
   25.6968  -16.4752  -18.6373 C   0  0  1  0  0  0  0  0  0  0  0  0
   24.5558  -15.5300  -18.8445 C   0  0  0  0  0  0  0  0  0  0  0  0
   25.0463  -14.1441  -19.0219 C   0  0  0  0  0  0  0  0  0  0  0  0
   26.2839  -13.9430  -19.0133 O   0  0  0  0  0  0  0  0  0  0  0  0
   25.1533  -17.6919  -17.9524 C   0  0  0  0  0  0  0  0  0  0  0  0
   23.9979  -18.0621  -18.2422 O   0  0  0  0  0  0  0  0  0  0  0  0
   24.1651  -13.0882  -19.1941 O   0  0  0  0  0  0  0  0  0  0  0  0
   25.8879  -18.4290  -17.0022 N   0  0  0  0  0  0  0  0  0  0  0  0
   25.3215  -19.5768  -16.3283 C   0  0  1  0  0  0  0  0  0  0  0  0
   26.3957  -20.3286  -15.5394 C   0  0  0  0  0  0  0  0  0  0  0  0
   27.0604  -21.2768  -16.5042 C   0  0  0  0  0  0  0  0  0  0  0  0
   28.0023  -22.2284  -15.8193 C   0  0  0  0  0  0  0  0  0  0  0  0
   28.6025  -23.1219  -16.8925 C   0  0  0  0  0  0  0  0  0  0  0  0
   29.5526  -24.0022  -16.2210 N   0  0  0  0  0  0  0  0  0  0  0  0
   24.2609  -19.1227  -15.4177 C   0  0  0  0  0  0  0  0  0  0  0  0
   24.4091  -18.0301  -14.7998 O   0  0  0  0  0  0  0  0  0  0  0  0
   23.0575  -19.8820  -15.2062 N   0  0  0  0  0  0  0  0  0  0  0  0
   22.0336  -19.3230  -14.3896 C   0  0  1  0  0  0  0  0  0  0  0  0
   21.4583  -18.0414  -14.9544 C   0  0  0  0  0  0  0  0  0  0  0  0
   20.3075  -17.5514  -14.1547 C   0  0  0  0  0  0  0  0  0  0  0  0
   19.8498  -18.0656  -12.9473 C   0  0  0  0  0  0  0  0  0  0  0  0
   18.7905  -17.3287  -12.5696 N   0  0  0  0  0  0  0  0  0  0  0  0
   18.5607  -16.3739  -13.4845 C   0  0  0  0  0  0  0  0  0  0  0  0
   19.4957  -16.5299  -14.4380 N   0  0  0  0  0  0  0  0  0  0  0  0
   20.9018  -20.2755  -14.2728 C   0  0  0  0  0  0  0  0  0  0  0  0
   19.8124  -19.8493  -13.8210 O   0  0  0  0  0  0  0  0  0  0  0  0
   21.0276  -21.5904  -14.6447 O   0  0  0  0  0  0  0  0  0  0  0  0
  2  1  1  6
  2  3  1  0
  3  4  1  0
  4  5  2  0
  4  8  1  0
  6  7  2  0
  6  2  1  0
  9  6  1  0
 10  9  1  0
 10 11  1  1
 11 12  1  0
 12 13  1  0
 13 14  1  0
 14 15  1  0
 16 17  2  0
 16 10  1  0
 18 16  1  0
 19 18  1  0
 19 20  1  6
 20 21  1  0
 21 25  1  0
 21 22  2  0
 22 23  1  0
 24 23  1  0
 25 24  2  0
 26 28  1  0
 26 19  1  0
 27 26  2  0
M  END
$$$$
