DKH.pdb
     RDKit          3D

 28 28  0  0  1  0  0  0  0  0999 V2000
   17.6444  -12.0634  -17.6133 N   0  0  0  0  0  0  0  0  0  0  0  0
   17.3481  -11.0247  -16.6791 C   0  0  1  0  0  0  0  0  0  0  0  0
   17.6654  -11.4056  -15.2676 C   0  0  0  0  0  0  0  0  0  0  0  0
   16.7553  -12.4733  -14.7937 C   0  0  0  0  0  0  0  0  0  0  0  0
   17.2573  -13.5411  -14.3696 O   0  0  0  0  0  0  0  0  0  0  0  0
   18.0941   -9.7609  -16.9817 C   0  0  0  0  0  0  0  0  0  0  0  0
   19.3122   -9.8449  -17.2371 O   0  0  0  0  0  0  0  0  0  0  0  0
   15.3798  -12.3046  -14.8150 O   0  0  0  0  0  0  0  0  0  0  0  0
   17.4811   -8.4922  -16.9894 N   0  0  0  0  0  0  0  0  0  0  0  0
   18.1875   -7.3100  -17.4318 C   0  0  1  0  0  0  0  0  0  0  0  0
   17.2065   -6.1852  -17.7694 C   0  0  0  0  0  0  0  0  0  0  0  0
   18.0194   -5.0613  -18.3591 C   0  0  0  0  0  0  0  0  0  0  0  0
   17.1758   -3.8710  -18.7246 C   0  0  0  0  0  0  0  0  0  0  0  0
   18.1016   -2.8297  -19.3320 C   0  0  0  0  0  0  0  0  0  0  0  0
   18.7108   -2.1108  -18.2183 N   0  0  0  0  0  0  0  0  0  0  0  0
   19.1013   -6.8714  -16.3675 C   0  0  0  0  0  0  0  0  0  0  0  0
   18.7106   -6.9165  -15.1664 O   0  0  0  0  0  0  0  0  0  0  0  0
   20.4282   -6.3917  -16.6482 N   0  0  0  0  0  0  0  0  0  0  0  0
   21.2813   -6.0681  -15.5550 C   0  0  1  0  0  0  0  0  0  0  0  0
   22.5959   -6.8186  -15.5865 C   0  0  0  0  0  0  0  0  0  0  0  0
   22.4567   -8.2014  -15.0647 C   0  0  0  0  0  0  0  0  0  0  0  0
   21.3200   -8.7726  -14.5049 C   0  0  0  0  0  0  0  0  0  0  0  0
   21.6276  -10.0371  -14.1666 N   0  0  0  0  0  0  0  0  0  0  0  0
   22.9065  -10.2877  -14.4880 C   0  0  0  0  0  0  0  0  0  0  0  0
   23.3889   -9.1568  -15.0323 N   0  0  0  0  0  0  0  0  0  0  0  0
   21.6215   -4.6241  -15.5878 C   0  0  0  0  0  0  0  0  0  0  0  0
   22.3497   -4.1656  -14.6756 O   0  0  0  0  0  0  0  0  0  0  0  0
   21.1597   -3.7992  -16.5825 O   0  0  0  0  0  0  0  0  0  0  0  0
  2  1  1  6
  2  3  1  0
  3  4  1  0
  4  5  2  0
  4  8  1  0
  6  7  2  0
  6  2  1  0
  9  6  1  0
 10  9  1  0
 10 11  1  1
 11 12  1  0
 12 13  1  0
 13 14  1  0
 14 15  1  0
 16 17  2  0
 16 10  1  0
 18 16  1  0
 19 18  1  0
 19 20  1  6
 20 21  1  0
 21 25  1  0
 21 22  2  0
 22 23  1  0
 24 23  1  0
 25 24  2  0
 26 28  1  0
 26 19  1  0
 27 26  2  0
M  END
$$$$
