HVY.pdb
     RDKit          3D

 30 31  0  0  1  0  0  0  0  0999 V2000
    9.3649  -16.3043   20.0489 N   0  0  0  0  0  0  0  0  0  0  0  0
    8.7528  -15.4697   21.0409 C   0  0  1  0  0  0  0  0  0  0  0  0
    7.3847  -15.0362   20.5403 C   0  0  0  0  0  0  0  0  0  0  0  0
    7.5043  -14.2454   19.2859 C   0  0  0  0  0  0  0  0  0  0  0  0
    7.1379  -14.6409   18.0152 C   0  0  0  0  0  0  0  0  0  0  0  0
    7.4162  -13.6375   17.1687 N   0  0  0  0  0  0  0  0  0  0  0  0
    7.9521  -12.6173   17.8923 C   0  0  0  0  0  0  0  0  0  0  0  0
    7.9980  -13.0026   19.1694 N   0  0  0  0  0  0  0  0  0  0  0  0
    8.5582  -16.2798   22.3092 C   0  0  0  0  0  0  0  0  0  0  0  0
    7.4168  -16.6083   22.6665 O   0  0  0  0  0  0  0  0  0  0  0  0
   11.8938  -18.7563   24.7178 C   0  0  0  0  0  0  0  0  0  0  0  0
   10.4987  -18.7247   24.1395 C   0  0  2  0  0  0  0  0  0  0  0  0
   10.5599  -19.2820   22.7573 C   0  0  0  0  0  0  0  0  0  0  0  0
    9.8122  -17.4014   24.2520 C   0  0  2  0  0  0  0  0  0  0  0  0
    9.6884  -16.6409   23.0523 N   0  0  0  0  0  0  0  0  0  0  0  0
   10.1710  -16.6159   25.4445 C   0  0  0  0  0  0  0  0  0  0  0  0
   11.1192  -15.7955   25.3768 O   0  0  0  0  0  0  0  0  0  0  0  0
    7.0338  -11.4232   24.6527 O   0  0  0  0  0  0  0  0  0  0  0  0
    7.4565  -12.3697   25.5832 C   0  0  0  0  0  0  0  0  0  0  0  0
    6.7295  -13.4912   25.8998 C   0  0  0  0  0  0  0  0  0  0  0  0
    7.1906  -14.3921   26.8223 C   0  0  0  0  0  0  0  0  0  0  0  0
    8.4111  -14.2217   27.4844 C   0  0  0  0  0  0  0  0  0  0  0  0
    8.8963  -15.1873   28.4926 C   0  0  0  0  0  0  0  0  0  0  0  0
    9.9909  -16.0199   27.8881 C   0  0  2  0  0  0  0  0  0  0  0  0
    9.5132  -16.7189   26.6866 N   0  0  0  0  0  0  0  0  0  0  0  0
   10.6013  -16.9489   28.8373 C   0  0  0  0  0  0  0  0  0  0  0  0
   11.2206  -16.3987   29.9836 O   0  0  0  0  0  0  0  0  0  0  0  0
    9.1228  -13.0934   27.1535 C   0  0  0  0  0  0  0  0  0  0  0  0
    8.6620  -12.1720   26.2166 C   0  0  0  0  0  0  0  0  0  0  0  0
   10.6430  -18.1927   28.7552 O   0  0  0  0  0  0  0  0  0  0  0  0
  2  1  1  6
  2  3  1  0
  4  3  1  0
  4  5  2  0
  6  5  1  0
  7  6  1  0
  8  7  2  0
  8  4  1  0
  9  2  1  0
 10  9  2  0
 12 11  1  6
 12 13  1  0
 12 14  1  0
 14 15  1  6
 15  9  1  0
 16 17  2  0
 16 14  1  0
 18 19  1  0
 19 29  2  0
 20 21  2  0
 20 19  1  0
 21 22  1  0
 22 23  1  0
 22 28  2  0
 24 23  1  1
 24 25  1  0
 25 16  1  0
 26 24  1  0
 27 26  1  0
 29 28  1  0
 30 26  2  0
M  END
$$$$
