HVY.pdb
     RDKit          3D

 30 31  0  0  1  0  0  0  0  0999 V2000
    9.2080  -18.0096   18.1490 N   0  0  0  0  0  0  0  0  0  0  0  0
   10.5241  -17.4879   18.3747 C   0  0  1  0  0  0  0  0  0  0  0  0
   11.0349  -16.8710   17.0829 C   0  0  0  0  0  0  0  0  0  0  0  0
   11.6229  -17.9095   16.1947 C   0  0  0  0  0  0  0  0  0  0  0  0
   12.7524  -18.6659   16.4338 C   0  0  0  0  0  0  0  0  0  0  0  0
   12.9412  -19.4787   15.3829 N   0  0  0  0  0  0  0  0  0  0  0  0
   11.9441  -19.2423   14.4877 C   0  0  0  0  0  0  0  0  0  0  0  0
   11.1573  -18.2908   14.9949 N   0  0  0  0  0  0  0  0  0  0  0  0
   10.4432  -16.3934   19.4226 C   0  0  0  0  0  0  0  0  0  0  0  0
   11.4656  -15.7731   19.7520 O   0  0  0  0  0  0  0  0  0  0  0  0
    7.3820  -13.6684   19.7255 C   0  0  0  0  0  0  0  0  0  0  0  0
    7.5259  -14.5369   20.9530 C   0  0  2  0  0  0  0  0  0  0  0  0
    7.1456  -13.7209   22.1422 C   0  0  0  0  0  0  0  0  0  0  0  0
    8.8434  -15.2343   21.0665 C   0  0  2  0  0  0  0  0  0  0  0  0
    9.1989  -16.1079   19.9972 N   0  0  0  0  0  0  0  0  0  0  0  0
    9.1612  -15.7451   22.4103 C   0  0  0  0  0  0  0  0  0  0  0  0
    8.5525  -16.7545   22.8431 O   0  0  0  0  0  0  0  0  0  0  0  0
   10.2366  -15.5701   31.0348 O   0  0  0  0  0  0  0  0  0  0  0  0
   10.2003  -15.1991   29.6926 C   0  0  0  0  0  0  0  0  0  0  0  0
    9.4962  -14.1142   29.2303 C   0  0  0  0  0  0  0  0  0  0  0  0
    9.4936  -13.7916   27.8994 C   0  0  0  0  0  0  0  0  0  0  0  0
   10.1982  -14.5397   26.9502 C   0  0  0  0  0  0  0  0  0  0  0  0
   10.1779  -14.1984   25.5124 C   0  0  0  0  0  0  0  0  0  0  0  0
   10.1643  -15.4665   24.7070 C   0  0  2  0  0  0  0  0  0  0  0  0
   10.1212  -15.1713   23.2677 N   0  0  0  0  0  0  0  0  0  0  0  0
    9.0956  -16.3853   25.0943 C   0  0  0  0  0  0  0  0  0  0  0  0
    9.4720  -17.6104   25.6925 O   0  0  0  0  0  0  0  0  0  0  0  0
   10.8958  -15.6209   27.4334 C   0  0  0  0  0  0  0  0  0  0  0  0
   10.9044  -15.9564   28.7849 C   0  0  0  0  0  0  0  0  0  0  0  0
    7.8677  -16.2156   24.9568 O   0  0  0  0  0  0  0  0  0  0  0  0
  2  1  1  6
  2  3  1  0
  4  3  1  0
  4  5  2  0
  6  5  1  0
  7  6  1  0
  8  7  2  0
  8  4  1  0
  9  2  1  0
 10  9  2  0
 12 11  1  6
 12 13  1  0
 12 14  1  0
 14 15  1  6
 15  9  1  0
 16 17  2  0
 16 14  1  0
 18 19  1  0
 19 29  2  0
 20 21  2  0
 20 19  1  0
 21 22  1  0
 22 23  1  0
 22 28  2  0
 24 23  1  1
 24 25  1  0
 25 16  1  0
 26 24  1  0
 27 26  1  0
 29 28  1  0
 30 26  2  0
M  END
$$$$
