HVY.pdb
     RDKit          3D

 30 31  0  0  1  0  0  0  0  0999 V2000
   10.0051  -17.9610   17.4539 N   0  0  0  0  0  0  0  0  0  0  0  0
    8.8933  -17.6018   18.2846 C   0  0  1  0  0  0  0  0  0  0  0  0
    8.3428  -18.8591   18.9373 C   0  0  0  0  0  0  0  0  0  0  0  0
    7.6404  -19.7111   17.9403 C   0  0  0  0  0  0  0  0  0  0  0  0
    7.5084  -19.4713   16.5874 C   0  0  0  0  0  0  0  0  0  0  0  0
    6.8014  -20.4781   16.0516 N   0  0  0  0  0  0  0  0  0  0  0  0
    6.4885  -21.3469   17.0511 C   0  0  0  0  0  0  0  0  0  0  0  0
    7.0034  -20.8669   18.1851 N   0  0  0  0  0  0  0  0  0  0  0  0
    9.3820  -16.6739   19.3813 C   0  0  0  0  0  0  0  0  0  0  0  0
   10.5291  -16.8006   19.8358 O   0  0  0  0  0  0  0  0  0  0  0  0
    8.2724  -12.7725   19.4003 C   0  0  0  0  0  0  0  0  0  0  0  0
    8.0090  -13.4164   20.7412 C   0  0  2  0  0  0  0  0  0  0  0  0
    8.3236  -12.4166   21.8024 C   0  0  0  0  0  0  0  0  0  0  0  0
    8.6577  -14.7507   20.9247 C   0  0  2  0  0  0  0  0  0  0  0  0
    8.5131  -15.6846   19.8571 N   0  0  0  0  0  0  0  0  0  0  0  0
    8.5171  -15.3288   22.2715 C   0  0  0  0  0  0  0  0  0  0  0  0
    7.5830  -16.1366   22.4983 O   0  0  0  0  0  0  0  0  0  0  0  0
    5.9337  -10.9355   27.0429 O   0  0  0  0  0  0  0  0  0  0  0  0
    6.3649  -12.1634   26.5463 C   0  0  0  0  0  0  0  0  0  0  0  0
    5.5079  -13.1283   26.0763 C   0  0  0  0  0  0  0  0  0  0  0  0
    5.9835  -14.3199   25.5976 C   0  0  0  0  0  0  0  0  0  0  0  0
    7.3503  -14.6161   25.5619 C   0  0  0  0  0  0  0  0  0  0  0  0
    7.8580  -15.9107   25.0612 C   0  0  0  0  0  0  0  0  0  0  0  0
    9.2892  -15.7453   24.6357 C   0  0  2  0  0  0  0  0  0  0  0  0
    9.3740  -15.0356   23.3512 N   0  0  0  0  0  0  0  0  0  0  0  0
   10.0299  -17.0048   24.5981 C   0  0  0  0  0  0  0  0  0  0  0  0
   10.0410  -17.7916   25.7734 O   0  0  0  0  0  0  0  0  0  0  0  0
    8.1906  -13.6376   26.0369 C   0  0  0  0  0  0  0  0  0  0  0  0
    7.7160  -12.4230   26.5253 C   0  0  0  0  0  0  0  0  0  0  0  0
   10.6664  -17.4775   23.6353 O   0  0  0  0  0  0  0  0  0  0  0  0
  2  1  1  6
  2  3  1  0
  4  3  1  0
  4  5  2  0
  6  5  1  0
  7  6  1  0
  8  7  2  0
  8  4  1  0
  9  2  1  0
 10  9  2  0
 12 11  1  6
 12 13  1  0
 12 14  1  0
 14 15  1  6
 15  9  1  0
 16 17  2  0
 16 14  1  0
 18 19  1  0
 19 29  2  0
 20 21  2  0
 20 19  1  0
 21 22  1  0
 22 23  1  0
 22 28  2  0
 24 23  1  6
 24 25  1  0
 25 16  1  0
 26 24  1  0
 27 26  1  0
 29 28  1  0
 30 26  2  0
M  END
$$$$
