HVY.pdb
     RDKit          3D

 30 31  0  0  1  0  0  0  0  0999 V2000
    9.4016  -18.0317   17.3596 N   0  0  0  0  0  0  0  0  0  0  0  0
    8.4739  -17.8878   18.4429 C   0  0  1  0  0  0  0  0  0  0  0  0
    8.3573  -19.2183   19.1684 C   0  0  0  0  0  0  0  0  0  0  0  0
    7.6822  -20.2318   18.3139 C   0  0  0  0  0  0  0  0  0  0  0  0
    6.5709  -20.0410   17.5177 C   0  0  0  0  0  0  0  0  0  0  0  0
    6.2811  -21.2062   16.9185 N   0  0  0  0  0  0  0  0  0  0  0  0
    7.1969  -22.1255   17.3283 C   0  0  0  0  0  0  0  0  0  0  0  0
    8.0352  -21.5189   18.1713 N   0  0  0  0  0  0  0  0  0  0  0  0
    9.0178  -16.8618   19.4197 C   0  0  0  0  0  0  0  0  0  0  0  0
   10.2337  -16.8182   19.6606 O   0  0  0  0  0  0  0  0  0  0  0  0
    7.5412  -13.1205   19.4149 C   0  0  0  0  0  0  0  0  0  0  0  0
    7.5219  -13.6952   20.8118 C   0  0  2  0  0  0  0  0  0  0  0  0
    7.8501  -12.5973   21.7665 C   0  0  0  0  0  0  0  0  0  0  0  0
    8.3363  -14.9374   20.9809 C   0  0  2  0  0  0  0  0  0  0  0  0
    8.1200  -15.9783   20.0309 N   0  0  0  0  0  0  0  0  0  0  0  0
    8.4877  -15.3953   22.3720 C   0  0  0  0  0  0  0  0  0  0  0  0
    7.6404  -16.1871   22.8534 O   0  0  0  0  0  0  0  0  0  0  0  0
    6.3650  -10.4377   26.8323 O   0  0  0  0  0  0  0  0  0  0  0  0
    6.8624  -11.6758   26.4319 C   0  0  0  0  0  0  0  0  0  0  0  0
    8.1408  -11.8578   25.9638 C   0  0  0  0  0  0  0  0  0  0  0  0
    8.5813  -13.0973   25.5830 C   0  0  0  0  0  0  0  0  0  0  0  0
    7.7642  -14.2309   25.6485 C   0  0  0  0  0  0  0  0  0  0  0  0
    8.2381  -15.5634   25.2193 C   0  0  0  0  0  0  0  0  0  0  0  0
    9.6127  -15.4287   24.6286 C   0  0  2  0  0  0  0  0  0  0  0  0
    9.5388  -15.0013   23.2242 N   0  0  0  0  0  0  0  0  0  0  0  0
   10.4254  -16.6347   24.7760 C   0  0  0  0  0  0  0  0  0  0  0  0
   10.6191  -17.1362   26.0842 O   0  0  0  0  0  0  0  0  0  0  0  0
    6.4890  -14.0271   26.1193 C   0  0  0  0  0  0  0  0  0  0  0  0
    6.0325  -12.7706   26.5090 C   0  0  0  0  0  0  0  0  0  0  0  0
   10.9802  -17.2864   23.8688 O   0  0  0  0  0  0  0  0  0  0  0  0
  2  1  1  6
  2  3  1  0
  4  3  1  0
  4  5  2  0
  6  5  1  0
  7  6  1  0
  8  7  2  0
  8  4  1  0
  9  2  1  0
 10  9  2  0
 12 11  1  6
 12 13  1  0
 12 14  1  0
 14 15  1  6
 15  9  1  0
 16 17  2  0
 16 14  1  0
 18 19  1  0
 19 29  2  0
 20 21  2  0
 20 19  1  0
 21 22  1  0
 22 23  1  0
 22 28  2  0
 24 23  1  6
 24 25  1  0
 25 16  1  0
 26 24  1  0
 27 26  1  0
 29 28  1  0
 30 26  2  0
M  END
$$$$
