HVY.pdb
     RDKit          3D

 30 31  0  0  1  0  0  0  0  0999 V2000
   11.6388  -17.2913   18.1221 N   0  0  0  0  0  0  0  0  0  0  0  0
   11.2488  -17.8508   19.3831 C   0  0  1  0  0  0  0  0  0  0  0  0
   12.4429  -18.5680   19.9914 C   0  0  0  0  0  0  0  0  0  0  0  0
   12.6275  -19.9091   19.3746 C   0  0  0  0  0  0  0  0  0  0  0  0
   12.5392  -21.1338   20.0053 C   0  0  0  0  0  0  0  0  0  0  0  0
   12.7779  -22.0907   19.0952 N   0  0  0  0  0  0  0  0  0  0  0  0
   13.0142  -21.4818   17.9014 C   0  0  0  0  0  0  0  0  0  0  0  0
   12.9195  -20.1638   18.0895 N   0  0  0  0  0  0  0  0  0  0  0  0
   10.8483  -16.7228   20.3157 C   0  0  0  0  0  0  0  0  0  0  0  0
   11.5565  -15.7082   20.4022 O   0  0  0  0  0  0  0  0  0  0  0  0
    7.4078  -14.9620   20.3487 C   0  0  0  0  0  0  0  0  0  0  0  0
    7.6269  -15.5982   21.7011 C   0  0  2  0  0  0  0  0  0  0  0  0
    6.9901  -14.7257   22.7296 C   0  0  0  0  0  0  0  0  0  0  0  0
    9.0463  -15.9708   21.9868 C   0  0  2  0  0  0  0  0  0  0  0  0
    9.6726  -16.8588   21.0637 N   0  0  0  0  0  0  0  0  0  0  0  0
    9.3426  -16.2451   23.4026 C   0  0  0  0  0  0  0  0  0  0  0  0
    9.3772  -17.4346   23.8033 O   0  0  0  0  0  0  0  0  0  0  0  0
    5.0906  -11.8181   27.0856 O   0  0  0  0  0  0  0  0  0  0  0  0
    6.3402  -12.4104   26.9178 C   0  0  0  0  0  0  0  0  0  0  0  0
    7.0852  -12.2843   25.7708 C   0  0  0  0  0  0  0  0  0  0  0  0
    8.3095  -12.8869   25.6566 C   0  0  0  0  0  0  0  0  0  0  0  0
    8.8612  -13.6543   26.6881 C   0  0  0  0  0  0  0  0  0  0  0  0
   10.1749  -14.3179   26.5535 C   0  0  0  0  0  0  0  0  0  0  0  0
   10.0118  -15.5688   25.7380 C   0  0  2  0  0  0  0  0  0  0  0  0
    9.5966  -15.2475   24.3651 N   0  0  0  0  0  0  0  0  0  0  0  0
    9.1133  -16.5452   26.3512 C   0  0  0  0  0  0  0  0  0  0  0  0
    7.9118  -16.8464   25.6686 O   0  0  0  0  0  0  0  0  0  0  0  0
    8.0998  -13.7681   27.8267 C   0  0  0  0  0  0  0  0  0  0  0  0
    6.8540  -13.1588   27.9519 C   0  0  0  0  0  0  0  0  0  0  0  0
    9.2822  -17.1554   27.4257 O   0  0  0  0  0  0  0  0  0  0  0  0
  2  1  1  6
  2  3  1  0
  4  3  1  0
  4  5  2  0
  6  5  1  0
  7  6  1  0
  8  7  2  0
  8  4  1  0
  9  2  1  0
 10  9  2  0
 12 11  1  6
 12 13  1  0
 12 14  1  0
 14 15  1  6
 15  9  1  0
 16 17  2  0
 16 14  1  0
 18 19  1  0
 19 29  2  0
 20 21  2  0
 20 19  1  0
 21 22  1  0
 22 23  1  0
 22 28  2  0
 24 23  1  1
 24 25  1  0
 25 16  1  0
 26 24  1  0
 27 26  1  0
 29 28  1  0
 30 26  2  0
M  END
$$$$
