HVY.pdb
     RDKit          3D

 30 31  0  0  1  0  0  0  0  0999 V2000
    7.1815  -16.7811   21.0757 N   0  0  0  0  0  0  0  0  0  0  0  0
    6.3962  -16.2257   22.1387 C   0  0  1  0  0  0  0  0  0  0  0  0
    5.5591  -17.3321   22.7593 C   0  0  0  0  0  0  0  0  0  0  0  0
    4.6218  -17.9127   21.7605 C   0  0  0  0  0  0  0  0  0  0  0  0
    4.5686  -17.6339   20.4097 C   0  0  0  0  0  0  0  0  0  0  0  0
    3.5792  -18.3632   19.8711 N   0  0  0  0  0  0  0  0  0  0  0  0
    3.0114  -19.0965   20.8669 C   0  0  0  0  0  0  0  0  0  0  0  0
    3.6540  -18.8110   22.0014 N   0  0  0  0  0  0  0  0  0  0  0  0
    7.3300  -15.6837   23.2049 C   0  0  0  0  0  0  0  0  0  0  0  0
    8.4685  -16.1592   23.3326 O   0  0  0  0  0  0  0  0  0  0  0  0
    7.7815  -11.9659   26.5995 C   0  0  0  0  0  0  0  0  0  0  0  0
    7.0176  -12.6335   25.4803 C   0  0  2  0  0  0  0  0  0  0  0  0
    5.5615  -12.5128   25.7800 C   0  0  0  0  0  0  0  0  0  0  0  0
    7.4784  -14.0184   25.1568 C   0  0  2  0  0  0  0  0  0  0  0  0
    6.8757  -14.6455   24.0271 N   0  0  0  0  0  0  0  0  0  0  0  0
    7.6651  -14.8981   26.3225 C   0  0  0  0  0  0  0  0  0  0  0  0
    6.6815  -15.5334   26.7760 O   0  0  0  0  0  0  0  0  0  0  0  0
    9.9981  -22.3401   29.6215 O   0  0  0  0  0  0  0  0  0  0  0  0
    9.7430  -21.1421   28.9581 C   0  0  0  0  0  0  0  0  0  0  0  0
    9.1313  -20.0667   29.5545 C   0  0  0  0  0  0  0  0  0  0  0  0
    8.9038  -18.9102   28.8574 C   0  0  0  0  0  0  0  0  0  0  0  0
    9.2765  -18.7627   27.5171 C   0  0  0  0  0  0  0  0  0  0  0  0
    9.0126  -17.5191   26.7634 C   0  0  0  0  0  0  0  0  0  0  0  0
    9.2370  -16.3404   27.6672 C   0  0  2  0  0  0  0  0  0  0  0  0
    8.8958  -15.0848   26.9834 N   0  0  0  0  0  0  0  0  0  0  0  0
   10.5857  -16.2914   28.2286 C   0  0  0  0  0  0  0  0  0  0  0  0
   10.7393  -16.6380   29.5912 O   0  0  0  0  0  0  0  0  0  0  0  0
    9.8867  -19.8503   26.9391 C   0  0  0  0  0  0  0  0  0  0  0  0
   10.1223  -21.0301   27.6401 C   0  0  0  0  0  0  0  0  0  0  0  0
   11.6376  -15.9734   27.6387 O   0  0  0  0  0  0  0  0  0  0  0  0
  2  1  1  6
  2  3  1  0
  4  3  1  0
  4  5  2  0
  6  5  1  0
  7  6  1  0
  8  7  2  0
  8  4  1  0
  9  2  1  0
 10  9  2  0
 12 11  1  1
 12 13  1  0
 12 14  1  0
 14 15  1  6
 15  9  1  0
 16 17  2  0
 16 14  1  0
 18 19  1  0
 19 29  2  0
 20 21  2  0
 20 19  1  0
 21 22  1  0
 22 23  1  0
 22 28  2  0
 24 23  1  6
 24 25  1  0
 25 16  1  0
 26 24  1  0
 27 26  1  0
 29 28  1  0
 30 26  2  0
M  END
$$$$
