HVY.pdb
     RDKit          3D

 30 31  0  0  1  0  0  0  0  0999 V2000
    7.9025  -17.4748   18.5148 N   0  0  0  0  0  0  0  0  0  0  0  0
    7.8696  -16.2568   19.2702 C   0  0  1  0  0  0  0  0  0  0  0  0
    7.0632  -15.2240   18.5000 C   0  0  0  0  0  0  0  0  0  0  0  0
    7.7456  -14.8566   17.2302 C   0  0  0  0  0  0  0  0  0  0  0  0
    8.7051  -13.8801   17.0540 C   0  0  0  0  0  0  0  0  0  0  0  0
    9.0552  -13.8671   15.7586 N   0  0  0  0  0  0  0  0  0  0  0  0
    8.3278  -14.8235   15.1199 C   0  0  0  0  0  0  0  0  0  0  0  0
    7.5418  -15.4108   16.0247 N   0  0  0  0  0  0  0  0  0  0  0  0
    7.1673  -16.5183   20.5896 C   0  0  0  0  0  0  0  0  0  0  0  0
    5.9329  -16.6350   20.6229 O   0  0  0  0  0  0  0  0  0  0  0  0
    7.5732  -19.5071   23.2744 C   0  0  0  0  0  0  0  0  0  0  0  0
    6.7675  -18.2297   23.2409 C   0  0  2  0  0  0  0  0  0  0  0  0
    5.6803  -18.3968   22.2337 C   0  0  0  0  0  0  0  0  0  0  0  0
    7.5839  -16.9874   23.0819 C   0  0  2  0  0  0  0  0  0  0  0  0
    7.9424  -16.6236   21.7507 N   0  0  0  0  0  0  0  0  0  0  0  0
    8.6565  -16.8185   24.0763 C   0  0  0  0  0  0  0  0  0  0  0  0
    9.7857  -17.3199   23.8524 O   0  0  0  0  0  0  0  0  0  0  0  0
    5.0340  -11.5620   27.3015 O   0  0  0  0  0  0  0  0  0  0  0  0
    6.2348  -12.2232   27.0536 C   0  0  0  0  0  0  0  0  0  0  0  0
    7.2298  -12.3538   27.9914 C   0  0  0  0  0  0  0  0  0  0  0  0
    8.3925  -13.0146   27.6969 C   0  0  0  0  0  0  0  0  0  0  0  0
    8.6278  -13.5849   26.4414 C   0  0  0  0  0  0  0  0  0  0  0  0
    9.8917  -14.2813   26.1223 C   0  0  0  0  0  0  0  0  0  0  0  0
    9.6528  -15.7643   26.1390 C   0  0  2  0  0  0  0  0  0  0  0  0
    8.5062  -16.1188   25.2903 N   0  0  0  0  0  0  0  0  0  0  0  0
    9.5065  -16.3107   27.4869 C   0  0  0  0  0  0  0  0  0  0  0  0
   10.5992  -16.1651   28.3730 O   0  0  0  0  0  0  0  0  0  0  0  0
    7.6201  -13.4428   25.5175 C   0  0  0  0  0  0  0  0  0  0  0  0
    6.4344  -12.7728   25.8081 C   0  0  0  0  0  0  0  0  0  0  0  0
    8.5147  -16.9023   27.9579 O   0  0  0  0  0  0  0  0  0  0  0  0
  2  1  1  6
  2  3  1  0
  4  3  1  0
  4  5  2  0
  6  5  1  0
  7  6  1  0
  8  7  2  0
  8  4  1  0
  9  2  1  0
 10  9  2  0
 12 11  1  6
 12 13  1  0
 12 14  1  0
 14 15  1  6
 15  9  1  0
 16 17  2  0
 16 14  1  0
 18 19  1  0
 19 29  2  0
 20 21  2  0
 20 19  1  0
 21 22  1  0
 22 23  1  0
 22 28  2  0
 24 23  1  1
 24 25  1  0
 25 16  1  0
 26 24  1  0
 27 26  1  0
 29 28  1  0
 30 26  2  0
M  END
$$$$
