HVY.pdb
     RDKit          3D

 30 31  0  0  1  0  0  0  0  0999 V2000
    6.5450  -16.4292   19.9457 N   0  0  0  0  0  0  0  0  0  0  0  0
    7.4821  -15.9133   20.9000 C   0  0  1  0  0  0  0  0  0  0  0  0
    7.3110  -14.4056   20.9893 C   0  0  0  0  0  0  0  0  0  0  0  0
    7.7363  -13.7471   19.7250 C   0  0  0  0  0  0  0  0  0  0  0  0
    6.9294  -13.0947   18.8147 C   0  0  0  0  0  0  0  0  0  0  0  0
    7.7039  -12.6498   17.8133 N   0  0  0  0  0  0  0  0  0  0  0  0
    8.9867  -13.0143   18.0840 C   0  0  0  0  0  0  0  0  0  0  0  0
    8.9870  -13.6767   19.2428 N   0  0  0  0  0  0  0  0  0  0  0  0
    7.1707  -16.5067   22.2614 C   0  0  0  0  0  0  0  0  0  0  0  0
    5.9938  -16.7160   22.5925 O   0  0  0  0  0  0  0  0  0  0  0  0
    9.7327  -19.5040   23.9343 C   0  0  0  0  0  0  0  0  0  0  0  0
    8.3644  -18.9861   24.3104 C   0  0  2  0  0  0  0  0  0  0  0  0
    7.3619  -19.6487   23.4269 C   0  0  0  0  0  0  0  0  0  0  0  0
    8.2614  -17.4957   24.3679 C   0  0  2  0  0  0  0  0  0  0  0  0
    8.2353  -16.8077   23.1194 N   0  0  0  0  0  0  0  0  0  0  0  0
    9.0870  -16.8565   25.4059 C   0  0  0  0  0  0  0  0  0  0  0  0
   10.2405  -16.4563   25.1128 O   0  0  0  0  0  0  0  0  0  0  0  0
    6.4499  -11.1786   25.0362 O   0  0  0  0  0  0  0  0  0  0  0  0
    6.9836  -12.1410   25.8903 C   0  0  0  0  0  0  0  0  0  0  0  0
    6.2890  -13.2533   26.2987 C   0  0  0  0  0  0  0  0  0  0  0  0
    6.8604  -14.1706   27.1398 C   0  0  0  0  0  0  0  0  0  0  0  0
    8.1653  -14.0269   27.6230 C   0  0  0  0  0  0  0  0  0  0  0  0
    8.7715  -15.0102   28.5450 C   0  0  0  0  0  0  0  0  0  0  0  0
    9.5341  -16.0278   27.7452 C   0  0  2  0  0  0  0  0  0  0  0  0
    8.6685  -16.6556   26.7366 N   0  0  0  0  0  0  0  0  0  0  0  0
   10.2014  -17.0309   28.5729 C   0  0  0  0  0  0  0  0  0  0  0  0
   11.1945  -16.5797   29.4731 O   0  0  0  0  0  0  0  0  0  0  0  0
    8.8427  -12.9073   27.2026 C   0  0  0  0  0  0  0  0  0  0  0  0
    8.2700  -11.9694   26.3474 C   0  0  0  0  0  0  0  0  0  0  0  0
    9.9965  -18.2612   28.5797 O   0  0  0  0  0  0  0  0  0  0  0  0
  2  1  1  6
  2  3  1  0
  4  3  1  0
  4  5  2  0
  6  5  1  0
  7  6  1  0
  8  7  2  0
  8  4  1  0
  9  2  1  0
 10  9  2  0
 12 11  1  6
 12 13  1  0
 12 14  1  0
 14 15  1  6
 15  9  1  0
 16 17  2  0
 16 14  1  0
 18 19  1  0
 19 29  2  0
 20 21  2  0
 20 19  1  0
 21 22  1  0
 22 23  1  0
 22 28  2  0
 24 23  1  1
 24 25  1  0
 25 16  1  0
 26 24  1  0
 27 26  1  0
 29 28  1  0
 30 26  2  0
M  END
$$$$
