HVY.pdb
     RDKit          3D

 30 31  0  0  1  0  0  0  0  0999 V2000
   12.0861  -17.0827   18.7449 N   0  0  0  0  0  0  0  0  0  0  0  0
   10.7975  -17.3422   19.3170 C   0  0  1  0  0  0  0  0  0  0  0  0
   10.8297  -18.6985   20.0024 C   0  0  0  0  0  0  0  0  0  0  0  0
   10.7928  -19.7996   19.0027 C   0  0  0  0  0  0  0  0  0  0  0  0
   10.7135  -19.6746   17.6303 C   0  0  0  0  0  0  0  0  0  0  0  0
   10.6996  -20.9066   17.0986 N   0  0  0  0  0  0  0  0  0  0  0  0
   10.7697  -21.8030   18.1200 C   0  0  0  0  0  0  0  0  0  0  0  0
   10.8250  -21.1160   19.2630 N   0  0  0  0  0  0  0  0  0  0  0  0
   10.5077  -16.2871   20.3684 C   0  0  0  0  0  0  0  0  0  0  0  0
   11.4243  -15.8572   21.0851 O   0  0  0  0  0  0  0  0  0  0  0  0
    6.2107  -14.7995   20.6829 C   0  0  0  0  0  0  0  0  0  0  0  0
    7.4996  -14.0536   20.9362 C   0  0  2  0  0  0  0  0  0  0  0  0
    7.8171  -13.2549   19.7172 C   0  0  0  0  0  0  0  0  0  0  0  0
    8.6205  -14.9072   21.4359 C   0  0  2  0  0  0  0  0  0  0  0  0
    9.1950  -15.8194   20.5027 N   0  0  0  0  0  0  0  0  0  0  0  0
    8.4295  -15.4513   22.7906 C   0  0  0  0  0  0  0  0  0  0  0  0
    8.2757  -16.6886   22.9392 O   0  0  0  0  0  0  0  0  0  0  0  0
   11.6686  -15.4889   30.5390 O   0  0  0  0  0  0  0  0  0  0  0  0
   10.8043  -15.1258   29.5086 C   0  0  0  0  0  0  0  0  0  0  0  0
   10.7133  -13.8462   29.0180 C   0  0  0  0  0  0  0  0  0  0  0  0
    9.8467  -13.5414   28.0024 C   0  0  0  0  0  0  0  0  0  0  0  0
    9.0173  -14.5039   27.4168 C   0  0  0  0  0  0  0  0  0  0  0  0
    8.0706  -14.1666   26.3332 C   0  0  0  0  0  0  0  0  0  0  0  0
    8.1217  -15.2411   25.2846 C   0  0  2  0  0  0  0  0  0  0  0  0
    8.4059  -14.6674   23.9615 N   0  0  0  0  0  0  0  0  0  0  0  0
    6.9234  -16.0777   25.2559 C   0  0  0  0  0  0  0  0  0  0  0  0
    5.8546  -15.6599   24.4291 O   0  0  0  0  0  0  0  0  0  0  0  0
    9.1237  -15.7776   27.9222 C   0  0  0  0  0  0  0  0  0  0  0  0
   10.0020  -16.0968   28.9546 C   0  0  0  0  0  0  0  0  0  0  0  0
    6.7264  -17.1356   25.8862 O   0  0  0  0  0  0  0  0  0  0  0  0
  2  1  1  1
  2  3  1  0
  4  3  1  0
  4  5  2  0
  6  5  1  0
  7  6  1  0
  8  7  2  0
  8  4  1  0
  9  2  1  0
 10  9  2  0
 12 11  1  6
 12 13  1  0
 12 14  1  0
 14 15  1  6
 15  9  1  0
 16 17  2  0
 16 14  1  0
 18 19  1  0
 19 29  2  0
 20 21  2  0
 20 19  1  0
 21 22  1  0
 22 23  1  0
 22 28  2  0
 24 23  1  1
 24 25  1  0
 25 16  1  0
 26 24  1  0
 27 26  1  0
 29 28  1  0
 30 26  2  0
M  END
$$$$
