HVY.pdb
     RDKit          3D

 30 31  0  0  1  0  0  0  0  0999 V2000
    9.8505  -17.3477   16.1432 N   0  0  0  0  0  0  0  0  0  0  0  0
    8.7544  -17.3367   17.0672 C   0  0  1  0  0  0  0  0  0  0  0  0
    8.3841  -18.7715   17.4054 C   0  0  0  0  0  0  0  0  0  0  0  0
    7.8290  -19.4712   16.2157 C   0  0  0  0  0  0  0  0  0  0  0  0
    6.5612  -19.3352   15.6872 C   0  0  0  0  0  0  0  0  0  0  0  0
    6.4636  -20.1446   14.6214 N   0  0  0  0  0  0  0  0  0  0  0  0
    7.6544  -20.7864   14.4741 C   0  0  0  0  0  0  0  0  0  0  0  0
    8.4670  -20.3673   15.4465 N   0  0  0  0  0  0  0  0  0  0  0  0
    9.1985  -16.6485   18.3446 C   0  0  0  0  0  0  0  0  0  0  0  0
   10.3170  -16.8903   18.8231 O   0  0  0  0  0  0  0  0  0  0  0  0
    7.4594  -12.9054   19.2224 C   0  0  0  0  0  0  0  0  0  0  0  0
    7.4923  -13.8799   20.3762 C   0  0  2  0  0  0  0  0  0  0  0  0
    7.7043  -13.1017   21.6308 C   0  0  0  0  0  0  0  0  0  0  0  0
    8.4269  -15.0313   20.1870 C   0  0  2  0  0  0  0  0  0  0  0  0
    8.3218  -15.7450   18.9572 N   0  0  0  0  0  0  0  0  0  0  0  0
    8.6163  -15.8784   21.3762 C   0  0  0  0  0  0  0  0  0  0  0  0
    7.8621  -16.8667   21.5523 O   0  0  0  0  0  0  0  0  0  0  0  0
   14.8831  -18.6267   20.3634 O   0  0  0  0  0  0  0  0  0  0  0  0
   13.6910  -18.4540   21.0631 C   0  0  0  0  0  0  0  0  0  0  0  0
   13.6412  -18.1353   22.3982 C   0  0  0  0  0  0  0  0  0  0  0  0
   12.4419  -17.9759   23.0397 C   0  0  0  0  0  0  0  0  0  0  0  0
   11.2179  -18.1273   22.3794 C   0  0  0  0  0  0  0  0  0  0  0  0
    9.9259  -17.9721   23.0801 C   0  0  0  0  0  0  0  0  0  0  0  0
    9.7726  -16.5429   23.5164 C   0  0  2  0  0  0  0  0  0  0  0  0
    9.6053  -15.6569   22.3555 N   0  0  0  0  0  0  0  0  0  0  0  0
   10.8558  -16.0845   24.3842 C   0  0  0  0  0  0  0  0  0  0  0  0
   11.5437  -14.9084   24.0048 O   0  0  0  0  0  0  0  0  0  0  0  0
   11.2899  -18.4464   21.0444 C   0  0  0  0  0  0  0  0  0  0  0  0
   12.5047  -18.6103   20.3838 C   0  0  0  0  0  0  0  0  0  0  0  0
   11.2545  -16.6173   25.4390 O   0  0  0  0  0  0  0  0  0  0  0  0
  2  1  1  6
  2  3  1  0
  4  3  1  0
  4  5  2  0
  6  5  1  0
  7  6  1  0
  8  7  2  0
  8  4  1  0
  9  2  1  0
 10  9  2  0
 12 11  1  6
 12 13  1  0
 12 14  1  0
 14 15  1  6
 15  9  1  0
 16 17  2  0
 16 14  1  0
 18 19  1  0
 19 29  2  0
 20 21  2  0
 20 19  1  0
 21 22  1  0
 22 23  1  0
 22 28  2  0
 24 23  1  6
 24 25  1  0
 25 16  1  0
 26 24  1  0
 27 26  1  0
 29 28  1  0
 30 26  2  0
M  END
$$$$
