NKY.pdb
     RDKit          3D

 30 30  0  0  1  0  0  0  0  0999 V2000
   30.8396  -27.2301  -20.8094 N   0  0  0  0  0  0  0  0  0  0  0  0
   29.7637  -26.3210  -20.8431 C   0  0  0  0  0  0  0  0  0  0  0  0
   30.0212  -25.0773  -20.9137 O   0  0  0  0  0  0  0  0  0  0  0  0
   28.3568  -26.7981  -20.8016 C   0  0  0  0  0  0  0  0  0  0  0  0
   28.3548  -28.2728  -20.4504 C   0  0  2  0  0  0  0  0  0  0  0  0
   28.9492  -29.0556  -21.4891 N   0  0  0  0  0  0  0  0  0  0  0  0
   27.0267  -28.7566  -20.0151 C   0  0  0  0  0  0  0  0  0  0  0  0
   26.1278  -28.8717  -20.8860 O   0  0  0  0  0  0  0  0  0  0  0  0
   26.7220  -29.0983  -18.6430 N   0  0  0  0  0  0  0  0  0  0  0  0
   25.4208  -29.5895  -18.2810 C   0  0  1  0  0  0  0  0  0  0  0  0
   25.3422  -30.1947  -16.9200 C   0  0  0  0  0  0  0  0  0  0  0  0
   26.0177  -31.4860  -16.7143 C   0  0  0  0  0  0  0  0  0  0  0  0
   27.3482  -31.4141  -16.0498 C   0  0  0  0  0  0  0  0  0  0  0  0
   27.8243  -32.8860  -15.9446 C   0  0  0  0  0  0  0  0  0  0  0  0
   29.1756  -32.7891  -15.3936 N   0  0  0  0  0  0  0  0  0  0  0  0
   24.4917  -28.3893  -18.2252 C   0  0  0  0  0  0  0  0  0  0  0  0
   24.9540  -27.3320  -17.8286 O   0  0  0  0  0  0  0  0  0  0  0  0
   18.1993  -22.6649  -20.2939 O   0  0  0  0  0  0  0  0  0  0  0  0
   19.1105  -23.7401  -20.2347 C   0  0  0  0  0  0  0  0  0  0  0  0
   20.4596  -23.5356  -20.0984 C   0  0  0  0  0  0  0  0  0  0  0  0
   21.3388  -24.5749  -20.0415 C   0  0  0  0  0  0  0  0  0  0  0  0
   20.9086  -25.9064  -20.1191 C   0  0  0  0  0  0  0  0  0  0  0  0
   21.8623  -27.0178  -20.0702 C   0  0  0  0  0  0  0  0  0  0  0  0
   22.2096  -27.4106  -18.6599 C   0  0  2  0  0  0  0  0  0  0  0  0
   23.1493  -28.5052  -18.6207 N   0  0  0  0  0  0  0  0  0  0  0  0
   21.0209  -27.7963  -17.8705 C   0  0  0  0  0  0  0  0  0  0  0  0
   20.4721  -26.8866  -16.9699 O   0  0  0  0  0  0  0  0  0  0  0  0
   19.5479  -26.1093  -20.2558 C   0  0  0  0  0  0  0  0  0  0  0  0
   18.6571  -25.0468  -20.3134 C   0  0  0  0  0  0  0  0  0  0  0  0
   20.4451  -28.9062  -17.9437 O   0  0  0  0  0  0  0  0  0  0  0  0
  2  1  1  0
  2  3  2  0
  4  5  1  0
  4  2  1  0
  5  7  1  0
  5  6  1  6
  7  8  2  0
  9 10  1  0
  9  7  1  0
 11 12  1  0
 10 11  1  1
 12 13  1  0
 13 14  1  0
 14 15  1  0
 16 17  2  0
 16 10  1  0
 18 19  1  0
 19 20  2  0
 19 29  1  0
 20 21  1  0
 21 22  2  0
 22 23  1  0
 24 23  1  6
 24 26  1  0
 24 25  1  0
 25 16  1  0
 26 27  1  0
 28 22  1  0
 29 28  2  0
 30 26  2  0
M  END
$$$$
