NKY.pdb
     RDKit          3D

 30 30  0  0  1  0  0  0  0  0999 V2000
   30.7868  -16.6674  -19.3964 N   0  0  0  0  0  0  0  0  0  0  0  0
   29.4319  -16.6868  -19.7825 C   0  0  0  0  0  0  0  0  0  0  0  0
   28.9040  -15.6078  -20.2011 O   0  0  0  0  0  0  0  0  0  0  0  0
   28.6328  -17.9376  -19.7088 C   0  0  0  0  0  0  0  0  0  0  0  0
   29.5079  -19.0398  -19.1454 C   0  0  2  0  0  0  0  0  0  0  0  0
   30.6891  -19.2191  -19.9314 N   0  0  0  0  0  0  0  0  0  0  0  0
   28.7603  -20.2893  -18.8862 C   0  0  0  0  0  0  0  0  0  0  0  0
   27.5735  -20.3603  -19.2938 O   0  0  0  0  0  0  0  0  0  0  0  0
   29.3317  -21.4209  -18.1896 N   0  0  0  0  0  0  0  0  0  0  0  0
   28.5901  -22.6433  -18.0438 C   0  0  1  0  0  0  0  0  0  0  0  0
   29.3718  -23.7797  -17.4761 C   0  0  0  0  0  0  0  0  0  0  0  0
   28.6804  -25.0711  -17.3330 C   0  0  0  0  0  0  0  0  0  0  0  0
   29.4946  -26.1720  -16.7482 C   0  0  0  0  0  0  0  0  0  0  0  0
   28.6046  -27.4361  -16.8673 C   0  0  0  0  0  0  0  0  0  0  0  0
   29.3610  -28.4762  -16.1707 N   0  0  0  0  0  0  0  0  0  0  0  0
   27.4942  -22.3803  -17.0256 C   0  0  0  0  0  0  0  0  0  0  0  0
   27.8282  -21.9716  -15.9255 O   0  0  0  0  0  0  0  0  0  0  0  0
   19.9990  -19.6325  -13.5578 O   0  0  0  0  0  0  0  0  0  0  0  0
   21.2068  -19.9277  -14.2241 C   0  0  0  0  0  0  0  0  0  0  0  0
   21.3093  -19.8718  -15.5904 C   0  0  0  0  0  0  0  0  0  0  0  0
   22.4763  -20.1572  -16.2329 C   0  0  0  0  0  0  0  0  0  0  0  0
   23.6321  -20.5224  -15.5295 C   0  0  0  0  0  0  0  0  0  0  0  0
   24.8796  -20.8405  -16.2293 C   0  0  0  0  0  0  0  0  0  0  0  0
   25.0344  -22.3163  -16.4781 C   0  0  2  0  0  0  0  0  0  0  0  0
   26.1466  -22.6022  -17.3521 N   0  0  0  0  0  0  0  0  0  0  0  0
   23.8204  -22.9219  -17.0652 C   0  0  0  0  0  0  0  0  0  0  0  0
   22.8482  -23.4591  -16.2250 O   0  0  0  0  0  0  0  0  0  0  0  0
   23.5258  -20.5773  -14.1522 C   0  0  0  0  0  0  0  0  0  0  0  0
   22.3344  -20.2857  -13.5032 C   0  0  0  0  0  0  0  0  0  0  0  0
   23.5821  -22.9961  -18.2925 O   0  0  0  0  0  0  0  0  0  0  0  0
  2  1  1  0
  2  3  2  0
  4  5  1  0
  4  2  1  0
  5  7  1  0
  5  6  1  6
  7  8  2  0
  9 10  1  0
  9  7  1  0
 11 12  1  0
 10 11  1  1
 12 13  1  0
 13 14  1  0
 14 15  1  0
 16 17  2  0
 16 10  1  0
 18 19  1  0
 19 20  2  0
 19 29  1  0
 20 21  1  0
 21 22  2  0
 22 23  1  0
 24 23  1  6
 24 26  1  0
 24 25  1  0
 25 16  1  0
 26 27  1  0
 28 22  1  0
 29 28  2  0
 30 26  2  0
M  END
$$$$
