NKY.pdb
     RDKit          3D

 30 30  0  0  1  0  0  0  0  0999 V2000
   25.4247  -24.8341  -15.4793 N   0  0  0  0  0  0  0  0  0  0  0  0
   25.6975  -24.5879  -16.8395 C   0  0  0  0  0  0  0  0  0  0  0  0
   25.4320  -23.4379  -17.3139 O   0  0  0  0  0  0  0  0  0  0  0  0
   26.2861  -25.6427  -17.7053 C   0  0  0  0  0  0  0  0  0  0  0  0
   27.3624  -26.3684  -16.9222 C   0  0  2  0  0  0  0  0  0  0  0  0
   28.3665  -25.4628  -16.4565 N   0  0  0  0  0  0  0  0  0  0  0  0
   27.8976  -27.5459  -17.6393 C   0  0  0  0  0  0  0  0  0  0  0  0
   27.5078  -27.7447  -18.8175 O   0  0  0  0  0  0  0  0  0  0  0  0
   28.8405  -28.4693  -17.0470 N   0  0  0  0  0  0  0  0  0  0  0  0
   29.3870  -29.5535  -17.8159 C   0  0  1  0  0  0  0  0  0  0  0  0
   30.8479  -29.7801  -17.6182 C   0  0  0  0  0  0  0  0  0  0  0  0
   31.6830  -29.8986  -18.8243 C   0  0  0  0  0  0  0  0  0  0  0  0
   32.0735  -31.2857  -19.1992 C   0  0  0  0  0  0  0  0  0  0  0  0
   33.0331  -31.1201  -20.4059 C   0  0  0  0  0  0  0  0  0  0  0  0
   33.4658  -32.4832  -20.7118 N   0  0  0  0  0  0  0  0  0  0  0  0
   28.7269  -30.8282  -17.3195 C   0  0  0  0  0  0  0  0  0  0  0  0
   28.6781  -31.0093  -16.1138 O   0  0  0  0  0  0  0  0  0  0  0  0
   23.7376  -38.1080  -17.1232 O   0  0  0  0  0  0  0  0  0  0  0  0
   24.3391  -36.8678  -17.4232 C   0  0  0  0  0  0  0  0  0  0  0  0
   24.3060  -35.8181  -16.5414 C   0  0  0  0  0  0  0  0  0  0  0  0
   24.8871  -34.6206  -16.8322 C   0  0  0  0  0  0  0  0  0  0  0  0
   25.5490  -34.4010  -18.0478 C   0  0  0  0  0  0  0  0  0  0  0  0
   26.1600  -33.1057  -18.3578 C   0  0  0  0  0  0  0  0  0  0  0  0
   27.5736  -33.0055  -17.8522 C   0  0  2  0  0  0  0  0  0  0  0  0
   28.1934  -31.7574  -18.2272 N   0  0  0  0  0  0  0  0  0  0  0  0
   28.4287  -34.1084  -18.3394 C   0  0  0  0  0  0  0  0  0  0  0  0
   28.5431  -35.2719  -17.5824 O   0  0  0  0  0  0  0  0  0  0  0  0
   25.5813  -35.4614  -18.9343 C   0  0  0  0  0  0  0  0  0  0  0  0
   24.9873  -36.6788  -18.6328 C   0  0  0  0  0  0  0  0  0  0  0  0
   29.0803  -34.0873  -19.4088 O   0  0  0  0  0  0  0  0  0  0  0  0
  2  1  1  0
  2  3  2  0
  4  5  1  0
  4  2  1  0
  5  7  1  0
  5  6  1  6
  7  8  2  0
  9 10  1  0
  9  7  1  0
 11 12  1  0
 10 11  1  1
 12 13  1  0
 13 14  1  0
 14 15  1  0
 16 17  2  0
 16 10  1  0
 18 19  1  0
 19 20  2  0
 19 29  1  0
 20 21  1  0
 21 22  2  0
 22 23  1  0
 24 23  1  6
 24 26  1  0
 24 25  1  0
 25 16  1  0
 26 27  1  0
 28 22  1  0
 29 28  2  0
 30 26  2  0
M  END
$$$$
