NKY.pdb
     RDKit          3D

 30 30  0  0  1  0  0  0  0  0999 V2000
   24.8914  -15.2119  -19.0187 N   0  0  0  0  0  0  0  0  0  0  0  0
   24.1384  -16.2983  -19.5064 C   0  0  0  0  0  0  0  0  0  0  0  0
   23.1540  -16.0587  -20.2756 O   0  0  0  0  0  0  0  0  0  0  0  0
   24.4837  -17.6959  -19.1374 C   0  0  0  0  0  0  0  0  0  0  0  0
   25.6047  -17.6655  -18.1173 C   0  0  2  0  0  0  0  0  0  0  0  0
   26.7815  -17.0569  -18.6557 N   0  0  0  0  0  0  0  0  0  0  0  0
   25.8411  -18.9819  -17.4860 C   0  0  0  0  0  0  0  0  0  0  0  0
   24.8479  -19.7262  -17.2873 O   0  0  0  0  0  0  0  0  0  0  0  0
   27.1538  -19.4433  -17.0908 N   0  0  0  0  0  0  0  0  0  0  0  0
   27.3317  -20.7527  -16.5257 C   0  0  1  0  0  0  0  0  0  0  0  0
   28.6758  -21.3541  -16.7636 C   0  0  0  0  0  0  0  0  0  0  0  0
   28.7927  -22.3395  -17.8505 C   0  0  0  0  0  0  0  0  0  0  0  0
   30.1753  -22.8076  -18.1445 C   0  0  0  0  0  0  0  0  0  0  0  0
   30.0359  -23.7075  -19.3996 C   0  0  0  0  0  0  0  0  0  0  0  0
   31.4106  -24.0833  -19.7279 N   0  0  0  0  0  0  0  0  0  0  0  0
   27.2359  -20.6032  -15.0173 C   0  0  0  0  0  0  0  0  0  0  0  0
   27.7467  -19.6172  -14.5114 O   0  0  0  0  0  0  0  0  0  0  0  0
   23.8180  -20.0616   -7.0877 O   0  0  0  0  0  0  0  0  0  0  0  0
   24.2352  -20.0945   -8.4348 C   0  0  0  0  0  0  0  0  0  0  0  0
   23.3899  -20.4826   -9.4425 C   0  0  0  0  0  0  0  0  0  0  0  0
   23.7940  -20.5141  -10.7433 C   0  0  0  0  0  0  0  0  0  0  0  0
   25.0947  -20.1508  -11.1177 C   0  0  0  0  0  0  0  0  0  0  0  0
   25.5248  -20.2002  -12.5176 C   0  0  0  0  0  0  0  0  0  0  0  0
   26.3066  -21.4469  -12.8312 C   0  0  2  0  0  0  0  0  0  0  0  0
   26.5781  -21.5725  -14.2430 N   0  0  0  0  0  0  0  0  0  0  0  0
   25.6164  -22.6753  -12.3844 C   0  0  0  0  0  0  0  0  0  0  0  0
   26.0020  -23.2821  -11.1915 O   0  0  0  0  0  0  0  0  0  0  0  0
   25.9443  -19.7594  -10.0997 C   0  0  0  0  0  0  0  0  0  0  0  0
   25.5272  -19.7296   -8.7765 C   0  0  0  0  0  0  0  0  0  0  0  0
   24.6844  -23.2362  -13.0052 O   0  0  0  0  0  0  0  0  0  0  0  0
  2  1  1  0
  2  3  2  0
  4  5  1  0
  4  2  1  0
  5  7  1  0
  5  6  1  6
  7  8  2  0
  9 10  1  0
  9  7  1  0
 11 12  1  0
 10 11  1  1
 12 13  1  0
 13 14  1  0
 14 15  1  0
 16 17  2  0
 16 10  1  0
 18 19  1  0
 19 20  2  0
 19 29  1  0
 20 21  1  0
 21 22  2  0
 22 23  1  0
 24 23  1  6
 24 26  1  0
 24 25  1  0
 25 16  1  0
 26 27  1  0
 28 22  1  0
 29 28  2  0
 30 26  2  0
M  END
$$$$
