NKY.pdb
     RDKit          3D

 30 30  0  0  1  0  0  0  0  0999 V2000
   16.1904   -9.8740  -21.7768 N   0  0  0  0  0  0  0  0  0  0  0  0
   17.5690   -9.9233  -21.4900 C   0  0  0  0  0  0  0  0  0  0  0  0
   18.3939   -9.8194  -22.4526 O   0  0  0  0  0  0  0  0  0  0  0  0
   18.0552  -10.0888  -20.0954 C   0  0  0  0  0  0  0  0  0  0  0  0
   19.3065  -10.9444  -20.1162 C   0  0  2  0  0  0  0  0  0  0  0  0
   18.9849  -12.3334  -20.2280 N   0  0  0  0  0  0  0  0  0  0  0  0
   20.2361  -10.6274  -19.0105 C   0  0  0  0  0  0  0  0  0  0  0  0
   19.8999  -10.9588  -17.8457 O   0  0  0  0  0  0  0  0  0  0  0  0
   21.5025   -9.9580  -19.2116 N   0  0  0  0  0  0  0  0  0  0  0  0
   22.4131   -9.7665  -18.1162 C   0  0  1  0  0  0  0  0  0  0  0  0
   23.8376  -10.0761  -18.4318 C   0  0  0  0  0  0  0  0  0  0  0  0
   24.8288   -9.8589  -17.3657 C   0  0  0  0  0  0  0  0  0  0  0  0
   26.2146  -10.3037  -17.6795 C   0  0  0  0  0  0  0  0  0  0  0  0
   26.9870  -10.1852  -16.3402 C   0  0  0  0  0  0  0  0  0  0  0  0
   28.3337  -10.6593  -16.6577 N   0  0  0  0  0  0  0  0  0  0  0  0
   22.4035   -8.2846  -17.7833 C   0  0  0  0  0  0  0  0  0  0  0  0
   22.7843   -7.5075  -18.6435 O   0  0  0  0  0  0  0  0  0  0  0  0
   17.5376   -9.6181  -12.6437 O   0  0  0  0  0  0  0  0  0  0  0  0
   18.2560   -8.7248  -13.4656 C   0  0  0  0  0  0  0  0  0  0  0  0
   18.2872   -8.8656  -14.8294 C   0  0  0  0  0  0  0  0  0  0  0  0
   18.9815   -8.0022  -15.6223 C   0  0  0  0  0  0  0  0  0  0  0  0
   19.6993   -6.9255  -15.0841 C   0  0  0  0  0  0  0  0  0  0  0  0
   20.4541   -6.0094  -15.9432 C   0  0  0  0  0  0  0  0  0  0  0  0
   21.8797   -6.4506  -16.1351 C   0  0  2  0  0  0  0  0  0  0  0  0
   21.9674   -7.8371  -16.5258 N   0  0  0  0  0  0  0  0  0  0  0  0
   22.6991   -6.2625  -14.9193 C   0  0  0  0  0  0  0  0  0  0  0  0
   22.8636   -4.9824  -14.3956 O   0  0  0  0  0  0  0  0  0  0  0  0
   19.6653   -6.7859  -13.7091 C   0  0  0  0  0  0  0  0  0  0  0  0
   18.9565   -7.6685  -12.9064 C   0  0  0  0  0  0  0  0  0  0  0  0
   23.2770   -7.1841  -14.2985 O   0  0  0  0  0  0  0  0  0  0  0  0
  2  1  1  0
  2  3  2  0
  4  5  1  0
  4  2  1  0
  5  7  1  0
  5  6  1  1
  7  8  2  0
  9 10  1  0
  9  7  1  0
 11 12  1  0
 10 11  1  6
 12 13  1  0
 13 14  1  0
 14 15  1  0
 16 17  2  0
 16 10  1  0
 18 19  1  0
 19 20  2  0
 19 29  1  0
 20 21  1  0
 21 22  2  0
 22 23  1  0
 24 23  1  1
 24 26  1  0
 24 25  1  0
 25 16  1  0
 26 27  1  0
 28 22  1  0
 29 28  2  0
 30 26  2  0
M  END
$$$$
