NKY.pdb
     RDKit          3D

 30 30  0  0  1  0  0  0  0  0999 V2000
   23.8620   -9.8803  -15.2538 N   0  0  0  0  0  0  0  0  0  0  0  0
   22.9136  -10.9221  -15.2698 C   0  0  0  0  0  0  0  0  0  0  0  0
   23.1889  -11.9846  -15.9126 O   0  0  0  0  0  0  0  0  0  0  0  0
   21.6199  -10.7906  -14.5501 C   0  0  0  0  0  0  0  0  0  0  0  0
   20.5489  -10.3925  -15.5463 C   0  0  2  0  0  0  0  0  0  0  0  0
   21.1006  -10.1907  -16.8502 N   0  0  0  0  0  0  0  0  0  0  0  0
   19.7077   -9.2743  -15.0674 C   0  0  0  0  0  0  0  0  0  0  0  0
   19.9372   -8.1268  -15.5259 O   0  0  0  0  0  0  0  0  0  0  0  0
   18.6435   -9.4443  -14.1025 N   0  0  0  0  0  0  0  0  0  0  0  0
   17.7652   -8.3536  -13.7795 C   0  0  1  0  0  0  0  0  0  0  0  0
   16.3123   -8.6741  -13.8856 C   0  0  0  0  0  0  0  0  0  0  0  0
   15.3582   -7.5948  -13.5842 C   0  0  0  0  0  0  0  0  0  0  0  0
   13.9212   -7.9427  -13.7608 C   0  0  0  0  0  0  0  0  0  0  0  0
   13.1534   -6.6214  -13.4983 C   0  0  0  0  0  0  0  0  0  0  0  0
   11.7435   -7.0023  -13.5766 N   0  0  0  0  0  0  0  0  0  0  0  0
   17.9832   -8.0261  -12.3124 C   0  0  0  0  0  0  0  0  0  0  0  0
   18.0554   -8.9579  -11.5279 O   0  0  0  0  0  0  0  0  0  0  0  0
   22.3695   -3.4681  -14.7321 O   0  0  0  0  0  0  0  0  0  0  0  0
   21.7496   -4.1157  -13.6430 C   0  0  0  0  0  0  0  0  0  0  0  0
   20.9105   -3.4472  -12.7888 C   0  0  0  0  0  0  0  0  0  0  0  0
   20.3125   -4.0736  -11.7371 C   0  0  0  0  0  0  0  0  0  0  0  0
   20.5244   -5.4340  -11.4750 C   0  0  0  0  0  0  0  0  0  0  0  0
   19.8874   -6.0967  -10.3339 C   0  0  0  0  0  0  0  0  0  0  0  0
   18.4088   -6.2880  -10.5370 C   0  0  2  0  0  0  0  0  0  0  0  0
   18.0977   -6.6929  -11.8867 N   0  0  0  0  0  0  0  0  0  0  0  0
   17.6330   -5.0672  -10.2324 C   0  0  0  0  0  0  0  0  0  0  0  0
   16.9082   -4.4456  -11.2464 O   0  0  0  0  0  0  0  0  0  0  0  0
   21.3702   -6.1052  -12.3383 C   0  0  0  0  0  0  0  0  0  0  0  0
   21.9768   -5.4618  -13.4078 C   0  0  0  0  0  0  0  0  0  0  0  0
   17.5683   -4.5255   -9.1050 O   0  0  0  0  0  0  0  0  0  0  0  0
  2  1  1  0
  2  3  2  0
  4  5  1  0
  4  2  1  0
  5  7  1  0
  5  6  1  6
  7  8  2  0
  9 10  1  0
  9  7  1  0
 11 12  1  0
 10 11  1  1
 12 13  1  0
 13 14  1  0
 14 15  1  0
 16 17  2  0
 16 10  1  0
 18 19  1  0
 19 20  2  0
 19 29  1  0
 20 21  1  0
 21 22  2  0
 22 23  1  0
 24 23  1  6
 24 26  1  0
 24 25  1  0
 25 16  1  0
 26 27  1  0
 28 22  1  0
 29 28  2  0
 30 26  2  0
M  END
$$$$
