NKY.pdb
     RDKit          3D

 30 30  0  0  1  0  0  0  0  0999 V2000
   16.8415  -20.9874  -11.7152 N   0  0  0  0  0  0  0  0  0  0  0  0
   17.9920  -20.8517  -12.5171 C   0  0  0  0  0  0  0  0  0  0  0  0
   17.9868  -19.9813  -13.4447 O   0  0  0  0  0  0  0  0  0  0  0  0
   19.1900  -21.7005  -12.2869 C   0  0  0  0  0  0  0  0  0  0  0  0
   19.7447  -22.1312  -13.6303 C   0  0  2  0  0  0  0  0  0  0  0  0
   18.9435  -23.1596  -14.2183 N   0  0  0  0  0  0  0  0  0  0  0  0
   21.1889  -22.4462  -13.5799 C   0  0  0  0  0  0  0  0  0  0  0  0
   21.5526  -23.4312  -12.8892 O   0  0  0  0  0  0  0  0  0  0  0  0
   22.1899  -21.6752  -14.2841 N   0  0  0  0  0  0  0  0  0  0  0  0
   23.5751  -22.0551  -14.2377 C   0  0  1  0  0  0  0  0  0  0  0  0
   24.3463  -21.7430  -15.4758 C   0  0  0  0  0  0  0  0  0  0  0  0
   25.7843  -22.0561  -15.4734 C   0  0  0  0  0  0  0  0  0  0  0  0
   26.5375  -21.6162  -16.6802 C   0  0  0  0  0  0  0  0  0  0  0  0
   27.9928  -22.0954  -16.4417 C   0  0  0  0  0  0  0  0  0  0  0  0
   28.7260  -21.6179  -17.6136 N   0  0  0  0  0  0  0  0  0  0  0  0
   24.2300  -21.2183  -13.1525 C   0  0  0  0  0  0  0  0  0  0  0  0
   23.9768  -20.0250  -13.1259 O   0  0  0  0  0  0  0  0  0  0  0  0
   28.5487  -18.9527   -5.8102 O   0  0  0  0  0  0  0  0  0  0  0  0
   27.9850  -19.6909   -6.8718 C   0  0  0  0  0  0  0  0  0  0  0  0
   26.6617  -19.5709   -7.2110 C   0  0  0  0  0  0  0  0  0  0  0  0
   26.1182  -20.2845   -8.2365 C   0  0  0  0  0  0  0  0  0  0  0  0
   26.8846  -21.1776   -8.9975 C   0  0  0  0  0  0  0  0  0  0  0  0
   26.2890  -21.9509  -10.0904 C   0  0  0  0  0  0  0  0  0  0  0  0
   25.8718  -21.0804  -11.2446 C   0  0  2  0  0  0  0  0  0  0  0  0
   25.0940  -21.8100  -12.2169 N   0  0  0  0  0  0  0  0  0  0  0  0
   27.0253  -20.4723  -11.9408 C   0  0  0  0  0  0  0  0  0  0  0  0
   27.8976  -21.2857  -12.6600 O   0  0  0  0  0  0  0  0  0  0  0  0
   28.2184  -21.2958   -8.6535 C   0  0  0  0  0  0  0  0  0  0  0  0
   28.7664  -20.5665   -7.6078 C   0  0  0  0  0  0  0  0  0  0  0  0
   27.2951  -19.2492  -11.9406 O   0  0  0  0  0  0  0  0  0  0  0  0
  2  1  1  0
  2  3  2  0
  4  5  1  0
  4  2  1  0
  5  7  1  0
  5  6  1  1
  7  8  2  0
  9 10  1  0
  9  7  1  0
 11 12  1  0
 10 11  1  6
 12 13  1  0
 13 14  1  0
 14 15  1  0
 16 17  2  0
 16 10  1  0
 18 19  1  0
 19 20  2  0
 19 29  1  0
 20 21  1  0
 21 22  2  0
 22 23  1  0
 24 23  1  1
 24 26  1  0
 24 25  1  0
 25 16  1  0
 26 27  1  0
 28 22  1  0
 29 28  2  0
 30 26  2  0
M  END
$$$$
