NKY.pdb
     RDKit          3D

 30 30  0  0  1  0  0  0  0  0999 V2000
   21.2310  -14.3797  -18.1459 N   0  0  0  0  0  0  0  0  0  0  0  0
   20.4237  -15.4294  -18.6270 C   0  0  0  0  0  0  0  0  0  0  0  0
   19.2210  -15.1714  -18.9510 O   0  0  0  0  0  0  0  0  0  0  0  0
   20.9604  -16.8090  -18.7591 C   0  0  0  0  0  0  0  0  0  0  0  0
   22.4132  -16.8079  -18.3263 C   0  0  2  0  0  0  0  0  0  0  0  0
   23.2056  -15.9650  -19.1671 N   0  0  0  0  0  0  0  0  0  0  0  0
   22.9602  -18.1707  -18.1509 C   0  0  0  0  0  0  0  0  0  0  0  0
   22.1873  -19.0643  -17.7223 O   0  0  0  0  0  0  0  0  0  0  0  0
   24.3335  -18.5143  -18.4480 N   0  0  0  0  0  0  0  0  0  0  0  0
   24.8266  -19.8421  -18.2045 C   0  0  1  0  0  0  0  0  0  0  0  0
   26.1030  -20.1683  -18.9038 C   0  0  0  0  0  0  0  0  0  0  0  0
   26.0730  -20.2248  -20.3742 C   0  0  0  0  0  0  0  0  0  0  0  0
   26.2592  -18.9212  -21.0691 C   0  0  0  0  0  0  0  0  0  0  0  0
   26.1528  -19.2531  -22.5800 C   0  0  0  0  0  0  0  0  0  0  0  0
   26.2843  -17.9566  -23.2438 N   0  0  0  0  0  0  0  0  0  0  0  0
   25.1625  -19.9278  -16.7257 C   0  0  0  0  0  0  0  0  0  0  0  0
   25.8272  -19.0262  -16.2418 O   0  0  0  0  0  0  0  0  0  0  0  0
   25.5431  -21.0188   -8.1652 O   0  0  0  0  0  0  0  0  0  0  0  0
   25.3124  -20.7883   -9.5376 C   0  0  0  0  0  0  0  0  0  0  0  0
   26.3443  -20.5974  -10.4203 C   0  0  0  0  0  0  0  0  0  0  0  0
   26.1203  -20.3747  -11.7457 C   0  0  0  0  0  0  0  0  0  0  0  0
   24.8232  -20.3299  -12.2744 C   0  0  0  0  0  0  0  0  0  0  0  0
   24.5909  -20.0768  -13.6988 C   0  0  0  0  0  0  0  0  0  0  0  0
   25.0489  -21.2195  -14.5640 C   0  0  2  0  0  0  0  0  0  0  0  0
   24.7160  -21.0118  -15.9527 N   0  0  0  0  0  0  0  0  0  0  0  0
   24.4747  -22.5146  -14.1420 C   0  0  0  0  0  0  0  0  0  0  0  0
   25.1711  -23.3094  -13.2347 O   0  0  0  0  0  0  0  0  0  0  0  0
   23.7851  -20.5234  -11.3820 C   0  0  0  0  0  0  0  0  0  0  0  0
   24.0193  -20.7496  -10.0330 C   0  0  0  0  0  0  0  0  0  0  0  0
   23.3805  -22.9743  -14.5420 O   0  0  0  0  0  0  0  0  0  0  0  0
  2  1  1  0
  2  3  2  0
  4  5  1  0
  4  2  1  0
  5  7  1  0
  5  6  1  6
  7  8  2  0
  9 10  1  0
  9  7  1  0
 11 12  1  0
 10 11  1  6
 12 13  1  0
 13 14  1  0
 14 15  1  0
 16 17  2  0
 16 10  1  0
 18 19  1  0
 19 20  2  0
 19 29  1  0
 20 21  1  0
 21 22  2  0
 22 23  1  0
 24 23  1  1
 24 26  1  0
 24 25  1  0
 25 16  1  0
 26 27  1  0
 28 22  1  0
 29 28  2  0
 30 26  2  0
M  END
$$$$
