NKY.pdb
     RDKit          3D

 30 30  0  0  1  0  0  0  0  0999 V2000
   22.4729  -15.5062  -18.2172 N   0  0  0  0  0  0  0  0  0  0  0  0
   21.9515  -16.4784  -17.3408 C   0  0  0  0  0  0  0  0  0  0  0  0
   20.7002  -16.7066  -17.3617 O   0  0  0  0  0  0  0  0  0  0  0  0
   22.8387  -17.2272  -16.4130 C   0  0  0  0  0  0  0  0  0  0  0  0
   23.9073  -17.9310  -17.2259 C   0  0  2  0  0  0  0  0  0  0  0  0
   23.3726  -18.4566  -18.4436 N   0  0  0  0  0  0  0  0  0  0  0  0
   24.6779  -18.9125  -16.4320 C   0  0  0  0  0  0  0  0  0  0  0  0
   24.1006  -19.9748  -16.0886 O   0  0  0  0  0  0  0  0  0  0  0  0
   26.0536  -18.7026  -16.0375 N   0  0  0  0  0  0  0  0  0  0  0  0
   26.7372  -19.6661  -15.2190 C   0  0  1  0  0  0  0  0  0  0  0  0
   28.2252  -19.6073  -15.3025 C   0  0  0  0  0  0  0  0  0  0  0  0
   28.8733  -20.3814  -16.3734 C   0  0  0  0  0  0  0  0  0  0  0  0
   28.9545  -21.8502  -16.1427 C   0  0  0  0  0  0  0  0  0  0  0  0
   29.7095  -22.4090  -17.3764 C   0  0  0  0  0  0  0  0  0  0  0  0
   29.8873  -23.8294  -17.0771 N   0  0  0  0  0  0  0  0  0  0  0  0
   26.4169  -19.3287  -13.7731 C   0  0  0  0  0  0  0  0  0  0  0  0
   26.3689  -18.1495  -13.4630 O   0  0  0  0  0  0  0  0  0  0  0  0
   19.5989  -19.9895   -8.6281 O   0  0  0  0  0  0  0  0  0  0  0  0
   20.6296  -20.0459   -9.5895 C   0  0  0  0  0  0  0  0  0  0  0  0
   21.0780  -21.2383  -10.0971 C   0  0  0  0  0  0  0  0  0  0  0  0
   22.0737  -21.2916  -11.0255 C   0  0  0  0  0  0  0  0  0  0  0  0
   22.6902  -20.1298  -11.5095 C   0  0  0  0  0  0  0  0  0  0  0  0
   23.7693  -20.1970  -12.4985 C   0  0  0  0  0  0  0  0  0  0  0  0
   25.1236  -20.3346  -11.8574 C   0  0  2  0  0  0  0  0  0  0  0  0
   26.1846  -20.3479  -12.8356 N   0  0  0  0  0  0  0  0  0  0  0  0
   25.2395  -21.5582  -11.0362 C   0  0  0  0  0  0  0  0  0  0  0  0
   25.1749  -21.4602   -9.6484 O   0  0  0  0  0  0  0  0  0  0  0  0
   22.2354  -18.9293  -10.9964 C   0  0  0  0  0  0  0  0  0  0  0  0
   21.2210  -18.8811  -10.0506 C   0  0  0  0  0  0  0  0  0  0  0  0
   25.3957  -22.7133  -11.4947 O   0  0  0  0  0  0  0  0  0  0  0  0
  2  1  1  0
  2  3  2  0
  4  5  1  0
  4  2  1  0
  5  7  1  0
  5  6  1  6
  7  8  2  0
  9 10  1  0
  9  7  1  0
 11 12  1  0
 10 11  1  1
 12 13  1  0
 13 14  1  0
 14 15  1  0
 16 17  2  0
 16 10  1  0
 18 19  1  0
 19 20  2  0
 19 29  1  0
 20 21  1  0
 21 22  2  0
 22 23  1  0
 24 23  1  6
 24 26  1  0
 24 25  1  0
 25 16  1  0
 26 27  1  0
 28 22  1  0
 29 28  2  0
 30 26  2  0
M  END
$$$$
