NKY.pdb
     RDKit          3D

 30 30  0  0  1  0  0  0  0  0999 V2000
   28.4751  -18.8833  -19.8967 N   0  0  0  0  0  0  0  0  0  0  0  0
   27.9355  -18.6757  -18.6119 C   0  0  0  0  0  0  0  0  0  0  0  0
   28.3239  -17.6637  -17.9461 O   0  0  0  0  0  0  0  0  0  0  0  0
   26.9315  -19.6121  -18.0428 C   0  0  0  0  0  0  0  0  0  0  0  0
   26.8529  -19.3879  -16.5456 C   0  0  2  0  0  0  0  0  0  0  0  0
   28.1511  -19.4174  -15.9465 N   0  0  0  0  0  0  0  0  0  0  0  0
   25.8636  -20.2670  -15.8855 C   0  0  0  0  0  0  0  0  0  0  0  0
   24.7900  -20.5056  -16.4937 O   0  0  0  0  0  0  0  0  0  0  0  0
   26.0776  -20.8567  -14.5821 N   0  0  0  0  0  0  0  0  0  0  0  0
   25.0460  -21.6321  -13.9495 C   0  0  1  0  0  0  0  0  0  0  0  0
   25.4740  -22.3394  -12.7081 C   0  0  0  0  0  0  0  0  0  0  0  0
   26.1457  -21.5393  -11.6715 C   0  0  0  0  0  0  0  0  0  0  0  0
   25.3012  -21.1655  -10.5035 C   0  0  0  0  0  0  0  0  0  0  0  0
   26.2236  -20.3070   -9.5998 C   0  0  0  0  0  0  0  0  0  0  0  0
   25.3738  -19.9329   -8.4698 N   0  0  0  0  0  0  0  0  0  0  0  0
   23.9753  -20.6576  -13.4902 C   0  0  0  0  0  0  0  0  0  0  0  0
   24.3394  -19.5719  -13.0688 O   0  0  0  0  0  0  0  0  0  0  0  0
   17.1824  -15.3763  -13.1440 O   0  0  0  0  0  0  0  0  0  0  0  0
   18.2591  -16.2526  -13.3943 C   0  0  0  0  0  0  0  0  0  0  0  0
   19.3559  -16.3007  -12.5726 C   0  0  0  0  0  0  0  0  0  0  0  0
   20.3954  -17.1474  -12.8154 C   0  0  0  0  0  0  0  0  0  0  0  0
   20.3961  -18.0128  -13.9177 C   0  0  0  0  0  0  0  0  0  0  0  0
   21.5242  -18.9109  -14.1786 C   0  0  0  0  0  0  0  0  0  0  0  0
   21.5259  -20.1062  -13.2647 C   0  0  2  0  0  0  0  0  0  0  0  0
   22.6164  -21.0057  -13.5549 N   0  0  0  0  0  0  0  0  0  0  0  0
   20.2648  -20.8742  -13.3348 C   0  0  0  0  0  0  0  0  0  0  0  0
   20.1544  -21.9283  -14.2385 O   0  0  0  0  0  0  0  0  0  0  0  0
   19.2887  -17.9624  -14.7438 C   0  0  0  0  0  0  0  0  0  0  0  0
   18.2330  -17.0978  -14.4916 C   0  0  0  0  0  0  0  0  0  0  0  0
   19.2541  -20.6525  -12.6292 O   0  0  0  0  0  0  0  0  0  0  0  0
  2  1  1  0
  2  3  2  0
  4  5  1  0
  4  2  1  0
  5  7  1  0
  5  6  1  1
  7  8  2  0
  9 10  1  0
  9  7  1  0
 11 12  1  0
 10 11  1  1
 12 13  1  0
 13 14  1  0
 14 15  1  0
 16 17  2  0
 16 10  1  0
 18 19  1  0
 19 20  2  0
 19 29  1  0
 20 21  1  0
 21 22  2  0
 22 23  1  0
 24 23  1  6
 24 26  1  0
 24 25  1  0
 25 16  1  0
 26 27  1  0
 28 22  1  0
 29 28  2  0
 30 26  2  0
M  END
$$$$
