ANE.pdb
     RDKit          3D

 23 22  0  0  1  0  0  0  0  0999 V2000
    5.5099  -23.6039   20.6306 C   0  0  0  0  0  0  0  0  0  0  0  0
    4.1764  -23.1356   21.2251 C   0  0  2  0  0  0  0  0  0  0  0  0
    3.8771  -21.8446   20.6539 N   0  0  0  0  0  0  0  0  0  0  0  0
    4.3625  -23.0086   22.6678 C   0  0  0  0  0  0  0  0  0  0  0  0
    4.7685  -21.9109   23.1445 O   0  0  0  0  0  0  0  0  0  0  0  0
    0.9941  -25.3536   25.2795 N   0  0  0  0  0  0  0  0  0  0  0  0
    1.9264  -24.3827   25.7379 C   0  0  0  0  0  0  0  0  0  0  0  0
    1.4895  -23.2523   26.0515 O   0  0  0  0  0  0  0  0  0  0  0  0
    3.3427  -24.7389   25.8242 C   0  0  0  0  0  0  0  0  0  0  0  0
    4.2338  -23.7884   25.0484 C   0  0  2  0  0  0  0  0  0  0  0  0
    4.1215  -24.0419   23.6256 N   0  0  0  0  0  0  0  0  0  0  0  0
    5.6678  -23.9577   25.4570 C   0  0  0  0  0  0  0  0  0  0  0  0
    6.4122  -24.7970   24.8886 O   0  0  0  0  0  0  0  0  0  0  0  0
    6.2471  -23.1938   26.4863 N   0  0  0  0  0  0  0  0  0  0  0  0
    7.6804  -23.2656   26.8502 C   0  0  1  0  0  0  0  0  0  0  0  0
    8.4408  -22.2671   26.0828 C   0  0  0  0  0  0  0  0  0  0  0  0
    9.8895  -22.1897   26.3641 C   0  0  0  0  0  0  0  0  0  0  0  0
   10.7205  -21.3211   25.5432 C   0  0  0  0  0  0  0  0  0  0  0  0
   10.2983  -20.6441   24.5607 O   0  0  0  0  0  0  0  0  0  0  0  0
    7.7389  -23.2527   28.3053 C   0  0  0  0  0  0  0  0  0  0  0  0
    6.8643  -22.8197   29.0950 O   0  0  0  0  0  0  0  0  0  0  0  0
   12.0780  -21.2210   25.8609 O   0  0  0  0  0  0  0  0  0  0  0  0
    8.8852  -23.7733   28.9698 O   0  0  0  0  0  0  0  0  0  0  0  0
  2  1  1  6
  2  3  1  0
  4 11  1  0
  4  2  1  0
  5  4  2  0
  7  6  1  0
  7  8  2  0
 10  9  1  1
  9  7  1  0
 10 12  1  0
 10 11  1  0
 12 14  1  0
 13 12  2  0
 14 15  1  0
 15 20  1  0
 15 16  1  6
 16 17  1  0
 18 17  1  0
 18 22  1  0
 19 18  2  0
 20 23  1  0
 21 20  2  0
M  END
$$$$
