ANE.pdb
     RDKit          3D

 23 22  0  0  1  0  0  0  0  0999 V2000
    6.6038  -20.1697   21.4163 C   0  0  0  0  0  0  0  0  0  0  0  0
    6.6059  -18.6394   21.3198 C   0  0  2  0  0  0  0  0  0  0  0  0
    7.2504  -18.2845   20.0784 N   0  0  0  0  0  0  0  0  0  0  0  0
    7.3851  -18.1323   22.4459 C   0  0  0  0  0  0  0  0  0  0  0  0
    8.6461  -18.2054   22.4079 O   0  0  0  0  0  0  0  0  0  0  0  0
    7.6780  -14.6542   23.2181 N   0  0  0  0  0  0  0  0  0  0  0  0
    7.0074  -14.6202   24.4716 C   0  0  0  0  0  0  0  0  0  0  0  0
    6.4182  -13.5635   24.7931 O   0  0  0  0  0  0  0  0  0  0  0  0
    7.0319  -15.8075   25.3259 C   0  0  0  0  0  0  0  0  0  0  0  0
    7.6994  -16.9948   24.6593 C   0  0  2  0  0  0  0  0  0  0  0  0
    6.8400  -17.5411   23.6276 N   0  0  0  0  0  0  0  0  0  0  0  0
    7.9894  -18.0701   25.6651 C   0  0  0  0  0  0  0  0  0  0  0  0
    7.0597  -18.6910   26.2410 O   0  0  0  0  0  0  0  0  0  0  0  0
    9.3029  -18.4353   26.0113 N   0  0  0  0  0  0  0  0  0  0  0  0
    9.6250  -19.4586   27.0316 C   0  0  1  0  0  0  0  0  0  0  0  0
   10.6663  -20.3631   26.5201 C   0  0  0  0  0  0  0  0  0  0  0  0
   10.5913  -20.7018   25.0836 C   0  0  0  0  0  0  0  0  0  0  0  0
   11.6427  -21.5203   24.4976 C   0  0  0  0  0  0  0  0  0  0  0  0
   12.6416  -21.9675   25.1332 O   0  0  0  0  0  0  0  0  0  0  0  0
    9.8434  -18.7427   28.2809 C   0  0  0  0  0  0  0  0  0  0  0  0
    9.9097  -17.4992   28.4401 O   0  0  0  0  0  0  0  0  0  0  0  0
   11.5442  -21.8411   23.1407 O   0  0  0  0  0  0  0  0  0  0  0  0
   10.0074  -19.4720   29.4924 O   0  0  0  0  0  0  0  0  0  0  0  0
  2  1  1  1
  2  3  1  0
  4 11  1  0
  4  2  1  0
  5  4  2  0
  7  6  1  0
  7  8  2  0
 10  9  1  1
  9  7  1  0
 10 12  1  0
 10 11  1  0
 12 14  1  0
 13 12  2  0
 14 15  1  0
 15 20  1  0
 15 16  1  6
 16 17  1  0
 18 17  1  0
 18 22  1  0
 19 18  2  0
 20 23  1  0
 21 20  2  0
M  END
$$$$
