ANE.pdb
     RDKit          3D

 23 22  0  0  1  0  0  0  0  0999 V2000
   13.1023  -20.3236   19.6169 C   0  0  0  0  0  0  0  0  0  0  0  0
   11.6256  -20.5873   19.9347 C   0  0  2  0  0  0  0  0  0  0  0  0
   10.8378  -19.8148   19.0046 N   0  0  0  0  0  0  0  0  0  0  0  0
   11.3826  -20.1214   21.2971 C   0  0  0  0  0  0  0  0  0  0  0  0
   12.2435  -19.3898   21.8631 O   0  0  0  0  0  0  0  0  0  0  0  0
    8.3406  -18.3344   21.7988 N   0  0  0  0  0  0  0  0  0  0  0  0
    7.7194  -19.1412   22.7913 C   0  0  0  0  0  0  0  0  0  0  0  0
    6.4693  -19.2074   22.7954 O   0  0  0  0  0  0  0  0  0  0  0  0
    8.5557  -19.8539   23.7571 C   0  0  0  0  0  0  0  0  0  0  0  0
   10.0261  -19.8316   23.3871 C   0  0  2  0  0  0  0  0  0  0  0  0
   10.2248  -20.4237   22.0789 N   0  0  0  0  0  0  0  0  0  0  0  0
   10.8346  -20.5989   24.3919 C   0  0  0  0  0  0  0  0  0  0  0  0
   10.9700  -21.8461   24.3031 O   0  0  0  0  0  0  0  0  0  0  0  0
   11.4761  -19.9688   25.4734 N   0  0  0  0  0  0  0  0  0  0  0  0
   12.5654  -20.5959   26.2560 C   0  0  1  0  0  0  0  0  0  0  0  0
   13.8497  -20.4074   25.5638 C   0  0  0  0  0  0  0  0  0  0  0  0
   15.0452  -20.9483   26.2435 C   0  0  0  0  0  0  0  0  0  0  0  0
   16.3393  -20.8362   25.5866 C   0  0  0  0  0  0  0  0  0  0  0  0
   16.7793  -21.6523   24.7251 O   0  0  0  0  0  0  0  0  0  0  0  0
   12.4111  -20.1297   27.6270 C   0  0  0  0  0  0  0  0  0  0  0  0
   13.0113  -20.5554   28.6441 O   0  0  0  0  0  0  0  0  0  0  0  0
   17.1539  -19.7515   25.9239 O   0  0  0  0  0  0  0  0  0  0  0  0
   11.4960  -19.0781   27.9157 O   0  0  0  0  0  0  0  0  0  0  0  0
  2  1  1  6
  2  3  1  0
  4 11  1  0
  4  2  1  0
  5  4  2  0
  7  6  1  0
  7  8  2  0
 10  9  1  1
  9  7  1  0
 10 12  1  0
 10 11  1  0
 12 14  1  0
 13 12  2  0
 14 15  1  0
 15 20  1  0
 15 16  1  6
 16 17  1  0
 18 17  1  0
 18 22  1  0
 19 18  2  0
 20 23  1  0
 21 20  2  0
M  END
$$$$
