ANE.pdb
     RDKit          3D

 23 22  0  0  1  0  0  0  0  0999 V2000
   13.6741  -17.3474   13.6431 C   0  0  0  0  0  0  0  0  0  0  0  0
   13.2938  -15.8629   13.6952 C   0  0  2  0  0  0  0  0  0  0  0  0
   14.1965  -15.1537   12.8208 N   0  0  0  0  0  0  0  0  0  0  0  0
   13.4804  -15.4127   15.0716 C   0  0  0  0  0  0  0  0  0  0  0  0
   14.5969  -14.9338   15.4195 O   0  0  0  0  0  0  0  0  0  0  0  0
   10.4851  -16.4460   19.6910 N   0  0  0  0  0  0  0  0  0  0  0  0
   10.7245  -15.9915   18.3651 C   0  0  0  0  0  0  0  0  0  0  0  0
   10.3190  -16.7036   17.4188 O   0  0  0  0  0  0  0  0  0  0  0  0
   11.4266  -14.7244   18.1614 C   0  0  0  0  0  0  0  0  0  0  0  0
   12.7323  -14.8929   17.4088 C   0  0  2  0  0  0  0  0  0  0  0  0
   12.4876  -15.4634   16.0987 N   0  0  0  0  0  0  0  0  0  0  0  0
   13.6628  -15.7972   18.1627 C   0  0  0  0  0  0  0  0  0  0  0  0
   13.9564  -16.9396   17.7264 O   0  0  0  0  0  0  0  0  0  0  0  0
   14.2487  -15.4170   19.3836 N   0  0  0  0  0  0  0  0  0  0  0  0
   15.6692  -15.6632   19.7205 C   0  0  1  0  0  0  0  0  0  0  0  0
   16.5375  -14.8938   18.8160 C   0  0  0  0  0  0  0  0  0  0  0  0
   17.7745  -15.5659   18.3668 C   0  0  0  0  0  0  0  0  0  0  0  0
   18.7426  -14.8098   17.5860 C   0  0  0  0  0  0  0  0  0  0  0  0
   19.9706  -14.7049   17.8735 O   0  0  0  0  0  0  0  0  0  0  0  0
   15.7900  -15.4832   21.1607 C   0  0  0  0  0  0  0  0  0  0  0  0
   15.0892  -14.7427   21.8931 O   0  0  0  0  0  0  0  0  0  0  0  0
   18.2904  -14.1566   16.4359 O   0  0  0  0  0  0  0  0  0  0  0  0
   16.7916  -16.1955   21.8790 O   0  0  0  0  0  0  0  0  0  0  0  0
  2  1  1  1
  2  3  1  0
  4 11  1  0
  4  2  1  0
  5  4  2  0
  7  6  1  0
  7  8  2  0
 10  9  1  1
  9  7  1  0
 10 12  1  0
 10 11  1  0
 12 14  1  0
 13 12  2  0
 14 15  1  0
 15 20  1  0
 15 16  1  6
 16 17  1  0
 18 17  1  0
 18 22  1  0
 19 18  2  0
 20 23  1  0
 21 20  2  0
M  END
$$$$
