ANE.pdb
     RDKit          3D

 23 22  0  0  1  0  0  0  0  0999 V2000
    7.8394  -14.2784   17.2429 C   0  0  0  0  0  0  0  0  0  0  0  0
    8.4573  -15.5091   17.9171 C   0  0  2  0  0  0  0  0  0  0  0  0
    7.3867  -16.4385   18.1865 N   0  0  0  0  0  0  0  0  0  0  0  0
    9.0557  -15.0644   19.1726 C   0  0  0  0  0  0  0  0  0  0  0  0
   10.1044  -14.3599   19.1423 O   0  0  0  0  0  0  0  0  0  0  0  0
    7.6787  -12.5844   21.3869 N   0  0  0  0  0  0  0  0  0  0  0  0
    7.4088  -13.3765   22.5365 C   0  0  0  0  0  0  0  0  0  0  0  0
    6.5087  -12.9908   23.3164 O   0  0  0  0  0  0  0  0  0  0  0  0
    8.1843  -14.5967   22.7599 C   0  0  0  0  0  0  0  0  0  0  0  0
    9.2049  -14.8500   21.6674 C   0  0  2  0  0  0  0  0  0  0  0  0
    8.5522  -15.3593   20.4774 N   0  0  0  0  0  0  0  0  0  0  0  0
   10.2274  -15.8498   22.1223 C   0  0  0  0  0  0  0  0  0  0  0  0
   10.0438  -17.0845   21.9695 O   0  0  0  0  0  0  0  0  0  0  0  0
   11.4316  -15.4610   22.7364 N   0  0  0  0  0  0  0  0  0  0  0  0
   12.5174  -16.4074   23.0790 C   0  0  1  0  0  0  0  0  0  0  0  0
   13.8237  -15.7888   22.8048 C   0  0  0  0  0  0  0  0  0  0  0  0
   15.0143  -16.5816   23.1759 C   0  0  0  0  0  0  0  0  0  0  0  0
   16.3359  -16.0405   22.8945 C   0  0  0  0  0  0  0  0  0  0  0  0
   16.5502  -14.9203   22.3458 O   0  0  0  0  0  0  0  0  0  0  0  0
   12.2239  -16.9079   24.4148 C   0  0  0  0  0  0  0  0  0  0  0  0
   12.6513  -17.9657   24.9384 O   0  0  0  0  0  0  0  0  0  0  0  0
   17.4483  -16.8051   23.2577 O   0  0  0  0  0  0  0  0  0  0  0  0
   11.3654  -16.1649   25.2735 O   0  0  0  0  0  0  0  0  0  0  0  0
  2  1  1  1
  2  3  1  0
  4 11  1  0
  4  2  1  0
  5  4  2  0
  7  6  1  0
  7  8  2  0
 10  9  1  1
  9  7  1  0
 10 12  1  0
 10 11  1  0
 12 14  1  0
 13 12  2  0
 14 15  1  0
 15 20  1  0
 15 16  1  1
 16 17  1  0
 18 17  1  0
 18 22  1  0
 19 18  2  0
 20 23  1  0
 21 20  2  0
M  END
$$$$
