ANE.pdb
     RDKit          3D

 23 22  0  0  1  0  0  0  0  0999 V2000
    8.4885  -12.2722   19.7323 C   0  0  0  0  0  0  0  0  0  0  0  0
    8.7921  -12.9990   18.4168 C   0  0  2  0  0  0  0  0  0  0  0  0
    7.5810  -13.6635   17.9997 N   0  0  0  0  0  0  0  0  0  0  0  0
    9.8301  -13.9878   18.6941 C   0  0  0  0  0  0  0  0  0  0  0  0
    9.4945  -15.1622   19.0185 O   0  0  0  0  0  0  0  0  0  0  0  0
   12.8472  -16.7765   16.5260 N   0  0  0  0  0  0  0  0  0  0  0  0
   13.0105  -15.3644   16.5617 C   0  0  0  0  0  0  0  0  0  0  0  0
   12.8768  -14.7313   15.4901 O   0  0  0  0  0  0  0  0  0  0  0  0
   13.3243  -14.7148   17.8344 C   0  0  0  0  0  0  0  0  0  0  0  0
   12.1929  -14.8176   18.8388 C   0  0  2  0  0  0  0  0  0  0  0  0
   11.2377  -13.7470   18.6320 N   0  0  0  0  0  0  0  0  0  0  0  0
   12.7220  -14.7280   20.2403 C   0  0  0  0  0  0  0  0  0  0  0  0
   13.3160  -13.6971   20.6475 O   0  0  0  0  0  0  0  0  0  0  0  0
   12.5817  -15.7820   21.1611 N   0  0  0  0  0  0  0  0  0  0  0  0
   13.0468  -15.7088   22.5647 C   0  0  1  0  0  0  0  0  0  0  0  0
   12.3076  -16.6793   23.3869 C   0  0  0  0  0  0  0  0  0  0  0  0
   12.7218  -16.7891   24.8011 C   0  0  0  0  0  0  0  0  0  0  0  0
   12.0769  -17.7815   25.6484 C   0  0  0  0  0  0  0  0  0  0  0  0
   12.0156  -19.0180   25.3854 O   0  0  0  0  0  0  0  0  0  0  0  0
   14.5016  -15.7618   22.5219 C   0  0  0  0  0  0  0  0  0  0  0  0
   15.2152  -16.2621   21.6184 O   0  0  0  0  0  0  0  0  0  0  0  0
   11.4871  -17.3442   26.8379 O   0  0  0  0  0  0  0  0  0  0  0  0
   15.2595  -15.2030   23.5895 O   0  0  0  0  0  0  0  0  0  0  0  0
  2  1  1  1
  2  3  1  0
  4 11  1  0
  4  2  1  0
  5  4  2  0
  7  6  1  0
  7  8  2  0
 10  9  1  6
  9  7  1  0
 10 12  1  0
 10 11  1  0
 12 14  1  0
 13 12  2  0
 14 15  1  0
 15 20  1  0
 15 16  1  1
 16 17  1  0
 18 17  1  0
 18 22  1  0
 19 18  2  0
 20 23  1  0
 21 20  2  0
M  END
$$$$
