ANE.pdb
     RDKit          3D

 23 22  0  0  1  0  0  0  0  0999 V2000
    8.2249  -12.4565   18.3932 C   0  0  0  0  0  0  0  0  0  0  0  0
    8.9662  -13.7684   18.6768 C   0  0  2  0  0  0  0  0  0  0  0  0
    8.1034  -14.8505   18.2681 N   0  0  0  0  0  0  0  0  0  0  0  0
    9.1984  -13.8359   20.1168 C   0  0  0  0  0  0  0  0  0  0  0  0
   10.1700  -13.2011   20.6168 O   0  0  0  0  0  0  0  0  0  0  0  0
    7.6892  -13.6769   25.4010 N   0  0  0  0  0  0  0  0  0  0  0  0
    7.6707  -14.9154   24.7027 C   0  0  0  0  0  0  0  0  0  0  0  0
    7.8520  -15.9636   25.3626 O   0  0  0  0  0  0  0  0  0  0  0  0
    7.4431  -14.9160   23.2576 C   0  0  0  0  0  0  0  0  0  0  0  0
    8.6815  -14.5350   22.4697 C   0  0  2  0  0  0  0  0  0  0  0  0
    8.4053  -14.5763   21.0472 N   0  0  0  0  0  0  0  0  0  0  0  0
    9.8088  -15.4791   22.7699 C   0  0  0  0  0  0  0  0  0  0  0  0
   10.1858  -15.6885   23.9512 O   0  0  0  0  0  0  0  0  0  0  0  0
   10.4944  -16.1714   21.7554 N   0  0  0  0  0  0  0  0  0  0  0  0
   11.4919  -17.2329   22.0203 C   0  0  1  0  0  0  0  0  0  0  0  0
   11.6665  -18.0647   20.8196 C   0  0  0  0  0  0  0  0  0  0  0  0
   12.7106  -19.1079   20.8919 C   0  0  0  0  0  0  0  0  0  0  0  0
   12.9242  -19.9711   19.7396 C   0  0  0  0  0  0  0  0  0  0  0  0
   12.1388  -20.0544   18.7506 O   0  0  0  0  0  0  0  0  0  0  0  0
   12.6474  -16.5757   22.6152 C   0  0  0  0  0  0  0  0  0  0  0  0
   13.1773  -15.4979   22.2500 O   0  0  0  0  0  0  0  0  0  0  0  0
   14.0772  -20.7611   19.7170 O   0  0  0  0  0  0  0  0  0  0  0  0
   13.2948  -17.1664   23.7370 O   0  0  0  0  0  0  0  0  0  0  0  0
  2  1  1  1
  2  3  1  0
  4 11  1  0
  4  2  1  0
  5  4  2  0
  7  6  1  0
  7  8  2  0
 10  9  1  1
  9  7  1  0
 10 12  1  0
 10 11  1  0
 12 14  1  0
 13 12  2  0
 14 15  1  0
 15 20  1  0
 15 16  1  6
 16 17  1  0
 18 17  1  0
 18 22  1  0
 19 18  2  0
 20 23  1  0
 21 20  2  0
M  END
$$$$
