ANE.pdb
     RDKit          3D

 23 22  0  0  1  0  0  0  0  0999 V2000
    9.0635  -15.2074   16.7406 C   0  0  0  0  0  0  0  0  0  0  0  0
    8.3926  -14.1504   17.6259 C   0  0  2  0  0  0  0  0  0  0  0  0
    8.7593  -12.8548   17.1072 N   0  0  0  0  0  0  0  0  0  0  0  0
    8.9231  -14.3123   18.9767 C   0  0  0  0  0  0  0  0  0  0  0  0
   10.0217  -13.7660   19.2790 O   0  0  0  0  0  0  0  0  0  0  0  0
    5.5480  -14.7694   21.8598 N   0  0  0  0  0  0  0  0  0  0  0  0
    6.7795  -14.5921   22.5482 C   0  0  0  0  0  0  0  0  0  0  0  0
    6.8967  -13.5925   23.2926 O   0  0  0  0  0  0  0  0  0  0  0  0
    7.8484  -15.5733   22.3617 C   0  0  0  0  0  0  0  0  0  0  0  0
    8.8848  -15.1248   21.3495 C   0  0  2  0  0  0  0  0  0  0  0  0
    8.2978  -15.0547   20.0259 N   0  0  0  0  0  0  0  0  0  0  0  0
   10.0384  -16.0839   21.3156 C   0  0  0  0  0  0  0  0  0  0  0  0
    9.8773  -17.2848   20.9787 O   0  0  0  0  0  0  0  0  0  0  0  0
   11.3461  -15.6926   21.6550 N   0  0  0  0  0  0  0  0  0  0  0  0
   12.5029  -16.6167   21.6516 C   0  0  1  0  0  0  0  0  0  0  0  0
   13.4285  -16.2538   20.5673 C   0  0  0  0  0  0  0  0  0  0  0  0
   13.9669  -14.8780   20.5990 C   0  0  0  0  0  0  0  0  0  0  0  0
   14.9073  -14.4662   19.5671 C   0  0  0  0  0  0  0  0  0  0  0  0
   16.1503  -14.3137   19.7492 O   0  0  0  0  0  0  0  0  0  0  0  0
   12.9889  -16.6763   23.0232 C   0  0  0  0  0  0  0  0  0  0  0  0
   12.5871  -15.9970   23.9996 O   0  0  0  0  0  0  0  0  0  0  0  0
   14.4083  -14.2261   18.2836 O   0  0  0  0  0  0  0  0  0  0  0  0
   14.0325  -17.5828   23.3630 O   0  0  0  0  0  0  0  0  0  0  0  0
  2  1  1  6
  2  3  1  0
  4 11  1  0
  4  2  1  0
  5  4  2  0
  7  6  1  0
  7  8  2  0
 10  9  1  1
  9  7  1  0
 10 12  1  0
 10 11  1  0
 12 14  1  0
 13 12  2  0
 14 15  1  0
 15 20  1  0
 15 16  1  6
 16 17  1  0
 18 17  1  0
 18 22  1  0
 19 18  2  0
 20 23  1  0
 21 20  2  0
M  END
$$$$
