ANE.pdb
     RDKit          3D

 23 22  0  0  1  0  0  0  0  0999 V2000
    8.8951  -15.3840   16.5693 C   0  0  0  0  0  0  0  0  0  0  0  0
    8.0494  -14.4297   17.4208 C   0  0  2  0  0  0  0  0  0  0  0  0
    8.1592  -13.1149   16.8363 N   0  0  0  0  0  0  0  0  0  0  0  0
    8.6188  -14.4240   18.7654 C   0  0  0  0  0  0  0  0  0  0  0  0
    9.5270  -13.5922   19.0486 O   0  0  0  0  0  0  0  0  0  0  0  0
    7.2403  -13.3152   22.6076 N   0  0  0  0  0  0  0  0  0  0  0  0
    6.9754  -14.6893   22.8601 C   0  0  0  0  0  0  0  0  0  0  0  0
    6.0531  -14.9718   23.6580 O   0  0  0  0  0  0  0  0  0  0  0  0
    7.7815  -15.7067   22.1854 C   0  0  0  0  0  0  0  0  0  0  0  0
    8.7435  -15.1151   21.1735 C   0  0  2  0  0  0  0  0  0  0  0  0
    8.2347  -15.2987   19.8285 N   0  0  0  0  0  0  0  0  0  0  0  0
   10.0875  -15.7750   21.2751 C   0  0  0  0  0  0  0  0  0  0  0  0
   10.3371  -16.8425   20.6590 O   0  0  0  0  0  0  0  0  0  0  0  0
   11.1266  -15.2383   22.0566 N   0  0  0  0  0  0  0  0  0  0  0  0
   12.0159  -16.0592   22.9094 C   0  0  1  0  0  0  0  0  0  0  0  0
   11.2148  -16.8113   23.8875 C   0  0  0  0  0  0  0  0  0  0  0  0
   11.8138  -16.9882   25.2268 C   0  0  0  0  0  0  0  0  0  0  0  0
   11.5558  -18.2213   25.9559 C   0  0  0  0  0  0  0  0  0  0  0  0
   10.9074  -19.2051   25.4941 O   0  0  0  0  0  0  0  0  0  0  0  0
   12.9090  -16.7741   22.0082 C   0  0  0  0  0  0  0  0  0  0  0  0
   13.9263  -17.4403   22.3204 O   0  0  0  0  0  0  0  0  0  0  0  0
   12.0612  -18.3330   27.2544 O   0  0  0  0  0  0  0  0  0  0  0  0
   12.6587  -16.7573   20.6069 O   0  0  0  0  0  0  0  0  0  0  0  0
  2  1  1  6
  2  3  1  0
  4 11  1  0
  4  2  1  0
  5  4  2  0
  7  6  1  0
  7  8  2  0
 10  9  1  1
  9  7  1  0
 10 12  1  0
 10 11  1  0
 12 14  1  0
 13 12  2  0
 14 15  1  0
 15 20  1  0
 15 16  1  6
 16 17  1  0
 18 17  1  0
 18 22  1  0
 19 18  2  0
 20 23  1  0
 21 20  2  0
M  END
$$$$
