ANE.pdb
     RDKit          3D

 23 22  0  0  1  0  0  0  0  0999 V2000
    9.6124  -19.0677   18.1521 C   0  0  0  0  0  0  0  0  0  0  0  0
    9.5993  -17.6427   17.5863 C   0  0  2  0  0  0  0  0  0  0  0  0
   10.6021  -17.5788   16.5505 N   0  0  0  0  0  0  0  0  0  0  0  0
    9.9532  -16.7374   18.6759 C   0  0  0  0  0  0  0  0  0  0  0  0
   11.1674  -16.6046   18.9997 O   0  0  0  0  0  0  0  0  0  0  0  0
    8.9739  -13.1285   18.6202 N   0  0  0  0  0  0  0  0  0  0  0  0
    8.1450  -13.1104   19.7754 C   0  0  0  0  0  0  0  0  0  0  0  0
    7.2302  -12.2574   19.8276 O   0  0  0  0  0  0  0  0  0  0  0  0
    8.3907  -14.0780   20.8447 C   0  0  0  0  0  0  0  0  0  0  0  0
    9.4777  -15.0753   20.4935 C   0  0  2  0  0  0  0  0  0  0  0  0
    9.0265  -15.9602   19.4377 N   0  0  0  0  0  0  0  0  0  0  0  0
    9.8433  -15.9011   21.6920 C   0  0  0  0  0  0  0  0  0  0  0  0
    9.1317  -16.8724   22.0551 O   0  0  0  0  0  0  0  0  0  0  0  0
   10.9892  -15.6339   22.4626 N   0  0  0  0  0  0  0  0  0  0  0  0
   11.7121  -16.6673   23.2382 C   0  0  1  0  0  0  0  0  0  0  0  0
   11.9870  -17.8322   22.3828 C   0  0  0  0  0  0  0  0  0  0  0  0
   12.7236  -18.9477   23.0128 C   0  0  0  0  0  0  0  0  0  0  0  0
   13.1091  -20.0878   22.1941 C   0  0  0  0  0  0  0  0  0  0  0  0
   12.3026  -20.7900   21.5172 O   0  0  0  0  0  0  0  0  0  0  0  0
   12.8140  -15.9882   23.9057 C   0  0  0  0  0  0  0  0  0  0  0  0
   13.6075  -15.1558   23.4022 O   0  0  0  0  0  0  0  0  0  0  0  0
   14.4631  -20.4318   22.1452 O   0  0  0  0  0  0  0  0  0  0  0  0
   13.0754  -16.2507   25.2802 O   0  0  0  0  0  0  0  0  0  0  0  0
  2  1  1  1
  2  3  1  0
  4 11  1  0
  4  2  1  0
  5  4  2  0
  7  6  1  0
  7  8  2  0
 10  9  1  1
  9  7  1  0
 10 12  1  0
 10 11  1  0
 12 14  1  0
 13 12  2  0
 14 15  1  0
 15 20  1  0
 15 16  1  6
 16 17  1  0
 18 17  1  0
 18 22  1  0
 19 18  2  0
 20 23  1  0
 21 20  2  0
M  END
$$$$
