ANE.pdb
     RDKit          3D

 23 22  0  0  1  0  0  0  0  0999 V2000
    7.8684  -12.5183   19.1188 C   0  0  0  0  0  0  0  0  0  0  0  0
    8.1877  -13.9380   19.6019 C   0  0  2  0  0  0  0  0  0  0  0  0
    7.0457  -14.7661   19.2976 N   0  0  0  0  0  0  0  0  0  0  0  0
    8.3824  -13.8734   21.0476 C   0  0  0  0  0  0  0  0  0  0  0  0
    9.4173  -13.3128   21.5077 O   0  0  0  0  0  0  0  0  0  0  0  0
    5.7688  -13.2767   26.4980 N   0  0  0  0  0  0  0  0  0  0  0  0
    6.8415  -13.6181   25.6293 C   0  0  0  0  0  0  0  0  0  0  0  0
    7.9833  -13.7408   26.1275 O   0  0  0  0  0  0  0  0  0  0  0  0
    6.5716  -13.8106   24.2044 C   0  0  0  0  0  0  0  0  0  0  0  0
    7.7814  -14.3159   23.4425 C   0  0  2  0  0  0  0  0  0  0  0  0
    7.4842  -14.4014   22.0262 N   0  0  0  0  0  0  0  0  0  0  0  0
    8.1843  -15.6754   23.9339 C   0  0  0  0  0  0  0  0  0  0  0  0
    7.3525  -16.6162   24.0017 O   0  0  0  0  0  0  0  0  0  0  0  0
    9.4998  -15.9641   24.3395 N   0  0  0  0  0  0  0  0  0  0  0  0
    9.9453  -17.3076   24.7737 C   0  0  1  0  0  0  0  0  0  0  0  0
   10.8651  -17.8753   23.7758 C   0  0  0  0  0  0  0  0  0  0  0  0
   11.8972  -16.9620   23.2424 C   0  0  0  0  0  0  0  0  0  0  0  0
   12.8696  -17.4781   22.2903 C   0  0  0  0  0  0  0  0  0  0  0  0
   13.0082  -17.0544   21.1058 O   0  0  0  0  0  0  0  0  0  0  0  0
   10.3784  -17.1727   26.1576 C   0  0  0  0  0  0  0  0  0  0  0  0
   10.7374  -18.0930   26.9323 O   0  0  0  0  0  0  0  0  0  0  0  0
   13.7142  -18.5099   22.7101 O   0  0  0  0  0  0  0  0  0  0  0  0
   10.4234  -15.8837   26.7601 O   0  0  0  0  0  0  0  0  0  0  0  0
  2  1  1  1
  2  3  1  0
  4 11  1  0
  4  2  1  0
  5  4  2  0
  7  6  1  0
  7  8  2  0
 10  9  1  1
  9  7  1  0
 10 12  1  0
 10 11  1  0
 12 14  1  0
 13 12  2  0
 14 15  1  0
 15 20  1  0
 15 16  1  6
 16 17  1  0
 18 17  1  0
 18 22  1  0
 19 18  2  0
 20 23  1  0
 21 20  2  0
M  END
$$$$
