ANE.pdb
     RDKit          3D

 23 22  0  0  1  0  0  0  0  0999 V2000
    8.5710  -18.4995   16.2830 C   0  0  0  0  0  0  0  0  0  0  0  0
    8.9369  -17.0442   15.9679 C   0  0  2  0  0  0  0  0  0  0  0  0
   10.1681  -17.0604   15.2153 N   0  0  0  0  0  0  0  0  0  0  0  0
    9.1432  -16.3606   17.2417 C   0  0  0  0  0  0  0  0  0  0  0  0
   10.3156  -16.2461   17.6992 O   0  0  0  0  0  0  0  0  0  0  0  0
    8.1533  -12.0968   20.6702 N   0  0  0  0  0  0  0  0  0  0  0  0
    7.5286  -13.3629   20.8393 C   0  0  0  0  0  0  0  0  0  0  0  0
    7.2432  -13.7254   22.0031 O   0  0  0  0  0  0  0  0  0  0  0  0
    7.2470  -14.1823   19.6606 C   0  0  0  0  0  0  0  0  0  0  0  0
    8.4240  -15.0479   19.2545 C   0  0  2  0  0  0  0  0  0  0  0  0
    8.1111  -15.7889   18.0486 N   0  0  0  0  0  0  0  0  0  0  0  0
    8.7636  -16.0216   20.3447 C   0  0  0  0  0  0  0  0  0  0  0  0
    8.7532  -17.2619   20.1367 O   0  0  0  0  0  0  0  0  0  0  0  0
    9.1078  -15.6012   21.6421 N   0  0  0  0  0  0  0  0  0  0  0  0
   10.1069  -16.2932   22.4877 C   0  0  1  0  0  0  0  0  0  0  0  0
   11.3664  -16.4512   21.7443 C   0  0  0  0  0  0  0  0  0  0  0  0
   12.5115  -16.9942   22.5044 C   0  0  0  0  0  0  0  0  0  0  0  0
   13.7931  -17.1487   21.8317 C   0  0  0  0  0  0  0  0  0  0  0  0
   14.7295  -16.2981   21.8687 O   0  0  0  0  0  0  0  0  0  0  0  0
   10.1099  -15.6053   23.7714 C   0  0  0  0  0  0  0  0  0  0  0  0
   10.7170  -15.9506   24.8146 O   0  0  0  0  0  0  0  0  0  0  0  0
   14.0109  -18.3176   21.0967 O   0  0  0  0  0  0  0  0  0  0  0  0
    9.3637  -14.4033   23.9293 O   0  0  0  0  0  0  0  0  0  0  0  0
  2  1  1  1
  2  3  1  0
  4 11  1  0
  4  2  1  0
  5  4  2  0
  7  6  1  0
  7  8  2  0
 10  9  1  1
  9  7  1  0
 10 12  1  0
 10 11  1  0
 12 14  1  0
 13 12  2  0
 14 15  1  0
 15 20  1  0
 15 16  1  6
 16 17  1  0
 18 17  1  0
 18 22  1  0
 19 18  2  0
 20 23  1  0
 21 20  2  0
M  END
$$$$
