ANE.pdb
     RDKit          3D

 23 22  0  0  1  0  0  0  0  0999 V2000
    9.6846  -17.4894   16.1615 C   0  0  0  0  0  0  0  0  0  0  0  0
    9.3049  -18.0824   17.5237 C   0  0  2  0  0  0  0  0  0  0  0  0
    7.8895  -18.3617   17.4950 N   0  0  0  0  0  0  0  0  0  0  0  0
    9.5902  -17.0688   18.5354 C   0  0  0  0  0  0  0  0  0  0  0  0
   10.7902  -16.7497   18.7697 O   0  0  0  0  0  0  0  0  0  0  0  0
    7.2869  -12.1691   19.7669 N   0  0  0  0  0  0  0  0  0  0  0  0
    7.6137  -13.5230   19.4805 C   0  0  0  0  0  0  0  0  0  0  0  0
    7.6868  -13.8672   18.2791 O   0  0  0  0  0  0  0  0  0  0  0  0
    7.8491  -14.4495   20.5879 C   0  0  0  0  0  0  0  0  0  0  0  0
    8.9935  -15.4069   20.3170 C   0  0  2  0  0  0  0  0  0  0  0  0
    8.6089  -16.3793   19.3130 N   0  0  0  0  0  0  0  0  0  0  0  0
    9.3800  -16.1351   21.5709 C   0  0  0  0  0  0  0  0  0  0  0  0
    8.5929  -16.9468   22.1215 O   0  0  0  0  0  0  0  0  0  0  0  0
   10.6301  -15.9492   22.1882 N   0  0  0  0  0  0  0  0  0  0  0  0
   11.1408  -16.8127   23.2770 C   0  0  1  0  0  0  0  0  0  0  0  0
   12.5723  -17.0819   23.0709 C   0  0  0  0  0  0  0  0  0  0  0  0
   13.4915  -15.9479   23.3012 C   0  0  0  0  0  0  0  0  0  0  0  0
   14.9255  -16.1697   23.1864 C   0  0  0  0  0  0  0  0  0  0  0  0
   15.5019  -17.2713   23.4227 O   0  0  0  0  0  0  0  0  0  0  0  0
   10.6937  -16.2117   24.5260 C   0  0  0  0  0  0  0  0  0  0  0  0
   10.1545  -15.0879   24.6756 O   0  0  0  0  0  0  0  0  0  0  0  0
   15.7246  -15.0961   22.7829 O   0  0  0  0  0  0  0  0  0  0  0  0
   10.8555  -16.9227   25.7486 O   0  0  0  0  0  0  0  0  0  0  0  0
  2  1  1  6
  2  3  1  0
  4 11  1  0
  4  2  1  0
  5  4  2  0
  7  6  1  0
  7  8  2  0
 10  9  1  1
  9  7  1  0
 10 12  1  0
 10 11  1  0
 12 14  1  0
 13 12  2  0
 14 15  1  0
 15 20  1  0
 15 16  1  1
 16 17  1  0
 18 17  1  0
 18 22  1  0
 19 18  2  0
 20 23  1  0
 21 20  2  0
M  END
$$$$
