ANE.pdb
     RDKit          3D

 23 22  0  0  1  0  0  0  0  0999 V2000
    9.3657  -17.6265   16.4258 C   0  0  0  0  0  0  0  0  0  0  0  0
   10.0926  -17.6968   17.7740 C   0  0  2  0  0  0  0  0  0  0  0  0
    9.2205  -18.3765   18.7013 N   0  0  0  0  0  0  0  0  0  0  0  0
   10.3182  -16.3248   18.2200 C   0  0  0  0  0  0  0  0  0  0  0  0
   11.1770  -15.6144   17.6243 O   0  0  0  0  0  0  0  0  0  0  0  0
    7.2897  -12.1936   18.7456 N   0  0  0  0  0  0  0  0  0  0  0  0
    7.8197  -13.4682   19.0869 C   0  0  0  0  0  0  0  0  0  0  0  0
    7.4139  -14.4632   18.4447 O   0  0  0  0  0  0  0  0  0  0  0  0
    8.8068  -13.5654   20.1621 C   0  0  0  0  0  0  0  0  0  0  0  0
   10.0297  -14.3686   19.7634 C   0  0  2  0  0  0  0  0  0  0  0  0
    9.6379  -15.6861   19.3027 N   0  0  0  0  0  0  0  0  0  0  0  0
   10.9626  -14.5225   20.9286 C   0  0  0  0  0  0  0  0  0  0  0  0
   10.6244  -14.1637   22.0855 O   0  0  0  0  0  0  0  0  0  0  0  0
   12.2503  -15.0709   20.7880 N   0  0  0  0  0  0  0  0  0  0  0  0
   13.1997  -15.2274   21.9132 C   0  0  1  0  0  0  0  0  0  0  0  0
   12.9586  -16.5083   22.5953 C   0  0  0  0  0  0  0  0  0  0  0  0
   11.8461  -16.5330   23.5677 C   0  0  0  0  0  0  0  0  0  0  0  0
   11.5146  -17.7881   24.2262 C   0  0  0  0  0  0  0  0  0  0  0  0
   12.1105  -18.8853   24.0199 O   0  0  0  0  0  0  0  0  0  0  0  0
   14.5232  -14.9325   21.3819 C   0  0  0  0  0  0  0  0  0  0  0  0
   15.5950  -14.8363   22.0283 O   0  0  0  0  0  0  0  0  0  0  0  0
   10.4698  -17.7851   25.1548 O   0  0  0  0  0  0  0  0  0  0  0  0
   14.6908  -14.7193   19.9844 O   0  0  0  0  0  0  0  0  0  0  0  0
  2  1  1  6
  2  3  1  0
  4 11  1  0
  4  2  1  0
  5  4  2  0
  7  6  1  0
  7  8  2  0
 10  9  1  1
  9  7  1  0
 10 12  1  0
 10 11  1  0
 12 14  1  0
 13 12  2  0
 14 15  1  0
 15 20  1  0
 15 16  1  6
 16 17  1  0
 18 17  1  0
 18 22  1  0
 19 18  2  0
 20 23  1  0
 21 20  2  0
M  END
$$$$
