ANE.pdb
     RDKit          3D

 23 22  0  0  1  0  0  0  0  0999 V2000
    8.4676  -18.5220   18.3789 C   0  0  0  0  0  0  0  0  0  0  0  0
    8.2514  -20.0035   18.7099 C   0  0  2  0  0  0  0  0  0  0  0  0
    7.3044  -20.5268   17.7551 N   0  0  0  0  0  0  0  0  0  0  0  0
    7.6886  -20.0722   20.0555 C   0  0  0  0  0  0  0  0  0  0  0  0
    7.3423  -19.0045   20.6361 O   0  0  0  0  0  0  0  0  0  0  0  0
    4.2394  -23.1257   23.8934 N   0  0  0  0  0  0  0  0  0  0  0  0
    4.9626  -21.9727   23.4816 C   0  0  0  0  0  0  0  0  0  0  0  0
    5.0447  -21.0147   24.2831 O   0  0  0  0  0  0  0  0  0  0  0  0
    5.5751  -21.9518   22.1533 C   0  0  0  0  0  0  0  0  0  0  0  0
    6.9129  -21.2380   22.1367 C   0  0  2  0  0  0  0  0  0  0  0  0
    7.4848  -21.2721   20.8050 N   0  0  0  0  0  0  0  0  0  0  0  0
    7.8708  -21.8906   23.0899 C   0  0  0  0  0  0  0  0  0  0  0  0
    8.3737  -23.0157   22.8396 O   0  0  0  0  0  0  0  0  0  0  0  0
    8.2517  -21.2830   24.3000 N   0  0  0  0  0  0  0  0  0  0  0  0
    9.1650  -21.9139   25.2797 C   0  0  1  0  0  0  0  0  0  0  0  0
   10.1758  -20.9396   25.7192 C   0  0  0  0  0  0  0  0  0  0  0  0
   11.4879  -21.4915   26.1163 C   0  0  0  0  0  0  0  0  0  0  0  0
   12.5479  -20.5741   26.5081 C   0  0  0  0  0  0  0  0  0  0  0  0
   12.4354  -19.3137   26.5253 O   0  0  0  0  0  0  0  0  0  0  0  0
    8.3212  -22.5714   26.2680 C   0  0  0  0  0  0  0  0  0  0  0  0
    7.2016  -22.1861   26.6850 O   0  0  0  0  0  0  0  0  0  0  0  0
   13.7751  -21.1184   26.8975 O   0  0  0  0  0  0  0  0  0  0  0  0
    8.7533  -23.7887   26.8664 O   0  0  0  0  0  0  0  0  0  0  0  0
  2  1  1  6
  2  3  1  0
  4 11  1  0
  4  2  1  0
  5  4  2  0
  7  6  1  0
  7  8  2  0
 10  9  1  6
  9  7  1  0
 10 12  1  0
 10 11  1  0
 12 14  1  0
 13 12  2  0
 14 15  1  0
 15 20  1  0
 15 16  1  1
 16 17  1  0
 18 17  1  0
 18 22  1  0
 19 18  2  0
 20 23  1  0
 21 20  2  0
M  END
$$$$
