ANE.pdb
     RDKit          3D

 23 22  0  0  1  0  0  0  0  0999 V2000
    7.4826  -18.6192   17.5303 C   0  0  0  0  0  0  0  0  0  0  0  0
    7.8166  -18.7807   19.0181 C   0  0  2  0  0  0  0  0  0  0  0  0
    6.5689  -18.7951   19.7430 N   0  0  0  0  0  0  0  0  0  0  0  0
    8.6081  -17.6200   19.4160 C   0  0  0  0  0  0  0  0  0  0  0  0
    9.8387  -17.5836   19.1309 O   0  0  0  0  0  0  0  0  0  0  0  0
    6.5399  -13.0313   19.3247 N   0  0  0  0  0  0  0  0  0  0  0  0
    7.8486  -13.5694   19.4648 C   0  0  0  0  0  0  0  0  0  0  0  0
    8.6066  -13.5351   18.4692 O   0  0  0  0  0  0  0  0  0  0  0  0
    8.2530  -14.1350   20.7519 C   0  0  0  0  0  0  0  0  0  0  0  0
    8.9994  -15.4469   20.6063 C   0  0  2  0  0  0  0  0  0  0  0  0
    8.1078  -16.4818   20.1212 N   0  0  0  0  0  0  0  0  0  0  0  0
    9.5681  -15.8796   21.9259 C   0  0  0  0  0  0  0  0  0  0  0  0
    8.8895  -15.8081   22.9823 O   0  0  0  0  0  0  0  0  0  0  0  0
   10.8760  -16.3825   22.0475 N   0  0  0  0  0  0  0  0  0  0  0  0
   11.4726  -16.8065   23.3345 C   0  0  1  0  0  0  0  0  0  0  0  0
   11.7475  -18.2514   23.3054 C   0  0  0  0  0  0  0  0  0  0  0  0
   10.5817  -19.1355   23.0977 C   0  0  0  0  0  0  0  0  0  0  0  0
   10.7753  -20.5775   23.1414 C   0  0  0  0  0  0  0  0  0  0  0  0
   11.3107  -21.2575   22.2180 O   0  0  0  0  0  0  0  0  0  0  0  0
   12.5546  -15.8733   23.6163 C   0  0  0  0  0  0  0  0  0  0  0  0
   13.1337  -15.1158   22.7998 O   0  0  0  0  0  0  0  0  0  0  0  0
   10.3462  -21.2622   24.2820 O   0  0  0  0  0  0  0  0  0  0  0  0
   13.0583  -15.7571   24.9427 O   0  0  0  0  0  0  0  0  0  0  0  0
  2  1  1  6
  2  3  1  0
  4 11  1  0
  4  2  1  0
  5  4  2  0
  7  6  1  0
  7  8  2  0
 10  9  1  1
  9  7  1  0
 10 12  1  0
 10 11  1  0
 12 14  1  0
 13 12  2  0
 14 15  1  0
 15 20  1  0
 15 16  1  6
 16 17  1  0
 18 17  1  0
 18 22  1  0
 19 18  2  0
 20 23  1  0
 21 20  2  0
M  END
$$$$
