HPA.pdb
     RDKit          3D

 23 24  0  0  1  0  0  0  0  0999 V2000
   27.1405  -24.4890  -15.9839 N   0  0  0  0  0  0  0  0  0  0  0  0
   27.6360  -23.1622  -15.9040 C   0  0  1  0  0  0  0  0  0  0  0  0
   28.5559  -22.9606  -17.0947 C   0  0  0  0  0  0  0  0  0  0  0  0
   29.6947  -23.9060  -17.0706 C   0  0  0  0  0  0  0  0  0  0  0  0
   30.7047  -24.0293  -16.1337 C   0  0  0  0  0  0  0  0  0  0  0  0
   31.5446  -25.0153  -16.4860 N   0  0  0  0  0  0  0  0  0  0  0  0
   31.0827  -25.5245  -17.6387 C   0  0  0  0  0  0  0  0  0  0  0  0
   29.9725  -24.8539  -17.9834 N   0  0  0  0  0  0  0  0  0  0  0  0
   26.6373  -22.0790  -15.8549 C   0  0  0  0  0  0  0  0  0  0  0  0
   25.4251  -22.5183  -16.0616 O   0  0  0  0  0  0  0  0  0  0  0  0
   26.8568  -20.7189  -15.6233 N   0  0  0  0  0  0  0  0  0  0  0  0
   28.0592  -19.9777  -15.5774 C   0  0  0  0  0  0  0  0  0  0  0  0
   27.9047  -19.3026  -14.2157 C   0  0  0  0  0  0  0  0  0  0  0  0
   26.4514  -18.9419  -14.2519 C   0  0  0  0  0  0  0  0  0  0  0  0
   25.8208  -19.7440  -15.3680 C   0  0  1  0  0  0  0  0  0  0  0  0
   25.5215  -18.9227  -16.5709 C   0  0  0  0  0  0  0  0  0  0  0  0
   26.4637  -18.6006  -17.3289 O   0  0  0  0  0  0  0  0  0  0  0  0
   22.4394  -18.5017  -18.5726 C   0  0  0  0  0  0  0  0  0  0  0  0
   23.8342  -17.9888  -18.1910 C   0  0  2  0  0  0  0  0  0  0  0  0
   24.2183  -18.4828  -16.9064 N   0  0  0  0  0  0  0  0  0  0  0  0
   23.7422  -16.5111  -18.1535 C   0  0  0  0  0  0  0  0  0  0  0  0
   23.6327  -15.7475  -19.3006 O   0  0  0  0  0  0  0  0  0  0  0  0
   23.7643  -15.9361  -17.0474 O   0  0  0  0  0  0  0  0  0  0  0  0
  2  9  1  0
  2  1  1  6
  3  2  1  0
  4  3  1  0
  5  4  2  0
  6  5  1  0
  7  6  1  0
  7  8  2  0
  8  4  1  0
  9 10  2  0
 11  9  1  0
 11 15  1  0
 12 11  1  0
 12 13  1  0
 13 14  1  0
 15 14  1  0
 16 17  2  0
 15 16  1  6
 19 18  1  1
 19 20  1  0
 20 16  1  0
 21 22  1  0
 21 19  1  0
 23 21  2  0
M  END
$$$$
