HPA.pdb
     RDKit          3D

 23 24  0  0  1  0  0  0  0  0999 V2000
   17.7756  -11.8882  -16.0603 N   0  0  0  0  0  0  0  0  0  0  0  0
   18.9452  -11.1631  -16.4046 C   0  0  1  0  0  0  0  0  0  0  0  0
   18.6348  -10.4022  -17.6810 C   0  0  0  0  0  0  0  0  0  0  0  0
   18.3111  -11.3187  -18.7975 C   0  0  0  0  0  0  0  0  0  0  0  0
   17.1330  -11.4390  -19.5119 C   0  0  0  0  0  0  0  0  0  0  0  0
   17.2543  -12.3949  -20.4465 N   0  0  0  0  0  0  0  0  0  0  0  0
   18.4979  -12.8877  -20.3376 C   0  0  0  0  0  0  0  0  0  0  0  0
   19.1262  -12.2372  -19.3461 N   0  0  0  0  0  0  0  0  0  0  0  0
   19.4798  -10.2381  -15.3887 C   0  0  0  0  0  0  0  0  0  0  0  0
   18.5563   -9.8310  -14.5601 O   0  0  0  0  0  0  0  0  0  0  0  0
   20.7948   -9.7894  -15.2437 N   0  0  0  0  0  0  0  0  0  0  0  0
   21.9342  -10.0094  -16.0502 C   0  0  0  0  0  0  0  0  0  0  0  0
   22.9093  -10.5334  -14.9973 C   0  0  0  0  0  0  0  0  0  0  0  0
   22.5950   -9.6188  -13.8534 C   0  0  0  0  0  0  0  0  0  0  0  0
   21.2716   -8.9562  -14.1632 C   0  0  1  0  0  0  0  0  0  0  0  0
   21.4207   -7.5366  -14.5800 C   0  0  0  0  0  0  0  0  0  0  0  0
   21.8851   -7.2886  -15.7153 O   0  0  0  0  0  0  0  0  0  0  0  0
   19.9633   -4.2940  -13.4179 C   0  0  0  0  0  0  0  0  0  0  0  0
   21.0385   -5.0793  -14.1805 C   0  0  2  0  0  0  0  0  0  0  0  0
   21.0627   -6.4431  -13.7549 N   0  0  0  0  0  0  0  0  0  0  0  0
   22.3330   -4.4323  -13.8657 C   0  0  0  0  0  0  0  0  0  0  0  0
   22.8144   -3.3534  -14.5833 O   0  0  0  0  0  0  0  0  0  0  0  0
   23.0122   -4.8774  -12.9195 O   0  0  0  0  0  0  0  0  0  0  0  0
  2  9  1  0
  2  1  1  1
  3  2  1  0
  4  3  1  0
  5  4  2  0
  6  5  1  0
  7  6  1  0
  7  8  2  0
  8  4  1  0
  9 10  2  0
 11  9  1  0
 11 15  1  0
 12 11  1  0
 12 13  1  0
 13 14  1  0
 15 14  1  0
 16 17  2  0
 15 16  1  6
 19 18  1  1
 19 20  1  0
 20 16  1  0
 21 22  1  0
 21 19  1  0
 23 21  2  0
M  END
$$$$
