HPA.pdb
     RDKit          3D

 23 24  0  0  1  0  0  0  0  0999 V2000
   28.1137  -20.5858  -15.9356 N   0  0  0  0  0  0  0  0  0  0  0  0
   27.2617  -20.0322  -14.9457 C   0  0  1  0  0  0  0  0  0  0  0  0
   26.4933  -18.9011  -15.6050 C   0  0  0  0  0  0  0  0  0  0  0  0
   27.3945  -17.8108  -16.0411 C   0  0  0  0  0  0  0  0  0  0  0  0
   27.7264  -16.6398  -15.3842 C   0  0  0  0  0  0  0  0  0  0  0  0
   28.5798  -15.9181  -16.1276 N   0  0  0  0  0  0  0  0  0  0  0  0
   28.7976  -16.6151  -17.2537 C   0  0  0  0  0  0  0  0  0  0  0  0
   28.0832  -17.7496  -17.1948 N   0  0  0  0  0  0  0  0  0  0  0  0
   26.3223  -20.9547  -14.2825 C   0  0  0  0  0  0  0  0  0  0  0  0
   26.1377  -22.0480  -14.9722 O   0  0  0  0  0  0  0  0  0  0  0  0
   25.6581  -20.7759  -13.0666 N   0  0  0  0  0  0  0  0  0  0  0  0
   25.7483  -19.7344  -12.1156 C   0  0  0  0  0  0  0  0  0  0  0  0
   26.0317  -20.5485  -10.8544 C   0  0  0  0  0  0  0  0  0  0  0  0
   25.1006  -21.7039  -11.0590 C   0  0  0  0  0  0  0  0  0  0  0  0
   24.6840  -21.6885  -12.5125 C   0  0  1  0  0  0  0  0  0  0  0  0
   23.2923  -21.2028  -12.7087 C   0  0  0  0  0  0  0  0  0  0  0  0
   23.0643  -19.9761  -12.6134 O   0  0  0  0  0  0  0  0  0  0  0  0
   20.1263  -22.7653  -14.0613 C   0  0  0  0  0  0  0  0  0  0  0  0
   20.9090  -21.6176  -13.4099 C   0  0  2  0  0  0  0  0  0  0  0  0
   22.2040  -22.0606  -12.9996 N   0  0  0  0  0  0  0  0  0  0  0  0
   20.1254  -21.1939  -12.2267 C   0  0  0  0  0  0  0  0  0  0  0  0
   19.0304  -20.3562  -12.3261 O   0  0  0  0  0  0  0  0  0  0  0  0
   20.4664  -21.6081  -11.1011 O   0  0  0  0  0  0  0  0  0  0  0  0
  2  9  1  0
  2  1  1  6
  3  2  1  0
  4  3  1  0
  5  4  2  0
  6  5  1  0
  7  6  1  0
  7  8  2  0
  8  4  1  0
  9 10  2  0
 11  9  1  0
 11 15  1  0
 12 11  1  0
 12 13  1  0
 13 14  1  0
 15 14  1  0
 16 17  2  0
 15 16  1  1
 19 18  1  1
 19 20  1  0
 20 16  1  0
 21 22  1  0
 21 19  1  0
 23 21  2  0
M  END
$$$$
