HPA.pdb
     RDKit          3D

 23 24  0  0  1  0  0  0  0  0999 V2000
   15.1389  -20.6464    6.0140 N   0  0  0  0  0  0  0  0  0  0  0  0
   16.5300  -20.6080    5.7393 C   0  0  1  0  0  0  0  0  0  0  0  0
   16.9548  -19.1522    5.8065 C   0  0  0  0  0  0  0  0  0  0  0  0
   16.2911  -18.3414    4.7608 C   0  0  0  0  0  0  0  0  0  0  0  0
   15.5016  -18.7593    3.7049 C   0  0  0  0  0  0  0  0  0  0  0  0
   15.0935  -17.7020    2.9856 N   0  0  0  0  0  0  0  0  0  0  0  0
   15.6137  -16.6116    3.5701 C   0  0  0  0  0  0  0  0  0  0  0  0
   16.3311  -17.0030    4.6346 N   0  0  0  0  0  0  0  0  0  0  0  0
   17.4032  -21.4238    6.6029 C   0  0  0  0  0  0  0  0  0  0  0  0
   16.8146  -21.7608    7.7187 O   0  0  0  0  0  0  0  0  0  0  0  0
   18.7130  -21.8393    6.3513 N   0  0  0  0  0  0  0  0  0  0  0  0
   19.5671  -21.5718    5.2576 C   0  0  0  0  0  0  0  0  0  0  0  0
   19.9562  -22.9969    4.8681 C   0  0  0  0  0  0  0  0  0  0  0  0
   20.1465  -23.6087    6.2220 C   0  0  0  0  0  0  0  0  0  0  0  0
   19.4972  -22.6821    7.2251 C   0  0  1  0  0  0  0  0  0  0  0  0
   20.4866  -21.8991    8.0121 C   0  0  0  0  0  0  0  0  0  0  0  0
   21.1659  -21.0265    7.4264 O   0  0  0  0  0  0  0  0  0  0  0  0
   21.0047  -20.8804   11.4928 C   0  0  0  0  0  0  0  0  0  0  0  0
   21.6447  -21.3549   10.1815 C   0  0  2  0  0  0  0  0  0  0  0  0
   20.7023  -22.0899    9.3983 N   0  0  0  0  0  0  0  0  0  0  0  0
   22.7756  -22.2330   10.5603 C   0  0  0  0  0  0  0  0  0  0  0  0
   23.9270  -21.7439   11.1484 O   0  0  0  0  0  0  0  0  0  0  0  0
   22.6850  -23.4570   10.3405 O   0  0  0  0  0  0  0  0  0  0  0  0
  2  9  1  0
  2  1  1  1
  3  2  1  0
  4  3  1  0
  5  4  2  0
  6  5  1  0
  7  6  1  0
  7  8  2  0
  8  4  1  0
  9 10  2  0
 11  9  1  0
 11 15  1  0
 12 11  1  0
 12 13  1  0
 13 14  1  0
 15 14  1  0
 16 17  2  0
 15 16  1  6
 19 18  1  1
 19 20  1  0
 20 16  1  0
 21 22  1  0
 21 19  1  0
 23 21  2  0
M  END
$$$$
