HPA.pdb
     RDKit          3D

 23 24  0  0  1  0  0  0  0  0999 V2000
   18.7669  -13.4891  -16.9134 N   0  0  0  0  0  0  0  0  0  0  0  0
   18.2910  -12.1706  -16.6960 C   0  0  1  0  0  0  0  0  0  0  0  0
   17.5207  -12.1878  -15.3881 C   0  0  0  0  0  0  0  0  0  0  0  0
   16.2967  -13.0144  -15.4866 C   0  0  0  0  0  0  0  0  0  0  0  0
   15.1515  -12.7901  -16.2289 C   0  0  0  0  0  0  0  0  0  0  0  0
   14.2729  -13.7865  -16.0367 N   0  0  0  0  0  0  0  0  0  0  0  0
   14.8439  -14.6465  -15.1790 C   0  0  0  0  0  0  0  0  0  0  0  0
   16.0581  -14.1767  -14.8532 N   0  0  0  0  0  0  0  0  0  0  0  0
   19.2977  -11.0940  -16.6691 C   0  0  0  0  0  0  0  0  0  0  0  0
   20.3917  -11.4592  -16.0568 O   0  0  0  0  0  0  0  0  0  0  0  0
   19.1929   -9.8072  -17.2029 N   0  0  0  0  0  0  0  0  0  0  0  0
   18.1218   -9.1767  -17.8755 C   0  0  0  0  0  0  0  0  0  0  0  0
   18.8389   -8.7112  -19.1416 C   0  0  0  0  0  0  0  0  0  0  0  0
   20.1373   -8.2388  -18.5633 C   0  0  0  0  0  0  0  0  0  0  0  0
   20.2357   -8.8072  -17.1656 C   0  0  1  0  0  0  0  0  0  0  0  0
   19.9917   -7.7886  -16.1100 C   0  0  0  0  0  0  0  0  0  0  0  0
   18.8123   -7.4554  -15.8568 O   0  0  0  0  0  0  0  0  0  0  0  0
   22.0796   -6.4971  -13.2773 C   0  0  0  0  0  0  0  0  0  0  0  0
   20.8358   -6.4186  -14.1724 C   0  0  2  0  0  0  0  0  0  0  0  0
   21.0299   -7.1716  -15.3711 N   0  0  0  0  0  0  0  0  0  0  0  0
   20.6469   -4.9875  -14.5037 C   0  0  0  0  0  0  0  0  0  0  0  0
   20.2062   -4.0650  -13.5735 O   0  0  0  0  0  0  0  0  0  0  0  0
   20.8946   -4.6021  -15.6634 O   0  0  0  0  0  0  0  0  0  0  0  0
  2  9  1  0
  2  1  1  1
  3  2  1  0
  4  3  1  0
  5  4  2  0
  6  5  1  0
  7  6  1  0
  7  8  2  0
  8  4  1  0
  9 10  2  0
 11  9  1  0
 11 15  1  0
 12 11  1  0
 12 13  1  0
 13 14  1  0
 15 14  1  0
 16 17  2  0
 15 16  1  1
 19 18  1  1
 19 20  1  0
 20 16  1  0
 21 22  1  0
 21 19  1  0
 23 21  2  0
M  END
$$$$
