HPA.pdb
     RDKit          3D

 23 24  0  0  1  0  0  0  0  0999 V2000
   13.0621  -21.9276    0.0819 N   0  0  0  0  0  0  0  0  0  0  0  0
   13.3977  -22.0615    1.4536 C   0  0  1  0  0  0  0  0  0  0  0  0
   14.6355  -22.9377    1.5232 C   0  0  0  0  0  0  0  0  0  0  0  0
   14.3806  -24.2869    0.9701 C   0  0  0  0  0  0  0  0  0  0  0  0
   13.8630  -25.4035    1.6011 C   0  0  0  0  0  0  0  0  0  0  0  0
   13.7931  -26.4308    0.7401 N   0  0  0  0  0  0  0  0  0  0  0  0
   14.2606  -25.9834   -0.4357 C   0  0  0  0  0  0  0  0  0  0  0  0
   14.6113  -24.6962   -0.2902 N   0  0  0  0  0  0  0  0  0  0  0  0
   13.6237  -20.8162    2.2097 C   0  0  0  0  0  0  0  0  0  0  0  0
   13.8663  -19.8016    1.4244 O   0  0  0  0  0  0  0  0  0  0  0  0
   13.6030  -20.6375    3.5950 N   0  0  0  0  0  0  0  0  0  0  0  0
   13.4888  -21.5810    4.6410 C   0  0  0  0  0  0  0  0  0  0  0  0
   12.3133  -20.9833    5.4123 C   0  0  0  0  0  0  0  0  0  0  0  0
   12.6551  -19.5264    5.3471 C   0  0  0  0  0  0  0  0  0  0  0  0
   13.7009  -19.3619    4.2675 C   0  0  1  0  0  0  0  0  0  0  0  0
   15.0631  -19.1251    4.8150 C   0  0  0  0  0  0  0  0  0  0  0  0
   15.7296  -20.1059    5.2146 O   0  0  0  0  0  0  0  0  0  0  0  0
   17.5124  -16.2737    4.7728 C   0  0  0  0  0  0  0  0  0  0  0  0
   16.9812  -17.5871    5.3618 C   0  0  2  0  0  0  0  0  0  0  0  0
   15.6499  -17.8400    4.9087 N   0  0  0  0  0  0  0  0  0  0  0  0
   16.9874  -17.4198    6.8333 C   0  0  0  0  0  0  0  0  0  0  0  0
   15.8309  -17.4736    7.5886 O   0  0  0  0  0  0  0  0  0  0  0  0
   18.0750  -17.2235    7.4106 O   0  0  0  0  0  0  0  0  0  0  0  0
  2  9  1  0
  2  1  1  6
  3  2  1  0
  4  3  1  0
  5  4  2  0
  6  5  1  0
  7  6  1  0
  7  8  2  0
  8  4  1  0
  9 10  2  0
 11  9  1  0
 11 15  1  0
 12 11  1  0
 12 13  1  0
 13 14  1  0
 15 14  1  0
 16 17  2  0
 15 16  1  1
 19 18  1  6
 19 20  1  0
 20 16  1  0
 21 22  1  0
 21 19  1  0
 23 21  2  0
M  END
$$$$
