HPA.pdb
     RDKit          3D

 23 24  0  0  1  0  0  0  0  0999 V2000
   20.5509  -25.6829  -14.3170 N   0  0  0  0  0  0  0  0  0  0  0  0
   19.8696  -26.3783  -13.2853 C   0  0  1  0  0  0  0  0  0  0  0  0
   20.8656  -27.3445  -12.6698 C   0  0  0  0  0  0  0  0  0  0  0  0
   21.2818  -28.3873  -13.6345 C   0  0  0  0  0  0  0  0  0  0  0  0
   20.6903  -29.6073  -13.9074 C   0  0  0  0  0  0  0  0  0  0  0  0
   21.3854  -30.2571  -14.8542 N   0  0  0  0  0  0  0  0  0  0  0  0
   22.4159  -29.4655  -15.1902 C   0  0  0  0  0  0  0  0  0  0  0  0
   22.3472  -28.3453  -14.4543 N   0  0  0  0  0  0  0  0  0  0  0  0
   19.2475  -25.5608  -12.2280 C   0  0  0  0  0  0  0  0  0  0  0  0
   19.9739  -24.5205  -11.9196 O   0  0  0  0  0  0  0  0  0  0  0  0
   18.0344  -25.7843  -11.5720 N   0  0  0  0  0  0  0  0  0  0  0  0
   17.1177  -26.8547  -11.6767 C   0  0  0  0  0  0  0  0  0  0  0  0
   15.8325  -26.0786  -11.9597 C   0  0  0  0  0  0  0  0  0  0  0  0
   15.9954  -24.9259  -11.0172 C   0  0  0  0  0  0  0  0  0  0  0  0
   17.4464  -24.8987  -10.5928 C   0  0  1  0  0  0  0  0  0  0  0  0
   17.6509  -25.3907   -9.2045 C   0  0  0  0  0  0  0  0  0  0  0  0
   17.4272  -26.5962   -8.9545 O   0  0  0  0  0  0  0  0  0  0  0  0
   19.3747  -23.9625   -6.1617 C   0  0  0  0  0  0  0  0  0  0  0  0
   18.5485  -25.0390   -6.8776 C   0  0  2  0  0  0  0  0  0  0  0  0
   18.0881  -24.5617   -8.1432 N   0  0  0  0  0  0  0  0  0  0  0  0
   17.3914  -25.3321   -6.0007 C   0  0  0  0  0  0  0  0  0  0  0  0
   16.1027  -24.9517   -6.3249 O   0  0  0  0  0  0  0  0  0  0  0  0
   17.5878  -25.9438   -4.9320 O   0  0  0  0  0  0  0  0  0  0  0  0
  2  9  1  0
  2  1  1  6
  3  2  1  0
  4  3  1  0
  5  4  2  0
  6  5  1  0
  7  6  1  0
  7  8  2  0
  8  4  1  0
  9 10  2  0
 11  9  1  0
 11 15  1  0
 12 11  1  0
 12 13  1  0
 13 14  1  0
 15 14  1  0
 16 17  2  0
 15 16  1  1
 19 18  1  1
 19 20  1  0
 20 16  1  0
 21 22  1  0
 21 19  1  0
 23 21  2  0
M  END
$$$$
