HPA.pdb
     RDKit          3D

 23 24  0  0  1  0  0  0  0  0999 V2000
   22.8765  -18.9774  -18.3306 N   0  0  0  0  0  0  0  0  0  0  0  0
   23.2174  -18.3322  -17.1141 C   0  0  1  0  0  0  0  0  0  0  0  0
   21.9378  -18.2025  -16.3078 C   0  0  0  0  0  0  0  0  0  0  0  0
   20.9968  -17.2430  -16.9285 C   0  0  0  0  0  0  0  0  0  0  0  0
   20.9680  -15.8637  -16.8301 C   0  0  0  0  0  0  0  0  0  0  0  0
   19.9484  -15.3697  -17.5498 N   0  0  0  0  0  0  0  0  0  0  0  0
   19.3242  -16.4185  -18.1081 C   0  0  0  0  0  0  0  0  0  0  0  0
   19.9588  -17.5392  -17.7308 N   0  0  0  0  0  0  0  0  0  0  0  0
   24.2636  -18.9677  -16.2925 C   0  0  0  0  0  0  0  0  0  0  0  0
   24.3913  -20.2399  -16.5571 O   0  0  0  0  0  0  0  0  0  0  0  0
   25.0742  -18.3715  -15.3234 N   0  0  0  0  0  0  0  0  0  0  0  0
   25.0846  -17.0505  -14.8212 C   0  0  0  0  0  0  0  0  0  0  0  0
   26.5559  -16.6968  -15.0313 C   0  0  0  0  0  0  0  0  0  0  0  0
   27.2080  -17.9806  -14.6188 C   0  0  0  0  0  0  0  0  0  0  0  0
   26.1310  -19.0418  -14.6005 C   0  0  1  0  0  0  0  0  0  0  0  0
   25.7125  -19.4154  -13.2234 C   0  0  0  0  0  0  0  0  0  0  0  0
   24.8705  -18.7000  -12.6357 O   0  0  0  0  0  0  0  0  0  0  0  0
   26.4648  -22.2942  -10.8572 C   0  0  0  0  0  0  0  0  0  0  0  0
   25.7630  -20.9901  -11.2582 C   0  0  2  0  0  0  0  0  0  0  0  0
   26.2194  -20.5453  -12.5371 N   0  0  0  0  0  0  0  0  0  0  0  0
   26.1140  -19.9896  -10.2242 C   0  0  0  0  0  0  0  0  0  0  0  0
   25.4299  -19.8920   -9.0270 O   0  0  0  0  0  0  0  0  0  0  0  0
   27.0606  -19.2078  -10.4422 O   0  0  0  0  0  0  0  0  0  0  0  0
  2  9  1  0
  2  1  1  6
  3  2  1  0
  4  3  1  0
  5  4  2  0
  6  5  1  0
  7  6  1  0
  7  8  2  0
  8  4  1  0
  9 10  2  0
 11  9  1  0
 11 15  1  0
 12 11  1  0
 12 13  1  0
 13 14  1  0
 15 14  1  0
 16 17  2  0
 15 16  1  1
 19 18  1  1
 19 20  1  0
 20 16  1  0
 21 22  1  0
 21 19  1  0
 23 21  2  0
M  END
$$$$
