HPA.pdb
     RDKit          3D

 23 24  0  0  1  0  0  0  0  0999 V2000
   21.5465  -32.3692  -12.2152 N   0  0  0  0  0  0  0  0  0  0  0  0
   22.3723  -32.1113  -11.0911 C   0  0  1  0  0  0  0  0  0  0  0  0
   21.5344  -31.3288  -10.0961 C   0  0  0  0  0  0  0  0  0  0  0  0
   21.1806  -29.9886  -10.6157 C   0  0  0  0  0  0  0  0  0  0  0  0
   21.6252  -29.3531  -11.7608 C   0  0  0  0  0  0  0  0  0  0  0  0
   21.0580  -28.1412  -11.8672 N   0  0  0  0  0  0  0  0  0  0  0  0
   20.2549  -27.9943  -10.8020 C   0  0  0  0  0  0  0  0  0  0  0  0
   20.3336  -29.1067  -10.0554 N   0  0  0  0  0  0  0  0  0  0  0  0
   22.9770  -33.2796  -10.4257 C   0  0  0  0  0  0  0  0  0  0  0  0
   22.3047  -34.3761  -10.6508 O   0  0  0  0  0  0  0  0  0  0  0  0
   24.1254  -33.3156   -9.6309 N   0  0  0  0  0  0  0  0  0  0  0  0
   24.9384  -32.2671   -9.1442 C   0  0  0  0  0  0  0  0  0  0  0  0
   26.3061  -32.7416   -9.6322 C   0  0  0  0  0  0  0  0  0  0  0  0
   26.2050  -34.2086   -9.3474 C   0  0  0  0  0  0  0  0  0  0  0  0
   24.7425  -34.5188   -9.1206 C   0  0  1  0  0  0  0  0  0  0  0  0
   24.4164  -34.7462   -7.6877 C   0  0  0  0  0  0  0  0  0  0  0  0
   24.2559  -33.7538   -6.9425 O   0  0  0  0  0  0  0  0  0  0  0  0
   23.3168  -37.7593   -5.6878 C   0  0  0  0  0  0  0  0  0  0  0  0
   23.7510  -36.2931   -5.8147 C   0  0  2  0  0  0  0  0  0  0  0  0
   24.2770  -36.0348   -7.1179 N   0  0  0  0  0  0  0  0  0  0  0  0
   24.8049  -36.0781   -4.7965 C   0  0  0  0  0  0  0  0  0  0  0  0
   24.5260  -36.0225   -3.4438 O   0  0  0  0  0  0  0  0  0  0  0  0
   25.9855  -35.9423   -5.1739 O   0  0  0  0  0  0  0  0  0  0  0  0
  2  9  1  0
  2  1  1  6
  3  2  1  0
  4  3  1  0
  5  4  2  0
  6  5  1  0
  7  6  1  0
  7  8  2  0
  8  4  1  0
  9 10  2  0
 11  9  1  0
 11 15  1  0
 12 11  1  0
 12 13  1  0
 13 14  1  0
 15 14  1  0
 16 17  2  0
 15 16  1  1
 19 18  1  6
 19 20  1  0
 20 16  1  0
 21 22  1  0
 21 19  1  0
 23 21  2  0
M  END
$$$$
