HPA.pdb
     RDKit          3D

 23 24  0  0  1  0  0  0  0  0999 V2000
   19.7870  -11.7870  -17.5253 N   0  0  0  0  0  0  0  0  0  0  0  0
   19.1740  -10.7901  -16.7237 C   0  0  1  0  0  0  0  0  0  0  0  0
   19.2029  -11.2934  -15.2918 C   0  0  0  0  0  0  0  0  0  0  0  0
   18.1789  -12.3368  -15.0595 C   0  0  0  0  0  0  0  0  0  0  0  0
   18.2517  -13.6971  -15.2982 C   0  0  0  0  0  0  0  0  0  0  0  0
   17.1001  -14.2907  -14.9474 N   0  0  0  0  0  0  0  0  0  0  0  0
   16.2907  -13.3244  -14.4866 C   0  0  0  0  0  0  0  0  0  0  0  0
   16.9448  -12.1546  -14.5569 N   0  0  0  0  0  0  0  0  0  0  0  0
   19.7499   -9.4345  -16.7887 C   0  0  0  0  0  0  0  0  0  0  0  0
   21.0506   -9.4580  -16.9014 O   0  0  0  0  0  0  0  0  0  0  0  0
   19.0751   -8.2121  -16.7436 N   0  0  0  0  0  0  0  0  0  0  0  0
   17.6973   -7.9284  -16.6082 C   0  0  0  0  0  0  0  0  0  0  0  0
   17.4931   -7.0151  -17.8157 C   0  0  0  0  0  0  0  0  0  0  0  0
   18.7439   -6.1935  -17.7526 C   0  0  0  0  0  0  0  0  0  0  0  0
   19.7047   -6.9143  -16.8339 C   0  0  1  0  0  0  0  0  0  0  0  0
   19.8289   -6.2628  -15.5030 C   0  0  0  0  0  0  0  0  0  0  0  0
   18.8714   -6.3445  -14.7015 O   0  0  0  0  0  0  0  0  0  0  0  0
   22.6376   -5.1397  -13.3515 C   0  0  0  0  0  0  0  0  0  0  0  0
   21.1727   -5.0013  -13.7864 C   0  0  2  0  0  0  0  0  0  0  0  0
   20.9810   -5.5499  -15.0917 N   0  0  0  0  0  0  0  0  0  0  0  0
   20.8753   -3.5505  -13.8032 C   0  0  0  0  0  0  0  0  0  0  0  0
   20.5928   -2.8669  -14.9709 O   0  0  0  0  0  0  0  0  0  0  0  0
   20.8802   -2.9242  -12.7250 O   0  0  0  0  0  0  0  0  0  0  0  0
  2  9  1  0
  2  1  1  6
  3  2  1  0
  4  3  1  0
  5  4  2  0
  6  5  1  0
  7  6  1  0
  7  8  2  0
  8  4  1  0
  9 10  2  0
 11  9  1  0
 11 15  1  0
 12 11  1  0
 12 13  1  0
 13 14  1  0
 15 14  1  0
 16 17  2  0
 15 16  1  1
 19 18  1  6
 19 20  1  0
 20 16  1  0
 21 22  1  0
 21 19  1  0
 23 21  2  0
M  END
$$$$
