HPA.pdb
     RDKit          3D

 23 24  0  0  1  0  0  0  0  0999 V2000
   41.0717  -10.3791  -10.8136 N   0  0  0  0  0  0  0  0  0  0  0  0
   39.6622  -10.2370  -10.8858 C   0  0  1  0  0  0  0  0  0  0  0  0
   39.2547   -9.2901   -9.7715 C   0  0  0  0  0  0  0  0  0  0  0  0
   38.8661  -10.0244   -8.5464 C   0  0  0  0  0  0  0  0  0  0  0  0
   38.8464  -11.3883   -8.3177 C   0  0  0  0  0  0  0  0  0  0  0  0
   38.4282  -11.6418   -7.0676 N   0  0  0  0  0  0  0  0  0  0  0  0
   38.1801  -10.4543   -6.4937 C   0  0  0  0  0  0  0  0  0  0  0  0
   38.4450   -9.4883   -7.3869 N   0  0  0  0  0  0  0  0  0  0  0  0
   39.1037   -9.7701  -12.1678 C   0  0  0  0  0  0  0  0  0  0  0  0
   40.0169   -9.2458  -12.9399 O   0  0  0  0  0  0  0  0  0  0  0  0
   37.7767   -9.8339  -12.6000 N   0  0  0  0  0  0  0  0  0  0  0  0
   36.6266  -10.3492  -11.9607 C   0  0  0  0  0  0  0  0  0  0  0  0
   36.1214  -11.2991  -13.0453 C   0  0  0  0  0  0  0  0  0  0  0  0
   36.3572  -10.4680  -14.2690 C   0  0  0  0  0  0  0  0  0  0  0  0
   37.2963   -9.3504  -13.8745 C   0  0  1  0  0  0  0  0  0  0  0  0
   36.6097   -8.0375  -13.7482 C   0  0  0  0  0  0  0  0  0  0  0  0
   35.9174   -7.8162  -12.7295 O   0  0  0  0  0  0  0  0  0  0  0  0
   36.6516   -4.7789  -15.6892 C   0  0  0  0  0  0  0  0  0  0  0  0
   36.1225   -5.7162  -14.5958 C   0  0  2  0  0  0  0  0  0  0  0  0
   36.6983   -7.0174  -14.7261 N   0  0  0  0  0  0  0  0  0  0  0  0
   34.6557   -5.7953  -14.7846 C   0  0  0  0  0  0  0  0  0  0  0  0
   33.8027   -4.7846  -14.3826 O   0  0  0  0  0  0  0  0  0  0  0  0
   34.1739   -6.8102  -15.3255 O   0  0  0  0  0  0  0  0  0  0  0  0
  2  9  1  0
  2  1  1  6
  3  2  1  0
  4  3  1  0
  5  4  2  0
  6  5  1  0
  7  6  1  0
  7  8  2  0
  8  4  1  0
  9 10  2  0
 11  9  1  0
 11 15  1  0
 12 11  1  0
 12 13  1  0
 13 14  1  0
 15 14  1  0
 16 17  2  0
 15 16  1  1
 19 18  1  6
 19 20  1  0
 20 16  1  0
 21 22  1  0
 21 19  1  0
 23 21  2  0
M  END
$$$$
