HPA.pdb
     RDKit          3D

 23 24  0  0  1  0  0  0  0  0999 V2000
   14.6259  -23.3337    4.1942 N   0  0  0  0  0  0  0  0  0  0  0  0
   16.0259  -23.1099    4.2382 C   0  0  1  0  0  0  0  0  0  0  0  0
   16.2782  -21.7558    3.5999 C   0  0  0  0  0  0  0  0  0  0  0  0
   15.8520  -21.7329    2.1825 C   0  0  0  0  0  0  0  0  0  0  0  0
   16.4817  -22.2708    1.0748 C   0  0  0  0  0  0  0  0  0  0  0  0
   15.7602  -22.0282   -0.0308 N   0  0  0  0  0  0  0  0  0  0  0  0
   14.6752  -21.3404    0.3577 C   0  0  0  0  0  0  0  0  0  0  0  0
   14.7370  -21.1670    1.6871 N   0  0  0  0  0  0  0  0  0  0  0  0
   16.6689  -23.1653    5.5637 C   0  0  0  0  0  0  0  0  0  0  0  0
   15.8431  -22.8483    6.5242 O   0  0  0  0  0  0  0  0  0  0  0  0
   17.9911  -23.5031    5.8629 N   0  0  0  0  0  0  0  0  0  0  0  0
   19.0931  -23.7415    5.0109 C   0  0  0  0  0  0  0  0  0  0  0  0
   19.5347  -25.1115    5.5229 C   0  0  0  0  0  0  0  0  0  0  0  0
   19.3735  -24.9172    6.9993 C   0  0  0  0  0  0  0  0  0  0  0  0
   18.5182  -23.6859    7.1961 C   0  0  1  0  0  0  0  0  0  0  0  0
   19.3009  -22.5063    7.6512 C   0  0  0  0  0  0  0  0  0  0  0  0
   20.0072  -21.8954    6.8181 O   0  0  0  0  0  0  0  0  0  0  0  0
   19.5678  -20.5014   10.8603 C   0  0  0  0  0  0  0  0  0  0  0  0
   20.0291  -20.9049    9.4537 C   0  0  2  0  0  0  0  0  0  0  0  0
   19.2896  -22.0346    8.9861 N   0  0  0  0  0  0  0  0  0  0  0  0
   21.4634  -21.2561    9.5671 C   0  0  0  0  0  0  0  0  0  0  0  0
   21.9119  -22.5623    9.5099 O   0  0  0  0  0  0  0  0  0  0  0  0
   22.2955  -20.3400    9.7197 O   0  0  0  0  0  0  0  0  0  0  0  0
  2  9  1  0
  2  1  1  1
  3  2  1  0
  4  3  1  0
  5  4  2  0
  6  5  1  0
  7  6  1  0
  7  8  2  0
  8  4  1  0
  9 10  2  0
 11  9  1  0
 11 15  1  0
 12 11  1  0
 12 13  1  0
 13 14  1  0
 15 14  1  0
 16 17  2  0
 15 16  1  6
 19 18  1  1
 19 20  1  0
 20 16  1  0
 21 22  1  0
 21 19  1  0
 23 21  2  0
M  END
$$$$
