HPA.pdb
     RDKit          3D

 23 24  0  0  1  0  0  0  0  0999 V2000
   23.9434  -20.7275  -15.2596 N   0  0  0  0  0  0  0  0  0  0  0  0
   24.8306  -20.0028  -14.4232 C   0  0  1  0  0  0  0  0  0  0  0  0
   24.2000  -18.6433  -14.1810 C   0  0  0  0  0  0  0  0  0  0  0  0
   24.1485  -17.8371  -15.4214 C   0  0  0  0  0  0  0  0  0  0  0  0
   25.1833  -17.2292  -16.1087 C   0  0  0  0  0  0  0  0  0  0  0  0
   24.7086  -16.5912  -17.1901 N   0  0  0  0  0  0  0  0  0  0  0  0
   23.3805  -16.7844  -17.2021 C   0  0  0  0  0  0  0  0  0  0  0  0
   23.0516  -17.5328  -16.1378 N   0  0  0  0  0  0  0  0  0  0  0  0
   25.1900  -20.6237  -13.1352 C   0  0  0  0  0  0  0  0  0  0  0  0
   24.1863  -21.2674  -12.6029 O   0  0  0  0  0  0  0  0  0  0  0  0
   26.4228  -20.5872  -12.4791 N   0  0  0  0  0  0  0  0  0  0  0  0
   27.5998  -19.8636  -12.7760 C   0  0  0  0  0  0  0  0  0  0  0  0
   28.6165  -21.0038  -12.7942 C   0  0  0  0  0  0  0  0  0  0  0  0
   28.1479  -21.8076  -11.6205 C   0  0  0  0  0  0  0  0  0  0  0  0
   26.7499  -21.3371  -11.2877 C   0  0  1  0  0  0  0  0  0  0  0  0
   26.7016  -20.4899  -10.0666 C   0  0  0  0  0  0  0  0  0  0  0  0
   27.0077  -19.2802  -10.1614 O   0  0  0  0  0  0  0  0  0  0  0  0
   25.5723  -20.9670   -6.4756 C   0  0  0  0  0  0  0  0  0  0  0  0
   26.2719  -20.1955   -7.6023 C   0  0  2  0  0  0  0  0  0  0  0  0
   26.3252  -20.9826   -8.7937 N   0  0  0  0  0  0  0  0  0  0  0  0
   27.6453  -19.9116   -7.1265 C   0  0  0  0  0  0  0  0  0  0  0  0
   27.9210  -18.9038   -6.2214 O   0  0  0  0  0  0  0  0  0  0  0  0
   28.5860  -20.6070   -7.5582 O   0  0  0  0  0  0  0  0  0  0  0  0
  2  9  1  0
  2  1  1  1
  3  2  1  0
  4  3  1  0
  5  4  2  0
  6  5  1  0
  7  6  1  0
  7  8  2  0
  8  4  1  0
  9 10  2  0
 11  9  1  0
 11 15  1  0
 12 11  1  0
 12 13  1  0
 13 14  1  0
 15 14  1  0
 16 17  2  0
 15 16  1  1
 19 18  1  1
 19 20  1  0
 20 16  1  0
 21 22  1  0
 21 19  1  0
 23 21  2  0
M  END
$$$$
