HPA.pdb
     RDKit          3D

 23 24  0  0  1  0  0  0  0  0999 V2000
   24.3410  -28.0438    5.9417 N   0  0  0  0  0  0  0  0  0  0  0  0
   25.0428  -28.1367    7.1709 C   0  0  1  0  0  0  0  0  0  0  0  0
   26.3821  -28.7842    6.8684 C   0  0  0  0  0  0  0  0  0  0  0  0
   26.2209  -30.0330    6.0902 C   0  0  0  0  0  0  0  0  0  0  0  0
   26.2628  -30.2171    4.7201 C   0  0  0  0  0  0  0  0  0  0  0  0
   26.0690  -31.5112    4.4209 N   0  0  0  0  0  0  0  0  0  0  0  0
   25.9035  -32.1575    5.5855 C   0  0  0  0  0  0  0  0  0  0  0  0
   25.9959  -31.2642    6.5827 N   0  0  0  0  0  0  0  0  0  0  0  0
   25.2512  -26.8821    7.9165 C   0  0  0  0  0  0  0  0  0  0  0  0
   25.4547  -25.8661    7.1219 O   0  0  0  0  0  0  0  0  0  0  0  0
   25.2506  -26.6962    9.3011 N   0  0  0  0  0  0  0  0  0  0  0  0
   25.1575  -27.6348   10.3535 C   0  0  0  0  0  0  0  0  0  0  0  0
   23.9906  -27.0395   11.1395 C   0  0  0  0  0  0  0  0  0  0  0  0
   24.3233  -25.5811   11.0616 C   0  0  0  0  0  0  0  0  0  0  0  0
   25.3517  -25.4166    9.9654 C   0  0  1  0  0  0  0  0  0  0  0  0
   26.7207  -25.1695   10.4908 C   0  0  0  0  0  0  0  0  0  0  0  0
   27.3588  -26.1279   10.9810 O   0  0  0  0  0  0  0  0  0  0  0  0
   29.1778  -22.3349   10.0994 C   0  0  0  0  0  0  0  0  0  0  0  0
   28.7349  -23.6728   10.7060 C   0  0  2  0  0  0  0  0  0  0  0  0
   27.3446  -23.8988   10.4659 N   0  0  0  0  0  0  0  0  0  0  0  0
   28.9832  -23.5755   12.1628 C   0  0  0  0  0  0  0  0  0  0  0  0
   27.9581  -23.5837   13.0900 O   0  0  0  0  0  0  0  0  0  0  0  0
   30.1593  -23.4830   12.5665 O   0  0  0  0  0  0  0  0  0  0  0  0
  2  9  1  0
  2  1  1  6
  3  2  1  0
  4  3  1  0
  5  4  2  0
  6  5  1  0
  7  6  1  0
  7  8  2  0
  8  4  1  0
  9 10  2  0
 11  9  1  0
 11 15  1  0
 12 11  1  0
 12 13  1  0
 13 14  1  0
 15 14  1  0
 16 17  2  0
 15 16  1  1
 19 18  1  6
 19 20  1  0
 20 16  1  0
 21 22  1  0
 21 19  1  0
 23 21  2  0
M  END
$$$$
