YAG.pdb
     RDKit          3D

 22 22  0  0  1  0  0  0  0  0999 V2000
   22.4173  -21.3032   -8.0023 O   0  0  0  0  0  0  0  0  0  0  0  0
   23.3106  -20.9822   -9.0261 C   0  0  0  0  0  0  0  0  0  0  0  0
   22.9746  -21.0605  -10.3619 C   0  0  0  0  0  0  0  0  0  0  0  0
   23.8671  -20.7402  -11.3656 C   0  0  0  0  0  0  0  0  0  0  0  0
   25.1486  -20.3235  -11.0603 C   0  0  0  0  0  0  0  0  0  0  0  0
   26.1438  -19.9682  -12.1050 C   0  0  0  0  0  0  0  0  0  0  0  0
   26.4553  -21.1402  -13.0072 C   0  0  2  0  0  0  0  0  0  0  0  0
   27.2947  -22.0949  -12.3485 N   0  0  0  0  0  0  0  0  0  0  0  0
   27.1373  -20.5759  -14.2149 C   0  0  0  0  0  0  0  0  0  0  0  0
   27.9863  -19.6703  -14.0523 O   0  0  0  0  0  0  0  0  0  0  0  0
   25.4821  -20.2460   -9.7243 C   0  0  0  0  0  0  0  0  0  0  0  0
   24.5894  -20.5664   -8.7190 C   0  0  0  0  0  0  0  0  0  0  0  0
   27.9625  -21.5559  -17.6518 C   0  0  0  0  0  0  0  0  0  0  0  0
   27.4333  -20.4985  -16.7145 C   0  0  2  0  0  0  0  0  0  0  0  0
   26.8411  -21.0443  -15.5224 N   0  0  0  0  0  0  0  0  0  0  0  0
   26.5212  -19.5434  -17.4010 C   0  0  0  0  0  0  0  0  0  0  0  0
   26.9071  -18.8964  -18.4158 O   0  0  0  0  0  0  0  0  0  0  0  0
   25.1911  -19.3124  -16.9597 N   0  0  0  0  0  0  0  0  0  0  0  0
   24.2765  -18.4334  -17.6454 C   0  0  0  0  0  0  0  0  0  0  0  0
   22.9169  -18.4715  -17.0878 C   0  0  0  0  0  0  0  0  0  0  0  0
   22.0454  -19.1926  -17.6113 O   0  0  0  0  0  0  0  0  0  0  0  0
   22.6077  -17.7084  -15.9849 O   0  0  0  0  0  0  0  0  0  0  0  0
  2  1  1  0
  2 12  2  0
  3  2  1  0
  4  3  2  0
  4  5  1  0
  5 11  2  0
  6  7  1  0
  6  5  1  0
  7  8  1  1
  9  7  1  0
  9 10  2  0
 11 12  1  0
 14 13  1  6
 14 15  1  0
 14 16  1  0
 15  9  1  0
 16 18  1  0
 17 16  2  0
 18 19  1  0
 19 20  1  0
 20 21  2  0
 20 22  1  0
M  END
$$$$
