YAG.pdb
     RDKit          3D

 22 22  0  0  1  0  0  0  0  0999 V2000
   29.0881  -18.9002   -3.5337 O   0  0  0  0  0  0  0  0  0  0  0  0
   28.5755  -19.3237   -4.7613 C   0  0  0  0  0  0  0  0  0  0  0  0
   27.9628  -18.4651   -5.6507 C   0  0  0  0  0  0  0  0  0  0  0  0
   27.4597  -18.8960   -6.8622 C   0  0  0  0  0  0  0  0  0  0  0  0
   27.5546  -20.2244   -7.2305 C   0  0  0  0  0  0  0  0  0  0  0  0
   27.0284  -20.7351   -8.5228 C   0  0  0  0  0  0  0  0  0  0  0  0
   25.5387  -20.5133   -8.6510 C   0  0  2  0  0  0  0  0  0  0  0  0
   24.8107  -21.3190   -7.7178 N   0  0  0  0  0  0  0  0  0  0  0  0
   25.1764  -20.8712  -10.0590 C   0  0  0  0  0  0  0  0  0  0  0  0
   25.0820  -22.0824  -10.3616 O   0  0  0  0  0  0  0  0  0  0  0  0
   28.1674  -21.0807   -6.3398 C   0  0  0  0  0  0  0  0  0  0  0  0
   28.6714  -20.6502   -5.1269 C   0  0  0  0  0  0  0  0  0  0  0  0
   24.1594  -18.9966  -13.2039 C   0  0  0  0  0  0  0  0  0  0  0  0
   24.7186  -20.1671  -12.4331 C   0  0  2  0  0  0  0  0  0  0  0  0
   24.9416  -19.8740  -11.0424 N   0  0  0  0  0  0  0  0  0  0  0  0
   25.9293  -20.7410  -13.0812 C   0  0  0  0  0  0  0  0  0  0  0  0
   27.0766  -20.2677  -12.8424 O   0  0  0  0  0  0  0  0  0  0  0  0
   25.8608  -21.8326  -13.9873 N   0  0  0  0  0  0  0  0  0  0  0  0
   27.0261  -22.4189  -14.6019 C   0  0  0  0  0  0  0  0  0  0  0  0
   27.3272  -21.8478  -15.9224 C   0  0  0  0  0  0  0  0  0  0  0  0
   26.6055  -20.9482  -16.3951 O   0  0  0  0  0  0  0  0  0  0  0  0
   28.4093  -22.3090  -16.6372 O   0  0  0  0  0  0  0  0  0  0  0  0
  2  1  1  0
  2 12  2  0
  3  2  1  0
  4  3  2  0
  4  5  1  0
  5 11  2  0
  6  7  1  0
  6  5  1  0
  7  8  1  1
  9  7  1  0
  9 10  2  0
 11 12  1  0
 14 13  1  6
 14 15  1  0
 14 16  1  0
 15  9  1  0
 16 18  1  0
 17 16  2  0
 18 19  1  0
 19 20  1  0
 20 21  2  0
 20 22  1  0
M  END
$$$$
