YAG.pdb
     RDKit          3D

 22 22  0  0  1  0  0  0  0  0999 V2000
   24.6548  -21.1270   -7.5960 O   0  0  0  0  0  0  0  0  0  0  0  0
   24.8575  -20.8048   -8.9392 C   0  0  0  0  0  0  0  0  0  0  0  0
   23.8369  -20.7981   -9.8676 C   0  0  0  0  0  0  0  0  0  0  0  0
   24.0500  -20.4776  -11.1937 C   0  0  0  0  0  0  0  0  0  0  0  0
   25.3142  -20.1473  -11.6428 C   0  0  0  0  0  0  0  0  0  0  0  0
   25.5927  -19.7955  -13.0594 C   0  0  0  0  0  0  0  0  0  0  0  0
   25.3085  -20.9504  -13.9923 C   0  0  2  0  0  0  0  0  0  0  0  0
   26.4232  -21.8461  -14.0656 N   0  0  0  0  0  0  0  0  0  0  0  0
   25.0188  -20.3506  -15.3333 C   0  0  0  0  0  0  0  0  0  0  0  0
   25.9827  -20.0466  -16.0721 O   0  0  0  0  0  0  0  0  0  0  0  0
   26.3327  -20.1547  -10.7129 C   0  0  0  0  0  0  0  0  0  0  0  0
   26.1204  -20.4753   -9.3854 C   0  0  0  0  0  0  0  0  0  0  0  0
   22.2115  -20.2968  -17.7349 C   0  0  0  0  0  0  0  0  0  0  0  0
   23.3609  -19.5833  -17.0665 C   0  0  2  0  0  0  0  0  0  0  0  0
   23.6880  -20.1243  -15.7743 N   0  0  0  0  0  0  0  0  0  0  0  0
   23.1559  -18.1099  -17.0165 C   0  0  0  0  0  0  0  0  0  0  0  0
   22.5540  -17.5734  -16.0434 O   0  0  0  0  0  0  0  0  0  0  0  0
   23.6181  -17.2433  -18.0425 N   0  0  0  0  0  0  0  0  0  0  0  0
   23.5568  -15.8060  -17.9447 C   0  0  0  0  0  0  0  0  0  0  0  0
   22.2801  -15.2524  -18.4182 C   0  0  0  0  0  0  0  0  0  0  0  0
   21.2935  -15.2143  -17.6576 O   0  0  0  0  0  0  0  0  0  0  0  0
   22.1760  -14.7755  -19.7052 O   0  0  0  0  0  0  0  0  0  0  0  0
  2  1  1  0
  2 12  2  0
  3  2  1  0
  4  3  2  0
  4  5  1  0
  5 11  2  0
  6  7  1  0
  6  5  1  0
  7  8  1  6
  9  7  1  0
  9 10  2  0
 11 12  1  0
 14 13  1  1
 14 15  1  0
 14 16  1  0
 15  9  1  0
 16 18  1  0
 17 16  2  0
 18 19  1  0
 19 20  1  0
 20 21  2  0
 20 22  1  0
M  END
$$$$
