YAG.pdb
     RDKit          3D

 22 22  0  0  1  0  0  0  0  0999 V2000
   22.2989  -21.4417   -7.1552 O   0  0  0  0  0  0  0  0  0  0  0  0
   23.1752  -21.1125   -8.1910 C   0  0  0  0  0  0  0  0  0  0  0  0
   24.4944  -20.7724   -7.9730 C   0  0  0  0  0  0  0  0  0  0  0  0
   25.3517  -20.4487   -9.0060 C   0  0  0  0  0  0  0  0  0  0  0  0
   24.9091  -20.4548  -10.3149 C   0  0  0  0  0  0  0  0  0  0  0  0
   25.7936  -20.1139  -11.4592 C   0  0  0  0  0  0  0  0  0  0  0  0
   26.2807  -21.3492  -12.1815 C   0  0  2  0  0  0  0  0  0  0  0  0
   27.2582  -22.0527  -11.4073 N   0  0  0  0  0  0  0  0  0  0  0  0
   26.8656  -20.8795  -13.4774 C   0  0  0  0  0  0  0  0  0  0  0  0
   28.0931  -20.6374  -13.5252 O   0  0  0  0  0  0  0  0  0  0  0  0
   23.5901  -20.7951  -10.5302 C   0  0  0  0  0  0  0  0  0  0  0  0
   22.7313  -21.1193   -9.4969 C   0  0  0  0  0  0  0  0  0  0  0  0
   27.5825  -21.6549  -16.3226 C   0  0  0  0  0  0  0  0  0  0  0  0
   26.6021  -20.5660  -15.9621 C   0  0  2  0  0  0  0  0  0  0  0  0
   26.0627  -20.7067  -14.6358 N   0  0  0  0  0  0  0  0  0  0  0  0
   25.5312  -20.4120  -16.9842 C   0  0  0  0  0  0  0  0  0  0  0  0
   24.6532  -21.3075  -17.1410 O   0  0  0  0  0  0  0  0  0  0  0  0
   25.4405  -19.2698  -17.8235 N   0  0  0  0  0  0  0  0  0  0  0  0
   24.2124  -18.5439  -18.0338 C   0  0  0  0  0  0  0  0  0  0  0  0
   23.1961  -19.3301  -18.7477 C   0  0  0  0  0  0  0  0  0  0  0  0
   23.4754  -20.4621  -19.1883 O   0  0  0  0  0  0  0  0  0  0  0  0
   21.9334  -18.8131  -18.9290 O   0  0  0  0  0  0  0  0  0  0  0  0
  2  1  1  0
  2 12  2  0
  3  2  1  0
  4  3  2  0
  4  5  1  0
  5 11  2  0
  6  7  1  0
  6  5  1  0
  7  8  1  1
  9  7  1  0
  9 10  2  0
 11 12  1  0
 14 13  1  6
 14 15  1  0
 14 16  1  0
 15  9  1  0
 16 18  1  0
 17 16  2  0
 18 19  1  0
 19 20  1  0
 20 21  2  0
 20 22  1  0
M  END
$$$$
