YAG.pdb
     RDKit          3D

 22 22  0  0  1  0  0  0  0  0999 V2000
   28.5201  -19.8045   -4.0275 O   0  0  0  0  0  0  0  0  0  0  0  0
   27.9893  -19.8098   -5.3188 C   0  0  0  0  0  0  0  0  0  0  0  0
   28.4603  -18.9893   -6.3230 C   0  0  0  0  0  0  0  0  0  0  0  0
   27.9269  -19.0037   -7.5966 C   0  0  0  0  0  0  0  0  0  0  0  0
   26.8857  -19.8549   -7.9131 C   0  0  0  0  0  0  0  0  0  0  0  0
   26.2792  -19.9064   -9.2686 C   0  0  0  0  0  0  0  0  0  0  0  0
   26.7734  -21.0946  -10.0616 C   0  0  2  0  0  0  0  0  0  0  0  0
   28.2020  -21.0987  -10.1563 N   0  0  0  0  0  0  0  0  0  0  0  0
   26.1503  -20.9872  -11.4189 C   0  0  0  0  0  0  0  0  0  0  0  0
   26.4729  -20.0227  -12.1491 O   0  0  0  0  0  0  0  0  0  0  0  0
   26.4165  -20.6741   -6.9076 C   0  0  0  0  0  0  0  0  0  0  0  0
   26.9498  -20.6604   -5.6326 C   0  0  0  0  0  0  0  0  0  0  0  0
   25.0383  -23.0865  -14.0583 C   0  0  0  0  0  0  0  0  0  0  0  0
   24.6303  -21.9150  -13.1993 C   0  0  2  0  0  0  0  0  0  0  0  0
   25.2134  -21.9473  -11.8845 N   0  0  0  0  0  0  0  0  0  0  0  0
   23.1528  -21.7424  -13.1480 C   0  0  0  0  0  0  0  0  0  0  0  0
   22.4600  -21.7811  -14.2043 O   0  0  0  0  0  0  0  0  0  0  0  0
   22.4547  -21.5288  -11.9296 N   0  0  0  0  0  0  0  0  0  0  0  0
   21.0346  -21.2863  -11.8691 C   0  0  0  0  0  0  0  0  0  0  0  0
   20.6787  -19.8878  -12.1490 C   0  0  0  0  0  0  0  0  0  0  0  0
   19.5150  -19.4865  -11.9532 O   0  0  0  0  0  0  0  0  0  0  0  0
   21.6343  -19.0211  -12.6286 O   0  0  0  0  0  0  0  0  0  0  0  0
  2  1  1  0
  2 12  2  0
  3  2  1  0
  4  3  2  0
  4  5  1  0
  5 11  2  0
  6  7  1  0
  6  5  1  0
  7  8  1  6
  9  7  1  0
  9 10  2  0
 11 12  1  0
 14 13  1  1
 14 15  1  0
 14 16  1  0
 15  9  1  0
 16 18  1  0
 17 16  2  0
 18 19  1  0
 19 20  1  0
 20 21  2  0
 20 22  1  0
M  END
$$$$
