YAG.pdb
     RDKit          3D

 22 22  0  0  1  0  0  0  0  0999 V2000
   21.2157  -19.6414  -14.4404 O   0  0  0  0  0  0  0  0  0  0  0  0
   21.2337  -18.3060  -14.8472 C   0  0  0  0  0  0  0  0  0  0  0  0
   20.5538  -17.3114  -14.1748 C   0  0  0  0  0  0  0  0  0  0  0  0
   20.5794  -15.9938  -14.5871 C   0  0  0  0  0  0  0  0  0  0  0  0
   21.2992  -15.6212  -15.7061 C   0  0  0  0  0  0  0  0  0  0  0  0
   21.3568  -14.2168  -16.1882 C   0  0  0  0  0  0  0  0  0  0  0  0
   20.1890  -13.8823  -17.0879 C   0  0  2  0  0  0  0  0  0  0  0  0
   20.2798  -14.5757  -18.3372 N   0  0  0  0  0  0  0  0  0  0  0  0
   20.2267  -12.4002  -17.2978 C   0  0  0  0  0  0  0  0  0  0  0  0
   21.1088  -11.9260  -18.0491 O   0  0  0  0  0  0  0  0  0  0  0  0
   21.9780  -16.6170  -16.3765 C   0  0  0  0  0  0  0  0  0  0  0  0
   21.9530  -17.9361  -15.9646 C   0  0  0  0  0  0  0  0  0  0  0  0
   17.8417   -9.5625  -16.9007 C   0  0  0  0  0  0  0  0  0  0  0  0
   19.2452  -10.1165  -16.8942 C   0  0  2  0  0  0  0  0  0  0  0  0
   19.2919  -11.5365  -16.6680 N   0  0  0  0  0  0  0  0  0  0  0  0
   20.1384   -9.3756  -15.9622 C   0  0  0  0  0  0  0  0  0  0  0  0
   20.3376   -9.7951  -14.7868 O   0  0  0  0  0  0  0  0  0  0  0  0
   20.8030   -8.1779  -16.3379 N   0  0  0  0  0  0  0  0  0  0  0  0
   21.8516   -7.5798  -15.5493 C   0  0  0  0  0  0  0  0  0  0  0  0
   21.3447   -6.6410  -14.5381 C   0  0  0  0  0  0  0  0  0  0  0  0
   20.1280   -6.3765  -14.4831 O   0  0  0  0  0  0  0  0  0  0  0  0
   22.2177   -6.0537  -13.6507 O   0  0  0  0  0  0  0  0  0  0  0  0
  2  1  1  0
  2 12  2  0
  3  2  1  0
  4  3  2  0
  4  5  1  0
  5 11  2  0
  6  7  1  0
  6  5  1  0
  7  8  1  6
  9  7  1  0
  9 10  2  0
 11 12  1  0
 14 13  1  1
 14 15  1  0
 14 16  1  0
 15  9  1  0
 16 18  1  0
 17 16  2  0
 18 19  1  0
 19 20  1  0
 20 21  2  0
 20 22  1  0
M  END
$$$$
