YAG.pdb
     RDKit          3D

 22 22  0  0  1  0  0  0  0  0999 V2000
   20.3737  -20.6737  -15.8317 O   0  0  0  0  0  0  0  0  0  0  0  0
   21.2445  -19.6108  -16.0790 C   0  0  0  0  0  0  0  0  0  0  0  0
   22.4519  -19.4676  -15.4268 C   0  0  0  0  0  0  0  0  0  0  0  0
   23.3048  -18.4117  -15.6802 C   0  0  0  0  0  0  0  0  0  0  0  0
   22.9718  -17.4468  -16.6113 C   0  0  0  0  0  0  0  0  0  0  0  0
   23.8564  -16.2929  -16.9180 C   0  0  0  0  0  0  0  0  0  0  0  0
   24.6109  -16.4907  -18.2129 C   0  0  2  0  0  0  0  0  0  0  0  0
   25.4465  -17.6519  -18.1556 N   0  0  0  0  0  0  0  0  0  0  0  0
   25.4307  -15.2548  -18.4188 C   0  0  0  0  0  0  0  0  0  0  0  0
   26.6635  -15.3144  -18.2088 O   0  0  0  0  0  0  0  0  0  0  0  0
   21.7644  -17.5920  -17.2619 C   0  0  0  0  0  0  0  0  0  0  0  0
   20.9100  -18.6486  -17.0090 C   0  0  0  0  0  0  0  0  0  0  0  0
   26.7222  -13.1438  -20.1550 C   0  0  0  0  0  0  0  0  0  0  0  0
   25.6018  -12.8619  -19.1844 C   0  0  2  0  0  0  0  0  0  0  0  0
   24.8413  -14.0341  -18.8422 N   0  0  0  0  0  0  0  0  0  0  0  0
   24.7284  -11.7467  -19.6418 C   0  0  0  0  0  0  0  0  0  0  0  0
   25.2217  -10.6272  -19.9588 O   0  0  0  0  0  0  0  0  0  0  0  0
   23.3180  -11.8794  -19.7445 N   0  0  0  0  0  0  0  0  0  0  0  0
   22.4552  -10.8024  -20.1629 C   0  0  0  0  0  0  0  0  0  0  0  0
   21.9658   -9.9898  -19.0401 C   0  0  0  0  0  0  0  0  0  0  0  0
   22.3606  -10.2211  -17.8807 O   0  0  0  0  0  0  0  0  0  0  0  0
   21.0694   -8.9713  -19.2717 O   0  0  0  0  0  0  0  0  0  0  0  0
  2  1  1  0
  2 12  2  0
  3  2  1  0
  4  3  2  0
  4  5  1  0
  5 11  2  0
  6  7  1  0
  6  5  1  0
  7  8  1  1
  9  7  1  0
  9 10  2  0
 11 12  1  0
 14 13  1  6
 14 15  1  0
 14 16  1  0
 15  9  1  0
 16 18  1  0
 17 16  2  0
 18 19  1  0
 19 20  1  0
 20 21  2  0
 20 22  1  0
M  END
$$$$
