YAG.pdb
     RDKit          3D

 22 22  0  0  1  0  0  0  0  0999 V2000
   27.3459  -18.7625  -16.5710 O   0  0  0  0  0  0  0  0  0  0  0  0
   26.6206  -17.5698  -16.5923 C   0  0  0  0  0  0  0  0  0  0  0  0
   25.2414  -17.5349  -16.6072 C   0  0  0  0  0  0  0  0  0  0  0  0
   24.5351  -16.3485  -16.6281 C   0  0  0  0  0  0  0  0  0  0  0  0
   25.1975  -15.1360  -16.6350 C   0  0  0  0  0  0  0  0  0  0  0  0
   24.4815  -13.8342  -16.6574 C   0  0  0  0  0  0  0  0  0  0  0  0
   23.5458  -13.7268  -17.8397 C   0  0  2  0  0  0  0  0  0  0  0  0
   24.2594  -13.8181  -19.0776 N   0  0  0  0  0  0  0  0  0  0  0  0
   22.8590  -12.4019  -17.7177 C   0  0  0  0  0  0  0  0  0  0  0  0
   23.4396  -11.3855  -18.1621 O   0  0  0  0  0  0  0  0  0  0  0  0
   26.5761  -15.1735  -16.6200 C   0  0  0  0  0  0  0  0  0  0  0  0
   27.2839  -16.3604  -16.5991 C   0  0  0  0  0  0  0  0  0  0  0  0
   19.3922  -11.1989  -17.4339 C   0  0  0  0  0  0  0  0  0  0  0  0
   20.8441  -11.0458  -17.0524 C   0  0  2  0  0  0  0  0  0  0  0  0
   21.5788  -12.2811  -17.1152 N   0  0  0  0  0  0  0  0  0  0  0  0
   21.0121  -10.3654  -15.7393 C   0  0  0  0  0  0  0  0  0  0  0  0
   21.1076  -11.0347  -14.6716 O   0  0  0  0  0  0  0  0  0  0  0  0
   21.0731   -8.9515  -15.6186 N   0  0  0  0  0  0  0  0  0  0  0  0
   21.3356   -8.2794  -14.3701 C   0  0  0  0  0  0  0  0  0  0  0  0
   21.3566   -6.8154  -14.4998 C   0  0  0  0  0  0  0  0  0  0  0  0
   21.2018   -6.2833  -15.6163 O   0  0  0  0  0  0  0  0  0  0  0  0
   21.5480   -6.0320  -13.3844 O   0  0  0  0  0  0  0  0  0  0  0  0
  2  1  1  0
  2 12  2  0
  3  2  1  0
  4  3  2  0
  4  5  1  0
  5 11  2  0
  6  7  1  0
  6  5  1  0
  7  8  1  6
  9  7  1  0
  9 10  2  0
 11 12  1  0
 14 13  1  1
 14 15  1  0
 14 16  1  0
 15  9  1  0
 16 18  1  0
 17 16  2  0
 18 19  1  0
 19 20  1  0
 20 21  2  0
 20 22  1  0
M  END
$$$$
