YAG.pdb
     RDKit          3D

 22 22  0  0  1  0  0  0  0  0999 V2000
   19.7181  -17.0669  -16.8488 O   0  0  0  0  0  0  0  0  0  0  0  0
   20.0775  -15.7219  -16.7437 C   0  0  0  0  0  0  0  0  0  0  0  0
   20.1541  -15.0618  -15.5346 C   0  0  0  0  0  0  0  0  0  0  0  0
   20.5109  -13.7310  -15.4436 C   0  0  0  0  0  0  0  0  0  0  0  0
   20.8082  -13.0036  -16.5800 C   0  0  0  0  0  0  0  0  0  0  0  0
   21.1968  -11.5702  -16.5326 C   0  0  0  0  0  0  0  0  0  0  0  0
   22.6378  -11.3639  -16.9401 C   0  0  2  0  0  0  0  0  0  0  0  0
   23.5346  -11.9832  -16.0116 N   0  0  0  0  0  0  0  0  0  0  0  0
   22.8577   -9.8835  -16.9857 C   0  0  0  0  0  0  0  0  0  0  0  0
   23.2240   -9.3020  -15.9393 O   0  0  0  0  0  0  0  0  0  0  0  0
   20.7310  -13.6655  -17.7875 C   0  0  0  0  0  0  0  0  0  0  0  0
   20.3739  -14.9976  -17.8795 C   0  0  0  0  0  0  0  0  0  0  0  0
   23.1335   -7.2606  -19.6957 C   0  0  0  0  0  0  0  0  0  0  0  0
   22.8940   -7.7234  -18.2796 C   0  0  2  0  0  0  0  0  0  0  0  0
   22.6603   -9.1394  -18.1790 N   0  0  0  0  0  0  0  0  0  0  0  0
   21.8287   -6.9348  -17.6023 C   0  0  0  0  0  0  0  0  0  0  0  0
   21.9161   -5.6776  -17.5075 O   0  0  0  0  0  0  0  0  0  0  0  0
   20.6768   -7.5430  -17.0363 N   0  0  0  0  0  0  0  0  0  0  0  0
   19.6208   -6.7915  -16.4044 C   0  0  0  0  0  0  0  0  0  0  0  0
   19.9861   -6.3008  -15.0679 C   0  0  0  0  0  0  0  0  0  0  0  0
   20.9102   -5.4751  -14.9348 O   0  0  0  0  0  0  0  0  0  0  0  0
   19.3046   -6.7556  -13.9618 O   0  0  0  0  0  0  0  0  0  0  0  0
  2  1  1  0
  2 12  2  0
  3  2  1  0
  4  3  2  0
  4  5  1  0
  5 11  2  0
  6  7  1  0
  6  5  1  0
  7  8  1  1
  9  7  1  0
  9 10  2  0
 11 12  1  0
 14 13  1  6
 14 15  1  0
 14 16  1  0
 15  9  1  0
 16 18  1  0
 17 16  2  0
 18 19  1  0
 19 20  1  0
 20 21  2  0
 20 22  1  0
M  END
$$$$
