YAG.pdb
     RDKit          3D

 22 22  0  0  1  0  0  0  0  0999 V2000
   31.9595  -17.4258  -19.9886 O   0  0  0  0  0  0  0  0  0  0  0  0
   32.0095  -16.1674  -19.3859 C   0  0  0  0  0  0  0  0  0  0  0  0
   30.9083  -15.3418  -19.2891 C   0  0  0  0  0  0  0  0  0  0  0  0
   30.9703  -14.0990  -18.6906 C   0  0  0  0  0  0  0  0  0  0  0  0
   32.1576  -13.6328  -18.1596 C   0  0  0  0  0  0  0  0  0  0  0  0
   32.2736  -12.3032  -17.5063 C   0  0  0  0  0  0  0  0  0  0  0  0
   32.6086  -11.2150  -18.5005 C   0  0  2  0  0  0  0  0  0  0  0  0
   33.9617  -11.3248  -18.9554 N   0  0  0  0  0  0  0  0  0  0  0  0
   32.3886   -9.9132  -17.7941 C   0  0  0  0  0  0  0  0  0  0  0  0
   33.2229   -9.5531  -16.9328 O   0  0  0  0  0  0  0  0  0  0  0  0
   33.2569  -14.4598  -18.2577 C   0  0  0  0  0  0  0  0  0  0  0  0
   33.1959  -15.7040  -18.8565 C   0  0  0  0  0  0  0  0  0  0  0  0
   32.3443   -6.8939  -17.8419 C   0  0  0  0  0  0  0  0  0  0  0  0
   31.1227   -7.7452  -17.5972 C   0  0  2  0  0  0  0  0  0  0  0  0
   31.2658   -9.0925  -18.0810 N   0  0  0  0  0  0  0  0  0  0  0  0
   29.8786   -7.1027  -18.1022 C   0  0  0  0  0  0  0  0  0  0  0  0
   29.5525   -5.9408  -17.7265 O   0  0  0  0  0  0  0  0  0  0  0  0
   29.0067   -7.7501  -19.0175 N   0  0  0  0  0  0  0  0  0  0  0  0
   27.8411   -7.1127  -19.5783 C   0  0  0  0  0  0  0  0  0  0  0  0
   26.6230   -7.3485  -18.7901 C   0  0  0  0  0  0  0  0  0  0  0  0
   26.6866   -7.9632  -17.7077 O   0  0  0  0  0  0  0  0  0  0  0  0
   25.4101   -6.8885  -19.2504 O   0  0  0  0  0  0  0  0  0  0  0  0
  2  1  1  0
  2 12  2  0
  3  2  1  0
  4  3  2  0
  4  5  1  0
  5 11  2  0
  6  7  1  0
  6  5  1  0
  7  8  1  1
  9  7  1  0
  9 10  2  0
 11 12  1  0
 14 13  1  6
 14 15  1  0
 14 16  1  0
 15  9  1  0
 16 18  1  0
 17 16  2  0
 18 19  1  0
 19 20  1  0
 20 21  2  0
 20 22  1  0
M  END
$$$$
