YAG.pdb
     RDKit          3D

 22 22  0  0  1  0  0  0  0  0999 V2000
   26.3626  -17.8111  -14.7237 O   0  0  0  0  0  0  0  0  0  0  0  0
   26.8632  -16.7219  -15.4394 C   0  0  0  0  0  0  0  0  0  0  0  0
   27.3507  -16.8338  -16.7252 C   0  0  0  0  0  0  0  0  0  0  0  0
   27.8433  -15.7488  -17.4229 C   0  0  0  0  0  0  0  0  0  0  0  0
   27.8648  -14.4933  -16.8466 C   0  0  0  0  0  0  0  0  0  0  0  0
   28.3848  -13.2964  -17.5572 C   0  0  0  0  0  0  0  0  0  0  0  0
   27.2772  -12.5101  -18.2204 C   0  0  2  0  0  0  0  0  0  0  0  0
   26.5621  -13.3143  -19.1648 N   0  0  0  0  0  0  0  0  0  0  0  0
   27.9310  -11.3467  -18.8993 C   0  0  0  0  0  0  0  0  0  0  0  0
   27.7324  -11.1818  -20.1244 O   0  0  0  0  0  0  0  0  0  0  0  0
   27.3769  -14.3839  -15.5613 C   0  0  0  0  0  0  0  0  0  0  0  0
   26.8836  -15.4693  -14.8621 C   0  0  0  0  0  0  0  0  0  0  0  0
   28.1014   -8.3178  -19.2416 C   0  0  0  0  0  0  0  0  0  0  0  0
   29.2209   -9.1905  -18.7297 C   0  0  2  0  0  0  0  0  0  0  0  0
   28.7605  -10.4407  -18.1868 N   0  0  0  0  0  0  0  0  0  0  0  0
   30.1101   -8.4664  -17.7809 C   0  0  0  0  0  0  0  0  0  0  0  0
   29.8702   -8.4683  -16.5401 O   0  0  0  0  0  0  0  0  0  0  0  0
   31.2561   -7.7468  -18.2123 N   0  0  0  0  0  0  0  0  0  0  0  0
   32.1380   -7.0551  -17.3051 C   0  0  0  0  0  0  0  0  0  0  0  0
   33.1925   -7.9207  -16.7579 C   0  0  0  0  0  0  0  0  0  0  0  0
   33.2195   -9.1332  -17.0456 O   0  0  0  0  0  0  0  0  0  0  0  0
   34.1515   -7.3891  -15.9259 O   0  0  0  0  0  0  0  0  0  0  0  0
  2  1  1  0
  2 12  2  0
  3  2  1  0
  4  3  2  0
  4  5  1  0
  5 11  2  0
  6  7  1  0
  6  5  1  0
  7  8  1  6
  9  7  1  0
  9 10  2  0
 11 12  1  0
 14 13  1  1
 14 15  1  0
 14 16  1  0
 15  9  1  0
 16 18  1  0
 17 16  2  0
 18 19  1  0
 19 20  1  0
 20 21  2  0
 20 22  1  0
M  END
$$$$
