YAG.pdb
     RDKit          3D

 22 22  0  0  1  0  0  0  0  0999 V2000
   20.3421  -18.4516  -15.4118 O   0  0  0  0  0  0  0  0  0  0  0  0
   20.6604  -17.1067  -15.6093 C   0  0  0  0  0  0  0  0  0  0  0  0
   21.8774  -16.6934  -16.1111 C   0  0  0  0  0  0  0  0  0  0  0  0
   22.1806  -15.3599  -16.3020 C   0  0  0  0  0  0  0  0  0  0  0  0
   21.2594  -14.3781  -15.9914 C   0  0  0  0  0  0  0  0  0  0  0  0
   21.5397  -12.9309  -16.1793 C   0  0  0  0  0  0  0  0  0  0  0  0
   20.8817  -12.3877  -17.4271 C   0  0  2  0  0  0  0  0  0  0  0  0
   21.4804  -12.9303  -18.6091 N   0  0  0  0  0  0  0  0  0  0  0  0
   21.0483  -10.9003  -17.3808 C   0  0  0  0  0  0  0  0  0  0  0  0
   22.1504  -10.4123  -17.7193 O   0  0  0  0  0  0  0  0  0  0  0  0
   20.0437  -14.7936  -15.4900 C   0  0  0  0  0  0  0  0  0  0  0  0
   19.7393  -16.1281  -15.2986 C   0  0  0  0  0  0  0  0  0  0  0  0
   18.7394   -7.9324  -17.0842 C   0  0  0  0  0  0  0  0  0  0  0  0
   20.0824   -8.6111  -16.9712 C   0  0  2  0  0  0  0  0  0  0  0  0
   19.9920  -10.0468  -16.9655 N   0  0  0  0  0  0  0  0  0  0  0  0
   20.8764   -8.0995  -15.8209 C   0  0  0  0  0  0  0  0  0  0  0  0
   20.8421   -8.6837  -14.7007 O   0  0  0  0  0  0  0  0  0  0  0  0
   21.7008   -6.9472  -15.9193 N   0  0  0  0  0  0  0  0  0  0  0  0
   22.5483   -6.4924  -14.8449 C   0  0  0  0  0  0  0  0  0  0  0  0
   21.8782   -5.5379  -13.9501 C   0  0  0  0  0  0  0  0  0  0  0  0
   20.6906   -5.2179  -14.1520 O   0  0  0  0  0  0  0  0  0  0  0  0
   22.5657   -4.9975  -12.8872 O   0  0  0  0  0  0  0  0  0  0  0  0
  2  1  1  0
  2 12  2  0
  3  2  1  0
  4  3  2  0
  4  5  1  0
  5 11  2  0
  6  7  1  0
  6  5  1  0
  7  8  1  6
  9  7  1  0
  9 10  2  0
 11 12  1  0
 14 13  1  1
 14 15  1  0
 14 16  1  0
 15  9  1  0
 16 18  1  0
 17 16  2  0
 18 19  1  0
 19 20  1  0
 20 21  2  0
 20 22  1  0
M  END
$$$$
