PSH.pdb
     RDKit          3D

 24 25  0  0  1  0  0  0  0  0999 V2000
   18.5094  -24.9269   -6.9076 N   0  0  0  0  0  0  0  0  0  0  0  0
   18.4252  -24.7025   -8.3384 C   0  0  0  0  0  0  0  0  0  0  0  0
   16.9751  -24.4164   -8.6403 C   0  0  0  0  0  0  0  0  0  0  0  0
   16.2912  -25.1519   -7.5070 C   0  0  0  0  0  0  0  0  0  0  0  0
   17.2106  -24.8457   -6.3434 C   0  0  1  0  0  0  0  0  0  0  0  0
   16.9431  -25.7009   -5.1812 C   0  0  0  0  0  0  0  0  0  0  0  0
   15.8003  -25.6376   -4.6354 O   0  0  0  0  0  0  0  0  0  0  0  0
   18.1567  -29.6308   -2.6595 O   0  0  0  0  0  0  0  0  0  0  0  0
   18.6316  -28.5818   -3.4828 C   0  0  0  0  0  0  0  0  0  0  0  0
   17.5117  -27.5696   -3.5504 C   0  0  2  0  0  0  0  0  0  0  0  0
   17.8410  -26.6144   -4.5830 N   0  0  0  0  0  0  0  0  0  0  0  0
   17.4171  -26.9349   -2.2117 C   0  0  0  0  0  0  0  0  0  0  0  0
   18.3240  -26.0791   -1.9503 O   0  0  0  0  0  0  0  0  0  0  0  0
   16.4417  -27.1932   -1.2420 N   0  0  0  0  0  0  0  0  0  0  0  0
   16.4093  -26.4959    0.0264 C   0  0  1  0  0  0  0  0  0  0  0  0
   15.1175  -25.7936    0.2726 C   0  0  0  0  0  0  0  0  0  0  0  0
   14.8808  -24.6398   -0.6168 C   0  0  0  0  0  0  0  0  0  0  0  0
   14.3348  -24.7820   -1.8727 C   0  0  0  0  0  0  0  0  0  0  0  0
   14.2411  -23.5817   -2.4582 N   0  0  0  0  0  0  0  0  0  0  0  0
   14.7248  -22.6946   -1.5754 C   0  0  0  0  0  0  0  0  0  0  0  0
   15.1118  -23.3439   -0.4586 N   0  0  0  0  0  0  0  0  0  0  0  0
   16.6057  -27.4482    1.1688 C   0  0  0  0  0  0  0  0  0  0  0  0
   16.6265  -27.0735    2.3699 O   0  0  0  0  0  0  0  0  0  0  0  0
   16.7709  -28.7948    0.8855 O   0  0  0  0  0  0  0  0  0  0  0  0
  1  5  1  0
  1  2  1  0
  2  3  1  0
  4  3  1  0
  5  6  1  1
  5  4  1  0
  6 11  1  0
  6  7  2  0
  9  8  1  0
 10  9  1  1
 10 12  1  0
 11 10  1  0
 12 13  2  0
 12 14  1  0
 14 15  1  0
 15 16  1  1
 15 22  1  0
 17 21  1  0
 17 16  1  0
 18 17  2  0
 19 18  1  0
 19 20  1  0
 20 21  2  0
 22 24  1  0
 23 22  2  0
M  END
$$$$
