PSH.pdb
     RDKit          3D

 24 25  0  0  1  0  0  0  0  0999 V2000
   22.9427  -11.9116  -17.1654 N   0  0  0  0  0  0  0  0  0  0  0  0
   23.4820  -13.1333  -17.7319 C   0  0  0  0  0  0  0  0  0  0  0  0
   24.8343  -13.3378  -17.0954 C   0  0  0  0  0  0  0  0  0  0  0  0
   25.2150  -11.9119  -16.7564 C   0  0  0  0  0  0  0  0  0  0  0  0
   23.8940  -11.3471  -16.2775 C   0  0  1  0  0  0  0  0  0  0  0  0
   23.9159   -9.8830  -16.1802 C   0  0  0  0  0  0  0  0  0  0  0  0
   24.7648   -9.3419  -15.4092 O   0  0  0  0  0  0  0  0  0  0  0  0
   21.9896   -7.8688  -18.8404 O   0  0  0  0  0  0  0  0  0  0  0  0
   23.0111   -7.0597  -18.2875 C   0  0  0  0  0  0  0  0  0  0  0  0
   23.1968   -7.5409  -16.8672 C   0  0  2  0  0  0  0  0  0  0  0  0
   23.0735   -8.9802  -16.8686 N   0  0  0  0  0  0  0  0  0  0  0  0
   22.1445   -6.8907  -16.0462 C   0  0  0  0  0  0  0  0  0  0  0  0
   20.9511   -7.2551  -16.3039 O   0  0  0  0  0  0  0  0  0  0  0  0
   22.3510   -5.9378  -15.0423 N   0  0  0  0  0  0  0  0  0  0  0  0
   21.2599   -5.3752  -14.2747 C   0  0  1  0  0  0  0  0  0  0  0  0
   21.4886   -5.4404  -12.8028 C   0  0  0  0  0  0  0  0  0  0  0  0
   21.4122   -6.8033  -12.2418 C   0  0  0  0  0  0  0  0  0  0  0  0
   20.7175   -7.8152  -12.8655 C   0  0  0  0  0  0  0  0  0  0  0  0
   20.8082   -8.9349  -12.1374 N   0  0  0  0  0  0  0  0  0  0  0  0
   21.5543   -8.6265  -11.0657 C   0  0  0  0  0  0  0  0  0  0  0  0
   21.9182   -7.3298  -11.1352 N   0  0  0  0  0  0  0  0  0  0  0  0
   21.0532   -3.9288  -14.6143 C   0  0  0  0  0  0  0  0  0  0  0  0
   21.8432   -3.2842  -15.3518 O   0  0  0  0  0  0  0  0  0  0  0  0
   19.9457   -3.2794  -14.0922 O   0  0  0  0  0  0  0  0  0  0  0  0
  1  5  1  0
  1  2  1  0
  2  3  1  0
  4  3  1  0
  5  6  1  6
  5  4  1  0
  6 11  1  0
  6  7  2  0
  9  8  1  0
 10  9  1  6
 10 12  1  0
 11 10  1  0
 12 13  2  0
 12 14  1  0
 14 15  1  0
 15 16  1  1
 15 22  1  0
 17 21  1  0
 17 16  1  0
 18 17  2  0
 19 18  1  0
 19 20  1  0
 20 21  2  0
 22 24  1  0
 23 22  2  0
M  END
$$$$
