PSH.pdb
     RDKit          3D

 24 25  0  0  1  0  0  0  0  0999 V2000
   27.2104  -19.4052  -17.4243 N   0  0  0  0  0  0  0  0  0  0  0  0
   28.2612  -18.9658  -18.3228 C   0  0  0  0  0  0  0  0  0  0  0  0
   28.9171  -17.7782  -17.6632 C   0  0  0  0  0  0  0  0  0  0  0  0
   27.7798  -17.2531  -16.8121 C   0  0  0  0  0  0  0  0  0  0  0  0
   27.1589  -18.5372  -16.3036 C   0  0  1  0  0  0  0  0  0  0  0  0
   25.8389  -18.3179  -15.7010 C   0  0  0  0  0  0  0  0  0  0  0  0
   25.7468  -17.5128  -14.7257 O   0  0  0  0  0  0  0  0  0  0  0  0
   22.5364  -19.6272  -17.5036 O   0  0  0  0  0  0  0  0  0  0  0  0
   22.3477  -18.4883  -16.6843 C   0  0  0  0  0  0  0  0  0  0  0  0
   23.3199  -18.6381  -15.5373 C   0  0  2  0  0  0  0  0  0  0  0  0
   24.6221  -18.9199  -16.0956 N   0  0  0  0  0  0  0  0  0  0  0  0
   22.8234  -19.7501  -14.6883 C   0  0  0  0  0  0  0  0  0  0  0  0
   23.0953  -20.9207  -15.1115 O   0  0  0  0  0  0  0  0  0  0  0  0
   22.1017  -19.6207  -13.4962 N   0  0  0  0  0  0  0  0  0  0  0  0
   21.5738  -20.7655  -12.7843 C   0  0  1  0  0  0  0  0  0  0  0  0
   21.8083  -20.6962  -11.3136 C   0  0  0  0  0  0  0  0  0  0  0  0
   23.2248  -20.8340  -10.9230 C   0  0  0  0  0  0  0  0  0  0  0  0
   24.2241  -21.0367  -11.8482 C   0  0  0  0  0  0  0  0  0  0  0  0
   25.4024  -21.1334  -11.2199 N   0  0  0  0  0  0  0  0  0  0  0  0
   25.1427  -20.9923   -9.9111 C   0  0  0  0  0  0  0  0  0  0  0  0
   23.8178  -20.8107   -9.7374 N   0  0  0  0  0  0  0  0  0  0  0  0
   20.0909  -20.8825  -12.9784 C   0  0  0  0  0  0  0  0  0  0  0  0
   19.4089  -19.9956  -13.5545 O   0  0  0  0  0  0  0  0  0  0  0  0
   19.4495  -22.0150  -12.5021 O   0  0  0  0  0  0  0  0  0  0  0  0
  1  5  1  0
  1  2  1  0
  2  3  1  0
  4  3  1  0
  5  6  1  6
  5  4  1  0
  6 11  1  0
  6  7  2  0
  9  8  1  0
 10  9  1  6
 10 12  1  0
 11 10  1  0
 12 13  2  0
 12 14  1  0
 14 15  1  0
 15 16  1  1
 15 22  1  0
 17 21  1  0
 17 16  1  0
 18 17  2  0
 19 18  1  0
 19 20  1  0
 20 21  2  0
 22 24  1  0
 23 22  2  0
M  END
$$$$
