PSH.pdb
     RDKit          3D

 24 25  0  0  1  0  0  0  0  0999 V2000
   18.2918  -24.1622   -6.7514 N   0  0  0  0  0  0  0  0  0  0  0  0
   19.1016  -23.8761   -7.9205 C   0  0  0  0  0  0  0  0  0  0  0  0
   18.6408  -24.8235   -9.0003 C   0  0  0  0  0  0  0  0  0  0  0  0
   18.1093  -25.9737   -8.1711 C   0  0  0  0  0  0  0  0  0  0  0  0
   17.4188  -25.2425   -7.0390 C   0  0  1  0  0  0  0  0  0  0  0  0
   17.0836  -26.1334   -5.9221 C   0  0  0  0  0  0  0  0  0  0  0  0
   16.1516  -26.9781   -6.0823 O   0  0  0  0  0  0  0  0  0  0  0  0
   19.4296  -26.2725   -2.7823 O   0  0  0  0  0  0  0  0  0  0  0  0
   18.6744  -27.4637   -2.9032 C   0  0  0  0  0  0  0  0  0  0  0  0
   17.3796  -27.0665   -3.5733 C   0  0  2  0  0  0  0  0  0  0  0  0
   17.6998  -26.1580   -4.6499 N   0  0  0  0  0  0  0  0  0  0  0  0
   16.5310  -26.4273   -2.5365 C   0  0  0  0  0  0  0  0  0  0  0  0
   16.7125  -25.1758   -2.3808 O   0  0  0  0  0  0  0  0  0  0  0  0
   15.5763  -27.0689   -1.7394 N   0  0  0  0  0  0  0  0  0  0  0  0
   14.7020  -26.3411   -0.8438 C   0  0  1  0  0  0  0  0  0  0  0  0
   13.4718  -27.1026   -0.4838 C   0  0  0  0  0  0  0  0  0  0  0  0
   13.7352  -28.4482    0.0620 C   0  0  0  0  0  0  0  0  0  0  0  0
   13.6493  -28.7232    1.4083 C   0  0  0  0  0  0  0  0  0  0  0  0
   13.9453  -30.0112    1.6216 N   0  0  0  0  0  0  0  0  0  0  0  0
   14.2144  -30.5389    0.4177 C   0  0  0  0  0  0  0  0  0  0  0  0
   14.0849  -29.5841   -0.5257 N   0  0  0  0  0  0  0  0  0  0  0  0
   15.4000  -26.0175    0.4440 C   0  0  0  0  0  0  0  0  0  0  0  0
   16.5505  -26.4462    0.7198 O   0  0  0  0  0  0  0  0  0  0  0  0
   14.7474  -25.2136    1.3652 O   0  0  0  0  0  0  0  0  0  0  0  0
  1  5  1  0
  1  2  1  0
  2  3  1  0
  4  3  1  0
  5  6  1  1
  5  4  1  0
  6 11  1  0
  6  7  2  0
  9  8  1  0
 10  9  1  1
 10 12  1  0
 11 10  1  0
 12 13  2  0
 12 14  1  0
 14 15  1  0
 15 16  1  1
 15 22  1  0
 17 21  1  0
 17 16  1  0
 18 17  2  0
 19 18  1  0
 19 20  1  0
 20 21  2  0
 22 24  1  0
 23 22  2  0
M  END
$$$$
