PSH.pdb
     RDKit          3D

 24 25  0  0  1  0  0  0  0  0999 V2000
   22.3006  -14.8528  -18.7527 N   0  0  0  0  0  0  0  0  0  0  0  0
   22.2831  -16.2766  -19.0299 C   0  0  0  0  0  0  0  0  0  0  0  0
   21.2258  -16.8724  -18.1339 C   0  0  0  0  0  0  0  0  0  0  0  0
   21.2219  -15.8809  -16.9892 C   0  0  0  0  0  0  0  0  0  0  0  0
   21.3686  -14.5644  -17.7230 C   0  0  1  0  0  0  0  0  0  0  0  0
   21.7063  -13.4575  -16.8206 C   0  0  0  0  0  0  0  0  0  0  0  0
   20.8931  -13.1659  -15.8925 O   0  0  0  0  0  0  0  0  0  0  0  0
   24.8581  -10.1207  -15.2647 O   0  0  0  0  0  0  0  0  0  0  0  0
   24.6064  -11.1644  -16.1873 C   0  0  0  0  0  0  0  0  0  0  0  0
   23.1453  -11.5147  -16.0273 C   0  0  2  0  0  0  0  0  0  0  0  0
   22.8695  -12.6555  -16.8695 N   0  0  0  0  0  0  0  0  0  0  0  0
   22.3641  -10.3191  -16.4326 C   0  0  0  0  0  0  0  0  0  0  0  0
   22.2640  -10.1353  -17.6894 O   0  0  0  0  0  0  0  0  0  0  0  0
   21.7473   -9.4043  -15.5716 N   0  0  0  0  0  0  0  0  0  0  0  0
   20.9897   -8.2720  -16.0613 C   0  0  1  0  0  0  0  0  0  0  0  0
   20.0644   -7.7040  -15.0395 C   0  0  0  0  0  0  0  0  0  0  0  0
   19.2201   -6.6015  -15.5389 C   0  0  0  0  0  0  0  0  0  0  0  0
   19.4991   -5.2816  -15.2635 C   0  0  0  0  0  0  0  0  0  0  0  0
   18.5711   -4.5005  -15.8302 N   0  0  0  0  0  0  0  0  0  0  0  0
   17.7174   -5.3253  -16.4557 C   0  0  0  0  0  0  0  0  0  0  0  0
   18.1173   -6.6004  -16.2749 N   0  0  0  0  0  0  0  0  0  0  0  0
   21.9006   -7.1574  -16.4836 C   0  0  0  0  0  0  0  0  0  0  0  0
   22.9514   -6.8640  -15.8565 O   0  0  0  0  0  0  0  0  0  0  0  0
   21.5675   -6.4231  -17.6109 O   0  0  0  0  0  0  0  0  0  0  0  0
  1  5  1  0
  1  2  1  0
  2  3  1  0
  4  3  1  0
  5  6  1  1
  5  4  1  0
  6 11  1  0
  6  7  2  0
  9  8  1  0
 10  9  1  6
 10 12  1  0
 11 10  1  0
 12 13  2  0
 12 14  1  0
 14 15  1  0
 15 16  1  1
 15 22  1  0
 17 21  1  0
 17 16  1  0
 18 17  2  0
 19 18  1  0
 19 20  1  0
 20 21  2  0
 22 24  1  0
 23 22  2  0
M  END
$$$$
