PSH.pdb
     RDKit          3D

 24 25  0  0  1  0  0  0  0  0999 V2000
   26.8102  -21.8924  -17.3631 N   0  0  0  0  0  0  0  0  0  0  0  0
   28.1123  -22.1041  -17.9664 C   0  0  0  0  0  0  0  0  0  0  0  0
   29.1242  -21.9636  -16.8564 C   0  0  0  0  0  0  0  0  0  0  0  0
   28.3867  -21.0452  -15.9047 C   0  0  0  0  0  0  0  0  0  0  0  0
   26.9750  -21.5867  -15.9879 C   0  0  1  0  0  0  0  0  0  0  0  0
   25.9915  -20.6735  -15.3941 C   0  0  0  0  0  0  0  0  0  0  0  0
   26.0770  -20.4169  -14.1553 O   0  0  0  0  0  0  0  0  0  0  0  0
   23.9172  -18.0182  -17.5272 O   0  0  0  0  0  0  0  0  0  0  0  0
   24.1294  -17.7784  -16.1484 C   0  0  0  0  0  0  0  0  0  0  0  0
   23.9785  -19.1187  -15.4672 C   0  0  2  0  0  0  0  0  0  0  0  0
   24.9281  -20.0281  -16.0658 N   0  0  0  0  0  0  0  0  0  0  0  0
   22.5760  -19.5579  -15.6765 C   0  0  0  0  0  0  0  0  0  0  0  0
   22.3673  -20.2206  -16.7445 O   0  0  0  0  0  0  0  0  0  0  0  0
   21.4962  -19.3100  -14.8214 N   0  0  0  0  0  0  0  0  0  0  0  0
   20.1346  -19.6492  -15.1776 C   0  0  1  0  0  0  0  0  0  0  0  0
   19.2363  -19.7736  -13.9942 C   0  0  0  0  0  0  0  0  0  0  0  0
   17.8499  -20.1531  -14.3283 C   0  0  0  0  0  0  0  0  0  0  0  0
   17.4802  -21.4612  -14.5474 C   0  0  0  0  0  0  0  0  0  0  0  0
   16.1745  -21.5144  -14.8381 N   0  0  0  0  0  0  0  0  0  0  0  0
   15.7299  -20.2489  -14.8013 C   0  0  0  0  0  0  0  0  0  0  0  0
   16.7527  -19.4267  -14.4910 N   0  0  0  0  0  0  0  0  0  0  0  0
   19.5336  -18.6000  -16.0655 C   0  0  0  0  0  0  0  0  0  0  0  0
   19.9074  -17.3986  -16.0468 O   0  0  0  0  0  0  0  0  0  0  0  0
   18.5257  -18.9732  -16.9404 O   0  0  0  0  0  0  0  0  0  0  0  0
  1  5  1  0
  1  2  1  0
  2  3  1  0
  4  3  1  0
  5  6  1  6
  5  4  1  0
  6 11  1  0
  6  7  2  0
  9  8  1  0
 10  9  1  6
 10 12  1  0
 11 10  1  0
 12 13  2  0
 12 14  1  0
 14 15  1  0
 15 16  1  1
 15 22  1  0
 17 21  1  0
 17 16  1  0
 18 17  2  0
 19 18  1  0
 19 20  1  0
 20 21  2  0
 22 24  1  0
 23 22  2  0
M  END
$$$$
