PSH.pdb
     RDKit          3D

 24 25  0  0  1  0  0  0  0  0999 V2000
   23.9411  -13.7346  -15.3537 N   0  0  0  0  0  0  0  0  0  0  0  0
   24.2949  -15.1413  -15.3317 C   0  0  0  0  0  0  0  0  0  0  0  0
   24.3724  -15.5839  -16.7718 C   0  0  0  0  0  0  0  0  0  0  0  0
   23.4234  -14.6037  -17.4290 C   0  0  0  0  0  0  0  0  0  0  0  0
   23.7528  -13.3197  -16.6969 C   0  0  1  0  0  0  0  0  0  0  0  0
   22.7507  -12.2730  -16.9283 C   0  0  0  0  0  0  0  0  0  0  0  0
   22.8342  -11.5809  -17.9875 O   0  0  0  0  0  0  0  0  0  0  0  0
   19.7979  -11.7286  -14.3270 O   0  0  0  0  0  0  0  0  0  0  0  0
   19.3979  -11.3547  -15.6324 C   0  0  0  0  0  0  0  0  0  0  0  0
   20.6617  -10.9403  -16.3496 C   0  0  2  0  0  0  0  0  0  0  0  0
   21.6706  -11.9383  -16.0797 N   0  0  0  0  0  0  0  0  0  0  0  0
   21.0422   -9.6048  -15.8245 C   0  0  0  0  0  0  0  0  0  0  0  0
   21.6617   -9.6146  -14.7112 O   0  0  0  0  0  0  0  0  0  0  0  0
   20.7830   -8.3725  -16.4350 N   0  0  0  0  0  0  0  0  0  0  0  0
   21.1698   -7.1146  -15.8315 C   0  0  1  0  0  0  0  0  0  0  0  0
   21.9864   -6.2593  -16.7395 C   0  0  0  0  0  0  0  0  0  0  0  0
   23.2294   -6.8991  -17.2123 C   0  0  0  0  0  0  0  0  0  0  0  0
   23.2823   -7.6229  -18.3824 C   0  0  0  0  0  0  0  0  0  0  0  0
   24.5226   -8.0942  -18.5612 N   0  0  0  0  0  0  0  0  0  0  0  0
   25.2409   -7.6685  -17.5108 C   0  0  0  0  0  0  0  0  0  0  0  0
   24.4493   -6.9429  -16.6951 N   0  0  0  0  0  0  0  0  0  0  0  0
   19.9640   -6.3079  -15.4497 C   0  0  0  0  0  0  0  0  0  0  0  0
   18.7921   -6.6534  -15.7509 O   0  0  0  0  0  0  0  0  0  0  0  0
   20.1528   -5.1347  -14.7365 O   0  0  0  0  0  0  0  0  0  0  0  0
  1  5  1  0
  1  2  1  0
  2  3  1  0
  4  3  1  0
  5  6  1  1
  5  4  1  0
  6 11  1  0
  6  7  2  0
  9  8  1  0
 10  9  1  1
 10 12  1  0
 11 10  1  0
 12 13  2  0
 12 14  1  0
 14 15  1  0
 15 16  1  6
 15 22  1  0
 17 21  1  0
 17 16  1  0
 18 17  2  0
 19 18  1  0
 19 20  1  0
 20 21  2  0
 22 24  1  0
 23 22  2  0
M  END
$$$$
