PSH.pdb
     RDKit          3D

 24 25  0  0  1  0  0  0  0  0999 V2000
   26.6215  -32.9267   -9.6038 N   0  0  0  0  0  0  0  0  0  0  0  0
   26.5306  -32.9658  -11.0511 C   0  0  0  0  0  0  0  0  0  0  0  0
   25.0814  -33.2251  -11.3804 C   0  0  0  0  0  0  0  0  0  0  0  0
   24.6278  -33.9615  -10.1374 C   0  0  0  0  0  0  0  0  0  0  0  0
   25.3446  -33.1934   -9.0468 C   0  0  1  0  0  0  0  0  0  0  0  0
   25.3219  -33.8992   -7.7604 C   0  0  0  0  0  0  0  0  0  0  0  0
   24.1977  -34.1766   -7.2437 O   0  0  0  0  0  0  0  0  0  0  0  0
   28.4293  -36.2357   -6.1859 O   0  0  0  0  0  0  0  0  0  0  0  0
   27.8253  -35.2917   -5.3211 C   0  0  0  0  0  0  0  0  0  0  0  0
   26.4062  -35.1280   -5.8138 C   0  0  2  0  0  0  0  0  0  0  0  0
   26.4440  -34.3177   -7.0091 N   0  0  0  0  0  0  0  0  0  0  0  0
   25.6386  -34.4779   -4.7220 C   0  0  0  0  0  0  0  0  0  0  0  0
   25.9088  -33.2484   -4.5248 O   0  0  0  0  0  0  0  0  0  0  0  0
   24.6712  -35.0879   -3.9154 N   0  0  0  0  0  0  0  0  0  0  0  0
   23.9369  -34.3581   -2.9034 C   0  0  1  0  0  0  0  0  0  0  0  0
   22.4588  -34.4538   -3.0733 C   0  0  0  0  0  0  0  0  0  0  0  0
   21.6867  -33.7359   -2.0406 C   0  0  0  0  0  0  0  0  0  0  0  0
   21.8884  -32.4011   -1.7698 C   0  0  0  0  0  0  0  0  0  0  0  0
   21.0636  -32.0140   -0.7889 N   0  0  0  0  0  0  0  0  0  0  0  0
   20.3506  -33.0984   -0.4481 C   0  0  0  0  0  0  0  0  0  0  0  0
   20.7340  -34.1412   -1.2124 N   0  0  0  0  0  0  0  0  0  0  0  0
   24.2470  -34.8809   -1.5320 C   0  0  0  0  0  0  0  0  0  0  0  0
   24.8890  -35.9460   -1.3399 O   0  0  0  0  0  0  0  0  0  0  0  0
   23.8065  -34.1584   -0.4343 O   0  0  0  0  0  0  0  0  0  0  0  0
  1  5  1  0
  1  2  1  0
  2  3  1  0
  4  3  1  0
  5  6  1  1
  5  4  1  0
  6 11  1  0
  6  7  2  0
  9  8  1  0
 10  9  1  1
 10 12  1  0
 11 10  1  0
 12 13  2  0
 12 14  1  0
 14 15  1  0
 15 16  1  6
 15 22  1  0
 17 21  1  0
 17 16  1  0
 18 17  2  0
 19 18  1  0
 19 20  1  0
 20 21  2  0
 22 24  1  0
 23 22  2  0
M  END
$$$$
