PSH.pdb
     RDKit          3D

 24 25  0  0  1  0  0  0  0  0999 V2000
   32.3452  -31.8119  -17.5338 N   0  0  0  0  0  0  0  0  0  0  0  0
   33.2831  -32.7784  -16.9947 C   0  0  0  0  0  0  0  0  0  0  0  0
   32.4971  -34.0416  -16.7451 C   0  0  0  0  0  0  0  0  0  0  0  0
   31.1068  -33.4815  -16.5294 C   0  0  0  0  0  0  0  0  0  0  0  0
   31.0502  -32.3890  -17.5764 C   0  0  1  0  0  0  0  0  0  0  0  0
   29.9171  -31.4791  -17.3722 C   0  0  0  0  0  0  0  0  0  0  0  0
   30.0815  -30.4684  -16.6244 O   0  0  0  0  0  0  0  0  0  0  0  0
   26.8890  -31.2316  -19.8937 O   0  0  0  0  0  0  0  0  0  0  0  0
   27.1122  -30.1249  -19.0397 C   0  0  0  0  0  0  0  0  0  0  0  0
   27.5153  -30.7071  -17.7049 C   0  0  2  0  0  0  0  0  0  0  0  0
   28.6245  -31.6046  -17.9310 N   0  0  0  0  0  0  0  0  0  0  0  0
   26.3277  -31.4126  -17.1611 C   0  0  0  0  0  0  0  0  0  0  0  0
   26.2516  -32.6513  -17.4496 O   0  0  0  0  0  0  0  0  0  0  0  0
   25.3145  -30.8441  -16.3808 N   0  0  0  0  0  0  0  0  0  0  0  0
   24.1938  -31.6164  -15.8872 C   0  0  1  0  0  0  0  0  0  0  0  0
   23.9502  -31.4234  -14.4291 C   0  0  0  0  0  0  0  0  0  0  0  0
   25.0009  -31.9925  -13.5629 C   0  0  0  0  0  0  0  0  0  0  0  0
   26.0270  -32.7619  -14.0639 C   0  0  0  0  0  0  0  0  0  0  0  0
   26.8253  -33.1502  -13.0617 N   0  0  0  0  0  0  0  0  0  0  0  0
   26.3029  -32.6278  -11.9416 C   0  0  0  0  0  0  0  0  0  0  0  0
   25.1946  -31.9255  -12.2531 N   0  0  0  0  0  0  0  0  0  0  0  0
   22.9252  -31.2327  -16.5898 C   0  0  0  0  0  0  0  0  0  0  0  0
   22.8582  -30.2650  -17.3914 O   0  0  0  0  0  0  0  0  0  0  0  0
   21.7822  -31.9768  -16.3430 O   0  0  0  0  0  0  0  0  0  0  0  0
  1  5  1  0
  1  2  1  0
  2  3  1  0
  4  3  1  0
  5  6  1  1
  5  4  1  0
  6 11  1  0
  6  7  2  0
  9  8  1  0
 10  9  1  6
 10 12  1  0
 11 10  1  0
 12 13  2  0
 12 14  1  0
 14 15  1  0
 15 16  1  1
 15 22  1  0
 17 21  1  0
 17 16  1  0
 18 17  2  0
 19 18  1  0
 19 20  1  0
 20 21  2  0
 22 24  1  0
 23 22  2  0
M  END
$$$$
