PSH.pdb
     RDKit          3D

 24 25  0  0  1  0  0  0  0  0999 V2000
   24.7563  -21.4361  -16.1176 N   0  0  0  0  0  0  0  0  0  0  0  0
   26.1520  -21.7444  -16.3653 C   0  0  0  0  0  0  0  0  0  0  0  0
   26.8021  -21.8943  -15.0122 C   0  0  0  0  0  0  0  0  0  0  0  0
   25.9082  -21.0170  -14.1611 C   0  0  0  0  0  0  0  0  0  0  0  0
   24.5384  -21.3415  -14.7192 C   0  0  1  0  0  0  0  0  0  0  0  0
   23.5151  -20.3877  -14.2755 C   0  0  0  0  0  0  0  0  0  0  0  0
   23.3338  -20.2328  -13.0302 O   0  0  0  0  0  0  0  0  0  0  0  0
   21.3906  -18.3242  -16.9406 O   0  0  0  0  0  0  0  0  0  0  0  0
   21.4962  -17.6191  -15.7176 C   0  0  0  0  0  0  0  0  0  0  0  0
   21.6740  -18.6711  -14.6476 C   0  0  2  0  0  0  0  0  0  0  0  0
   22.6839  -19.5984  -15.1029 N   0  0  0  0  0  0  0  0  0  0  0  0
   20.3561  -19.3282  -14.4598 C   0  0  0  0  0  0  0  0  0  0  0  0
   20.1385  -20.3348  -15.2100 O   0  0  0  0  0  0  0  0  0  0  0  0
   19.3625  -18.9427  -13.5528 N   0  0  0  0  0  0  0  0  0  0  0  0
   18.0970  -19.6386  -13.4509 C   0  0  1  0  0  0  0  0  0  0  0  0
   17.7354  -19.9878  -12.0473 C   0  0  0  0  0  0  0  0  0  0  0  0
   18.3397  -21.2450  -11.5652 C   0  0  0  0  0  0  0  0  0  0  0  0
   19.1146  -22.0440  -12.3756 C   0  0  0  0  0  0  0  0  0  0  0  0
   19.5230  -23.1171  -11.6870 N   0  0  0  0  0  0  0  0  0  0  0  0
   19.0076  -22.9908  -10.4546 C   0  0  0  0  0  0  0  0  0  0  0  0
   18.2898  -21.8512  -10.3871 N   0  0  0  0  0  0  0  0  0  0  0  0
   16.9763  -18.7982  -13.9875 C   0  0  0  0  0  0  0  0  0  0  0  0
   15.7928  -19.2173  -14.0720 O   0  0  0  0  0  0  0  0  0  0  0  0
   17.2602  -17.5079  -14.4065 O   0  0  0  0  0  0  0  0  0  0  0  0
  1  5  1  0
  1  2  1  0
  2  3  1  0
  4  3  1  0
  5  6  1  6
  5  4  1  0
  6 11  1  0
  6  7  2  0
  9  8  1  0
 10  9  1  6
 10 12  1  0
 11 10  1  0
 12 13  2  0
 12 14  1  0
 14 15  1  0
 15 16  1  1
 15 22  1  0
 17 21  1  0
 17 16  1  0
 18 17  2  0
 19 18  1  0
 19 20  1  0
 20 21  2  0
 22 24  1  0
 23 22  2  0
M  END
$$$$
