PSH.pdb
     RDKit          3D

 24 25  0  0  1  0  0  0  0  0999 V2000
   19.7777  -12.2799    7.8293 N   0  0  0  0  0  0  0  0  0  0  0  0
   19.3071  -10.9143    7.6956 C   0  0  0  0  0  0  0  0  0  0  0  0
   20.5230  -10.0713    7.4012 C   0  0  0  0  0  0  0  0  0  0  0  0
   21.6140  -10.8978    8.0490 C   0  0  0  0  0  0  0  0  0  0  0  0
   21.1888  -12.3053    7.6867 C   0  0  1  0  0  0  0  0  0  0  0  0
   21.9104  -13.3225    8.4602 C   0  0  0  0  0  0  0  0  0  0  0  0
   23.1549  -13.4616    8.2614 O   0  0  0  0  0  0  0  0  0  0  0  0
   22.9613  -15.4299   12.4037 O   0  0  0  0  0  0  0  0  0  0  0  0
   22.0899  -14.5898   11.6697 C   0  0  0  0  0  0  0  0  0  0  0  0
   22.1019  -15.1173   10.2538 C   0  0  2  0  0  0  0  0  0  0  0  0
   21.3597  -14.1906    9.4307 N   0  0  0  0  0  0  0  0  0  0  0  0
   21.4750  -16.4626   10.2851 C   0  0  0  0  0  0  0  0  0  0  0  0
   20.2012  -16.4685   10.3126 O   0  0  0  0  0  0  0  0  0  0  0  0
   22.1498  -17.6887   10.2873 N   0  0  0  0  0  0  0  0  0  0  0  0
   21.4517  -18.9548   10.3628 C   0  0  1  0  0  0  0  0  0  0  0  0
   21.8740  -19.9170    9.3051 C   0  0  0  0  0  0  0  0  0  0  0  0
   21.0426  -19.8749    8.0865 C   0  0  0  0  0  0  0  0  0  0  0  0
   19.9515  -19.0429    7.9717 C   0  0  0  0  0  0  0  0  0  0  0  0
   19.3813  -19.2160    6.7729 N   0  0  0  0  0  0  0  0  0  0  0  0
   20.1100  -20.1493    6.1417 C   0  0  0  0  0  0  0  0  0  0  0  0
   21.1179  -20.5454    6.9453 N   0  0  0  0  0  0  0  0  0  0  0  0
   21.6994  -19.6278   11.6803 C   0  0  0  0  0  0  0  0  0  0  0  0
   22.4928  -19.1659   12.5409 O   0  0  0  0  0  0  0  0  0  0  0  0
   21.0249  -20.8065   11.9572 O   0  0  0  0  0  0  0  0  0  0  0  0
  1  5  1  0
  1  2  1  0
  2  3  1  0
  4  3  1  0
  5  6  1  1
  5  4  1  0
  6 11  1  0
  6  7  2  0
  9  8  1  0
 10  9  1  1
 10 12  1  0
 11 10  1  0
 12 13  2  0
 12 14  1  0
 14 15  1  0
 15 16  1  6
 15 22  1  0
 17 21  1  0
 17 16  1  0
 18 17  2  0
 19 18  1  0
 19 20  1  0
 20 21  2  0
 22 24  1  0
 23 22  2  0
M  END
$$$$
