SYW.pdb
     RDKit          3D

 33 35  0  0  1  0  0  0  0  0999 V2000
   29.8164  -22.8594  -14.9172 O   0  0  0  0  0  0  0  0  0  0  0  0
   29.9237  -21.8573  -15.8676 C   0  0  0  0  0  0  0  0  0  0  0  0
   28.5764  -21.6706  -16.5259 C   0  0  2  0  0  0  0  0  0  0  0  0
   28.7932  -20.6349  -17.5502 N   0  0  0  0  0  0  0  0  0  0  0  0
   27.6371  -21.1188  -15.5362 C   0  0  0  0  0  0  0  0  0  0  0  0
   27.6868  -19.8897  -15.2835 O   0  0  0  0  0  0  0  0  0  0  0  0
   20.4531  -18.5473  -11.4401 O   0  0  0  0  0  0  0  0  0  0  0  0
   21.4078  -19.2549  -12.1935 C   0  0  0  0  0  0  0  0  0  0  0  0
   22.1326  -18.6507  -13.1934 C   0  0  0  0  0  0  0  0  0  0  0  0
   23.0624  -19.3586  -13.9206 C   0  0  0  0  0  0  0  0  0  0  0  0
   23.3039  -20.7005  -13.6758 C   0  0  0  0  0  0  0  0  0  0  0  0
   24.3130  -21.3637  -14.5054 C   0  0  0  0  0  0  0  0  0  0  0  0
   25.7289  -21.2392  -13.9889 C   0  0  2  0  0  0  0  0  0  0  0  0
   26.6648  -21.8733  -14.8361 N   0  0  0  0  0  0  0  0  0  0  0  0
   25.8924  -21.6459  -12.5989 C   0  0  0  0  0  0  0  0  0  0  0  0
   25.9260  -22.8502  -12.2077 O   0  0  0  0  0  0  0  0  0  0  0  0
   22.5893  -21.3217  -12.6804 C   0  0  0  0  0  0  0  0  0  0  0  0
   21.6699  -20.5929  -11.9721 C   0  0  0  0  0  0  0  0  0  0  0  0
   26.0286  -20.6756  -11.5714 N   0  0  0  0  0  0  0  0  0  0  0  0
   25.8361  -21.0124  -10.1580 C   0  0  1  0  0  0  0  0  0  0  0  0
   26.9723  -20.3414   -9.4416 C   0  0  0  0  0  0  0  0  0  0  0  0
   26.9428  -20.3874   -7.9752 C   0  0  0  0  0  0  0  0  0  0  0  0
   25.9174  -20.9034   -7.1772 C   0  0  0  0  0  0  0  0  0  0  0  0
   26.1963  -20.7616   -5.8824 N   0  0  0  0  0  0  0  0  0  0  0  0
   27.3913  -20.1601   -5.7777 C   0  0  0  0  0  0  0  0  0  0  0  0
   28.1408  -19.7978   -4.6826 C   0  0  0  0  0  0  0  0  0  0  0  0
   29.3712  -19.1965   -4.8179 C   0  0  0  0  0  0  0  0  0  0  0  0
   29.8586  -18.9540   -6.0856 C   0  0  0  0  0  0  0  0  0  0  0  0
   29.0971  -19.3214   -7.1599 C   0  0  0  0  0  0  0  0  0  0  0  0
   27.8634  -19.9236   -7.0530 C   0  0  0  0  0  0  0  0  0  0  0  0
   24.5216  -20.6769   -9.6672 C   0  0  0  0  0  0  0  0  0  0  0  0
   23.8654  -21.4914   -8.7592 O   0  0  0  0  0  0  0  0  0  0  0  0
   23.9000  -19.6396  -10.0344 O   0  0  0  0  0  0  0  0  0  0  0  0
  2  1  1  0
  3  4  1  6
  3  2  1  0
  5  3  1  0
  6  5  2  0
  8  7  1  0
  8 18  2  0
  9  8  1  0
 10  9  2  0
 10 11  1  0
 11 17  2  0
 12 11  1  0
 13 12  1  6
 13 14  1  0
 14  5  1  0
 15 19  1  0
 15 13  1  0
 16 15  2  0
 17 18  1  0
 20 21  1  1
 20 31  1  0
 20 19  1  0
 22 23  2  0
 22 21  1  0
 24 23  1  0
 25 30  2  0
 25 24  1  0
 26 25  1  0
 27 28  1  0
 27 26  2  0
 28 29  2  0
 29 30  1  0
 30 22  1  0
 31 32  1  0
 33 31  2  0
M  END
$$$$
