SYW.pdb
     RDKit          3D

 33 35  0  0  1  0  0  0  0  0999 V2000
   30.8935  -23.8543  -16.1228 O   0  0  0  0  0  0  0  0  0  0  0  0
   29.8397  -22.9657  -15.9870 C   0  0  0  0  0  0  0  0  0  0  0  0
   28.7589  -23.3447  -16.9728 C   0  0  2  0  0  0  0  0  0  0  0  0
   28.9689  -22.4561  -18.1284 N   0  0  0  0  0  0  0  0  0  0  0  0
   27.4486  -23.0083  -16.3931 C   0  0  0  0  0  0  0  0  0  0  0  0
   27.0478  -21.8204  -16.4676 O   0  0  0  0  0  0  0  0  0  0  0  0
   19.0010  -23.2755  -13.8863 O   0  0  0  0  0  0  0  0  0  0  0  0
   20.3046  -23.5995  -14.3050 C   0  0  0  0  0  0  0  0  0  0  0  0
   21.0973  -24.4694  -13.5944 C   0  0  0  0  0  0  0  0  0  0  0  0
   22.3706  -24.7747  -14.0188 C   0  0  0  0  0  0  0  0  0  0  0  0
   22.9015  -24.2211  -15.1722 C   0  0  0  0  0  0  0  0  0  0  0  0
   24.2660  -24.6098  -15.5375 C   0  0  0  0  0  0  0  0  0  0  0  0
   25.3061  -23.5366  -15.3067 C   0  0  2  0  0  0  0  0  0  0  0  0
   26.5884  -23.9306  -15.7497 N   0  0  0  0  0  0  0  0  0  0  0  0
   25.3373  -23.0225  -13.9433 C   0  0  0  0  0  0  0  0  0  0  0  0
   25.7848  -23.6665  -12.9485 O   0  0  0  0  0  0  0  0  0  0  0  0
   22.1244  -23.3495  -15.8959 C   0  0  0  0  0  0  0  0  0  0  0  0
   20.8604  -23.0633  -15.4503 C   0  0  0  0  0  0  0  0  0  0  0  0
   24.8493  -21.7222  -13.6480 N   0  0  0  0  0  0  0  0  0  0  0  0
   24.6727  -21.2561  -12.2697 C   0  0  1  0  0  0  0  0  0  0  0  0
   25.7514  -20.2316  -12.0659 C   0  0  0  0  0  0  0  0  0  0  0  0
   26.9624  -20.6825  -11.3707 C   0  0  0  0  0  0  0  0  0  0  0  0
   28.0718  -21.3077  -11.9477 C   0  0  0  0  0  0  0  0  0  0  0  0
   28.9856  -21.6131  -11.0279 N   0  0  0  0  0  0  0  0  0  0  0  0
   28.5252  -21.2094   -9.8339 C   0  0  0  0  0  0  0  0  0  0  0  0
   29.0731  -21.2696   -8.5735 C   0  0  0  0  0  0  0  0  0  0  0  0
   28.4137  -20.7660   -7.4757 C   0  0  0  0  0  0  0  0  0  0  0  0
   27.1732  -20.1881   -7.6507 C   0  0  0  0  0  0  0  0  0  0  0  0
   26.6468  -20.1394   -8.9115 C   0  0  0  0  0  0  0  0  0  0  0  0
   27.2845  -20.6359  -10.0264 C   0  0  0  0  0  0  0  0  0  0  0  0
   23.3338  -20.7965  -11.9918 C   0  0  0  0  0  0  0  0  0  0  0  0
   22.9015  -20.5897  -10.6922 O   0  0  0  0  0  0  0  0  0  0  0  0
   22.4890  -20.5640  -12.9027 O   0  0  0  0  0  0  0  0  0  0  0  0
  2  1  1  0
  3  4  1  6
  3  2  1  0
  5  3  1  0
  6  5  2  0
  8  7  1  0
  8 18  2  0
  9  8  1  0
 10  9  2  0
 10 11  1  0
 11 17  2  0
 12 11  1  0
 13 12  1  1
 13 14  1  0
 14  5  1  0
 15 19  1  0
 15 13  1  0
 16 15  2  0
 17 18  1  0
 20 21  1  6
 20 31  1  0
 20 19  1  0
 22 23  2  0
 22 21  1  0
 24 23  1  0
 25 30  2  0
 25 24  1  0
 26 25  1  0
 27 28  1  0
 27 26  2  0
 28 29  2  0
 29 30  1  0
 30 22  1  0
 31 32  1  0
 33 31  2  0
M  END
$$$$
