SYW.pdb
     RDKit          3D

 33 35  0  0  1  0  0  0  0  0999 V2000
   24.8782  -13.2594  -20.0057 O   0  0  0  0  0  0  0  0  0  0  0  0
   26.0918  -12.5993  -20.1068 C   0  0  0  0  0  0  0  0  0  0  0  0
   26.5858  -12.2821  -18.7143 C   0  0  2  0  0  0  0  0  0  0  0  0
   26.4105  -13.5314  -17.9542 N   0  0  0  0  0  0  0  0  0  0  0  0
   25.6968  -11.2747  -18.1134 C   0  0  0  0  0  0  0  0  0  0  0  0
   24.8892  -11.6423  -17.2246 O   0  0  0  0  0  0  0  0  0  0  0  0
   21.6563   -3.9465  -15.3951 O   0  0  0  0  0  0  0  0  0  0  0  0
   22.5416   -4.8448  -16.0189 C   0  0  0  0  0  0  0  0  0  0  0  0
   23.2937   -5.7393  -15.2948 C   0  0  0  0  0  0  0  0  0  0  0  0
   24.1550   -6.6108  -15.9218 C   0  0  0  0  0  0  0  0  0  0  0  0
   24.2978   -6.6217  -17.2996 C   0  0  0  0  0  0  0  0  0  0  0  0
   25.2409   -7.5872  -17.8696 C   0  0  0  0  0  0  0  0  0  0  0  0
   24.7504   -9.0178  -17.8680 C   0  0  2  0  0  0  0  0  0  0  0  0
   25.6792   -9.9021  -18.4604 N   0  0  0  0  0  0  0  0  0  0  0  0
   23.4119   -9.1877  -18.4191 C   0  0  0  0  0  0  0  0  0  0  0  0
   23.1591   -9.3044  -19.6548 O   0  0  0  0  0  0  0  0  0  0  0  0
   23.5545   -5.7351  -18.0403 C   0  0  0  0  0  0  0  0  0  0  0  0
   22.7048   -4.8787  -17.3901 C   0  0  0  0  0  0  0  0  0  0  0  0
   22.2778   -9.2337  -17.5660 N   0  0  0  0  0  0  0  0  0  0  0  0
   20.9159   -9.3531  -18.0944 C   0  0  1  0  0  0  0  0  0  0  0  0
   20.3632  -10.5984  -17.4631 C   0  0  0  0  0  0  0  0  0  0  0  0
   19.3818  -11.3537  -18.2503 C   0  0  0  0  0  0  0  0  0  0  0  0
   19.6542  -12.3763  -19.1638 C   0  0  0  0  0  0  0  0  0  0  0  0
   18.5357  -12.8294  -19.7280 N   0  0  0  0  0  0  0  0  0  0  0  0
   17.5038  -12.1388  -19.2191 C   0  0  0  0  0  0  0  0  0  0  0  0
   16.1493  -12.2171  -19.4458 C   0  0  0  0  0  0  0  0  0  0  0  0
   15.2590  -11.4038  -18.7830 C   0  0  0  0  0  0  0  0  0  0  0  0
   15.7436  -10.4896  -17.8703 C   0  0  0  0  0  0  0  0  0  0  0  0
   17.0932  -10.4280  -17.6608 C   0  0  0  0  0  0  0  0  0  0  0  0
   18.0057  -11.2290  -18.3104 C   0  0  0  0  0  0  0  0  0  0  0  0
   20.1227   -8.1645  -17.8965 C   0  0  0  0  0  0  0  0  0  0  0  0
   18.9976   -7.9166  -18.6654 O   0  0  0  0  0  0  0  0  0  0  0  0
   20.4059   -7.2916  -17.0275 O   0  0  0  0  0  0  0  0  0  0  0  0
  2  1  1  0
  3  4  1  1
  3  2  1  0
  5  3  1  0
  6  5  2  0
  8  7  1  0
  8 18  2  0
  9  8  1  0
 10  9  2  0
 10 11  1  0
 11 17  2  0
 12 11  1  0
 13 12  1  6
 13 14  1  0
 14  5  1  0
 15 19  1  0
 15 13  1  0
 16 15  2  0
 17 18  1  0
 20 21  1  1
 20 31  1  0
 20 19  1  0
 22 23  2  0
 22 21  1  0
 24 23  1  0
 25 30  2  0
 25 24  1  0
 26 25  1  0
 27 28  1  0
 27 26  2  0
 28 29  2  0
 29 30  1  0
 30 22  1  0
 31 32  1  0
 33 31  2  0
M  END
$$$$
