SYW.pdb
     RDKit          3D

 33 35  0  0  1  0  0  0  0  0999 V2000
   28.4050  -21.9147  -14.2265 O   0  0  0  0  0  0  0  0  0  0  0  0
   28.1571  -21.9424  -15.5890 C   0  0  0  0  0  0  0  0  0  0  0  0
   27.4309  -20.6740  -15.9730 C   0  0  2  0  0  0  0  0  0  0  0  0
   28.4956  -19.7003  -16.2691 N   0  0  0  0  0  0  0  0  0  0  0  0
   26.6943  -20.1754  -14.8004 C   0  0  0  0  0  0  0  0  0  0  0  0
   27.2130  -19.2630  -14.1107 O   0  0  0  0  0  0  0  0  0  0  0  0
   22.0691  -16.0964  -17.5320 O   0  0  0  0  0  0  0  0  0  0  0  0
   22.3758  -17.0251  -16.5205 C   0  0  0  0  0  0  0  0  0  0  0  0
   22.5305  -18.3643  -16.7907 C   0  0  0  0  0  0  0  0  0  0  0  0
   22.8304  -19.2588  -15.7885 C   0  0  0  0  0  0  0  0  0  0  0  0
   22.9876  -18.8482  -14.4749 C   0  0  0  0  0  0  0  0  0  0  0  0
   23.3053  -19.8782  -13.4826 C   0  0  0  0  0  0  0  0  0  0  0  0
   24.7848  -20.0911  -13.2525 C   0  0  2  0  0  0  0  0  0  0  0  0
   25.4269  -20.6471  -14.3813 N   0  0  0  0  0  0  0  0  0  0  0  0
   25.0968  -20.8266  -12.0335 C   0  0  0  0  0  0  0  0  0  0  0  0
   25.0035  -22.0844  -11.9161 O   0  0  0  0  0  0  0  0  0  0  0  0
   22.8369  -17.5138  -14.1852 C   0  0  0  0  0  0  0  0  0  0  0  0
   22.5384  -16.6452  -15.2024 C   0  0  0  0  0  0  0  0  0  0  0  0
   25.5397  -20.1449  -10.8694 N   0  0  0  0  0  0  0  0  0  0  0  0
   25.7531  -20.8421   -9.5980 C   0  0  1  0  0  0  0  0  0  0  0  0
   26.7835  -20.0233   -8.8753 C   0  0  0  0  0  0  0  0  0  0  0  0
   27.0860  -20.4181   -7.4948 C   0  0  0  0  0  0  0  0  0  0  0  0
   26.6340  -21.5661   -6.8373 C   0  0  0  0  0  0  0  0  0  0  0  0
   27.0708  -21.6049   -5.5795 N   0  0  0  0  0  0  0  0  0  0  0  0
   27.8128  -20.5080   -5.3628 C   0  0  0  0  0  0  0  0  0  0  0  0
   28.4998  -20.0720   -4.2536 C   0  0  0  0  0  0  0  0  0  0  0  0
   29.2220  -18.9008   -4.2669 C   0  0  0  0  0  0  0  0  0  0  0  0
   29.2534  -18.1504   -5.4242 C   0  0  0  0  0  0  0  0  0  0  0  0
   28.5631  -18.6017   -6.5146 C   0  0  0  0  0  0  0  0  0  0  0  0
   27.8326  -19.7688   -6.5284 C   0  0  0  0  0  0  0  0  0  0  0  0
   24.5327  -21.0736   -8.8643 C   0  0  0  0  0  0  0  0  0  0  0  0
   24.4159  -22.1360   -7.9833 O   0  0  0  0  0  0  0  0  0  0  0  0
   23.5138  -20.3356   -8.9840 O   0  0  0  0  0  0  0  0  0  0  0  0
  2  1  1  0
  3  4  1  1
  3  2  1  0
  5  3  1  0
  6  5  2  0
  8  7  1  0
  8 18  2  0
  9  8  1  0
 10  9  2  0
 10 11  1  0
 11 17  2  0
 12 11  1  0
 13 12  1  6
 13 14  1  0
 14  5  1  0
 15 19  1  0
 15 13  1  0
 16 15  2  0
 17 18  1  0
 20 21  1  1
 20 31  1  0
 20 19  1  0
 22 23  2  0
 22 21  1  0
 24 23  1  0
 25 30  2  0
 25 24  1  0
 26 25  1  0
 27 28  1  0
 27 26  2  0
 28 29  2  0
 29 30  1  0
 30 22  1  0
 31 32  1  0
 33 31  2  0
M  END
$$$$
