SYW.pdb
     RDKit          3D

 33 35  0  0  1  0  0  0  0  0999 V2000
   26.9944  -33.6611  -18.1712 O   0  0  0  0  0  0  0  0  0  0  0  0
   28.0891  -33.5562  -17.3290 C   0  0  0  0  0  0  0  0  0  0  0  0
   28.7434  -32.2127  -17.5534 C   0  0  2  0  0  0  0  0  0  0  0  0
   29.8854  -32.1851  -16.6239 N   0  0  0  0  0  0  0  0  0  0  0  0
   27.8105  -31.1545  -17.1336 C   0  0  0  0  0  0  0  0  0  0  0  0
   27.8240  -30.7858  -15.9331 O   0  0  0  0  0  0  0  0  0  0  0  0
   31.3410  -25.8345  -17.1859 O   0  0  0  0  0  0  0  0  0  0  0  0
   30.0785  -26.4067  -17.4273 C   0  0  0  0  0  0  0  0  0  0  0  0
   29.8835  -27.3354  -18.4221 C   0  0  0  0  0  0  0  0  0  0  0  0
   28.6411  -27.8846  -18.6443 C   0  0  0  0  0  0  0  0  0  0  0  0
   27.5436  -27.5259  -17.8790 C   0  0  0  0  0  0  0  0  0  0  0  0
   26.2652  -28.1675  -18.1958 C   0  0  0  0  0  0  0  0  0  0  0  0
   26.0374  -29.4891  -17.4968 C   0  0  2  0  0  0  0  0  0  0  0  0
   26.8855  -30.5067  -17.9876 N   0  0  0  0  0  0  0  0  0  0  0  0
   24.6431  -29.9125  -17.4660 C   0  0  0  0  0  0  0  0  0  0  0  0
   24.0817  -30.5846  -18.3812 O   0  0  0  0  0  0  0  0  0  0  0  0
   27.7187  -26.5992  -16.8801 C   0  0  0  0  0  0  0  0  0  0  0  0
   28.9665  -26.0686  -16.6808 C   0  0  0  0  0  0  0  0  0  0  0  0
   23.8096  -29.5815  -16.3652 N   0  0  0  0  0  0  0  0  0  0  0  0
   22.4305  -30.0675  -16.2646 C   0  0  1  0  0  0  0  0  0  0  0  0
   22.5460  -31.5645  -16.2691 C   0  0  0  0  0  0  0  0  0  0  0  0
   21.2899  -32.3203  -16.2029 C   0  0  0  0  0  0  0  0  0  0  0  0
   20.2035  -32.2108  -17.0759 C   0  0  0  0  0  0  0  0  0  0  0  0
   19.2099  -33.0204  -16.7129 N   0  0  0  0  0  0  0  0  0  0  0  0
   19.5939  -33.6820  -15.6104 C   0  0  0  0  0  0  0  0  0  0  0  0
   18.9600  -34.6350  -14.8474 C   0  0  0  0  0  0  0  0  0  0  0  0
   19.5659  -35.1987  -13.7480 C   0  0  0  0  0  0  0  0  0  0  0  0
   20.8403  -34.7934  -13.4084 C   0  0  0  0  0  0  0  0  0  0  0  0
   21.4516  -33.8446  -14.1799 C   0  0  0  0  0  0  0  0  0  0  0  0
   20.8683  -33.2641  -15.2840 C   0  0  0  0  0  0  0  0  0  0  0  0
   21.7127  -29.5137  -15.1425 C   0  0  0  0  0  0  0  0  0  0  0  0
   22.3187  -29.3649  -13.9059 O   0  0  0  0  0  0  0  0  0  0  0  0
   20.5070  -29.1424  -15.2194 O   0  0  0  0  0  0  0  0  0  0  0  0
  2  1  1  0
  3  4  1  1
  3  2  1  0
  5  3  1  0
  6  5  2  0
  8  7  1  0
  8 18  2  0
  9  8  1  0
 10  9  2  0
 10 11  1  0
 11 17  2  0
 12 11  1  0
 13 12  1  6
 13 14  1  0
 14  5  1  0
 15 19  1  0
 15 13  1  0
 16 15  2  0
 17 18  1  0
 20 21  1  1
 20 31  1  0
 20 19  1  0
 22 23  2  0
 22 21  1  0
 24 23  1  0
 25 30  2  0
 25 24  1  0
 26 25  1  0
 27 28  1  0
 27 26  2  0
 28 29  2  0
 29 30  1  0
 30 22  1  0
 31 32  1  0
 33 31  2  0
M  END
$$$$
