SYW.pdb
     RDKit          3D

 33 35  0  0  1  0  0  0  0  0999 V2000
   30.9925  -25.0039  -15.9772 O   0  0  0  0  0  0  0  0  0  0  0  0
   30.2501  -23.8405  -16.0955 C   0  0  0  0  0  0  0  0  0  0  0  0
   28.9927  -24.1480  -16.8754 C   0  0  2  0  0  0  0  0  0  0  0  0
   29.3650  -23.9593  -18.2878 N   0  0  0  0  0  0  0  0  0  0  0  0
   27.9740  -23.1363  -16.5513 C   0  0  0  0  0  0  0  0  0  0  0  0
   27.7554  -22.2192  -17.3810 O   0  0  0  0  0  0  0  0  0  0  0  0
   20.5000  -25.2123  -14.4216 O   0  0  0  0  0  0  0  0  0  0  0  0
   21.6303  -24.5277  -14.9047 C   0  0  0  0  0  0  0  0  0  0  0  0
   22.6889  -24.2113  -14.0865 C   0  0  0  0  0  0  0  0  0  0  0  0
   23.7867  -23.5409  -14.5763 C   0  0  0  0  0  0  0  0  0  0  0  0
   23.8687  -23.1601  -15.9056 C   0  0  0  0  0  0  0  0  0  0  0  0
   25.0790  -22.4504  -16.3276 C   0  0  0  0  0  0  0  0  0  0  0  0
   26.0998  -22.2459  -15.2307 C   0  0  2  0  0  0  0  0  0  0  0  0
   27.2066  -23.1140  -15.3617 N   0  0  0  0  0  0  0  0  0  0  0  0
   25.5409  -22.2785  -13.8851 C   0  0  0  0  0  0  0  0  0  0  0  0
   25.2646  -23.3411  -13.2533 O   0  0  0  0  0  0  0  0  0  0  0  0
   22.8207  -23.4675  -16.7389 C   0  0  0  0  0  0  0  0  0  0  0  0
   21.7402  -24.1356  -16.2247 C   0  0  0  0  0  0  0  0  0  0  0  0
   25.2673  -21.0739  -13.1849 N   0  0  0  0  0  0  0  0  0  0  0  0
   24.7709  -21.0756  -11.8059 C   0  0  1  0  0  0  0  0  0  0  0  0
   25.5577  -20.0030  -11.1096 C   0  0  0  0  0  0  0  0  0  0  0  0
   26.8814  -20.3834  -10.6032 C   0  0  0  0  0  0  0  0  0  0  0  0
   27.9196  -20.9651  -11.3367 C   0  0  0  0  0  0  0  0  0  0  0  0
   28.9769  -21.2104  -10.5644 N   0  0  0  0  0  0  0  0  0  0  0  0
   28.6842  -20.8081   -9.3182 C   0  0  0  0  0  0  0  0  0  0  0  0
   29.4200  -20.8197   -8.1560 C   0  0  0  0  0  0  0  0  0  0  0  0
   28.9113  -20.3288   -6.9755 C   0  0  0  0  0  0  0  0  0  0  0  0
   27.6314  -19.8138   -6.9644 C   0  0  0  0  0  0  0  0  0  0  0  0
   26.9174  -19.8125   -8.1304 C   0  0  0  0  0  0  0  0  0  0  0  0
   27.4017  -20.2977   -9.3246 C   0  0  0  0  0  0  0  0  0  0  0  0
   23.3377  -20.9368  -11.7170 C   0  0  0  0  0  0  0  0  0  0  0  0
   22.6379  -21.4085  -10.6187 O   0  0  0  0  0  0  0  0  0  0  0  0
   22.6473  -20.3899  -12.6235 O   0  0  0  0  0  0  0  0  0  0  0  0
  2  1  1  0
  3  4  1  6
  3  2  1  0
  5  3  1  0
  6  5  2  0
  8  7  1  0
  8 18  2  0
  9  8  1  0
 10  9  2  0
 10 11  1  0
 11 17  2  0
 12 11  1  0
 13 12  1  6
 13 14  1  0
 14  5  1  0
 15 19  1  0
 15 13  1  0
 16 15  2  0
 17 18  1  0
 20 21  1  1
 20 31  1  0
 20 19  1  0
 22 23  2  0
 22 21  1  0
 24 23  1  0
 25 30  2  0
 25 24  1  0
 26 25  1  0
 27 28  1  0
 27 26  2  0
 28 29  2  0
 29 30  1  0
 30 22  1  0
 31 32  1  0
 33 31  2  0
M  END
$$$$
