SYW.pdb
     RDKit          3D

 33 35  0  0  1  0  0  0  0  0999 V2000
   28.5101  -17.8227  -14.8786 O   0  0  0  0  0  0  0  0  0  0  0  0
   27.5762  -18.8314  -14.7082 C   0  0  0  0  0  0  0  0  0  0  0  0
   28.1058  -19.8117  -13.6874 C   0  0  2  0  0  0  0  0  0  0  0  0
   28.8943  -20.7826  -14.4650 N   0  0  0  0  0  0  0  0  0  0  0  0
   26.9719  -20.5404  -13.0964 C   0  0  0  0  0  0  0  0  0  0  0  0
   26.4884  -21.5114  -13.7295 O   0  0  0  0  0  0  0  0  0  0  0  0
   29.8539  -20.5858   -7.0152 O   0  0  0  0  0  0  0  0  0  0  0  0
   28.6427  -20.6212   -7.7302 C   0  0  0  0  0  0  0  0  0  0  0  0
   28.4581  -21.4659   -8.7991 C   0  0  0  0  0  0  0  0  0  0  0  0
   27.2663  -21.4870   -9.4874 C   0  0  0  0  0  0  0  0  0  0  0  0
   26.2110  -20.6628   -9.1328 C   0  0  0  0  0  0  0  0  0  0  0  0
   24.9851  -20.7610   -9.9292 C   0  0  0  0  0  0  0  0  0  0  0  0
   25.2147  -20.9132  -11.4162 C   0  0  2  0  0  0  0  0  0  0  0  0
   26.3734  -20.2320  -11.8508 N   0  0  0  0  0  0  0  0  0  0  0  0
   24.0535  -20.5849  -12.2335 C   0  0  0  0  0  0  0  0  0  0  0  0
   23.7800  -19.4197  -12.6482 O   0  0  0  0  0  0  0  0  0  0  0  0
   26.3763  -19.8117   -8.0672 C   0  0  0  0  0  0  0  0  0  0  0  0
   27.5734  -19.8115   -7.3999 C   0  0  0  0  0  0  0  0  0  0  0  0
   23.1333  -21.5936  -12.6232 N   0  0  0  0  0  0  0  0  0  0  0  0
   21.9060  -21.2792  -13.3601 C   0  0  1  0  0  0  0  0  0  0  0  0
   22.1474  -21.7909  -14.7510 C   0  0  0  0  0  0  0  0  0  0  0  0
   21.0824  -21.5536  -15.7321 C   0  0  0  0  0  0  0  0  0  0  0  0
   20.7806  -20.3409  -16.3589 C   0  0  0  0  0  0  0  0  0  0  0  0
   19.7336  -20.4664  -17.1729 N   0  0  0  0  0  0  0  0  0  0  0  0
   19.3132  -21.7395  -17.1168 C   0  0  0  0  0  0  0  0  0  0  0  0
   18.2914  -22.3954  -17.7633 C   0  0  0  0  0  0  0  0  0  0  0  0
   18.0518  -23.7350  -17.5599 C   0  0  0  0  0  0  0  0  0  0  0  0
   18.8600  -24.4312  -16.6849 C   0  0  0  0  0  0  0  0  0  0  0  0
   19.8692  -23.7599  -16.0525 C   0  0  0  0  0  0  0  0  0  0  0  0
   20.1304  -22.4205  -16.2371 C   0  0  0  0  0  0  0  0  0  0  0  0
   20.7144  -21.7834  -12.7222 C   0  0  0  0  0  0  0  0  0  0  0  0
   19.4743  -21.2181  -12.9694 O   0  0  0  0  0  0  0  0  0  0  0  0
   20.7325  -22.7516  -11.9100 O   0  0  0  0  0  0  0  0  0  0  0  0
  2  1  1  0
  3  4  1  6
  3  2  1  0
  5  3  1  0
  6  5  2  0
  8  7  1  0
  8 18  2  0
  9  8  1  0
 10  9  2  0
 10 11  1  0
 11 17  2  0
 12 11  1  0
 13 12  1  1
 13 14  1  0
 14  5  1  0
 15 19  1  0
 15 13  1  0
 16 15  2  0
 17 18  1  0
 20 21  1  6
 20 31  1  0
 20 19  1  0
 22 23  2  0
 22 21  1  0
 24 23  1  0
 25 30  2  0
 25 24  1  0
 26 25  1  0
 27 28  1  0
 27 26  2  0
 28 29  2  0
 29 30  1  0
 30 22  1  0
 31 32  1  0
 33 31  2  0
M  END
$$$$
