SYW.pdb
     RDKit          3D

 33 35  0  0  1  0  0  0  0  0999 V2000
   27.2109  -23.8634  -15.6703 O   0  0  0  0  0  0  0  0  0  0  0  0
   26.6964  -23.1993  -16.7716 C   0  0  0  0  0  0  0  0  0  0  0  0
   27.1340  -21.7541  -16.7111 C   0  0  2  0  0  0  0  0  0  0  0  0
   28.4794  -21.7382  -17.3100 N   0  0  0  0  0  0  0  0  0  0  0  0
   27.2773  -21.3603  -15.3002 C   0  0  0  0  0  0  0  0  0  0  0  0
   28.4332  -21.1859  -14.8414 O   0  0  0  0  0  0  0  0  0  0  0  0
   19.9530  -20.7176  -12.6213 O   0  0  0  0  0  0  0  0  0  0  0  0
   21.2996  -20.3416  -12.7797 C   0  0  0  0  0  0  0  0  0  0  0  0
   22.1369  -20.1796  -11.7013 C   0  0  0  0  0  0  0  0  0  0  0  0
   23.4516  -19.8110  -11.8750 C   0  0  0  0  0  0  0  0  0  0  0  0
   23.9810  -19.5899  -13.1358 C   0  0  0  0  0  0  0  0  0  0  0  0
   25.3913  -19.2006  -13.2134 C   0  0  0  0  0  0  0  0  0  0  0  0
   26.3605  -20.3610  -13.2483 C   0  0  2  0  0  0  0  0  0  0  0  0
   26.2000  -21.1570  -14.4043 N   0  0  0  0  0  0  0  0  0  0  0  0
   26.3692  -21.1649  -12.0327 C   0  0  0  0  0  0  0  0  0  0  0  0
   25.7997  -22.2906  -11.9183 O   0  0  0  0  0  0  0  0  0  0  0  0
   23.1597  -19.7469  -14.2258 C   0  0  0  0  0  0  0  0  0  0  0  0
   21.8550  -20.1145  -14.0239 C   0  0  0  0  0  0  0  0  0  0  0  0
   27.0434  -20.7107  -10.8685 N   0  0  0  0  0  0  0  0  0  0  0  0
   26.8494  -21.3483   -9.5631 C   0  0  1  0  0  0  0  0  0  0  0  0
   28.0904  -21.0209   -8.7839 C   0  0  0  0  0  0  0  0  0  0  0  0
   27.9283  -20.1152   -7.6408 C   0  0  0  0  0  0  0  0  0  0  0  0
   27.1567  -18.9500   -7.6025 C   0  0  0  0  0  0  0  0  0  0  0  0
   27.2533  -18.3465   -6.4189 N   0  0  0  0  0  0  0  0  0  0  0  0
   28.0740  -19.0746   -5.6464 C   0  0  0  0  0  0  0  0  0  0  0  0
   28.4961  -18.9079   -4.3478 C   0  0  0  0  0  0  0  0  0  0  0  0
   29.3420  -19.8092   -3.7432 C   0  0  0  0  0  0  0  0  0  0  0  0
   29.7735  -20.9044   -4.4628 C   0  0  0  0  0  0  0  0  0  0  0  0
   29.3424  -21.0504   -5.7520 C   0  0  0  0  0  0  0  0  0  0  0  0
   28.4971  -20.1639   -6.3810 C   0  0  0  0  0  0  0  0  0  0  0  0
   25.6111  -20.9732   -8.9252 C   0  0  0  0  0  0  0  0  0  0  0  0
   25.0479  -21.7595   -7.9337 O   0  0  0  0  0  0  0  0  0  0  0  0
   24.9755  -19.9247   -9.2318 O   0  0  0  0  0  0  0  0  0  0  0  0
  2  1  1  0
  3  4  1  6
  3  2  1  0
  5  3  1  0
  6  5  2  0
  8  7  1  0
  8 18  2  0
  9  8  1  0
 10  9  2  0
 10 11  1  0
 11 17  2  0
 12 11  1  0
 13 12  1  1
 13 14  1  0
 14  5  1  0
 15 19  1  0
 15 13  1  0
 16 15  2  0
 17 18  1  0
 20 21  1  1
 20 31  1  0
 20 19  1  0
 22 23  2  0
 22 21  1  0
 24 23  1  0
 25 30  2  0
 25 24  1  0
 26 25  1  0
 27 28  1  0
 27 26  2  0
 28 29  2  0
 29 30  1  0
 30 22  1  0
 31 32  1  0
 33 31  2  0
M  END
$$$$
