SYW.pdb
     RDKit          3D

 33 35  0  0  1  0  0  0  0  0999 V2000
   30.0798  -22.9219  -16.7450 O   0  0  0  0  0  0  0  0  0  0  0  0
   29.4615  -21.9526  -15.9724 C   0  0  0  0  0  0  0  0  0  0  0  0
   28.0189  -21.8369  -16.4072 C   0  0  2  0  0  0  0  0  0  0  0  0
   28.0147  -20.7841  -17.4371 N   0  0  0  0  0  0  0  0  0  0  0  0
   27.2196  -21.3447  -15.2736 C   0  0  0  0  0  0  0  0  0  0  0  0
   27.2086  -20.1110  -15.0393 O   0  0  0  0  0  0  0  0  0  0  0  0
   21.9739  -18.9381  -18.1075 O   0  0  0  0  0  0  0  0  0  0  0  0
   22.5103  -19.6767  -17.0368 C   0  0  0  0  0  0  0  0  0  0  0  0
   22.4474  -19.2217  -15.7409 C   0  0  0  0  0  0  0  0  0  0  0  0
   22.9778  -19.9576  -14.7057 C   0  0  0  0  0  0  0  0  0  0  0  0
   23.5927  -21.1790  -14.9265 C   0  0  0  0  0  0  0  0  0  0  0  0
   24.1257  -21.8837  -13.7578 C   0  0  0  0  0  0  0  0  0  0  0  0
   25.5786  -21.5900  -13.4580 C   0  0  2  0  0  0  0  0  0  0  0  0
   26.4479  -22.1625  -14.4131 N   0  0  0  0  0  0  0  0  0  0  0  0
   25.9813  -21.9132  -12.0950 C   0  0  0  0  0  0  0  0  0  0  0  0
   26.1860  -23.0895  -11.6720 O   0  0  0  0  0  0  0  0  0  0  0  0
   23.6652  -21.6504  -16.2148 C   0  0  0  0  0  0  0  0  0  0  0  0
   23.1289  -20.8971  -17.2263 C   0  0  0  0  0  0  0  0  0  0  0  0
   26.1733  -20.8862  -11.1336 N   0  0  0  0  0  0  0  0  0  0  0  0
   26.3341  -21.1814   -9.7070 C   0  0  1  0  0  0  0  0  0  0  0  0
   27.5407  -20.3951   -9.2822 C   0  0  0  0  0  0  0  0  0  0  0  0
   27.5558  -19.9130   -7.8963 C   0  0  0  0  0  0  0  0  0  0  0  0
   26.5645  -19.1552   -7.2658 C   0  0  0  0  0  0  0  0  0  0  0  0
   26.9071  -18.8603   -6.0127 N   0  0  0  0  0  0  0  0  0  0  0  0
   28.1115  -19.4010   -5.7724 C   0  0  0  0  0  0  0  0  0  0  0  0
   28.9039  -19.4080   -4.6480 C   0  0  0  0  0  0  0  0  0  0  0  0
   30.1181  -20.0551   -4.6255 C   0  0  0  0  0  0  0  0  0  0  0  0
   30.5449  -20.7108   -5.7618 C   0  0  0  0  0  0  0  0  0  0  0  0
   29.7422  -20.6907   -6.8684 C   0  0  0  0  0  0  0  0  0  0  0  0
   28.5239  -20.0509   -6.9182 C   0  0  0  0  0  0  0  0  0  0  0  0
   25.1403  -20.9320   -8.9364 C   0  0  0  0  0  0  0  0  0  0  0  0
   24.1787  -20.0359   -9.3732 O   0  0  0  0  0  0  0  0  0  0  0  0
   24.9080  -21.5034   -7.8333 O   0  0  0  0  0  0  0  0  0  0  0  0
  2  1  1  0
  3  4  1  6
  3  2  1  0
  5  3  1  0
  6  5  2  0
  8  7  1  0
  8 18  2  0
  9  8  1  0
 10  9  2  0
 10 11  1  0
 11 17  2  0
 12 11  1  0
 13 12  1  6
 13 14  1  0
 14  5  1  0
 15 19  1  0
 15 13  1  0
 16 15  2  0
 17 18  1  0
 20 21  1  1
 20 31  1  0
 20 19  1  0
 22 23  2  0
 22 21  1  0
 24 23  1  0
 25 30  2  0
 25 24  1  0
 26 25  1  0
 27 28  1  0
 27 26  2  0
 28 29  2  0
 29 30  1  0
 30 22  1  0
 31 32  1  0
 33 31  2  0
M  END
$$$$
