SYW.pdb
     RDKit          3D

 33 35  0  0  1  0  0  0  0  0999 V2000
   18.1749  -23.7376   11.7371 O   0  0  0  0  0  0  0  0  0  0  0  0
   18.4042  -23.1561   10.5010 C   0  0  0  0  0  0  0  0  0  0  0  0
   17.3914  -23.6966    9.5184 C   0  0  2  0  0  0  0  0  0  0  0  0
   17.8937  -25.0309    9.1490 N   0  0  0  0  0  0  0  0  0  0  0  0
   17.4186  -22.8660    8.3037 C   0  0  0  0  0  0  0  0  0  0  0  0
   17.7075  -23.4126    7.2105 O   0  0  0  0  0  0  0  0  0  0  0  0
   15.1687  -18.5836    1.2664 O   0  0  0  0  0  0  0  0  0  0  0  0
   15.3645  -19.2765    2.4752 C   0  0  0  0  0  0  0  0  0  0  0  0
   14.6837  -18.9389    3.6209 C   0  0  0  0  0  0  0  0  0  0  0  0
   14.8881  -19.6277    4.7949 C   0  0  0  0  0  0  0  0  0  0  0  0
   15.7827  -20.6828    4.8688 C   0  0  0  0  0  0  0  0  0  0  0  0
   15.9283  -21.3504    6.1648 C   0  0  0  0  0  0  0  0  0  0  0  0
   17.0328  -20.7942    7.0354 C   0  0  2  0  0  0  0  0  0  0  0  0
   17.1389  -21.4785    8.2667 N   0  0  0  0  0  0  0  0  0  0  0  0
   16.9733  -19.3498    7.2206 C   0  0  0  0  0  0  0  0  0  0  0  0
   16.2207  -18.7688    8.0575 O   0  0  0  0  0  0  0  0  0  0  0  0
   16.4724  -21.0350    3.7342 C   0  0  0  0  0  0  0  0  0  0  0  0
   16.2494  -20.3321    2.5790 C   0  0  0  0  0  0  0  0  0  0  0  0
   17.7881  -18.4855    6.4426 N   0  0  0  0  0  0  0  0  0  0  0  0
   17.7143  -17.0274    6.5722 C   0  0  1  0  0  0  0  0  0  0  0  0
   19.0223  -16.5240    6.0336 C   0  0  0  0  0  0  0  0  0  0  0  0
   19.1422  -15.0730    5.8503 C   0  0  0  0  0  0  0  0  0  0  0  0
   19.3679  -14.1217    6.8496 C   0  0  0  0  0  0  0  0  0  0  0  0
   19.3929  -12.8891    6.3451 N   0  0  0  0  0  0  0  0  0  0  0  0
   19.1898  -12.9771    5.0215 C   0  0  0  0  0  0  0  0  0  0  0  0
   19.1364  -12.0171    4.0378 C   0  0  0  0  0  0  0  0  0  0  0  0
   18.9303  -12.3476    2.7181 C   0  0  0  0  0  0  0  0  0  0  0  0
   18.7741  -13.6762    2.3803 C   0  0  0  0  0  0  0  0  0  0  0  0
   18.8300  -14.6139    3.3737 C   0  0  0  0  0  0  0  0  0  0  0  0
   19.0342  -14.3108    4.7013 C   0  0  0  0  0  0  0  0  0  0  0  0
   16.5406  -16.4602    5.9542 C   0  0  0  0  0  0  0  0  0  0  0  0
   16.1257  -16.8646    4.6961 O   0  0  0  0  0  0  0  0  0  0  0  0
   15.8363  -15.5721    6.5134 O   0  0  0  0  0  0  0  0  0  0  0  0
  2  1  1  0
  3  4  1  6
  3  2  1  0
  5  3  1  0
  6  5  2  0
  8  7  1  0
  8 18  2  0
  9  8  1  0
 10  9  2  0
 10 11  1  0
 11 17  2  0
 12 11  1  0
 13 12  1  1
 13 14  1  0
 14  5  1  0
 15 19  1  0
 15 13  1  0
 16 15  2  0
 17 18  1  0
 20 21  1  6
 20 31  1  0
 20 19  1  0
 22 23  2  0
 22 21  1  0
 24 23  1  0
 25 30  2  0
 25 24  1  0
 26 25  1  0
 27 28  1  0
 27 26  2  0
 28 29  2  0
 29 30  1  0
 30 22  1  0
 31 32  1  0
 33 31  2  0
M  END
$$$$
