KII.pdb
     RDKit          3D

 26 25  0  0  1  0  0  0  0  0999 V2000
   20.2626  -20.4250  -11.3440 N   0  0  0  0  0  0  0  0  0  0  0  0
   21.1228  -20.8027  -12.4887 C   0  0  1  0  0  0  0  0  0  0  0  0
   20.4993  -20.2552  -13.7313 C   0  0  0  0  0  0  0  0  0  0  0  0
   19.9038  -21.3376  -14.5632 C   0  0  0  0  0  0  0  0  0  0  0  0
   19.1751  -22.3507  -13.6891 C   0  0  0  0  0  0  0  0  0  0  0  0
   18.6104  -23.4533  -14.5365 C   0  0  0  0  0  0  0  0  0  0  0  0
   17.1922  -23.5844  -14.2869 N   0  0  0  0  0  0  0  0  0  0  0  0
   22.4500  -20.2353  -12.2199 C   0  0  0  0  0  0  0  0  0  0  0  0
   22.6453  -19.0075  -11.9914 O   0  0  0  0  0  0  0  0  0  0  0  0
   24.7269  -19.9795   -8.8500 C   0  0  0  0  0  0  0  0  0  0  0  0
   25.8984  -20.5137   -9.6457 C   0  0  0  0  0  0  0  0  0  0  0  0
   25.4107  -21.4325  -10.7700 C   0  0  2  0  0  0  0  0  0  0  0  0
   26.5987  -22.2747  -11.1455 C   0  0  0  0  0  0  0  0  0  0  0  0
   24.9255  -20.5149  -11.8734 C   0  0  2  0  0  0  0  0  0  0  0  0
   23.5874  -21.0539  -12.1994 N   0  0  0  0  0  0  0  0  0  0  0  0
   25.7575  -20.5536  -13.0735 C   0  0  0  0  0  0  0  0  0  0  0  0
   26.9650  -20.1947  -13.0705 O   0  0  0  0  0  0  0  0  0  0  0  0
   26.1193  -24.8576  -15.8209 C   0  0  0  0  0  0  0  0  0  0  0  0
   26.2871  -23.5011  -15.2184 C   0  0  0  0  0  0  0  0  0  0  0  0
   25.9963  -22.3695  -16.1506 C   0  0  2  0  0  0  0  0  0  0  0  0
   26.9040  -22.5290  -17.3611 C   0  0  0  0  0  0  0  0  0  0  0  0
   26.1369  -21.0177  -15.5238 C   0  0  2  0  0  0  0  0  0  0  0  0
   25.2685  -21.0001  -14.3371 N   0  0  0  0  0  0  0  0  0  0  0  0
   25.7883  -19.9147  -16.4438 C   0  0  0  0  0  0  0  0  0  0  0  0
   24.6116  -19.5991  -16.6964 O   0  0  0  0  0  0  0  0  0  0  0  0
   26.7985  -19.1765  -17.0718 O   0  0  0  0  0  0  0  0  0  0  0  0
  2  1  1  1
  3  2  1  0
  4  3  1  0
  5  4  1  0
  6  5  1  0
  7  6  1  0
  8  2  1  0
  8  9  2  0
 10 11  1  0
 11 12  1  0
 12 13  1  6
 14 15  1  6
 14 12  1  0
 15  8  1  0
 16 14  1  0
 17 16  2  0
 19 18  1  0
 19 20  1  0
 20 21  1  6
 22 20  1  0
 22 23  1  1
 23 16  1  0
 24 26  1  0
 24 22  1  0
 25 24  2  0
M  END
$$$$
