KII.pdb
     RDKit          3D

 26 25  0  0  1  0  0  0  0  0999 V2000
   28.7612  -22.0012  -17.9927 N   0  0  0  0  0  0  0  0  0  0  0  0
   28.3682  -22.7683  -16.7884 C   0  0  1  0  0  0  0  0  0  0  0  0
   29.4950  -23.6859  -16.4410 C   0  0  0  0  0  0  0  0  0  0  0  0
   29.5557  -24.8485  -17.3698 C   0  0  0  0  0  0  0  0  0  0  0  0
   28.1650  -25.4252  -17.6037 C   0  0  0  0  0  0  0  0  0  0  0  0
   28.2509  -26.6475  -18.4706 C   0  0  0  0  0  0  0  0  0  0  0  0
   29.2198  -27.5695  -17.9212 N   0  0  0  0  0  0  0  0  0  0  0  0
   28.0914  -21.7825  -15.7363 C   0  0  0  0  0  0  0  0  0  0  0  0
   28.8630  -21.5805  -14.7557 O   0  0  0  0  0  0  0  0  0  0  0  0
   27.8720  -18.3310  -17.3195 C   0  0  0  0  0  0  0  0  0  0  0  0
   27.4375  -18.0082  -15.9060 C   0  0  0  0  0  0  0  0  0  0  0  0
   26.1715  -18.7893  -15.5410 C   0  0  2  0  0  0  0  0  0  0  0  0
   25.3134  -17.8263  -14.7677 C   0  0  0  0  0  0  0  0  0  0  0  0
   26.6403  -19.9862  -14.7393 C   0  0  2  0  0  0  0  0  0  0  0  0
   26.9308  -20.9979  -15.7782 N   0  0  0  0  0  0  0  0  0  0  0  0
   25.6248  -20.5158  -13.8324 C   0  0  0  0  0  0  0  0  0  0  0  0
   24.7241  -21.3087  -14.2155 O   0  0  0  0  0  0  0  0  0  0  0  0
   26.7059  -20.1352   -8.4356 C   0  0  0  0  0  0  0  0  0  0  0  0
   26.2295  -20.7974   -9.6868 C   0  0  0  0  0  0  0  0  0  0  0  0
   24.8937  -20.3278  -10.1656 C   0  0  2  0  0  0  0  0  0  0  0  0
   23.8546  -20.8030   -9.1611 C   0  0  0  0  0  0  0  0  0  0  0  0
   24.5622  -20.7648  -11.5582 C   0  0  2  0  0  0  0  0  0  0  0  0
   25.5755  -20.1773  -12.4474 N   0  0  0  0  0  0  0  0  0  0  0  0
   23.2023  -20.3681  -11.9803 C   0  0  0  0  0  0  0  0  0  0  0  0
   22.2194  -21.1230  -11.8703 O   0  0  0  0  0  0  0  0  0  0  0  0
   22.9779  -19.1000  -12.5293 O   0  0  0  0  0  0  0  0  0  0  0  0
  2  1  1  6
  3  2  1  0
  4  3  1  0
  5  4  1  0
  6  5  1  0
  7  6  1  0
  8  2  1  0
  8  9  2  0
 10 11  1  0
 11 12  1  0
 12 13  1  1
 14 15  1  6
 14 12  1  0
 15  8  1  0
 16 14  1  0
 17 16  2  0
 19 18  1  0
 19 20  1  0
 20 21  1  1
 22 20  1  0
 22 23  1  6
 23 16  1  0
 24 26  1  0
 24 22  1  0
 25 24  2  0
M  END
$$$$
