KII.pdb
     RDKit          3D

 26 25  0  0  1  0  0  0  0  0999 V2000
   19.3453  -22.8068   -7.0243 N   0  0  0  0  0  0  0  0  0  0  0  0
   20.0800  -23.3269   -8.2002 C   0  0  1  0  0  0  0  0  0  0  0  0
   19.1539  -24.2179   -8.9624 C   0  0  0  0  0  0  0  0  0  0  0  0
   18.9181  -25.5004   -8.2428 C   0  0  0  0  0  0  0  0  0  0  0  0
   17.9320  -26.3746   -9.0075 C   0  0  0  0  0  0  0  0  0  0  0  0
   17.7108  -27.6663   -8.2759 C   0  0  0  0  0  0  0  0  0  0  0  0
   16.7801  -28.4922   -9.0125 N   0  0  0  0  0  0  0  0  0  0  0  0
   20.5111  -22.1569   -8.9752 C   0  0  0  0  0  0  0  0  0  0  0  0
   19.8395  -21.0886   -9.0486 O   0  0  0  0  0  0  0  0  0  0  0  0
   25.2791  -20.6738   -8.2692 C   0  0  0  0  0  0  0  0  0  0  0  0
   23.8300  -20.5865   -8.6972 C   0  0  0  0  0  0  0  0  0  0  0  0
   23.6802  -20.9754  -10.1711 C   0  0  2  0  0  0  0  0  0  0  0  0
   24.4349  -19.9280  -10.9424 C   0  0  0  0  0  0  0  0  0  0  0  0
   22.1903  -20.9958  -10.4445 C   0  0  2  0  0  0  0  0  0  0  0  0
   21.7213  -22.1731   -9.6820 N   0  0  0  0  0  0  0  0  0  0  0  0
   21.8576  -21.1810  -11.8548 C   0  0  0  0  0  0  0  0  0  0  0  0
   22.2316  -22.1895  -12.5105 O   0  0  0  0  0  0  0  0  0  0  0  0
   17.4283  -18.6026  -14.1973 C   0  0  0  0  0  0  0  0  0  0  0  0
   18.8679  -18.8571  -13.8907 C   0  0  0  0  0  0  0  0  0  0  0  0
   19.3356  -20.2385  -14.2177 C   0  0  2  0  0  0  0  0  0  0  0  0
   18.5163  -21.2092  -13.3803 C   0  0  0  0  0  0  0  0  0  0  0  0
   20.8059  -20.4411  -14.0250 C   0  0  2  0  0  0  0  0  0  0  0  0
   21.0857  -20.2374  -12.5957 N   0  0  0  0  0  0  0  0  0  0  0  0
   21.6280  -19.5343  -14.8536 C   0  0  0  0  0  0  0  0  0  0  0  0
   22.2967  -18.6042  -14.3680 O   0  0  0  0  0  0  0  0  0  0  0  0
   21.6777  -19.7017  -16.2426 O   0  0  0  0  0  0  0  0  0  0  0  0
  2  1  1  1
  3  2  1  0
  4  3  1  0
  5  4  1  0
  6  5  1  0
  7  6  1  0
  8  2  1  0
  8  9  2  0
 10 11  1  0
 11 12  1  0
 12 13  1  6
 14 15  1  1
 14 12  1  0
 15  8  1  0
 16 14  1  0
 17 16  2  0
 19 18  1  0
 19 20  1  0
 20 21  1  1
 22 20  1  0
 22 23  1  1
 23 16  1  0
 24 26  1  0
 24 22  1  0
 25 24  2  0
M  END
$$$$
