KII.pdb
     RDKit          3D

 26 25  0  0  1  0  0  0  0  0999 V2000
   26.2034  -21.4178  -13.8254 N   0  0  0  0  0  0  0  0  0  0  0  0
   25.5033  -20.4057  -13.0016 C   0  0  1  0  0  0  0  0  0  0  0  0
   24.1948  -20.1058  -13.6576 C   0  0  0  0  0  0  0  0  0  0  0  0
   24.3692  -19.8012  -15.1050 C   0  0  0  0  0  0  0  0  0  0  0  0
   24.0231  -21.0157  -15.9573 C   0  0  0  0  0  0  0  0  0  0  0  0
   24.0526  -20.6513  -17.4131 C   0  0  0  0  0  0  0  0  0  0  0  0
   23.7935  -21.8253  -18.2164 N   0  0  0  0  0  0  0  0  0  0  0  0
   25.3489  -20.9895  -11.6634 C   0  0  0  0  0  0  0  0  0  0  0  0
   25.1315  -22.2187  -11.4645 O   0  0  0  0  0  0  0  0  0  0  0  0
   27.3405  -19.7867   -6.0722 C   0  0  0  0  0  0  0  0  0  0  0  0
   26.3655  -20.5336   -6.9567 C   0  0  0  0  0  0  0  0  0  0  0  0
   26.3805  -19.9608   -8.3771 C   0  0  2  0  0  0  0  0  0  0  0  0
   26.0355  -18.5048   -8.2277 C   0  0  0  0  0  0  0  0  0  0  0  0
   25.3611  -20.7643   -9.1583 C   0  0  2  0  0  0  0  0  0  0  0  0
   25.4438  -20.1878  -10.5177 N   0  0  0  0  0  0  0  0  0  0  0  0
   23.9952  -20.6149   -8.6622 C   0  0  0  0  0  0  0  0  0  0  0  0
   23.3902  -19.5101   -8.6707 O   0  0  0  0  0  0  0  0  0  0  0  0
   19.9893  -21.6843  -10.9141 C   0  0  0  0  0  0  0  0  0  0  0  0
   20.9241  -21.1835   -9.8622 C   0  0  0  0  0  0  0  0  0  0  0  0
   20.9199  -21.9825   -8.5990 C   0  0  2  0  0  0  0  0  0  0  0  0
   19.4956  -21.9853   -8.0640 C   0  0  0  0  0  0  0  0  0  0  0  0
   21.8983  -21.4998   -7.5744 C   0  0  2  0  0  0  0  0  0  0  0  0
   23.2435  -21.7054   -8.1320 N   0  0  0  0  0  0  0  0  0  0  0  0
   21.7602  -22.1882   -6.2737 C   0  0  0  0  0  0  0  0  0  0  0  0
   22.3717  -23.2372   -6.0023 O   0  0  0  0  0  0  0  0  0  0  0  0
   20.9162  -21.6651   -5.2870 O   0  0  0  0  0  0  0  0  0  0  0  0
  2  1  1  6
  3  2  1  0
  4  3  1  0
  5  4  1  0
  6  5  1  0
  7  6  1  0
  8  2  1  0
  8  9  2  0
 10 11  1  0
 11 12  1  0
 12 13  1  1
 14 15  1  6
 14 12  1  0
 15  8  1  0
 16 14  1  0
 17 16  2  0
 19 18  1  0
 19 20  1  0
 20 21  1  1
 22 20  1  0
 22 23  1  6
 23 16  1  0
 24 26  1  0
 24 22  1  0
 25 24  2  0
M  END
$$$$
