KII.pdb
     RDKit          3D

 26 25  0  0  1  0  0  0  0  0999 V2000
   25.1472  -25.2471  -16.2371 N   0  0  0  0  0  0  0  0  0  0  0  0
   25.0846  -23.7712  -16.3409 C   0  0  1  0  0  0  0  0  0  0  0  0
   23.7924  -23.4121  -16.9995 C   0  0  0  0  0  0  0  0  0  0  0  0
   23.9832  -23.1173  -18.4468 C   0  0  0  0  0  0  0  0  0  0  0  0
   25.2063  -23.8464  -18.9891 C   0  0  0  0  0  0  0  0  0  0  0  0
   25.3896  -23.5360  -20.4461 C   0  0  0  0  0  0  0  0  0  0  0  0
   26.7827  -23.2576  -20.7152 N   0  0  0  0  0  0  0  0  0  0  0  0
   25.1902  -23.2507  -14.9722 C   0  0  0  0  0  0  0  0  0  0  0  0
   24.8317  -23.9055  -13.9522 O   0  0  0  0  0  0  0  0  0  0  0  0
   29.2816  -19.9726  -14.1731 C   0  0  0  0  0  0  0  0  0  0  0  0
   28.2030  -21.0072  -13.9338 C   0  0  0  0  0  0  0  0  0  0  0  0
   26.8882  -20.3308  -13.5340 C   0  0  2  0  0  0  0  0  0  0  0  0
   27.1936  -19.5715  -12.2724 C   0  0  0  0  0  0  0  0  0  0  0  0
   25.8834  -21.4508  -13.3577 C   0  0  2  0  0  0  0  0  0  0  0  0
   25.7122  -21.9725  -14.7310 N   0  0  0  0  0  0  0  0  0  0  0  0
   24.5875  -20.9994  -12.8569 C   0  0  0  0  0  0  0  0  0  0  0  0
   23.6970  -20.5293  -13.6137 O   0  0  0  0  0  0  0  0  0  0  0  0
   20.5475  -22.3905   -8.5399 C   0  0  0  0  0  0  0  0  0  0  0  0
   21.0252  -21.4087   -9.5593 C   0  0  0  0  0  0  0  0  0  0  0  0
   22.4296  -21.6294  -10.0207 C   0  0  2  0  0  0  0  0  0  0  0  0
   23.3165  -21.6680   -8.7851 C   0  0  0  0  0  0  0  0  0  0  0  0
   22.9056  -20.6179  -11.0159 C   0  0  2  0  0  0  0  0  0  0  0  0
   24.2314  -21.0567  -11.4765 N   0  0  0  0  0  0  0  0  0  0  0  0
   22.9705  -19.2487  -10.4628 C   0  0  0  0  0  0  0  0  0  0  0  0
   23.9808  -18.8054   -9.8876 O   0  0  0  0  0  0  0  0  0  0  0  0
   21.8690  -18.3920  -10.5740 O   0  0  0  0  0  0  0  0  0  0  0  0
  2  1  1  1
  3  2  1  0
  4  3  1  0
  5  4  1  0
  6  5  1  0
  7  6  1  0
  8  2  1  0
  8  9  2  0
 10 11  1  0
 11 12  1  0
 12 13  1  1
 14 15  1  6
 14 12  1  0
 15  8  1  0
 16 14  1  0
 17 16  2  0
 19 18  1  0
 19 20  1  0
 20 21  1  1
 22 20  1  0
 22 23  1  1
 23 16  1  0
 24 26  1  0
 24 22  1  0
 25 24  2  0
M  END
$$$$
