KII.pdb
     RDKit          3D

 26 25  0  0  1  0  0  0  0  0999 V2000
   26.3467  -21.5073  -12.8539 N   0  0  0  0  0  0  0  0  0  0  0  0
   25.6004  -20.4449  -12.1416 C   0  0  1  0  0  0  0  0  0  0  0  0
   24.4050  -20.0927  -12.9659 C   0  0  0  0  0  0  0  0  0  0  0  0
   24.6368  -20.3773  -14.4093 C   0  0  0  0  0  0  0  0  0  0  0  0
   24.5571  -19.0968  -15.2311 C   0  0  0  0  0  0  0  0  0  0  0  0
   24.7167  -19.4082  -16.6907 C   0  0  0  0  0  0  0  0  0  0  0  0
   23.4970  -19.9925  -17.2023 N   0  0  0  0  0  0  0  0  0  0  0  0
   25.2441  -20.9933  -10.8271 C   0  0  0  0  0  0  0  0  0  0  0  0
   24.9146  -22.2000  -10.6459 O   0  0  0  0  0  0  0  0  0  0  0  0
   28.1420  -19.2300   -6.9483 C   0  0  0  0  0  0  0  0  0  0  0  0
   27.2248  -20.0711   -7.8098 C   0  0  0  0  0  0  0  0  0  0  0  0
   25.7617  -19.8465   -7.4162 C   0  0  2  0  0  0  0  0  0  0  0  0
   25.6712  -20.2328   -5.9656 C   0  0  0  0  0  0  0  0  0  0  0  0
   24.9444  -20.7211   -8.3446 C   0  0  2  0  0  0  0  0  0  0  0  0
   25.2598  -20.1811   -9.6849 N   0  0  0  0  0  0  0  0  0  0  0  0
   23.5040  -20.6239   -8.1212 C   0  0  0  0  0  0  0  0  0  0  0  0
   22.8615  -19.5568   -8.3088 O   0  0  0  0  0  0  0  0  0  0  0  0
   18.3087  -23.2900   -9.1298 C   0  0  0  0  0  0  0  0  0  0  0  0
   19.0648  -22.4702   -8.1361 C   0  0  0  0  0  0  0  0  0  0  0  0
   20.5465  -22.4699   -8.3333 C   0  0  2  0  0  0  0  0  0  0  0  0
   21.0226  -23.9109   -8.2264 C   0  0  0  0  0  0  0  0  0  0  0  0
   21.2822  -21.5694   -7.3911 C   0  0  2  0  0  0  0  0  0  0  0  0
   22.7164  -21.7268   -7.6754 N   0  0  0  0  0  0  0  0  0  0  0  0
   20.9952  -21.8602   -5.9706 C   0  0  0  0  0  0  0  0  0  0  0  0
   19.8826  -21.6499   -5.4549 O   0  0  0  0  0  0  0  0  0  0  0  0
   21.9929  -22.3937   -5.1462 O   0  0  0  0  0  0  0  0  0  0  0  0
  2  1  1  6
  3  2  1  0
  4  3  1  0
  5  4  1  0
  6  5  1  0
  7  6  1  0
  8  2  1  0
  8  9  2  0
 10 11  1  0
 11 12  1  0
 12 13  1  1
 14 15  1  6
 14 12  1  0
 15  8  1  0
 16 14  1  0
 17 16  2  0
 19 18  1  0
 19 20  1  0
 20 21  1  1
 22 20  1  0
 22 23  1  1
 23 16  1  0
 24 26  1  0
 24 22  1  0
 25 24  2  0
M  END
$$$$
