KII.pdb
     RDKit          3D

 26 25  0  0  1  0  0  0  0  0999 V2000
   27.9665  -21.0482  -15.5769 N   0  0  0  0  0  0  0  0  0  0  0  0
   27.4341  -20.1349  -14.5399 C   0  0  1  0  0  0  0  0  0  0  0  0
   26.8533  -18.9446  -15.2313 C   0  0  0  0  0  0  0  0  0  0  0  0
   27.8865  -18.2143  -16.0171 C   0  0  0  0  0  0  0  0  0  0  0  0
   28.7255  -19.1853  -16.8385 C   0  0  0  0  0  0  0  0  0  0  0  0
   29.6421  -18.4291  -17.7555 C   0  0  0  0  0  0  0  0  0  0  0  0
   30.9984  -18.9025  -17.5904 N   0  0  0  0  0  0  0  0  0  0  0  0
   26.4338  -20.8985  -13.7836 C   0  0  0  0  0  0  0  0  0  0  0  0
   25.6789  -21.7643  -14.3110 O   0  0  0  0  0  0  0  0  0  0  0  0
   25.6358  -19.4586   -8.4067 C   0  0  0  0  0  0  0  0  0  0  0  0
   25.3213  -19.7518   -9.8579 C   0  0  0  0  0  0  0  0  0  0  0  0
   25.6583  -21.2067  -10.1979 C   0  0  2  0  0  0  0  0  0  0  0  0
   27.1394  -21.3398   -9.9739 C   0  0  0  0  0  0  0  0  0  0  0  0
   25.2266  -21.4064  -11.6362 C   0  0  2  0  0  0  0  0  0  0  0  0
   26.2723  -20.6982  -12.4059 N   0  0  0  0  0  0  0  0  0  0  0  0
   23.9277  -20.8131  -11.9440 C   0  0  0  0  0  0  0  0  0  0  0  0
   23.6950  -19.5835  -11.7995 O   0  0  0  0  0  0  0  0  0  0  0  0
   21.7027  -21.2089  -16.5178 C   0  0  0  0  0  0  0  0  0  0  0  0
   22.0430  -20.7873  -15.1258 C   0  0  0  0  0  0  0  0  0  0  0  0
   21.1182  -21.3137  -14.0761 C   0  0  2  0  0  0  0  0  0  0  0  0
   19.7187  -20.8185  -14.4091 C   0  0  0  0  0  0  0  0  0  0  0  0
   21.5189  -20.9522  -12.6801 C   0  0  2  0  0  0  0  0  0  0  0  0
   22.8262  -21.5779  -12.4308 N   0  0  0  0  0  0  0  0  0  0  0  0
   20.5321  -21.3799  -11.6662 C   0  0  0  0  0  0  0  0  0  0  0  0
   19.4972  -20.7332  -11.4235 O   0  0  0  0  0  0  0  0  0  0  0  0
   20.7406  -22.5540  -10.9330 O   0  0  0  0  0  0  0  0  0  0  0  0
  2  1  1  6
  3  2  1  0
  4  3  1  0
  5  4  1  0
  6  5  1  0
  7  6  1  0
  8  2  1  0
  8  9  2  0
 10 11  1  0
 11 12  1  0
 12 13  1  6
 14 15  1  6
 14 12  1  0
 15  8  1  0
 16 14  1  0
 17 16  2  0
 19 18  1  0
 19 20  1  0
 20 21  1  6
 22 20  1  0
 22 23  1  1
 23 16  1  0
 24 26  1  0
 24 22  1  0
 25 24  2  0
M  END
$$$$
