KII.pdb
     RDKit          3D

 26 25  0  0  1  0  0  0  0  0999 V2000
   23.2733  -21.6321  -15.8604 N   0  0  0  0  0  0  0  0  0  0  0  0
   23.8811  -20.6122  -14.9752 C   0  0  1  0  0  0  0  0  0  0  0  0
   22.7758  -19.9221  -14.2441 C   0  0  0  0  0  0  0  0  0  0  0  0
   21.9617  -19.0770  -15.1614 C   0  0  0  0  0  0  0  0  0  0  0  0
   20.9812  -19.9319  -15.9546 C   0  0  0  0  0  0  0  0  0  0  0  0
   20.1244  -19.0615  -16.8270 C   0  0  0  0  0  0  0  0  0  0  0  0
   19.1010  -19.8619  -17.4617 N   0  0  0  0  0  0  0  0  0  0  0  0
   24.7967  -21.3286  -14.0786 C   0  0  0  0  0  0  0  0  0  0  0  0
   24.6759  -22.5559  -13.8012 O   0  0  0  0  0  0  0  0  0  0  0  0
   30.4883  -21.1685  -12.0699 C   0  0  0  0  0  0  0  0  0  0  0  0
   29.0580  -21.6176  -11.8612 C   0  0  0  0  0  0  0  0  0  0  0  0
   28.1256  -20.9241  -12.8591 C   0  0  2  0  0  0  0  0  0  0  0  0
   28.4131  -19.4542  -12.7241 C   0  0  0  0  0  0  0  0  0  0  0  0
   26.7200  -21.3221  -12.4577 C   0  0  2  0  0  0  0  0  0  0  0  0
   25.8763  -20.6653  -13.4796 N   0  0  0  0  0  0  0  0  0  0  0  0
   26.3300  -20.8355  -11.1367 C   0  0  0  0  0  0  0  0  0  0  0  0
   25.9476  -19.6518  -10.9383 O   0  0  0  0  0  0  0  0  0  0  0  0
   28.8406  -19.6184   -7.2470 C   0  0  0  0  0  0  0  0  0  0  0  0
   27.9521  -20.6566   -7.8503 C   0  0  0  0  0  0  0  0  0  0  0  0
   26.5484  -20.2045   -8.0935 C   0  0  2  0  0  0  0  0  0  0  0  0
   25.9814  -19.7357   -6.7618 C   0  0  0  0  0  0  0  0  0  0  0  0
   25.6805  -21.2425   -8.7334 C   0  0  2  0  0  0  0  0  0  0  0  0
   26.3514  -21.6610   -9.9733 N   0  0  0  0  0  0  0  0  0  0  0  0
   24.3129  -20.7586   -9.0161 C   0  0  0  0  0  0  0  0  0  0  0  0
   24.0887  -19.6591   -9.5536 O   0  0  0  0  0  0  0  0  0  0  0  0
   23.2046  -21.5442   -8.6780 O   0  0  0  0  0  0  0  0  0  0  0  0
  2  1  1  6
  3  2  1  0
  4  3  1  0
  5  4  1  0
  6  5  1  0
  7  6  1  0
  8  2  1  0
  8  9  2  0
 10 11  1  0
 11 12  1  0
 12 13  1  1
 14 15  1  6
 14 12  1  0
 15  8  1  0
 16 14  1  0
 17 16  2  0
 19 18  1  0
 19 20  1  0
 20 21  1  1
 22 20  1  0
 22 23  1  6
 23 16  1  0
 24 26  1  0
 24 22  1  0
 25 24  2  0
M  END
$$$$
