KII.pdb
     RDKit          3D

 26 25  0  0  1  0  0  0  0  0999 V2000
   12.0348  -21.7625    0.0486 N   0  0  0  0  0  0  0  0  0  0  0  0
   13.3481  -21.8921    0.7205 C   0  0  1  0  0  0  0  0  0  0  0  0
   14.4085  -21.8376   -0.3307 C   0  0  0  0  0  0  0  0  0  0  0  0
   14.3622  -23.0370   -1.2125 C   0  0  0  0  0  0  0  0  0  0  0  0
   15.5110  -23.0155   -2.2130 C   0  0  0  0  0  0  0  0  0  0  0  0
   15.4349  -24.2137   -3.1137 C   0  0  0  0  0  0  0  0  0  0  0  0
   16.4834  -24.1461   -4.1072 N   0  0  0  0  0  0  0  0  0  0  0  0
   13.4389  -20.7836    1.6789 C   0  0  0  0  0  0  0  0  0  0  0  0
   12.7036  -19.7570    1.6227 O   0  0  0  0  0  0  0  0  0  0  0  0
   12.1919  -21.4650    6.3803 C   0  0  0  0  0  0  0  0  0  0  0  0
   12.5883  -20.7037    5.1336 C   0  0  0  0  0  0  0  0  0  0  0  0
   14.1115  -20.5664    5.0489 C   0  0  2  0  0  0  0  0  0  0  0  0
   14.5231  -19.8625    6.3125 C   0  0  0  0  0  0  0  0  0  0  0  0
   14.3866  -19.7819    3.7825 C   0  0  2  0  0  0  0  0  0  0  0  0
   14.3664  -20.8199    2.7291 N   0  0  0  0  0  0  0  0  0  0  0  0
   15.6908  -19.1239    3.7747 C   0  0  0  0  0  0  0  0  0  0  0  0
   16.7722  -19.7675    3.7180 O   0  0  0  0  0  0  0  0  0  0  0  0
   18.3840  -13.9820    1.9221 C   0  0  0  0  0  0  0  0  0  0  0  0
   18.4351  -15.2031    2.7808 C   0  0  0  0  0  0  0  0  0  0  0  0
   17.1353  -15.9315    2.8992 C   0  0  2  0  0  0  0  0  0  0  0  0
   16.0729  -14.9122    3.2827 C   0  0  0  0  0  0  0  0  0  0  0  0
   17.1719  -17.0834    3.8541 C   0  0  2  0  0  0  0  0  0  0  0  0
   15.8398  -17.7061    3.8299 N   0  0  0  0  0  0  0  0  0  0  0  0
   17.5375  -16.6831    5.2291 C   0  0  0  0  0  0  0  0  0  0  0  0
   16.6943  -16.3148    6.0667 O   0  0  0  0  0  0  0  0  0  0  0  0
   18.8765  -16.7081    5.6366 O   0  0  0  0  0  0  0  0  0  0  0  0
  2  1  1  6
  3  2  1  0
  4  3  1  0
  5  4  1  0
  6  5  1  0
  7  6  1  0
  8  2  1  0
  8  9  2  0
 10 11  1  0
 11 12  1  0
 12 13  1  1
 14 15  1  6
 14 12  1  0
 15  8  1  0
 16 14  1  0
 17 16  2  0
 19 18  1  0
 19 20  1  0
 20 21  1  1
 22 20  1  0
 22 23  1  1
 23 16  1  0
 24 26  1  0
 24 22  1  0
 25 24  2  0
M  END
$$$$
