KII.pdb
     RDKit          3D

 26 25  0  0  1  0  0  0  0  0999 V2000
   20.4512  -14.6155  -19.9208 N   0  0  0  0  0  0  0  0  0  0  0  0
   19.4119  -13.9844  -19.0755 C   0  0  1  0  0  0  0  0  0  0  0  0
   19.2435  -14.8248  -17.8516 C   0  0  0  0  0  0  0  0  0  0  0  0
   18.6467  -16.1494  -18.1794 C   0  0  0  0  0  0  0  0  0  0  0  0
   18.4092  -16.9623  -16.9129 C   0  0  0  0  0  0  0  0  0  0  0  0
   17.8977  -18.3291  -17.2639 C   0  0  0  0  0  0  0  0  0  0  0  0
   17.7865  -19.1319  -16.0664 N   0  0  0  0  0  0  0  0  0  0  0  0
   19.8849  -12.6276  -18.7739 C   0  0  0  0  0  0  0  0  0  0  0  0
   21.1065  -12.3030  -18.7768 O   0  0  0  0  0  0  0  0  0  0  0  0
   16.9293   -9.9629  -20.8026 C   0  0  0  0  0  0  0  0  0  0  0  0
   18.2100   -9.3783  -20.2468 C   0  0  0  0  0  0  0  0  0  0  0  0
   18.1936   -9.4061  -18.7154 C   0  0  2  0  0  0  0  0  0  0  0  0
   18.2223   -7.9650  -18.2864 C   0  0  0  0  0  0  0  0  0  0  0  0
   19.4148  -10.2020  -18.3028 C   0  0  2  0  0  0  0  0  0  0  0  0
   18.9769  -11.6051  -18.4667 N   0  0  0  0  0  0  0  0  0  0  0  0
   19.8093   -9.9878  -16.9126 C   0  0  0  0  0  0  0  0  0  0  0  0
   19.0742  -10.3152  -15.9434 O   0  0  0  0  0  0  0  0  0  0  0  0
   24.0370  -11.8400  -14.8393 C   0  0  0  0  0  0  0  0  0  0  0  0
   22.7049  -11.2013  -15.0604 C   0  0  0  0  0  0  0  0  0  0  0  0
   22.6813   -9.7242  -14.8335 C   0  0  2  0  0  0  0  0  0  0  0  0
   23.1067   -9.4756  -13.3940 C   0  0  0  0  0  0  0  0  0  0  0  0
   21.3636   -9.0854  -15.1425 C   0  0  2  0  0  0  0  0  0  0  0  0
   21.0536   -9.3936  -16.5467 N   0  0  0  0  0  0  0  0  0  0  0  0
   21.3613   -7.6250  -14.9146 C   0  0  0  0  0  0  0  0  0  0  0  0
   20.9972   -7.1150  -13.8397 O   0  0  0  0  0  0  0  0  0  0  0  0
   21.7796   -6.7541  -15.9276 O   0  0  0  0  0  0  0  0  0  0  0  0
  2  1  1  6
  3  2  1  0
  4  3  1  0
  5  4  1  0
  6  5  1  0
  7  6  1  0
  8  2  1  0
  8  9  2  0
 10 11  1  0
 11 12  1  0
 12 13  1  1
 14 15  1  1
 14 12  1  0
 15  8  1  0
 16 14  1  0
 17 16  2  0
 19 18  1  0
 19 20  1  0
 20 21  1  1
 22 20  1  0
 22 23  1  6
 23 16  1  0
 24 26  1  0
 24 22  1  0
 25 24  2  0
M  END
$$$$
