HLG.pdb
     RDKit          3D

 23 23  0  0  1  0  0  0  0  0999 V2000
   22.9481  -14.4511  -18.2412 N   0  0  0  0  0  0  0  0  0  0  0  0
   22.4999  -13.0777  -18.3239 C   0  0  1  0  0  0  0  0  0  0  0  0
   21.0314  -13.0782  -18.6254 C   0  0  0  0  0  0  0  0  0  0  0  0
   20.8472  -13.7155  -19.9565 C   0  0  0  0  0  0  0  0  0  0  0  0
   20.3056  -14.9547  -20.2237 C   0  0  0  0  0  0  0  0  0  0  0  0
   20.3106  -15.1762  -21.5615 N   0  0  0  0  0  0  0  0  0  0  0  0
   20.8509  -14.0854  -22.1336 C   0  0  0  0  0  0  0  0  0  0  0  0
   21.1756  -13.2010  -21.1594 N   0  0  0  0  0  0  0  0  0  0  0  0
   22.8310  -12.3200  -17.0865 C   0  0  0  0  0  0  0  0  0  0  0  0
   22.4996  -12.7369  -15.9475 O   0  0  0  0  0  0  0  0  0  0  0  0
   26.6440  -11.9187  -15.0479 C   0  0  0  0  0  0  0  0  0  0  0  0
   26.4630  -10.9269  -16.1450 C   0  0  2  0  0  0  0  0  0  0  0  0
   27.7809  -10.1412  -16.2606 C   0  0  0  0  0  0  0  0  0  0  0  0
   25.3968   -9.9158  -15.9568 C   0  0  0  0  0  0  0  0  0  0  0  0
   23.9876  -10.3676  -15.9916 C   0  0  2  0  0  0  0  0  0  0  0  0
   23.5426  -11.0805  -17.1338 N   0  0  0  0  0  0  0  0  0  0  0  0
   23.0870   -9.2421  -15.6763 C   0  0  0  0  0  0  0  0  0  0  0  0
   23.1770   -8.5339  -14.6515 O   0  0  0  0  0  0  0  0  0  0  0  0
   22.0429   -8.9316  -16.5906 N   0  0  0  0  0  0  0  0  0  0  0  0
   21.1142   -7.8489  -16.3293 C   0  0  0  0  0  0  0  0  0  0  0  0
   21.5960   -6.5741  -16.8890 C   0  0  0  0  0  0  0  0  0  0  0  0
   21.3437   -6.3083  -18.2270 O   0  0  0  0  0  0  0  0  0  0  0  0
   22.2133   -5.7812  -16.1371 O   0  0  0  0  0  0  0  0  0  0  0  0
  2  3  1  0
  2  9  1  0
  2  1  1  1
  4  5  2  0
  4  3  1  0
  6  5  1  0
  7  8  2  0
  7  6  1  0
  8  4  1  0
  9 10  2  0
 12 11  1  1
 12 13  1  0
 14 12  1  0
 15 14  1  6
 15 17  1  0
 16 15  1  0
 16  9  1  0
 17 18  2  0
 19 17  1  0
 19 20  1  0
 21 20  1  0
 21 22  1  0
 23 21  2  0
M  END
$$$$
