HLG.pdb
     RDKit          3D

 23 23  0  0  1  0  0  0  0  0999 V2000
   20.2240   -5.3141  -15.2274 N   0  0  0  0  0  0  0  0  0  0  0  0
   21.4448   -5.3958  -16.0001 C   0  0  1  0  0  0  0  0  0  0  0  0
   22.4888   -4.5604  -15.3222 C   0  0  0  0  0  0  0  0  0  0  0  0
   21.9791   -3.1644  -15.2658 C   0  0  0  0  0  0  0  0  0  0  0  0
   21.9691   -2.2351  -16.2839 C   0  0  0  0  0  0  0  0  0  0  0  0
   21.4220   -1.0767  -15.8392 N   0  0  0  0  0  0  0  0  0  0  0  0
   21.0896   -1.2738  -14.5509 C   0  0  0  0  0  0  0  0  0  0  0  0
   21.4279   -2.5397  -14.2049 N   0  0  0  0  0  0  0  0  0  0  0  0
   21.8757   -6.8072  -16.1926 C   0  0  0  0  0  0  0  0  0  0  0  0
   22.9170   -7.0989  -16.8341 O   0  0  0  0  0  0  0  0  0  0  0  0
   24.4326   -9.5885  -14.3606 C   0  0  0  0  0  0  0  0  0  0  0  0
   23.0639   -9.4094  -13.7995 C   0  0  2  0  0  0  0  0  0  0  0  0
   23.0425  -10.1202  -12.4351 C   0  0  0  0  0  0  0  0  0  0  0  0
   21.9453   -9.9860  -14.5810 C   0  0  0  0  0  0  0  0  0  0  0  0
   21.4891   -9.2642  -15.7903 C   0  0  2  0  0  0  0  0  0  0  0  0
   21.1253   -7.9002  -15.6567 N   0  0  0  0  0  0  0  0  0  0  0  0
   20.4342  -10.0372  -16.4736 C   0  0  0  0  0  0  0  0  0  0  0  0
   20.4716  -11.2723  -16.6549 O   0  0  0  0  0  0  0  0  0  0  0  0
   19.2936   -9.3432  -16.9634 N   0  0  0  0  0  0  0  0  0  0  0  0
   18.2740  -10.0266  -17.7355 C   0  0  0  0  0  0  0  0  0  0  0  0
   18.4759   -9.8430  -19.1833 C   0  0  0  0  0  0  0  0  0  0  0  0
   19.4615  -10.5932  -19.8083 O   0  0  0  0  0  0  0  0  0  0  0  0
   17.7518   -9.0189  -19.7927 O   0  0  0  0  0  0  0  0  0  0  0  0
  2  3  1  0
  2  9  1  0
  2  1  1  1
  4  5  2  0
  4  3  1  0
  6  5  1  0
  7  8  2  0
  7  6  1  0
  8  4  1  0
  9 10  2  0
 12 11  1  6
 12 13  1  0
 14 12  1  0
 15 14  1  1
 15 17  1  0
 16 15  1  0
 16  9  1  0
 17 18  2  0
 19 17  1  0
 19 20  1  0
 21 20  1  0
 21 22  1  0
 23 21  2  0
M  END
$$$$
