HLG.pdb
     RDKit          3D

 23 23  0  0  1  0  0  0  0  0999 V2000
   22.9818  -29.0330  -19.8196 N   0  0  0  0  0  0  0  0  0  0  0  0
   23.8302  -28.4813  -18.7852 C   0  0  1  0  0  0  0  0  0  0  0  0
   23.0096  -28.3139  -17.5418 C   0  0  0  0  0  0  0  0  0  0  0  0
   22.0084  -27.2463  -17.8056 C   0  0  0  0  0  0  0  0  0  0  0  0
   22.2373  -25.8907  -17.9076 C   0  0  0  0  0  0  0  0  0  0  0  0
   21.0691  -25.2478  -18.1543 N   0  0  0  0  0  0  0  0  0  0  0  0
   20.1110  -26.1904  -18.2074 C   0  0  0  0  0  0  0  0  0  0  0  0
   20.6820  -27.4010  -17.9959 N   0  0  0  0  0  0  0  0  0  0  0  0
   25.0393  -29.3206  -18.5656 C   0  0  0  0  0  0  0  0  0  0  0  0
   24.9586  -30.5629  -18.3888 O   0  0  0  0  0  0  0  0  0  0  0  0
   31.3508  -28.9483  -18.8920 C   0  0  0  0  0  0  0  0  0  0  0  0
   30.0609  -29.6718  -18.7105 C   0  0  2  0  0  0  0  0  0  0  0  0
   29.9243  -30.6474  -19.8924 C   0  0  0  0  0  0  0  0  0  0  0  0
   28.8306  -28.8467  -18.7142 C   0  0  0  0  0  0  0  0  0  0  0  0
   27.5456  -29.5018  -18.3810 C   0  0  2  0  0  0  0  0  0  0  0  0
   26.3521  -28.7539  -18.5452 N   0  0  0  0  0  0  0  0  0  0  0  0
   27.6194  -30.1077  -17.0376 C   0  0  0  0  0  0  0  0  0  0  0  0
   27.5338  -29.4655  -15.9698 O   0  0  0  0  0  0  0  0  0  0  0  0
   27.7996  -31.5148  -16.9366 N   0  0  0  0  0  0  0  0  0  0  0  0
   27.9431  -32.1620  -15.6469 C   0  0  0  0  0  0  0  0  0  0  0  0
   28.1072  -33.6195  -15.7867 C   0  0  0  0  0  0  0  0  0  0  0  0
   28.3336  -34.3669  -14.6401 O   0  0  0  0  0  0  0  0  0  0  0  0
   28.0361  -34.1264  -16.9326 O   0  0  0  0  0  0  0  0  0  0  0  0
  2  3  1  0
  2  9  1  0
  2  1  1  6
  4  5  2  0
  4  3  1  0
  6  5  1  0
  7  8  2  0
  7  6  1  0
  8  4  1  0
  9 10  2  0
 12 11  1  6
 12 13  1  0
 14 12  1  0
 15 14  1  1
 15 17  1  0
 16 15  1  0
 16  9  1  0
 17 18  2  0
 19 17  1  0
 19 20  1  0
 21 20  1  0
 21 22  1  0
 23 21  2  0
M  END
$$$$
