HLG.pdb
     RDKit          3D

 23 23  0  0  1  0  0  0  0  0999 V2000
   25.7740  -21.3544  -13.5683 N   0  0  0  0  0  0  0  0  0  0  0  0
   25.0147  -20.5023  -12.6786 C   0  0  1  0  0  0  0  0  0  0  0  0
   23.6332  -20.3467  -13.2397 C   0  0  0  0  0  0  0  0  0  0  0  0
   23.7506  -19.5974  -14.5190 C   0  0  0  0  0  0  0  0  0  0  0  0
   24.8912  -19.0511  -15.0677 C   0  0  0  0  0  0  0  0  0  0  0  0
   24.5882  -18.4473  -16.2434 N   0  0  0  0  0  0  0  0  0  0  0  0
   23.2670  -18.6114  -16.4349 C   0  0  0  0  0  0  0  0  0  0  0  0
   22.7609  -19.3087  -15.3888 N   0  0  0  0  0  0  0  0  0  0  0  0
   25.0124  -21.0301  -11.2871 C   0  0  0  0  0  0  0  0  0  0  0  0
   24.9151  -22.2605  -11.0470 O   0  0  0  0  0  0  0  0  0  0  0  0
   27.7778  -21.0620   -7.5110 C   0  0  0  0  0  0  0  0  0  0  0  0
   27.0569  -19.7853   -7.7765 C   0  0  2  0  0  0  0  0  0  0  0  0
   27.4813  -18.7944   -6.6786 C   0  0  0  0  0  0  0  0  0  0  0  0
   25.5770  -19.8372   -7.7336 C   0  0  0  0  0  0  0  0  0  0  0  0
   24.8686  -20.5557   -8.8168 C   0  0  2  0  0  0  0  0  0  0  0  0
   25.1207  -20.1624  -10.1557 N   0  0  0  0  0  0  0  0  0  0  0  0
   23.4213  -20.5997   -8.5332 C   0  0  0  0  0  0  0  0  0  0  0  0
   22.5976  -19.7543   -8.9417 O   0  0  0  0  0  0  0  0  0  0  0  0
   22.9165  -21.6695   -7.7438 N   0  0  0  0  0  0  0  0  0  0  0  0
   21.5164  -21.7312   -7.3712 C   0  0  0  0  0  0  0  0  0  0  0  0
   21.2271  -22.9151   -6.5434 C   0  0  0  0  0  0  0  0  0  0  0  0
   19.9549  -23.0440   -6.0052 O   0  0  0  0  0  0  0  0  0  0  0  0
   22.1385  -23.7576   -6.3578 O   0  0  0  0  0  0  0  0  0  0  0  0
  2  3  1  0
  2  9  1  0
  2  1  1  6
  4  5  2  0
  4  3  1  0
  6  5  1  0
  7  8  2  0
  7  6  1  0
  8  4  1  0
  9 10  2  0
 12 11  1  1
 12 13  1  0
 14 12  1  0
 15 14  1  1
 15 17  1  0
 16 15  1  0
 16  9  1  0
 17 18  2  0
 19 17  1  0
 19 20  1  0
 21 20  1  0
 21 22  1  0
 23 21  2  0
M  END
$$$$
