HLG.pdb
     RDKit          3D

 23 23  0  0  1  0  0  0  0  0999 V2000
   20.7107  -12.4899  -18.4054 N   0  0  0  0  0  0  0  0  0  0  0  0
   21.1769  -11.1645  -18.7517 C   0  0  1  0  0  0  0  0  0  0  0  0
   20.1795  -10.5417  -19.6816 C   0  0  0  0  0  0  0  0  0  0  0  0
   20.2211  -11.3026  -20.9588 C   0  0  0  0  0  0  0  0  0  0  0  0
   20.9535  -11.0037  -22.0878 C   0  0  0  0  0  0  0  0  0  0  0  0
   20.7225  -11.9386  -23.0425 N   0  0  0  0  0  0  0  0  0  0  0  0
   19.8513  -12.8201  -22.5199 C   0  0  0  0  0  0  0  0  0  0  0  0
   19.5485  -12.4332  -21.2569 N   0  0  0  0  0  0  0  0  0  0  0  0
   21.4238  -10.3384  -17.5387 C   0  0  0  0  0  0  0  0  0  0  0  0
   20.6473  -10.3670  -16.5502 O   0  0  0  0  0  0  0  0  0  0  0  0
   23.9925  -10.8786  -14.1122 C   0  0  0  0  0  0  0  0  0  0  0  0
   24.6722  -10.3121  -15.3111 C   0  0  2  0  0  0  0  0  0  0  0  0
   26.1731  -10.2365  -14.9812 C   0  0  0  0  0  0  0  0  0  0  0  0
   24.2712   -8.9453  -15.7177 C   0  0  0  0  0  0  0  0  0  0  0  0
   22.9131   -8.7485  -16.2728 C   0  0  2  0  0  0  0  0  0  0  0  0
   22.5569   -9.4718  -17.4394 N   0  0  0  0  0  0  0  0  0  0  0  0
   22.6329   -7.3081  -16.4273 C   0  0  0  0  0  0  0  0  0  0  0  0
   23.2181   -6.5598  -17.2383 O   0  0  0  0  0  0  0  0  0  0  0  0
   21.6330   -6.7191  -15.6052 N   0  0  0  0  0  0  0  0  0  0  0  0
   21.2476   -5.3310  -15.7706 C   0  0  0  0  0  0  0  0  0  0  0  0
   20.1709   -4.9522  -14.8391 C   0  0  0  0  0  0  0  0  0  0  0  0
   19.7758   -3.6230  -14.7990 O   0  0  0  0  0  0  0  0  0  0  0  0
   19.6549   -5.8427  -14.1209 O   0  0  0  0  0  0  0  0  0  0  0  0
  2  3  1  0
  2  9  1  0
  2  1  1  1
  4  5  2  0
  4  3  1  0
  6  5  1  0
  7  8  2  0
  7  6  1  0
  8  4  1  0
  9 10  2  0
 12 11  1  1
 12 13  1  0
 14 12  1  0
 15 14  1  6
 15 17  1  0
 16 15  1  0
 16  9  1  0
 17 18  2  0
 19 17  1  0
 19 20  1  0
 21 20  1  0
 21 22  1  0
 23 21  2  0
M  END
$$$$
