HLG.pdb
     RDKit          3D

 23 23  0  0  1  0  0  0  0  0999 V2000
   26.2754  -21.4330  -13.4587 N   0  0  0  0  0  0  0  0  0  0  0  0
   25.5767  -20.6423  -12.4685 C   0  0  1  0  0  0  0  0  0  0  0  0
   24.1033  -20.7818  -12.7076 C   0  0  0  0  0  0  0  0  0  0  0  0
   23.8100  -20.2059  -14.0472 C   0  0  0  0  0  0  0  0  0  0  0  0
   24.0822  -20.7660  -15.2770 C   0  0  0  0  0  0  0  0  0  0  0  0
   23.6626  -19.9327  -16.2610 N   0  0  0  0  0  0  0  0  0  0  0  0
   23.1300  -18.8555  -15.6567 C   0  0  0  0  0  0  0  0  0  0  0  0
   23.2201  -19.0228  -14.3149 N   0  0  0  0  0  0  0  0  0  0  0  0
   25.9719  -21.0256  -11.0858 C   0  0  0  0  0  0  0  0  0  0  0  0
   25.9269  -22.2189  -10.6922 O   0  0  0  0  0  0  0  0  0  0  0  0
   27.9447  -18.6149   -5.5866 C   0  0  0  0  0  0  0  0  0  0  0  0
   27.5021  -19.6887   -6.5202 C   0  0  2  0  0  0  0  0  0  0  0  0
   28.6922  -20.6478   -6.6964 C   0  0  0  0  0  0  0  0  0  0  0  0
   27.1116  -19.2630   -7.8843 C   0  0  0  0  0  0  0  0  0  0  0  0
   26.3643  -20.2202   -8.7309 C   0  0  2  0  0  0  0  0  0  0  0  0
   26.4223  -20.0542  -10.1380 N   0  0  0  0  0  0  0  0  0  0  0  0
   24.9704  -20.3316   -8.2601 C   0  0  0  0  0  0  0  0  0  0  0  0
   23.9927  -19.7924   -8.8199 O   0  0  0  0  0  0  0  0  0  0  0  0
   24.7075  -21.1005   -7.0930 N   0  0  0  0  0  0  0  0  0  0  0  0
   24.1093  -22.4185   -7.1819 C   0  0  0  0  0  0  0  0  0  0  0  0
   22.6809  -22.3912   -6.8218 C   0  0  0  0  0  0  0  0  0  0  0  0
   22.2651  -23.1414   -5.7314 O   0  0  0  0  0  0  0  0  0  0  0  0
   21.8989  -21.6936   -7.5123 O   0  0  0  0  0  0  0  0  0  0  0  0
  2  3  1  0
  2  9  1  0
  2  1  1  6
  4  5  2  0
  4  3  1  0
  6  5  1  0
  7  8  2  0
  7  6  1  0
  8  4  1  0
  9 10  2  0
 12 11  1  1
 12 13  1  0
 14 12  1  0
 15 14  1  1
 15 17  1  0
 16 15  1  0
 16  9  1  0
 17 18  2  0
 19 17  1  0
 19 20  1  0
 21 20  1  0
 21 22  1  0
 23 21  2  0
M  END
$$$$
