HLG.pdb
     RDKit          3D

 23 23  0  0  1  0  0  0  0  0999 V2000
   19.4854  -22.3299  -12.6881 N   0  0  0  0  0  0  0  0  0  0  0  0
   20.5279  -22.4823  -13.6801 C   0  0  1  0  0  0  0  0  0  0  0  0
   19.8942  -22.4524  -15.0384 C   0  0  0  0  0  0  0  0  0  0  0  0
   18.9922  -23.6307  -15.1384 C   0  0  0  0  0  0  0  0  0  0  0  0
   19.3509  -24.9617  -15.1418 C   0  0  0  0  0  0  0  0  0  0  0  0
   18.2409  -25.7333  -15.2486 N   0  0  0  0  0  0  0  0  0  0  0  0
   17.1905  -24.8956  -15.3121 C   0  0  0  0  0  0  0  0  0  0  0  0
   17.6476  -23.6216  -15.2452 N   0  0  0  0  0  0  0  0  0  0  0  0
   21.5891  -21.4513  -13.5196 C   0  0  0  0  0  0  0  0  0  0  0  0
   21.3138  -20.2279  -13.4278 O   0  0  0  0  0  0  0  0  0  0  0  0
   24.0200  -19.9029  -10.3562 C   0  0  0  0  0  0  0  0  0  0  0  0
   24.6332  -21.1367  -10.9237 C   0  0  2  0  0  0  0  0  0  0  0  0
   25.9006  -21.4263  -10.1007 C   0  0  0  0  0  0  0  0  0  0  0  0
   25.0676  -21.0719  -12.3385 C   0  0  0  0  0  0  0  0  0  0  0  0
   24.0360  -20.8671  -13.3803 C   0  0  2  0  0  0  0  0  0  0  0  0
   22.9740  -21.8031  -13.4620 N   0  0  0  0  0  0  0  0  0  0  0  0
   24.6764  -20.6651  -14.6942 C   0  0  0  0  0  0  0  0  0  0  0  0
   25.1987  -21.5760  -15.3706 O   0  0  0  0  0  0  0  0  0  0  0  0
   24.7086  -19.3518  -15.2389 N   0  0  0  0  0  0  0  0  0  0  0  0
   25.2738  -19.0969  -16.5497 C   0  0  0  0  0  0  0  0  0  0  0  0
   24.2296  -19.0285  -17.5868 C   0  0  0  0  0  0  0  0  0  0  0  0
   24.5720  -18.5154  -18.8294 O   0  0  0  0  0  0  0  0  0  0  0  0
   23.0757  -19.4353  -17.3074 O   0  0  0  0  0  0  0  0  0  0  0  0
  2  3  1  0
  2  9  1  0
  2  1  1  1
  4  5  2  0
  4  3  1  0
  6  5  1  0
  7  8  2  0
  7  6  1  0
  8  4  1  0
  9 10  2  0
 12 11  1  1
 12 13  1  0
 14 12  1  0
 15 14  1  1
 15 17  1  0
 16 15  1  0
 16  9  1  0
 17 18  2  0
 19 17  1  0
 19 20  1  0
 21 20  1  0
 21 22  1  0
 23 21  2  0
M  END
$$$$
