HLG.pdb
     RDKit          3D

 23 23  0  0  1  0  0  0  0  0999 V2000
   26.2286  -18.3720  -14.6470 N   0  0  0  0  0  0  0  0  0  0  0  0
   26.6662  -19.7381  -14.8375 C   0  0  1  0  0  0  0  0  0  0  0  0
   28.1344  -19.7250  -15.1406 C   0  0  0  0  0  0  0  0  0  0  0  0
   28.3286  -18.9320  -16.3837 C   0  0  0  0  0  0  0  0  0  0  0  0
   27.3657  -18.2644  -17.1098 C   0  0  0  0  0  0  0  0  0  0  0  0
   27.9386  -17.6591  -18.1795 N   0  0  0  0  0  0  0  0  0  0  0  0
   29.2524  -17.9427  -18.1285 C   0  0  0  0  0  0  0  0  0  0  0  0
   29.4871  -18.7143  -17.0394 N   0  0  0  0  0  0  0  0  0  0  0  0
   26.3308  -20.5877  -13.6626 C   0  0  0  0  0  0  0  0  0  0  0  0
   26.5675  -21.8225  -13.6505 O   0  0  0  0  0  0  0  0  0  0  0  0
   27.2102  -21.8847   -9.7790 C   0  0  0  0  0  0  0  0  0  0  0  0
   26.4381  -20.6167   -9.6515 C   0  0  2  0  0  0  0  0  0  0  0  0
   26.3290  -20.3077   -8.1482 C   0  0  0  0  0  0  0  0  0  0  0  0
   25.0506  -20.6292  -10.1704 C   0  0  0  0  0  0  0  0  0  0  0  0
   24.8491  -20.7545  -11.6316 C   0  0  2  0  0  0  0  0  0  0  0  0
   25.7225  -20.0398  -12.4901 N   0  0  0  0  0  0  0  0  0  0  0  0
   23.4358  -20.5016  -11.9714 C   0  0  0  0  0  0  0  0  0  0  0  0
   22.9234  -19.3654  -12.0528 O   0  0  0  0  0  0  0  0  0  0  0  0
   22.5889  -21.6154  -12.2258 N   0  0  0  0  0  0  0  0  0  0  0  0
   21.1889  -21.4333  -12.5567 C   0  0  0  0  0  0  0  0  0  0  0  0
   20.9741  -21.4140  -14.0142 C   0  0  0  0  0  0  0  0  0  0  0  0
   19.6756  -21.5363  -14.4873 O   0  0  0  0  0  0  0  0  0  0  0  0
   21.9694  -21.2883  -14.7681 O   0  0  0  0  0  0  0  0  0  0  0  0
  2  3  1  0
  2  9  1  0
  2  1  1  1
  4  5  2  0
  4  3  1  0
  6  5  1  0
  7  8  2  0
  7  6  1  0
  8  4  1  0
  9 10  2  0
 12 11  1  1
 12 13  1  0
 14 12  1  0
 15 14  1  1
 15 17  1  0
 16 15  1  0
 16  9  1  0
 17 18  2  0
 19 17  1  0
 19 20  1  0
 21 20  1  0
 21 22  1  0
 23 21  2  0
M  END
$$$$
