HLG.pdb
     RDKit          3D

 23 23  0  0  1  0  0  0  0  0999 V2000
   26.0694  -21.2362  -16.2155 N   0  0  0  0  0  0  0  0  0  0  0  0
   25.0353  -20.4000  -15.6452 C   0  0  1  0  0  0  0  0  0  0  0  0
   24.0018  -20.1426  -16.7001 C   0  0  0  0  0  0  0  0  0  0  0  0
   24.6220  -19.2693  -17.7319 C   0  0  0  0  0  0  0  0  0  0  0  0
   24.7309  -17.8953  -17.7103 C   0  0  0  0  0  0  0  0  0  0  0  0
   25.3602  -17.4695  -18.8335 N   0  0  0  0  0  0  0  0  0  0  0  0
   25.6459  -18.5662  -19.5578 C   0  0  0  0  0  0  0  0  0  0  0  0
   25.1978  -19.6563  -18.8887 N   0  0  0  0  0  0  0  0  0  0  0  0
   24.4596  -21.0069  -14.4143 C   0  0  0  0  0  0  0  0  0  0  0  0
   24.0624  -22.1996  -14.3889 O   0  0  0  0  0  0  0  0  0  0  0  0
   26.2378  -20.6583   -8.9157 C   0  0  0  0  0  0  0  0  0  0  0  0
   25.5597  -21.1907  -10.1310 C   0  0  2  0  0  0  0  0  0  0  0  0
   26.6390  -21.3394  -11.2174 C   0  0  0  0  0  0  0  0  0  0  0  0
   24.4957  -20.3458  -10.7215 C   0  0  0  0  0  0  0  0  0  0  0  0
   23.8558  -20.7991  -11.9770 C   0  0  2  0  0  0  0  0  0  0  0  0
   24.3304  -20.2620  -13.2005 N   0  0  0  0  0  0  0  0  0  0  0  0
   22.3891  -20.6781  -11.8702 C   0  0  0  0  0  0  0  0  0  0  0  0
   21.7225  -21.0441  -10.8794 O   0  0  0  0  0  0  0  0  0  0  0  0
   21.6739  -20.1089  -12.9598 N   0  0  0  0  0  0  0  0  0  0  0  0
   20.2352  -19.9356  -12.9041 C   0  0  0  0  0  0  0  0  0  0  0  0
   19.5263  -21.1079  -13.4462 C   0  0  0  0  0  0  0  0  0  0  0  0
   18.1390  -21.0988  -13.4339 O   0  0  0  0  0  0  0  0  0  0  0  0
   20.2016  -22.0652  -13.8961 O   0  0  0  0  0  0  0  0  0  0  0  0
  2  3  1  0
  2  9  1  0
  2  1  1  6
  4  5  2  0
  4  3  1  0
  6  5  1  0
  7  8  2  0
  7  6  1  0
  8  4  1  0
  9 10  2  0
 12 11  1  1
 12 13  1  0
 14 12  1  0
 15 14  1  1
 15 17  1  0
 16 15  1  0
 16  9  1  0
 17 18  2  0
 19 17  1  0
 19 20  1  0
 21 20  1  0
 21 22  1  0
 23 21  2  0
M  END
$$$$
