HLG.pdb
     RDKit          3D

 23 23  0  0  1  0  0  0  0  0999 V2000
   26.5216  -21.5338  -16.7813 N   0  0  0  0  0  0  0  0  0  0  0  0
   25.5151  -20.5500  -16.4449 C   0  0  1  0  0  0  0  0  0  0  0  0
   24.7847  -20.1748  -17.6991 C   0  0  0  0  0  0  0  0  0  0  0  0
   25.7620  -19.5187  -18.6081 C   0  0  0  0  0  0  0  0  0  0  0  0
   25.9992  -19.8113  -19.9341 C   0  0  0  0  0  0  0  0  0  0  0  0
   26.9660  -18.9920  -20.4166 N   0  0  0  0  0  0  0  0  0  0  0  0
   27.3357  -18.1889  -19.4029 C   0  0  0  0  0  0  0  0  0  0  0  0
   26.6050  -18.5095  -18.3075 N   0  0  0  0  0  0  0  0  0  0  0  0
   24.6043  -21.0442  -15.3768 C   0  0  0  0  0  0  0  0  0  0  0  0
   23.7934  -21.9831  -15.5816 O   0  0  0  0  0  0  0  0  0  0  0  0
   25.8987  -22.3724  -11.1955 C   0  0  0  0  0  0  0  0  0  0  0  0
   25.5436  -20.9255  -11.2175 C   0  0  2  0  0  0  0  0  0  0  0  0
   25.7076  -20.4020   -9.7800 C   0  0  0  0  0  0  0  0  0  0  0  0
   24.1593  -20.5876  -11.6226 C   0  0  0  0  0  0  0  0  0  0  0  0
   23.7452  -20.8770  -13.0141 C   0  0  2  0  0  0  0  0  0  0  0  0
   24.6076  -20.4743  -14.0652 N   0  0  0  0  0  0  0  0  0  0  0  0
   22.3656  -20.4051  -13.2404 C   0  0  0  0  0  0  0  0  0  0  0  0
   22.0511  -19.2104  -13.4237 O   0  0  0  0  0  0  0  0  0  0  0  0
   21.3143  -21.3627  -13.2533 N   0  0  0  0  0  0  0  0  0  0  0  0
   19.9332  -20.9581  -13.4317 C   0  0  0  0  0  0  0  0  0  0  0  0
   19.0288  -22.1204  -13.4754 C   0  0  0  0  0  0  0  0  0  0  0  0
   17.6627  -21.8864  -13.5360 O   0  0  0  0  0  0  0  0  0  0  0  0
   19.5269  -23.2721  -13.4561 O   0  0  0  0  0  0  0  0  0  0  0  0
  2  3  1  0
  2  9  1  0
  2  1  1  6
  4  5  2  0
  4  3  1  0
  6  5  1  0
  7  8  2  0
  7  6  1  0
  8  4  1  0
  9 10  2  0
 12 11  1  1
 12 13  1  0
 14 12  1  0
 15 14  1  1
 15 17  1  0
 16 15  1  0
 16  9  1  0
 17 18  2  0
 19 17  1  0
 19 20  1  0
 21 20  1  0
 21 22  1  0
 23 21  2  0
M  END
$$$$
