HLG.pdb
     RDKit          3D

 23 23  0  0  1  0  0  0  0  0999 V2000
   27.8795  -21.1485  -13.6654 N   0  0  0  0  0  0  0  0  0  0  0  0
   27.0608  -20.2352  -12.8976 C   0  0  1  0  0  0  0  0  0  0  0  0
   25.9368  -19.7625  -13.7696 C   0  0  0  0  0  0  0  0  0  0  0  0
   26.5193  -18.8718  -14.8085 C   0  0  0  0  0  0  0  0  0  0  0  0
   27.8424  -18.5156  -14.9597 C   0  0  0  0  0  0  0  0  0  0  0  0
   27.9732  -17.6873  -16.0254 N   0  0  0  0  0  0  0  0  0  0  0  0
   26.7424  -17.5225  -16.5422 C   0  0  0  0  0  0  0  0  0  0  0  0
   25.8624  -18.2411  -15.8035 N   0  0  0  0  0  0  0  0  0  0  0  0
   26.5827  -20.8607  -11.6346 C   0  0  0  0  0  0  0  0  0  0  0  0
   26.4948  -22.1084  -11.5068 O   0  0  0  0  0  0  0  0  0  0  0  0
   28.3265  -21.2473   -7.3949 C   0  0  0  0  0  0  0  0  0  0  0  0
   27.7248  -19.9215   -7.7119 C   0  0  2  0  0  0  0  0  0  0  0  0
   27.8998  -19.0399   -6.4631 C   0  0  0  0  0  0  0  0  0  0  0  0
   26.2771  -19.9074   -8.0256 C   0  0  0  0  0  0  0  0  0  0  0  0
   25.8173  -20.6046   -9.2478 C   0  0  2  0  0  0  0  0  0  0  0  0
   26.2002  -20.0718  -10.5049 N   0  0  0  0  0  0  0  0  0  0  0  0
   24.3612  -20.8340   -9.1825 C   0  0  0  0  0  0  0  0  0  0  0  0
   23.7516  -21.2028   -8.1567 O   0  0  0  0  0  0  0  0  0  0  0  0
   23.5878  -20.6252  -10.3577 N   0  0  0  0  0  0  0  0  0  0  0  0
   22.1406  -20.7127  -10.3287 C   0  0  0  0  0  0  0  0  0  0  0  0
   21.5514  -20.3906  -11.6401 C   0  0  0  0  0  0  0  0  0  0  0  0
   20.1695  -20.3158  -11.7376 O   0  0  0  0  0  0  0  0  0  0  0  0
   22.3188  -20.1972  -12.6141 O   0  0  0  0  0  0  0  0  0  0  0  0
  2  3  1  0
  2  9  1  0
  2  1  1  6
  4  5  2  0
  4  3  1  0
  6  5  1  0
  7  8  2  0
  7  6  1  0
  8  4  1  0
  9 10  2  0
 12 11  1  1
 12 13  1  0
 14 12  1  0
 15 14  1  1
 15 17  1  0
 16 15  1  0
 16  9  1  0
 17 18  2  0
 19 17  1  0
 19 20  1  0
 21 20  1  0
 21 22  1  0
 23 21  2  0
M  END
$$$$
