HLG.pdb
     RDKit          3D

 23 23  0  0  1  0  0  0  0  0999 V2000
   27.7863  -20.9906  -13.9978 N   0  0  0  0  0  0  0  0  0  0  0  0
   26.9644  -20.1109  -13.1949 C   0  0  1  0  0  0  0  0  0  0  0  0
   25.9071  -19.5180  -14.0769 C   0  0  0  0  0  0  0  0  0  0  0  0
   26.5554  -18.4741  -14.9146 C   0  0  0  0  0  0  0  0  0  0  0  0
   27.8833  -18.1040  -14.9119 C   0  0  0  0  0  0  0  0  0  0  0  0
   28.0835  -17.1153  -15.8182 N   0  0  0  0  0  0  0  0  0  0  0  0
   26.8913  -16.8638  -16.3880 C   0  0  0  0  0  0  0  0  0  0  0  0
   25.9663  -17.6883  -15.8392 N   0  0  0  0  0  0  0  0  0  0  0  0
   26.3965  -20.8196  -12.0159 C   0  0  0  0  0  0  0  0  0  0  0  0
   26.0081  -22.0134  -12.0861 O   0  0  0  0  0  0  0  0  0  0  0  0
   28.4720  -21.1873   -7.9637 C   0  0  0  0  0  0  0  0  0  0  0  0
   27.5602  -20.0131   -8.0649 C   0  0  2  0  0  0  0  0  0  0  0  0
   27.6583  -19.2534   -6.7305 C   0  0  0  0  0  0  0  0  0  0  0  0
   26.1220  -20.3049   -8.2671 C   0  0  0  0  0  0  0  0  0  0  0  0
   25.6822  -20.7750   -9.6001 C   0  0  2  0  0  0  0  0  0  0  0  0
   26.2652  -20.1761  -10.7456 N   0  0  0  0  0  0  0  0  0  0  0  0
   24.2088  -20.7652   -9.6798 C   0  0  0  0  0  0  0  0  0  0  0  0
   23.4534  -21.2566   -8.8151 O   0  0  0  0  0  0  0  0  0  0  0  0
   23.5943  -20.1594  -10.8103 N   0  0  0  0  0  0  0  0  0  0  0  0
   22.1523  -20.0404  -10.9064 C   0  0  0  0  0  0  0  0  0  0  0  0
   21.5959  -20.9749  -11.9002 C   0  0  0  0  0  0  0  0  0  0  0  0
   20.2330  -20.9263  -12.1551 O   0  0  0  0  0  0  0  0  0  0  0  0
   22.3727  -21.7753  -12.4754 O   0  0  0  0  0  0  0  0  0  0  0  0
  2  3  1  0
  2  9  1  0
  2  1  1  6
  4  5  2  0
  4  3  1  0
  6  5  1  0
  7  8  2  0
  7  6  1  0
  8  4  1  0
  9 10  2  0
 12 11  1  1
 12 13  1  0
 14 12  1  0
 15 14  1  1
 15 17  1  0
 16 15  1  0
 16  9  1  0
 17 18  2  0
 19 17  1  0
 19 20  1  0
 21 20  1  0
 21 22  1  0
 23 21  2  0
M  END
$$$$
