HLG.pdb
     RDKit          3D

 23 23  0  0  1  0  0  0  0  0999 V2000
   19.0635  -11.8382  -17.5554 N   0  0  0  0  0  0  0  0  0  0  0  0
   18.5714  -11.5620  -16.2229 C   0  0  1  0  0  0  0  0  0  0  0  0
   18.3014  -12.8688  -15.5397 C   0  0  0  0  0  0  0  0  0  0  0  0
   17.2106  -13.5490  -16.2877 C   0  0  0  0  0  0  0  0  0  0  0  0
   17.3161  -14.6625  -17.0935 C   0  0  0  0  0  0  0  0  0  0  0  0
   16.0976  -14.9778  -17.5981 N   0  0  0  0  0  0  0  0  0  0  0  0
   15.2305  -14.0704  -17.1145 C   0  0  0  0  0  0  0  0  0  0  0  0
   15.9067  -13.2051  -16.3204 N   0  0  0  0  0  0  0  0  0  0  0  0
   19.5152  -10.7004  -15.4601 C   0  0  0  0  0  0  0  0  0  0  0  0
   19.3784  -10.5012  -14.2262 O   0  0  0  0  0  0  0  0  0  0  0  0
   23.6066  -11.1249  -14.0559 C   0  0  0  0  0  0  0  0  0  0  0  0
   23.5646  -10.6308  -15.4611 C   0  0  2  0  0  0  0  0  0  0  0  0
   25.0225  -10.5156  -15.9392 C   0  0  0  0  0  0  0  0  0  0  0  0
   22.9541   -9.2987  -15.6784 C   0  0  0  0  0  0  0  0  0  0  0  0
   21.4994   -9.1478  -15.4493 C   0  0  2  0  0  0  0  0  0  0  0  0
   20.6236  -10.0574  -16.0946 N   0  0  0  0  0  0  0  0  0  0  0  0
   21.0918   -7.7496  -15.6863 C   0  0  0  0  0  0  0  0  0  0  0  0
   20.8347   -7.2720  -16.8114 O   0  0  0  0  0  0  0  0  0  0  0  0
   20.9801   -6.8766  -14.5693 N   0  0  0  0  0  0  0  0  0  0  0  0
   20.5330   -5.5065  -14.7297 C   0  0  0  0  0  0  0  0  0  0  0  0
   21.6595   -4.5966  -15.0014 C   0  0  0  0  0  0  0  0  0  0  0  0
   21.3876   -3.2454  -15.1597 O   0  0  0  0  0  0  0  0  0  0  0  0
   22.8164   -5.0767  -15.0787 O   0  0  0  0  0  0  0  0  0  0  0  0
  2  3  1  0
  2  9  1  0
  2  1  1  6
  4  5  2  0
  4  3  1  0
  6  5  1  0
  7  8  2  0
  7  6  1  0
  8  4  1  0
  9 10  2  0
 12 11  1  1
 12 13  1  0
 14 12  1  0
 15 14  1  6
 15 17  1  0
 16 15  1  0
 16  9  1  0
 17 18  2  0
 19 17  1  0
 19 20  1  0
 21 20  1  0
 21 22  1  0
 23 21  2  0
M  END
$$$$
