HLG.pdb
     RDKit          3D

 23 23  0  0  1  0  0  0  0  0999 V2000
   27.8469  -20.9542  -14.4513 N   0  0  0  0  0  0  0  0  0  0  0  0
   27.0659  -20.0239  -13.6648 C   0  0  1  0  0  0  0  0  0  0  0  0
   26.1589  -19.2698  -14.5900 C   0  0  0  0  0  0  0  0  0  0  0  0
   27.0159  -18.4648  -15.5007 C   0  0  0  0  0  0  0  0  0  0  0  0
   27.1643  -18.6171  -16.8627 C   0  0  0  0  0  0  0  0  0  0  0  0
   28.0345  -17.6898  -17.3336 N   0  0  0  0  0  0  0  0  0  0  0  0
   28.4318  -16.9585  -16.2769 C   0  0  0  0  0  0  0  0  0  0  0  0
   27.8135  -17.4296  -15.1668 N   0  0  0  0  0  0  0  0  0  0  0  0
   26.3261  -20.7170  -12.5752 C   0  0  0  0  0  0  0  0  0  0  0  0
   25.8405  -21.8660  -12.7329 O   0  0  0  0  0  0  0  0  0  0  0  0
   27.8351  -21.6154   -8.3920 C   0  0  0  0  0  0  0  0  0  0  0  0
   27.1466  -20.2964   -8.4725 C   0  0  2  0  0  0  0  0  0  0  0  0
   27.2053  -19.6738   -7.0667 C   0  0  0  0  0  0  0  0  0  0  0  0
   25.7152  -20.3168   -8.8537 C   0  0  0  0  0  0  0  0  0  0  0  0
   25.3652  -20.6761  -10.2464 C   0  0  2  0  0  0  0  0  0  0  0  0
   26.1321  -20.1088  -11.2956 N   0  0  0  0  0  0  0  0  0  0  0  0
   23.9200  -20.4817  -10.4716 C   0  0  0  0  0  0  0  0  0  0  0  0
   23.3465  -19.3724  -10.4484 O   0  0  0  0  0  0  0  0  0  0  0  0
   23.1142  -21.6239  -10.7335 N   0  0  0  0  0  0  0  0  0  0  0  0
   21.6742  -21.5124  -10.8634 C   0  0  0  0  0  0  0  0  0  0  0  0
   21.2640  -21.3990  -12.2738 C   0  0  0  0  0  0  0  0  0  0  0  0
   19.9143  -21.2416  -12.5536 O   0  0  0  0  0  0  0  0  0  0  0  0
   22.1473  -21.4488  -13.1639 O   0  0  0  0  0  0  0  0  0  0  0  0
  2  3  1  0
  2  9  1  0
  2  1  1  6
  4  5  2  0
  4  3  1  0
  6  5  1  0
  7  8  2  0
  7  6  1  0
  8  4  1  0
  9 10  2  0
 12 11  1  1
 12 13  1  0
 14 12  1  0
 15 14  1  1
 15 17  1  0
 16 15  1  0
 16  9  1  0
 17 18  2  0
 19 17  1  0
 19 20  1  0
 21 20  1  0
 21 22  1  0
 23 21  2  0
M  END
$$$$
