HEG.pdb
     RDKit          3D

 24 24  0  0  1  0  0  0  0  0999 V2000
    8.6316  -16.7627   19.9387 N   0  0  0  0  0  0  0  0  0  0  0  0
    9.2618  -16.2349   21.1352 C   0  0  1  0  0  0  0  0  0  0  0  0
    8.4478  -15.1026   21.6542 C   0  0  0  0  0  0  0  0  0  0  0  0
    8.2897  -14.0425   20.6289 C   0  0  0  0  0  0  0  0  0  0  0  0
    9.0322  -12.8918   20.5187 C   0  0  0  0  0  0  0  0  0  0  0  0
    8.5533  -12.2309   19.4620 N   0  0  0  0  0  0  0  0  0  0  0  0
    7.5440  -12.9152   18.9047 C   0  0  0  0  0  0  0  0  0  0  0  0
    7.3878  -14.0490   19.6446 N   0  0  0  0  0  0  0  0  0  0  0  0
    9.5095  -17.2764   22.1420 C   0  0  0  0  0  0  0  0  0  0  0  0
    8.5193  -17.8662   22.6525 O   0  0  0  0  0  0  0  0  0  0  0  0
   10.8318  -17.6136   22.5279 N   0  0  0  0  0  0  0  0  0  0  0  0
   11.1695  -18.7664   23.3266 C   0  0  1  0  0  0  0  0  0  0  0  0
   12.1749  -19.7053   22.7567 C   0  0  0  0  0  0  0  0  0  0  0  0
   11.8747  -20.2821   21.4111 C   0  0  0  0  0  0  0  0  0  0  0  0
   12.9169  -21.1780   20.9422 C   0  0  0  0  0  0  0  0  0  0  0  0
   13.3746  -22.0653   21.7310 O   0  0  0  0  0  0  0  0  0  0  0  0
   11.5447  -18.3548   24.6818 C   0  0  0  0  0  0  0  0  0  0  0  0
   12.4041  -17.4324   24.8649 O   0  0  0  0  0  0  0  0  0  0  0  0
   13.4120  -21.0757   19.6615 O   0  0  0  0  0  0  0  0  0  0  0  0
   11.0031  -18.9270   25.8644 N   0  0  0  0  0  0  0  0  0  0  0  0
   11.4132  -18.4918   27.1925 C   0  0  0  0  0  0  0  0  0  0  0  0
   12.3632  -19.4474   27.7948 C   0  0  0  0  0  0  0  0  0  0  0  0
   12.7048  -20.4523   27.1299 O   0  0  0  0  0  0  0  0  0  0  0  0
   12.8365  -19.1934   29.0684 O   0  0  0  0  0  0  0  0  0  0  0  0
  2  1  1  6
  2  9  1  0
  3  4  1  0
  3  2  1  0
  4  5  2  0
  5  6  1  0
  7  6  1  0
  8  4  1  0
  8  7  2  0
  9 11  1  0
  9 10  2  0
 11 12  1  0
 12 17  1  0
 13 14  1  0
 12 13  1  6
 14 15  1  0
 15 16  2  0
 15 19  1  0
 17 18  2  0
 17 20  1  0
 20 21  1  0
 21 22  1  0
 22 24  1  0
 23 22  2  0
M  END
$$$$
