HEG.pdb
     RDKit          3D

 24 24  0  0  1  0  0  0  0  0999 V2000
    8.1823  -17.3271   19.1619 N   0  0  0  0  0  0  0  0  0  0  0  0
    9.1630  -16.7153   20.0401 C   0  0  1  0  0  0  0  0  0  0  0  0
    8.4923  -15.6790   20.8707 C   0  0  0  0  0  0  0  0  0  0  0  0
    8.1414  -14.4874   20.0601 C   0  0  0  0  0  0  0  0  0  0  0  0
    8.3293  -14.3318   18.7080 C   0  0  0  0  0  0  0  0  0  0  0  0
    7.8737  -13.1154   18.3990 N   0  0  0  0  0  0  0  0  0  0  0  0
    7.4086  -12.5012   19.4963 C   0  0  0  0  0  0  0  0  0  0  0  0
    7.5816  -13.3708   20.5313 N   0  0  0  0  0  0  0  0  0  0  0  0
    9.8953  -17.7089   20.8378 C   0  0  0  0  0  0  0  0  0  0  0  0
    9.3735  -18.8432   21.0111 O   0  0  0  0  0  0  0  0  0  0  0  0
   11.1618  -17.4009   21.3967 N   0  0  0  0  0  0  0  0  0  0  0  0
   11.9790  -18.3492   22.1135 C   0  0  1  0  0  0  0  0  0  0  0  0
   13.2886  -18.7039   21.4998 C   0  0  0  0  0  0  0  0  0  0  0  0
   13.2488  -19.4765   20.2212 C   0  0  0  0  0  0  0  0  0  0  0  0
   14.5729  -19.7421   19.6875 C   0  0  0  0  0  0  0  0  0  0  0  0
   15.5941  -19.3367   20.3294 O   0  0  0  0  0  0  0  0  0  0  0  0
   12.1495  -17.9248   23.5054 C   0  0  0  0  0  0  0  0  0  0  0  0
   12.5464  -16.7459   23.7801 O   0  0  0  0  0  0  0  0  0  0  0  0
   14.7324  -20.4223   18.5011 O   0  0  0  0  0  0  0  0  0  0  0  0
   11.8964  -18.7599   24.6271 N   0  0  0  0  0  0  0  0  0  0  0  0
   11.9853  -18.2666   25.9946 C   0  0  0  0  0  0  0  0  0  0  0  0
   11.8257  -19.3654   26.9671 C   0  0  0  0  0  0  0  0  0  0  0  0
   11.5944  -20.5182   26.5359 O   0  0  0  0  0  0  0  0  0  0  0  0
   11.9384  -19.0761   28.3140 O   0  0  0  0  0  0  0  0  0  0  0  0
  2  1  1  1
  2  9  1  0
  3  4  1  0
  3  2  1  0
  4  5  2  0
  5  6  1  0
  7  6  1  0
  8  4  1  0
  8  7  2  0
  9 11  1  0
  9 10  2  0
 11 12  1  0
 12 17  1  0
 13 14  1  0
 12 13  1  6
 14 15  1  0
 15 16  2  0
 15 19  1  0
 17 18  2  0
 17 20  1  0
 20 21  1  0
 21 22  1  0
 22 24  1  0
 23 22  2  0
M  END
$$$$
