HEG.pdb
     RDKit          3D

 24 24  0  0  1  0  0  0  0  0999 V2000
    9.9414  -15.9114   16.8340 N   0  0  0  0  0  0  0  0  0  0  0  0
   10.7439  -15.2506   17.8474 C   0  0  1  0  0  0  0  0  0  0  0  0
    9.8908  -14.9638   19.0323 C   0  0  0  0  0  0  0  0  0  0  0  0
    8.7546  -14.0807   18.6729 C   0  0  0  0  0  0  0  0  0  0  0  0
    8.4773  -13.5671   17.4292 C   0  0  0  0  0  0  0  0  0  0  0  0
    7.3708  -12.8314   17.5604 N   0  0  0  0  0  0  0  0  0  0  0  0
    6.9418  -12.8604   18.8303 C   0  0  0  0  0  0  0  0  0  0  0  0
    7.8169  -13.6466   19.5184 N   0  0  0  0  0  0  0  0  0  0  0  0
   11.9579  -16.0088   18.1807 C   0  0  0  0  0  0  0  0  0  0  0  0
   12.4784  -16.7320   17.2891 O   0  0  0  0  0  0  0  0  0  0  0  0
   12.5336  -15.9260   19.4740 N   0  0  0  0  0  0  0  0  0  0  0  0
   13.9387  -15.7097   19.7188 C   0  0  1  0  0  0  0  0  0  0  0  0
   14.5451  -14.4925   19.1121 C   0  0  0  0  0  0  0  0  0  0  0  0
   15.9884  -14.2385   19.4052 C   0  0  0  0  0  0  0  0  0  0  0  0
   16.6894  -13.6405   18.2828 C   0  0  0  0  0  0  0  0  0  0  0  0
   16.4405  -14.0514   17.1046 O   0  0  0  0  0  0  0  0  0  0  0  0
   14.2218  -15.7771   21.1547 C   0  0  0  0  0  0  0  0  0  0  0  0
   15.4143  -15.6589   21.5870 O   0  0  0  0  0  0  0  0  0  0  0  0
   17.6156  -12.6411   18.4807 O   0  0  0  0  0  0  0  0  0  0  0  0
   13.2283  -15.9724   22.1520 N   0  0  0  0  0  0  0  0  0  0  0  0
   13.5695  -16.2088   23.5480 C   0  0  0  0  0  0  0  0  0  0  0  0
   12.3564  -16.4104   24.3644 C   0  0  0  0  0  0  0  0  0  0  0  0
   11.2447  -16.4399   23.7885 O   0  0  0  0  0  0  0  0  0  0  0  0
   12.4980  -16.5584   25.7315 O   0  0  0  0  0  0  0  0  0  0  0  0
  2  1  1  6
  2  9  1  0
  3  4  1  0
  3  2  1  0
  4  5  2  0
  5  6  1  0
  7  6  1  0
  8  4  1  0
  8  7  2  0
  9 11  1  0
  9 10  2  0
 11 12  1  0
 12 17  1  0
 13 14  1  0
 12 13  1  1
 14 15  1  0
 15 16  2  0
 15 19  1  0
 17 18  2  0
 17 20  1  0
 20 21  1  0
 21 22  1  0
 22 24  1  0
 23 22  2  0
M  END
$$$$
