HEG.pdb
     RDKit          3D

 24 24  0  0  1  0  0  0  0  0999 V2000
    9.9674  -16.8389   16.4675 N   0  0  0  0  0  0  0  0  0  0  0  0
   10.0081  -16.4656   17.8697 C   0  0  1  0  0  0  0  0  0  0  0  0
    8.6405  -16.0782   18.3096 C   0  0  0  0  0  0  0  0  0  0  0  0
    8.1759  -14.8595   17.6032 C   0  0  0  0  0  0  0  0  0  0  0  0
    8.3514  -13.5592   18.0105 C   0  0  0  0  0  0  0  0  0  0  0  0
    7.7789  -12.7899   17.0814 N   0  0  0  0  0  0  0  0  0  0  0  0
    7.2524  -13.5492   16.1100 C   0  0  0  0  0  0  0  0  0  0  0  0
    7.5073  -14.8446   16.4477 N   0  0  0  0  0  0  0  0  0  0  0  0
   10.6093  -17.5115   18.7090 C   0  0  0  0  0  0  0  0  0  0  0  0
   10.2955  -18.7125   18.4894 O   0  0  0  0  0  0  0  0  0  0  0  0
   11.5248  -17.1786   19.7397 N   0  0  0  0  0  0  0  0  0  0  0  0
   12.2829  -18.1502   20.4895 C   0  0  1  0  0  0  0  0  0  0  0  0
   13.7431  -18.2237   20.2070 C   0  0  0  0  0  0  0  0  0  0  0  0
   14.5141  -19.2952   20.9078 C   0  0  0  0  0  0  0  0  0  0  0  0
   15.9343  -19.2479   20.6090 C   0  0  0  0  0  0  0  0  0  0  0  0
   16.6656  -18.3916   21.2016 O   0  0  0  0  0  0  0  0  0  0  0  0
   12.0333  -17.9935   21.9247 C   0  0  0  0  0  0  0  0  0  0  0  0
   12.3332  -16.9082   22.5205 O   0  0  0  0  0  0  0  0  0  0  0  0
   16.4927  -20.1137   19.6957 O   0  0  0  0  0  0  0  0  0  0  0  0
   11.4567  -19.0004   22.7453 N   0  0  0  0  0  0  0  0  0  0  0  0
   11.1332  -18.7656   24.1458 C   0  0  0  0  0  0  0  0  0  0  0  0
   12.1412  -19.3774   25.0336 C   0  0  0  0  0  0  0  0  0  0  0  0
   13.1010  -19.9930   24.5156 O   0  0  0  0  0  0  0  0  0  0  0  0
   11.9838  -19.2453   26.4005 O   0  0  0  0  0  0  0  0  0  0  0  0
  2  1  1  6
  2  9  1  0
  3  4  1  0
  3  2  1  0
  4  5  2  0
  5  6  1  0
  7  6  1  0
  8  4  1  0
  8  7  2  0
  9 11  1  0
  9 10  2  0
 11 12  1  0
 12 17  1  0
 13 14  1  0
 12 13  1  1
 14 15  1  0
 15 16  2  0
 15 19  1  0
 17 18  2  0
 17 20  1  0
 20 21  1  0
 21 22  1  0
 22 24  1  0
 23 22  2  0
M  END
$$$$
