HEG.pdb
     RDKit          3D

 24 24  0  0  1  0  0  0  0  0999 V2000
    7.4527  -16.7537   20.5926 N   0  0  0  0  0  0  0  0  0  0  0  0
    8.5817  -16.0763   21.2040 C   0  0  1  0  0  0  0  0  0  0  0  0
    8.1793  -14.6902   21.5656 C   0  0  0  0  0  0  0  0  0  0  0  0
    7.8611  -13.8923   20.3565 C   0  0  0  0  0  0  0  0  0  0  0  0
    7.9273  -14.3189   19.0523 C   0  0  0  0  0  0  0  0  0  0  0  0
    7.5574  -13.2833   18.2949 N   0  0  0  0  0  0  0  0  0  0  0  0
    7.2624  -12.2266   19.0654 C   0  0  0  0  0  0  0  0  0  0  0  0
    7.4563  -12.6200   20.3557 N   0  0  0  0  0  0  0  0  0  0  0  0
    9.1385  -16.8293   22.3366 C   0  0  0  0  0  0  0  0  0  0  0  0
    8.3725  -17.1343   23.2902 O   0  0  0  0  0  0  0  0  0  0  0  0
   10.5049  -17.2083   22.3552 N   0  0  0  0  0  0  0  0  0  0  0  0
   11.1249  -17.9370   23.4348 C   0  0  1  0  0  0  0  0  0  0  0  0
   11.4693  -19.3615   23.1710 C   0  0  0  0  0  0  0  0  0  0  0  0
   10.3472  -20.2662   22.7762 C   0  0  0  0  0  0  0  0  0  0  0  0
   10.2833  -21.4657   23.5921 C   0  0  0  0  0  0  0  0  0  0  0  0
   11.0585  -22.4393   23.3272 O   0  0  0  0  0  0  0  0  0  0  0  0
   12.2855  -17.2023   23.9447 C   0  0  0  0  0  0  0  0  0  0  0  0
   12.8628  -17.5672   25.0201 O   0  0  0  0  0  0  0  0  0  0  0  0
    9.3966  -21.5592   24.6413 O   0  0  0  0  0  0  0  0  0  0  0  0
   12.8465  -16.0624   23.3080 N   0  0  0  0  0  0  0  0  0  0  0  0
   13.9280  -15.2943   23.9092 C   0  0  0  0  0  0  0  0  0  0  0  0
   15.2442  -15.8473   23.5349 C   0  0  0  0  0  0  0  0  0  0  0  0
   15.4666  -17.0612   23.7481 O   0  0  0  0  0  0  0  0  0  0  0  0
   16.1771  -15.0019   22.9642 O   0  0  0  0  0  0  0  0  0  0  0  0
  2  1  1  1
  2  9  1  0
  3  4  1  0
  3  2  1  0
  4  5  2  0
  5  6  1  0
  7  6  1  0
  8  4  1  0
  8  7  2  0
  9 11  1  0
  9 10  2  0
 11 12  1  0
 12 17  1  0
 13 14  1  0
 12 13  1  6
 14 15  1  0
 15 16  2  0
 15 19  1  0
 17 18  2  0
 17 20  1  0
 20 21  1  0
 21 22  1  0
 22 24  1  0
 23 22  2  0
M  END
$$$$
