HEG.pdb
     RDKit          3D

 24 24  0  0  1  0  0  0  0  0999 V2000
    8.6530  -16.5214   20.7153 N   0  0  0  0  0  0  0  0  0  0  0  0
    8.0164  -16.0321   21.9247 C   0  0  1  0  0  0  0  0  0  0  0  0
    6.9844  -15.0251   21.5576 C   0  0  0  0  0  0  0  0  0  0  0  0
    7.5621  -13.9483   20.7168 C   0  0  0  0  0  0  0  0  0  0  0  0
    8.0439  -12.7377   21.1526 C   0  0  0  0  0  0  0  0  0  0  0  0
    8.4647  -12.0838   20.0672 N   0  0  0  0  0  0  0  0  0  0  0  0
    8.2684  -12.8297   18.9706 C   0  0  0  0  0  0  0  0  0  0  0  0
    7.7022  -13.9962   19.3900 N   0  0  0  0  0  0  0  0  0  0  0  0
    7.4886  -17.1214   22.7582 C   0  0  0  0  0  0  0  0  0  0  0  0
    6.3228  -17.5425   22.5291 O   0  0  0  0  0  0  0  0  0  0  0  0
    8.2736  -17.6891   23.7938 N   0  0  0  0  0  0  0  0  0  0  0  0
    7.8143  -18.7381   24.6711 C   0  0  1  0  0  0  0  0  0  0  0  0
    8.2696  -20.1209   24.3580 C   0  0  0  0  0  0  0  0  0  0  0  0
    7.9150  -20.6603   23.0101 C   0  0  0  0  0  0  0  0  0  0  0  0
    8.4556  -21.9883   22.7800 C   0  0  0  0  0  0  0  0  0  0  0  0
    9.7144  -22.1355   22.6666 O   0  0  0  0  0  0  0  0  0  0  0  0
    8.0985  -18.3955   26.0670 C   0  0  0  0  0  0  0  0  0  0  0  0
    7.5083  -19.0048   27.0175 O   0  0  0  0  0  0  0  0  0  0  0  0
    7.6243  -23.0816   22.6824 O   0  0  0  0  0  0  0  0  0  0  0  0
    9.0221  -17.3921   26.4665 N   0  0  0  0  0  0  0  0  0  0  0  0
    9.2992  -17.1095   27.8681 C   0  0  0  0  0  0  0  0  0  0  0  0
   10.2108  -18.1179   28.4431 C   0  0  0  0  0  0  0  0  0  0  0  0
   10.6250  -19.0412   27.7052 O   0  0  0  0  0  0  0  0  0  0  0  0
   10.5696  -18.0012   29.7729 O   0  0  0  0  0  0  0  0  0  0  0  0
  2  1  1  6
  2  9  1  0
  3  4  1  0
  3  2  1  0
  4  5  2  0
  5  6  1  0
  7  6  1  0
  8  4  1  0
  8  7  2  0
  9 11  1  0
  9 10  2  0
 11 12  1  0
 12 17  1  0
 13 14  1  0
 12 13  1  6
 14 15  1  0
 15 16  2  0
 15 19  1  0
 17 18  2  0
 17 20  1  0
 20 21  1  0
 21 22  1  0
 22 24  1  0
 23 22  2  0
M  END
$$$$
