HEG.pdb
     RDKit          3D

 24 24  0  0  1  0  0  0  0  0999 V2000
    8.2251  -16.8968   20.1063 N   0  0  0  0  0  0  0  0  0  0  0  0
    9.0815  -16.2286   21.0695 C   0  0  1  0  0  0  0  0  0  0  0  0
    8.3504  -15.0687   21.6475 C   0  0  0  0  0  0  0  0  0  0  0  0
    8.1041  -14.0259   20.6219 C   0  0  0  0  0  0  0  0  0  0  0  0
    8.6443  -12.7630   20.5912 C   0  0  0  0  0  0  0  0  0  0  0  0
    8.1547  -12.1673   19.5011 N   0  0  0  0  0  0  0  0  0  0  0  0
    7.3320  -12.9996   18.8470 C   0  0  0  0  0  0  0  0  0  0  0  0
    7.3080  -14.1615   19.5588 N   0  0  0  0  0  0  0  0  0  0  0  0
    9.5999  -17.1504   22.0900 C   0  0  0  0  0  0  0  0  0  0  0  0
    8.7986  -17.9573   22.6336 O   0  0  0  0  0  0  0  0  0  0  0  0
   10.9709  -17.1358   22.4523 N   0  0  0  0  0  0  0  0  0  0  0  0
   11.5865  -18.1119   23.3179 C   0  0  1  0  0  0  0  0  0  0  0  0
   13.0064  -18.4589   23.0336 C   0  0  0  0  0  0  0  0  0  0  0  0
   13.6163  -19.5429   23.8622 C   0  0  0  0  0  0  0  0  0  0  0  0
   15.0186  -19.7600   23.5535 C   0  0  0  0  0  0  0  0  0  0  0  0
   15.8729  -18.8804   23.8935 O   0  0  0  0  0  0  0  0  0  0  0  0
   11.4104  -17.7309   24.7216 C   0  0  0  0  0  0  0  0  0  0  0  0
   11.8844  -16.6327   25.1600 O   0  0  0  0  0  0  0  0  0  0  0  0
   15.4291  -20.9000   22.8997 O   0  0  0  0  0  0  0  0  0  0  0  0
   10.7215  -18.5231   25.6794 N   0  0  0  0  0  0  0  0  0  0  0  0
   10.5622  -18.0990   27.0636 C   0  0  0  0  0  0  0  0  0  0  0  0
   11.2858  -18.9999   27.9819 C   0  0  0  0  0  0  0  0  0  0  0  0
   11.9454  -19.9470   27.4958 O   0  0  0  0  0  0  0  0  0  0  0  0
   11.2053  -18.7605   29.3409 O   0  0  0  0  0  0  0  0  0  0  0  0
  2  1  1  6
  2  9  1  0
  3  4  1  0
  3  2  1  0
  4  5  2  0
  5  6  1  0
  7  6  1  0
  8  4  1  0
  8  7  2  0
  9 11  1  0
  9 10  2  0
 11 12  1  0
 12 17  1  0
 13 14  1  0
 12 13  1  6
 14 15  1  0
 15 16  2  0
 15 19  1  0
 17 18  2  0
 17 20  1  0
 20 21  1  0
 21 22  1  0
 22 24  1  0
 23 22  2  0
M  END
$$$$
