HEG.pdb
     RDKit          3D

 24 24  0  0  1  0  0  0  0  0999 V2000
    9.4553  -16.7556   20.2538 N   0  0  0  0  0  0  0  0  0  0  0  0
    9.2556  -16.2107   21.5844 C   0  0  1  0  0  0  0  0  0  0  0  0
    8.0416  -15.3505   21.5803 C   0  0  0  0  0  0  0  0  0  0  0  0
    8.2366  -14.1530   20.7271 C   0  0  0  0  0  0  0  0  0  0  0  0
    9.3555  -13.8438   19.9922 C   0  0  0  0  0  0  0  0  0  0  0  0
    9.0995  -12.6849   19.3805 N   0  0  0  0  0  0  0  0  0  0  0  0
    7.8706  -12.2534   19.6987 C   0  0  0  0  0  0  0  0  0  0  0  0
    7.3393  -13.1817   20.5433 N   0  0  0  0  0  0  0  0  0  0  0  0
    9.2182  -17.2563   22.6165 C   0  0  0  0  0  0  0  0  0  0  0  0
    8.4714  -18.2551   22.4332 O   0  0  0  0  0  0  0  0  0  0  0  0
   10.0070  -17.1469   23.7899 N   0  0  0  0  0  0  0  0  0  0  0  0
   10.2866  -18.2480   24.6790 C   0  0  1  0  0  0  0  0  0  0  0  0
   10.9322  -19.4476   24.0777 C   0  0  0  0  0  0  0  0  0  0  0  0
   11.1892  -20.6047   24.9879 C   0  0  0  0  0  0  0  0  0  0  0  0
   11.8246  -21.7196   24.3084 C   0  0  0  0  0  0  0  0  0  0  0  0
   11.1447  -22.4172   23.4897 O   0  0  0  0  0  0  0  0  0  0  0  0
   11.0345  -17.7806   25.8489 C   0  0  0  0  0  0  0  0  0  0  0  0
   12.0016  -16.9620   25.7160 O   0  0  0  0  0  0  0  0  0  0  0  0
   13.1461  -22.0278   24.5413 O   0  0  0  0  0  0  0  0  0  0  0  0
   10.7566  -18.1844   27.1828 N   0  0  0  0  0  0  0  0  0  0  0  0
   11.4610  -17.6188   28.3252 C   0  0  0  0  0  0  0  0  0  0  0  0
   11.1082  -18.3274   29.5709 C   0  0  0  0  0  0  0  0  0  0  0  0
   10.2769  -19.2624   29.5134 O   0  0  0  0  0  0  0  0  0  0  0  0
   11.7104  -17.9295   30.7498 O   0  0  0  0  0  0  0  0  0  0  0  0
  2  1  1  6
  2  9  1  0
  3  4  1  0
  3  2  1  0
  4  5  2  0
  5  6  1  0
  7  6  1  0
  8  4  1  0
  8  7  2  0
  9 11  1  0
  9 10  2  0
 11 12  1  0
 12 17  1  0
 13 14  1  0
 12 13  1  6
 14 15  1  0
 15 16  2  0
 15 19  1  0
 17 18  2  0
 17 20  1  0
 20 21  1  0
 21 22  1  0
 22 24  1  0
 23 22  2  0
M  END
$$$$
