HEG.pdb
     RDKit          3D

 24 24  0  0  1  0  0  0  0  0999 V2000
-15875.9141-21611.1348  874.0795 N   0  0  0  0  0  0  0  0  0  0  0  0
-15877.2051-21611.6406  874.5297 C   0  0  1  0  0  0  0  0  0  0  0  0
-15877.7539-21610.7207  875.5600 C   0  0  0  0  0  0  0  0  0  0  0  0
-15879.2090-21610.9590  875.7653 C   0  0  0  0  0  0  0  0  0  0  0  0
-15880.0254-21610.2852  876.6367 C   0  0  0  0  0  0  0  0  0  0  0  0
-15881.2402-21610.8184  876.5063 N   0  0  0  0  0  0  0  0  0  0  0  0
-15881.2168-21611.7930  875.5844 C   0  0  0  0  0  0  0  0  0  0  0  0
-15879.9395-21611.8770  875.1284 N   0  0  0  0  0  0  0  0  0  0  0  0
-15878.1250-21611.8711  873.4059 C   0  0  0  0  0  0  0  0  0  0  0  0
-15879.0918-21611.0859  873.2460 O   0  0  0  0  0  0  0  0  0  0  0  0
-15877.9277-21612.9629  872.5153 N   0  0  0  0  0  0  0  0  0  0  0  0
-15878.7832-21613.2539  871.3893 C   0  0  1  0  0  0  0  0  0  0  0  0
-15880.1504-21612.6484  871.4238 C   0  0  0  0  0  0  0  0  0  0  0  0
-15881.2812-21613.5430  871.0703 C   0  0  0  0  0  0  0  0  0  0  0  0
-15881.6836-21613.4238  869.6747 C   0  0  0  0  0  0  0  0  0  0  0  0
-15882.7109-21612.7422  869.3803 O   0  0  0  0  0  0  0  0  0  0  0  0
-15878.0957-21612.9336  870.1279 C   0  0  0  0  0  0  0  0  0  0  0  0
-15878.7422-21612.9023  869.0363 O   0  0  0  0  0  0  0  0  0  0  0  0
-15880.9492-21614.0332  868.6808 O   0  0  0  0  0  0  0  0  0  0  0  0
-15876.7090-21612.6445  870.0300 N   0  0  0  0  0  0  0  0  0  0  0  0
-15876.2090-21611.2910  869.8647 C   0  0  0  0  0  0  0  0  0  0  0  0
-15875.2656-21610.9453  870.9304 C   0  0  0  0  0  0  0  0  0  0  0  0
-15874.0742-21611.3262  870.8349 O   0  0  0  0  0  0  0  0  0  0  0  0
-15875.7285-21610.2188  872.0173 O   0  0  0  0  0  0  0  0  0  0  0  0
  2  1  1  6
  2  9  1  0
  3  4  1  0
  3  2  1  0
  4  5  2  0
  5  6  1  0
  7  6  1  0
  8  4  1  0
  8  7  2  0
  9 11  1  0
  9 10  2  0
 11 12  1  0
 12 17  1  0
 13 14  1  0
 12 13  1  1
 14 15  1  0
 15 16  2  0
 15 19  1  0
 17 18  2  0
 17 20  1  0
 20 21  1  0
 21 22  1  0
 22 24  1  0
 23 22  2  0
M  END
$$$$
