HEG.pdb
     RDKit          3D

 24 24  0  0  1  0  0  0  0  0999 V2000
    9.4945  -21.6926   21.3620 N   0  0  0  0  0  0  0  0  0  0  0  0
    9.1432  -20.6788   22.3400 C   0  0  1  0  0  0  0  0  0  0  0  0
    8.2378  -21.2779   23.3574 C   0  0  0  0  0  0  0  0  0  0  0  0
    6.9474  -21.6872   22.7513 C   0  0  0  0  0  0  0  0  0  0  0  0
    6.5808  -21.5507   21.4344 C   0  0  0  0  0  0  0  0  0  0  0  0
    5.3459  -22.0478   21.3307 N   0  0  0  0  0  0  0  0  0  0  0  0
    4.9217  -22.4899   22.5232 C   0  0  0  0  0  0  0  0  0  0  0  0
    5.9339  -22.2587   23.4060 N   0  0  0  0  0  0  0  0  0  0  0  0
   10.3268  -20.0362   22.9281 C   0  0  0  0  0  0  0  0  0  0  0  0
   11.4469  -20.5975   22.7890 O   0  0  0  0  0  0  0  0  0  0  0  0
   10.2130  -18.8106   23.6324 N   0  0  0  0  0  0  0  0  0  0  0  0
   11.3345  -18.0913   24.1855 C   0  0  1  0  0  0  0  0  0  0  0  0
   11.5789  -16.7211   23.6560 C   0  0  0  0  0  0  0  0  0  0  0  0
   12.1707  -16.6210   22.2874 C   0  0  0  0  0  0  0  0  0  0  0  0
   11.4802  -15.6569   21.4493 C   0  0  0  0  0  0  0  0  0  0  0  0
   10.4769  -15.0312   21.9194 O   0  0  0  0  0  0  0  0  0  0  0  0
   11.2628  -18.0833   25.6488 C   0  0  0  0  0  0  0  0  0  0  0  0
   12.2085  -17.5850   26.3419 O   0  0  0  0  0  0  0  0  0  0  0  0
   11.8970  -15.4166   20.1592 O   0  0  0  0  0  0  0  0  0  0  0  0
   10.1735  -18.6106   26.3937 N   0  0  0  0  0  0  0  0  0  0  0  0
   10.0987  -18.4933   27.8435 C   0  0  0  0  0  0  0  0  0  0  0  0
   10.8545  -19.5756   28.5037 C   0  0  0  0  0  0  0  0  0  0  0  0
   11.5061  -20.3727   27.7905 O   0  0  0  0  0  0  0  0  0  0  0  0
   10.8116  -19.6646   29.8824 O   0  0  0  0  0  0  0  0  0  0  0  0
  2  1  1  6
  2  9  1  0
  3  4  1  0
  3  2  1  0
  4  5  2  0
  5  6  1  0
  7  6  1  0
  8  4  1  0
  8  7  2  0
  9 11  1  0
  9 10  2  0
 11 12  1  0
 12 17  1  0
 13 14  1  0
 12 13  1  6
 14 15  1  0
 15 16  2  0
 15 19  1  0
 17 18  2  0
 17 20  1  0
 20 21  1  0
 21 22  1  0
 22 24  1  0
 23 22  2  0
M  END
$$$$
