HEG.pdb
     RDKit          3D

 24 24  0  0  1  0  0  0  0  0999 V2000
   10.1554  -15.7733   17.8769 N   0  0  0  0  0  0  0  0  0  0  0  0
   10.9395  -14.8134   18.6325 C   0  0  1  0  0  0  0  0  0  0  0  0
   10.0858  -14.2178   19.6957 C   0  0  0  0  0  0  0  0  0  0  0  0
    8.8764  -13.5823   19.1181 C   0  0  0  0  0  0  0  0  0  0  0  0
    8.5369  -13.5247   17.7881 C   0  0  0  0  0  0  0  0  0  0  0  0
    7.3777  -12.8655   17.7205 N   0  0  0  0  0  0  0  0  0  0  0  0
    6.9751  -12.5072   18.9481 C   0  0  0  0  0  0  0  0  0  0  0  0
    7.9223  -12.9619   19.8161 N   0  0  0  0  0  0  0  0  0  0  0  0
   12.1854  -15.3949   19.1515 C   0  0  0  0  0  0  0  0  0  0  0  0
   12.2365  -16.6410   19.3344 O   0  0  0  0  0  0  0  0  0  0  0  0
   13.3063  -14.5742   19.4363 N   0  0  0  0  0  0  0  0  0  0  0  0
   14.5807  -15.0779   19.8872 C   0  0  1  0  0  0  0  0  0  0  0  0
   15.7762  -14.6849   19.0912 C   0  0  0  0  0  0  0  0  0  0  0  0
   15.7793  -15.0620   17.6451 C   0  0  0  0  0  0  0  0  0  0  0  0
   16.9167  -14.5142   16.9274 C   0  0  0  0  0  0  0  0  0  0  0  0
   16.7170  -13.6584   16.0072 O   0  0  0  0  0  0  0  0  0  0  0  0
   14.7738  -14.7762   21.3079 C   0  0  0  0  0  0  0  0  0  0  0  0
   14.9440  -13.5757   21.6988 O   0  0  0  0  0  0  0  0  0  0  0  0
   18.1999  -14.9108   17.2302 O   0  0  0  0  0  0  0  0  0  0  0  0
   14.7873  -15.7592   22.3341 N   0  0  0  0  0  0  0  0  0  0  0  0
   14.9614  -15.4104   23.7374 C   0  0  0  0  0  0  0  0  0  0  0  0
   14.8435  -16.6025   24.5996 C   0  0  0  0  0  0  0  0  0  0  0  0
   14.5362  -17.6958   24.0716 O   0  0  0  0  0  0  0  0  0  0  0  0
   15.0773  -16.4626   25.9548 O   0  0  0  0  0  0  0  0  0  0  0  0
  2  1  1  1
  2  9  1  0
  3  4  1  0
  3  2  1  0
  4  5  2  0
  5  6  1  0
  7  6  1  0
  8  4  1  0
  8  7  2  0
  9 11  1  0
  9 10  2  0
 11 12  1  0
 12 17  1  0
 13 14  1  0
 12 13  1  6
 14 15  1  0
 15 16  2  0
 15 19  1  0
 17 18  2  0
 17 20  1  0
 20 21  1  0
 21 22  1  0
 22 24  1  0
 23 22  2  0
M  END
$$$$
