HEG.pdb
     RDKit          3D

 24 24  0  0  1  0  0  0  0  0999 V2000
    5.7257  -19.4689   18.6795 N   0  0  0  0  0  0  0  0  0  0  0  0
    6.3658  -18.4909   19.5404 C   0  0  1  0  0  0  0  0  0  0  0  0
    6.4411  -17.1886   18.8247 C   0  0  0  0  0  0  0  0  0  0  0  0
    7.2293  -17.3097   17.5740 C   0  0  0  0  0  0  0  0  0  0  0  0
    8.5805  -17.5379   17.4757 C   0  0  0  0  0  0  0  0  0  0  0  0
    8.8656  -17.5732   16.1718 N   0  0  0  0  0  0  0  0  0  0  0  0
    7.7542  -17.3774   15.4481 C   0  0  0  0  0  0  0  0  0  0  0  0
    6.7348  -17.2135   16.3376 N   0  0  0  0  0  0  0  0  0  0  0  0
    5.7134  -18.3906   20.8535 C   0  0  0  0  0  0  0  0  0  0  0  0
    4.6358  -17.7424   20.9411 O   0  0  0  0  0  0  0  0  0  0  0  0
    6.2802  -19.0119   21.9953 N   0  0  0  0  0  0  0  0  0  0  0  0
    5.7148  -18.9334   23.3201 C   0  0  1  0  0  0  0  0  0  0  0  0
    4.7372  -19.9921   23.6954 C   0  0  0  0  0  0  0  0  0  0  0  0
    4.8148  -21.2811   22.9431 C   0  0  0  0  0  0  0  0  0  0  0  0
    4.4903  -22.4304   23.7692 C   0  0  0  0  0  0  0  0  0  0  0  0
    5.3288  -22.8253   24.6411 O   0  0  0  0  0  0  0  0  0  0  0  0
    6.7781  -18.8221   24.3219 C   0  0  0  0  0  0  0  0  0  0  0  0
    6.4949  -18.6519   25.5522 O   0  0  0  0  0  0  0  0  0  0  0  0
    3.2930  -23.0931   23.6176 O   0  0  0  0  0  0  0  0  0  0  0  0
    8.1649  -18.8917   24.0194 N   0  0  0  0  0  0  0  0  0  0  0  0
    9.1893  -18.6910   25.0350 C   0  0  0  0  0  0  0  0  0  0  0  0
    9.7881  -19.9757   25.4467 C   0  0  0  0  0  0  0  0  0  0  0  0
    9.3534  -21.0315   24.9320 O   0  0  0  0  0  0  0  0  0  0  0  0
   10.8042  -19.9601   26.3837 O   0  0  0  0  0  0  0  0  0  0  0  0
  2  1  1  6
  2  9  1  0
  3  4  1  0
  3  2  1  0
  4  5  2  0
  5  6  1  0
  7  6  1  0
  8  4  1  0
  8  7  2  0
  9 11  1  0
  9 10  2  0
 11 12  1  0
 12 17  1  0
 13 14  1  0
 12 13  1  1
 14 15  1  0
 15 16  2  0
 15 19  1  0
 17 18  2  0
 17 20  1  0
 20 21  1  0
 21 22  1  0
 22 24  1  0
 23 22  2  0
M  END
$$$$
