HEG.pdb
     RDKit          3D

 24 24  0  0  1  0  0  0  0  0999 V2000
    8.0471  -17.1726   20.5549 N   0  0  0  0  0  0  0  0  0  0  0  0
    9.0864  -16.5015   21.3144 C   0  0  1  0  0  0  0  0  0  0  0  0
    8.5363  -15.2412   21.8827 C   0  0  0  0  0  0  0  0  0  0  0  0
    8.3099  -14.2295   20.8220 C   0  0  0  0  0  0  0  0  0  0  0  0
    8.5351  -14.3887   19.4761 C   0  0  0  0  0  0  0  0  0  0  0  0
    8.1978  -13.2346   18.8956 N   0  0  0  0  0  0  0  0  0  0  0  0
    7.7713  -12.3588   19.8168 C   0  0  0  0  0  0  0  0  0  0  0  0
    7.8459  -12.9935   21.0205 N   0  0  0  0  0  0  0  0  0  0  0  0
    9.6902  -17.3765   22.3292 C   0  0  0  0  0  0  0  0  0  0  0  0
    8.9482  -18.1971   22.9333 O   0  0  0  0  0  0  0  0  0  0  0  0
   11.0763  -17.3029   22.6196 N   0  0  0  0  0  0  0  0  0  0  0  0
   11.7577  -18.1911   23.5294 C   0  0  1  0  0  0  0  0  0  0  0  0
   13.2136  -18.4004   23.2971 C   0  0  0  0  0  0  0  0  0  0  0  0
   13.9256  -19.3094   24.2458 C   0  0  0  0  0  0  0  0  0  0  0  0
   15.3375  -19.4463   23.9350 C   0  0  0  0  0  0  0  0  0  0  0  0
   15.7177  -20.3955   23.1777 O   0  0  0  0  0  0  0  0  0  0  0  0
   11.4991  -17.7960   24.9163 C   0  0  0  0  0  0  0  0  0  0  0  0
   11.6643  -16.5888   25.2885 O   0  0  0  0  0  0  0  0  0  0  0  0
   16.2622  -18.5656   24.4499 O   0  0  0  0  0  0  0  0  0  0  0  0
   11.0583  -18.6911   25.9283 N   0  0  0  0  0  0  0  0  0  0  0  0
   10.8071  -18.2517   27.2940 C   0  0  0  0  0  0  0  0  0  0  0  0
   11.1799  -19.2982   28.2657 C   0  0  0  0  0  0  0  0  0  0  0  0
   11.5768  -20.4042   27.8324 O   0  0  0  0  0  0  0  0  0  0  0  0
   11.0755  -19.0139   29.6144 O   0  0  0  0  0  0  0  0  0  0  0  0
  2  1  1  1
  2  9  1  0
  3  4  1  0
  3  2  1  0
  4  5  2  0
  5  6  1  0
  7  6  1  0
  8  4  1  0
  8  7  2  0
  9 11  1  0
  9 10  2  0
 11 12  1  0
 12 17  1  0
 13 14  1  0
 12 13  1  6
 14 15  1  0
 15 16  2  0
 15 19  1  0
 17 18  2  0
 17 20  1  0
 20 21  1  0
 21 22  1  0
 22 24  1  0
 23 22  2  0
M  END
$$$$
