HEG.pdb
     RDKit          3D

 24 24  0  0  1  0  0  0  0  0999 V2000
   10.9463  -14.8551   21.2225 N   0  0  0  0  0  0  0  0  0  0  0  0
    9.7641  -15.5122   21.7499 C   0  0  1  0  0  0  0  0  0  0  0  0
    8.8049  -15.7527   20.6382 C   0  0  0  0  0  0  0  0  0  0  0  0
    8.5213  -14.5006   19.8952 C   0  0  0  0  0  0  0  0  0  0  0  0
    9.1618  -13.2947   20.0470 C   0  0  0  0  0  0  0  0  0  0  0  0
    8.5904  -12.4503   19.1848 N   0  0  0  0  0  0  0  0  0  0  0  0
    7.6205  -13.0724   18.4994 C   0  0  0  0  0  0  0  0  0  0  0  0
    7.5863  -14.3570   18.9531 N   0  0  0  0  0  0  0  0  0  0  0  0
   10.0915  -16.7309   22.5031 C   0  0  0  0  0  0  0  0  0  0  0  0
    9.1466  -17.4694   22.8913 O   0  0  0  0  0  0  0  0  0  0  0  0
   11.4393  -17.0712   22.7836 N   0  0  0  0  0  0  0  0  0  0  0  0
   11.8350  -18.2009   23.5887 C   0  0  1  0  0  0  0  0  0  0  0  0
   13.1793  -18.7803   23.3158 C   0  0  0  0  0  0  0  0  0  0  0  0
   13.4219  -19.3054   21.9378 C   0  0  0  0  0  0  0  0  0  0  0  0
   14.8199  -19.6151   21.6962 C   0  0  0  0  0  0  0  0  0  0  0  0
   15.1799  -20.8322   21.6058 O   0  0  0  0  0  0  0  0  0  0  0  0
   11.6756  -17.8925   25.0121 C   0  0  0  0  0  0  0  0  0  0  0  0
   11.7091  -16.6869   25.4223 O   0  0  0  0  0  0  0  0  0  0  0  0
   15.7531  -18.6112   21.5666 O   0  0  0  0  0  0  0  0  0  0  0  0
   11.4773  -18.8742   26.0203 N   0  0  0  0  0  0  0  0  0  0  0  0
   11.2591  -18.5174   27.4154 C   0  0  0  0  0  0  0  0  0  0  0  0
   10.9687  -19.7133   28.2303 C   0  0  0  0  0  0  0  0  0  0  0  0
   10.9738  -20.8344   27.6721 O   0  0  0  0  0  0  0  0  0  0  0  0
   10.7030  -19.5460   29.5765 O   0  0  0  0  0  0  0  0  0  0  0  0
  2  1  1  6
  2  9  1  0
  3  4  1  0
  3  2  1  0
  4  5  2  0
  5  6  1  0
  7  6  1  0
  8  4  1  0
  8  7  2  0
  9 11  1  0
  9 10  2  0
 11 12  1  0
 12 17  1  0
 13 14  1  0
 12 13  1  1
 14 15  1  0
 15 16  2  0
 15 19  1  0
 17 18  2  0
 17 20  1  0
 20 21  1  0
 21 22  1  0
 22 24  1  0
 23 22  2  0
M  END
$$$$
