HEG.pdb
     RDKit          3D

 24 24  0  0  1  0  0  0  0  0999 V2000
    7.5026  -16.4299   18.8372 N   0  0  0  0  0  0  0  0  0  0  0  0
    8.8209  -15.8473   19.0100 C   0  0  1  0  0  0  0  0  0  0  0  0
    8.7330  -14.3762   18.8047 C   0  0  0  0  0  0  0  0  0  0  0  0
    8.2380  -14.0541   17.4441 C   0  0  0  0  0  0  0  0  0  0  0  0
    7.1456  -13.2820   17.1310 C   0  0  0  0  0  0  0  0  0  0  0  0
    7.0681  -13.2568   15.7982 N   0  0  0  0  0  0  0  0  0  0  0  0
    8.0626  -13.9782   15.2616 C   0  0  0  0  0  0  0  0  0  0  0  0
    8.7895  -14.4731   16.3027 N   0  0  0  0  0  0  0  0  0  0  0  0
    9.4300  -16.2148   20.2960 C   0  0  0  0  0  0  0  0  0  0  0  0
    8.7039  -16.2153   21.3265 O   0  0  0  0  0  0  0  0  0  0  0  0
   10.8018  -16.5650   20.3761 N   0  0  0  0  0  0  0  0  0  0  0  0
   11.4474  -17.0255   21.5812 C   0  0  1  0  0  0  0  0  0  0  0  0
   11.8283  -18.4642   21.6295 C   0  0  0  0  0  0  0  0  0  0  0  0
   10.8656  -19.4388   21.0323 C   0  0  0  0  0  0  0  0  0  0  0  0
   11.3768  -20.7980   21.0282 C   0  0  0  0  0  0  0  0  0  0  0  0
   12.5027  -21.0398   21.5695 O   0  0  0  0  0  0  0  0  0  0  0  0
   12.5908  -16.1687   21.9057 C   0  0  0  0  0  0  0  0  0  0  0  0
   13.4736  -15.9045   21.0261 O   0  0  0  0  0  0  0  0  0  0  0  0
   10.6603  -21.8198   20.4467 O   0  0  0  0  0  0  0  0  0  0  0  0
   12.8059  -15.5805   23.1814 N   0  0  0  0  0  0  0  0  0  0  0  0
   13.4581  -16.3015   24.2658 C   0  0  0  0  0  0  0  0  0  0  0  0
   14.8953  -16.4913   23.9886 C   0  0  0  0  0  0  0  0  0  0  0  0
   15.2378  -17.3960   23.1932 O   0  0  0  0  0  0  0  0  0  0  0  0
   15.8041  -15.6620   24.6188 O   0  0  0  0  0  0  0  0  0  0  0  0
  2  1  1  1
  2  9  1  0
  3  4  1  0
  3  2  1  0
  4  5  2  0
  5  6  1  0
  7  6  1  0
  8  4  1  0
  8  7  2  0
  9 11  1  0
  9 10  2  0
 11 12  1  0
 12 17  1  0
 13 14  1  0
 12 13  1  6
 14 15  1  0
 15 16  2  0
 15 19  1  0
 17 18  2  0
 17 20  1  0
 20 21  1  0
 21 22  1  0
 22 24  1  0
 23 22  2  0
M  END
$$$$
