WYG.pdb
     RDKit          3D

 31 33  0  0  1  0  0  0  0  0999 V2000
   17.6802  -20.5149    4.8753 N   0  0  0  0  0  0  0  0  0  0  0  0
   17.9760  -19.1103    4.9840 C   0  0  1  0  0  0  0  0  0  0  0  0
   16.7339  -18.3020    4.8982 C   0  0  0  0  0  0  0  0  0  0  0  0
   16.6496  -17.6447    3.5715 C   0  0  0  0  0  0  0  0  0  0  0  0
   15.9296  -18.0922    2.4613 C   0  0  0  0  0  0  0  0  0  0  0  0
   16.0509  -17.2274    1.4422 N   0  0  0  0  0  0  0  0  0  0  0  0
   16.8372  -16.2116    1.8463 C   0  0  0  0  0  0  0  0  0  0  0  0
   17.2863  -15.0785    1.2072 C   0  0  0  0  0  0  0  0  0  0  0  0
   18.1042  -14.2038    1.8765 C   0  0  0  0  0  0  0  0  0  0  0  0
   18.4808  -14.4460    3.1777 C   0  0  0  0  0  0  0  0  0  0  0  0
   18.0371  -15.5807    3.8338 C   0  0  0  0  0  0  0  0  0  0  0  0
   17.2210  -16.4519    3.1675 C   0  0  0  0  0  0  0  0  0  0  0  0
   18.7043  -18.8888    6.2837 C   0  0  0  0  0  0  0  0  0  0  0  0
   18.5414  -19.6771    7.2495 O   0  0  0  0  0  0  0  0  0  0  0  0
   24.6097  -16.3858   12.1816 O   0  0  0  0  0  0  0  0  0  0  0  0
   23.9019  -16.6296   10.9973 C   0  0  0  0  0  0  0  0  0  0  0  0
   23.6214  -17.9510   10.6818 C   0  0  0  0  0  0  0  0  0  0  0  0
   22.9176  -18.2619    9.5129 C   0  0  0  0  0  0  0  0  0  0  0  0
   22.5124  -17.2505    8.6905 C   0  0  0  0  0  0  0  0  0  0  0  0
   21.7692  -17.5415    7.4517 C   0  0  0  0  0  0  0  0  0  0  0  0
   20.3097  -17.5913    7.7278 C   0  0  2  0  0  0  0  0  0  0  0  0
   19.5955  -17.8028    6.4891 N   0  0  0  0  0  0  0  0  0  0  0  0
   19.7345  -16.4714    8.4419 C   0  0  0  0  0  0  0  0  0  0  0  0
   19.6462  -15.3621    7.8019 O   0  0  0  0  0  0  0  0  0  0  0  0
   22.7927  -15.9528    9.0086 C   0  0  0  0  0  0  0  0  0  0  0  0
   23.4904  -15.6233   10.1646 C   0  0  0  0  0  0  0  0  0  0  0  0
   19.2628  -16.4691    9.7602 N   0  0  0  0  0  0  0  0  0  0  0  0
   19.7925  -17.3569   10.7610 C   0  0  0  0  0  0  0  0  0  0  0  0
   18.8125  -18.3805   11.1874 C   0  0  0  0  0  0  0  0  0  0  0  0
   19.0637  -19.3898   12.0893 O   0  0  0  0  0  0  0  0  0  0  0  0
   17.6631  -18.3105   10.6772 O   0  0  0  0  0  0  0  0  0  0  0  0
  2  1  1  1
  2  3  1  0
  4  3  1  0
  4  5  2  0
  6  5  1  0
  7  6  1  0
  8  7  2  0
  9  8  1  0
 10  9  2  0
 10 11  1  0
 11 12  2  0
 12  7  1  0
 12  4  1  0
 13  2  1  0
 13 14  2  0
 16 26  2  0
 16 15  1  0
 17 16  1  0
 18 19  1  0
 18 17  2  0
 19 25  2  0
 20 19  1  0
 21 20  1  6
 21 22  1  0
 22 13  1  0
 23 21  1  0
 24 23  2  0
 25 26  1  0
 27 23  1  0
 28 27  1  0
 29 28  1  0
 30 29  1  0
 31 29  2  0
M  END
$$$$
