WYG.pdb
     RDKit          3D

 31 33  0  0  1  0  0  0  0  0999 V2000
   26.5073  -21.1967  -15.4587 N   0  0  0  0  0  0  0  0  0  0  0  0
   25.2687  -20.5352  -15.1420 C   0  0  1  0  0  0  0  0  0  0  0  0
   24.2942  -20.6816  -16.2521 C   0  0  0  0  0  0  0  0  0  0  0  0
   24.5320  -19.6342  -17.2747 C   0  0  0  0  0  0  0  0  0  0  0  0
   25.4811  -19.6666  -18.2991 C   0  0  0  0  0  0  0  0  0  0  0  0
   25.3892  -18.5651  -19.0604 N   0  0  0  0  0  0  0  0  0  0  0  0
   24.3998  -17.7963  -18.5668 C   0  0  0  0  0  0  0  0  0  0  0  0
   23.8970  -16.5749  -18.9532 C   0  0  0  0  0  0  0  0  0  0  0  0
   22.8693  -16.0107  -18.2409 C   0  0  0  0  0  0  0  0  0  0  0  0
   22.3360  -16.6508  -17.1457 C   0  0  0  0  0  0  0  0  0  0  0  0
   22.8306  -17.8795  -16.7452 C   0  0  0  0  0  0  0  0  0  0  0  0
   23.8539  -18.4426  -17.4556 C   0  0  0  0  0  0  0  0  0  0  0  0
   24.7479  -21.1171  -13.8541 C   0  0  0  0  0  0  0  0  0  0  0  0
   24.5640  -22.3558  -13.7413 O   0  0  0  0  0  0  0  0  0  0  0  0
   30.2587  -21.0163  -11.0979 O   0  0  0  0  0  0  0  0  0  0  0  0
   28.8772  -20.8721  -10.9153 C   0  0  0  0  0  0  0  0  0  0  0  0
   28.3915  -19.5899  -10.7045 C   0  0  0  0  0  0  0  0  0  0  0  0
   27.0212  -19.3780  -10.5153 C   0  0  0  0  0  0  0  0  0  0  0  0
   26.1722  -20.4467  -10.5410 C   0  0  0  0  0  0  0  0  0  0  0  0
   24.7236  -20.2603  -10.3456 C   0  0  0  0  0  0  0  0  0  0  0  0
   23.9701  -20.8733  -11.4705 C   0  0  2  0  0  0  0  0  0  0  0  0
   24.4416  -20.3200  -12.7198 N   0  0  0  0  0  0  0  0  0  0  0  0
   22.5257  -20.8004  -11.4145 C   0  0  0  0  0  0  0  0  0  0  0  0
   21.9640  -21.2690  -10.3595 O   0  0  0  0  0  0  0  0  0  0  0  0
   26.6587  -21.7052  -10.7491 C   0  0  0  0  0  0  0  0  0  0  0  0
   28.0159  -21.9366  -10.9391 C   0  0  0  0  0  0  0  0  0  0  0  0
   21.6732  -20.2717  -12.3913 N   0  0  0  0  0  0  0  0  0  0  0  0
   20.2459  -20.2276  -12.2145 C   0  0  0  0  0  0  0  0  0  0  0  0
   19.5910  -21.5076  -12.5650 C   0  0  0  0  0  0  0  0  0  0  0  0
   20.2402  -22.6257  -13.0376 O   0  0  0  0  0  0  0  0  0  0  0  0
   18.3417  -21.5637  -12.4140 O   0  0  0  0  0  0  0  0  0  0  0  0
  2  1  1  6
  2  3  1  0
  4  3  1  0
  4  5  2  0
  6  5  1  0
  7  6  1  0
  8  7  2  0
  9  8  1  0
 10  9  2  0
 10 11  1  0
 11 12  2  0
 12  7  1  0
 12  4  1  0
 13  2  1  0
 13 14  2  0
 16 26  2  0
 16 15  1  0
 17 16  1  0
 18 19  1  0
 18 17  2  0
 19 25  2  0
 20 19  1  0
 21 20  1  1
 21 22  1  0
 22 13  1  0
 23 21  1  0
 24 23  2  0
 25 26  1  0
 27 23  1  0
 28 27  1  0
 29 28  1  0
 30 29  1  0
 31 29  2  0
M  END
$$$$
