WYG.pdb
     RDKit          3D

 31 33  0  0  1  0  0  0  0  0999 V2000
   24.0826  -19.6312  -11.2456 N   0  0  0  0  0  0  0  0  0  0  0  0
   25.4862  -19.9405  -11.3259 C   0  0  1  0  0  0  0  0  0  0  0  0
   25.8004  -21.1686  -10.5536 C   0  0  0  0  0  0  0  0  0  0  0  0
   25.9807  -20.8319   -9.1206 C   0  0  0  0  0  0  0  0  0  0  0  0
   24.9724  -20.6579   -8.1697 C   0  0  0  0  0  0  0  0  0  0  0  0
   25.5024  -20.3976   -6.9645 N   0  0  0  0  0  0  0  0  0  0  0  0
   26.8433  -20.3929   -7.0888 C   0  0  0  0  0  0  0  0  0  0  0  0
   27.8556  -20.1750   -6.1823 C   0  0  0  0  0  0  0  0  0  0  0  0
   29.1609  -20.2223   -6.6021 C   0  0  0  0  0  0  0  0  0  0  0  0
   29.4694  -20.4846   -7.9172 C   0  0  0  0  0  0  0  0  0  0  0  0
   28.4625  -20.7062   -8.8402 C   0  0  0  0  0  0  0  0  0  0  0  0
   27.1618  -20.6603   -8.4221 C   0  0  0  0  0  0  0  0  0  0  0  0
   25.8477  -20.0817  -12.7813 C   0  0  0  0  0  0  0  0  0  0  0  0
   24.9946  -20.4777  -13.6157 O   0  0  0  0  0  0  0  0  0  0  0  0
   28.3770  -17.6640  -20.5876 O   0  0  0  0  0  0  0  0  0  0  0  0
   28.3327  -17.8568  -19.2006 C   0  0  0  0  0  0  0  0  0  0  0  0
   27.1447  -17.5537  -18.5516 C   0  0  0  0  0  0  0  0  0  0  0  0
   27.0352  -17.7244  -17.1669 C   0  0  0  0  0  0  0  0  0  0  0  0
   28.1097  -18.1915  -16.4664 C   0  0  0  0  0  0  0  0  0  0  0  0
   28.0297  -18.3833  -15.0075 C   0  0  0  0  0  0  0  0  0  0  0  0
   27.4433  -19.7128  -14.6954 C   0  0  2  0  0  0  0  0  0  0  0  0
   27.1417  -19.7831  -13.2836 N   0  0  0  0  0  0  0  0  0  0  0  0
   28.2023  -20.8788  -15.0946 C   0  0  0  0  0  0  0  0  0  0  0  0
   29.4580  -20.7084  -15.3000 O   0  0  0  0  0  0  0  0  0  0  0  0
   29.2751  -18.4873  -17.1131 C   0  0  0  0  0  0  0  0  0  0  0  0
   29.4040  -18.3248  -18.4873 C   0  0  0  0  0  0  0  0  0  0  0  0
   27.7114  -22.1768  -15.2810 N   0  0  0  0  0  0  0  0  0  0  0  0
   27.2948  -22.6562  -16.5721 C   0  0  0  0  0  0  0  0  0  0  0  0
   28.4307  -22.8395  -17.5029 C   0  0  0  0  0  0  0  0  0  0  0  0
   28.7487  -21.9925  -18.5405 O   0  0  0  0  0  0  0  0  0  0  0  0
   29.1544  -23.8539  -17.3193 O   0  0  0  0  0  0  0  0  0  0  0  0
  2  1  1  6
  2  3  1  0
  4  3  1  0
  4  5  2  0
  6  5  1  0
  7  6  1  0
  8  7  2  0
  9  8  1  0
 10  9  2  0
 10 11  1  0
 11 12  2  0
 12  7  1  0
 12  4  1  0
 13  2  1  0
 13 14  2  0
 16 26  2  0
 16 15  1  0
 17 16  1  0
 18 19  1  0
 18 17  2  0
 19 25  2  0
 20 19  1  0
 21 20  1  1
 21 22  1  0
 22 13  1  0
 23 21  1  0
 24 23  2  0
 25 26  1  0
 27 23  1  0
 28 27  1  0
 29 28  1  0
 30 29  1  0
 31 29  2  0
M  END
$$$$
