WYG.pdb
     RDKit          3D

 31 33  0  0  1  0  0  0  0  0999 V2000
   26.3008  -22.0609  -12.2977 N   0  0  0  0  0  0  0  0  0  0  0  0
   25.4996  -21.3082  -11.3683 C   0  0  1  0  0  0  0  0  0  0  0  0
   26.2240  -20.0968  -10.9087 C   0  0  0  0  0  0  0  0  0  0  0  0
   27.4394  -20.4902  -10.1556 C   0  0  0  0  0  0  0  0  0  0  0  0
   28.5800  -21.1083  -10.6736 C   0  0  0  0  0  0  0  0  0  0  0  0
   29.4986  -21.2829   -9.7109 N   0  0  0  0  0  0  0  0  0  0  0  0
   28.9969  -20.7957   -8.5600 C   0  0  0  0  0  0  0  0  0  0  0  0
   29.5071  -20.7284   -7.2836 C   0  0  0  0  0  0  0  0  0  0  0  0
   28.7507  -20.1757   -6.2814 C   0  0  0  0  0  0  0  0  0  0  0  0
   27.4893  -19.6887   -6.5370 C   0  0  0  0  0  0  0  0  0  0  0  0
   26.9629  -19.7490   -7.8153 C   0  0  0  0  0  0  0  0  0  0  0  0
   27.7168  -20.2985   -8.8145 C   0  0  0  0  0  0  0  0  0  0  0  0
   24.2003  -20.9643  -12.0483 C   0  0  0  0  0  0  0  0  0  0  0  0
   23.7944  -19.7750  -12.0858 O   0  0  0  0  0  0  0  0  0  0  0  0
   25.3399  -18.0340  -17.4078 O   0  0  0  0  0  0  0  0  0  0  0  0
   24.6064  -19.0284  -16.7474 C   0  0  0  0  0  0  0  0  0  0  0  0
   23.2416  -18.8258  -16.6040 C   0  0  0  0  0  0  0  0  0  0  0  0
   22.4522  -19.7812  -15.9540 C   0  0  0  0  0  0  0  0  0  0  0  0
   23.0417  -20.9112  -15.4649 C   0  0  0  0  0  0  0  0  0  0  0  0
   22.2409  -21.9381  -14.7752 C   0  0  0  0  0  0  0  0  0  0  0  0
   22.1313  -21.6181  -13.3280 C   0  0  2  0  0  0  0  0  0  0  0  0
   23.3780  -21.9398  -12.6712 N   0  0  0  0  0  0  0  0  0  0  0  0
   21.0269  -22.2096  -12.6032 C   0  0  0  0  0  0  0  0  0  0  0  0
   21.2565  -23.3240  -12.0088 O   0  0  0  0  0  0  0  0  0  0  0  0
   24.3856  -21.1025  -15.6104 C   0  0  0  0  0  0  0  0  0  0  0  0
   25.1868  -20.1659  -16.2526 C   0  0  0  0  0  0  0  0  0  0  0  0
   19.7308  -21.6941  -12.4809 N   0  0  0  0  0  0  0  0  0  0  0  0
   18.7004  -22.3868  -11.7538 C   0  0  0  0  0  0  0  0  0  0  0  0
   17.4285  -21.6313  -11.7135 C   0  0  0  0  0  0  0  0  0  0  0  0
   16.2739  -22.0571  -11.0965 O   0  0  0  0  0  0  0  0  0  0  0  0
   17.4162  -20.5131  -12.2931 O   0  0  0  0  0  0  0  0  0  0  0  0
  2  1  1  6
  2  3  1  0
  4  3  1  0
  4  5  2  0
  6  5  1  0
  7  6  1  0
  8  7  2  0
  9  8  1  0
 10  9  2  0
 10 11  1  0
 11 12  2  0
 12  7  1  0
 12  4  1  0
 13  2  1  0
 13 14  2  0
 16 26  2  0
 16 15  1  0
 17 16  1  0
 18 19  1  0
 18 17  2  0
 19 25  2  0
 20 19  1  0
 21 20  1  6
 21 22  1  0
 22 13  1  0
 23 21  1  0
 24 23  2  0
 25 26  1  0
 27 23  1  0
 28 27  1  0
 29 28  1  0
 30 29  1  0
 31 29  2  0
M  END
$$$$
