WYG.pdb
     RDKit          3D

 31 33  0  0  1  0  0  0  0  0999 V2000
   20.2663  -18.7667  -19.1240 N   0  0  0  0  0  0  0  0  0  0  0  0
   19.5202  -17.5795  -18.7983 C   0  0  1  0  0  0  0  0  0  0  0  0
   20.1484  -16.3792  -19.4052 C   0  0  0  0  0  0  0  0  0  0  0  0
   21.6074  -16.5956  -19.5585 C   0  0  0  0  0  0  0  0  0  0  0  0
   22.3953  -17.5094  -18.8546 C   0  0  0  0  0  0  0  0  0  0  0  0
   23.6674  -17.4587  -19.2793 N   0  0  0  0  0  0  0  0  0  0  0  0
   23.7477  -16.5302  -20.2514 C   0  0  0  0  0  0  0  0  0  0  0  0
   24.8007  -16.0761  -21.0122 C   0  0  0  0  0  0  0  0  0  0  0  0
   24.5873  -15.0907  -21.9426 C   0  0  0  0  0  0  0  0  0  0  0  0
   23.3342  -14.5516  -22.1236 C   0  0  0  0  0  0  0  0  0  0  0  0
   22.2655  -14.9982  -21.3665 C   0  0  0  0  0  0  0  0  0  0  0  0
   22.4776  -15.9809  -20.4402 C   0  0  0  0  0  0  0  0  0  0  0  0
   18.1045  -17.7762  -19.2734 C   0  0  0  0  0  0  0  0  0  0  0  0
   17.5750  -16.9521  -20.0616 O   0  0  0  0  0  0  0  0  0  0  0  0
   10.8420  -20.1608  -22.8899 O   0  0  0  0  0  0  0  0  0  0  0  0
   12.1119  -19.8484  -22.3874 C   0  0  0  0  0  0  0  0  0  0  0  0
   12.9412  -20.9066  -22.0454 C   0  0  0  0  0  0  0  0  0  0  0  0
   14.2222  -20.6619  -21.5379 C   0  0  0  0  0  0  0  0  0  0  0  0
   14.6428  -19.3723  -21.3845 C   0  0  0  0  0  0  0  0  0  0  0  0
   15.9854  -19.0781  -20.8531 C   0  0  0  0  0  0  0  0  0  0  0  0
   15.9677  -19.1071  -19.3673 C   0  0  2  0  0  0  0  0  0  0  0  0
   17.3046  -18.8772  -18.8684 N   0  0  0  0  0  0  0  0  0  0  0  0
   15.4029  -20.2812  -18.7369 C   0  0  0  0  0  0  0  0  0  0  0  0
   14.1961  -20.5831  -19.0539 O   0  0  0  0  0  0  0  0  0  0  0  0
   13.8202  -18.3369  -21.7236 C   0  0  0  0  0  0  0  0  0  0  0  0
   12.5447  -18.5587  -22.2292 C   0  0  0  0  0  0  0  0  0  0  0  0
   16.0344  -21.1254  -17.8155 N   0  0  0  0  0  0  0  0  0  0  0  0
   15.6938  -21.1189  -16.4176 C   0  0  0  0  0  0  0  0  0  0  0  0
   16.8119  -20.6606  -15.5632 C   0  0  0  0  0  0  0  0  0  0  0  0
   17.3476  -21.3703  -14.5122 O   0  0  0  0  0  0  0  0  0  0  0  0
   17.3018  -19.5314  -15.8302 O   0  0  0  0  0  0  0  0  0  0  0  0
  2  1  1  6
  2  3  1  0
  4  3  1  0
  4  5  2  0
  6  5  1  0
  7  6  1  0
  8  7  2  0
  9  8  1  0
 10  9  2  0
 10 11  1  0
 11 12  2  0
 12  7  1  0
 12  4  1  0
 13  2  1  0
 13 14  2  0
 16 26  2  0
 16 15  1  0
 17 16  1  0
 18 19  1  0
 18 17  2  0
 19 25  2  0
 20 19  1  0
 21 20  1  6
 21 22  1  0
 22 13  1  0
 23 21  1  0
 24 23  2  0
 25 26  1  0
 27 23  1  0
 28 27  1  0
 29 28  1  0
 30 29  1  0
 31 29  2  0
M  END
$$$$
