WYG.pdb
     RDKit          3D

 31 33  0  0  1  0  0  0  0  0999 V2000
   23.8632  -18.9534  -15.4737 N   0  0  0  0  0  0  0  0  0  0  0  0
   23.8537  -20.3929  -15.4816 C   0  0  1  0  0  0  0  0  0  0  0  0
   24.9512  -20.9225  -16.3292 C   0  0  0  0  0  0  0  0  0  0  0  0
   24.8012  -20.4259  -17.7185 C   0  0  0  0  0  0  0  0  0  0  0  0
   25.7496  -19.7170  -18.4596 C   0  0  0  0  0  0  0  0  0  0  0  0
   25.2877  -19.4625  -19.6937 N   0  0  0  0  0  0  0  0  0  0  0  0
   24.0506  -19.9851  -19.7939 C   0  0  0  0  0  0  0  0  0  0  0  0
   23.1349  -20.0043  -20.8211 C   0  0  0  0  0  0  0  0  0  0  0  0
   21.9204  -20.6140  -20.6329 C   0  0  0  0  0  0  0  0  0  0  0  0
   21.6074  -21.2055  -19.4305 C   0  0  0  0  0  0  0  0  0  0  0  0
   22.5179  -21.1947  -18.3886 C   0  0  0  0  0  0  0  0  0  0  0  0
   23.7286  -20.5883  -18.5761 C   0  0  0  0  0  0  0  0  0  0  0  0
   23.9641  -20.8654  -14.0557 C   0  0  0  0  0  0  0  0  0  0  0  0
   24.0851  -22.0897  -13.7962 O   0  0  0  0  0  0  0  0  0  0  0  0
   30.0342  -20.7244  -13.2850 O   0  0  0  0  0  0  0  0  0  0  0  0
   28.7888  -20.4405  -12.7093 C   0  0  0  0  0  0  0  0  0  0  0  0
   28.4045  -21.1988  -11.6131 C   0  0  0  0  0  0  0  0  0  0  0  0
   27.1723  -20.9651  -10.9922 C   0  0  0  0  0  0  0  0  0  0  0  0
   26.3569  -19.9842  -11.4783 C   0  0  0  0  0  0  0  0  0  0  0  0
   25.0528  -19.7109  -10.8490 C   0  0  0  0  0  0  0  0  0  0  0  0
   23.9716  -20.4270  -11.5751 C   0  0  2  0  0  0  0  0  0  0  0  0
   23.9383  -19.9773  -12.9483 N   0  0  0  0  0  0  0  0  0  0  0  0
   22.6423  -20.3669  -11.0057 C   0  0  0  0  0  0  0  0  0  0  0  0
   22.5006  -20.8344   -9.8185 O   0  0  0  0  0  0  0  0  0  0  0  0
   26.7430  -19.2426  -12.5576 C   0  0  0  0  0  0  0  0  0  0  0  0
   27.9624  -19.4590  -13.1882 C   0  0  0  0  0  0  0  0  0  0  0  0
   21.4910  -19.8516  -11.6135 N   0  0  0  0  0  0  0  0  0  0  0  0
   20.2132  -19.8547  -10.9520 C   0  0  0  0  0  0  0  0  0  0  0  0
   19.2183  -20.7043  -11.6437 C   0  0  0  0  0  0  0  0  0  0  0  0
   18.2822  -20.2522  -12.5463 O   0  0  0  0  0  0  0  0  0  0  0  0
   19.2416  -21.9348  -11.3761 O   0  0  0  0  0  0  0  0  0  0  0  0
  2  1  1  1
  2  3  1  0
  4  3  1  0
  4  5  2  0
  6  5  1  0
  7  6  1  0
  8  7  2  0
  9  8  1  0
 10  9  2  0
 10 11  1  0
 11 12  2  0
 12  7  1  0
 12  4  1  0
 13  2  1  0
 13 14  2  0
 16 26  2  0
 16 15  1  0
 17 16  1  0
 18 19  1  0
 18 17  2  0
 19 25  2  0
 20 19  1  0
 21 20  1  1
 21 22  1  0
 22 13  1  0
 23 21  1  0
 24 23  2  0
 25 26  1  0
 27 23  1  0
 28 27  1  0
 29 28  1  0
 30 29  1  0
 31 29  2  0
M  END
$$$$
