WYG.pdb
     RDKit          3D

 31 33  0  0  1  0  0  0  0  0999 V2000
   23.1856  -11.1380  -17.0093 N   0  0  0  0  0  0  0  0  0  0  0  0
   22.2920  -10.6239  -18.0141 C   0  0  1  0  0  0  0  0  0  0  0  0
   21.8067  -11.7150  -18.8957 C   0  0  0  0  0  0  0  0  0  0  0  0
   22.9457  -12.3122  -19.6342 C   0  0  0  0  0  0  0  0  0  0  0  0
   23.7854  -13.3361  -19.1894 C   0  0  0  0  0  0  0  0  0  0  0  0
   24.6848  -13.6507  -20.1345 N   0  0  0  0  0  0  0  0  0  0  0  0
   24.4655  -12.8589  -21.2015 C   0  0  0  0  0  0  0  0  0  0  0  0
   25.0927  -12.7568  -22.4222 C   0  0  0  0  0  0  0  0  0  0  0  0
   24.6519  -11.8310  -23.3336 C   0  0  0  0  0  0  0  0  0  0  0  0
   23.5913  -11.0041  -23.0418 C   0  0  0  0  0  0  0  0  0  0  0  0
   22.9503  -11.0952  -21.8189 C   0  0  0  0  0  0  0  0  0  0  0  0
   23.3885  -12.0185  -20.9109 C   0  0  0  0  0  0  0  0  0  0  0  0
   21.1601   -9.9204  -17.3122 C   0  0  0  0  0  0  0  0  0  0  0  0
   20.2024   -9.4388  -17.9691 O   0  0  0  0  0  0  0  0  0  0  0  0
   16.2234  -13.6311  -17.2887 O   0  0  0  0  0  0  0  0  0  0  0  0
   17.0283  -12.7584  -16.5448 C   0  0  0  0  0  0  0  0  0  0  0  0
   16.5448  -11.4774  -16.3221 C   0  0  0  0  0  0  0  0  0  0  0  0
   17.3002  -10.5574  -15.5864 C   0  0  0  0  0  0  0  0  0  0  0  0
   18.5151  -10.9367  -15.0927 C   0  0  0  0  0  0  0  0  0  0  0  0
   19.3370   -9.9939  -14.3136 C   0  0  0  0  0  0  0  0  0  0  0  0
   20.0470   -9.0575  -15.2236 C   0  0  2  0  0  0  0  0  0  0  0  0
   21.1101   -9.7637  -15.9020 N   0  0  0  0  0  0  0  0  0  0  0  0
   20.5609   -7.8354  -14.6429 C   0  0  0  0  0  0  0  0  0  0  0  0
   19.7207   -7.0976  -14.0122 O   0  0  0  0  0  0  0  0  0  0  0  0
   18.9833  -12.1994  -15.3165 C   0  0  0  0  0  0  0  0  0  0  0  0
   18.2486  -13.1276  -16.0445 C   0  0  0  0  0  0  0  0  0  0  0  0
   21.8806   -7.3708  -14.6958 N   0  0  0  0  0  0  0  0  0  0  0  0
   22.3132   -6.2174  -13.9522 C   0  0  0  0  0  0  0  0  0  0  0  0
   21.9998   -4.9467  -14.6430 C   0  0  0  0  0  0  0  0  0  0  0  0
   21.3463   -4.8420  -15.8502 O   0  0  0  0  0  0  0  0  0  0  0  0
   22.3655   -3.8863  -14.0701 O   0  0  0  0  0  0  0  0  0  0  0  0
  2  1  1  1
  2  3  1  0
  4  3  1  0
  4  5  2  0
  6  5  1  0
  7  6  1  0
  8  7  2  0
  9  8  1  0
 10  9  2  0
 10 11  1  0
 11 12  2  0
 12  7  1  0
 12  4  1  0
 13  2  1  0
 13 14  2  0
 16 26  2  0
 16 15  1  0
 17 16  1  0
 18 19  1  0
 18 17  2  0
 19 25  2  0
 20 19  1  0
 21 20  1  1
 21 22  1  0
 22 13  1  0
 23 21  1  0
 24 23  2  0
 25 26  1  0
 27 23  1  0
 28 27  1  0
 29 28  1  0
 30 29  1  0
 31 29  2  0
M  END
$$$$
