WYG.pdb
     RDKit          3D

 31 33  0  0  1  0  0  0  0  0999 V2000
   26.9542  -21.3010  -12.0788 N   0  0  0  0  0  0  0  0  0  0  0  0
   26.2480  -21.2317  -10.8263 C   0  0  1  0  0  0  0  0  0  0  0  0
   27.0229  -20.4547   -9.8267 C   0  0  0  0  0  0  0  0  0  0  0  0
   28.3463  -21.0879   -9.6102 C   0  0  0  0  0  0  0  0  0  0  0  0
   29.1259  -21.7429  -10.5665 C   0  0  0  0  0  0  0  0  0  0  0  0
   30.2814  -22.1598  -10.0260 N   0  0  0  0  0  0  0  0  0  0  0  0
   30.2913  -21.7986   -8.7287 C   0  0  0  0  0  0  0  0  0  0  0  0
   31.2152  -21.9800   -7.7249 C   0  0  0  0  0  0  0  0  0  0  0  0
   30.9483  -21.5041   -6.4662 C   0  0  0  0  0  0  0  0  0  0  0  0
   29.7690  -20.8486   -6.1958 C   0  0  0  0  0  0  0  0  0  0  0  0
   28.8306  -20.6582   -7.1947 C   0  0  0  0  0  0  0  0  0  0  0  0
   29.0967  -21.1311   -8.4494 C   0  0  0  0  0  0  0  0  0  0  0  0
   24.8958  -20.6224  -11.0891 C   0  0  0  0  0  0  0  0  0  0  0  0
   24.6615  -19.4279  -10.7744 O   0  0  0  0  0  0  0  0  0  0  0  0
   17.8507  -16.9784  -13.8496 O   0  0  0  0  0  0  0  0  0  0  0  0
   19.0691  -17.6242  -13.6021 C   0  0  0  0  0  0  0  0  0  0  0  0
   19.4667  -18.6034  -14.5007 C   0  0  0  0  0  0  0  0  0  0  0  0
   20.6735  -19.2859  -14.3103 C   0  0  0  0  0  0  0  0  0  0  0  0
   21.4512  -18.9758  -13.2320 C   0  0  0  0  0  0  0  0  0  0  0  0
   22.7279  -19.6743  -13.0007 C   0  0  0  0  0  0  0  0  0  0  0  0
   22.5486  -20.7530  -11.9942 C   0  0  2  0  0  0  0  0  0  0  0  0
   23.8326  -21.3442  -11.6928 N   0  0  0  0  0  0  0  0  0  0  0  0
   21.5896  -21.7919  -12.3042 C   0  0  0  0  0  0  0  0  0  0  0  0
   21.9717  -22.7059  -13.1206 O   0  0  0  0  0  0  0  0  0  0  0  0
   21.0522  -18.0107  -12.3526 C   0  0  0  0  0  0  0  0  0  0  0  0
   19.8575  -17.3216  -12.5239 C   0  0  0  0  0  0  0  0  0  0  0  0
   20.2858  -21.9066  -11.8068 N   0  0  0  0  0  0  0  0  0  0  0  0
   19.4162  -22.9871  -12.1895 C   0  0  0  0  0  0  0  0  0  0  0  0
   18.4097  -22.5770  -13.1938 C   0  0  0  0  0  0  0  0  0  0  0  0
   17.3833  -23.3698  -13.6556 O   0  0  0  0  0  0  0  0  0  0  0  0
   18.5124  -21.4087  -13.6532 O   0  0  0  0  0  0  0  0  0  0  0  0
  2  1  1  6
  2  3  1  0
  4  3  1  0
  4  5  2  0
  6  5  1  0
  7  6  1  0
  8  7  2  0
  9  8  1  0
 10  9  2  0
 10 11  1  0
 11 12  2  0
 12  7  1  0
 12  4  1  0
 13  2  1  0
 13 14  2  0
 16 26  2  0
 16 15  1  0
 17 16  1  0
 18 19  1  0
 18 17  2  0
 19 25  2  0
 20 19  1  0
 21 20  1  6
 21 22  1  0
 22 13  1  0
 23 21  1  0
 24 23  2  0
 25 26  1  0
 27 23  1  0
 28 27  1  0
 29 28  1  0
 30 29  1  0
 31 29  2  0
M  END
$$$$
