WYG.pdb
     RDKit          3D

 31 33  0  0  1  0  0  0  0  0999 V2000
   26.4294  -22.6008  -18.1933 N   0  0  0  0  0  0  0  0  0  0  0  0
   26.0219  -21.3472  -17.6149 C   0  0  1  0  0  0  0  0  0  0  0  0
   24.8205  -20.8142  -18.3047 C   0  0  0  0  0  0  0  0  0  0  0  0
   25.1174  -20.5974  -19.7414 C   0  0  0  0  0  0  0  0  0  0  0  0
   24.7219  -21.4080  -20.8081 C   0  0  0  0  0  0  0  0  0  0  0  0
   25.1360  -20.8870  -21.9735 N   0  0  0  0  0  0  0  0  0  0  0  0
   25.8006  -19.7458  -21.7094 C   0  0  0  0  0  0  0  0  0  0  0  0
   26.4303  -18.8324  -22.5238 C   0  0  0  0  0  0  0  0  0  0  0  0
   27.0496  -17.7429  -21.9656 C   0  0  0  0  0  0  0  0  0  0  0  0
   27.0487  -17.5531  -20.6026 C   0  0  0  0  0  0  0  0  0  0  0  0
   26.4194  -18.4626  -19.7710 C   0  0  0  0  0  0  0  0  0  0  0  0
   25.8012  -19.5477  -20.3270 C   0  0  0  0  0  0  0  0  0  0  0  0
   25.7755  -21.5723  -16.1461 C   0  0  0  0  0  0  0  0  0  0  0  0
   25.2783  -22.6535  -15.7403 O   0  0  0  0  0  0  0  0  0  0  0  0
   25.0944  -20.6959   -7.5020 O   0  0  0  0  0  0  0  0  0  0  0  0
   25.5136  -20.5919   -8.8348 C   0  0  0  0  0  0  0  0  0  0  0  0
   25.7136  -21.7725   -9.5351 C   0  0  0  0  0  0  0  0  0  0  0  0
   26.1323  -21.7373  -10.8700 C   0  0  0  0  0  0  0  0  0  0  0  0
   26.3403  -20.5295  -11.4712 C   0  0  0  0  0  0  0  0  0  0  0  0
   26.7811  -20.4552  -12.8753 C   0  0  0  0  0  0  0  0  0  0  0  0
   25.6334  -20.6981  -13.7878 C   0  0  2  0  0  0  0  0  0  0  0  0
   26.0826  -20.6000  -15.1581 N   0  0  0  0  0  0  0  0  0  0  0  0
   24.4543  -19.8805  -13.5972 C   0  0  0  0  0  0  0  0  0  0  0  0
   24.6453  -18.6753  -13.1982 O   0  0  0  0  0  0  0  0  0  0  0  0
   26.1410  -19.3724  -10.7745 C   0  0  0  0  0  0  0  0  0  0  0  0
   25.7254  -19.3860   -9.4484 C   0  0  0  0  0  0  0  0  0  0  0  0
   23.1237  -20.2650  -13.8024 N   0  0  0  0  0  0  0  0  0  0  0  0
   22.1390  -20.1921  -12.7558 C   0  0  0  0  0  0  0  0  0  0  0  0
   21.4435  -21.4804  -12.5404 C   0  0  0  0  0  0  0  0  0  0  0  0
   20.0829  -21.6308  -12.3943 O   0  0  0  0  0  0  0  0  0  0  0  0
   22.1653  -22.5113  -12.4889 O   0  0  0  0  0  0  0  0  0  0  0  0
  2  1  1  6
  2  3  1  0
  4  3  1  0
  4  5  2  0
  6  5  1  0
  7  6  1  0
  8  7  2  0
  9  8  1  0
 10  9  2  0
 10 11  1  0
 11 12  2  0
 12  7  1  0
 12  4  1  0
 13  2  1  0
 13 14  2  0
 16 26  2  0
 16 15  1  0
 17 16  1  0
 18 19  1  0
 18 17  2  0
 19 25  2  0
 20 19  1  0
 21 20  1  1
 21 22  1  0
 22 13  1  0
 23 21  1  0
 24 23  2  0
 25 26  1  0
 27 23  1  0
 28 27  1  0
 29 28  1  0
 30 29  1  0
 31 29  2  0
M  END
$$$$
