WYG.pdb
     RDKit          3D

 31 33  0  0  1  0  0  0  0  0999 V2000
   26.1738  -19.6305   -9.4990 N   0  0  0  0  0  0  0  0  0  0  0  0
   27.1533  -20.6489   -9.7738 C   0  0  1  0  0  0  0  0  0  0  0  0
   27.6882  -21.2198   -8.5123 C   0  0  0  0  0  0  0  0  0  0  0  0
   27.6622  -20.1934   -7.4423 C   0  0  0  0  0  0  0  0  0  0  0  0
   26.8899  -19.0297   -7.4191 C   0  0  0  0  0  0  0  0  0  0  0  0
   27.0927  -18.3532   -6.2779 N   0  0  0  0  0  0  0  0  0  0  0  0
   27.9846  -19.0387   -5.5375 C   0  0  0  0  0  0  0  0  0  0  0  0
   28.5446  -18.7954   -4.3042 C   0  0  0  0  0  0  0  0  0  0  0  0
   29.4554  -19.6822   -3.7883 C   0  0  0  0  0  0  0  0  0  0  0  0
   29.8154  -20.8106   -4.4889 C   0  0  0  0  0  0  0  0  0  0  0  0
   29.2606  -21.0691   -5.7300 C   0  0  0  0  0  0  0  0  0  0  0  0
   28.3521  -20.1862   -6.2438 C   0  0  0  0  0  0  0  0  0  0  0  0
   26.5023  -21.6983  -10.6362 C   0  0  0  0  0  0  0  0  0  0  0  0
   26.0884  -22.7729  -10.1316 O   0  0  0  0  0  0  0  0  0  0  0  0
   19.0939  -19.5413  -13.8378 O   0  0  0  0  0  0  0  0  0  0  0  0
   20.3868  -19.7277  -13.3315 C   0  0  0  0  0  0  0  0  0  0  0  0
   21.4214  -19.0465  -13.9559 C   0  0  0  0  0  0  0  0  0  0  0  0
   22.7362  -19.1897  -13.4984 C   0  0  0  0  0  0  0  0  0  0  0  0
   22.9855  -20.0059  -12.4330 C   0  0  0  0  0  0  0  0  0  0  0  0
   24.3577  -20.1799  -11.9248 C   0  0  0  0  0  0  0  0  0  0  0  0
   25.0345  -21.2915  -12.6427 C   0  0  2  0  0  0  0  0  0  0  0  0
   26.3226  -21.5389  -12.0356 N   0  0  0  0  0  0  0  0  0  0  0  0
   25.1842  -21.1570  -14.0760 C   0  0  0  0  0  0  0  0  0  0  0  0
   24.1055  -21.1552  -14.7720 O   0  0  0  0  0  0  0  0  0  0  0  0
   21.9613  -20.6726  -11.8244 C   0  0  0  0  0  0  0  0  0  0  0  0
   20.6490  -20.5439  -12.2634 C   0  0  0  0  0  0  0  0  0  0  0  0
   26.3838  -21.0281  -14.7865 N   0  0  0  0  0  0  0  0  0  0  0  0
   26.4098  -20.8717  -16.2166 C   0  0  0  0  0  0  0  0  0  0  0  0
   27.7853  -20.7532  -16.7495 C   0  0  0  0  0  0  0  0  0  0  0  0
   28.2724  -19.6732  -17.4506 O   0  0  0  0  0  0  0  0  0  0  0  0
   28.5597  -21.7237  -16.5375 O   0  0  0  0  0  0  0  0  0  0  0  0
  2  1  1  1
  2  3  1  0
  4  3  1  0
  4  5  2  0
  6  5  1  0
  7  6  1  0
  8  7  2  0
  9  8  1  0
 10  9  2  0
 10 11  1  0
 11 12  2  0
 12  7  1  0
 12  4  1  0
 13  2  1  0
 13 14  2  0
 16 26  2  0
 16 15  1  0
 17 16  1  0
 18 19  1  0
 18 17  2  0
 19 25  2  0
 20 19  1  0
 21 20  1  1
 21 22  1  0
 22 13  1  0
 23 21  1  0
 24 23  2  0
 25 26  1  0
 27 23  1  0
 28 27  1  0
 29 28  1  0
 30 29  1  0
 31 29  2  0
M  END
$$$$
