CTG.pdb
     RDKit          3D

 18 17  0  0  1  0  0  0  0  0999 V2000
   25.5928  -11.3363  -17.9606 N   0  0  0  0  0  0  0  0  0  0  0  0
   25.5537  -10.6482  -16.7118 C   0  0  1  0  0  0  0  0  0  0  0  0
   26.9259  -10.4321  -16.1105 C   0  0  0  0  0  0  0  0  0  0  0  0
   27.6663  -11.9487  -15.5160 S   0  0  0  0  0  0  0  0  0  0  0  0
   24.7999   -9.3728  -16.8266 C   0  0  0  0  0  0  0  0  0  0  0  0
   25.1617   -8.4587  -17.6123 O   0  0  0  0  0  0  0  0  0  0  0  0
   21.4532   -9.0974  -17.9881 C   0  0  0  0  0  0  0  0  0  0  0  0
   21.4578   -8.3612  -16.6940 C   0  0  1  0  0  0  0  0  0  0  0  0
   20.8924   -9.1520  -15.6952 O   0  0  0  0  0  0  0  0  0  0  0  0
   22.8238   -7.8998  -16.2585 C   0  0  2  0  0  0  0  0  0  0  0  0
   23.6280   -9.1118  -16.0565 N   0  0  0  0  0  0  0  0  0  0  0  0
   22.8011   -7.0620  -15.0490 C   0  0  0  0  0  0  0  0  0  0  0  0
   23.1674   -7.5492  -13.9486 O   0  0  0  0  0  0  0  0  0  0  0  0
   22.3824   -5.6972  -15.0285 N   0  0  0  0  0  0  0  0  0  0  0  0
   22.3395   -4.8913  -13.8484 C   0  0  0  0  0  0  0  0  0  0  0  0
   21.6764   -3.5808  -14.0681 C   0  0  0  0  0  0  0  0  0  0  0  0
   21.4028   -2.7049  -13.0292 O   0  0  0  0  0  0  0  0  0  0  0  0
   21.3392   -3.2249  -15.2262 O   0  0  0  0  0  0  0  0  0  0  0  0
  2  1  1  6
  2  3  1  0
  3  4  1  0
  5  6  2  0
  5  2  1  0
  8  7  1  6
  8  9  1  0
  8 10  1  0
 10 11  1  1
 11  5  1  0
 12 10  1  0
 12 14  1  0
 13 12  2  0
 15 14  1  0
 15 16  1  0
 16 17  1  0
 18 16  2  0
M  END
$$$$
