CTG.pdb
     RDKit          3D

 18 17  0  0  1  0  0  0  0  0999 V2000
   22.1767  -12.6047  -16.7367 N   0  0  0  0  0  0  0  0  0  0  0  0
   22.8264  -11.4101  -16.3061 C   0  0  1  0  0  0  0  0  0  0  0  0
   24.2911  -11.3619  -16.6852 C   0  0  0  0  0  0  0  0  0  0  0  0
   25.3006  -12.4449  -15.6804 S   0  0  0  0  0  0  0  0  0  0  0  0
   22.0989  -10.2043  -16.7803 C   0  0  0  0  0  0  0  0  0  0  0  0
   21.5627  -10.1596  -17.9180 O   0  0  0  0  0  0  0  0  0  0  0  0
   19.4029   -9.9477  -16.9796 C   0  0  0  0  0  0  0  0  0  0  0  0
   19.5909   -8.8448  -15.9973 C   0  0  1  0  0  0  0  0  0  0  0  0
   19.5318   -9.3492  -14.6993 O   0  0  0  0  0  0  0  0  0  0  0  0
   20.8723   -8.0750  -16.1809 C   0  0  2  0  0  0  0  0  0  0  0  0
   21.9665   -9.0330  -15.9771 N   0  0  0  0  0  0  0  0  0  0  0  0
   20.9954   -6.9187  -15.2792 C   0  0  0  0  0  0  0  0  0  0  0  0
   20.1027   -6.0326  -15.2794 O   0  0  0  0  0  0  0  0  0  0  0  0
   22.0838   -6.7199  -14.3767 N   0  0  0  0  0  0  0  0  0  0  0  0
   22.1940   -5.6039  -13.4899 C   0  0  0  0  0  0  0  0  0  0  0  0
   22.3484   -4.3115  -14.2050 C   0  0  0  0  0  0  0  0  0  0  0  0
   22.4832   -3.1053  -13.5355 O   0  0  0  0  0  0  0  0  0  0  0  0
   22.3611   -4.2777  -15.4620 O   0  0  0  0  0  0  0  0  0  0  0  0
  2  1  1  6
  2  3  1  0
  3  4  1  0
  5  6  2  0
  5  2  1  0
  8  7  1  6
  8  9  1  0
  8 10  1  0
 10 11  1  1
 11  5  1  0
 12 10  1  0
 12 14  1  0
 13 12  2  0
 15 14  1  0
 15 16  1  0
 16 17  1  0
 18 16  2  0
M  END
$$$$
