CTG.pdb
     RDKit          3D

 18 17  0  0  1  0  0  0  0  0999 V2000
   17.8184   -9.8864  -16.2855 N   0  0  0  0  0  0  0  0  0  0  0  0
   18.7520  -10.5647  -15.4471 C   0  0  1  0  0  0  0  0  0  0  0  0
   18.9758  -12.0056  -15.8531 C   0  0  0  0  0  0  0  0  0  0  0  0
   17.5035  -13.0081  -15.6824 S   0  0  0  0  0  0  0  0  0  0  0  0
   20.0328   -9.8166  -15.3572 C   0  0  0  0  0  0  0  0  0  0  0  0
   20.9946  -10.2324  -14.6601 O   0  0  0  0  0  0  0  0  0  0  0  0
   23.3162   -6.8302  -17.2875 C   0  0  0  0  0  0  0  0  0  0  0  0
   22.0365   -7.5907  -17.2667 C   0  0  1  0  0  0  0  0  0  0  0  0
   22.2037   -8.8201  -17.9017 O   0  0  0  0  0  0  0  0  0  0  0  0
   21.4781   -7.8091  -15.8850 C   0  0  2  0  0  0  0  0  0  0  0  0
   20.2454   -8.5895  -16.0526 N   0  0  0  0  0  0  0  0  0  0  0  0
   21.2271   -6.5591  -15.1503 C   0  0  0  0  0  0  0  0  0  0  0  0
   20.2795   -5.8106  -15.5026 O   0  0  0  0  0  0  0  0  0  0  0  0
   22.0005   -6.1177  -14.0342 N   0  0  0  0  0  0  0  0  0  0  0  0
   21.6962   -4.9550  -13.2599 C   0  0  0  0  0  0  0  0  0  0  0  0
   21.8021   -3.6968  -14.0417 C   0  0  0  0  0  0  0  0  0  0  0  0
   22.2772   -3.6708  -15.3436 O   0  0  0  0  0  0  0  0  0  0  0  0
   21.4563   -2.6004  -13.5322 O   0  0  0  0  0  0  0  0  0  0  0  0
  2  1  1  6
  2  3  1  0
  3  4  1  0
  5  6  2  0
  5  2  1  0
  8  7  1  1
  8  9  1  0
  8 10  1  0
 10 11  1  6
 11  5  1  0
 12 10  1  0
 12 14  1  0
 13 12  2  0
 15 14  1  0
 15 16  1  0
 16 17  1  0
 18 16  2  0
M  END
$$$$
