CTG.pdb
     RDKit          3D

 18 17  0  0  1  0  0  0  0  0999 V2000
   22.2071  -12.9583  -16.7165 N   0  0  0  0  0  0  0  0  0  0  0  0
   22.9605  -12.0243  -15.9453 C   0  0  1  0  0  0  0  0  0  0  0  0
   24.4549  -12.2454  -16.0405 C   0  0  0  0  0  0  0  0  0  0  0  0
   24.9735  -13.7890  -15.2988 S   0  0  0  0  0  0  0  0  0  0  0  0
   22.5916  -10.6262  -16.2879 C   0  0  0  0  0  0  0  0  0  0  0  0
   22.3800  -10.2699  -17.4762 O   0  0  0  0  0  0  0  0  0  0  0  0
   20.2731   -9.4828  -17.1629 C   0  0  0  0  0  0  0  0  0  0  0  0
   20.4168   -8.5883  -15.9813 C   0  0  1  0  0  0  0  0  0  0  0  0
   19.7360   -9.1276  -14.8913 O   0  0  0  0  0  0  0  0  0  0  0  0
   21.8460   -8.3106  -15.5957 C   0  0  2  0  0  0  0  0  0  0  0  0
   22.4564   -9.6118  -15.2943 N   0  0  0  0  0  0  0  0  0  0  0  0
   21.9768   -7.3803  -14.4630 C   0  0  0  0  0  0  0  0  0  0  0  0
   22.2205   -7.8305  -13.3140 O   0  0  0  0  0  0  0  0  0  0  0  0
   21.8443   -5.9629  -14.5721 N   0  0  0  0  0  0  0  0  0  0  0  0
   22.0468   -5.0547  -13.4866 C   0  0  0  0  0  0  0  0  0  0  0  0
   21.9265   -3.6318  -13.8944 C   0  0  0  0  0  0  0  0  0  0  0  0
   21.6953   -3.2541  -15.2079 O   0  0  0  0  0  0  0  0  0  0  0  0
   22.0334   -2.7144  -13.0410 O   0  0  0  0  0  0  0  0  0  0  0  0
  2  1  1  6
  2  3  1  0
  3  4  1  0
  5  6  2  0
  5  2  1  0
  8  7  1  6
  8  9  1  0
  8 10  1  0
 10 11  1  1
 11  5  1  0
 12 10  1  0
 12 14  1  0
 13 12  2  0
 15 14  1  0
 15 16  1  0
 16 17  1  0
 18 16  2  0
M  END
$$$$
