CTG.pdb
     RDKit          3D

 18 17  0  0  1  0  0  0  0  0999 V2000
   15.9335  -12.0095  -14.5183 N   0  0  0  0  0  0  0  0  0  0  0  0
   16.2988  -10.8159  -15.2087 C   0  0  1  0  0  0  0  0  0  0  0  0
   15.2398   -9.7373  -15.1297 C   0  0  0  0  0  0  0  0  0  0  0  0
   13.5924  -10.3626  -15.4407 S   0  0  0  0  0  0  0  0  0  0  0  0
   17.6223  -10.3174  -14.7526 C   0  0  0  0  0  0  0  0  0  0  0  0
   18.1200  -10.6725  -13.6526 O   0  0  0  0  0  0  0  0  0  0  0  0
   20.7367  -10.9781  -16.2689 C   0  0  0  0  0  0  0  0  0  0  0  0
   20.7004   -9.4941  -16.1548 C   0  0  1  0  0  0  0  0  0  0  0  0
   20.3866   -8.9299  -17.3901 O   0  0  0  0  0  0  0  0  0  0  0  0
   19.7423   -8.9850  -15.1102 C   0  0  2  0  0  0  0  0  0  0  0  0
   18.4017   -9.4116  -15.5315 N   0  0  0  0  0  0  0  0  0  0  0  0
   19.8065   -7.5276  -14.9170 C   0  0  0  0  0  0  0  0  0  0  0  0
   18.9665   -6.7871  -15.4901 O   0  0  0  0  0  0  0  0  0  0  0  0
   20.7789   -6.8702  -14.1042 N   0  0  0  0  0  0  0  0  0  0  0  0
   20.8090   -5.4589  -13.8767 C   0  0  0  0  0  0  0  0  0  0  0  0
   21.9644   -5.0326  -13.0467 C   0  0  0  0  0  0  0  0  0  0  0  0
   22.2692   -3.6979  -12.8301 O   0  0  0  0  0  0  0  0  0  0  0  0
   22.7110   -5.8893  -12.5080 O   0  0  0  0  0  0  0  0  0  0  0  0
  2  1  1  1
  2  3  1  0
  3  4  1  0
  5  6  2  0
  5  2  1  0
  8  7  1  6
  8  9  1  0
  8 10  1  0
 10 11  1  6
 11  5  1  0
 12 10  1  0
 12 14  1  0
 13 12  2  0
 15 14  1  0
 15 16  1  0
 16 17  1  0
 18 16  2  0
M  END
$$$$
