CTG.pdb
     RDKit          3D

 18 17  0  0  1  0  0  0  0  0999 V2000
   24.2898  -16.7423  -16.7438 N   0  0  0  0  0  0  0  0  0  0  0  0
   24.4274  -15.6711  -15.8121 C   0  0  1  0  0  0  0  0  0  0  0  0
   25.7929  -15.6234  -15.1606 C   0  0  0  0  0  0  0  0  0  0  0  0
   26.1145  -17.0470  -14.1255 S   0  0  0  0  0  0  0  0  0  0  0  0
   24.0735  -14.3698  -16.4362 C   0  0  0  0  0  0  0  0  0  0  0  0
   24.6058  -13.9841  -17.5095 O   0  0  0  0  0  0  0  0  0  0  0  0
   21.6166  -13.5803  -18.3209 C   0  0  0  0  0  0  0  0  0  0  0  0
   21.4600  -12.5274  -17.2800 C   0  0  1  0  0  0  0  0  0  0  0  0
   20.4484  -12.8851  -16.3905 O   0  0  0  0  0  0  0  0  0  0  0  0
   22.7231  -12.2326  -16.5145 C   0  0  2  0  0  0  0  0  0  0  0  0
   23.1145  -13.4865  -15.8579 N   0  0  0  0  0  0  0  0  0  0  0  0
   22.5762  -11.1391  -15.5407 C   0  0  0  0  0  0  0  0  0  0  0  0
   22.0411  -11.3677  -14.4255 O   0  0  0  0  0  0  0  0  0  0  0  0
   23.0079   -9.7980  -15.7722 N   0  0  0  0  0  0  0  0  0  0  0  0
   22.9503   -8.7587  -14.7921 C   0  0  0  0  0  0  0  0  0  0  0  0
   21.5839   -8.2031  -14.6195 C   0  0  0  0  0  0  0  0  0  0  0  0
   20.4966   -8.6718  -15.3402 O   0  0  0  0  0  0  0  0  0  0  0  0
   21.3741   -7.2742  -13.7982 O   0  0  0  0  0  0  0  0  0  0  0  0
  2  1  1  6
  2  3  1  0
  3  4  1  0
  5  6  2  0
  5  2  1  0
  8  7  1  6
  8  9  1  0
  8 10  1  0
 10 11  1  1
 11  5  1  0
 12 10  1  0
 12 14  1  0
 13 12  2  0
 15 14  1  0
 15 16  1  0
 16 17  1  0
 18 16  2  0
M  END
$$$$
