CTG.pdb
     RDKit          3D

 18 17  0  0  1  0  0  0  0  0999 V2000
   22.5308  -11.9973  -16.1645 N   0  0  0  0  0  0  0  0  0  0  0  0
   23.3169  -10.8632  -15.8034 C   0  0  1  0  0  0  0  0  0  0  0  0
   24.6909  -10.8674  -16.4385 C   0  0  0  0  0  0  0  0  0  0  0  0
   25.8850  -11.8089  -15.4953 S   0  0  0  0  0  0  0  0  0  0  0  0
   22.5899   -9.5974  -16.0813 C   0  0  0  0  0  0  0  0  0  0  0  0
   22.3046   -9.2419  -17.2544 O   0  0  0  0  0  0  0  0  0  0  0  0
   19.4458   -8.8386  -16.0378 C   0  0  0  0  0  0  0  0  0  0  0  0
   19.9758   -7.8007  -15.1112 C   0  0  1  0  0  0  0  0  0  0  0  0
   19.7706   -8.1937  -13.7898 O   0  0  0  0  0  0  0  0  0  0  0  0
   21.4325   -7.4807  -15.3213 C   0  0  2  0  0  0  0  0  0  0  0  0
   22.1750   -8.7160  -15.0395 N   0  0  0  0  0  0  0  0  0  0  0  0
   21.9125   -6.3640  -14.4920 C   0  0  0  0  0  0  0  0  0  0  0  0
   22.7843   -6.5747  -13.6101 O   0  0  0  0  0  0  0  0  0  0  0  0
   21.4501   -5.0188  -14.6158 N   0  0  0  0  0  0  0  0  0  0  0  0
   21.9178   -3.9349  -13.8093 C   0  0  0  0  0  0  0  0  0  0  0  0
   21.2643   -2.6436  -14.1426 C   0  0  0  0  0  0  0  0  0  0  0  0
   20.3823   -2.5113  -15.2037 O   0  0  0  0  0  0  0  0  0  0  0  0
   21.4993   -1.6162  -13.4566 O   0  0  0  0  0  0  0  0  0  0  0  0
  2  1  1  6
  2  3  1  0
  3  4  1  0
  5  6  2  0
  5  2  1  0
  8  7  1  6
  8  9  1  0
  8 10  1  0
 10 11  1  1
 11  5  1  0
 12 10  1  0
 12 14  1  0
 13 12  2  0
 15 14  1  0
 15 16  1  0
 16 17  1  0
 18 16  2  0
M  END
$$$$
