CTG.pdb
     RDKit          3D

 18 17  0  0  1  0  0  0  0  0999 V2000
   18.9199  -12.2946  -17.9713 N   0  0  0  0  0  0  0  0  0  0  0  0
   18.8355  -11.6052  -16.7254 C   0  0  1  0  0  0  0  0  0  0  0  0
   19.4566  -12.3740  -15.5789 C   0  0  0  0  0  0  0  0  0  0  0  0
   18.3475  -13.5943  -14.8844 S   0  0  0  0  0  0  0  0  0  0  0  0
   19.3985  -10.2342  -16.8331 C   0  0  0  0  0  0  0  0  0  0  0  0
   20.3877   -9.9808  -17.5687 O   0  0  0  0  0  0  0  0  0  0  0  0
   18.5827   -5.4247  -16.5973 C   0  0  0  0  0  0  0  0  0  0  0  0
   18.2146   -6.8491  -16.3683 C   0  0  1  0  0  0  0  0  0  0  0  0
   17.3779   -7.2940  -17.3904 O   0  0  0  0  0  0  0  0  0  0  0  0
   19.3974   -7.7737  -16.2469 C   0  0  2  0  0  0  0  0  0  0  0  0
   18.8528   -9.1309  -16.1123 N   0  0  0  0  0  0  0  0  0  0  0  0
   20.2899   -7.4390  -15.1258 C   0  0  0  0  0  0  0  0  0  0  0  0
   19.9179   -7.6667  -13.9460 O   0  0  0  0  0  0  0  0  0  0  0  0
   21.5850   -6.8581  -15.2799 N   0  0  0  0  0  0  0  0  0  0  0  0
   22.4728   -6.5834  -14.1934 C   0  0  0  0  0  0  0  0  0  0  0  0
   22.1188   -5.3426  -13.4582 C   0  0  0  0  0  0  0  0  0  0  0  0
   22.7831   -4.9475  -12.3076 O   0  0  0  0  0  0  0  0  0  0  0  0
   21.1881   -4.6035  -13.8692 O   0  0  0  0  0  0  0  0  0  0  0  0
  2  1  1  6
  2  3  1  0
  3  4  1  0
  5  6  2  0
  5  2  1  0
  8  7  1  6
  8  9  1  0
  8 10  1  0
 10 11  1  1
 11  5  1  0
 12 10  1  0
 12 14  1  0
 13 12  2  0
 15 14  1  0
 15 16  1  0
 16 17  1  0
 18 16  2  0
M  END
$$$$
