CTG.pdb
     RDKit          3D

 18 17  0  0  1  0  0  0  0  0999 V2000
   26.6186  -10.3555  -16.5196 N   0  0  0  0  0  0  0  0  0  0  0  0
   25.3664   -9.7391  -16.2249 C   0  0  1  0  0  0  0  0  0  0  0  0
   25.3674   -8.9946  -14.9070 C   0  0  0  0  0  0  0  0  0  0  0  0
   25.2949  -10.0905  -13.4944 S   0  0  0  0  0  0  0  0  0  0  0  0
   24.9214   -8.8690  -17.3443 C   0  0  0  0  0  0  0  0  0  0  0  0
   25.7400   -8.2059  -18.0328 O   0  0  0  0  0  0  0  0  0  0  0  0
   21.7117   -8.1219  -20.9119 C   0  0  0  0  0  0  0  0  0  0  0  0
   22.2497   -8.7986  -19.6998 C   0  0  1  0  0  0  0  0  0  0  0  0
   22.9602   -9.9396  -20.0683 O   0  0  0  0  0  0  0  0  0  0  0  0
   23.1209   -7.9170  -18.8440 C   0  0  2  0  0  0  0  0  0  0  0  0
   23.5470   -8.7354  -17.7016 N   0  0  0  0  0  0  0  0  0  0  0  0
   22.4510   -6.6837  -18.4015 C   0  0  0  0  0  0  0  0  0  0  0  0
   21.7319   -6.7031  -17.3697 O   0  0  0  0  0  0  0  0  0  0  0  0
   22.5583   -5.4291  -19.0745 N   0  0  0  0  0  0  0  0  0  0  0  0
   21.8218   -4.2596  -18.7085 C   0  0  0  0  0  0  0  0  0  0  0  0
   22.4463   -3.5112  -17.5881 C   0  0  0  0  0  0  0  0  0  0  0  0
   21.8735   -2.3702  -17.0483 O   0  0  0  0  0  0  0  0  0  0  0  0
   23.5330   -3.9016  -17.0901 O   0  0  0  0  0  0  0  0  0  0  0  0
  2  1  1  6
  2  3  1  0
  3  4  1  0
  5  6  2  0
  5  2  1  0
  8  7  1  6
  8  9  1  0
  8 10  1  0
 10 11  1  1
 11  5  1  0
 12 10  1  0
 12 14  1  0
 13 12  2  0
 15 14  1  0
 15 16  1  0
 16 17  1  0
 18 16  2  0
M  END
$$$$
