CTG.pdb
     RDKit          3D

 18 17  0  0  1  0  0  0  0  0999 V2000
   25.8134  -22.4709  -11.1032 N   0  0  0  0  0  0  0  0  0  0  0  0
   25.4805  -21.0839  -11.1050 C   0  0  1  0  0  0  0  0  0  0  0  0
   25.9836  -20.3516   -9.8795 C   0  0  0  0  0  0  0  0  0  0  0  0
   24.8895  -20.5241   -8.4741 S   0  0  0  0  0  0  0  0  0  0  0  0
   25.9324  -20.4265  -12.3587 C   0  0  0  0  0  0  0  0  0  0  0  0
   27.1467  -20.1749  -12.5736 O   0  0  0  0  0  0  0  0  0  0  0  0
   26.5208  -21.7428  -15.1826 C   0  0  0  0  0  0  0  0  0  0  0  0
   25.5663  -20.6855  -15.6161 C   0  0  1  0  0  0  0  0  0  0  0  0
   24.2966  -21.2334  -15.7895 O   0  0  0  0  0  0  0  0  0  0  0  0
   25.4849  -19.5128  -14.6744 C   0  0  2  0  0  0  0  0  0  0  0  0
   25.0203  -20.0443  -13.3866 N   0  0  0  0  0  0  0  0  0  0  0  0
   24.6093  -18.4333  -15.1576 C   0  0  0  0  0  0  0  0  0  0  0  0
   23.4874  -18.2544  -14.6177 O   0  0  0  0  0  0  0  0  0  0  0  0
   24.9465  -17.5467  -16.2247 N   0  0  0  0  0  0  0  0  0  0  0  0
   24.1344  -16.4438  -16.6351 C   0  0  0  0  0  0  0  0  0  0  0  0
   24.8499  -15.1441  -16.5691 C   0  0  0  0  0  0  0  0  0  0  0  0
   25.9626  -14.8700  -17.3489 O   0  0  0  0  0  0  0  0  0  0  0  0
   24.4565  -14.2405  -15.7880 O   0  0  0  0  0  0  0  0  0  0  0  0
  2  1  1  1
  2  3  1  0
  3  4  1  0
  5  6  2  0
  5  2  1  0
  8  7  1  1
  8  9  1  0
  8 10  1  0
 10 11  1  1
 11  5  1  0
 12 10  1  0
 12 14  1  0
 13 12  2  0
 15 14  1  0
 15 16  1  0
 16 17  1  0
 18 16  2  0
M  END
$$$$
