CTG.pdb
     RDKit          3D

 18 17  0  0  1  0  0  0  0  0999 V2000
   25.2312  -11.5640  -17.3934 N   0  0  0  0  0  0  0  0  0  0  0  0
   25.4038  -10.4341  -16.5400 C   0  0  1  0  0  0  0  0  0  0  0  0
   26.6749   -9.6635  -16.8260 C   0  0  0  0  0  0  0  0  0  0  0  0
   28.1501  -10.5812  -16.3980 S   0  0  0  0  0  0  0  0  0  0  0  0
   24.2094   -9.5506  -16.5734 C   0  0  0  0  0  0  0  0  0  0  0  0
   23.7699   -9.0725  -17.6514 O   0  0  0  0  0  0  0  0  0  0  0  0
   20.8417  -10.4066  -15.6026 C   0  0  0  0  0  0  0  0  0  0  0  0
   21.1789   -9.1789  -14.8308 C   0  0  1  0  0  0  0  0  0  0  0  0
   21.5137   -9.5179  -13.5209 O   0  0  0  0  0  0  0  0  0  0  0  0
   22.2877   -8.3605  -15.4385 C   0  0  2  0  0  0  0  0  0  0  0  0
   23.4952   -9.1949  -15.3911 N   0  0  0  0  0  0  0  0  0  0  0  0
   22.4997   -7.0695  -14.7650 C   0  0  0  0  0  0  0  0  0  0  0  0
   23.5635   -6.8702  -14.1240 O   0  0  0  0  0  0  0  0  0  0  0  0
   21.5617   -5.9933  -14.7843 N   0  0  0  0  0  0  0  0  0  0  0  0
   21.7654   -4.7427  -14.1219 C   0  0  0  0  0  0  0  0  0  0  0  0
   20.6325   -3.8004  -14.3066 C   0  0  0  0  0  0  0  0  0  0  0  0
   20.5530   -2.5945  -13.6277 O   0  0  0  0  0  0  0  0  0  0  0  0
   19.6971   -4.0781  -15.0999 O   0  0  0  0  0  0  0  0  0  0  0  0
  2  1  1  6
  2  3  1  0
  3  4  1  0
  5  6  2  0
  5  2  1  0
  8  7  1  6
  8  9  1  0
  8 10  1  0
 10 11  1  1
 11  5  1  0
 12 10  1  0
 12 14  1  0
 13 12  2  0
 15 14  1  0
 15 16  1  0
 16 17  1  0
 18 16  2  0
M  END
$$$$
