CTG.pdb
     RDKit          3D

 18 17  0  0  1  0  0  0  0  0999 V2000
   24.3737  -12.4982  -17.5534 N   0  0  0  0  0  0  0  0  0  0  0  0
   24.4321  -11.5957  -16.4503 C   0  0  1  0  0  0  0  0  0  0  0  0
   25.8360  -11.1155  -16.1506 C   0  0  0  0  0  0  0  0  0  0  0  0
   26.9373  -12.4473  -15.6870 S   0  0  0  0  0  0  0  0  0  0  0  0
   23.4937  -10.4589  -16.6384 C   0  0  0  0  0  0  0  0  0  0  0  0
   23.4545   -9.8038  -17.7123 O   0  0  0  0  0  0  0  0  0  0  0  0
   19.9499  -10.6120  -16.7731 C   0  0  0  0  0  0  0  0  0  0  0  0
   20.2470   -9.6068  -15.7158 C   0  0  1  0  0  0  0  0  0  0  0  0
   20.1160  -10.1889  -14.4562 O   0  0  0  0  0  0  0  0  0  0  0  0
   21.6083   -8.9743  -15.8394 C   0  0  2  0  0  0  0  0  0  0  0  0
   22.5873  -10.0461  -15.6174 N   0  0  0  0  0  0  0  0  0  0  0  0
   21.8196   -7.8526  -14.9107 C   0  0  0  0  0  0  0  0  0  0  0  0
   22.7091   -7.9378  -14.0254 O   0  0  0  0  0  0  0  0  0  0  0  0
   21.0692   -6.6382  -14.9387 N   0  0  0  0  0  0  0  0  0  0  0  0
   21.2200   -5.5826  -13.9863 C   0  0  0  0  0  0  0  0  0  0  0  0
   22.1184   -4.5000  -14.4620 C   0  0  0  0  0  0  0  0  0  0  0  0
   22.7553   -4.5521  -15.6920 O   0  0  0  0  0  0  0  0  0  0  0  0
   22.3284   -3.4874  -13.7464 O   0  0  0  0  0  0  0  0  0  0  0  0
  2  1  1  6
  2  3  1  0
  3  4  1  0
  5  6  2  0
  5  2  1  0
  8  7  1  6
  8  9  1  0
  8 10  1  0
 10 11  1  1
 11  5  1  0
 12 10  1  0
 12 14  1  0
 13 12  2  0
 15 14  1  0
 15 16  1  0
 16 17  1  0
 18 16  2  0
M  END
$$$$
