CTG.pdb
     RDKit          3D

 18 17  0  0  1  0  0  0  0  0999 V2000
   29.9925  -20.7460  -12.3159 N   0  0  0  0  0  0  0  0  0  0  0  0
   28.8034  -20.0671  -12.7157 C   0  0  1  0  0  0  0  0  0  0  0  0
   28.7530  -19.7847  -14.2019 C   0  0  0  0  0  0  0  0  0  0  0  0
   28.5401  -18.0462  -14.5679 S   0  0  0  0  0  0  0  0  0  0  0  0
   27.5916  -20.7939  -12.2557 C   0  0  0  0  0  0  0  0  0  0  0  0
   27.5493  -22.0511  -12.2158 O   0  0  0  0  0  0  0  0  0  0  0  0
   26.0845  -21.1443   -9.1879 C   0  0  0  0  0  0  0  0  0  0  0  0
   24.9560  -20.6576  -10.0284 C   0  0  1  0  0  0  0  0  0  0  0  0
   24.7018  -19.3154   -9.7520 O   0  0  0  0  0  0  0  0  0  0  0  0
   25.1758  -20.8346  -11.5079 C   0  0  2  0  0  0  0  0  0  0  0  0
   26.4117  -20.1120  -11.8348 N   0  0  0  0  0  0  0  0  0  0  0  0
   24.0469  -20.3668  -12.3279 C   0  0  0  0  0  0  0  0  0  0  0  0
   24.1538  -19.2963  -12.9796 O   0  0  0  0  0  0  0  0  0  0  0  0
   22.8020  -21.0563  -12.4435 N   0  0  0  0  0  0  0  0  0  0  0  0
   21.7456  -20.6582  -13.3208 C   0  0  0  0  0  0  0  0  0  0  0  0
   20.5077  -21.4569  -13.1334 C   0  0  0  0  0  0  0  0  0  0  0  0
   19.3459  -21.2017  -13.8450 O   0  0  0  0  0  0  0  0  0  0  0  0
   20.4814  -22.4048  -12.3074 O   0  0  0  0  0  0  0  0  0  0  0  0
  2  1  1  6
  2  3  1  0
  3  4  1  0
  5  6  2  0
  5  2  1  0
  8  7  1  1
  8  9  1  0
  8 10  1  0
 10 11  1  6
 11  5  1  0
 12 10  1  0
 12 14  1  0
 13 12  2  0
 15 14  1  0
 15 16  1  0
 16 17  1  0
 18 16  2  0
M  END
$$$$
