FLD.pdb
     RDKit          3D

 28 28  0  0  1  0  0  0  0  0999 V2000
    5.7790  -18.1510   25.3903 N   0  0  0  0  0  0  0  0  0  0  0  0
    6.2048  -16.7608   25.3089 C   0  0  1  0  0  0  0  0  0  0  0  0
    7.0654  -16.3498   26.4660 C   0  0  0  0  0  0  0  0  0  0  0  0
    7.2094  -14.8721   26.5634 C   0  0  0  0  0  0  0  0  0  0  0  0
    8.4832  -14.3622   26.6991 C   0  0  0  0  0  0  0  0  0  0  0  0
    8.7572  -13.0085   26.7996 C   0  0  0  0  0  0  0  0  0  0  0  0
    7.6639  -12.1664   26.7563 C   0  0  0  0  0  0  0  0  0  0  0  0
    6.3876  -12.6489   26.6219 C   0  0  0  0  0  0  0  0  0  0  0  0
    6.1378  -14.0191   26.5225 C   0  0  0  0  0  0  0  0  0  0  0  0
    6.9758  -16.5906   24.0591 C   0  0  0  0  0  0  0  0  0  0  0  0
    7.5213  -17.5999   23.5580 O   0  0  0  0  0  0  0  0  0  0  0  0
    9.4264  -14.2590   19.9413 C   0  0  0  0  0  0  0  0  0  0  0  0
    7.9324  -13.8970   20.0205 C   0  0  2  0  0  0  0  0  0  0  0  0
    7.7501  -12.6103   19.2954 C   0  0  0  0  0  0  0  0  0  0  0  0
    7.5654  -13.9133   21.4569 C   0  0  0  0  0  0  0  0  0  0  0  0
    7.6256  -15.2643   22.0890 C   0  0  2  0  0  0  0  0  0  0  0  0
    7.1147  -15.3448   23.4259 N   0  0  0  0  0  0  0  0  0  0  0  0
    9.0002  -15.8259   22.0494 C   0  0  0  0  0  0  0  0  0  0  0  0
    9.4586  -16.3056   20.9958 O   0  0  0  0  0  0  0  0  0  0  0  0
    9.7981  -15.8184   23.2120 N   0  0  0  0  0  0  0  0  0  0  0  0
   11.1647  -16.3075   23.1288 C   0  0  1  0  0  0  0  0  0  0  0  0
   12.1139  -15.1373   22.9492 C   0  0  0  0  0  0  0  0  0  0  0  0
   13.5151  -15.5382   22.7654 C   0  0  0  0  0  0  0  0  0  0  0  0
   13.8769  -16.7319   22.6118 O   0  0  0  0  0  0  0  0  0  0  0  0
   11.4612  -17.0553   24.3703 C   0  0  0  0  0  0  0  0  0  0  0  0
   12.3350  -18.1378   24.4013 O   0  0  0  0  0  0  0  0  0  0  0  0
   14.5463  -14.5873   22.7514 O   0  0  0  0  0  0  0  0  0  0  0  0
   10.8947  -16.6905   25.4371 O   0  0  0  0  0  0  0  0  0  0  0  0
  2 10  1  0
  2  1  1  1
  2  3  1  0
  3  4  1  0
  4  5  2  0
  4  9  1  0
  5  6  1  0
  6  7  2  0
  8  7  1  0
  9  8  2  0
 10 17  1  0
 11 10  2  0
 13 12  1  1
 13 14  1  0
 15 13  1  0
 16 15  1  1
 17 16  1  0
 18 19  2  0
 18 16  1  0
 20 18  1  0
 21 22  1  1
 21 20  1  0
 23 22  1  0
 24 23  2  0
 25 21  1  0
 26 25  1  0
 27 23  1  0
 28 25  2  0
M  END
$$$$
