FLD.pdb
     RDKit          3D

 28 28  0  0  1  0  0  0  0  0999 V2000
    7.8417  -16.1620   21.9100 N   0  0  0  0  0  0  0  0  0  0  0  0
    9.2230  -15.7709   22.1547 C   0  0  1  0  0  0  0  0  0  0  0  0
    9.6533  -14.6066   21.3134 C   0  0  0  0  0  0  0  0  0  0  0  0
    8.5620  -14.1185   20.4276 C   0  0  0  0  0  0  0  0  0  0  0  0
    8.3142  -12.7624   20.4076 C   0  0  0  0  0  0  0  0  0  0  0  0
    7.3298  -12.1774   19.6288 C   0  0  0  0  0  0  0  0  0  0  0  0
    6.5847  -13.0397   18.8493 C   0  0  0  0  0  0  0  0  0  0  0  0
    6.8118  -14.3918   18.8517 C   0  0  0  0  0  0  0  0  0  0  0  0
    7.8111  -14.9572   19.6463 C   0  0  0  0  0  0  0  0  0  0  0  0
    9.3478  -15.3992   23.5800 C   0  0  0  0  0  0  0  0  0  0  0  0
   10.4716  -15.0453   24.0034 O   0  0  0  0  0  0  0  0  0  0  0  0
    7.9513  -12.2100   26.5206 C   0  0  0  0  0  0  0  0  0  0  0  0
    6.8521  -13.1790   26.0490 C   0  0  2  0  0  0  0  0  0  0  0  0
    5.5513  -12.6404   26.5309 C   0  0  0  0  0  0  0  0  0  0  0  0
    7.2375  -14.5274   26.5300 C   0  0  0  0  0  0  0  0  0  0  0  0
    8.4338  -15.1025   25.8471 C   0  0  2  0  0  0  0  0  0  0  0  0
    8.2566  -15.4328   24.4634 N   0  0  0  0  0  0  0  0  0  0  0  0
    8.9634  -16.2843   26.5745 C   0  0  0  0  0  0  0  0  0  0  0  0
    8.9828  -16.3058   27.8193 O   0  0  0  0  0  0  0  0  0  0  0  0
    9.4498  -17.3949   25.8547 N   0  0  0  0  0  0  0  0  0  0  0  0
   10.0049  -18.5197   26.5899 C   0  0  1  0  0  0  0  0  0  0  0  0
    9.5824  -19.8183   25.9283 C   0  0  0  0  0  0  0  0  0  0  0  0
   10.2430  -21.0058   26.4863 C   0  0  0  0  0  0  0  0  0  0  0  0
   10.1111  -21.3713   27.6816 O   0  0  0  0  0  0  0  0  0  0  0  0
   11.4773  -18.3772   26.6042 C   0  0  0  0  0  0  0  0  0  0  0  0
   12.1662  -17.6307   25.6531 O   0  0  0  0  0  0  0  0  0  0  0  0
   11.0748  -21.8125   25.6958 O   0  0  0  0  0  0  0  0  0  0  0  0
   12.1249  -18.9588   27.5177 O   0  0  0  0  0  0  0  0  0  0  0  0
  2 10  1  0
  2  1  1  6
  2  3  1  0
  3  4  1  0
  4  5  2  0
  4  9  1  0
  5  6  1  0
  6  7  2  0
  8  7  1  0
  9  8  2  0
 10 17  1  0
 11 10  2  0
 13 12  1  1
 13 14  1  0
 15 13  1  0
 16 15  1  1
 17 16  1  0
 18 19  2  0
 18 16  1  0
 20 18  1  0
 21 22  1  6
 21 20  1  0
 23 22  1  0
 24 23  2  0
 25 21  1  0
 26 25  1  0
 27 23  1  0
 28 25  2  0
M  END
$$$$
