FLD.pdb
     RDKit          3D

 28 28  0  0  1  0  0  0  0  0999 V2000
    5.5647  -17.6825   25.0548 N   0  0  0  0  0  0  0  0  0  0  0  0
    6.3048  -16.4295   25.0028 C   0  0  1  0  0  0  0  0  0  0  0  0
    6.9709  -16.0955   26.3040 C   0  0  0  0  0  0  0  0  0  0  0  0
    7.1468  -14.6293   26.4862 C   0  0  0  0  0  0  0  0  0  0  0  0
    8.4328  -14.1536   26.6316 C   0  0  0  0  0  0  0  0  0  0  0  0
    8.7360  -12.8140   26.8075 C   0  0  0  0  0  0  0  0  0  0  0  0
    7.6598  -11.9494   26.8316 C   0  0  0  0  0  0  0  0  0  0  0  0
    6.3720  -12.3978   26.6892 C   0  0  0  0  0  0  0  0  0  0  0  0
    6.0926  -13.7545   26.5130 C   0  0  0  0  0  0  0  0  0  0  0  0
    7.3415  -16.5533   23.9562 C   0  0  0  0  0  0  0  0  0  0  0  0
    7.7196  -17.7015   23.6303 O   0  0  0  0  0  0  0  0  0  0  0  0
    6.6891  -14.5808   20.1698 C   0  0  0  0  0  0  0  0  0  0  0  0
    7.5566  -13.6565   21.0432 C   0  0  2  0  0  0  0  0  0  0  0  0
    7.6468  -12.3453   20.3453 C   0  0  0  0  0  0  0  0  0  0  0  0
    8.8312  -14.3736   21.2873 C   0  0  0  0  0  0  0  0  0  0  0  0
    8.6945  -15.5936   22.1365 C   0  0  2  0  0  0  0  0  0  0  0  0
    7.9096  -15.4345   23.3255 N   0  0  0  0  0  0  0  0  0  0  0  0
   10.0191  -16.1649   22.4902 C   0  0  0  0  0  0  0  0  0  0  0  0
   10.7449  -16.6719   21.6146 O   0  0  0  0  0  0  0  0  0  0  0  0
   10.4646  -16.1358   23.8278 N   0  0  0  0  0  0  0  0  0  0  0  0
   11.7241  -16.7803   24.1626 C   0  0  1  0  0  0  0  0  0  0  0  0
   12.8330  -15.7451   24.1931 C   0  0  0  0  0  0  0  0  0  0  0  0
   13.5906  -15.6562   22.9376 C   0  0  0  0  0  0  0  0  0  0  0  0
   13.7842  -14.5769   22.3234 O   0  0  0  0  0  0  0  0  0  0  0  0
   11.5671  -17.4398   25.4775 C   0  0  0  0  0  0  0  0  0  0  0  0
   10.3682  -17.4253   26.1836 O   0  0  0  0  0  0  0  0  0  0  0  0
   14.1505  -16.7977   22.3453 O   0  0  0  0  0  0  0  0  0  0  0  0
   12.5646  -18.0356   25.9698 O   0  0  0  0  0  0  0  0  0  0  0  0
  2 10  1  0
  2  1  1  1
  2  3  1  0
  3  4  1  0
  4  5  2  0
  4  9  1  0
  5  6  1  0
  6  7  2  0
  8  7  1  0
  9  8  2  0
 10 17  1  0
 11 10  2  0
 13 12  1  6
 13 14  1  0
 15 13  1  0
 16 15  1  1
 17 16  1  0
 18 19  2  0
 18 16  1  0
 20 18  1  0
 21 22  1  1
 21 20  1  0
 23 22  1  0
 24 23  2  0
 25 21  1  0
 26 25  1  0
 27 23  1  0
 28 25  2  0
M  END
$$$$
