FLD.pdb
     RDKit          3D

 28 28  0  0  1  0  0  0  0  0999 V2000
    6.0606  -17.4311   25.2273 N   0  0  0  0  0  0  0  0  0  0  0  0
    6.6776  -16.2049   24.7411 C   0  0  1  0  0  0  0  0  0  0  0  0
    7.7562  -15.6985   25.6514 C   0  0  0  0  0  0  0  0  0  0  0  0
    7.4279  -14.3659   26.2262 C   0  0  0  0  0  0  0  0  0  0  0  0
    6.2161  -13.8040   25.8843 C   0  0  0  0  0  0  0  0  0  0  0  0
    5.7877  -12.5717   26.3486 C   0  0  0  0  0  0  0  0  0  0  0  0
    6.6552  -11.9107   27.1953 C   0  0  0  0  0  0  0  0  0  0  0  0
    7.8656  -12.4484   27.5501 C   0  0  0  0  0  0  0  0  0  0  0  0
    8.2744  -13.6934   27.0680 C   0  0  0  0  0  0  0  0  0  0  0  0
    7.2675  -16.4841   23.4146 C   0  0  0  0  0  0  0  0  0  0  0  0
    7.2451  -17.6627   22.9930 O   0  0  0  0  0  0  0  0  0  0  0  0
    7.8363  -12.4363   19.7055 C   0  0  0  0  0  0  0  0  0  0  0  0
    7.4107  -13.8880   19.9900 C   0  0  2  0  0  0  0  0  0  0  0  0
    6.2689  -13.8353   20.9429 C   0  0  0  0  0  0  0  0  0  0  0  0
    8.6258  -14.6079   20.4410 C   0  0  0  0  0  0  0  0  0  0  0  0
    8.3506  -15.7849   21.3168 C   0  0  2  0  0  0  0  0  0  0  0  0
    7.8474  -15.4789   22.6238 N   0  0  0  0  0  0  0  0  0  0  0  0
    9.5398  -16.6666   21.4377 C   0  0  0  0  0  0  0  0  0  0  0  0
    9.8040  -17.4994   20.5506 O   0  0  0  0  0  0  0  0  0  0  0  0
   10.3811  -16.5642   22.5647 N   0  0  0  0  0  0  0  0  0  0  0  0
   11.7570  -17.0214   22.4576 C   0  0  1  0  0  0  0  0  0  0  0  0
   12.4776  -16.2205   21.3891 C   0  0  0  0  0  0  0  0  0  0  0  0
   13.9074  -16.5389   21.2780 C   0  0  0  0  0  0  0  0  0  0  0  0
   14.4845  -17.3853   22.0061 O   0  0  0  0  0  0  0  0  0  0  0  0
   12.4001  -16.8560   23.7795 C   0  0  0  0  0  0  0  0  0  0  0  0
   13.3788  -17.7263   24.2498 O   0  0  0  0  0  0  0  0  0  0  0  0
   14.7219  -15.9000   20.3315 O   0  0  0  0  0  0  0  0  0  0  0  0
   12.0404  -15.8857   24.5016 O   0  0  0  0  0  0  0  0  0  0  0  0
  2 10  1  0
  2  1  1  1
  2  3  1  0
  3  4  1  0
  4  5  2  0
  4  9  1  0
  5  6  1  0
  6  7  2  0
  8  7  1  0
  9  8  2  0
 10 17  1  0
 11 10  2  0
 13 12  1  1
 13 14  1  0
 15 13  1  0
 16 15  1  1
 17 16  1  0
 18 19  2  0
 18 16  1  0
 20 18  1  0
 21 22  1  6
 21 20  1  0
 23 22  1  0
 24 23  2  0
 25 21  1  0
 26 25  1  0
 27 23  1  0
 28 25  2  0
M  END
$$$$
