FLD.pdb
     RDKit          3D

 28 28  0  0  1  0  0  0  0  0999 V2000
    5.6043  -18.0043   24.9218 N   0  0  0  0  0  0  0  0  0  0  0  0
    6.2781  -16.7134   24.9385 C   0  0  1  0  0  0  0  0  0  0  0  0
    6.9442  -16.4244   26.2504 C   0  0  0  0  0  0  0  0  0  0  0  0
    7.4115  -15.0150   26.3459 C   0  0  0  0  0  0  0  0  0  0  0  0
    6.4526  -14.0246   26.3708 C   0  0  0  0  0  0  0  0  0  0  0  0
    6.7508  -12.6751   26.4579 C   0  0  0  0  0  0  0  0  0  0  0  0
    8.0926  -12.3561   26.5207 C   0  0  0  0  0  0  0  0  0  0  0  0
    9.0649  -13.3225   26.4977 C   0  0  0  0  0  0  0  0  0  0  0  0
    8.7379  -14.6771   26.4093 C   0  0  0  0  0  0  0  0  0  0  0  0
    7.3050  -16.7193   23.8751 C   0  0  0  0  0  0  0  0  0  0  0  0
    7.8168  -17.8153   23.5524 O   0  0  0  0  0  0  0  0  0  0  0  0
    6.9345  -14.5079   19.9402 C   0  0  0  0  0  0  0  0  0  0  0  0
    7.6181  -13.6293   21.0033 C   0  0  2  0  0  0  0  0  0  0  0  0
    7.7678  -12.2676   20.4219 C   0  0  0  0  0  0  0  0  0  0  0  0
    8.8643  -14.3292   21.3975 C   0  0  0  0  0  0  0  0  0  0  0  0
    8.6414  -15.6112   22.1289 C   0  0  2  0  0  0  0  0  0  0  0  0
    7.7202  -15.5455   23.2253 N   0  0  0  0  0  0  0  0  0  0  0  0
    9.9211  -16.2063   22.5921 C   0  0  0  0  0  0  0  0  0  0  0  0
   10.5442  -17.0085   21.8720 O   0  0  0  0  0  0  0  0  0  0  0  0
   10.4403  -15.8635   23.8575 N   0  0  0  0  0  0  0  0  0  0  0  0
   11.6591  -16.5106   24.3151 C   0  0  1  0  0  0  0  0  0  0  0  0
   12.8196  -15.5380   24.2163 C   0  0  0  0  0  0  0  0  0  0  0  0
   13.6576  -15.7397   23.0267 C   0  0  0  0  0  0  0  0  0  0  0  0
   14.3991  -14.8463   22.5454 O   0  0  0  0  0  0  0  0  0  0  0  0
   11.4469  -16.9555   25.7099 C   0  0  0  0  0  0  0  0  0  0  0  0
   10.2345  -16.7891   26.3723 O   0  0  0  0  0  0  0  0  0  0  0  0
   13.6744  -16.9684   22.3505 O   0  0  0  0  0  0  0  0  0  0  0  0
   12.4084  -17.5055   26.3143 O   0  0  0  0  0  0  0  0  0  0  0  0
  2 10  1  0
  2  1  1  1
  2  3  1  0
  3  4  1  0
  4  5  2  0
  4  9  1  0
  5  6  1  0
  6  7  2  0
  8  7  1  0
  9  8  2  0
 10 17  1  0
 11 10  2  0
 13 12  1  6
 13 14  1  0
 15 13  1  0
 16 15  1  1
 17 16  1  0
 18 19  2  0
 18 16  1  0
 20 18  1  0
 21 22  1  1
 21 20  1  0
 23 22  1  0
 24 23  2  0
 25 21  1  0
 26 25  1  0
 27 23  1  0
 28 25  2  0
M  END
$$$$
