FLD.pdb
     RDKit          3D

 28 28  0  0  1  0  0  0  0  0999 V2000
    7.9340  -16.7940   21.9400 N   0  0  0  0  0  0  0  0  0  0  0  0
    9.3230  -16.3604   21.9973 C   0  0  1  0  0  0  0  0  0  0  0  0
    9.6995  -15.4686   20.8521 C   0  0  0  0  0  0  0  0  0  0  0  0
    8.7455  -14.3397   20.6808 C   0  0  0  0  0  0  0  0  0  0  0  0
    7.4959  -14.6306   20.1759 C   0  0  0  0  0  0  0  0  0  0  0  0
    6.5151  -13.6754   19.9677 C   0  0  0  0  0  0  0  0  0  0  0  0
    6.8552  -12.3788   20.2988 C   0  0  0  0  0  0  0  0  0  0  0  0
    8.0910  -12.0641   20.8024 C   0  0  0  0  0  0  0  0  0  0  0  0
    9.0630  -13.0463   21.0031 C   0  0  0  0  0  0  0  0  0  0  0  0
    9.5194  -15.6194   23.2613 C   0  0  0  0  0  0  0  0  0  0  0  0
   10.6476  -15.1271   23.4899 O   0  0  0  0  0  0  0  0  0  0  0  0
    8.1750  -11.9472   25.6062 C   0  0  0  0  0  0  0  0  0  0  0  0
    7.1011  -13.0416   25.4704 C   0  0  2  0  0  0  0  0  0  0  0  0
    5.8213  -12.4699   25.9704 C   0  0  0  0  0  0  0  0  0  0  0  0
    7.6202  -14.2380   26.1756 C   0  0  0  0  0  0  0  0  0  0  0  0
    8.7722  -14.8988   25.4941 C   0  0  2  0  0  0  0  0  0  0  0  0
    8.4907  -15.4549   24.2032 N   0  0  0  0  0  0  0  0  0  0  0  0
    9.3952  -15.9363   26.3553 C   0  0  0  0  0  0  0  0  0  0  0  0
    9.6826  -15.6869   27.5408 O   0  0  0  0  0  0  0  0  0  0  0  0
    9.6660  -17.2172   25.8314 N   0  0  0  0  0  0  0  0  0  0  0  0
   10.2722  -18.2159   26.6968 C   0  0  1  0  0  0  0  0  0  0  0  0
    9.5550  -19.5418   26.5237 C   0  0  0  0  0  0  0  0  0  0  0  0
   10.1079  -20.6230   27.3504 C   0  0  0  0  0  0  0  0  0  0  0  0
   11.0212  -20.4472   28.1958 O   0  0  0  0  0  0  0  0  0  0  0  0
   11.7030  -18.3269   26.3378 C   0  0  0  0  0  0  0  0  0  0  0  0
   12.6818  -18.6759   27.2632 O   0  0  0  0  0  0  0  0  0  0  0  0
    9.6343  -21.9384   27.2368 O   0  0  0  0  0  0  0  0  0  0  0  0
   12.0392  -18.0939   25.1441 O   0  0  0  0  0  0  0  0  0  0  0  0
  2 10  1  0
  2  1  1  6
  2  3  1  0
  3  4  1  0
  4  5  2  0
  4  9  1  0
  5  6  1  0
  6  7  2  0
  8  7  1  0
  9  8  2  0
 10 17  1  0
 11 10  2  0
 13 12  1  1
 13 14  1  0
 15 13  1  0
 16 15  1  1
 17 16  1  0
 18 19  2  0
 18 16  1  0
 20 18  1  0
 21 22  1  6
 21 20  1  0
 23 22  1  0
 24 23  2  0
 25 21  1  0
 26 25  1  0
 27 23  1  0
 28 25  2  0
M  END
$$$$
