FLD.pdb
     RDKit          3D

 28 28  0  0  1  0  0  0  0  0999 V2000
    7.7541  -16.5025   21.6710 N   0  0  0  0  0  0  0  0  0  0  0  0
    9.1780  -16.3519   21.9361 C   0  0  1  0  0  0  0  0  0  0  0  0
    9.8550  -15.4349   20.9618 C   0  0  0  0  0  0  0  0  0  0  0  0
    8.9970  -14.2781   20.5883 C   0  0  0  0  0  0  0  0  0  0  0  0
    9.4727  -13.4154   19.6237 C   0  0  0  0  0  0  0  0  0  0  0  0
    8.7760  -12.3022   19.1842 C   0  0  0  0  0  0  0  0  0  0  0  0
    7.5459  -12.0884   19.7735 C   0  0  0  0  0  0  0  0  0  0  0  0
    7.0510  -12.9316   20.7348 C   0  0  0  0  0  0  0  0  0  0  0  0
    7.7736  -14.0479   21.1608 C   0  0  0  0  0  0  0  0  0  0  0  0
    9.3340  -15.7977   23.2976 C   0  0  0  0  0  0  0  0  0  0  0  0
   10.4809  -15.4652   23.6737 O   0  0  0  0  0  0  0  0  0  0  0  0
    8.0893  -12.1980   25.7123 C   0  0  0  0  0  0  0  0  0  0  0  0
    6.9265  -13.1749   25.4611 C   0  0  2  0  0  0  0  0  0  0  0  0
    5.6803  -12.5083   25.9271 C   0  0  0  0  0  0  0  0  0  0  0  0
    7.2908  -14.4504   26.1234 C   0  0  0  0  0  0  0  0  0  0  0  0
    8.4548  -15.1509   25.5048 C   0  0  2  0  0  0  0  0  0  0  0  0
    8.2471  -15.6369   24.1722 N   0  0  0  0  0  0  0  0  0  0  0  0
    8.9470  -16.2576   26.3645 C   0  0  0  0  0  0  0  0  0  0  0  0
    9.2614  -16.0468   27.5507 O   0  0  0  0  0  0  0  0  0  0  0  0
    9.0614  -17.5610   25.8386 N   0  0  0  0  0  0  0  0  0  0  0  0
    9.6015  -18.6140   26.6831 C   0  0  1  0  0  0  0  0  0  0  0  0
    8.7357  -19.8546   26.5657 C   0  0  0  0  0  0  0  0  0  0  0  0
    7.5806  -19.8550   27.4734 C   0  0  0  0  0  0  0  0  0  0  0  0
    7.3689  -18.9517   28.3211 O   0  0  0  0  0  0  0  0  0  0  0  0
   10.9899  -18.8836   26.2495 C   0  0  0  0  0  0  0  0  0  0  0  0
   11.5740  -18.2371   25.1645 O   0  0  0  0  0  0  0  0  0  0  0  0
    6.6318  -20.8875   27.4403 O   0  0  0  0  0  0  0  0  0  0  0  0
   11.6625  -19.7345   26.8943 O   0  0  0  0  0  0  0  0  0  0  0  0
  2 10  1  0
  2  1  1  6
  2  3  1  0
  3  4  1  0
  4  5  2  0
  4  9  1  0
  5  6  1  0
  6  7  2  0
  8  7  1  0
  9  8  2  0
 10 17  1  0
 11 10  2  0
 13 12  1  1
 13 14  1  0
 15 13  1  0
 16 15  1  1
 17 16  1  0
 18 19  2  0
 18 16  1  0
 20 18  1  0
 21 22  1  6
 21 20  1  0
 23 22  1  0
 24 23  2  0
 25 21  1  0
 26 25  1  0
 27 23  1  0
 28 25  2  0
M  END
$$$$
