FLD.pdb
     RDKit          3D

 28 28  0  0  1  0  0  0  0  0999 V2000
    5.8860  -17.8721   25.2006 N   0  0  0  0  0  0  0  0  0  0  0  0
    6.5537  -16.5822   25.0957 C   0  0  1  0  0  0  0  0  0  0  0  0
    7.2295  -16.1743   26.3706 C   0  0  0  0  0  0  0  0  0  0  0  0
    7.2962  -14.6958   26.5240 C   0  0  0  0  0  0  0  0  0  0  0  0
    8.5399  -14.1278   26.7018 C   0  0  0  0  0  0  0  0  0  0  0  0
    8.7427  -12.7667   26.8563 C   0  0  0  0  0  0  0  0  0  0  0  0
    7.6088  -11.9797   26.8232 C   0  0  0  0  0  0  0  0  0  0  0  0
    6.3611  -12.5206   26.6477 C   0  0  0  0  0  0  0  0  0  0  0  0
    6.1833  -13.8970   26.4942 C   0  0  0  0  0  0  0  0  0  0  0  0
    7.5716  -16.6792   24.0281 C   0  0  0  0  0  0  0  0  0  0  0  0
    7.9785  -17.8167   23.6996 O   0  0  0  0  0  0  0  0  0  0  0  0
    6.5881  -14.1291   20.6721 C   0  0  0  0  0  0  0  0  0  0  0  0
    7.7634  -13.5514   21.4810 C   0  0  2  0  0  0  0  0  0  0  0  0
    7.9628  -12.1474   21.0299 C   0  0  0  0  0  0  0  0  0  0  0  0
    8.9039  -14.4811   21.2988 C   0  0  0  0  0  0  0  0  0  0  0  0
    8.8568  -15.6874   22.1768 C   0  0  2  0  0  0  0  0  0  0  0  0
    8.0912  -15.5466   23.3805 N   0  0  0  0  0  0  0  0  0  0  0  0
   10.2198  -16.1744   22.5107 C   0  0  0  0  0  0  0  0  0  0  0  0
   10.9888  -16.5693   21.6146 O   0  0  0  0  0  0  0  0  0  0  0  0
   10.6526  -16.1918   23.8526 N   0  0  0  0  0  0  0  0  0  0  0  0
   11.8471  -16.9465   24.1953 C   0  0  1  0  0  0  0  0  0  0  0  0
   13.0523  -16.0247   24.1834 C   0  0  0  0  0  0  0  0  0  0  0  0
   13.8300  -16.0879   22.9387 C   0  0  0  0  0  0  0  0  0  0  0  0
   13.9413  -17.1312   22.2468 O   0  0  0  0  0  0  0  0  0  0  0  0
   11.6426  -17.5479   25.5314 C   0  0  0  0  0  0  0  0  0  0  0  0
   12.5674  -18.4092   26.1138 O   0  0  0  0  0  0  0  0  0  0  0  0
   14.5046  -14.9610   22.4463 O   0  0  0  0  0  0  0  0  0  0  0  0
   10.5857  -17.2632   26.1592 O   0  0  0  0  0  0  0  0  0  0  0  0
  2 10  1  0
  2  1  1  1
  2  3  1  0
  3  4  1  0
  4  5  2  0
  4  9  1  0
  5  6  1  0
  6  7  2  0
  8  7  1  0
  9  8  2  0
 10 17  1  0
 11 10  2  0
 13 12  1  6
 13 14  1  0
 15 13  1  0
 16 15  1  1
 17 16  1  0
 18 19  2  0
 18 16  1  0
 20 18  1  0
 21 22  1  1
 21 20  1  0
 23 22  1  0
 24 23  2  0
 25 21  1  0
 26 25  1  0
 27 23  1  0
 28 25  2  0
M  END
$$$$
