FLD.pdb
     RDKit          3D

 28 28  0  0  1  0  0  0  0  0999 V2000
    6.5014  -17.0666   25.5959 N   0  0  0  0  0  0  0  0  0  0  0  0
    6.9780  -15.9061   24.8564 C   0  0  1  0  0  0  0  0  0  0  0  0
    8.0411  -15.1466   25.5923 C   0  0  0  0  0  0  0  0  0  0  0  0
    7.5193  -13.8914   26.1973 C   0  0  0  0  0  0  0  0  0  0  0  0
    8.1704  -13.3996   27.3087 C   0  0  0  0  0  0  0  0  0  0  0  0
    7.7892  -12.2426   27.9673 C   0  0  0  0  0  0  0  0  0  0  0  0
    6.6943  -11.5834   27.4449 C   0  0  0  0  0  0  0  0  0  0  0  0
    6.0301  -12.0522   26.3408 C   0  0  0  0  0  0  0  0  0  0  0  0
    6.4346  -13.2219   25.6946 C   0  0  0  0  0  0  0  0  0  0  0  0
    7.5352  -16.3794   23.5715 C   0  0  0  0  0  0  0  0  0  0  0  0
    7.4978  -17.6065   23.3261 O   0  0  0  0  0  0  0  0  0  0  0  0
    6.3473  -13.8965   20.2612 C   0  0  0  0  0  0  0  0  0  0  0  0
    7.8365  -13.6907   20.5919 C   0  0  2  0  0  0  0  0  0  0  0  0
    8.2845  -12.4681   19.8714 C   0  0  0  0  0  0  0  0  0  0  0  0
    8.5275  -14.9579   20.2533 C   0  0  0  0  0  0  0  0  0  0  0  0
    8.4904  -15.9841   21.3367 C   0  0  2  0  0  0  0  0  0  0  0  0
    8.1004  -15.5040   22.6299 N   0  0  0  0  0  0  0  0  0  0  0  0
    9.7814  -16.7103   21.4466 C   0  0  0  0  0  0  0  0  0  0  0  0
   10.2360  -17.3452   20.4767 O   0  0  0  0  0  0  0  0  0  0  0  0
   10.5037  -16.6841   22.6574 N   0  0  0  0  0  0  0  0  0  0  0  0
   11.7409  -17.4418   22.7535 C   0  0  1  0  0  0  0  0  0  0  0  0
   12.7462  -16.9034   21.7526 C   0  0  0  0  0  0  0  0  0  0  0  0
   13.4703  -15.7159   22.2254 C   0  0  0  0  0  0  0  0  0  0  0  0
   13.3064  -15.2170   23.3673 O   0  0  0  0  0  0  0  0  0  0  0  0
   12.2450  -17.3238   24.1393 C   0  0  0  0  0  0  0  0  0  0  0  0
   11.5704  -16.6067   25.1226 O   0  0  0  0  0  0  0  0  0  0  0  0
   14.4040  -15.0619   21.4082 O   0  0  0  0  0  0  0  0  0  0  0  0
   13.3296  -17.8988   24.4313 O   0  0  0  0  0  0  0  0  0  0  0  0
  2 10  1  0
  2  1  1  1
  2  3  1  0
  3  4  1  0
  4  5  2  0
  4  9  1  0
  5  6  1  0
  6  7  2  0
  8  7  1  0
  9  8  2  0
 10 17  1  0
 11 10  2  0
 13 12  1  6
 13 14  1  0
 15 13  1  0
 16 15  1  6
 17 16  1  0
 18 19  2  0
 18 16  1  0
 20 18  1  0
 21 22  1  6
 21 20  1  0
 23 22  1  0
 24 23  2  0
 25 21  1  0
 26 25  1  0
 27 23  1  0
 28 25  2  0
M  END
$$$$
