FLD.pdb
     RDKit          3D

 28 28  0  0  1  0  0  0  0  0999 V2000
    5.8252  -18.0754   25.3604 N   0  0  0  0  0  0  0  0  0  0  0  0
    6.2667  -16.6878   25.3453 C   0  0  1  0  0  0  0  0  0  0  0  0
    7.1058  -16.3337   26.5365 C   0  0  0  0  0  0  0  0  0  0  0  0
    7.3483  -14.8692   26.6388 C   0  0  0  0  0  0  0  0  0  0  0  0
    6.2478  -14.0386   26.6449 C   0  0  0  0  0  0  0  0  0  0  0  0
    6.3326  -12.6594   26.7359 C   0  0  0  0  0  0  0  0  0  0  0  0
    7.6078  -12.1374   26.8228 C   0  0  0  0  0  0  0  0  0  0  0  0
    8.7178  -12.9422   26.8187 C   0  0  0  0  0  0  0  0  0  0  0  0
    8.6053  -14.3309   26.7260 C   0  0  0  0  0  0  0  0  0  0  0  0
    7.0666  -16.4753   24.1203 C   0  0  0  0  0  0  0  0  0  0  0  0
    7.5835  -17.4740   23.5701 O   0  0  0  0  0  0  0  0  0  0  0  0
    8.2732  -12.0947   19.9171 C   0  0  0  0  0  0  0  0  0  0  0  0
    8.1453  -13.5936   20.2431 C   0  0  2  0  0  0  0  0  0  0  0  0
    7.2506  -14.1946   19.2169 C   0  0  0  0  0  0  0  0  0  0  0  0
    7.7014  -13.6864   21.6547 C   0  0  0  0  0  0  0  0  0  0  0  0
    7.7625  -15.0640   22.2265 C   0  0  2  0  0  0  0  0  0  0  0  0
    7.2634  -15.2012   23.5633 N   0  0  0  0  0  0  0  0  0  0  0  0
    9.1346  -15.6276   22.1497 C   0  0  0  0  0  0  0  0  0  0  0  0
    9.6737  -15.8350   21.0466 O   0  0  0  0  0  0  0  0  0  0  0  0
    9.8382  -15.9326   23.3330 N   0  0  0  0  0  0  0  0  0  0  0  0
   11.2067  -16.4130   23.2321 C   0  0  1  0  0  0  0  0  0  0  0  0
   12.0849  -15.3267   22.6394 C   0  0  0  0  0  0  0  0  0  0  0  0
   13.4095  -15.8036   22.2197 C   0  0  0  0  0  0  0  0  0  0  0  0
   13.6585  -17.0074   21.9582 O   0  0  0  0  0  0  0  0  0  0  0  0
   11.6612  -16.7926   24.5878 C   0  0  0  0  0  0  0  0  0  0  0  0
   10.8649  -16.6293   25.7171 O   0  0  0  0  0  0  0  0  0  0  0  0
   14.4903  -14.9197   22.0857 O   0  0  0  0  0  0  0  0  0  0  0  0
   12.8173  -17.2820   24.7150 O   0  0  0  0  0  0  0  0  0  0  0  0
  2 10  1  0
  2  1  1  1
  2  3  1  0
  3  4  1  0
  4  5  2  0
  4  9  1  0
  5  6  1  0
  6  7  2  0
  8  7  1  0
  9  8  2  0
 10 17  1  0
 11 10  2  0
 13 12  1  6
 13 14  1  0
 15 13  1  0
 16 15  1  1
 17 16  1  0
 18 19  2  0
 18 16  1  0
 20 18  1  0
 21 22  1  1
 21 20  1  0
 23 22  1  0
 24 23  2  0
 25 21  1  0
 26 25  1  0
 27 23  1  0
 28 25  2  0
M  END
$$$$
