FLD.pdb
     RDKit          3D

 28 28  0  0  1  0  0  0  0  0999 V2000
    6.0700  -18.1656   25.0018 N   0  0  0  0  0  0  0  0  0  0  0  0
    6.6028  -16.8119   24.9363 C   0  0  1  0  0  0  0  0  0  0  0  0
    7.3223  -16.4112   26.1894 C   0  0  0  0  0  0  0  0  0  0  0  0
    7.4947  -14.9369   26.2924 C   0  0  0  0  0  0  0  0  0  0  0  0
    6.3671  -14.1523   26.1739 C   0  0  0  0  0  0  0  0  0  0  0  0
    6.3872  -12.7698   26.2510 C   0  0  0  0  0  0  0  0  0  0  0  0
    7.6252  -12.1947   26.4582 C   0  0  0  0  0  0  0  0  0  0  0  0
    8.7610  -12.9531   26.5793 C   0  0  0  0  0  0  0  0  0  0  0  0
    8.7139  -14.3462   26.4979 C   0  0  0  0  0  0  0  0  0  0  0  0
    7.5499  -16.7472   23.8031 C   0  0  0  0  0  0  0  0  0  0  0  0
    8.0577  -17.8159   23.3941 O   0  0  0  0  0  0  0  0  0  0  0  0
    6.4229  -14.4574   20.2032 C   0  0  0  0  0  0  0  0  0  0  0  0
    7.2991  -13.5783   21.1136 C   0  0  2  0  0  0  0  0  0  0  0  0
    7.2738  -12.1995   20.5542 C   0  0  0  0  0  0  0  0  0  0  0  0
    8.6226  -14.2410   21.2003 C   0  0  0  0  0  0  0  0  0  0  0  0
    8.6106  -15.5383   21.9385 C   0  0  2  0  0  0  0  0  0  0  0  0
    7.8946  -15.5365   23.1804 N   0  0  0  0  0  0  0  0  0  0  0  0
    9.9857  -16.0541   22.1604 C   0  0  0  0  0  0  0  0  0  0  0  0
   10.6494  -16.5168   21.2139 O   0  0  0  0  0  0  0  0  0  0  0  0
   10.5505  -16.0219   23.4521 N   0  0  0  0  0  0  0  0  0  0  0  0
   11.9578  -16.3500   23.6114 C   0  0  1  0  0  0  0  0  0  0  0  0
   12.7875  -15.0817   23.5372 C   0  0  0  0  0  0  0  0  0  0  0  0
   14.2331  -15.3157   23.6529 C   0  0  0  0  0  0  0  0  0  0  0  0
   14.8487  -15.3031   24.7486 O   0  0  0  0  0  0  0  0  0  0  0  0
   12.1265  -17.0279   24.9154 C   0  0  0  0  0  0  0  0  0  0  0  0
   13.2939  -17.7002   25.2638 O   0  0  0  0  0  0  0  0  0  0  0  0
   15.0200  -15.5715   22.5203 O   0  0  0  0  0  0  0  0  0  0  0  0
   11.1692  -16.9900   25.7366 O   0  0  0  0  0  0  0  0  0  0  0  0
  2 10  1  0
  2  1  1  1
  2  3  1  0
  3  4  1  0
  4  5  2  0
  4  9  1  0
  5  6  1  0
  6  7  2  0
  8  7  1  0
  9  8  2  0
 10 17  1  0
 11 10  2  0
 13 12  1  6
 13 14  1  0
 15 13  1  0
 16 15  1  1
 17 16  1  0
 18 19  2  0
 18 16  1  0
 20 18  1  0
 21 22  1  1
 21 20  1  0
 23 22  1  0
 24 23  2  0
 25 21  1  0
 26 25  1  0
 27 23  1  0
 28 25  2  0
M  END
$$$$
