FLD.pdb
     RDKit          3D

 28 28  0  0  1  0  0  0  0  0999 V2000
    5.8113  -18.0037   25.5086 N   0  0  0  0  0  0  0  0  0  0  0  0
    6.3824  -16.6825   25.2873 C   0  0  1  0  0  0  0  0  0  0  0  0
    7.1454  -16.1749   26.4741 C   0  0  0  0  0  0  0  0  0  0  0  0
    7.2859  -14.6937   26.4614 C   0  0  0  0  0  0  0  0  0  0  0  0
    6.1296  -13.9426   26.4583 C   0  0  0  0  0  0  0  0  0  0  0  0
    6.1186  -12.5579   26.4473 C   0  0  0  0  0  0  0  0  0  0  0  0
    7.3554  -11.9443   26.4394 C   0  0  0  0  0  0  0  0  0  0  0  0
    8.5194  -12.6690   26.4423 C   0  0  0  0  0  0  0  0  0  0  0  0
    8.5034  -14.0651   26.4534 C   0  0  0  0  0  0  0  0  0  0  0  0
    7.3016  -16.7687   24.1327 C   0  0  0  0  0  0  0  0  0  0  0  0
    7.8929  -17.8527   23.9265 O   0  0  0  0  0  0  0  0  0  0  0  0
    7.9345  -13.1928   22.7798 C   0  0  0  0  0  0  0  0  0  0  0  0
    8.4133  -13.4994   21.3493 C   0  0  2  0  0  0  0  0  0  0  0  0
    8.0486  -12.3323   20.5012 C   0  0  0  0  0  0  0  0  0  0  0  0
    7.8260  -14.8083   20.9747 C   0  0  0  0  0  0  0  0  0  0  0  0
    8.0767  -15.8976   21.9641 C   0  0  2  0  0  0  0  0  0  0  0  0
    7.5301  -15.6830   23.2718 N   0  0  0  0  0  0  0  0  0  0  0  0
    9.5242  -16.2108   22.0776 C   0  0  0  0  0  0  0  0  0  0  0  0
   10.1851  -16.5268   21.0707 O   0  0  0  0  0  0  0  0  0  0  0  0
   10.1616  -16.1513   23.3340 N   0  0  0  0  0  0  0  0  0  0  0  0
   11.5355  -16.6132   23.4469 C   0  0  1  0  0  0  0  0  0  0  0  0
   12.4833  -15.4798   23.1014 C   0  0  0  0  0  0  0  0  0  0  0  0
   13.4350  -15.8126   22.0330 C   0  0  0  0  0  0  0  0  0  0  0  0
   13.4434  -16.9187   21.4362 O   0  0  0  0  0  0  0  0  0  0  0  0
   11.7476  -17.0891   24.8315 C   0  0  0  0  0  0  0  0  0  0  0  0
   12.9041  -17.7554   25.2249 O   0  0  0  0  0  0  0  0  0  0  0  0
   14.4064  -14.8919   21.6134 O   0  0  0  0  0  0  0  0  0  0  0  0
   10.8390  -16.8784   25.6814 O   0  0  0  0  0  0  0  0  0  0  0  0
  2 10  1  0
  2  1  1  1
  2  3  1  0
  3  4  1  0
  4  5  2  0
  4  9  1  0
  5  6  1  0
  6  7  2  0
  8  7  1  0
  9  8  2  0
 10 17  1  0
 11 10  2  0
 13 12  1  1
 13 14  1  0
 15 13  1  0
 16 15  1  6
 17 16  1  0
 18 19  2  0
 18 16  1  0
 20 18  1  0
 21 22  1  1
 21 20  1  0
 23 22  1  0
 24 23  2  0
 25 21  1  0
 26 25  1  0
 27 23  1  0
 28 25  2  0
M  END
$$$$
