LAT.pdb
     RDKit          3D

 21 20  0  0  1  0  0  0  0  0999 V2000
   16.5585  -13.5981  -16.8814 C   0  0  0  0  0  0  0  0  0  0  0  0
   17.3636  -12.6943  -17.7839 C   0  0  2  0  0  0  0  0  0  0  0  0
   18.8091  -13.1435  -17.7462 C   0  0  0  0  0  0  0  0  0  0  0  0
   17.2223  -11.2321  -17.3603 C   0  0  0  0  0  0  0  0  0  0  0  0
   17.5552  -11.1717  -15.8925 C   0  0  2  0  0  0  0  0  0  0  0  0
   16.4383  -11.6185  -15.1228 N   0  0  0  0  0  0  0  0  0  0  0  0
   18.0539   -9.8679  -15.4452 C   0  0  0  0  0  0  0  0  0  0  0  0
   17.2111   -8.9532  -15.2369 O   0  0  0  0  0  0  0  0  0  0  0  0
   21.2435   -8.2289  -14.3008 C   0  0  0  0  0  0  0  0  0  0  0  0
   19.8689   -8.2247  -14.8845 C   0  0  2  0  0  0  0  0  0  0  0  0
   19.4141   -9.5563  -15.2285 N   0  0  0  0  0  0  0  0  0  0  0  0
   19.7092   -7.2790  -16.0155 C   0  0  0  0  0  0  0  0  0  0  0  0
   19.9975   -7.6940  -17.1675 O   0  0  0  0  0  0  0  0  0  0  0  0
   17.9415   -2.9052  -17.6475 C   0  0  0  0  0  0  0  0  0  0  0  0
   18.1776   -3.8575  -16.5043 C   0  0  1  0  0  0  0  0  0  0  0  0
   16.9754   -4.4082  -16.0352 O   0  0  0  0  0  0  0  0  0  0  0  0
   19.0934   -5.0088  -16.9415 C   0  0  2  0  0  0  0  0  0  0  0  0
   19.2572   -5.9567  -15.8705 N   0  0  0  0  0  0  0  0  0  0  0  0
   20.3787   -4.4750  -17.4313 C   0  0  0  0  0  0  0  0  0  0  0  0
   21.4134   -4.2435  -16.5220 O   0  0  0  0  0  0  0  0  0  0  0  0
   20.5257   -4.2372  -18.6496 O   0  0  0  0  0  0  0  0  0  0  0  0
  2  1  1  1
  3  2  1  0
  4  2  1  0
  4  5  1  0
  5  6  1  1
  7 11  1  0
  7  5  1  0
  8  7  2  0
 10  9  1  6
 10 11  1  0
 10 12  1  0
 12 18  1  0
 13 12  2  0
 15 14  1  6
 15 16  1  0
 17 15  1  0
 17 19  1  0
 17 18  1  1
 19 20  1  0
 21 19  2  0
M  END
$$$$
