LAT.pdb
     RDKit          3D

 21 20  0  0  1  0  0  0  0  0999 V2000
   10.9840  -11.1485  -11.1576 C   0  0  0  0  0  0  0  0  0  0  0  0
   12.1886  -12.0027  -10.8436 C   0  0  2  0  0  0  0  0  0  0  0  0
   11.7125  -13.2773  -10.1793 C   0  0  0  0  0  0  0  0  0  0  0  0
   13.1784  -11.2471   -9.9565 C   0  0  0  0  0  0  0  0  0  0  0  0
   13.6017  -10.0224  -10.7243 C   0  0  2  0  0  0  0  0  0  0  0  0
   14.4605  -10.3979  -11.8018 N   0  0  0  0  0  0  0  0  0  0  0  0
   14.1826   -8.9651   -9.8916 C   0  0  0  0  0  0  0  0  0  0  0  0
   13.5022   -8.5387   -8.9191 O   0  0  0  0  0  0  0  0  0  0  0  0
   17.4329   -7.1005   -9.4621 C   0  0  0  0  0  0  0  0  0  0  0  0
   15.9660   -7.3079   -9.2738 C   0  0  2  0  0  0  0  0  0  0  0  0
   15.4534   -8.3844  -10.0964 N   0  0  0  0  0  0  0  0  0  0  0  0
   15.1682   -6.0678   -9.4299 C   0  0  0  0  0  0  0  0  0  0  0  0
   14.7910   -5.7593  -10.5897 O   0  0  0  0  0  0  0  0  0  0  0  0
   14.3392   -3.5662   -6.0336 C   0  0  0  0  0  0  0  0  0  0  0  0
   13.3228   -3.7297   -7.1335 C   0  0  1  0  0  0  0  0  0  0  0  0
   12.5480   -2.5713   -7.2961 O   0  0  0  0  0  0  0  0  0  0  0  0
   14.0165   -4.0332   -8.4684 C   0  0  2  0  0  0  0  0  0  0  0  0
   14.8142   -5.2267   -8.3617 N   0  0  0  0  0  0  0  0  0  0  0  0
   14.7987   -2.8627   -8.9098 C   0  0  0  0  0  0  0  0  0  0  0  0
   14.1475   -1.8112   -9.5590 O   0  0  0  0  0  0  0  0  0  0  0  0
   16.0300   -2.8261   -8.6983 O   0  0  0  0  0  0  0  0  0  0  0  0
  2  1  1  1
  3  2  1  0
  4  2  1  0
  4  5  1  0
  5  6  1  6
  7 11  1  0
  7  5  1  0
  8  7  2  0
 10  9  1  6
 10 11  1  0
 10 12  1  0
 12 18  1  0
 13 12  2  0
 15 14  1  1
 15 16  1  0
 17 15  1  0
 17 19  1  0
 17 18  1  1
 19 20  1  0
 21 19  2  0
M  END
$$$$
