LAT.pdb
     RDKit          3D

 21 20  0  0  1  0  0  0  0  0999 V2000
   19.8065  -13.1833  -16.2028 C   0  0  0  0  0  0  0  0  0  0  0  0
   18.5345  -12.3700  -16.1942 C   0  0  2  0  0  0  0  0  0  0  0  0
   17.4781  -13.1241  -16.9739 C   0  0  0  0  0  0  0  0  0  0  0  0
   18.7719  -10.9774  -16.7789 C   0  0  0  0  0  0  0  0  0  0  0  0
   18.3456   -9.9870  -15.7272 C   0  0  2  0  0  0  0  0  0  0  0  0
   16.9618  -10.1669  -15.4237 N   0  0  0  0  0  0  0  0  0  0  0  0
   18.6683   -8.5942  -16.0510 C   0  0  0  0  0  0  0  0  0  0  0  0
   19.8646   -8.3168  -16.3377 O   0  0  0  0  0  0  0  0  0  0  0  0
   16.9594   -5.3385  -16.8065 C   0  0  0  0  0  0  0  0  0  0  0  0
   18.1136   -6.1613  -16.3363 C   0  0  2  0  0  0  0  0  0  0  0  0
   17.7363   -7.5335  -16.0664 N   0  0  0  0  0  0  0  0  0  0  0  0
   18.8456   -5.5573  -15.1969 C   0  0  0  0  0  0  0  0  0  0  0  0
   18.3364   -5.6686  -14.0520 O   0  0  0  0  0  0  0  0  0  0  0  0
   22.1888   -6.3373  -13.7852 C   0  0  0  0  0  0  0  0  0  0  0  0
   22.2337   -4.8889  -14.1970 C   0  0  1  0  0  0  0  0  0  0  0  0
   22.8160   -4.7308  -15.4638 O   0  0  0  0  0  0  0  0  0  0  0  0
   20.8185   -4.2969  -14.2431 C   0  0  2  0  0  0  0  0  0  0  0  0
   20.0662   -4.8737  -15.3264 N   0  0  0  0  0  0  0  0  0  0  0  0
   20.8879   -2.8250  -14.3179 C   0  0  0  0  0  0  0  0  0  0  0  0
   20.4506   -2.1785  -15.4764 O   0  0  0  0  0  0  0  0  0  0  0  0
   21.3355   -2.1767  -13.3476 O   0  0  0  0  0  0  0  0  0  0  0  0
  2  1  1  6
  3  2  1  0
  4  2  1  0
  4  5  1  0
  5  6  1  6
  7 11  1  0
  7  5  1  0
  8  7  2  0
 10  9  1  1
 10 11  1  0
 10 12  1  0
 12 18  1  0
 13 12  2  0
 15 14  1  6
 15 16  1  0
 17 15  1  0
 17 19  1  0
 17 18  1  6
 19 20  1  0
 21 19  2  0
M  END
$$$$
