LAT.pdb
     RDKit          3D

 21 20  0  0  1  0  0  0  0  0999 V2000
   19.9930  -11.8897  -19.9749 C   0  0  0  0  0  0  0  0  0  0  0  0
   18.6615  -11.4010  -19.4573 C   0  0  2  0  0  0  0  0  0  0  0  0
   17.9451  -10.6821  -20.5809 C   0  0  0  0  0  0  0  0  0  0  0  0
   18.8475  -10.4919  -18.2422 C   0  0  0  0  0  0  0  0  0  0  0  0
   19.4920  -11.3292  -17.1687 C   0  0  2  0  0  0  0  0  0  0  0  0
   18.5625  -12.3008  -16.6876 N   0  0  0  0  0  0  0  0  0  0  0  0
   20.0949  -10.5500  -16.0833 C   0  0  0  0  0  0  0  0  0  0  0  0
   19.3261   -9.8887  -15.3337 O   0  0  0  0  0  0  0  0  0  0  0  0
   23.3448  -10.1172  -14.2773 C   0  0  0  0  0  0  0  0  0  0  0  0
   22.0384   -9.6137  -14.7970 C   0  0  2  0  0  0  0  0  0  0  0  0
   21.4790  -10.4832  -15.8116 N   0  0  0  0  0  0  0  0  0  0  0  0
   22.0852   -8.2015  -15.2468 C   0  0  0  0  0  0  0  0  0  0  0  0
   22.5672   -7.9678  -16.3850 O   0  0  0  0  0  0  0  0  0  0  0  0
   19.7957   -5.8874  -16.4588 C   0  0  0  0  0  0  0  0  0  0  0  0
   20.3178   -5.1957  -15.2265 C   0  0  1  0  0  0  0  0  0  0  0  0
   19.4649   -5.3850  -14.1286 O   0  0  0  0  0  0  0  0  0  0  0  0
   21.7058   -5.7334  -14.8530 C   0  0  2  0  0  0  0  0  0  0  0  0
   21.6242   -7.1205  -14.4768 N   0  0  0  0  0  0  0  0  0  0  0  0
   22.3081   -4.8923  -13.8011 C   0  0  0  0  0  0  0  0  0  0  0  0
   22.6947   -3.5858  -14.1089 O   0  0  0  0  0  0  0  0  0  0  0  0
   22.4645   -5.3571  -12.6514 O   0  0  0  0  0  0  0  0  0  0  0  0
  2  1  1  6
  3  2  1  0
  4  2  1  0
  4  5  1  0
  5  6  1  1
  7 11  1  0
  7  5  1  0
  8  7  2  0
 10  9  1  6
 10 11  1  0
 10 12  1  0
 12 18  1  0
 13 12  2  0
 15 14  1  6
 15 16  1  0
 17 15  1  0
 17 19  1  0
 17 18  1  1
 19 20  1  0
 21 19  2  0
M  END
$$$$
