LAT.pdb
     RDKit          3D

 21 20  0  0  1  0  0  0  0  0999 V2000
   17.0828  -13.2273  -16.2168 C   0  0  0  0  0  0  0  0  0  0  0  0
   18.4495  -13.6835  -15.7655 C   0  0  2  0  0  0  0  0  0  0  0  0
   18.3126  -14.3343  -14.4052 C   0  0  0  0  0  0  0  0  0  0  0  0
   19.4319  -12.5126  -15.7278 C   0  0  0  0  0  0  0  0  0  0  0  0
   19.7705  -12.1842  -17.1582 C   0  0  2  0  0  0  0  0  0  0  0  0
   20.6966  -13.1432  -17.6702 N   0  0  0  0  0  0  0  0  0  0  0  0
   20.2250  -10.8059  -17.3643 C   0  0  0  0  0  0  0  0  0  0  0  0
   21.4343  -10.5409  -17.1239 O   0  0  0  0  0  0  0  0  0  0  0  0
   19.1359   -7.5809  -18.9128 C   0  0  0  0  0  0  0  0  0  0  0  0
   19.8664   -8.3740  -17.8795 C   0  0  2  0  0  0  0  0  0  0  0  0
   19.4072   -9.7462  -17.8141 N   0  0  0  0  0  0  0  0  0  0  0  0
   19.8798   -7.7335  -16.5422 C   0  0  0  0  0  0  0  0  0  0  0  0
   19.0291   -8.1224  -15.7010 O   0  0  0  0  0  0  0  0  0  0  0  0
   22.2321   -4.8516  -13.2402 C   0  0  0  0  0  0  0  0  0  0  0  0
   22.1705   -5.4243  -14.6322 C   0  0  1  0  0  0  0  0  0  0  0  0
   23.1387   -6.4218  -14.8226 O   0  0  0  0  0  0  0  0  0  0  0  0
   20.7904   -6.0386  -14.9024 C   0  0  2  0  0  0  0  0  0  0  0  0
   20.7834   -6.7249  -16.1678 N   0  0  0  0  0  0  0  0  0  0  0  0
   19.7474   -4.9989  -14.8125 C   0  0  0  0  0  0  0  0  0  0  0  0
   19.0096   -4.8716  -13.6333 O   0  0  0  0  0  0  0  0  0  0  0  0
   19.5372   -4.2474  -15.7889 O   0  0  0  0  0  0  0  0  0  0  0  0
  2  1  1  1
  3  2  1  0
  4  2  1  0
  4  5  1  0
  5  6  1  1
  7 11  1  0
  7  5  1  0
  8  7  2  0
 10  9  1  6
 10 11  1  0
 10 12  1  0
 12 18  1  0
 13 12  2  0
 15 14  1  1
 15 16  1  0
 17 15  1  0
 17 19  1  0
 17 18  1  6
 19 20  1  0
 21 19  2  0
M  END
$$$$
