LAT.pdb
     RDKit          3D

 21 20  0  0  1  0  0  0  0  0999 V2000
   15.5191  -14.7655  -17.0038 C   0  0  0  0  0  0  0  0  0  0  0  0
   16.5840  -15.0334  -15.9677 C   0  0  2  0  0  0  0  0  0  0  0  0
   15.9070  -15.4775  -14.6882 C   0  0  0  0  0  0  0  0  0  0  0  0
   17.4496  -13.7939  -15.7400 C   0  0  0  0  0  0  0  0  0  0  0  0
   18.2457  -13.5832  -17.0011 C   0  0  2  0  0  0  0  0  0  0  0  0
   19.2226  -14.6161  -17.1366 N   0  0  0  0  0  0  0  0  0  0  0  0
   18.8302  -12.2445  -17.1231 C   0  0  0  0  0  0  0  0  0  0  0  0
   19.9951  -12.0657  -16.6742 O   0  0  0  0  0  0  0  0  0  0  0  0
   18.1902   -9.0395  -18.9675 C   0  0  0  0  0  0  0  0  0  0  0  0
   18.8398   -9.8556  -17.8988 C   0  0  2  0  0  0  0  0  0  0  0  0
   18.1846  -11.1334  -17.7086 N   0  0  0  0  0  0  0  0  0  0  0  0
   19.0085   -9.1272  -16.6182 C   0  0  0  0  0  0  0  0  0  0  0  0
   18.0650   -9.1819  -15.7879 O   0  0  0  0  0  0  0  0  0  0  0  0
   22.2006   -9.1655  -14.2851 C   0  0  0  0  0  0  0  0  0  0  0  0
   21.8240   -7.7456  -14.6192 C   0  0  1  0  0  0  0  0  0  0  0  0
   22.6176   -7.2319  -15.6560 O   0  0  0  0  0  0  0  0  0  0  0  0
   20.3549   -7.6655  -15.0558 C   0  0  2  0  0  0  0  0  0  0  0  0
   20.1549   -8.3863  -16.2857 N   0  0  0  0  0  0  0  0  0  0  0  0
   19.9300   -6.2555  -15.1462 C   0  0  0  0  0  0  0  0  0  0  0  0
   19.5920   -5.7225  -16.3924 O   0  0  0  0  0  0  0  0  0  0  0  0
   19.8777   -5.5576  -14.1107 O   0  0  0  0  0  0  0  0  0  0  0  0
  2  1  1  6
  3  2  1  0
  4  2  1  0
  4  5  1  0
  5  6  1  1
  7 11  1  0
  7  5  1  0
  8  7  2  0
 10  9  1  6
 10 11  1  0
 10 12  1  0
 12 18  1  0
 13 12  2  0
 15 14  1  6
 15 16  1  0
 17 15  1  0
 17 19  1  0
 17 18  1  6
 19 20  1  0
 21 19  2  0
M  END
$$$$
