LAT.pdb
     RDKit          3D

 21 20  0  0  1  0  0  0  0  0999 V2000
   20.0269  -14.9028  -15.7390 C   0  0  0  0  0  0  0  0  0  0  0  0
   19.2425  -14.4426  -16.9442 C   0  0  2  0  0  0  0  0  0  0  0  0
   19.3735  -15.4900  -18.0299 C   0  0  0  0  0  0  0  0  0  0  0  0
   19.7309  -13.0760  -17.4253 C   0  0  0  0  0  0  0  0  0  0  0  0
   19.1736  -12.0549  -16.4686 C   0  0  2  0  0  0  0  0  0  0  0  0
   17.7775  -12.2835  -16.2737 N   0  0  0  0  0  0  0  0  0  0  0  0
   19.4642  -10.6666  -16.8390 C   0  0  0  0  0  0  0  0  0  0  0  0
   20.6659  -10.3536  -17.0591 O   0  0  0  0  0  0  0  0  0  0  0  0
   17.6792   -7.5443  -17.9067 C   0  0  0  0  0  0  0  0  0  0  0  0
   18.8346   -8.2821  -17.3145 C   0  0  2  0  0  0  0  0  0  0  0  0
   18.4956   -9.6474  -16.9688 N   0  0  0  0  0  0  0  0  0  0  0  0
   19.4737   -7.5698  -16.1817 C   0  0  0  0  0  0  0  0  0  0  0  0
   19.0812   -7.8513  -15.0201 O   0  0  0  0  0  0  0  0  0  0  0  0
   23.1200   -4.5850  -14.5563 C   0  0  0  0  0  0  0  0  0  0  0  0
   22.4426   -5.2860  -15.7049 C   0  0  1  0  0  0  0  0  0  0  0  0
   23.2194   -6.3486  -16.1908 O   0  0  0  0  0  0  0  0  0  0  0  0
   21.0827   -5.8475  -15.2679 C   0  0  2  0  0  0  0  0  0  0  0  0
   20.4847   -6.6063  -16.3350 N   0  0  0  0  0  0  0  0  0  0  0  0
   20.2143   -4.7549  -14.7896 C   0  0  0  0  0  0  0  0  0  0  0  0
   20.1288   -4.5004  -13.4188 O   0  0  0  0  0  0  0  0  0  0  0  0
   19.5678   -4.0727  -15.6136 O   0  0  0  0  0  0  0  0  0  0  0  0
  2  1  1  1
  3  2  1  0
  4  2  1  0
  4  5  1  0
  5  6  1  6
  7 11  1  0
  7  5  1  0
  8  7  2  0
 10  9  1  1
 10 11  1  0
 10 12  1  0
 12 18  1  0
 13 12  2  0
 15 14  1  1
 15 16  1  0
 17 15  1  0
 17 19  1  0
 17 18  1  6
 19 20  1  0
 21 19  2  0
M  END
$$$$
