LAT.pdb
     RDKit          3D

 21 20  0  0  1  0  0  0  0  0999 V2000
   19.7756   -9.8134  -20.3764 C   0  0  0  0  0  0  0  0  0  0  0  0
   20.2761  -10.0739  -18.9760 C   0  0  2  0  0  0  0  0  0  0  0  0
   20.2690  -11.5687  -18.7348 C   0  0  0  0  0  0  0  0  0  0  0  0
   19.4212   -9.3380  -17.9440 C   0  0  0  0  0  0  0  0  0  0  0  0
   20.1152   -9.4927  -16.6162 C   0  0  2  0  0  0  0  0  0  0  0  0
   19.7483  -10.7370  -16.0190 N   0  0  0  0  0  0  0  0  0  0  0  0
   19.9241   -8.3601  -15.7055 C   0  0  0  0  0  0  0  0  0  0  0  0
   18.8146   -8.2584  -15.1147 O   0  0  0  0  0  0  0  0  0  0  0  0
   21.8190   -5.9415  -13.6841 C   0  0  0  0  0  0  0  0  0  0  0  0
   20.6453   -6.2469  -14.5555 C   0  0  2  0  0  0  0  0  0  0  0  0
   20.8933   -7.3686  -15.4378 N   0  0  0  0  0  0  0  0  0  0  0  0
   20.1343   -5.0673  -15.2947 C   0  0  0  0  0  0  0  0  0  0  0  0
   20.7396   -4.7304  -16.3448 O   0  0  0  0  0  0  0  0  0  0  0  0
   16.7160   -4.3569  -16.8560 C   0  0  0  0  0  0  0  0  0  0  0  0
   16.9892   -3.3110  -15.8066 C   0  0  1  0  0  0  0  0  0  0  0  0
   16.3891   -3.6404  -14.5819 O   0  0  0  0  0  0  0  0  0  0  0  0
   18.4988   -3.1603  -15.5751 C   0  0  2  0  0  0  0  0  0  0  0  0
   19.0207   -4.3130  -14.8888 N   0  0  0  0  0  0  0  0  0  0  0  0
   18.7781   -1.8986  -14.8632 C   0  0  0  0  0  0  0  0  0  0  0  0
   18.5977   -0.6840  -15.5293 O   0  0  0  0  0  0  0  0  0  0  0  0
   19.1712   -1.9314  -13.6772 O   0  0  0  0  0  0  0  0  0  0  0  0
  2  1  1  6
  3  2  1  0
  4  2  1  0
  4  5  1  0
  5  6  1  1
  7 11  1  0
  7  5  1  0
  8  7  2  0
 10  9  1  6
 10 11  1  0
 10 12  1  0
 12 18  1  0
 13 12  2  0
 15 14  1  6
 15 16  1  0
 17 15  1  0
 17 19  1  0
 17 18  1  1
 19 20  1  0
 21 19  2  0
M  END
$$$$
