LAT.pdb
     RDKit          3D

 21 20  0  0  1  0  0  0  0  0999 V2000
   23.7751  -14.9211  -15.0799 C   0  0  0  0  0  0  0  0  0  0  0  0
   24.5870  -14.2532  -16.1637 C   0  0  2  0  0  0  0  0  0  0  0  0
   26.0556  -14.4296  -15.8399 C   0  0  0  0  0  0  0  0  0  0  0  0
   24.2172  -12.7753  -16.2916 C   0  0  0  0  0  0  0  0  0  0  0  0
   22.7530  -12.7232  -16.6412 C   0  0  2  0  0  0  0  0  0  0  0  0
   22.5318  -13.3591  -17.9006 N   0  0  0  0  0  0  0  0  0  0  0  0
   22.1723  -11.3784  -16.5867 C   0  0  0  0  0  0  0  0  0  0  0  0
   22.6127  -10.5122  -17.3905 O   0  0  0  0  0  0  0  0  0  0  0  0
   19.1871   -9.6318  -15.1478 C   0  0  0  0  0  0  0  0  0  0  0  0
   20.5651   -9.6523  -15.7229 C   0  0  2  0  0  0  0  0  0  0  0  0
   21.1512  -10.9767  -15.6977 N   0  0  0  0  0  0  0  0  0  0  0  0
   21.4695   -8.6385  -15.1285 C   0  0  0  0  0  0  0  0  0  0  0  0
   22.1858   -8.9943  -14.1574 O   0  0  0  0  0  0  0  0  0  0  0  0
   21.8851   -4.7120  -16.9033 C   0  0  0  0  0  0  0  0  0  0  0  0
   23.0161   -5.4584  -16.2451 C   0  0  1  0  0  0  0  0  0  0  0  0
   23.9808   -4.5808  -15.7276 O   0  0  0  0  0  0  0  0  0  0  0  0
   22.4917   -6.3267  -15.0935 C   0  0  2  0  0  0  0  0  0  0  0  0
   21.5682   -7.3144  -15.5875 N   0  0  0  0  0  0  0  0  0  0  0  0
   21.9049   -5.4732  -14.0428 C   0  0  0  0  0  0  0  0  0  0  0  0
   22.7511   -4.7649  -13.1864 O   0  0  0  0  0  0  0  0  0  0  0  0
   20.6624   -5.3944  -13.9320 O   0  0  0  0  0  0  0  0  0  0  0  0
  2  1  1  1
  3  2  1  0
  4  2  1  0
  4  5  1  0
  5  6  1  6
  7 11  1  0
  7  5  1  0
  8  7  2  0
 10  9  1  1
 10 11  1  0
 10 12  1  0
 12 18  1  0
 13 12  2  0
 15 14  1  1
 15 16  1  0
 17 15  1  0
 17 19  1  0
 17 18  1  6
 19 20  1  0
 21 19  2  0
M  END
$$$$
