LAT.pdb
     RDKit          3D

 21 20  0  0  1  0  0  0  0  0999 V2000
   24.6253  -13.6820  -16.0715 C   0  0  0  0  0  0  0  0  0  0  0  0
   24.7041  -12.9078  -17.3653 C   0  0  2  0  0  0  0  0  0  0  0  0
   26.1537  -12.8439  -17.7981 C   0  0  0  0  0  0  0  0  0  0  0  0
   24.1080  -11.5093  -17.2029 C   0  0  0  0  0  0  0  0  0  0  0  0
   22.6363  -11.6930  -16.9405 C   0  0  2  0  0  0  0  0  0  0  0  0
   22.0260  -12.3613  -18.0453 N   0  0  0  0  0  0  0  0  0  0  0  0
   21.9340  -10.4579  -16.5799 C   0  0  0  0  0  0  0  0  0  0  0  0
   21.9637   -9.5007  -17.4005 O   0  0  0  0  0  0  0  0  0  0  0  0
   19.4222   -9.2376  -14.0772 C   0  0  0  0  0  0  0  0  0  0  0  0
   20.5061   -9.0326  -15.0838 C   0  0  2  0  0  0  0  0  0  0  0  0
   21.2225  -10.2571  -15.3768 N   0  0  0  0  0  0  0  0  0  0  0  0
   21.4286   -7.9231  -14.7424 C   0  0  0  0  0  0  0  0  0  0  0  0
   22.5177   -8.2203  -14.1873 O   0  0  0  0  0  0  0  0  0  0  0  0
   22.8168   -5.3325  -17.1352 C   0  0  0  0  0  0  0  0  0  0  0  0
   22.1658   -4.5822  -16.0025 C   0  0  1  0  0  0  0  0  0  0  0  0
   20.8771   -4.1465  -16.3459 O   0  0  0  0  0  0  0  0  0  0  0  0
   22.0543   -5.4738  -14.7583 C   0  0  2  0  0  0  0  0  0  0  0  0
   21.1542   -6.5701  -15.0033 N   0  0  0  0  0  0  0  0  0  0  0  0
   21.6612   -4.6642  -13.5892 C   0  0  0  0  0  0  0  0  0  0  0  0
   22.5836   -3.7752  -13.0326 O   0  0  0  0  0  0  0  0  0  0  0  0
   20.5118   -4.7831  -13.1127 O   0  0  0  0  0  0  0  0  0  0  0  0
  2  1  1  1
  3  2  1  0
  4  2  1  0
  4  5  1  0
  5  6  1  6
  7 11  1  0
  7  5  1  0
  8  7  2  0
 10  9  1  1
 10 11  1  0
 10 12  1  0
 12 18  1  0
 13 12  2  0
 15 14  1  6
 15 16  1  0
 17 15  1  0
 17 19  1  0
 17 18  1  6
 19 20  1  0
 21 19  2  0
M  END
$$$$
