MMC.pdb
     RDKit          3D

 23 22  0  0  1  0  0  0  0  0999 V2000
    7.6452  -11.9853   25.7272 C   0  0  0  0  0  0  0  0  0  0  0  0
    6.6067  -12.6198   27.0672 S   0  0  0  0  0  0  0  0  0  0  0  0
    5.7846  -14.1269   26.4267 C   0  0  0  0  0  0  0  0  0  0  0  0
    6.8622  -15.1043   26.0943 C   0  0  0  0  0  0  0  0  0  0  0  0
    6.3923  -16.2288   25.1960 C   0  0  2  0  0  0  0  0  0  0  0  0
    6.2186  -17.3999   25.9956 N   0  0  0  0  0  0  0  0  0  0  0  0
    7.3885  -16.3815   24.1230 C   0  0  0  0  0  0  0  0  0  0  0  0
    7.8832  -17.5281   23.9498 O   0  0  0  0  0  0  0  0  0  0  0  0
    8.9528  -12.3092   19.0557 C   0  0  0  0  0  0  0  0  0  0  0  0
    7.2677  -12.8298   19.5175 S   0  0  0  0  0  0  0  0  0  0  0  0
    7.3356  -14.3609   20.5074 C   0  0  0  0  0  0  0  0  0  0  0  0
    8.6742  -14.3842   21.1986 C   0  0  0  0  0  0  0  0  0  0  0  0
    8.7690  -15.4746   22.2394 C   0  0  2  0  0  0  0  0  0  0  0  0
    7.8044  -15.3083   23.2933 N   0  0  0  0  0  0  0  0  0  0  0  0
   10.1163  -15.5619   22.8418 C   0  0  0  0  0  0  0  0  0  0  0  0
   10.6274  -14.5519   23.3859 O   0  0  0  0  0  0  0  0  0  0  0  0
   10.8905  -16.7520   22.8439 N   0  0  0  0  0  0  0  0  0  0  0  0
   12.2318  -16.8513   23.3599 C   0  0  1  0  0  0  0  0  0  0  0  0
   12.2738  -17.9266   24.4529 C   0  0  0  0  0  0  0  0  0  0  0  0
   11.0014  -17.5915   25.7108 S   0  0  0  0  0  0  0  0  0  0  0  0
   13.2261  -17.1923   22.3451 C   0  0  0  0  0  0  0  0  0  0  0  0
   14.5510  -17.3174   22.6969 O   0  0  0  0  0  0  0  0  0  0  0  0
   12.8810  -17.3708   21.1616 O   0  0  0  0  0  0  0  0  0  0  0  0
  2  1  1  0
  2  3  1  0
  4  3  1  0
  4  5  1  0
  5  7  1  0
  5  6  1  1
  7  8  2  0
  7 14  1  0
  9 10  1  0
 11 12  1  0
 11 10  1  0
 13 15  1  0
 13 12  1  6
 14 13  1  0
 15 16  2  0
 17 18  1  0
 17 15  1  0
 18 19  1  1
 19 20  1  0
 21 22  1  0
 21 18  1  0
 23 21  2  0
M  END
$$$$
