MMC.pdb
     RDKit          3D

 23 22  0  0  1  0  0  0  0  0999 V2000
    8.5105  -11.7250   19.5099 C   0  0  0  0  0  0  0  0  0  0  0  0
    7.9101  -12.9067   18.2770 S   0  0  0  0  0  0  0  0  0  0  0  0
    7.7819  -14.5278   19.1212 C   0  0  0  0  0  0  0  0  0  0  0  0
    8.7078  -14.4856   20.2907 C   0  0  0  0  0  0  0  0  0  0  0  0
    8.7273  -15.7750   21.0840 C   0  0  2  0  0  0  0  0  0  0  0  0
    7.5439  -16.5121   20.7725 N   0  0  0  0  0  0  0  0  0  0  0  0
    8.8492  -15.4157   22.5063 C   0  0  0  0  0  0  0  0  0  0  0  0
    9.9233  -14.8693   22.8766 O   0  0  0  0  0  0  0  0  0  0  0  0
    8.2343  -11.9101   27.5384 C   0  0  0  0  0  0  0  0  0  0  0  0
    6.7940  -12.4904   26.5830 S   0  0  0  0  0  0  0  0  0  0  0  0
    6.6036  -14.2949   26.7731 C   0  0  0  0  0  0  0  0  0  0  0  0
    6.5306  -14.8824   25.3875 C   0  0  0  0  0  0  0  0  0  0  0  0
    7.8953  -15.1748   24.8104 C   0  0  2  0  0  0  0  0  0  0  0  0
    7.8237  -15.6565   23.4570 N   0  0  0  0  0  0  0  0  0  0  0  0
    8.6511  -16.1536   25.6206 C   0  0  0  0  0  0  0  0  0  0  0  0
    8.7915  -15.9715   26.8553 O   0  0  0  0  0  0  0  0  0  0  0  0
    9.2449  -17.3213   25.0732 N   0  0  0  0  0  0  0  0  0  0  0  0
   10.0114  -18.2777   25.8301 C   0  0  1  0  0  0  0  0  0  0  0  0
   10.3939  -19.4517   24.9200 C   0  0  0  0  0  0  0  0  0  0  0  0
   11.1281  -18.8324   23.3737 S   0  0  0  0  0  0  0  0  0  0  0  0
   11.2370  -17.7251   26.4021 C   0  0  0  0  0  0  0  0  0  0  0  0
   11.9826  -18.4755   27.2829 O   0  0  0  0  0  0  0  0  0  0  0  0
   11.6114  -16.5770   26.0968 O   0  0  0  0  0  0  0  0  0  0  0  0
  2  1  1  0
  2  3  1  0
  4  3  1  0
  4  5  1  0
  5  7  1  0
  5  6  1  1
  7  8  2  0
  7 14  1  0
  9 10  1  0
 11 12  1  0
 11 10  1  0
 13 15  1  0
 13 12  1  1
 14 13  1  0
 15 16  2  0
 17 18  1  0
 17 15  1  0
 18 19  1  6
 19 20  1  0
 21 22  1  0
 21 18  1  0
 23 21  2  0
M  END
$$$$
