MMC.pdb
     RDKit          3D

 23 22  0  0  1  0  0  0  0  0999 V2000
    9.9100  -17.8900   17.6314 C   0  0  0  0  0  0  0  0  0  0  0  0
    8.3900  -18.7356   18.1329 S   0  0  0  0  0  0  0  0  0  0  0  0
    8.4985  -18.9812   19.9453 C   0  0  0  0  0  0  0  0  0  0  0  0
    8.9984  -17.7025   20.5301 C   0  0  0  0  0  0  0  0  0  0  0  0
    9.1443  -17.7513   22.0363 C   0  0  2  0  0  0  0  0  0  0  0  0
    8.0322  -18.4702   22.5724 N   0  0  0  0  0  0  0  0  0  0  0  0
    9.2436  -16.3627   22.5148 C   0  0  0  0  0  0  0  0  0  0  0  0
   10.2352  -15.6860   22.1298 O   0  0  0  0  0  0  0  0  0  0  0  0
    5.9784  -11.4075   26.3866 C   0  0  0  0  0  0  0  0  0  0  0  0
    7.0651  -12.8101   26.8058 S   0  0  0  0  0  0  0  0  0  0  0  0
    6.7075  -14.2265   25.7127 C   0  0  0  0  0  0  0  0  0  0  0  0
    7.1250  -13.8298   24.3204 C   0  0  0  0  0  0  0  0  0  0  0  0
    8.4432  -14.4450   23.9143 C   0  0  2  0  0  0  0  0  0  0  0  0
    8.2845  -15.7693   23.3758 N   0  0  0  0  0  0  0  0  0  0  0  0
    9.4060  -14.5032   25.0346 C   0  0  0  0  0  0  0  0  0  0  0  0
    9.8286  -13.4411   25.5551 O   0  0  0  0  0  0  0  0  0  0  0  0
    9.8966  -15.7211   25.5748 N   0  0  0  0  0  0  0  0  0  0  0  0
   10.5566  -15.8404   26.8496 C   0  0  1  0  0  0  0  0  0  0  0  0
    9.6003  -15.3823   27.9580 C   0  0  0  0  0  0  0  0  0  0  0  0
   10.3216  -13.9807   28.8682 S   0  0  0  0  0  0  0  0  0  0  0  0
   10.9949  -17.1997   27.1575 C   0  0  0  0  0  0  0  0  0  0  0  0
   11.7452  -17.4401   28.2862 O   0  0  0  0  0  0  0  0  0  0  0  0
   10.6928  -18.1438   26.4031 O   0  0  0  0  0  0  0  0  0  0  0  0
  2  1  1  0
  2  3  1  0
  4  3  1  0
  4  5  1  0
  5  7  1  0
  5  6  1  1
  7  8  2  0
  7 14  1  0
  9 10  1  0
 11 12  1  0
 11 10  1  0
 13 15  1  0
 13 12  1  1
 14 13  1  0
 15 16  2  0
 17 18  1  0
 17 15  1  0
 18 19  1  1
 19 20  1  0
 21 22  1  0
 21 18  1  0
 23 21  2  0
M  END
$$$$
