MMC.pdb
     RDKit          3D

 23 22  0  0  1  0  0  0  0  0999 V2000
    3.6063  -18.2512   20.3100 C   0  0  0  0  0  0  0  0  0  0  0  0
    3.0863  -18.8837   21.9244 S   0  0  0  0  0  0  0  0  0  0  0  0
    4.5851  -19.5619   22.7311 C   0  0  0  0  0  0  0  0  0  0  0  0
    5.7629  -18.9492   22.0497 C   0  0  0  0  0  0  0  0  0  0  0  0
    7.0039  -18.9158   22.9164 C   0  0  2  0  0  0  0  0  0  0  0  0
    6.7194  -19.6048   24.1351 N   0  0  0  0  0  0  0  0  0  0  0  0
    7.3740  -17.5032   23.1022 C   0  0  0  0  0  0  0  0  0  0  0  0
    7.8181  -16.8831   22.0983 O   0  0  0  0  0  0  0  0  0  0  0  0
    6.4091  -10.6212   26.7455 C   0  0  0  0  0  0  0  0  0  0  0  0
    5.9770  -12.3834   26.5670 S   0  0  0  0  0  0  0  0  0  0  0  0
    7.1735  -13.2121   25.4669 C   0  0  0  0  0  0  0  0  0  0  0  0
    6.7457  -14.6521   25.3493 C   0  0  0  0  0  0  0  0  0  0  0  0
    7.7152  -15.4793   24.5388 C   0  0  2  0  0  0  0  0  0  0  0  0
    7.2521  -16.8270   24.3436 N   0  0  0  0  0  0  0  0  0  0  0  0
    9.0614  -15.5261   25.1480 C   0  0  0  0  0  0  0  0  0  0  0  0
    9.9831  -14.8063   24.6901 O   0  0  0  0  0  0  0  0  0  0  0  0
    9.3861  -16.3585   26.2514 N   0  0  0  0  0  0  0  0  0  0  0  0
   10.4105  -16.0649   27.2207 C   0  0  1  0  0  0  0  0  0  0  0  0
    9.8677  -15.0533   28.2380 C   0  0  0  0  0  0  0  0  0  0  0  0
   11.1618  -14.6205   29.4428 S   0  0  0  0  0  0  0  0  0  0  0  0
   10.8800  -17.2400   27.9509 C   0  0  0  0  0  0  0  0  0  0  0  0
   12.0421  -17.1725   28.6858 O   0  0  0  0  0  0  0  0  0  0  0  0
   10.2338  -18.3041   27.9122 O   0  0  0  0  0  0  0  0  0  0  0  0
  2  1  1  0
  2  3  1  0
  4  3  1  0
  4  5  1  0
  5  7  1  0
  5  6  1  1
  7  8  2  0
  7 14  1  0
  9 10  1  0
 11 12  1  0
 11 10  1  0
 13 15  1  0
 13 12  1  1
 14 13  1  0
 15 16  2  0
 17 18  1  0
 17 15  1  0
 18 19  1  1
 19 20  1  0
 21 22  1  0
 21 18  1  0
 23 21  2  0
M  END
$$$$
