MMC.pdb
     RDKit          3D

 23 22  0  0  1  0  0  0  0  0999 V2000
    9.5371  -20.6703   23.1122 C   0  0  0  0  0  0  0  0  0  0  0  0
    8.7120  -20.8435   21.5103 S   0  0  0  0  0  0  0  0  0  0  0  0
    8.2772  -19.1517   20.9573 C   0  0  0  0  0  0  0  0  0  0  0  0
    8.9665  -18.2007   21.8777 C   0  0  0  0  0  0  0  0  0  0  0  0
    8.6399  -16.7501   21.5921 C   0  0  2  0  0  0  0  0  0  0  0  0
    9.3824  -16.3404   20.4424 N   0  0  0  0  0  0  0  0  0  0  0  0
    8.9504  -15.9806   22.8080 C   0  0  0  0  0  0  0  0  0  0  0  0
   10.1465  -15.6193   22.9761 O   0  0  0  0  0  0  0  0  0  0  0  0
    5.7778  -11.1916   26.0812 C   0  0  0  0  0  0  0  0  0  0  0  0
    7.4297  -11.7693   26.5927 S   0  0  0  0  0  0  0  0  0  0  0  0
    7.3966  -13.5681   26.8958 C   0  0  0  0  0  0  0  0  0  0  0  0
    7.0882  -14.2349   25.5804 C   0  0  0  0  0  0  0  0  0  0  0  0
    8.2965  -14.9109   24.9770 C   0  0  2  0  0  0  0  0  0  0  0  0
    7.9736  -15.6372   23.7782 N   0  0  0  0  0  0  0  0  0  0  0  0
    8.9569  -15.8337   25.9247 C   0  0  0  0  0  0  0  0  0  0  0  0
    8.3827  -16.8961   26.2697 O   0  0  0  0  0  0  0  0  0  0  0  0
   10.2378  -15.5861   26.4847 N   0  0  0  0  0  0  0  0  0  0  0  0
   10.8649  -16.4136   27.4833 C   0  0  1  0  0  0  0  0  0  0  0  0
   12.3567  -16.5564   27.1564 C   0  0  0  0  0  0  0  0  0  0  0  0
   12.5903  -16.7325   25.3597 S   0  0  0  0  0  0  0  0  0  0  0  0
   10.7431  -15.8874   28.8409 C   0  0  0  0  0  0  0  0  0  0  0  0
   10.1117  -14.6834   29.0563 O   0  0  0  0  0  0  0  0  0  0  0  0
   11.2080  -16.5233   29.8058 O   0  0  0  0  0  0  0  0  0  0  0  0
  2  1  1  0
  2  3  1  0
  4  3  1  0
  4  5  1  0
  5  7  1  0
  5  6  1  6
  7  8  2  0
  7 14  1  0
  9 10  1  0
 11 12  1  0
 11 10  1  0
 13 15  1  0
 13 12  1  1
 14 13  1  0
 15 16  2  0
 17 18  1  0
 17 15  1  0
 18 19  1  6
 19 20  1  0
 21 22  1  0
 21 18  1  0
 23 21  2  0
M  END
$$$$
