MMC.pdb
     RDKit          3D

 23 22  0  0  1  0  0  0  0  0999 V2000
    7.9932  -11.5144   19.5993 C   0  0  0  0  0  0  0  0  0  0  0  0
    7.3790  -12.8140   18.4990 S   0  0  0  0  0  0  0  0  0  0  0  0
    8.1072  -14.3889   19.0876 C   0  0  0  0  0  0  0  0  0  0  0  0
    8.1931  -14.3014   20.5748 C   0  0  0  0  0  0  0  0  0  0  0  0
    8.7436  -15.5575   21.2163 C   0  0  2  0  0  0  0  0  0  0  0  0
    7.7685  -16.5933   21.0853 N   0  0  0  0  0  0  0  0  0  0  0  0
    9.0810  -15.2288   22.6110 C   0  0  0  0  0  0  0  0  0  0  0  0
   10.0686  -14.4697   22.8053 O   0  0  0  0  0  0  0  0  0  0  0  0
    7.0305  -12.3733   27.9738 C   0  0  0  0  0  0  0  0  0  0  0  0
    6.1088  -12.6920   26.4334 S   0  0  0  0  0  0  0  0  0  0  0  0
    7.1815  -13.5431   25.2277 C   0  0  0  0  0  0  0  0  0  0  0  0
    7.6848  -14.7994   25.8899 C   0  0  0  0  0  0  0  0  0  0  0  0
    8.7580  -15.4894   25.0817 C   0  0  2  0  0  0  0  0  0  0  0  0
    8.3510  -15.7243   23.7222 N   0  0  0  0  0  0  0  0  0  0  0  0
    9.1729  -16.7763   25.6794 C   0  0  0  0  0  0  0  0  0  0  0  0
    8.3784  -17.7490   25.6894 O   0  0  0  0  0  0  0  0  0  0  0  0
   10.4515  -16.9869   26.2595 N   0  0  0  0  0  0  0  0  0  0  0  0
   10.8816  -18.2247   26.8578 C   0  0  1  0  0  0  0  0  0  0  0  0
   12.3977  -18.3724   26.6778 C   0  0  0  0  0  0  0  0  0  0  0  0
   12.8691  -17.9574   24.9692 S   0  0  0  0  0  0  0  0  0  0  0  0
   10.5793  -18.3222   28.2839 C   0  0  0  0  0  0  0  0  0  0  0  0
   10.9292  -19.4546   28.9840 O   0  0  0  0  0  0  0  0  0  0  0  0
   10.0059  -17.3849   28.8706 O   0  0  0  0  0  0  0  0  0  0  0  0
  2  1  1  0
  2  3  1  0
  4  3  1  0
  4  5  1  0
  5  7  1  0
  5  6  1  1
  7  8  2  0
  7 14  1  0
  9 10  1  0
 11 12  1  0
 11 10  1  0
 13 15  1  0
 13 12  1  1
 14 13  1  0
 15 16  2  0
 17 18  1  0
 17 15  1  0
 18 19  1  1
 19 20  1  0
 21 22  1  0
 21 18  1  0
 23 21  2  0
M  END
$$$$
