MMC.pdb
     RDKit          3D

 23 22  0  0  1  0  0  0  0  0999 V2000
    8.8546  -11.8612   19.6801 C   0  0  0  0  0  0  0  0  0  0  0  0
    7.3479  -12.8183   19.3793 S   0  0  0  0  0  0  0  0  0  0  0  0
    7.8787  -14.5340   19.0162 C   0  0  0  0  0  0  0  0  0  0  0  0
    9.0347  -14.8322   19.9114 C   0  0  0  0  0  0  0  0  0  0  0  0
    8.7908  -16.0111   20.8296 C   0  0  2  0  0  0  0  0  0  0  0  0
    7.4170  -16.3881   20.7213 N   0  0  0  0  0  0  0  0  0  0  0  0
    9.1925  -15.6041   22.1860 C   0  0  0  0  0  0  0  0  0  0  0  0
   10.4166  -15.3771   22.3848 O   0  0  0  0  0  0  0  0  0  0  0  0
    5.6128  -12.1703   26.6179 C   0  0  0  0  0  0  0  0  0  0  0  0
    7.4012  -12.0484   26.9505 S   0  0  0  0  0  0  0  0  0  0  0  0
    8.2164  -13.6371   26.5757 C   0  0  0  0  0  0  0  0  0  0  0  0
    7.7763  -14.0474   25.1943 C   0  0  0  0  0  0  0  0  0  0  0  0
    8.6824  -15.0905   24.5845 C   0  0  2  0  0  0  0  0  0  0  0  0
    8.2722  -15.4604   23.2564 N   0  0  0  0  0  0  0  0  0  0  0  0
    8.7680  -16.3138   25.4102 C   0  0  0  0  0  0  0  0  0  0  0  0
    7.7308  -16.9771   25.6590 O   0  0  0  0  0  0  0  0  0  0  0  0
    9.9857  -16.7997   25.9547 N   0  0  0  0  0  0  0  0  0  0  0  0
   10.1012  -17.9861   26.7636 C   0  0  1  0  0  0  0  0  0  0  0  0
   11.2039  -18.8840   26.1884 C   0  0  0  0  0  0  0  0  0  0  0  0
   10.9814  -19.0766   24.3920 S   0  0  0  0  0  0  0  0  0  0  0  0
   10.4190  -17.7122   28.1632 C   0  0  0  0  0  0  0  0  0  0  0  0
   10.6140  -16.4155   28.5817 O   0  0  0  0  0  0  0  0  0  0  0  0
   10.5146  -18.6470   28.9809 O   0  0  0  0  0  0  0  0  0  0  0  0
  2  1  1  0
  2  3  1  0
  4  3  1  0
  4  5  1  0
  5  7  1  0
  5  6  1  1
  7  8  2  0
  7 14  1  0
  9 10  1  0
 11 12  1  0
 11 10  1  0
 13 15  1  0
 13 12  1  1
 14 13  1  0
 15 16  2  0
 17 18  1  0
 17 15  1  0
 18 19  1  6
 19 20  1  0
 21 22  1  0
 21 18  1  0
 23 21  2  0
M  END
$$$$
