MMC.pdb
     RDKit          3D

 23 22  0  0  1  0  0  0  0  0999 V2000
    8.4169  -11.7506   19.3960 C   0  0  0  0  0  0  0  0  0  0  0  0
    7.1515  -12.8531   18.7179 S   0  0  0  0  0  0  0  0  0  0  0  0
    7.4441  -14.5051   19.4545 C   0  0  0  0  0  0  0  0  0  0  0  0
    8.4444  -14.3252   20.5470 C   0  0  0  0  0  0  0  0  0  0  0  0
    8.7967  -15.6173   21.2532 C   0  0  2  0  0  0  0  0  0  0  0  0
    7.7261  -16.5427   21.0573 N   0  0  0  0  0  0  0  0  0  0  0  0
    9.0530  -15.2920   22.6658 C   0  0  0  0  0  0  0  0  0  0  0  0
   10.1129  -14.6638   22.9333 O   0  0  0  0  0  0  0  0  0  0  0  0
    7.5467  -11.7429   27.6730 C   0  0  0  0  0  0  0  0  0  0  0  0
    6.2264  -12.5103   26.6772 S   0  0  0  0  0  0  0  0  0  0  0  0
    6.9545  -13.4705   25.3073 C   0  0  0  0  0  0  0  0  0  0  0  0
    7.3518  -14.8119   25.8668 C   0  0  0  0  0  0  0  0  0  0  0  0
    8.4915  -15.4429   25.1027 C   0  0  2  0  0  0  0  0  0  0  0  0
    8.1697  -15.6515   23.7164 N   0  0  0  0  0  0  0  0  0  0  0  0
    8.9158  -16.7325   25.6882 C   0  0  0  0  0  0  0  0  0  0  0  0
    8.0884  -17.6696   25.8090 O   0  0  0  0  0  0  0  0  0  0  0  0
   10.2397  -16.9845   26.1349 N   0  0  0  0  0  0  0  0  0  0  0  0
   10.6913  -18.2391   26.6799 C   0  0  1  0  0  0  0  0  0  0  0  0
   12.2050  -18.3666   26.4663 C   0  0  0  0  0  0  0  0  0  0  0  0
   12.6365  -17.9156   24.7563 S   0  0  0  0  0  0  0  0  0  0  0  0
   10.4171  -18.3905   28.1070 C   0  0  0  0  0  0  0  0  0  0  0  0
   10.7445  -19.5637   28.7483 O   0  0  0  0  0  0  0  0  0  0  0  0
    9.8880  -17.4624   28.7475 O   0  0  0  0  0  0  0  0  0  0  0  0
  2  1  1  0
  2  3  1  0
  4  3  1  0
  4  5  1  0
  5  7  1  0
  5  6  1  1
  7  8  2  0
  7 14  1  0
  9 10  1  0
 11 12  1  0
 11 10  1  0
 13 15  1  0
 13 12  1  1
 14 13  1  0
 15 16  2  0
 17 18  1  0
 17 15  1  0
 18 19  1  1
 19 20  1  0
 21 22  1  0
 21 18  1  0
 23 21  2  0
M  END
$$$$
