MMC.pdb
     RDKit          3D

 23 22  0  0  1  0  0  0  0  0999 V2000
    6.6735  -12.5748   26.0630 C   0  0  0  0  0  0  0  0  0  0  0  0
    5.8002  -14.0890   26.5332 S   0  0  0  0  0  0  0  0  0  0  0  0
    7.0828  -15.3167   26.9858 C   0  0  0  0  0  0  0  0  0  0  0  0
    6.5770  -16.6542   26.5589 C   0  0  0  0  0  0  0  0  0  0  0  0
    6.2485  -16.7254   25.0827 C   0  0  2  0  0  0  0  0  0  0  0  0
    5.5312  -17.9369   24.8399 N   0  0  0  0  0  0  0  0  0  0  0  0
    7.5174  -16.6250   24.3433 C   0  0  0  0  0  0  0  0  0  0  0  0
    8.2869  -17.6232   24.3737 O   0  0  0  0  0  0  0  0  0  0  0  0
    9.1404  -11.8523   20.1766 C   0  0  0  0  0  0  0  0  0  0  0  0
    7.7324  -12.9209   19.7297 S   0  0  0  0  0  0  0  0  0  0  0  0
    7.6858  -14.3824   20.8207 C   0  0  0  0  0  0  0  0  0  0  0  0
    8.9077  -14.3197   21.7001 C   0  0  0  0  0  0  0  0  0  0  0  0
    8.9840  -15.4766   22.6680 C   0  0  2  0  0  0  0  0  0  0  0  0
    7.8991  -15.4703   23.6124 N   0  0  0  0  0  0  0  0  0  0  0  0
   10.2598  -15.5027   23.4145 C   0  0  0  0  0  0  0  0  0  0  0  0
   11.3419  -15.6800   22.8021 O   0  0  0  0  0  0  0  0  0  0  0  0
   10.3397  -15.3342   24.8219 N   0  0  0  0  0  0  0  0  0  0  0  0
   11.5625  -15.3889   25.5815 C   0  0  1  0  0  0  0  0  0  0  0  0
   11.3403  -14.7216   26.9447 C   0  0  0  0  0  0  0  0  0  0  0  0
    9.5585  -14.5431   27.2718 S   0  0  0  0  0  0  0  0  0  0  0  0
   12.0487  -16.7473   25.8118 C   0  0  0  0  0  0  0  0  0  0  0  0
   13.2677  -16.9464   26.4195 O   0  0  0  0  0  0  0  0  0  0  0  0
   11.3653  -17.7278   25.4608 O   0  0  0  0  0  0  0  0  0  0  0  0
  2  1  1  0
  2  3  1  0
  4  3  1  0
  4  5  1  0
  5  7  1  0
  5  6  1  1
  7  8  2  0
  7 14  1  0
  9 10  1  0
 11 12  1  0
 11 10  1  0
 13 15  1  0
 13 12  1  1
 14 13  1  0
 15 16  2  0
 17 18  1  0
 17 15  1  0
 18 19  1  1
 19 20  1  0
 21 22  1  0
 21 18  1  0
 23 21  2  0
M  END
$$$$
