MMC.pdb
     RDKit          3D

 23 22  0  0  1  0  0  0  0  0999 V2000
    8.5050  -11.6053   19.4121 C   0  0  0  0  0  0  0  0  0  0  0  0
    7.3742  -12.6883   18.5034 S   0  0  0  0  0  0  0  0  0  0  0  0
    7.2762  -14.2561   19.4465 C   0  0  0  0  0  0  0  0  0  0  0  0
    8.6771  -14.6718   19.7494 C   0  0  0  0  0  0  0  0  0  0  0  0
    8.7583  -15.8898   20.6451 C   0  0  2  0  0  0  0  0  0  0  0  0
    7.5024  -16.5689   20.5950 N   0  0  0  0  0  0  0  0  0  0  0  0
    9.1311  -15.4235   21.9906 C   0  0  0  0  0  0  0  0  0  0  0  0
   10.3086  -15.0034   22.1534 O   0  0  0  0  0  0  0  0  0  0  0  0
    5.5096  -12.3644   27.3242 C   0  0  0  0  0  0  0  0  0  0  0  0
    7.0896  -11.8463   26.5766 S   0  0  0  0  0  0  0  0  0  0  0  0
    8.1238  -13.3077   26.2249 C   0  0  0  0  0  0  0  0  0  0  0  0
    7.7533  -13.7932   24.8476 C   0  0  0  0  0  0  0  0  0  0  0  0
    8.6056  -14.9551   24.3950 C   0  0  2  0  0  0  0  0  0  0  0  0
    8.2330  -15.4291   23.0891 N   0  0  0  0  0  0  0  0  0  0  0  0
    8.5577  -16.0903   25.3408 C   0  0  0  0  0  0  0  0  0  0  0  0
    7.4734  -16.6893   25.5482 O   0  0  0  0  0  0  0  0  0  0  0  0
    9.6949  -16.5592   26.0496 N   0  0  0  0  0  0  0  0  0  0  0  0
    9.8589  -17.9084   26.5271 C   0  0  1  0  0  0  0  0  0  0  0  0
    9.8148  -18.8742   25.3362 C   0  0  0  0  0  0  0  0  0  0  0  0
   10.1562  -20.5729   25.8942 S   0  0  0  0  0  0  0  0  0  0  0  0
   11.1118  -18.1270   27.2463 C   0  0  0  0  0  0  0  0  0  0  0  0
   11.1348  -18.9473   28.3515 O   0  0  0  0  0  0  0  0  0  0  0  0
   12.1608  -17.5745   26.8643 O   0  0  0  0  0  0  0  0  0  0  0  0
  2  1  1  0
  2  3  1  0
  4  3  1  0
  4  5  1  0
  5  7  1  0
  5  6  1  1
  7  8  2  0
  7 14  1  0
  9 10  1  0
 11 12  1  0
 11 10  1  0
 13 15  1  0
 13 12  1  1
 14 13  1  0
 15 16  2  0
 17 18  1  0
 17 15  1  0
 18 19  1  6
 19 20  1  0
 21 22  1  0
 21 18  1  0
 23 21  2  0
M  END
$$$$
