MMC.pdb
     RDKit          3D

 23 22  0  0  1  0  0  0  0  0999 V2000
    8.7316  -20.7805   27.0497 C   0  0  0  0  0  0  0  0  0  0  0  0
    7.1723  -20.0919   27.6591 S   0  0  0  0  0  0  0  0  0  0  0  0
    6.0688  -19.9230   26.2062 C   0  0  0  0  0  0  0  0  0  0  0  0
    6.9076  -19.4273   25.0759 C   0  0  0  0  0  0  0  0  0  0  0  0
    6.2037  -18.3995   24.2155 C   0  0  2  0  0  0  0  0  0  0  0  0
    5.8038  -19.0308   22.9979 N   0  0  0  0  0  0  0  0  0  0  0  0
    7.1319  -17.2727   24.0263 C   0  0  0  0  0  0  0  0  0  0  0  0
    7.9030  -17.3176   23.0299 O   0  0  0  0  0  0  0  0  0  0  0  0
    7.0178  -11.3692   26.9585 C   0  0  0  0  0  0  0  0  0  0  0  0
    5.5227  -12.1566   26.2738 S   0  0  0  0  0  0  0  0  0  0  0  0
    5.9896  -13.5476   25.1894 C   0  0  0  0  0  0  0  0  0  0  0  0
    7.4691  -13.7713   25.3656 C   0  0  0  0  0  0  0  0  0  0  0  0
    7.9645  -14.9841   24.6141 C   0  0  2  0  0  0  0  0  0  0  0  0
    7.1900  -16.1606   24.9055 N   0  0  0  0  0  0  0  0  0  0  0  0
    9.3874  -15.2750   24.8904 C   0  0  0  0  0  0  0  0  0  0  0  0
   10.2764  -14.4685   24.5208 O   0  0  0  0  0  0  0  0  0  0  0  0
    9.8238  -16.4439   25.5680 N   0  0  0  0  0  0  0  0  0  0  0  0
   11.2025  -16.7645   25.8354 C   0  0  1  0  0  0  0  0  0  0  0  0
   11.2932  -17.5425   27.1543 C   0  0  0  0  0  0  0  0  0  0  0  0
   10.4300  -16.6368   28.4765 S   0  0  0  0  0  0  0  0  0  0  0  0
   11.8312  -17.5661   24.7880 C   0  0  0  0  0  0  0  0  0  0  0  0
   11.0686  -18.0717   23.7596 O   0  0  0  0  0  0  0  0  0  0  0  0
   13.0552  -17.7949   24.8206 O   0  0  0  0  0  0  0  0  0  0  0  0
  2  1  1  0
  2  3  1  0
  4  3  1  0
  4  5  1  0
  5  7  1  0
  5  6  1  6
  7  8  2  0
  7 14  1  0
  9 10  1  0
 11 12  1  0
 11 10  1  0
 13 15  1  0
 13 12  1  1
 14 13  1  0
 15 16  2  0
 17 18  1  0
 17 15  1  0
 18 19  1  1
 19 20  1  0
 21 22  1  0
 21 18  1  0
 23 21  2  0
M  END
$$$$
