MMC.pdb
     RDKit          3D

 23 22  0  0  1  0  0  0  0  0999 V2000
    7.9800  -11.6705   27.0702 C   0  0  0  0  0  0  0  0  0  0  0  0
    6.2817  -12.2808   26.9284 S   0  0  0  0  0  0  0  0  0  0  0  0
    6.3761  -14.1103   26.9596 C   0  0  0  0  0  0  0  0  0  0  0  0
    6.4253  -14.5693   25.5405 C   0  0  0  0  0  0  0  0  0  0  0  0
    7.3513  -15.7477   25.3256 C   0  0  2  0  0  0  0  0  0  0  0  0
    8.5765  -15.4876   26.0127 N   0  0  0  0  0  0  0  0  0  0  0  0
    7.5083  -15.9257   23.8728 C   0  0  0  0  0  0  0  0  0  0  0  0
    6.5931  -16.5406   23.2615 O   0  0  0  0  0  0  0  0  0  0  0  0
    8.9738  -11.5254   19.9891 C   0  0  0  0  0  0  0  0  0  0  0  0
    7.3680  -12.3875   19.9433 S   0  0  0  0  0  0  0  0  0  0  0  0
    7.3903  -13.8115   21.0836 C   0  0  0  0  0  0  0  0  0  0  0  0
    8.7022  -14.5238   20.8796 C   0  0  0  0  0  0  0  0  0  0  0  0
    8.8413  -15.7436   21.7593 C   0  0  2  0  0  0  0  0  0  0  0  0
    8.6286  -15.4410   23.1494 N   0  0  0  0  0  0  0  0  0  0  0  0
   10.1606  -16.3947   21.6143 C   0  0  0  0  0  0  0  0  0  0  0  0
   10.8091  -16.2682   20.5462 O   0  0  0  0  0  0  0  0  0  0  0  0
   10.7576  -17.1765   22.6380 N   0  0  0  0  0  0  0  0  0  0  0  0
   12.0375  -17.8280   22.5250 C   0  0  1  0  0  0  0  0  0  0  0  0
   12.8331  -17.6055   23.8174 C   0  0  0  0  0  0  0  0  0  0  0  0
   11.7675  -17.8892   25.2658 S   0  0  0  0  0  0  0  0  0  0  0  0
   11.9436  -19.2667   22.2883 C   0  0  0  0  0  0  0  0  0  0  0  0
   13.0889  -20.0092   22.1099 O   0  0  0  0  0  0  0  0  0  0  0  0
   10.8313  -19.8259   22.2472 O   0  0  0  0  0  0  0  0  0  0  0  0
  2  1  1  0
  2  3  1  0
  4  3  1  0
  4  5  1  0
  5  7  1  0
  5  6  1  1
  7  8  2  0
  7 14  1  0
  9 10  1  0
 11 12  1  0
 11 10  1  0
 13 15  1  0
 13 12  1  6
 14 13  1  0
 15 16  2  0
 17 18  1  0
 17 15  1  0
 18 19  1  1
 19 20  1  0
 21 22  1  0
 21 18  1  0
 23 21  2  0
M  END
$$$$
