MMC.pdb
     RDKit          3D

 23 22  0  0  1  0  0  0  0  0999 V2000
    7.3276  -20.7099   22.3854 C   0  0  0  0  0  0  0  0  0  0  0  0
    7.3006  -20.7769   20.5767 S   0  0  0  0  0  0  0  0  0  0  0  0
    7.2322  -19.0433   19.9873 C   0  0  0  0  0  0  0  0  0  0  0  0
    7.9546  -18.2112   20.9936 C   0  0  0  0  0  0  0  0  0  0  0  0
    7.9150  -16.7299   20.6829 C   0  0  2  0  0  0  0  0  0  0  0  0
    8.7120  -16.4930   19.5212 N   0  0  0  0  0  0  0  0  0  0  0  0
    8.3816  -16.0153   21.8823 C   0  0  0  0  0  0  0  0  0  0  0  0
    9.6175  -15.7842   21.9756 O   0  0  0  0  0  0  0  0  0  0  0  0
    7.3128  -11.3112   27.9539 C   0  0  0  0  0  0  0  0  0  0  0  0
    6.7379  -12.0347   26.3823 S   0  0  0  0  0  0  0  0  0  0  0  0
    7.3526  -13.7448   26.2195 C   0  0  0  0  0  0  0  0  0  0  0  0
    6.8932  -14.2564   24.8788 C   0  0  0  0  0  0  0  0  0  0  0  0
    7.9892  -14.9734   24.1266 C   0  0  2  0  0  0  0  0  0  0  0  0
    7.5103  -15.5854   22.9163 N   0  0  0  0  0  0  0  0  0  0  0  0
    8.6521  -16.0080   24.9486 C   0  0  0  0  0  0  0  0  0  0  0  0
    7.9945  -16.9916   25.3699 O   0  0  0  0  0  0  0  0  0  0  0  0
   10.0265  -15.9573   25.3011 N   0  0  0  0  0  0  0  0  0  0  0  0
   10.7208  -16.9900   26.0269 C   0  0  1  0  0  0  0  0  0  0  0  0
   12.2323  -16.7496   25.9248 C   0  0  0  0  0  0  0  0  0  0  0  0
   12.6257  -15.0318   26.3809 S   0  0  0  0  0  0  0  0  0  0  0  0
   10.3628  -17.0532   27.4420 C   0  0  0  0  0  0  0  0  0  0  0  0
   10.8508  -18.0720   28.2286 O   0  0  0  0  0  0  0  0  0  0  0  0
    9.6175  -16.1891   27.9413 O   0  0  0  0  0  0  0  0  0  0  0  0
  2  1  1  0
  2  3  1  0
  4  3  1  0
  4  5  1  0
  5  7  1  0
  5  6  1  6
  7  8  2  0
  7 14  1  0
  9 10  1  0
 11 12  1  0
 11 10  1  0
 13 15  1  0
 13 12  1  1
 14 13  1  0
 15 16  2  0
 17 18  1  0
 17 15  1  0
 18 19  1  1
 19 20  1  0
 21 22  1  0
 21 18  1  0
 23 21  2  0
M  END
$$$$
