VKK.pdb
     RDKit          3D

 26 25  0  0  1  0  0  0  0  0999 V2000
   15.9913  -11.0679  -11.5072 C   0  0  0  0  0  0  0  0  0  0  0  0
   14.5742  -11.4229  -11.1482 C   0  0  1  0  0  0  0  0  0  0  0  0
   14.3306  -12.8892  -11.0294 C   0  0  0  0  0  0  0  0  0  0  0  0
   14.2027  -10.7002   -9.8821 C   0  0  2  0  0  0  0  0  0  0  0  0
   12.8743  -11.0000   -9.4363 N   0  0  0  0  0  0  0  0  0  0  0  0
   14.3184   -9.2252  -10.0754 C   0  0  0  0  0  0  0  0  0  0  0  0
   13.3961   -8.6755  -10.7457 O   0  0  0  0  0  0  0  0  0  0  0  0
   15.3993   -8.5433   -9.5281 N   0  0  0  0  0  0  0  0  0  0  0  0
   15.5020   -7.0569   -9.7220 C   0  0  1  0  0  0  0  0  0  0  0  0
   15.3082   -6.4181   -8.4132 C   0  0  0  0  0  0  0  0  0  0  0  0
   14.3356   -5.4105   -8.0880 C   0  0  0  0  0  0  0  0  0  0  0  0
   14.1405   -4.8093   -6.7627 C   0  0  0  0  0  0  0  0  0  0  0  0
   12.9853   -3.7650   -6.9946 C   0  0  0  0  0  0  0  0  0  0  0  0
   13.0258   -2.7754   -5.9656 N   0  0  0  0  0  0  0  0  0  0  0  0
   16.9196   -6.8953  -10.1997 C   0  0  0  0  0  0  0  0  0  0  0  0
   17.8570   -7.2605   -9.4857 O   0  0  0  0  0  0  0  0  0  0  0  0
   17.2241   -6.3319  -11.4556 N   0  0  0  0  0  0  0  0  0  0  0  0
   18.6884   -6.2615  -11.8360 C   0  0  1  0  0  0  0  0  0  0  0  0
   18.9599   -7.4858  -12.6175 C   0  0  0  0  0  0  0  0  0  0  0  0
   20.2580   -7.6913  -13.2384 C   0  0  0  0  0  0  0  0  0  0  0  0
   20.6134   -8.8628  -14.0551 C   0  0  0  0  0  0  0  0  0  0  0  0
   22.0881   -8.6995  -14.5606 C   0  0  0  0  0  0  0  0  0  0  0  0
   22.3828   -9.8141  -15.4071 N   0  0  0  0  0  0  0  0  0  0  0  0
   18.7143   -5.0364  -12.6729 C   0  0  0  0  0  0  0  0  0  0  0  0
   17.6958   -4.5858  -13.1998 O   0  0  0  0  0  0  0  0  0  0  0  0
   19.9530   -4.3827  -12.8566 O   0  0  0  0  0  0  0  0  0  0  0  0
  2  4  1  0
  2  1  1  1
  3  2  1  0
  4  6  1  0
  4  5  1  6
  6  7  2  0
  8  9  1  0
  8  6  1  0
 10 11  1  0
  9 10  1  1
 12 11  1  0
 13 12  1  0
 14 13  1  0
 15 16  2  0
 15  9  1  0
 17 15  1  0
 18 17  1  0
 18 24  1  0
 18 19  1  6
 20 19  1  0
 21 20  1  0
 22 21  1  0
 23 22  1  0
 24 26  1  0
 25 24  2  0
M  END
$$$$
