VKK.pdb
     RDKit          3D

 26 25  0  0  1  0  0  0  0  0999 V2000
   26.3590  -16.9058  -15.4152 C   0  0  0  0  0  0  0  0  0  0  0  0
   27.2015  -17.6992  -16.3764 C   0  0  1  0  0  0  0  0  0  0  0  0
   28.2242  -16.8868  -17.0956 C   0  0  0  0  0  0  0  0  0  0  0  0
   27.8335  -18.8434  -15.6317 C   0  0  2  0  0  0  0  0  0  0  0  0
   28.6016  -19.7062  -16.4794 N   0  0  0  0  0  0  0  0  0  0  0  0
   26.7861  -19.6570  -14.9479 C   0  0  0  0  0  0  0  0  0  0  0  0
   26.1210  -20.4436  -15.6835 O   0  0  0  0  0  0  0  0  0  0  0  0
   26.5945  -19.5189  -13.5779 N   0  0  0  0  0  0  0  0  0  0  0  0
   25.5846  -20.3916  -12.8878 C   0  0  1  0  0  0  0  0  0  0  0  0
   25.8329  -20.3100  -11.4421 C   0  0  0  0  0  0  0  0  0  0  0  0
   25.0524  -20.9256  -10.4033 C   0  0  0  0  0  0  0  0  0  0  0  0
   25.2879  -20.7832   -8.9611 C   0  0  0  0  0  0  0  0  0  0  0  0
   24.1716  -21.6834   -8.3113 C   0  0  0  0  0  0  0  0  0  0  0  0
   24.2662  -21.6047   -6.8884 N   0  0  0  0  0  0  0  0  0  0  0  0
   24.2858  -19.7259  -13.2533 C   0  0  0  0  0  0  0  0  0  0  0  0
   24.1550  -18.5075  -13.1106 O   0  0  0  0  0  0  0  0  0  0  0  0
   23.1914  -20.4544  -13.7623 N   0  0  0  0  0  0  0  0  0  0  0  0
   21.9220  -19.6760  -14.0396 C   0  0  1  0  0  0  0  0  0  0  0  0
   21.6033  -19.9204  -15.4617 C   0  0  0  0  0  0  0  0  0  0  0  0
   21.6801  -18.8397  -16.4306 C   0  0  0  0  0  0  0  0  0  0  0  0
   21.3106  -18.9667  -17.8494 C   0  0  0  0  0  0  0  0  0  0  0  0
   21.5641  -17.5947  -18.5638 C   0  0  0  0  0  0  0  0  0  0  0  0
   21.1340  -17.7261  -19.9215 N   0  0  0  0  0  0  0  0  0  0  0  0
   20.9651  -20.3409  -13.1210 C   0  0  0  0  0  0  0  0  0  0  0  0
   21.1117  -21.5106  -12.7625 O   0  0  0  0  0  0  0  0  0  0  0  0
   19.8615  -19.5923  -12.6548 O   0  0  0  0  0  0  0  0  0  0  0  0
  2  4  1  0
  2  1  1  1
  3  2  1  0
  4  6  1  0
  4  5  1  6
  6  7  2  0
  8  9  1  0
  8  6  1  0
 10 11  1  0
  9 10  1  1
 12 11  1  0
 13 12  1  0
 14 13  1  0
 15 16  2  0
 15  9  1  0
 17 15  1  0
 18 17  1  0
 18 24  1  0
 18 19  1  6
 20 19  1  0
 21 20  1  0
 22 21  1  0
 23 22  1  0
 24 26  1  0
 25 24  2  0
M  END
$$$$
