VKK.pdb
     RDKit          3D

 26 25  0  0  1  0  0  0  0  0999 V2000
   27.1249  -28.3269  -18.3929 C   0  0  0  0  0  0  0  0  0  0  0  0
   26.6485  -27.1229  -17.6270 C   0  0  1  0  0  0  0  0  0  0  0  0
   25.9440  -27.4558  -16.3557 C   0  0  0  0  0  0  0  0  0  0  0  0
   27.8210  -26.2125  -17.3829 C   0  0  2  0  0  0  0  0  0  0  0  0
   28.8236  -26.8038  -16.5472 N   0  0  0  0  0  0  0  0  0  0  0  0
   27.3651  -24.9397  -16.7516 C   0  0  0  0  0  0  0  0  0  0  0  0
   27.5168  -24.8523  -15.4980 O   0  0  0  0  0  0  0  0  0  0  0  0
   26.8123  -23.9396  -17.5434 N   0  0  0  0  0  0  0  0  0  0  0  0
   26.4154  -22.6373  -16.9076 C   0  0  1  0  0  0  0  0  0  0  0  0
   26.7921  -21.5549  -17.8269 C   0  0  0  0  0  0  0  0  0  0  0  0
   27.6729  -20.4554  -17.5395 C   0  0  0  0  0  0  0  0  0  0  0  0
   27.3968  -19.0428  -17.8296 C   0  0  0  0  0  0  0  0  0  0  0  0
   28.7165  -18.3074  -17.3865 C   0  0  0  0  0  0  0  0  0  0  0  0
   28.5616  -16.8999  -17.5729 N   0  0  0  0  0  0  0  0  0  0  0  0
   24.9199  -22.7721  -16.8126 C   0  0  0  0  0  0  0  0  0  0  0  0
   24.2840  -23.2660  -17.7473 O   0  0  0  0  0  0  0  0  0  0  0  0
   24.2033  -22.3477  -15.6752 N   0  0  0  0  0  0  0  0  0  0  0  0
   22.6929  -22.4331  -15.7480 C   0  0  1  0  0  0  0  0  0  0  0  0
   22.2736  -23.1734  -14.5397 C   0  0  0  0  0  0  0  0  0  0  0  0
   20.8652  -23.2955  -14.2018 C   0  0  0  0  0  0  0  0  0  0  0  0
   19.9379  -24.2482  -14.8330 C   0  0  0  0  0  0  0  0  0  0  0  0
   18.4946  -23.9946  -14.2765 C   0  0  0  0  0  0  0  0  0  0  0  0
   18.3148  -24.8382  -13.1356 N   0  0  0  0  0  0  0  0  0  0  0  0
   22.3162  -20.9989  -15.6942 C   0  0  0  0  0  0  0  0  0  0  0  0
   23.1084  -20.1307  -15.3245 O   0  0  0  0  0  0  0  0  0  0  0  0
   21.0066  -20.6403  -16.0840 O   0  0  0  0  0  0  0  0  0  0  0  0
  2  4  1  0
  2  1  1  1
  3  2  1  0
  4  6  1  0
  4  5  1  1
  6  7  2  0
  8  9  1  0
  8  6  1  0
 10 11  1  0
  9 10  1  6
 12 11  1  0
 13 12  1  0
 14 13  1  0
 15 16  2  0
 15  9  1  0
 17 15  1  0
 18 17  1  0
 18 24  1  0
 18 19  1  1
 20 19  1  0
 21 20  1  0
 22 21  1  0
 23 22  1  0
 24 26  1  0
 25 24  2  0
M  END
$$$$
