VKK.pdb
     RDKit          3D

 26 25  0  0  1  0  0  0  0  0999 V2000
   26.9382  -19.6513   -6.2433 C   0  0  0  0  0  0  0  0  0  0  0  0
   27.0933  -19.5862   -7.7382 C   0  0  1  0  0  0  0  0  0  0  0  0
   28.2187  -20.4104   -8.2650 C   0  0  0  0  0  0  0  0  0  0  0  0
   25.7859  -19.9709   -8.3753 C   0  0  2  0  0  0  0  0  0  0  0  0
   25.4447  -21.3466   -8.1650 N   0  0  0  0  0  0  0  0  0  0  0  0
   25.8295  -19.7103   -9.8438 C   0  0  0  0  0  0  0  0  0  0  0  0
   26.0274  -18.5098  -10.1925 O   0  0  0  0  0  0  0  0  0  0  0  0
   25.6563  -20.7641  -10.7340 N   0  0  0  0  0  0  0  0  0  0  0  0
   25.8722  -20.5261  -12.2018 C   0  0  1  0  0  0  0  0  0  0  0  0
   26.8530  -21.5110  -12.6776 C   0  0  0  0  0  0  0  0  0  0  0  0
   27.5802  -21.4651  -13.9171 C   0  0  0  0  0  0  0  0  0  0  0  0
   27.0701  -21.9035  -15.2223 C   0  0  0  0  0  0  0  0  0  0  0  0
   28.2415  -21.5558  -16.2151 C   0  0  0  0  0  0  0  0  0  0  0  0
   27.8455  -21.8787  -17.5488 N   0  0  0  0  0  0  0  0  0  0  0  0
   24.5075  -20.8004  -12.7729 C   0  0  0  0  0  0  0  0  0  0  0  0
   23.8466  -21.7570  -12.3604 O   0  0  0  0  0  0  0  0  0  0  0  0
   23.9439  -19.9913  -13.7803 N   0  0  0  0  0  0  0  0  0  0  0  0
   22.5251  -20.3134  -14.2015 C   0  0  1  0  0  0  0  0  0  0  0  0
   21.8537  -19.0095  -14.3823 C   0  0  0  0  0  0  0  0  0  0  0  0
   20.4910  -18.9453  -14.8838 C   0  0  0  0  0  0  0  0  0  0  0  0
   19.7498  -17.6962  -15.1209 C   0  0  0  0  0  0  0  0  0  0  0  0
   18.3106  -18.0501  -15.6312 C   0  0  0  0  0  0  0  0  0  0  0  0
   17.6213  -16.8205  -15.8736 N   0  0  0  0  0  0  0  0  0  0  0  0
   22.7547  -21.0168  -15.4876 C   0  0  0  0  0  0  0  0  0  0  0  0
   23.7355  -20.7788  -16.1944 O   0  0  0  0  0  0  0  0  0  0  0  0
   21.8095  -21.9849  -15.8940 O   0  0  0  0  0  0  0  0  0  0  0  0
  2  4  1  0
  2  1  1  1
  3  2  1  0
  4  6  1  0
  4  5  1  6
  6  7  2  0
  8  9  1  0
  8  6  1  0
 10 11  1  0
  9 10  1  6
 12 11  1  0
 13 12  1  0
 14 13  1  0
 15 16  2  0
 15  9  1  0
 17 15  1  0
 18 17  1  0
 18 24  1  0
 18 19  1  6
 20 19  1  0
 21 20  1  0
 22 21  1  0
 23 22  1  0
 24 26  1  0
 25 24  2  0
M  END
$$$$
