VKK.pdb
     RDKit          3D

 26 25  0  0  1  0  0  0  0  0999 V2000
   16.6201  -18.4930  -19.9582 C   0  0  0  0  0  0  0  0  0  0  0  0
   16.2819  -19.2931  -18.7299 C   0  0  1  0  0  0  0  0  0  0  0  0
   14.9576  -19.9749  -18.7991 C   0  0  0  0  0  0  0  0  0  0  0  0
   17.3924  -20.2752  -18.4741 C   0  0  2  0  0  0  0  0  0  0  0  0
   17.2366  -20.9866  -17.2401 N   0  0  0  0  0  0  0  0  0  0  0  0
   18.7094  -19.5738  -18.4561 C   0  0  0  0  0  0  0  0  0  0  0  0
   18.9644  -18.8907  -17.4215 O   0  0  0  0  0  0  0  0  0  0  0  0
   19.5689  -19.6985  -19.5417 N   0  0  0  0  0  0  0  0  0  0  0  0
   20.8856  -18.9747  -19.5203 C   0  0  1  0  0  0  0  0  0  0  0  0
   21.9409  -19.9521  -19.8194 C   0  0  0  0  0  0  0  0  0  0  0  0
   23.3560  -19.7003  -19.8541 C   0  0  0  0  0  0  0  0  0  0  0  0
   24.3896  -20.6849  -20.1979 C   0  0  0  0  0  0  0  0  0  0  0  0
   25.7253  -19.8526  -20.1538 C   0  0  0  0  0  0  0  0  0  0  0  0
   26.8301  -20.7120  -20.4378 N   0  0  0  0  0  0  0  0  0  0  0  0
   20.7251  -17.9887  -20.6454 C   0  0  0  0  0  0  0  0  0  0  0  0
   20.1111  -18.3109  -21.6657 O   0  0  0  0  0  0  0  0  0  0  0  0
   21.2596  -16.6859  -20.5776 N   0  0  0  0  0  0  0  0  0  0  0  0
   21.1228  -15.8259  -21.8169 C   0  0  1  0  0  0  0  0  0  0  0  0
   20.8895  -14.4510  -21.3282 C   0  0  0  0  0  0  0  0  0  0  0  0
   19.5484  -13.8909  -21.3156 C   0  0  0  0  0  0  0  0  0  0  0  0
   19.2043  -12.5685  -20.7692 C   0  0  0  0  0  0  0  0  0  0  0  0
   17.6664  -12.3285  -20.9538 C   0  0  0  0  0  0  0  0  0  0  0  0
   17.3434  -11.0827  -20.3298 N   0  0  0  0  0  0  0  0  0  0  0  0
   22.4620  -15.9891  -22.4349 C   0  0  0  0  0  0  0  0  0  0  0  0
   22.7394  -15.4944  -23.5287 O   0  0  0  0  0  0  0  0  0  0  0  0
   23.4327  -16.7359  -21.7309 O   0  0  0  0  0  0  0  0  0  0  0  0
  2  4  1  0
  2  1  1  6
  3  2  1  0
  4  6  1  0
  4  5  1  1
  6  7  2  0
  8  9  1  0
  8  6  1  0
 10 11  1  0
  9 10  1  6
 12 11  1  0
 13 12  1  0
 14 13  1  0
 15 16  2  0
 15  9  1  0
 17 15  1  0
 18 17  1  0
 18 24  1  0
 18 19  1  1
 20 19  1  0
 21 20  1  0
 22 21  1  0
 23 22  1  0
 24 26  1  0
 25 24  2  0
M  END
$$$$
