VKK.pdb
     RDKit          3D

 26 25  0  0  1  0  0  0  0  0999 V2000
   23.0206  -22.3824  -11.0605 C   0  0  0  0  0  0  0  0  0  0  0  0
   23.2184  -21.2198  -11.9944 C   0  0  1  0  0  0  0  0  0  0  0  0
   22.7155  -19.9224  -11.4585 C   0  0  0  0  0  0  0  0  0  0  0  0
   24.6760  -21.1360  -12.3571 C   0  0  2  0  0  0  0  0  0  0  0  0
   25.5187  -20.8711  -11.2289 N   0  0  0  0  0  0  0  0  0  0  0  0
   24.8951  -20.0682  -13.3761 C   0  0  0  0  0  0  0  0  0  0  0  0
   25.2249  -18.9302  -12.9306 O   0  0  0  0  0  0  0  0  0  0  0  0
   24.7322  -20.3621  -14.7251 N   0  0  0  0  0  0  0  0  0  0  0  0
   25.1318  -19.3396  -15.7510 C   0  0  1  0  0  0  0  0  0  0  0  0
   25.9200  -20.0240  -16.7848 C   0  0  0  0  0  0  0  0  0  0  0  0
   27.1908  -19.6045  -17.3103 C   0  0  0  0  0  0  0  0  0  0  0  0
   27.9216  -20.2612  -18.4014 C   0  0  0  0  0  0  0  0  0  0  0  0
   29.2058  -19.3678  -18.5793 C   0  0  0  0  0  0  0  0  0  0  0  0
   30.0922  -19.9902  -19.5103 N   0  0  0  0  0  0  0  0  0  0  0  0
   23.8004  -18.8932  -16.2911 C   0  0  0  0  0  0  0  0  0  0  0  0
   22.8632  -19.6924  -16.3611 O   0  0  0  0  0  0  0  0  0  0  0  0
   23.5778  -17.5717  -16.7286 N   0  0  0  0  0  0  0  0  0  0  0  0
   22.1685  -17.2229  -17.1602 C   0  0  1  0  0  0  0  0  0  0  0  0
   21.8423  -15.9528  -16.4790 C   0  0  0  0  0  0  0  0  0  0  0  0
   20.5937  -15.2645  -16.7614 C   0  0  0  0  0  0  0  0  0  0  0  0
   20.1831  -13.9966  -16.1372 C   0  0  0  0  0  0  0  0  0  0  0  0
   18.7228  -13.6564  -16.5942 C   0  0  0  0  0  0  0  0  0  0  0  0
   18.2704  -12.5476  -15.8120 N   0  0  0  0  0  0  0  0  0  0  0  0
   22.3447  -17.0532  -18.6237 C   0  0  0  0  0  0  0  0  0  0  0  0
   21.4203  -17.2382  -19.4170 O   0  0  0  0  0  0  0  0  0  0  0  0
   23.6173  -16.6664  -19.0998 O   0  0  0  0  0  0  0  0  0  0  0  0
  2  4  1  0
  2  1  1  1
  3  2  1  0
  4  6  1  0
  4  5  1  1
  6  7  2  0
  8  9  1  0
  8  6  1  0
 10 11  1  0
  9 10  1  6
 12 11  1  0
 13 12  1  0
 14 13  1  0
 15 16  2  0
 15  9  1  0
 17 15  1  0
 18 17  1  0
 18 24  1  0
 18 19  1  1
 20 19  1  0
 21 20  1  0
 22 21  1  0
 23 22  1  0
 24 26  1  0
 25 24  2  0
M  END
$$$$
