VKK.pdb
     RDKit          3D

 26 25  0  0  1  0  0  0  0  0999 V2000
   17.4339   -9.9470  -17.4481 C   0  0  0  0  0  0  0  0  0  0  0  0
   16.9621  -11.1418  -16.6652 C   0  0  1  0  0  0  0  0  0  0  0  0
   15.7972  -11.8431  -17.2772 C   0  0  0  0  0  0  0  0  0  0  0  0
   18.1237  -12.0769  -16.4670 C   0  0  2  0  0  0  0  0  0  0  0  0
   17.7783  -13.2463  -15.7144 N   0  0  0  0  0  0  0  0  0  0  0  0
   19.2401  -11.3744  -15.7693 C   0  0  0  0  0  0  0  0  0  0  0  0
   19.0662  -11.1333  -14.5389 O   0  0  0  0  0  0  0  0  0  0  0  0
   20.3839  -11.0276  -16.4794 N   0  0  0  0  0  0  0  0  0  0  0  0
   21.5652  -10.4689  -15.7378 C   0  0  1  0  0  0  0  0  0  0  0  0
   22.7821  -11.0159  -16.3530 C   0  0  0  0  0  0  0  0  0  0  0  0
   24.1359  -10.7779  -15.9313 C   0  0  0  0  0  0  0  0  0  0  0  0
   25.3382  -11.3206  -16.5759 C   0  0  0  0  0  0  0  0  0  0  0  0
   26.5123  -10.8214  -15.6534 C   0  0  0  0  0  0  0  0  0  0  0  0
   27.7543  -11.3172  -16.1549 N   0  0  0  0  0  0  0  0  0  0  0  0
   21.4394   -8.9934  -16.0039 C   0  0  0  0  0  0  0  0  0  0  0  0
   21.2036   -8.5899  -17.1457 O   0  0  0  0  0  0  0  0  0  0  0  0
   21.5832   -8.0356  -14.9796 N   0  0  0  0  0  0  0  0  0  0  0  0
   21.5151   -6.5795  -15.3911 C   0  0  1  0  0  0  0  0  0  0  0  0
   20.0768   -6.2631  -15.5123 C   0  0  0  0  0  0  0  0  0  0  0  0
   19.6323   -4.8835  -15.6214 C   0  0  0  0  0  0  0  0  0  0  0  0
   18.2298   -4.4727  -15.7944 C   0  0  0  0  0  0  0  0  0  0  0  0
   18.1660   -2.9085  -15.8736 C   0  0  0  0  0  0  0  0  0  0  0  0
   16.7881   -2.5336  -15.9540 N   0  0  0  0  0  0  0  0  0  0  0  0
   22.1458   -5.9161  -14.2232 C   0  0  0  0  0  0  0  0  0  0  0  0
   22.1925   -6.4535  -13.1154 O   0  0  0  0  0  0  0  0  0  0  0  0
   22.7040   -4.6319  -14.4094 O   0  0  0  0  0  0  0  0  0  0  0  0
  2  4  1  0
  2  1  1  6
  3  2  1  0
  4  6  1  0
  4  5  1  1
  6  7  2  0
  8  9  1  0
  8  6  1  0
 10 11  1  0
  9 10  1  6
 12 11  1  0
 13 12  1  0
 14 13  1  0
 15 16  2  0
 15  9  1  0
 17 15  1  0
 18 17  1  0
 18 24  1  0
 18 19  1  1
 20 19  1  0
 21 20  1  0
 22 21  1  0
 23 22  1  0
 24 26  1  0
 25 24  2  0
M  END
$$$$
