VKK.pdb
     RDKit          3D

 26 25  0  0  1  0  0  0  0  0999 V2000
   27.7417  -12.2666  -15.1244 C   0  0  0  0  0  0  0  0  0  0  0  0
   26.4925  -11.5984  -15.6302 C   0  0  1  0  0  0  0  0  0  0  0  0
   26.7138  -10.7244  -16.8179 C   0  0  0  0  0  0  0  0  0  0  0  0
   25.4606  -12.6563  -15.9117 C   0  0  2  0  0  0  0  0  0  0  0  0
   25.9117  -13.6424  -16.8482 N   0  0  0  0  0  0  0  0  0  0  0  0
   24.2120  -12.0335  -16.4405 C   0  0  0  0  0  0  0  0  0  0  0  0
   24.1178  -11.9537  -17.7003 O   0  0  0  0  0  0  0  0  0  0  0  0
   23.2401  -11.5835  -15.5543 N   0  0  0  0  0  0  0  0  0  0  0  0
   21.9941  -10.9426  -16.0971 C   0  0  1  0  0  0  0  0  0  0  0  0
   20.8435  -11.5387  -15.4046 C   0  0  0  0  0  0  0  0  0  0  0  0
   20.1263  -12.7211  -15.7977 C   0  0  0  0  0  0  0  0  0  0  0  0
   19.0145  -13.3303  -15.0572 C   0  0  0  0  0  0  0  0  0  0  0  0
   18.6737  -14.6204  -15.8928 C   0  0  0  0  0  0  0  0  0  0  0  0
   17.6234  -15.3411  -15.2469 N   0  0  0  0  0  0  0  0  0  0  0  0
   22.1784   -9.5027  -15.7016 C   0  0  0  0  0  0  0  0  0  0  0  0
   22.6449   -9.2213  -14.5948 O   0  0  0  0  0  0  0  0  0  0  0  0
   21.8322   -8.4421  -16.5634 N   0  0  0  0  0  0  0  0  0  0  0  0
   22.0653   -7.0377  -16.0465 C   0  0  1  0  0  0  0  0  0  0  0  0
   22.1550   -6.1780  -17.2451 C   0  0  0  0  0  0  0  0  0  0  0  0
   21.0656   -6.1378  -18.2065 C   0  0  0  0  0  0  0  0  0  0  0  0
   21.0789   -5.3445  -19.4459 C   0  0  0  0  0  0  0  0  0  0  0  0
   19.7253   -5.5671  -20.2045 C   0  0  0  0  0  0  0  0  0  0  0  0
   19.7175   -4.7001  -21.3420 N   0  0  0  0  0  0  0  0  0  0  0  0
   20.8226   -6.8020  -15.2706 C   0  0  0  0  0  0  0  0  0  0  0  0
   19.8564   -7.5633  -15.3407 O   0  0  0  0  0  0  0  0  0  0  0  0
   20.7675   -5.6663  -14.4323 O   0  0  0  0  0  0  0  0  0  0  0  0
  2  4  1  0
  2  1  1  6
  3  2  1  0
  4  6  1  0
  4  5  1  6
  6  7  2  0
  8  9  1  0
  8  6  1  0
 10 11  1  0
  9 10  1  1
 12 11  1  0
 13 12  1  0
 14 13  1  0
 15 16  2  0
 15  9  1  0
 17 15  1  0
 18 17  1  0
 18 24  1  0
 18 19  1  6
 20 19  1  0
 21 20  1  0
 22 21  1  0
 23 22  1  0
 24 26  1  0
 25 24  2  0
M  END
$$$$
