VKK.pdb
     RDKit          3D

 26 25  0  0  1  0  0  0  0  0999 V2000
   28.1199  -21.0453  -14.3097 C   0  0  0  0  0  0  0  0  0  0  0  0
   26.9110  -21.4447  -13.5084 C   0  0  1  0  0  0  0  0  0  0  0  0
   27.0208  -21.1339  -12.0542 C   0  0  0  0  0  0  0  0  0  0  0  0
   25.6954  -20.8006  -14.1172 C   0  0  2  0  0  0  0  0  0  0  0  0
   25.7565  -19.3690  -14.1068 N   0  0  0  0  0  0  0  0  0  0  0  0
   24.4643  -21.2297  -13.3915 C   0  0  0  0  0  0  0  0  0  0  0  0
   24.2484  -22.4761  -13.3463 O   0  0  0  0  0  0  0  0  0  0  0  0
   23.6367  -20.2720  -12.8164 N   0  0  0  0  0  0  0  0  0  0  0  0
   22.4158  -20.7167  -12.0620 C   0  0  1  0  0  0  0  0  0  0  0  0
   22.3373  -19.9252  -10.8267 C   0  0  0  0  0  0  0  0  0  0  0  0
   22.1386  -20.4324   -9.4962 C   0  0  0  0  0  0  0  0  0  0  0  0
   21.1032  -21.3931   -9.0951 C   0  0  0  0  0  0  0  0  0  0  0  0
   21.3113  -21.5369   -7.5412 C   0  0  0  0  0  0  0  0  0  0  0  0
   20.3031  -22.3942   -7.0042 N   0  0  0  0  0  0  0  0  0  0  0  0
   21.3056  -20.3533  -13.0102 C   0  0  0  0  0  0  0  0  0  0  0  0
   21.3511  -19.2910  -13.6359 O   0  0  0  0  0  0  0  0  0  0  0  0
   20.1940  -21.1957  -13.2155 N   0  0  0  0  0  0  0  0  0  0  0  0
   19.6326  -21.2558  -14.6209 C   0  0  1  0  0  0  0  0  0  0  0  0
   20.5940  -22.0599  -15.4037 C   0  0  0  0  0  0  0  0  0  0  0  0
   20.2637  -22.4996  -16.7491 C   0  0  0  0  0  0  0  0  0  0  0  0
   21.1337  -23.3411  -17.5863 C   0  0  0  0  0  0  0  0  0  0  0  0
   20.4345  -23.5735  -18.9699 C   0  0  0  0  0  0  0  0  0  0  0  0
   21.3027  -24.3870  -19.7638 N   0  0  0  0  0  0  0  0  0  0  0  0
   18.3505  -21.9673  -14.3931 C   0  0  0  0  0  0  0  0  0  0  0  0
   17.3141  -21.6453  -14.9764 O   0  0  0  0  0  0  0  0  0  0  0  0
   18.3407  -23.0432  -13.4777 O   0  0  0  0  0  0  0  0  0  0  0  0
  2  4  1  0
  2  1  1  6
  3  2  1  0
  4  6  1  0
  4  5  1  1
  6  7  2  0
  8  9  1  0
  8  6  1  0
 10 11  1  0
  9 10  1  1
 12 11  1  0
 13 12  1  0
 14 13  1  0
 15 16  2  0
 15  9  1  0
 17 15  1  0
 18 17  1  0
 18 24  1  0
 18 19  1  6
 20 19  1  0
 21 20  1  0
 22 21  1  0
 23 22  1  0
 24 26  1  0
 25 24  2  0
M  END
$$$$
