VKK.pdb
     RDKit          3D

 26 25  0  0  1  0  0  0  0  0999 V2000
   23.5047  -30.4406   -9.2569 C   0  0  0  0  0  0  0  0  0  0  0  0
   22.1078  -30.9190   -9.5448 C   0  0  1  0  0  0  0  0  0  0  0  0
   21.0740  -29.8474   -9.4648 C   0  0  0  0  0  0  0  0  0  0  0  0
   22.0972  -31.5928  -10.8899 C   0  0  2  0  0  0  0  0  0  0  0  0
   20.8078  -32.1041  -11.2491 N   0  0  0  0  0  0  0  0  0  0  0  0
   23.0784  -32.7167  -10.9132 C   0  0  0  0  0  0  0  0  0  0  0  0
   22.7357  -33.7701  -10.3007 O   0  0  0  0  0  0  0  0  0  0  0  0
   24.2856  -32.5610  -11.5849 N   0  0  0  0  0  0  0  0  0  0  0  0
   25.2690  -33.6970  -11.5969 C   0  0  1  0  0  0  0  0  0  0  0  0
   26.0666  -33.5883  -12.8259 C   0  0  0  0  0  0  0  0  0  0  0  0
   25.9000  -34.3626  -14.0259 C   0  0  0  0  0  0  0  0  0  0  0  0
   25.3399  -35.7181  -14.0958 C   0  0  0  0  0  0  0  0  0  0  0  0
   25.4286  -36.0786  -15.6258 C   0  0  0  0  0  0  0  0  0  0  0  0
   24.7045  -37.2846  -15.8725 N   0  0  0  0  0  0  0  0  0  0  0  0
   26.1054  -33.4070  -10.3803 C   0  0  0  0  0  0  0  0  0  0  0  0
   26.2522  -32.2443   -9.9950 O   0  0  0  0  0  0  0  0  0  0  0  0
   26.7399  -34.4320   -9.6495 N   0  0  0  0  0  0  0  0  0  0  0  0
   27.4981  -34.0160   -8.4061 C   0  0  1  0  0  0  0  0  0  0  0  0
   26.4776  -33.5142   -7.4624 C   0  0  0  0  0  0  0  0  0  0  0  0
   26.7726  -33.4136   -6.0427 C   0  0  0  0  0  0  0  0  0  0  0  0
   25.8205  -32.9363   -5.0270 C   0  0  0  0  0  0  0  0  0  0  0  0
   26.4966  -33.0284   -3.6158 C   0  0  0  0  0  0  0  0  0  0  0  0
   25.5661  -32.5223   -2.6548 N   0  0  0  0  0  0  0  0  0  0  0  0
   28.0833  -35.3093   -7.9743 C   0  0  0  0  0  0  0  0  0  0  0  0
   28.8996  -35.3803   -7.0541 O   0  0  0  0  0  0  0  0  0  0  0  0
   27.6778  -36.4814   -8.6506 O   0  0  0  0  0  0  0  0  0  0  0  0
  2  4  1  0
  2  1  1  6
  3  2  1  0
  4  6  1  0
  4  5  1  1
  6  7  2  0
  8  9  1  0
  8  6  1  0
 10 11  1  0
  9 10  1  6
 12 11  1  0
 13 12  1  0
 14 13  1  0
 15 16  2  0
 15  9  1  0
 17 15  1  0
 18 17  1  0
 18 24  1  0
 18 19  1  1
 20 19  1  0
 21 20  1  0
 22 21  1  0
 23 22  1  0
 24 26  1  0
 25 24  2  0
M  END
$$$$
