VKK.pdb
     RDKit          3D

 26 25  0  0  1  0  0  0  0  0999 V2000
   24.8210  -23.7778  -17.5692 C   0  0  0  0  0  0  0  0  0  0  0  0
   25.7244  -24.8344  -18.1442 C   0  0  1  0  0  0  0  0  0  0  0  0
   27.0974  -24.3473  -18.4620 C   0  0  0  0  0  0  0  0  0  0  0  0
   25.7617  -26.0031  -17.1978 C   0  0  2  0  0  0  0  0  0  0  0  0
   26.2585  -25.6558  -15.8994 N   0  0  0  0  0  0  0  0  0  0  0  0
   26.6122  -27.0944  -17.7566 C   0  0  0  0  0  0  0  0  0  0  0  0
   26.2529  -27.5655  -18.8751 O   0  0  0  0  0  0  0  0  0  0  0  0
   27.7249  -27.5303  -17.0462 N   0  0  0  0  0  0  0  0  0  0  0  0
   28.5863  -28.6154  -17.6277 C   0  0  1  0  0  0  0  0  0  0  0  0
   29.9887  -28.2675  -17.3617 C   0  0  0  0  0  0  0  0  0  0  0  0
   31.0869  -28.3744  -18.2834 C   0  0  0  0  0  0  0  0  0  0  0  0
   32.0570  -29.4756  -18.3306 C   0  0  0  0  0  0  0  0  0  0  0  0
   33.0417  -29.0544  -19.4846 C   0  0  0  0  0  0  0  0  0  0  0  0
   34.0387  -30.0635  -19.6503 N   0  0  0  0  0  0  0  0  0  0  0  0
   28.1653  -29.8188  -16.8287 C   0  0  0  0  0  0  0  0  0  0  0  0
   28.1369  -29.7626  -15.5966 O   0  0  0  0  0  0  0  0  0  0  0  0
   27.7950  -31.0313  -17.4451 N   0  0  0  0  0  0  0  0  0  0  0  0
   27.2780  -32.1288  -16.5382 C   0  0  1  0  0  0  0  0  0  0  0  0
   26.0189  -31.6136  -15.9612 C   0  0  0  0  0  0  0  0  0  0  0  0
   25.1222  -32.5002  -15.2385 C   0  0  0  0  0  0  0  0  0  0  0  0
   23.8844  -32.0674  -14.5705 C   0  0  0  0  0  0  0  0  0  0  0  0
   23.2008  -33.3152  -13.9126 C   0  0  0  0  0  0  0  0  0  0  0  0
   22.1471  -32.8393  -13.0705 N   0  0  0  0  0  0  0  0  0  0  0  0
   27.0496  -33.2270  -17.5096 C   0  0  0  0  0  0  0  0  0  0  0  0
   26.9735  -33.0194  -18.7217 O   0  0  0  0  0  0  0  0  0  0  0  0
   26.9198  -34.5415  -17.0087 O   0  0  0  0  0  0  0  0  0  0  0  0
  2  4  1  0
  2  1  1  1
  3  2  1  0
  4  6  1  0
  4  5  1  1
  6  7  2  0
  8  9  1  0
  8  6  1  0
 10 11  1  0
  9 10  1  1
 12 11  1  0
 13 12  1  0
 14 13  1  0
 15 16  2  0
 15  9  1  0
 17 15  1  0
 18 17  1  0
 18 24  1  0
 18 19  1  6
 20 19  1  0
 21 20  1  0
 22 21  1  0
 23 22  1  0
 24 26  1  0
 25 24  2  0
M  END
$$$$
