VKK.pdb
     RDKit          3D

 26 25  0  0  1  0  0  0  0  0999 V2000
   13.8315  -21.1504    3.1534 C   0  0  0  0  0  0  0  0  0  0  0  0
   14.9455  -20.5587    3.9731 C   0  0  1  0  0  0  0  0  0  0  0  0
   15.9471  -21.5589    4.4421 C   0  0  0  0  0  0  0  0  0  0  0  0
   15.5971  -19.4602    3.1782 C   0  0  2  0  0  0  0  0  0  0  0  0
   16.1298  -19.9148    1.9281 N   0  0  0  0  0  0  0  0  0  0  0  0
   16.6994  -18.8354    3.9663 C   0  0  0  0  0  0  0  0  0  0  0  0
   17.8776  -19.1276    3.6076 O   0  0  0  0  0  0  0  0  0  0  0  0
   16.3924  -17.9880    5.0247 N   0  0  0  0  0  0  0  0  0  0  0  0
   17.5101  -17.3578    5.8066 C   0  0  1  0  0  0  0  0  0  0  0  0
   17.2069  -15.9275    5.9513 C   0  0  0  0  0  0  0  0  0  0  0  0
   17.9460  -14.8338    5.3814 C   0  0  0  0  0  0  0  0  0  0  0  0
   17.6207  -13.4106    5.5383 C   0  0  0  0  0  0  0  0  0  0  0  0
   18.7221  -12.6808    4.6821 C   0  0  0  0  0  0  0  0  0  0  0  0
   18.5788  -11.2674    4.8289 N   0  0  0  0  0  0  0  0  0  0  0  0
   17.4140  -18.0689    7.1290 C   0  0  0  0  0  0  0  0  0  0  0  0
   16.3397  -18.5543    7.4923 O   0  0  0  0  0  0  0  0  0  0  0  0
   18.5255  -18.2046    7.9855 N   0  0  0  0  0  0  0  0  0  0  0  0
   18.2958  -18.9348    9.2925 C   0  0  1  0  0  0  0  0  0  0  0  0
   18.0252  -20.3404    8.9255 C   0  0  0  0  0  0  0  0  0  0  0  0
   17.9359  -21.3660    9.9515 C   0  0  0  0  0  0  0  0  0  0  0  0
   17.7255  -22.7972    9.6809 C   0  0  0  0  0  0  0  0  0  0  0  0
   17.7818  -23.5827   11.0362 C   0  0  0  0  0  0  0  0  0  0  0  0
   17.6432  -24.9745   10.7374 N   0  0  0  0  0  0  0  0  0  0  0  0
   19.6115  -18.7648    9.9572 C   0  0  0  0  0  0  0  0  0  0  0  0
   20.5988  -18.3465    9.3504 O   0  0  0  0  0  0  0  0  0  0  0  0
   19.7124  -19.0970   11.3266 O   0  0  0  0  0  0  0  0  0  0  0  0
  2  4  1  0
  2  1  1  6
  3  2  1  0
  4  6  1  0
  4  5  1  6
  6  7  2  0
  8  9  1  0
  8  6  1  0
 10 11  1  0
  9 10  1  1
 12 11  1  0
 13 12  1  0
 14 13  1  0
 15 16  2  0
 15  9  1  0
 17 15  1  0
 18 17  1  0
 18 24  1  0
 18 19  1  6
 20 19  1  0
 21 20  1  0
 22 21  1  0
 23 22  1  0
 24 26  1  0
 25 24  2  0
M  END
$$$$
