NEP.pdb
     RDKit          3D

 25 25  0  0  1  0  0  0  0  0999 V2000
    8.5907  -12.2198   17.6290 N   0  0  0  0  0  0  0  0  0  0  0  0
    8.2972  -13.5510   17.9804 C   0  0  0  0  0  0  0  0  0  0  0  0
    8.6742  -14.4889   17.2254 O   0  0  0  0  0  0  0  0  0  0  0  0
    7.5548  -13.9136   19.2141 C   0  0  0  0  0  0  0  0  0  0  0  0
    8.4888  -14.1430   20.3774 C   0  0  2  0  0  0  0  0  0  0  0  0
    9.4599  -15.1597   20.0759 N   0  0  0  0  0  0  0  0  0  0  0  0
    7.7793  -14.4210   21.6310 C   0  0  0  0  0  0  0  0  0  0  0  0
    6.9076  -13.5921   22.0238 O   0  0  0  0  0  0  0  0  0  0  0  0
    8.0054  -15.5534   22.4283 N   0  0  0  0  0  0  0  0  0  0  0  0
    7.3804  -15.6840   23.7465 C   0  0  1  0  0  0  0  0  0  0  0  0
    7.2191  -17.1814   23.9339 C   0  0  0  0  0  0  0  0  0  0  0  0
    6.4863  -17.3754   25.2457 C   0  0  0  0  0  0  0  0  0  0  0  0
    6.3868  -18.8366   25.5831 C   0  0  0  0  0  0  0  0  0  0  0  0
    7.1182  -19.3253   26.4821 O   0  0  0  0  0  0  0  0  0  0  0  0
    8.2556  -15.0927   24.8178 C   0  0  0  0  0  0  0  0  0  0  0  0
    9.3252  -15.7121   25.0060 O   0  0  0  0  0  0  0  0  0  0  0  0
    5.4814  -19.5990   24.8816 O   0  0  0  0  0  0  0  0  0  0  0  0
    7.9258  -13.9611   25.5446 N   0  0  0  0  0  0  0  0  0  0  0  0
    7.0440  -12.9049   24.9975 C   0  0  0  0  0  0  0  0  0  0  0  0
    6.2177  -12.5172   26.1962 C   0  0  0  0  0  0  0  0  0  0  0  0
    6.9020  -13.1061   27.4003 C   0  0  0  0  0  0  0  0  0  0  0  0
    8.3033  -13.4522   26.8048 C   0  0  1  0  0  0  0  0  0  0  0  0
    9.0426  -14.2646   27.7429 C   0  0  0  0  0  0  0  0  0  0  0  0
    8.6953  -15.4958   27.8540 O   0  0  0  0  0  0  0  0  0  0  0  0
   10.0823  -13.8724   28.5339 O   0  0  0  0  0  0  0  0  0  0  0  0
  1  2  1  0
  2  3  2  0
  4  5  1  0
  4  2  1  0
  5  6  1  6
  7  5  1  0
  8  7  2  0
  9  7  1  0
 10 11  1  1
 10  9  1  0
 11 12  1  0
 12 13  1  0
 13 17  1  0
 14 13  2  0
 15 10  1  0
 16 15  2  0
 18 15  1  0
 18 22  1  0
 19 20  1  0
 19 18  1  0
 20 21  1  0
 21 22  1  0
 22 23  1  1
 23 25  1  0
 24 23  2  0
M  END
$$$$
