NEP.pdb
     RDKit          3D

 25 25  0  0  1  0  0  0  0  0999 V2000
    9.7992  -13.9005   18.0958 N   0  0  0  0  0  0  0  0  0  0  0  0
    8.4656  -13.4615   18.1968 C   0  0  0  0  0  0  0  0  0  0  0  0
    8.0122  -12.6544   17.3397 O   0  0  0  0  0  0  0  0  0  0  0  0
    7.5505  -13.9069   19.2780 C   0  0  0  0  0  0  0  0  0  0  0  0
    8.2107  -14.9183   20.1832 C   0  0  2  0  0  0  0  0  0  0  0  0
    8.2593  -16.2172   19.5684 N   0  0  0  0  0  0  0  0  0  0  0  0
    7.6044  -14.9690   21.5181 C   0  0  0  0  0  0  0  0  0  0  0  0
    6.3754  -14.6896   21.6301 O   0  0  0  0  0  0  0  0  0  0  0  0
    8.3027  -15.3093   22.6867 N   0  0  0  0  0  0  0  0  0  0  0  0
    7.5970  -15.5135   23.9540 C   0  0  1  0  0  0  0  0  0  0  0  0
    7.5247  -17.0224   24.0994 C   0  0  0  0  0  0  0  0  0  0  0  0
    6.6517  -17.2980   25.3066 C   0  0  0  0  0  0  0  0  0  0  0  0
    6.6022  -18.7718   25.5962 C   0  0  0  0  0  0  0  0  0  0  0  0
    7.0930  -19.2194   26.6643 O   0  0  0  0  0  0  0  0  0  0  0  0
    8.3530  -14.8923   25.0968 C   0  0  0  0  0  0  0  0  0  0  0  0
    9.4551  -15.4319   25.3361 O   0  0  0  0  0  0  0  0  0  0  0  0
    6.0100  -19.5917   24.6632 O   0  0  0  0  0  0  0  0  0  0  0  0
    7.8883  -13.8156   25.8332 N   0  0  0  0  0  0  0  0  0  0  0  0
    6.8702  -12.8809   25.3020 C   0  0  0  0  0  0  0  0  0  0  0  0
    6.0156  -12.6079   26.5124 C   0  0  0  0  0  0  0  0  0  0  0  0
    6.7855  -13.1071   27.7053 C   0  0  0  0  0  0  0  0  0  0  0  0
    8.2123  -13.2663   27.0913 C   0  0  1  0  0  0  0  0  0  0  0  0
    9.0625  -13.9792   28.0164 C   0  0  0  0  0  0  0  0  0  0  0  0
    9.8691  -13.2802   28.7301 O   0  0  0  0  0  0  0  0  0  0  0  0
    9.1077  -15.3265   28.2252 O   0  0  0  0  0  0  0  0  0  0  0  0
  1  2  1  0
  2  3  2  0
  4  5  1  0
  4  2  1  0
  5  6  1  6
  7  5  1  0
  8  7  2  0
  9  7  1  0
 10 11  1  1
 10  9  1  0
 11 12  1  0
 12 13  1  0
 13 17  1  0
 14 13  2  0
 15 10  1  0
 16 15  2  0
 18 15  1  0
 18 22  1  0
 19 20  1  0
 19 18  1  0
 20 21  1  0
 21 22  1  0
 22 23  1  1
 23 25  1  0
 24 23  2  0
M  END
$$$$
