NEP.pdb
     RDKit          3D

 25 25  0  0  1  0  0  0  0  0999 V2000
    7.7830  -12.7104   17.4302 N   0  0  0  0  0  0  0  0  0  0  0  0
    8.4118  -13.2112   18.5857 C   0  0  0  0  0  0  0  0  0  0  0  0
    9.6415  -13.4912   18.5502 O   0  0  0  0  0  0  0  0  0  0  0  0
    7.6904  -13.4303   19.8649 C   0  0  0  0  0  0  0  0  0  0  0  0
    7.6533  -14.8923   20.2385 C   0  0  2  0  0  0  0  0  0  0  0  0
    6.9111  -15.6595   19.2751 N   0  0  0  0  0  0  0  0  0  0  0  0
    7.1702  -15.1186   21.6051 C   0  0  0  0  0  0  0  0  0  0  0  0
    5.9329  -14.9853   21.8340 O   0  0  0  0  0  0  0  0  0  0  0  0
    7.9957  -15.4757   22.6821 N   0  0  0  0  0  0  0  0  0  0  0  0
    7.4459  -15.6460   24.0291 C   0  0  1  0  0  0  0  0  0  0  0  0
    7.4792  -17.1461   24.2565 C   0  0  0  0  0  0  0  0  0  0  0  0
    6.9561  -17.3814   25.6587 C   0  0  0  0  0  0  0  0  0  0  0  0
    7.1445  -18.8181   26.0577 C   0  0  0  0  0  0  0  0  0  0  0  0
    6.2377  -19.4193   26.6887 O   0  0  0  0  0  0  0  0  0  0  0  0
    8.2841  -14.9224   25.0476 C   0  0  0  0  0  0  0  0  0  0  0  0
    9.4145  -15.4238   25.2309 O   0  0  0  0  0  0  0  0  0  0  0  0
    8.3254  -19.4331   25.7105 O   0  0  0  0  0  0  0  0  0  0  0  0
    7.8609  -13.7968   25.7341 N   0  0  0  0  0  0  0  0  0  0  0  0
    6.9686  -12.7889   25.1172 C   0  0  0  0  0  0  0  0  0  0  0  0
    6.0543  -12.4220   26.2570 C   0  0  0  0  0  0  0  0  0  0  0  0
    6.6888  -12.9627   27.5100 C   0  0  0  0  0  0  0  0  0  0  0  0
    8.1379  -13.2538   27.0062 C   0  0  1  0  0  0  0  0  0  0  0  0
    8.8534  -14.0190   28.0007 C   0  0  0  0  0  0  0  0  0  0  0  0
    8.6623  -15.2887   28.0136 O   0  0  0  0  0  0  0  0  0  0  0  0
    9.7221  -13.5446   28.9393 O   0  0  0  0  0  0  0  0  0  0  0  0
  1  2  1  0
  2  3  2  0
  4  5  1  0
  4  2  1  0
  5  6  1  6
  7  5  1  0
  8  7  2  0
  9  7  1  0
 10 11  1  1
 10  9  1  0
 11 12  1  0
 12 13  1  0
 13 17  1  0
 14 13  2  0
 15 10  1  0
 16 15  2  0
 18 15  1  0
 18 22  1  0
 19 20  1  0
 19 18  1  0
 20 21  1  0
 21 22  1  0
 22 23  1  1
 23 25  1  0
 24 23  2  0
M  END
$$$$
