NEP.pdb
     RDKit          3D

 25 25  0  0  1  0  0  0  0  0999 V2000
    8.2844  -12.6469   17.6544 N   0  0  0  0  0  0  0  0  0  0  0  0
    8.7688  -13.3968   18.7428 C   0  0  0  0  0  0  0  0  0  0  0  0
    9.8620  -14.0165   18.6309 O   0  0  0  0  0  0  0  0  0  0  0  0
    8.0474  -13.4971   20.0367 C   0  0  0  0  0  0  0  0  0  0  0  0
    7.7317  -14.9310   20.3870 C   0  0  2  0  0  0  0  0  0  0  0  0
    6.8279  -15.5154   19.4334 N   0  0  0  0  0  0  0  0  0  0  0  0
    7.2488  -15.0878   21.7633 C   0  0  0  0  0  0  0  0  0  0  0  0
    6.0432  -14.7956   22.0133 O   0  0  0  0  0  0  0  0  0  0  0  0
    8.0412  -15.5437   22.8278 N   0  0  0  0  0  0  0  0  0  0  0  0
    7.4740  -15.7247   24.1661 C   0  0  1  0  0  0  0  0  0  0  0  0
    7.5135  -17.2258   24.3860 C   0  0  0  0  0  0  0  0  0  0  0  0
    6.9765  -17.4715   25.7812 C   0  0  0  0  0  0  0  0  0  0  0  0
    7.1468  -18.9145   26.1652 C   0  0  0  0  0  0  0  0  0  0  0  0
    7.1430  -19.8059   25.2777 O   0  0  0  0  0  0  0  0  0  0  0  0
    8.2936  -15.0014   25.1999 C   0  0  0  0  0  0  0  0  0  0  0  0
    9.4257  -15.4951   25.3940 O   0  0  0  0  0  0  0  0  0  0  0  0
    7.3033  -19.2114   27.4996 O   0  0  0  0  0  0  0  0  0  0  0  0
    7.8529  -13.8839   25.8887 N   0  0  0  0  0  0  0  0  0  0  0  0
    6.8615  -12.9464   25.3135 C   0  0  0  0  0  0  0  0  0  0  0  0
    6.0083  -12.6022   26.5066 C   0  0  0  0  0  0  0  0  0  0  0  0
    6.7593  -13.0711   27.7235 C   0  0  0  0  0  0  0  0  0  0  0  0
    8.1847  -13.2916   27.1251 C   0  0  1  0  0  0  0  0  0  0  0  0
    9.0118  -13.9870   28.0837 C   0  0  0  0  0  0  0  0  0  0  0  0
    9.8646  -13.2866   28.7402 O   0  0  0  0  0  0  0  0  0  0  0  0
    8.9912  -15.3185   28.3790 O   0  0  0  0  0  0  0  0  0  0  0  0
  1  2  1  0
  2  3  2  0
  4  5  1  0
  4  2  1  0
  5  6  1  6
  7  5  1  0
  8  7  2  0
  9  7  1  0
 10 11  1  1
 10  9  1  0
 11 12  1  0
 12 13  1  0
 13 17  1  0
 14 13  2  0
 15 10  1  0
 16 15  2  0
 18 15  1  0
 18 22  1  0
 19 20  1  0
 19 18  1  0
 20 21  1  0
 21 22  1  0
 22 23  1  1
 23 25  1  0
 24 23  2  0
M  END
$$$$
