NEP.pdb
     RDKit          3D

 25 25  0  0  1  0  0  0  0  0999 V2000
   12.2463  -20.0578   25.3490 N   0  0  0  0  0  0  0  0  0  0  0  0
   12.1674  -19.0813   26.3599 C   0  0  0  0  0  0  0  0  0  0  0  0
   12.3616  -19.4154   27.5609 O   0  0  0  0  0  0  0  0  0  0  0  0
   11.8626  -17.6552   26.0805 C   0  0  0  0  0  0  0  0  0  0  0  0
   11.6540  -17.4103   24.6057 C   0  0  2  0  0  0  0  0  0  0  0  0
   12.9071  -17.3531   23.9028 N   0  0  0  0  0  0  0  0  0  0  0  0
   10.8231  -16.2317   24.3362 C   0  0  0  0  0  0  0  0  0  0  0  0
   11.3066  -15.0881   24.5803 O   0  0  0  0  0  0  0  0  0  0  0  0
    9.5188  -16.2898   23.8221 N   0  0  0  0  0  0  0  0  0  0  0  0
    8.7058  -15.0784   23.6906 C   0  0  1  0  0  0  0  0  0  0  0  0
    7.8315  -15.3480   22.4798 C   0  0  0  0  0  0  0  0  0  0  0  0
    8.7358  -15.2631   21.2673 C   0  0  0  0  0  0  0  0  0  0  0  0
    7.9674  -15.5729   20.0135 C   0  0  0  0  0  0  0  0  0  0  0  0
    8.4057  -15.1928   18.8975 O   0  0  0  0  0  0  0  0  0  0  0  0
    7.8736  -14.8527   24.9235 C   0  0  0  0  0  0  0  0  0  0  0  0
    7.3563  -15.8908   25.3900 O   0  0  0  0  0  0  0  0  0  0  0  0
    6.7902  -16.2745   20.1367 O   0  0  0  0  0  0  0  0  0  0  0  0
    7.6837  -13.6120   25.5082 N   0  0  0  0  0  0  0  0  0  0  0  0
    8.5693  -12.4617   25.2167 C   0  0  0  0  0  0  0  0  0  0  0  0
    7.6000  -11.3096   25.1634 C   0  0  0  0  0  0  0  0  0  0  0  0
    6.3105  -11.8029   25.7622 C   0  0  0  0  0  0  0  0  0  0  0  0
    6.7949  -13.1033   26.4782 C   0  0  1  0  0  0  0  0  0  0  0  0
    5.6523  -13.8719   26.9147 C   0  0  0  0  0  0  0  0  0  0  0  0
    5.3049  -14.8714   26.1873 O   0  0  0  0  0  0  0  0  0  0  0  0
    4.8900  -13.6587   28.0256 O   0  0  0  0  0  0  0  0  0  0  0  0
  1  2  1  0
  2  3  2  0
  4  5  1  0
  4  2  1  0
  5  6  1  6
  7  5  1  0
  8  7  2  0
  9  7  1  0
 10 11  1  6
 10  9  1  0
 11 12  1  0
 12 13  1  0
 13 17  1  0
 14 13  2  0
 15 10  1  0
 16 15  2  0
 18 15  1  0
 18 22  1  0
 19 20  1  0
 19 18  1  0
 20 21  1  0
 21 22  1  0
 22 23  1  6
 23 25  1  0
 24 23  2  0
M  END
$$$$
