NEP.pdb
     RDKit          3D

 25 25  0  0  1  0  0  0  0  0999 V2000
    8.3822  -12.3669   17.8448 N   0  0  0  0  0  0  0  0  0  0  0  0
    8.1110  -13.6911   18.2379 C   0  0  0  0  0  0  0  0  0  0  0  0
    8.4144  -14.6414   17.4656 O   0  0  0  0  0  0  0  0  0  0  0  0
    7.4758  -14.0320   19.5360 C   0  0  0  0  0  0  0  0  0  0  0  0
    8.5055  -14.3733   20.5856 C   0  0  2  0  0  0  0  0  0  0  0  0
    9.3189  -15.4867   20.1777 N   0  0  0  0  0  0  0  0  0  0  0  0
    7.9172  -14.5850   21.9127 C   0  0  0  0  0  0  0  0  0  0  0  0
    7.1321  -13.7035   22.3687 O   0  0  0  0  0  0  0  0  0  0  0  0
    8.1696  -15.7082   22.7150 N   0  0  0  0  0  0  0  0  0  0  0  0
    7.6467  -15.7918   24.0807 C   0  0  1  0  0  0  0  0  0  0  0  0
    7.7033  -17.2723   24.4097 C   0  0  0  0  0  0  0  0  0  0  0  0
    6.2713  -17.7667   24.4209 C   0  0  0  0  0  0  0  0  0  0  0  0
    6.2202  -19.2267   24.7738 C   0  0  0  0  0  0  0  0  0  0  0  0
    5.8265  -19.5844   25.9137 O   0  0  0  0  0  0  0  0  0  0  0  0
    8.4940  -14.9904   25.0311 C   0  0  0  0  0  0  0  0  0  0  0  0
    9.6486  -15.4413   25.1937 O   0  0  0  0  0  0  0  0  0  0  0  0
    6.6138  -20.1343   23.8176 O   0  0  0  0  0  0  0  0  0  0  0  0
    8.0543  -13.8490   25.6801 N   0  0  0  0  0  0  0  0  0  0  0  0
    7.1200  -12.8931   25.0431 C   0  0  0  0  0  0  0  0  0  0  0  0
    6.2212  -12.5039   26.1880 C   0  0  0  0  0  0  0  0  0  0  0  0
    6.8988  -12.9736   27.4470 C   0  0  0  0  0  0  0  0  0  0  0  0
    8.3440  -13.2455   26.9217 C   0  0  1  0  0  0  0  0  0  0  0  0
    9.1031  -13.9481   27.9300 C   0  0  0  0  0  0  0  0  0  0  0  0
    9.9673  -13.2687   28.5935 O   0  0  0  0  0  0  0  0  0  0  0  0
    9.0067  -15.2666   28.2661 O   0  0  0  0  0  0  0  0  0  0  0  0
  1  2  1  0
  2  3  2  0
  4  5  1  0
  4  2  1  0
  5  6  1  6
  7  5  1  0
  8  7  2  0
  9  7  1  0
 10 11  1  1
 10  9  1  0
 11 12  1  0
 12 13  1  0
 13 17  1  0
 14 13  2  0
 15 10  1  0
 16 15  2  0
 18 15  1  0
 18 22  1  0
 19 20  1  0
 19 18  1  0
 20 21  1  0
 21 22  1  0
 22 23  1  1
 23 25  1  0
 24 23  2  0
M  END
$$$$
