NEP.pdb
     RDKit          3D

 25 25  0  0  1  0  0  0  0  0999 V2000
    8.1520  -12.7767   17.4628 N   0  0  0  0  0  0  0  0  0  0  0  0
    8.5885  -13.4852   18.5981 C   0  0  0  0  0  0  0  0  0  0  0  0
    9.7503  -13.9768   18.6132 O   0  0  0  0  0  0  0  0  0  0  0  0
    7.7378  -13.6868   19.7983 C   0  0  0  0  0  0  0  0  0  0  0  0
    7.8503  -15.0954   20.3288 C   0  0  2  0  0  0  0  0  0  0  0  0
    7.3739  -16.0550   19.3698 N   0  0  0  0  0  0  0  0  0  0  0  0
    7.2062  -15.2647   21.6360 C   0  0  0  0  0  0  0  0  0  0  0  0
    6.0642  -15.8083   21.6764 O   0  0  0  0  0  0  0  0  0  0  0  0
    7.7771  -14.8607   22.8524 N   0  0  0  0  0  0  0  0  0  0  0  0
    7.2355  -15.3271   24.1310 C   0  0  1  0  0  0  0  0  0  0  0  0
    7.3291  -16.8394   24.0440 C   0  0  0  0  0  0  0  0  0  0  0  0
    6.8662  -17.3778   25.3823 C   0  0  0  0  0  0  0  0  0  0  0  0
    7.1274  -18.8549   25.4754 C   0  0  0  0  0  0  0  0  0  0  0  0
    7.6298  -19.4672   24.4983 O   0  0  0  0  0  0  0  0  0  0  0  0
    8.0448  -14.7972   25.2833 C   0  0  0  0  0  0  0  0  0  0  0  0
    9.0764  -15.4581   25.5322 O   0  0  0  0  0  0  0  0  0  0  0  0
    6.8003  -19.4937   26.6493 O   0  0  0  0  0  0  0  0  0  0  0  0
    7.6967  -13.6764   26.0181 N   0  0  0  0  0  0  0  0  0  0  0  0
    6.7501  -12.6611   25.5025 C   0  0  0  0  0  0  0  0  0  0  0  0
    5.9565  -12.3017   26.7317 C   0  0  0  0  0  0  0  0  0  0  0  0
    6.7122  -12.8545   27.9098 C   0  0  0  0  0  0  0  0  0  0  0  0
    8.1022  -13.1449   27.2602 C   0  0  1  0  0  0  0  0  0  0  0  0
    8.9118  -13.9203   28.1713 C   0  0  0  0  0  0  0  0  0  0  0  0
    9.6388  -13.2717   29.0076 O   0  0  0  0  0  0  0  0  0  0  0  0
    8.9938  -15.2796   28.2498 O   0  0  0  0  0  0  0  0  0  0  0  0
  1  2  1  0
  2  3  2  0
  4  5  1  0
  4  2  1  0
  5  6  1  6
  7  5  1  0
  8  7  2  0
  9  7  1  0
 10 11  1  6
 10  9  1  0
 11 12  1  0
 12 13  1  0
 13 17  1  0
 14 13  2  0
 15 10  1  0
 16 15  2  0
 18 15  1  0
 18 22  1  0
 19 20  1  0
 19 18  1  0
 20 21  1  0
 21 22  1  0
 22 23  1  1
 23 25  1  0
 24 23  2  0
M  END
$$$$
