NEP.pdb
     RDKit          3D

 25 25  0  0  1  0  0  0  0  0999 V2000
    7.3939  -15.3026   17.2935 N   0  0  0  0  0  0  0  0  0  0  0  0
    7.8754  -14.0962   17.8361 C   0  0  0  0  0  0  0  0  0  0  0  0
    8.7986  -13.4743   17.2423 O   0  0  0  0  0  0  0  0  0  0  0  0
    7.3437  -13.5088   19.0919 C   0  0  0  0  0  0  0  0  0  0  0  0
    8.3368  -13.6231   20.2228 C   0  0  2  0  0  0  0  0  0  0  0  0
    9.4113  -14.5176   19.8867 N   0  0  0  0  0  0  0  0  0  0  0  0
    7.7079  -13.9813   21.4989 C   0  0  0  0  0  0  0  0  0  0  0  0
    6.6572  -13.3660   21.8436 O   0  0  0  0  0  0  0  0  0  0  0  0
    8.1982  -14.9678   22.3679 N   0  0  0  0  0  0  0  0  0  0  0  0
    7.5393  -15.2402   23.6475 C   0  0  1  0  0  0  0  0  0  0  0  0
    7.4250  -16.7529   23.6914 C   0  0  0  0  0  0  0  0  0  0  0  0
    6.7720  -17.0978   25.0142 C   0  0  0  0  0  0  0  0  0  0  0  0
    6.9340  -18.5610   25.3167 C   0  0  0  0  0  0  0  0  0  0  0  0
    6.3319  -19.0708   26.2963 O   0  0  0  0  0  0  0  0  0  0  0  0
    8.3613  -14.7229   24.7965 C   0  0  0  0  0  0  0  0  0  0  0  0
    9.4274  -15.3476   24.9865 O   0  0  0  0  0  0  0  0  0  0  0  0
    7.7510  -19.3018   24.4939 O   0  0  0  0  0  0  0  0  0  0  0  0
    7.9893  -13.6494   25.5881 N   0  0  0  0  0  0  0  0  0  0  0  0
    7.1520  -12.5436   25.0699 C   0  0  0  0  0  0  0  0  0  0  0  0
    6.2489  -12.2438   26.2381 C   0  0  0  0  0  0  0  0  0  0  0  0
    6.8473  -12.9340   27.4340 C   0  0  0  0  0  0  0  0  0  0  0  0
    8.2838  -13.2465   26.9074 C   0  0  1  0  0  0  0  0  0  0  0  0
    8.9539  -14.1390   27.8246 C   0  0  0  0  0  0  0  0  0  0  0  0
    8.7246  -15.3956   27.6936 O   0  0  0  0  0  0  0  0  0  0  0  0
    9.8154  -13.7988   28.8259 O   0  0  0  0  0  0  0  0  0  0  0  0
  1  2  1  0
  2  3  2  0
  4  5  1  0
  4  2  1  0
  5  6  1  6
  7  5  1  0
  8  7  2  0
  9  7  1  0
 10 11  1  1
 10  9  1  0
 11 12  1  0
 12 13  1  0
 13 17  1  0
 14 13  2  0
 15 10  1  0
 16 15  2  0
 18 15  1  0
 18 22  1  0
 19 20  1  0
 19 18  1  0
 20 21  1  0
 21 22  1  0
 22 23  1  1
 23 25  1  0
 24 23  2  0
M  END
$$$$
