NEP.pdb
     RDKit          3D

 25 25  0  0  1  0  0  0  0  0999 V2000
    9.4414  -14.4308   17.8758 N   0  0  0  0  0  0  0  0  0  0  0  0
    8.5137  -13.4720   18.3249 C   0  0  0  0  0  0  0  0  0  0  0  0
    8.2528  -12.4742   17.5984 O   0  0  0  0  0  0  0  0  0  0  0  0
    7.8153  -13.5768   19.6310 C   0  0  0  0  0  0  0  0  0  0  0  0
    8.1496  -14.8679   20.3378 C   0  0  2  0  0  0  0  0  0  0  0  0
    7.8126  -16.0087   19.5300 N   0  0  0  0  0  0  0  0  0  0  0  0
    7.5570  -14.9538   21.6771 C   0  0  0  0  0  0  0  0  0  0  0  0
    6.3574  -14.5804   21.8277 O   0  0  0  0  0  0  0  0  0  0  0  0
    8.2378  -15.4260   22.8096 N   0  0  0  0  0  0  0  0  0  0  0  0
    7.5478  -15.5852   24.0919 C   0  0  1  0  0  0  0  0  0  0  0  0
    7.4961  -17.0874   24.3014 C   0  0  0  0  0  0  0  0  0  0  0  0
    6.8104  -17.3138   25.6332 C   0  0  0  0  0  0  0  0  0  0  0  0
    6.8961  -18.7604   26.0314 C   0  0  0  0  0  0  0  0  0  0  0  0
    7.2547  -19.0716   27.1962 O   0  0  0  0  0  0  0  0  0  0  0  0
    8.3076  -14.9071   25.1993 C   0  0  0  0  0  0  0  0  0  0  0  0
    9.4193  -15.4219   25.4484 O   0  0  0  0  0  0  0  0  0  0  0  0
    6.5726  -19.7081   25.0878 O   0  0  0  0  0  0  0  0  0  0  0  0
    7.8362  -13.8069   25.8956 N   0  0  0  0  0  0  0  0  0  0  0  0
    6.8999  -12.8341   25.2878 C   0  0  0  0  0  0  0  0  0  0  0  0
    5.9716  -12.5173   26.4315 C   0  0  0  0  0  0  0  0  0  0  0  0
    6.6307  -13.0400   27.6793 C   0  0  0  0  0  0  0  0  0  0  0  0
    8.0905  -13.2630   27.1719 C   0  0  1  0  0  0  0  0  0  0  0  0
    8.8401  -14.0044   28.1595 C   0  0  0  0  0  0  0  0  0  0  0  0
    8.7499  -15.2848   28.1251 O   0  0  0  0  0  0  0  0  0  0  0  0
    9.6454  -13.4968   29.1364 O   0  0  0  0  0  0  0  0  0  0  0  0
  1  2  1  0
  2  3  2  0
  4  5  1  0
  4  2  1  0
  5  6  1  6
  7  5  1  0
  8  7  2  0
  9  7  1  0
 10 11  1  1
 10  9  1  0
 11 12  1  0
 12 13  1  0
 13 17  1  0
 14 13  2  0
 15 10  1  0
 16 15  2  0
 18 15  1  0
 18 22  1  0
 19 20  1  0
 19 18  1  0
 20 21  1  0
 21 22  1  0
 22 23  1  1
 23 25  1  0
 24 23  2  0
M  END
$$$$
