NEP.pdb
     RDKit          3D

 25 25  0  0  1  0  0  0  0  0999 V2000
    7.4620  -13.1522   18.6948 N   0  0  0  0  0  0  0  0  0  0  0  0
    8.7796  -13.2298   19.1843 C   0  0  0  0  0  0  0  0  0  0  0  0
    9.5578  -12.2494   19.0275 O   0  0  0  0  0  0  0  0  0  0  0  0
    9.3087  -14.4259   19.8873 C   0  0  0  0  0  0  0  0  0  0  0  0
    8.2264  -15.4483   20.1358 C   0  0  2  0  0  0  0  0  0  0  0  0
    7.3524  -15.5711   19.0006 N   0  0  0  0  0  0  0  0  0  0  0  0
    7.4805  -15.1983   21.3740 C   0  0  0  0  0  0  0  0  0  0  0  0
    6.2163  -15.2309   21.3300 O   0  0  0  0  0  0  0  0  0  0  0  0
    8.0809  -14.9236   22.6122 N   0  0  0  0  0  0  0  0  0  0  0  0
    7.3997  -15.2459   23.8682 C   0  0  1  0  0  0  0  0  0  0  0  0
    7.2738  -16.7581   23.8446 C   0  0  0  0  0  0  0  0  0  0  0  0
    6.5873  -17.1539   25.1359 C   0  0  0  0  0  0  0  0  0  0  0  0
    6.5223  -18.6501   25.2615 C   0  0  0  0  0  0  0  0  0  0  0  0
    6.2722  -19.3555   24.2505 O   0  0  0  0  0  0  0  0  0  0  0  0
    8.2070  -14.7854   25.0514 C   0  0  0  0  0  0  0  0  0  0  0  0
    9.1645  -15.5349   25.3418 O   0  0  0  0  0  0  0  0  0  0  0  0
    6.7434  -19.2022   26.5022 O   0  0  0  0  0  0  0  0  0  0  0  0
    7.9320  -13.6347   25.7708 N   0  0  0  0  0  0  0  0  0  0  0  0
    7.1956  -12.4946   25.1787 C   0  0  0  0  0  0  0  0  0  0  0  0
    6.3233  -12.0418   26.3206 C   0  0  0  0  0  0  0  0  0  0  0  0
    6.8589  -12.7042   27.5613 C   0  0  0  0  0  0  0  0  0  0  0  0
    8.2617  -13.1756   27.0631 C   0  0  1  0  0  0  0  0  0  0  0  0
    8.8507  -14.0632   28.0389 C   0  0  0  0  0  0  0  0  0  0  0  0
    8.5173  -15.3019   27.9821 O   0  0  0  0  0  0  0  0  0  0  0  0
    9.7334  -13.7355   29.0259 O   0  0  0  0  0  0  0  0  0  0  0  0
  1  2  1  0
  2  3  2  0
  4  5  1  0
  4  2  1  0
  5  6  1  6
  7  5  1  0
  8  7  2  0
  9  7  1  0
 10 11  1  1
 10  9  1  0
 11 12  1  0
 12 13  1  0
 13 17  1  0
 14 13  2  0
 15 10  1  0
 16 15  2  0
 18 15  1  0
 18 22  1  0
 19 20  1  0
 19 18  1  0
 20 21  1  0
 21 22  1  0
 22 23  1  1
 23 25  1  0
 24 23  2  0
M  END
$$$$
