NEP.pdb
     RDKit          3D

 25 25  0  0  1  0  0  0  0  0999 V2000
    7.9990  -12.8321   17.3980 N   0  0  0  0  0  0  0  0  0  0  0  0
    8.5263  -13.4088   18.5689 C   0  0  0  0  0  0  0  0  0  0  0  0
    9.7238  -13.8056   18.5794 O   0  0  0  0  0  0  0  0  0  0  0  0
    7.7323  -13.5766   19.8123 C   0  0  0  0  0  0  0  0  0  0  0  0
    7.7858  -14.9978   20.3182 C   0  0  2  0  0  0  0  0  0  0  0  0
    7.2091  -15.9123   19.3702 N   0  0  0  0  0  0  0  0  0  0  0  0
    7.1946  -15.1500   21.6521 C   0  0  0  0  0  0  0  0  0  0  0  0
    5.9839  -15.5087   21.7346 O   0  0  0  0  0  0  0  0  0  0  0  0
    7.8882  -14.9224   22.8505 N   0  0  0  0  0  0  0  0  0  0  0  0
    7.2905  -15.2631   24.1437 C   0  0  1  0  0  0  0  0  0  0  0  0
    7.1404  -16.7726   24.0969 C   0  0  0  0  0  0  0  0  0  0  0  0
    6.5262  -17.1860   25.4186 C   0  0  0  0  0  0  0  0  0  0  0  0
    7.0152  -18.5480   25.8244 C   0  0  0  0  0  0  0  0  0  0  0  0
    6.6154  -19.0650   26.8991 O   0  0  0  0  0  0  0  0  0  0  0  0
    8.1843  -14.8399   25.2775 C   0  0  0  0  0  0  0  0  0  0  0  0
    9.1025  -15.6482   25.5357 O   0  0  0  0  0  0  0  0  0  0  0  0
    7.8991  -19.1901   24.9880 O   0  0  0  0  0  0  0  0  0  0  0  0
    8.0231  -13.6619   25.9871 N   0  0  0  0  0  0  0  0  0  0  0  0
    7.3292  -12.4868   25.4125 C   0  0  0  0  0  0  0  0  0  0  0  0
    6.5518  -11.9594   26.5904 C   0  0  0  0  0  0  0  0  0  0  0  0
    7.1119  -12.6339   27.8136 C   0  0  0  0  0  0  0  0  0  0  0  0
    8.4523  -13.2033   27.2501 C   0  0  1  0  0  0  0  0  0  0  0  0
    9.0366  -14.1105   28.2105 C   0  0  0  0  0  0  0  0  0  0  0  0
    8.6507  -15.3345   28.1717 O   0  0  0  0  0  0  0  0  0  0  0  0
    9.9648  -13.8156   29.1656 O   0  0  0  0  0  0  0  0  0  0  0  0
  1  2  1  0
  2  3  2  0
  4  5  1  0
  4  2  1  0
  5  6  1  6
  7  5  1  0
  8  7  2  0
  9  7  1  0
 10 11  1  6
 10  9  1  0
 11 12  1  0
 12 13  1  0
 13 17  1  0
 14 13  2  0
 15 10  1  0
 16 15  2  0
 18 15  1  0
 18 22  1  0
 19 20  1  0
 19 18  1  0
 20 21  1  0
 21 22  1  0
 22 23  1  1
 23 25  1  0
 24 23  2  0
M  END
$$$$
