NEP.pdb
     RDKit          3D

 25 25  0  0  1  0  0  0  0  0999 V2000
    9.0157  -11.9248   18.8050 N   0  0  0  0  0  0  0  0  0  0  0  0
    8.4787  -13.2252   18.8537 C   0  0  0  0  0  0  0  0  0  0  0  0
    8.8828  -14.0938   18.0328 O   0  0  0  0  0  0  0  0  0  0  0  0
    7.4443  -13.6334   19.8377 C   0  0  0  0  0  0  0  0  0  0  0  0
    7.7115  -15.0149   20.3838 C   0  0  2  0  0  0  0  0  0  0  0  0
    7.2138  -16.0326   19.4982 N   0  0  0  0  0  0  0  0  0  0  0  0
    7.2142  -15.1922   21.7525 C   0  0  0  0  0  0  0  0  0  0  0  0
    5.9664  -15.1234   21.9513 O   0  0  0  0  0  0  0  0  0  0  0  0
    8.0369  -15.4345   22.8632 N   0  0  0  0  0  0  0  0  0  0  0  0
    7.4641  -15.6303   24.1970 C   0  0  1  0  0  0  0  0  0  0  0  0
    7.4998  -17.1340   24.3991 C   0  0  0  0  0  0  0  0  0  0  0  0
    6.9847  -17.3932   25.8000 C   0  0  0  0  0  0  0  0  0  0  0  0
    7.1888  -18.8332   26.1789 C   0  0  0  0  0  0  0  0  0  0  0  0
    6.6103  -19.3048   27.1914 O   0  0  0  0  0  0  0  0  0  0  0  0
    8.2810  -14.9212   25.2426 C   0  0  0  0  0  0  0  0  0  0  0  0
    9.3670  -15.4796   25.5106 O   0  0  0  0  0  0  0  0  0  0  0  0
    8.0172  -19.5958   25.3881 O   0  0  0  0  0  0  0  0  0  0  0  0
    7.8847  -13.7504   25.8667 N   0  0  0  0  0  0  0  0  0  0  0  0
    6.9779  -12.7793   25.2132 C   0  0  0  0  0  0  0  0  0  0  0  0
    6.1015  -12.3328   26.3545 C   0  0  0  0  0  0  0  0  0  0  0  0
    6.7728  -12.7946   27.6198 C   0  0  0  0  0  0  0  0  0  0  0  0
    8.2039  -13.1273   27.0912 C   0  0  1  0  0  0  0  0  0  0  0  0
    8.9470  -13.8306   28.1110 C   0  0  0  0  0  0  0  0  0  0  0  0
    9.7051  -13.1290   28.8737 O   0  0  0  0  0  0  0  0  0  0  0  0
    8.9359  -15.1710   28.3637 O   0  0  0  0  0  0  0  0  0  0  0  0
  1  2  1  0
  2  3  2  0
  4  5  1  0
  4  2  1  0
  5  6  1  6
  7  5  1  0
  8  7  2  0
  9  7  1  0
 10 11  1  1
 10  9  1  0
 11 12  1  0
 12 13  1  0
 13 17  1  0
 14 13  2  0
 15 10  1  0
 16 15  2  0
 18 15  1  0
 18 22  1  0
 19 20  1  0
 19 18  1  0
 20 21  1  0
 21 22  1  0
 22 23  1  1
 23 25  1  0
 24 23  2  0
M  END
$$$$
