ICC.pdb
     RDKit          3D

 21 20  0  0  1  0  0  0  0  0999 V2000
   19.6912  -12.9757  -22.5436 C   0  0  0  0  0  0  0  0  0  0  0  0
   20.6747  -13.7570  -21.6608 C   0  0  0  0  0  0  0  0  0  0  0  0
   20.8385  -12.9740  -20.3988 C   0  0  2  0  0  0  0  0  0  0  0  0
   21.2541  -11.5363  -20.6649 C   0  0  0  0  0  0  0  0  0  0  0  0
   21.7057  -13.6340  -19.3696 C   0  0  2  0  0  0  0  0  0  0  0  0
   21.1608  -14.9735  -19.1482 N   0  0  0  0  0  0  0  0  0  0  0  0
   21.8271  -12.8898  -18.1136 C   0  0  0  0  0  0  0  0  0  0  0  0
   20.7821  -12.6768  -17.4471 O   0  0  0  0  0  0  0  0  0  0  0  0
   23.0416  -12.3841  -17.5821 N   0  0  0  0  0  0  0  0  0  0  0  0
   23.1523  -11.6053  -16.3853 C   0  0  1  0  0  0  0  0  0  0  0  0
   24.5045  -11.6745  -15.7372 C   0  0  0  0  0  0  0  0  0  0  0  0
   24.7448  -13.3356  -15.0827 S   0  0  0  0  0  0  0  0  0  0  0  0
   22.7249  -10.1992  -16.6585 C   0  0  0  0  0  0  0  0  0  0  0  0
   23.1233   -9.5959  -17.7114 O   0  0  0  0  0  0  0  0  0  0  0  0
   21.8797   -9.4707  -15.7966 N   0  0  0  0  0  0  0  0  0  0  0  0
   21.4690   -8.0909  -16.0733 C   0  0  1  0  0  0  0  0  0  0  0  0
   20.0367   -8.1607  -16.6216 C   0  0  0  0  0  0  0  0  0  0  0  0
   19.8499   -7.0891  -18.0627 S   0  0  0  0  0  0  0  0  0  0  0  0
   21.5283   -7.2532  -14.8687 C   0  0  0  0  0  0  0  0  0  0  0  0
   21.7003   -5.8842  -14.9303 O   0  0  0  0  0  0  0  0  0  0  0  0
   21.4204   -7.7876  -13.7415 O   0  0  0  0  0  0  0  0  0  0  0  0
  1  2  1  0
  3  4  1  6
  3  2  1  0
  3  5  1  0
  5  6  1  1
  7  8  2  0
  7  5  1  0
  9  7  1  0
 10  9  1  0
 10 13  1  0
 10 11  1  6
 12 11  1  0
 13 14  2  0
 15 13  1  0
 15 16  1  0
 16 17  1  1
 17 18  1  0
 19 20  1  0
 19 16  1  0
 21 19  2  0
M  END
$$$$
