ICC.pdb
     RDKit          3D

 21 20  0  0  1  0  0  0  0  0999 V2000
   16.9425  -11.6723  -18.4644 C   0  0  0  0  0  0  0  0  0  0  0  0
   18.3018  -11.7471  -17.7547 C   0  0  0  0  0  0  0  0  0  0  0  0
   18.4621  -10.4718  -16.9928 C   0  0  2  0  0  0  0  0  0  0  0  0
   18.3065   -9.2485  -17.8815 C   0  0  0  0  0  0  0  0  0  0  0  0
   19.6997  -10.4067  -16.1494 C   0  0  2  0  0  0  0  0  0  0  0  0
   19.6902  -11.5876  -15.2861 N   0  0  0  0  0  0  0  0  0  0  0  0
   19.8367   -9.1736  -15.3705 C   0  0  0  0  0  0  0  0  0  0  0  0
   18.9962   -8.9494  -14.4622 O   0  0  0  0  0  0  0  0  0  0  0  0
   20.8521   -8.2006  -15.5598 N   0  0  0  0  0  0  0  0  0  0  0  0
   20.9729   -6.9847  -14.8127 C   0  0  1  0  0  0  0  0  0  0  0  0
   22.3916   -6.5731  -14.5459 C   0  0  0  0  0  0  0  0  0  0  0  0
   22.3778   -5.0530  -13.5792 S   0  0  0  0  0  0  0  0  0  0  0  0
   20.1840   -5.9041  -15.4791 C   0  0  0  0  0  0  0  0  0  0  0  0
   20.2814   -5.7160  -16.7386 O   0  0  0  0  0  0  0  0  0  0  0  0
   19.3077   -5.0486  -14.7802 N   0  0  0  0  0  0  0  0  0  0  0  0
   18.5888   -3.9501  -15.4325 C   0  0  1  0  0  0  0  0  0  0  0  0
   17.1914   -4.4839  -15.7779 C   0  0  0  0  0  0  0  0  0  0  0  0
   16.1065   -3.1417  -16.3084 S   0  0  0  0  0  0  0  0  0  0  0  0
   18.4984   -2.7681  -14.5659 C   0  0  0  0  0  0  0  0  0  0  0  0
   18.3082   -1.4966  -15.0705 O   0  0  0  0  0  0  0  0  0  0  0  0
   18.5957   -2.9057  -13.3252 O   0  0  0  0  0  0  0  0  0  0  0  0
  1  2  1  0
  3  4  1  6
  3  2  1  0
  3  5  1  0
  5  6  1  1
  7  8  2  0
  7  5  1  0
  9  7  1  0
 10  9  1  0
 10 13  1  0
 10 11  1  6
 12 11  1  0
 13 14  2  0
 15 13  1  0
 15 16  1  0
 16 17  1  1
 17 18  1  0
 19 20  1  0
 19 16  1  0
 21 19  2  0
M  END
$$$$
