ICC.pdb
     RDKit          3D

 21 20  0  0  1  0  0  0  0  0999 V2000
   23.1868  -14.0596  -20.9431 C   0  0  0  0  0  0  0  0  0  0  0  0
   23.1385  -14.4857  -19.4689 C   0  0  0  0  0  0  0  0  0  0  0  0
   22.6256  -13.3137  -18.6970 C   0  0  2  0  0  0  0  0  0  0  0  0
   23.3911  -12.0389  -19.0122 C   0  0  0  0  0  0  0  0  0  0  0  0
   22.5014  -13.5510  -17.2221 C   0  0  2  0  0  0  0  0  0  0  0  0
   21.6788  -14.7485  -17.0505 N   0  0  0  0  0  0  0  0  0  0  0  0
   21.9604  -12.4161  -16.4702 C   0  0  0  0  0  0  0  0  0  0  0  0
   20.7698  -12.0742  -16.6875 O   0  0  0  0  0  0  0  0  0  0  0  0
   22.6788  -11.6628  -15.5059 N   0  0  0  0  0  0  0  0  0  0  0  0
   22.1531  -10.5464  -14.7790 C   0  0  1  0  0  0  0  0  0  0  0  0
   22.5849  -10.4982  -13.3421 C   0  0  0  0  0  0  0  0  0  0  0  0
   21.7498   -9.1204  -12.5360 S   0  0  0  0  0  0  0  0  0  0  0  0
   22.4645   -9.2793  -15.5082 C   0  0  0  0  0  0  0  0  0  0  0  0
   23.6750   -8.9603  -15.7612 O   0  0  0  0  0  0  0  0  0  0  0  0
   21.4709   -8.3818  -15.9503 N   0  0  0  0  0  0  0  0  0  0  0  0
   21.7902   -7.1084  -16.6025 C   0  0  1  0  0  0  0  0  0  0  0  0
   20.6843   -6.8554  -17.6368 C   0  0  0  0  0  0  0  0  0  0  0  0
   20.6011   -8.2087  -18.8291 S   0  0  0  0  0  0  0  0  0  0  0  0
   21.8654   -6.0055  -15.6359 C   0  0  0  0  0  0  0  0  0  0  0  0
   21.5289   -6.1661  -14.3061 O   0  0  0  0  0  0  0  0  0  0  0  0
   22.2464   -4.8760  -16.0194 O   0  0  0  0  0  0  0  0  0  0  0  0
  1  2  1  0
  3  4  1  1
  3  2  1  0
  3  5  1  0
  5  6  1  6
  7  8  2  0
  7  5  1  0
  9  7  1  0
 10  9  1  0
 10 13  1  0
 10 11  1  1
 12 11  1  0
 13 14  2  0
 15 13  1  0
 15 16  1  0
 16 17  1  6
 17 18  1  0
 19 20  1  0
 19 16  1  0
 21 19  2  0
M  END
$$$$
