ICC.pdb
     RDKit          3D

 21 20  0  0  1  0  0  0  0  0999 V2000
   15.0197  -10.5531  -17.5046 C   0  0  0  0  0  0  0  0  0  0  0  0
   16.5061  -10.8872  -17.3142 C   0  0  0  0  0  0  0  0  0  0  0  0
   17.0678   -9.8504  -16.3967 C   0  0  2  0  0  0  0  0  0  0  0  0
   16.7979   -8.4387  -16.8916 C   0  0  0  0  0  0  0  0  0  0  0  0
   18.5075  -10.0592  -16.0350 C   0  0  2  0  0  0  0  0  0  0  0  0
   18.6108  -11.3961  -15.4502 N   0  0  0  0  0  0  0  0  0  0  0  0
   19.0610   -9.0385  -15.1418 C   0  0  0  0  0  0  0  0  0  0  0  0
   18.5664   -8.9263  -13.9909 O   0  0  0  0  0  0  0  0  0  0  0  0
   20.1218   -8.1563  -15.4733 N   0  0  0  0  0  0  0  0  0  0  0  0
   20.6201   -7.1164  -14.6239 C   0  0  1  0  0  0  0  0  0  0  0  0
   22.0341   -7.3293  -14.1671 C   0  0  0  0  0  0  0  0  0  0  0  0
   22.5204   -5.9371  -13.1324 S   0  0  0  0  0  0  0  0  0  0  0  0
   20.4315   -5.7906  -15.2878 C   0  0  0  0  0  0  0  0  0  0  0  0
   20.7729   -5.6243  -16.5073 O   0  0  0  0  0  0  0  0  0  0  0  0
   19.8808   -4.6718  -14.6296 N   0  0  0  0  0  0  0  0  0  0  0  0
   19.7365   -3.3653  -15.2785 C   0  0  1  0  0  0  0  0  0  0  0  0
   18.3019   -2.8938  -15.0019 C   0  0  0  0  0  0  0  0  0  0  0  0
   18.0485   -1.2169  -15.6215 S   0  0  0  0  0  0  0  0  0  0  0  0
   20.7140   -2.3942  -14.7707 C   0  0  0  0  0  0  0  0  0  0  0  0
   21.2593   -1.4095  -15.5711 O   0  0  0  0  0  0  0  0  0  0  0  0
   21.0728   -2.4513  -13.5725 O   0  0  0  0  0  0  0  0  0  0  0  0
  1  2  1  0
  3  4  1  6
  3  2  1  0
  3  5  1  0
  5  6  1  1
  7  8  2  0
  7  5  1  0
  9  7  1  0
 10  9  1  0
 10 13  1  0
 10 11  1  6
 12 11  1  0
 13 14  2  0
 15 13  1  0
 15 16  1  0
 16 17  1  1
 17 18  1  0
 19 20  1  0
 19 16  1  0
 21 19  2  0
M  END
$$$$
