ICC.pdb
     RDKit          3D

 21 20  0  0  1  0  0  0  0  0999 V2000
   19.4874  -11.7636  -17.1695 C   0  0  0  0  0  0  0  0  0  0  0  0
   20.6988  -10.8283  -17.0474 C   0  0  0  0  0  0  0  0  0  0  0  0
   20.3211   -9.7567  -16.0772 C   0  0  2  0  0  0  0  0  0  0  0  0
   19.0045   -9.0901  -16.4416 C   0  0  0  0  0  0  0  0  0  0  0  0
   21.4060   -8.7587  -15.8048 C   0  0  2  0  0  0  0  0  0  0  0  0
   22.5785   -9.5133  -15.3623 N   0  0  0  0  0  0  0  0  0  0  0  0
   21.0423   -7.7180  -14.8401 C   0  0  0  0  0  0  0  0  0  0  0  0
   20.8450   -8.0592  -13.6458 O   0  0  0  0  0  0  0  0  0  0  0  0
   20.8928   -6.3407  -15.1472 N   0  0  0  0  0  0  0  0  0  0  0  0
   20.4610   -5.3359  -14.2226 C   0  0  1  0  0  0  0  0  0  0  0  0
   21.5856   -4.5789  -13.5778 C   0  0  0  0  0  0  0  0  0  0  0  0
   23.1474   -5.2421  -14.1830 S   0  0  0  0  0  0  0  0  0  0  0  0
   19.4748   -4.4305  -14.8874 C   0  0  0  0  0  0  0  0  0  0  0  0
   19.6366   -4.0822  -16.1054 O   0  0  0  0  0  0  0  0  0  0  0  0
   18.3366   -3.9184  -14.2314 N   0  0  0  0  0  0  0  0  0  0  0  0
   17.3960   -3.0012  -14.8817 C   0  0  1  0  0  0  0  0  0  0  0  0
   15.9892   -3.4294  -14.4405 C   0  0  0  0  0  0  0  0  0  0  0  0
   14.7472   -2.2661  -15.0439 S   0  0  0  0  0  0  0  0  0  0  0  0
   17.6569   -1.6034  -14.5150 C   0  0  0  0  0  0  0  0  0  0  0  0
   17.5702   -0.5725  -15.4300 O   0  0  0  0  0  0  0  0  0  0  0  0
   17.9696   -1.3248  -13.3350 O   0  0  0  0  0  0  0  0  0  0  0  0
  1  2  1  0
  3  4  1  6
  3  2  1  0
  3  5  1  0
  5  6  1  1
  7  8  2  0
  7  5  1  0
  9  7  1  0
 10  9  1  0
 10 13  1  0
 10 11  1  6
 12 11  1  0
 13 14  2  0
 15 13  1  0
 15 16  1  0
 16 17  1  1
 17 18  1  0
 19 20  1  0
 19 16  1  0
 21 19  2  0
M  END
$$$$
