ICC.pdb
     RDKit          3D

 21 20  0  0  1  0  0  0  0  0999 V2000
   18.2280  -15.5445  -17.8830 C   0  0  0  0  0  0  0  0  0  0  0  0
   19.6872  -15.2379  -18.2491 C   0  0  0  0  0  0  0  0  0  0  0  0
   20.0822  -14.0253  -17.4707 C   0  0  2  0  0  0  0  0  0  0  0  0
   19.0864  -12.8885  -17.6339 C   0  0  0  0  0  0  0  0  0  0  0  0
   21.4952  -13.5786  -17.6967 C   0  0  2  0  0  0  0  0  0  0  0  0
   22.3565  -14.7248  -17.4062 N   0  0  0  0  0  0  0  0  0  0  0  0
   21.8889  -12.4010  -16.9194 C   0  0  0  0  0  0  0  0  0  0  0  0
   22.1960  -12.5636  -15.7107 O   0  0  0  0  0  0  0  0  0  0  0  0
   21.9527  -11.0768  -17.4253 N   0  0  0  0  0  0  0  0  0  0  0  0
   22.3409   -9.9261  -16.6660 C   0  0  1  0  0  0  0  0  0  0  0  0
   23.5530   -9.2227  -17.2041 C   0  0  0  0  0  0  0  0  0  0  0  0
   23.9678   -7.8628  -16.0978 S   0  0  0  0  0  0  0  0  0  0  0  0
   21.1724   -9.0067  -16.5126 C   0  0  0  0  0  0  0  0  0  0  0  0
   20.4981   -8.6428  -17.5344 O   0  0  0  0  0  0  0  0  0  0  0  0
   20.7523   -8.4976  -15.2666 N   0  0  0  0  0  0  0  0  0  0  0  0
   19.6626   -7.5257  -15.1371 C   0  0  1  0  0  0  0  0  0  0  0  0
   19.3122   -7.4552  -13.6441 C   0  0  0  0  0  0  0  0  0  0  0  0
   18.7644   -9.0655  -13.0383 S   0  0  0  0  0  0  0  0  0  0  0  0
   20.0483   -6.2039  -15.6474 C   0  0  0  0  0  0  0  0  0  0  0  0
   21.3118   -5.9439  -16.1410 O   0  0  0  0  0  0  0  0  0  0  0  0
   19.2111   -5.2729  -15.6397 O   0  0  0  0  0  0  0  0  0  0  0  0
  1  2  1  0
  3  4  1  6
  3  2  1  0
  3  5  1  0
  5  6  1  1
  7  8  2  0
  7  5  1  0
  9  7  1  0
 10  9  1  0
 10 13  1  0
 10 11  1  6
 12 11  1  0
 13 14  2  0
 15 13  1  0
 15 16  1  0
 16 17  1  1
 17 18  1  0
 19 20  1  0
 19 16  1  0
 21 19  2  0
M  END
$$$$
