ICC.pdb
     RDKit          3D

 21 20  0  0  1  0  0  0  0  0999 V2000
   26.0620  -13.7061  -19.0208 C   0  0  0  0  0  0  0  0  0  0  0  0
   25.6634  -13.1800  -17.6347 C   0  0  0  0  0  0  0  0  0  0  0  0
   24.7161  -12.0465  -17.8587 C   0  0  2  0  0  0  0  0  0  0  0  0
   25.2364  -11.0586  -18.8901 C   0  0  0  0  0  0  0  0  0  0  0  0
   24.2565  -11.3673  -16.6039 C   0  0  2  0  0  0  0  0  0  0  0  0
   23.8114  -12.4181  -15.6886 N   0  0  0  0  0  0  0  0  0  0  0  0
   23.2150  -10.3579  -16.8091 C   0  0  0  0  0  0  0  0  0  0  0  0
   23.5411   -9.2709  -17.3512 O   0  0  0  0  0  0  0  0  0  0  0  0
   21.8527  -10.5085  -16.4418 N   0  0  0  0  0  0  0  0  0  0  0  0
   20.8245   -9.5428  -16.6892 C   0  0  1  0  0  0  0  0  0  0  0  0
   19.4473  -10.1320  -16.7871 C   0  0  0  0  0  0  0  0  0  0  0  0
   19.4328  -11.3431  -18.1206 S   0  0  0  0  0  0  0  0  0  0  0  0
   20.9039   -8.4511  -15.6713 C   0  0  0  0  0  0  0  0  0  0  0  0
   21.1286   -8.7266  -14.4446 O   0  0  0  0  0  0  0  0  0  0  0  0
   20.7406   -7.0876  -15.9911 N   0  0  0  0  0  0  0  0  0  0  0  0
   20.9366   -6.0169  -15.0092 C   0  0  1  0  0  0  0  0  0  0  0  0
   22.4133   -6.0684  -14.5923 C   0  0  0  0  0  0  0  0  0  0  0  0
   22.8184   -4.6897  -13.4991 S   0  0  0  0  0  0  0  0  0  0  0  0
   20.5945   -4.7007  -15.5632 C   0  0  0  0  0  0  0  0  0  0  0  0
   20.0204   -3.7049  -14.7975 O   0  0  0  0  0  0  0  0  0  0  0  0
   20.8268   -4.4617  -16.7702 O   0  0  0  0  0  0  0  0  0  0  0  0
  1  2  1  0
  3  4  1  6
  3  2  1  0
  3  5  1  0
  5  6  1  1
  7  8  2  0
  7  5  1  0
  9  7  1  0
 10  9  1  0
 10 13  1  0
 10 11  1  1
 12 11  1  0
 13 14  2  0
 15 13  1  0
 15 16  1  0
 16 17  1  6
 17 18  1  0
 19 20  1  0
 19 16  1  0
 21 19  2  0
M  END
$$$$
