ICC.pdb
     RDKit          3D

 21 20  0  0  1  0  0  0  0  0999 V2000
   22.9322  -12.9191  -20.2359 C   0  0  0  0  0  0  0  0  0  0  0  0
   23.0539  -12.9453  -18.7056 C   0  0  0  0  0  0  0  0  0  0  0  0
   22.2401  -11.8042  -18.1880 C   0  0  2  0  0  0  0  0  0  0  0  0
   22.5979  -10.4904  -18.8636 C   0  0  0  0  0  0  0  0  0  0  0  0
   22.2200  -11.6866  -16.6936 C   0  0  2  0  0  0  0  0  0  0  0  0
   21.8393  -12.9975  -16.1677 N   0  0  0  0  0  0  0  0  0  0  0  0
   21.3457  -10.6285  -16.1818 C   0  0  0  0  0  0  0  0  0  0  0  0
   20.1107  -10.7224  -16.4000 O   0  0  0  0  0  0  0  0  0  0  0  0
   21.7840   -9.4935  -15.4517 N   0  0  0  0  0  0  0  0  0  0  0  0
   20.9279   -8.4641  -14.9433 C   0  0  1  0  0  0  0  0  0  0  0  0
   20.2846   -8.8016  -13.6296 C   0  0  0  0  0  0  0  0  0  0  0  0
   21.5756   -9.2403  -12.4523 S   0  0  0  0  0  0  0  0  0  0  0  0
   21.6722   -7.1688  -14.8947 C   0  0  0  0  0  0  0  0  0  0  0  0
   22.9450   -7.1586  -14.7890 O   0  0  0  0  0  0  0  0  0  0  0  0
   21.0355   -5.9125  -14.9606 N   0  0  0  0  0  0  0  0  0  0  0  0
   21.7719   -4.6480  -14.8734 C   0  0  1  0  0  0  0  0  0  0  0  0
   21.6986   -4.0004  -16.2634 C   0  0  0  0  0  0  0  0  0  0  0  0
   22.3743   -2.3265  -16.2263 S   0  0  0  0  0  0  0  0  0  0  0  0
   21.2071   -3.7583  -13.8507 C   0  0  0  0  0  0  0  0  0  0  0  0
   21.9866   -2.8755  -13.1292 O   0  0  0  0  0  0  0  0  0  0  0  0
   19.9775   -3.7927  -13.6163 O   0  0  0  0  0  0  0  0  0  0  0  0
  1  2  1  0
  3  4  1  6
  3  2  1  0
  3  5  1  0
  5  6  1  1
  7  8  2  0
  7  5  1  0
  9  7  1  0
 10  9  1  0
 10 13  1  0
 10 11  1  1
 12 11  1  0
 13 14  2  0
 15 13  1  0
 15 16  1  0
 16 17  1  6
 17 18  1  0
 19 20  1  0
 19 16  1  0
 21 19  2  0
M  END
$$$$
