ICC.pdb
     RDKit          3D

 21 20  0  0  1  0  0  0  0  0999 V2000
   21.9064  -12.7656  -17.6866 C   0  0  0  0  0  0  0  0  0  0  0  0
   22.9227  -11.7364  -17.1718 C   0  0  0  0  0  0  0  0  0  0  0  0
   22.1623  -10.7596  -16.3351 C   0  0  2  0  0  0  0  0  0  0  0  0
   20.9567  -10.1926  -17.0671 C   0  0  0  0  0  0  0  0  0  0  0  0
   23.0065   -9.6865  -15.7162 C   0  0  2  0  0  0  0  0  0  0  0  0
   24.0645  -10.3583  -14.9616 N   0  0  0  0  0  0  0  0  0  0  0  0
   22.2651   -8.7425  -14.8765 C   0  0  0  0  0  0  0  0  0  0  0  0
   21.6237   -9.1985  -13.8955 O   0  0  0  0  0  0  0  0  0  0  0  0
   22.2113   -7.3396  -15.0824 N   0  0  0  0  0  0  0  0  0  0  0  0
   21.4285   -6.4257  -14.3058 C   0  0  1  0  0  0  0  0  0  0  0  0
   22.2423   -5.4040  -13.5659 C   0  0  0  0  0  0  0  0  0  0  0  0
   23.3806   -4.6256  -14.7251 S   0  0  0  0  0  0  0  0  0  0  0  0
   20.3811   -5.8001  -15.1694 C   0  0  0  0  0  0  0  0  0  0  0  0
   20.5875   -5.6361  -16.4191 O   0  0  0  0  0  0  0  0  0  0  0  0
   19.1350   -5.3640  -14.6741 N   0  0  0  0  0  0  0  0  0  0  0  0
   18.2086   -4.5532  -15.4698 C   0  0  1  0  0  0  0  0  0  0  0  0
   16.8861   -5.3305  -15.5308 C   0  0  0  0  0  0  0  0  0  0  0  0
   15.5752   -4.3093  -16.2372 S   0  0  0  0  0  0  0  0  0  0  0  0
   18.0072   -3.2225  -14.8825 C   0  0  0  0  0  0  0  0  0  0  0  0
   17.7063   -2.1151  -15.6510 O   0  0  0  0  0  0  0  0  0  0  0  0
   18.1094   -3.0748  -13.6433 O   0  0  0  0  0  0  0  0  0  0  0  0
  1  2  1  0
  3  4  1  6
  3  2  1  0
  3  5  1  0
  5  6  1  1
  7  8  2  0
  7  5  1  0
  9  7  1  0
 10  9  1  0
 10 13  1  0
 10 11  1  6
 12 11  1  0
 13 14  2  0
 15 13  1  0
 15 16  1  0
 16 17  1  1
 17 18  1  0
 19 20  1  0
 19 16  1  0
 21 19  2  0
M  END
$$$$
