ICC.pdb
     RDKit          3D

 21 20  0  0  1  0  0  0  0  0999 V2000
   23.8344  -14.0575  -22.1552 C   0  0  0  0  0  0  0  0  0  0  0  0
   24.9753  -14.0027  -21.1294 C   0  0  0  0  0  0  0  0  0  0  0  0
   24.4698  -13.2182  -19.9625 C   0  0  2  0  0  0  0  0  0  0  0  0
   23.8301  -11.9061  -20.3864 C   0  0  0  0  0  0  0  0  0  0  0  0
   25.4707  -13.0320  -18.8622 C   0  0  2  0  0  0  0  0  0  0  0  0
   25.9406  -14.3645  -18.4830 N   0  0  0  0  0  0  0  0  0  0  0  0
   24.9653  -12.2915  -17.7037 C   0  0  0  0  0  0  0  0  0  0  0  0
   24.2221  -12.8979  -16.8904 O   0  0  0  0  0  0  0  0  0  0  0  0
   25.2495  -10.9302  -17.4216 N   0  0  0  0  0  0  0  0  0  0  0  0
   24.8501  -10.2378  -16.2332 C   0  0  1  0  0  0  0  0  0  0  0  0
   25.9896   -9.6169  -15.4788 C   0  0  0  0  0  0  0  0  0  0  0  0
   27.0235  -10.9329  -14.8120 S   0  0  0  0  0  0  0  0  0  0  0  0
   23.7809   -9.2468  -16.5635 C   0  0  0  0  0  0  0  0  0  0  0  0
   23.9264   -8.4423  -17.5447 O   0  0  0  0  0  0  0  0  0  0  0  0
   22.5788   -9.1401  -15.8343 N   0  0  0  0  0  0  0  0  0  0  0  0
   21.5202   -8.1907  -16.1907 C   0  0  1  0  0  0  0  0  0  0  0  0
   20.1904   -8.8459  -15.7917 C   0  0  0  0  0  0  0  0  0  0  0  0
   19.9878  -10.4382  -16.6183 S   0  0  0  0  0  0  0  0  0  0  0  0
   21.6936   -6.9012  -15.5100 C   0  0  0  0  0  0  0  0  0  0  0  0
   20.8764   -5.8172  -15.7645 O   0  0  0  0  0  0  0  0  0  0  0  0
   22.6107   -6.7681  -14.6680 O   0  0  0  0  0  0  0  0  0  0  0  0
  1  2  1  0
  3  4  1  6
  3  2  1  0
  3  5  1  0
  5  6  1  1
  7  8  2  0
  7  5  1  0
  9  7  1  0
 10  9  1  0
 10 13  1  0
 10 11  1  6
 12 11  1  0
 13 14  2  0
 15 13  1  0
 15 16  1  0
 16 17  1  1
 17 18  1  0
 19 20  1  0
 19 16  1  0
 21 19  2  0
M  END
$$$$
