ICC.pdb
     RDKit          3D

 21 20  0  0  1  0  0  0  0  0999 V2000
   17.3300  -13.0697  -18.5669 C   0  0  0  0  0  0  0  0  0  0  0  0
   18.5551  -12.1641  -18.7570 C   0  0  0  0  0  0  0  0  0  0  0  0
   18.4933  -11.1234  -17.6867 C   0  0  2  0  0  0  0  0  0  0  0  0
   17.1560  -10.4010  -17.6646 C   0  0  0  0  0  0  0  0  0  0  0  0
   19.6520  -10.1724  -17.6812 C   0  0  2  0  0  0  0  0  0  0  0  0
   20.8669  -10.9797  -17.7917 N   0  0  0  0  0  0  0  0  0  0  0  0
   19.7012   -9.2856  -16.5162 C   0  0  0  0  0  0  0  0  0  0  0  0
   18.7104   -8.5437  -16.2933 O   0  0  0  0  0  0  0  0  0  0  0  0
   20.7881   -9.1947  -15.6086 N   0  0  0  0  0  0  0  0  0  0  0  0
   20.8084   -8.3789  -14.4317 C   0  0  1  0  0  0  0  0  0  0  0  0
   21.7334   -8.8792  -13.3605 C   0  0  0  0  0  0  0  0  0  0  0  0
   21.4988   -7.8760  -11.8827 S   0  0  0  0  0  0  0  0  0  0  0  0
   21.0901   -6.9599  -14.8078 C   0  0  0  0  0  0  0  0  0  0  0  0
   22.0485   -6.6808  -15.6046 O   0  0  0  0  0  0  0  0  0  0  0  0
   20.3380   -5.8711  -14.3212 N   0  0  0  0  0  0  0  0  0  0  0  0
   20.6845   -4.4773  -14.6150 C   0  0  1  0  0  0  0  0  0  0  0  0
   19.3767   -3.6761  -14.5470 C   0  0  0  0  0  0  0  0  0  0  0  0
   18.1334   -4.3851  -15.6476 S   0  0  0  0  0  0  0  0  0  0  0  0
   21.6719   -3.9498  -13.6647 C   0  0  0  0  0  0  0  0  0  0  0  0
   22.1237   -4.6851  -12.5864 O   0  0  0  0  0  0  0  0  0  0  0  0
   22.1268   -2.7947  -13.8277 O   0  0  0  0  0  0  0  0  0  0  0  0
  1  2  1  0
  3  4  1  6
  3  2  1  0
  3  5  1  0
  5  6  1  1
  7  8  2  0
  7  5  1  0
  9  7  1  0
 10  9  1  0
 10 13  1  0
 10 11  1  1
 12 11  1  0
 13 14  2  0
 15 13  1  0
 15 16  1  0
 16 17  1  1
 17 18  1  0
 19 20  1  0
 19 16  1  0
 21 19  2  0
M  END
$$$$
