ICC.pdb
     RDKit          3D

 21 20  0  0  1  0  0  0  0  0999 V2000
   26.2831  -19.4457   -7.4625 C   0  0  0  0  0  0  0  0  0  0  0  0
   26.1411  -20.7652   -8.2345 C   0  0  0  0  0  0  0  0  0  0  0  0
   25.6163  -20.4184   -9.5898 C   0  0  2  0  0  0  0  0  0  0  0  0
   24.3287  -19.6138   -9.5185 C   0  0  0  0  0  0  0  0  0  0  0  0
   25.5063  -21.5832  -10.5270 C   0  0  2  0  0  0  0  0  0  0  0  0
   26.8247  -22.2150  -10.5787 N   0  0  0  0  0  0  0  0  0  0  0  0
   25.0236  -21.2384  -11.8664 C   0  0  0  0  0  0  0  0  0  0  0  0
   25.8541  -20.7950  -12.7002 O   0  0  0  0  0  0  0  0  0  0  0  0
   23.6799  -21.3655  -12.3043 N   0  0  0  0  0  0  0  0  0  0  0  0
   23.2260  -21.1233  -13.6409 C   0  0  1  0  0  0  0  0  0  0  0  0
   21.7593  -21.3734  -13.8400 C   0  0  0  0  0  0  0  0  0  0  0  0
   20.8783  -20.8374  -12.3629 S   0  0  0  0  0  0  0  0  0  0  0  0
   23.6309  -19.7496  -14.0688 C   0  0  0  0  0  0  0  0  0  0  0  0
   23.4592  -18.7530  -13.2886 O   0  0  0  0  0  0  0  0  0  0  0  0
   24.2113  -19.4744  -15.3240 N   0  0  0  0  0  0  0  0  0  0  0  0
   24.6278  -18.1268  -15.7233 C   0  0  1  0  0  0  0  0  0  0  0  0
   26.1489  -18.1790  -15.9244 C   0  0  0  0  0  0  0  0  0  0  0  0
   27.0035  -17.3628  -14.5594 S   0  0  0  0  0  0  0  0  0  0  0  0
   23.9520  -17.6896  -16.9515 C   0  0  0  0  0  0  0  0  0  0  0  0
   24.0994  -16.4140  -17.4602 O   0  0  0  0  0  0  0  0  0  0  0  0
   23.2141  -18.4924  -17.5671 O   0  0  0  0  0  0  0  0  0  0  0  0
  1  2  1  0
  3  4  1  1
  3  2  1  0
  3  5  1  0
  5  6  1  6
  7  8  2  0
  7  5  1  0
  9  7  1  0
 10  9  1  0
 10 13  1  0
 10 11  1  1
 12 11  1  0
 13 14  2  0
 15 13  1  0
 15 16  1  0
 16 17  1  6
 17 18  1  0
 19 20  1  0
 19 16  1  0
 21 19  2  0
M  END
$$$$
