ICC.pdb
     RDKit          3D

 21 20  0  0  1  0  0  0  0  0999 V2000
   18.3690  -14.9996  -18.9874 C   0  0  0  0  0  0  0  0  0  0  0  0
   19.7621  -14.3943  -18.7643 C   0  0  0  0  0  0  0  0  0  0  0  0
   19.5858  -13.2333  -17.8405 C   0  0  2  0  0  0  0  0  0  0  0  0
   18.5488  -12.2459  -18.3505 C   0  0  0  0  0  0  0  0  0  0  0  0
   20.8645  -12.5589  -17.4437 C   0  0  2  0  0  0  0  0  0  0  0  0
   21.7491  -13.5980  -16.9167 N   0  0  0  0  0  0  0  0  0  0  0  0
   20.6981  -11.4607  -16.4886 C   0  0  0  0  0  0  0  0  0  0  0  0
   20.2513  -11.7321  -15.3448 O   0  0  0  0  0  0  0  0  0  0  0  0
   21.0035  -10.1003  -16.7523 N   0  0  0  0  0  0  0  0  0  0  0  0
   20.8381   -9.0265  -15.8192 C   0  0  1  0  0  0  0  0  0  0  0  0
   22.1292   -8.4040  -15.3730 C   0  0  0  0  0  0  0  0  0  0  0  0
   21.7563   -7.0586  -14.2345 S   0  0  0  0  0  0  0  0  0  0  0  0
   19.8844   -8.0188  -16.3753 C   0  0  0  0  0  0  0  0  0  0  0  0
   20.0776   -7.5170  -17.5338 O   0  0  0  0  0  0  0  0  0  0  0  0
   18.7442   -7.5713  -15.6770 N   0  0  0  0  0  0  0  0  0  0  0  0
   17.8936   -6.4830  -16.1681 C   0  0  1  0  0  0  0  0  0  0  0  0
   16.5582   -6.5974  -15.4195 C   0  0  0  0  0  0  0  0  0  0  0  0
   15.5365   -5.1365  -15.7057 S   0  0  0  0  0  0  0  0  0  0  0  0
   18.5083   -5.1683  -15.9445 C   0  0  0  0  0  0  0  0  0  0  0  0
   19.1028   -4.8264  -14.7456 O   0  0  0  0  0  0  0  0  0  0  0  0
   18.4991   -4.3199  -16.8654 O   0  0  0  0  0  0  0  0  0  0  0  0
  1  2  1  0
  3  4  1  6
  3  2  1  0
  3  5  1  0
  5  6  1  1
  7  8  2  0
  7  5  1  0
  9  7  1  0
 10  9  1  0
 10 13  1  0
 10 11  1  6
 12 11  1  0
 13 14  2  0
 15 13  1  0
 15 16  1  0
 16 17  1  1
 17 18  1  0
 19 20  1  0
 19 16  1  0
 21 19  2  0
M  END
$$$$
