ICC.pdb
     RDKit          3D

 21 20  0  0  1  0  0  0  0  0999 V2000
   19.9436  -14.7789  -16.5847 C   0  0  0  0  0  0  0  0  0  0  0  0
   20.2739  -13.5249  -17.4067 C   0  0  0  0  0  0  0  0  0  0  0  0
   19.7928  -12.3515  -16.6167 C   0  0  2  0  0  0  0  0  0  0  0  0
   18.3486  -12.5125  -16.1708 C   0  0  0  0  0  0  0  0  0  0  0  0
   20.0410  -11.0241  -17.2676 C   0  0  2  0  0  0  0  0  0  0  0  0
   21.3524  -11.1032  -17.9111 N   0  0  0  0  0  0  0  0  0  0  0  0
   19.9581   -9.8793  -16.3574 C   0  0  0  0  0  0  0  0  0  0  0  0
   18.8437   -9.6135  -15.8386 O   0  0  0  0  0  0  0  0  0  0  0  0
   21.0453   -9.0363  -16.0098 N   0  0  0  0  0  0  0  0  0  0  0  0
   20.9553   -7.8924  -15.1527 C   0  0  1  0  0  0  0  0  0  0  0  0
   22.2788   -7.4264  -14.6192 C   0  0  0  0  0  0  0  0  0  0  0  0
   22.0082   -5.9581  -13.6110 S   0  0  0  0  0  0  0  0  0  0  0  0
   20.2069   -6.8007  -15.8472 C   0  0  0  0  0  0  0  0  0  0  0  0
   20.5132   -6.4657  -17.0410 O   0  0  0  0  0  0  0  0  0  0  0  0
   19.1463   -6.0921  -15.2464 N   0  0  0  0  0  0  0  0  0  0  0  0
   18.4693   -4.9727  -15.9078 C   0  0  1  0  0  0  0  0  0  0  0  0
   17.0019   -5.3886  -16.0830 C   0  0  0  0  0  0  0  0  0  0  0  0
   16.0165   -4.0114  -16.7092 S   0  0  0  0  0  0  0  0  0  0  0  0
   18.5728   -3.7346  -15.1251 C   0  0  0  0  0  0  0  0  0  0  0  0
   18.6886   -2.4935  -15.7199 O   0  0  0  0  0  0  0  0  0  0  0  0
   18.5566   -3.7940  -13.8744 O   0  0  0  0  0  0  0  0  0  0  0  0
  1  2  1  0
  3  4  1  6
  3  2  1  0
  3  5  1  0
  5  6  1  1
  7  8  2  0
  7  5  1  0
  9  7  1  0
 10  9  1  0
 10 13  1  0
 10 11  1  6
 12 11  1  0
 13 14  2  0
 15 13  1  0
 15 16  1  0
 16 17  1  1
 17 18  1  0
 19 20  1  0
 19 16  1  0
 21 19  2  0
M  END
$$$$
