ICC.pdb
     RDKit          3D

 21 20  0  0  1  0  0  0  0  0999 V2000
   18.3599  -11.4317  -18.9857 C   0  0  0  0  0  0  0  0  0  0  0  0
   19.7838  -11.1753  -18.4721 C   0  0  0  0  0  0  0  0  0  0  0  0
   19.6914  -10.0616  -17.4804 C   0  0  2  0  0  0  0  0  0  0  0  0
   18.9673   -8.8496  -18.0437 C   0  0  0  0  0  0  0  0  0  0  0  0
   20.9955   -9.6955  -16.8382 C   0  0  2  0  0  0  0  0  0  0  0  0
   21.5522  -10.9243  -16.2724 N   0  0  0  0  0  0  0  0  0  0  0  0
   20.8973   -8.6371  -15.8302 C   0  0  0  0  0  0  0  0  0  0  0  0
   20.2015   -8.8565  -14.8058 O   0  0  0  0  0  0  0  0  0  0  0  0
   21.5306   -7.3703  -15.9167 N   0  0  0  0  0  0  0  0  0  0  0  0
   21.3621   -6.3027  -14.9770 C   0  0  1  0  0  0  0  0  0  0  0  0
   22.6518   -5.6849  -14.5205 C   0  0  0  0  0  0  0  0  0  0  0  0
   22.2776   -4.3826  -13.3333 S   0  0  0  0  0  0  0  0  0  0  0  0
   20.4122   -5.2901  -15.5306 C   0  0  0  0  0  0  0  0  0  0  0  0
   20.5510   -4.8591  -16.7248 O   0  0  0  0  0  0  0  0  0  0  0  0
   19.3339   -4.7618  -14.7915 N   0  0  0  0  0  0  0  0  0  0  0  0
   18.4704   -3.6951  -15.3066 C   0  0  1  0  0  0  0  0  0  0  0  0
   17.0253   -4.1938  -15.1664 C   0  0  0  0  0  0  0  0  0  0  0  0
   15.8544   -2.9094  -15.6556 S   0  0  0  0  0  0  0  0  0  0  0  0
   18.6636   -2.4369  -14.5744 C   0  0  0  0  0  0  0  0  0  0  0  0
   18.1752   -1.2312  -15.0385 O   0  0  0  0  0  0  0  0  0  0  0  0
   19.2911   -2.4455  -13.4909 O   0  0  0  0  0  0  0  0  0  0  0  0
  1  2  1  0
  3  4  1  6
  3  2  1  0
  3  5  1  0
  5  6  1  1
  7  8  2  0
  7  5  1  0
  9  7  1  0
 10  9  1  0
 10 13  1  0
 10 11  1  6
 12 11  1  0
 13 14  2  0
 15 13  1  0
 15 16  1  0
 16 17  1  1
 17 18  1  0
 19 20  1  0
 19 16  1  0
 21 19  2  0
M  END
$$$$
