ICC.pdb
     RDKit          3D

 21 20  0  0  1  0  0  0  0  0999 V2000
   19.7673  -13.0453  -21.9284 C   0  0  0  0  0  0  0  0  0  0  0  0
   20.6965  -13.1891  -20.7147 C   0  0  0  0  0  0  0  0  0  0  0  0
   20.3448  -12.0877  -19.7685 C   0  0  2  0  0  0  0  0  0  0  0  0
   20.3955  -10.7215  -20.4331 C   0  0  0  0  0  0  0  0  0  0  0  0
   21.1023  -12.1179  -18.4752 C   0  0  2  0  0  0  0  0  0  0  0  0
   20.9485  -13.4635  -17.9222 N   0  0  0  0  0  0  0  0  0  0  0  0
   20.6955  -11.0921  -17.5118 C   0  0  0  0  0  0  0  0  0  0  0  0
   19.5509  -11.1812  -16.9984 O   0  0  0  0  0  0  0  0  0  0  0  0
   21.4971   -9.9937  -17.1064 N   0  0  0  0  0  0  0  0  0  0  0  0
   21.1192   -9.0194  -16.1270 C   0  0  1  0  0  0  0  0  0  0  0  0
   22.0718   -8.9171  -14.9714 C   0  0  0  0  0  0  0  0  0  0  0  0
   21.5102   -7.6008  -13.8772 S   0  0  0  0  0  0  0  0  0  0  0  0
   20.8894   -7.7004  -16.7918 C   0  0  0  0  0  0  0  0  0  0  0  0
   21.8053   -7.1685  -17.5055 O   0  0  0  0  0  0  0  0  0  0  0  0
   19.6825   -6.9807  -16.6767 N   0  0  0  0  0  0  0  0  0  0  0  0
   19.4980   -5.6490  -17.2611 C   0  0  1  0  0  0  0  0  0  0  0  0
   18.0334   -5.5673  -17.7141 C   0  0  0  0  0  0  0  0  0  0  0  0
   17.6317   -3.9021  -18.2848 S   0  0  0  0  0  0  0  0  0  0  0  0
   19.8086   -4.5842  -16.2987 C   0  0  0  0  0  0  0  0  0  0  0  0
   19.4203   -4.6504  -14.9749 O   0  0  0  0  0  0  0  0  0  0  0  0
   20.4471   -3.5769  -16.6801 O   0  0  0  0  0  0  0  0  0  0  0  0
  1  2  1  0
  3  4  1  6
  3  2  1  0
  3  5  1  0
  5  6  1  1
  7  8  2  0
  7  5  1  0
  9  7  1  0
 10  9  1  0
 10 13  1  0
 10 11  1  1
 12 11  1  0
 13 14  2  0
 15 13  1  0
 15 16  1  0
 16 17  1  1
 17 18  1  0
 19 20  1  0
 19 16  1  0
 21 19  2  0
M  END
$$$$
