ICC.pdb
     RDKit          3D

 21 20  0  0  1  0  0  0  0  0999 V2000
   18.1780  -16.2093  -17.3245 C   0  0  0  0  0  0  0  0  0  0  0  0
   18.7680  -15.3391  -18.4434 C   0  0  0  0  0  0  0  0  0  0  0  0
   19.4328  -14.1763  -17.7813 C   0  0  2  0  0  0  0  0  0  0  0  0
   18.4936  -13.4355  -16.8434 C   0  0  0  0  0  0  0  0  0  0  0  0
   20.1409  -13.2500  -18.7235 C   0  0  2  0  0  0  0  0  0  0  0  0
   21.1106  -14.0557  -19.4655 N   0  0  0  0  0  0  0  0  0  0  0  0
   20.7804  -12.1019  -18.0765 C   0  0  0  0  0  0  0  0  0  0  0  0
   21.8825  -12.2846  -17.4989 O   0  0  0  0  0  0  0  0  0  0  0  0
   20.2514  -10.7855  -18.0482 N   0  0  0  0  0  0  0  0  0  0  0  0
   20.8688   -9.6668  -17.4014 C   0  0  1  0  0  0  0  0  0  0  0  0
   21.3242   -8.5930  -18.3464 C   0  0  0  0  0  0  0  0  0  0  0  0
   22.0777   -7.2657  -17.3894 S   0  0  0  0  0  0  0  0  0  0  0  0
   19.9632   -9.1387  -16.3358 C   0  0  0  0  0  0  0  0  0  0  0  0
   18.7395   -8.8825  -16.5966 O   0  0  0  0  0  0  0  0  0  0  0  0
   20.3898   -8.8969  -15.0138 N   0  0  0  0  0  0  0  0  0  0  0  0
   19.5213   -8.2867  -14.0027 C   0  0  1  0  0  0  0  0  0  0  0  0
   19.4645   -9.2676  -12.8231 C   0  0  0  0  0  0  0  0  0  0  0  0
   18.5586   -8.5493  -11.4362 S   0  0  0  0  0  0  0  0  0  0  0  0
   20.0254   -6.9769  -13.5708 C   0  0  0  0  0  0  0  0  0  0  0  0
   21.3282   -6.5773  -13.7960 O   0  0  0  0  0  0  0  0  0  0  0  0
   19.2567   -6.1869  -12.9769 O   0  0  0  0  0  0  0  0  0  0  0  0
  1  2  1  0
  3  4  1  6
  3  2  1  0
  3  5  1  0
  5  6  1  1
  7  8  2  0
  7  5  1  0
  9  7  1  0
 10  9  1  0
 10 13  1  0
 10 11  1  6
 12 11  1  0
 13 14  2  0
 15 13  1  0
 15 16  1  0
 16 17  1  1
 17 18  1  0
 19 20  1  0
 19 16  1  0
 21 19  2  0
M  END
$$$$
