RAD.pdb
     RDKit          3D

 25 24  0  0  1  0  0  0  0  0999 V2000
    7.3433  -13.6567   15.5471 N   0  0  0  0  0  0  0  0  0  0  0  0
    8.0415  -13.6407   16.7946 C   0  0  0  0  0  0  0  0  0  0  0  0
    8.3723  -12.5150   17.3503 N   0  0  0  0  0  0  0  0  0  0  0  0
    8.3962  -14.8393   17.4681 N   0  0  0  0  0  0  0  0  0  0  0  0
    7.8138  -15.1354   18.7593 C   0  0  0  0  0  0  0  0  0  0  0  0
    8.2017  -14.0354   19.7300 C   0  0  0  0  0  0  0  0  0  0  0  0
    7.7101  -14.3753   21.1232 C   0  0  0  0  0  0  0  0  0  0  0  0
    8.6014  -15.4219   21.7610 C   0  0  2  0  0  0  0  0  0  0  0  0
    8.2653  -16.6889   21.1503 N   0  0  0  0  0  0  0  0  0  0  0  0
    8.2893  -15.3930   23.2079 C   0  0  0  0  0  0  0  0  0  0  0  0
    8.4613  -14.2995   23.8133 O   0  0  0  0  0  0  0  0  0  0  0  0
    8.8387  -12.5077   18.2863 C   0  0  0  0  0  0  0  0  0  0  0  0
    6.2943  -17.1757   25.6671 C   0  0  2  0  0  0  0  0  0  0  0  0
    7.6143  -16.4432   25.3939 N   0  0  0  0  0  0  0  0  0  0  0  0
    7.8148  -16.4910   23.9615 C   0  0  0  0  0  0  0  0  0  0  0  0
    8.7363  -17.1103   26.1196 O   0  0  0  0  0  0  0  0  0  0  0  0
    8.7422  -17.2176   27.3721 N   0  0  0  0  0  0  0  0  0  0  0  0
    9.8553  -17.6588   25.4322 C   0  0  1  0  0  0  0  0  0  0  0  0
   10.8783  -18.3990   26.1683 C   0  0  0  0  0  0  0  0  0  0  0  0
   10.1906  -19.6412   26.6809 C   0  0  0  0  0  0  0  0  0  0  0  0
   10.3535  -19.7727   28.1357 O   0  0  0  0  0  0  0  0  0  0  0  0
   10.9886  -18.9324   28.8148 C   0  0  0  0  0  0  0  0  0  0  0  0
   12.0122  -18.6692   25.2816 O   0  0  0  0  0  0  0  0  0  0  0  0
   12.0911  -19.7345   24.6225 O   0  0  0  0  0  0  0  0  0  0  0  0
    9.7816  -20.8715   28.7844 O   0  0  0  0  0  0  0  0  0  0  0  0
  2  3  2  0
  2  1  1  0
  4  2  1  0
  5  4  1  0
  6  5  1  0
  7  8  1  0
  7  6  1  0
  8 10  1  0
  8  9  1  6
 10 14  1  0
 11 10  2  0
 13 14  1  0
 13 15  1  0
 13 12  1  6
 15 16  2  0
 17 15  1  0
 17 18  1  0
 18 22  1  0
 18 19  1  1
 20 24  1  0
 20 19  1  0
 21 20  2  0
 22 23  2  0
 22 25  1  0
M  END
$$$$
