RAD.pdb
     RDKit          3D

 25 24  0  0  1  0  0  0  0  0999 V2000
    8.8607  -11.3912   18.6638 N   0  0  0  0  0  0  0  0  0  0  0  0
    8.6015  -11.9336   19.9609 C   0  0  0  0  0  0  0  0  0  0  0  0
    7.9248  -11.2544   20.8360 N   0  0  0  0  0  0  0  0  0  0  0  0
    9.0668  -13.2205   20.3395 N   0  0  0  0  0  0  0  0  0  0  0  0
    8.2559  -14.3865   20.0616 C   0  0  0  0  0  0  0  0  0  0  0  0
    9.0667  -15.3504   19.2152 C   0  0  0  0  0  0  0  0  0  0  0  0
    8.2542  -16.5973   18.9263 C   0  0  0  0  0  0  0  0  0  0  0  0
    9.0556  -17.5713   18.0862 C   0  0  2  0  0  0  0  0  0  0  0  0
    8.1781  -18.6772   17.7731 N   0  0  0  0  0  0  0  0  0  0  0  0
   10.2032  -17.9826   18.9262 C   0  0  0  0  0  0  0  0  0  0  0  0
    9.9468  -18.6490   19.9665 O   0  0  0  0  0  0  0  0  0  0  0  0
    7.6884  -11.6784   21.7623 C   0  0  0  0  0  0  0  0  0  0  0  0
   13.8996  -18.1437   18.5897 C   0  0  1  0  0  0  0  0  0  0  0  0
   12.6525  -18.1488   19.4833 N   0  0  0  0  0  0  0  0  0  0  0  0
   11.5590  -17.6883   18.6548 C   0  0  0  0  0  0  0  0  0  0  0  0
   12.8550  -17.2513   20.6597 O   0  0  0  0  0  0  0  0  0  0  0  0
   12.5563  -16.0310   20.6192 N   0  0  0  0  0  0  0  0  0  0  0  0
   13.3956  -17.7301   21.8861 C   0  0  1  0  0  0  0  0  0  0  0  0
   13.5199  -16.8331   23.0333 C   0  0  0  0  0  0  0  0  0  0  0  0
   13.2791  -17.6941   24.2497 C   0  0  0  0  0  0  0  0  0  0  0  0
   12.0325  -17.3123   24.9284 O   0  0  0  0  0  0  0  0  0  0  0  0
   11.3957  -16.2774   24.6219 C   0  0  0  0  0  0  0  0  0  0  0  0
   14.8375  -16.1942   23.0076 O   0  0  0  0  0  0  0  0  0  0  0  0
   15.1667  -15.3336   23.8599 O   0  0  0  0  0  0  0  0  0  0  0  0
   11.5400  -18.1302   25.9501 O   0  0  0  0  0  0  0  0  0  0  0  0
  2  3  2  0
  2  1  1  0
  4  2  1  0
  5  4  1  0
  6  5  1  0
  7  8  1  0
  7  6  1  0
  8 10  1  0
  8  9  1  1
 10 14  1  0
 11 10  2  0
 13 14  1  0
 13 15  1  0
 13 12  1  6
 15 16  2  0
 17 15  1  0
 17 18  1  0
 18 22  1  0
 18 19  1  1
 20 24  1  0
 20 19  1  0
 21 20  2  0
 22 23  2  0
 22 25  1  0
M  END
$$$$
