RAD.pdb
     RDKit          3D

 25 24  0  0  1  0  0  0  0  0999 V2000
    6.1283  -17.9098   17.8320 N   0  0  0  0  0  0  0  0  0  0  0  0
    7.2476  -18.7885   17.6941 C   0  0  0  0  0  0  0  0  0  0  0  0
    7.3342  -19.8637   18.4164 N   0  0  0  0  0  0  0  0  0  0  0  0
    8.2957  -18.5250   16.7733 N   0  0  0  0  0  0  0  0  0  0  0  0
    8.3701  -17.2349   16.1217 C   0  0  0  0  0  0  0  0  0  0  0  0
    8.8135  -16.2018   17.1409 C   0  0  0  0  0  0  0  0  0  0  0  0
    8.6875  -14.8087   16.5564 C   0  0  0  0  0  0  0  0  0  0  0  0
    7.7136  -13.9778   17.3676 C   0  0  2  0  0  0  0  0  0  0  0  0
    7.6772  -12.6644   16.7638 N   0  0  0  0  0  0  0  0  0  0  0  0
    8.2541  -13.9501   18.7456 C   0  0  0  0  0  0  0  0  0  0  0  0
    9.4288  -13.5146   18.8956 O   0  0  0  0  0  0  0  0  0  0  0  0
    8.1509  -20.5074   18.3053 C   0  0  0  0  0  0  0  0  0  0  0  0
    7.0183  -14.7467   22.1951 C   0  0  1  0  0  0  0  0  0  0  0  0
    8.1453  -14.3679   21.2256 N   0  0  0  0  0  0  0  0  0  0  0  0
    7.5594  -14.3715   19.9024 C   0  0  0  0  0  0  0  0  0  0  0  0
    9.2650  -15.3514   21.3240 O   0  0  0  0  0  0  0  0  0  0  0  0
    9.8476  -15.7941   20.3018 N   0  0  0  0  0  0  0  0  0  0  0  0
    9.7302  -15.8377   22.5780 C   0  0  1  0  0  0  0  0  0  0  0  0
   10.9568  -16.6294   22.6489 C   0  0  0  0  0  0  0  0  0  0  0  0
   12.0607  -15.7100   22.1855 C   0  0  0  0  0  0  0  0  0  0  0  0
   13.3762  -16.3498   22.3297 O   0  0  0  0  0  0  0  0  0  0  0  0
   13.5023  -17.5848   22.5011 C   0  0  0  0  0  0  0  0  0  0  0  0
   11.1320  -17.1290   24.0145 O   0  0  0  0  0  0  0  0  0  0  0  0
   11.7127  -16.4469   24.8937 O   0  0  0  0  0  0  0  0  0  0  0  0
   14.5253  -15.5551   22.2741 O   0  0  0  0  0  0  0  0  0  0  0  0
  2  3  2  0
  2  1  1  0
  4  2  1  0
  5  4  1  0
  6  5  1  0
  7  8  1  0
  7  6  1  0
  8 10  1  0
  8  9  1  6
 10 14  1  0
 11 10  2  0
 13 14  1  0
 13 15  1  0
 13 12  1  1
 15 16  2  0
 17 15  1  0
 17 18  1  0
 18 22  1  0
 18 19  1  6
 20 24  1  0
 20 19  1  0
 21 20  2  0
 22 23  2  0
 22 25  1  0
M  END
$$$$
