RAD.pdb
     RDKit          3D

 25 24  0  0  1  0  0  0  0  0999 V2000
    7.3481  -11.9383   19.2803 N   0  0  0  0  0  0  0  0  0  0  0  0
    7.9806  -13.1264   18.7986 C   0  0  0  0  0  0  0  0  0  0  0  0
    7.5471  -13.7151   17.7258 N   0  0  0  0  0  0  0  0  0  0  0  0
    9.0943  -13.7028   19.4644 N   0  0  0  0  0  0  0  0  0  0  0  0
    9.0088  -14.0015   20.8778 C   0  0  0  0  0  0  0  0  0  0  0  0
    7.5766  -14.3791   21.2078 C   0  0  0  0  0  0  0  0  0  0  0  0
    7.4540  -14.7117   22.6818 C   0  0  0  0  0  0  0  0  0  0  0  0
    8.5460  -15.6747   23.1022 C   0  0  2  0  0  0  0  0  0  0  0  0
    8.5797  -16.7295   22.1135 N   0  0  0  0  0  0  0  0  0  0  0  0
    8.1562  -16.1700   24.4419 C   0  0  0  0  0  0  0  0  0  0  0  0
    8.1016  -15.3237   25.3761 O   0  0  0  0  0  0  0  0  0  0  0  0
    8.0256  -14.5730   17.3669 C   0  0  0  0  0  0  0  0  0  0  0  0
    6.4701  -18.9843   26.0365 C   0  0  2  0  0  0  0  0  0  0  0  0
    7.6307  -17.9834   26.1069 N   0  0  0  0  0  0  0  0  0  0  0  0
    7.8413  -17.5121   24.7549 C   0  0  0  0  0  0  0  0  0  0  0  0
    8.8552  -18.6479   26.6449 O   0  0  0  0  0  0  0  0  0  0  0  0
    8.8743  -19.1742   27.7863 N   0  0  0  0  0  0  0  0  0  0  0  0
   10.0625  -18.7199   25.8946 C   0  0  1  0  0  0  0  0  0  0  0  0
   11.2226  -19.4247   26.4366 C   0  0  0  0  0  0  0  0  0  0  0  0
   12.3539  -19.1413   25.4781 C   0  0  0  0  0  0  0  0  0  0  0  0
   11.9946  -19.5312   24.1072 O   0  0  0  0  0  0  0  0  0  0  0  0
   10.8942  -20.0637   23.8315 C   0  0  0  0  0  0  0  0  0  0  0  0
   11.4723  -18.9653   27.8047 O   0  0  0  0  0  0  0  0  0  0  0  0
   11.8036  -19.7633   28.7151 O   0  0  0  0  0  0  0  0  0  0  0  0
   12.9103  -19.3009   23.0759 O   0  0  0  0  0  0  0  0  0  0  0  0
  2  3  2  0
  2  1  1  0
  4  2  1  0
  5  4  1  0
  6  5  1  0
  7  8  1  0
  7  6  1  0
  8 10  1  0
  8  9  1  6
 10 14  1  0
 11 10  2  0
 13 14  1  0
 13 15  1  0
 13 12  1  1
 15 16  2  0
 17 15  1  0
 17 18  1  0
 18 22  1  0
 18 19  1  1
 20 24  1  0
 20 19  1  0
 21 20  2  0
 22 23  2  0
 22 25  1  0
M  END
$$$$
