RAD.pdb
     RDKit          3D

 25 24  0  0  1  0  0  0  0  0999 V2000
   11.0978  -23.1357   19.1756 N   0  0  0  0  0  0  0  0  0  0  0  0
   12.0040  -23.0552   18.0729 C   0  0  0  0  0  0  0  0  0  0  0  0
   11.9639  -23.9371   17.1211 N   0  0  0  0  0  0  0  0  0  0  0  0
   12.9715  -22.0206   17.9746 N   0  0  0  0  0  0  0  0  0  0  0  0
   13.0126  -20.9796   18.9790 C   0  0  0  0  0  0  0  0  0  0  0  0
   11.8529  -20.0303   18.7412 C   0  0  0  0  0  0  0  0  0  0  0  0
   11.9099  -18.8830   19.7305 C   0  0  0  0  0  0  0  0  0  0  0  0
   10.7221  -17.9604   19.5439 C   0  0  2  0  0  0  0  0  0  0  0  0
   10.8420  -17.3829   18.2236 N   0  0  0  0  0  0  0  0  0  0  0  0
   10.8259  -16.9441   20.6153 C   0  0  0  0  0  0  0  0  0  0  0  0
   11.8617  -16.2236   20.6285 O   0  0  0  0  0  0  0  0  0  0  0  0
   12.6748  -23.9160   16.3543 C   0  0  0  0  0  0  0  0  0  0  0  0
    8.6035  -15.4609   23.2130 C   0  0  1  0  0  0  0  0  0  0  0  0
   10.0102  -15.7209   22.6588 N   0  0  0  0  0  0  0  0  0  0  0  0
    9.8585  -16.7182   21.6211 C   0  0  0  0  0  0  0  0  0  0  0  0
   10.9136  -16.2042   23.7455 O   0  0  0  0  0  0  0  0  0  0  0  0
   11.1211  -15.5256   24.7831 N   0  0  0  0  0  0  0  0  0  0  0  0
   11.5853  -17.4562   23.6633 C   0  0  1  0  0  0  0  0  0  0  0  0
   12.5125  -17.8623   24.7176 C   0  0  0  0  0  0  0  0  0  0  0  0
   12.1017  -19.2631   25.1019 C   0  0  0  0  0  0  0  0  0  0  0  0
   13.0284  -19.8327   26.0905 O   0  0  0  0  0  0  0  0  0  0  0  0
   13.9887  -19.1783   26.5595 C   0  0  0  0  0  0  0  0  0  0  0  0
   13.8861  -17.7602   24.2198 O   0  0  0  0  0  0  0  0  0  0  0  0
   14.8719  -17.9985   24.9593 O   0  0  0  0  0  0  0  0  0  0  0  0
   12.8329  -21.1482   26.5224 O   0  0  0  0  0  0  0  0  0  0  0  0
  2  3  2  0
  2  1  1  0
  4  2  1  0
  5  4  1  0
  6  5  1  0
  7  8  1  0
  7  6  1  0
  8 10  1  0
  8  9  1  6
 10 14  1  0
 11 10  2  0
 13 14  1  0
 13 15  1  0
 13 12  1  6
 15 16  2  0
 17 15  1  0
 17 18  1  0
 18 22  1  0
 18 19  1  6
 20 24  1  0
 20 19  1  0
 21 20  2  0
 22 23  2  0
 22 25  1  0
M  END
$$$$
