RAD.pdb
     RDKit          3D

 25 24  0  0  1  0  0  0  0  0999 V2000
    9.0202  -14.6431   15.4516 N   0  0  0  0  0  0  0  0  0  0  0  0
    8.2582  -13.6719   16.1726 C   0  0  0  0  0  0  0  0  0  0  0  0
    7.1128  -13.2634   15.7182 N   0  0  0  0  0  0  0  0  0  0  0  0
    8.7164  -13.1225   17.3990 N   0  0  0  0  0  0  0  0  0  0  0  0
    8.9499  -13.9926   18.5316 C   0  0  0  0  0  0  0  0  0  0  0  0
    7.6362  -14.2011   19.2618 C   0  0  0  0  0  0  0  0  0  0  0  0
    7.8417  -14.0427   20.7554 C   0  0  0  0  0  0  0  0  0  0  0  0
    8.9785  -14.9242   21.2322 C   0  0  2  0  0  0  0  0  0  0  0  0
    9.0243  -16.0666   20.3467 N   0  0  0  0  0  0  0  0  0  0  0  0
    8.6423  -15.3024   22.6235 C   0  0  0  0  0  0  0  0  0  0  0  0
    8.2750  -16.4926   22.8249 O   0  0  0  0  0  0  0  0  0  0  0  0
    6.5862  -12.5115   16.2193 C   0  0  0  0  0  0  0  0  0  0  0  0
    6.9323  -15.2779   25.1026 C   0  0  2  0  0  0  0  0  0  0  0  0
    8.4099  -14.8653   25.0917 N   0  0  0  0  0  0  0  0  0  0  0  0
    8.7007  -14.4374   23.7401 C   0  0  0  0  0  0  0  0  0  0  0  0
    9.2720  -16.0174   25.4916 O   0  0  0  0  0  0  0  0  0  0  0  0
    9.2471  -16.4883   26.6568 N   0  0  0  0  0  0  0  0  0  0  0  0
   10.1650  -16.6413   24.5758 C   0  0  1  0  0  0  0  0  0  0  0  0
   11.0078  -17.7522   25.0138 C   0  0  0  0  0  0  0  0  0  0  0  0
   10.3360  -19.0005   24.4950 C   0  0  0  0  0  0  0  0  0  0  0  0
   10.2780  -20.0394   25.5332 O   0  0  0  0  0  0  0  0  0  0  0  0
   10.7907  -19.8804   26.6656 C   0  0  0  0  0  0  0  0  0  0  0  0
   12.3687  -17.5552   24.5098 O   0  0  0  0  0  0  0  0  0  0  0  0
   13.3614  -17.5653   25.2780 O   0  0  0  0  0  0  0  0  0  0  0  0
    9.6299  -21.2453   25.2488 O   0  0  0  0  0  0  0  0  0  0  0  0
  2  3  2  0
  2  1  1  0
  4  2  1  0
  5  4  1  0
  6  5  1  0
  7  8  1  0
  7  6  1  0
  8 10  1  0
  8  9  1  6
 10 14  1  0
 11 10  2  0
 13 14  1  0
 13 15  1  0
 13 12  1  1
 15 16  2  0
 17 15  1  0
 17 18  1  0
 18 22  1  0
 18 19  1  1
 20 24  1  0
 20 19  1  0
 21 20  2  0
 22 23  2  0
 22 25  1  0
M  END
$$$$
