RAD.pdb
     RDKit          3D

 25 24  0  0  1  0  0  0  0  0999 V2000
    8.8556  -14.1671   12.3487 N   0  0  0  0  0  0  0  0  0  0  0  0
    8.3330  -14.6724   13.5797 C   0  0  0  0  0  0  0  0  0  0  0  0
    8.4646  -15.9270   13.8859 N   0  0  0  0  0  0  0  0  0  0  0  0
    7.6583  -13.8336   14.5056 N   0  0  0  0  0  0  0  0  0  0  0  0
    7.5517  -14.2358   15.8916 C   0  0  0  0  0  0  0  0  0  0  0  0
    8.8501  -13.8917   16.5976 C   0  0  0  0  0  0  0  0  0  0  0  0
    8.5594  -13.1392   17.8812 C   0  0  0  0  0  0  0  0  0  0  0  0
    7.6737  -13.9648   18.7926 C   0  0  2  0  0  0  0  0  0  0  0  0
    6.3667  -13.3461   18.7817 N   0  0  0  0  0  0  0  0  0  0  0  0
    8.3094  -13.9159   20.1288 C   0  0  0  0  0  0  0  0  0  0  0  0
    9.3523  -13.2154   20.2460 O   0  0  0  0  0  0  0  0  0  0  0  0
    8.1484  -16.2764   14.8195 C   0  0  0  0  0  0  0  0  0  0  0  0
    7.4033  -14.5610   23.6243 C   0  0  1  0  0  0  0  0  0  0  0  0
    8.5095  -14.5309   22.5616 N   0  0  0  0  0  0  0  0  0  0  0  0
    7.8408  -14.5902   21.2795 C   0  0  0  0  0  0  0  0  0  0  0  0
    9.4338  -15.6898   22.7437 O   0  0  0  0  0  0  0  0  0  0  0  0
    9.1857  -16.8175   22.2468 N   0  0  0  0  0  0  0  0  0  0  0  0
   10.6418  -15.5779   23.4877 C   0  0  1  0  0  0  0  0  0  0  0  0
   11.4703  -16.7586   23.7242 C   0  0  0  0  0  0  0  0  0  0  0  0
   12.8706  -16.3580   23.3272 C   0  0  0  0  0  0  0  0  0  0  0  0
   13.8376  -17.4112   23.6680 O   0  0  0  0  0  0  0  0  0  0  0  0
   13.5154  -18.6211   23.7215 C   0  0  0  0  0  0  0  0  0  0  0  0
   11.3423  -17.1670   25.1248 O   0  0  0  0  0  0  0  0  0  0  0  0
   10.8016  -16.4230   25.9789 O   0  0  0  0  0  0  0  0  0  0  0  0
   15.1610  -17.0522   23.9418 O   0  0  0  0  0  0  0  0  0  0  0  0
  2  3  2  0
  2  1  1  0
  4  2  1  0
  5  4  1  0
  6  5  1  0
  7  8  1  0
  7  6  1  0
  8 10  1  0
  8  9  1  1
 10 14  1  0
 11 10  2  0
 13 14  1  0
 13 15  1  0
 13 12  1  6
 15 16  2  0
 17 15  1  0
 17 18  1  0
 18 22  1  0
 18 19  1  1
 20 24  1  0
 20 19  1  0
 21 20  2  0
 22 23  2  0
 22 25  1  0
M  END
$$$$
