RAD.pdb
     RDKit          3D

 25 24  0  0  1  0  0  0  0  0999 V2000
    8.1376  -15.5294   16.5424 N   0  0  0  0  0  0  0  0  0  0  0  0
    8.0841  -14.1256   16.2772 C   0  0  0  0  0  0  0  0  0  0  0  0
    8.0355  -13.6870   15.0563 N   0  0  0  0  0  0  0  0  0  0  0  0
    8.0811  -13.1667   17.3243 N   0  0  0  0  0  0  0  0  0  0  0  0
    8.5776  -13.5330   18.6334 C   0  0  0  0  0  0  0  0  0  0  0  0
    7.4465  -14.1686   19.4204 C   0  0  0  0  0  0  0  0  0  0  0  0
    7.5101  -13.7269   20.8693 C   0  0  0  0  0  0  0  0  0  0  0  0
    8.1037  -14.8215   21.7333 C   0  0  2  0  0  0  0  0  0  0  0  0
    7.1288  -15.8881   21.7890 N   0  0  0  0  0  0  0  0  0  0  0  0
    8.3431  -14.2068   23.0587 C   0  0  0  0  0  0  0  0  0  0  0  0
    9.4510  -13.6292   23.2348 O   0  0  0  0  0  0  0  0  0  0  0  0
    8.0922  -12.6606   14.8637 C   0  0  0  0  0  0  0  0  0  0  0  0
    6.4332  -13.2121   26.0585 C   0  0  2  0  0  0  0  0  0  0  0  0
    7.7532  -13.7086   25.4547 N   0  0  0  0  0  0  0  0  0  0  0  0
    7.4306  -14.2161   24.1384 C   0  0  0  0  0  0  0  0  0  0  0  0
    8.3471  -14.7752   26.3150 O   0  0  0  0  0  0  0  0  0  0  0  0
    8.6363  -14.5673   27.5205 N   0  0  0  0  0  0  0  0  0  0  0  0
    8.6159  -16.0806   25.8158 C   0  0  1  0  0  0  0  0  0  0  0  0
    9.2750  -17.0702   26.6658 C   0  0  0  0  0  0  0  0  0  0  0  0
    8.4251  -18.3145   26.5742 C   0  0  0  0  0  0  0  0  0  0  0  0
    9.0461  -19.4326   27.2983 O   0  0  0  0  0  0  0  0  0  0  0  0
   10.0870  -19.2893   27.9814 C   0  0  0  0  0  0  0  0  0  0  0  0
   10.6546  -17.2569   26.2109 O   0  0  0  0  0  0  0  0  0  0  0  0
   11.6157  -17.2725   27.0181 O   0  0  0  0  0  0  0  0  0  0  0  0
    8.4570  -20.6985   27.2231 O   0  0  0  0  0  0  0  0  0  0  0  0
  2  3  2  0
  2  1  1  0
  4  2  1  0
  5  4  1  0
  6  5  1  0
  7  8  1  0
  7  6  1  0
  8 10  1  0
  8  9  1  1
 10 14  1  0
 11 10  2  0
 13 14  1  0
 13 15  1  0
 13 12  1  6
 15 16  2  0
 17 15  1  0
 17 18  1  0
 18 22  1  0
 18 19  1  6
 20 24  1  0
 20 19  1  0
 21 20  2  0
 22 23  2  0
 22 25  1  0
M  END
$$$$
