RAD.pdb
     RDKit          3D

 25 24  0  0  1  0  0  0  0  0999 V2000
   15.2145  -18.6812   17.2619 N   0  0  0  0  0  0  0  0  0  0  0  0
   14.8905  -19.9950   16.8007 C   0  0  0  0  0  0  0  0  0  0  0  0
   15.3695  -20.4359   15.6776 N   0  0  0  0  0  0  0  0  0  0  0  0
   14.0434  -20.8598   17.5426 N   0  0  0  0  0  0  0  0  0  0  0  0
   13.4554  -20.3981   18.7816 C   0  0  0  0  0  0  0  0  0  0  0  0
   12.2529  -19.5323   18.4546 C   0  0  0  0  0  0  0  0  0  0  0  0
   11.6299  -19.0052   19.7322 C   0  0  0  0  0  0  0  0  0  0  0  0
   10.3852  -18.1977   19.4231 C   0  0  2  0  0  0  0  0  0  0  0  0
   10.5426  -17.6797   18.0822 N   0  0  0  0  0  0  0  0  0  0  0  0
   10.3361  -17.1231   20.4404 C   0  0  0  0  0  0  0  0  0  0  0  0
   10.9696  -16.0614   20.1888 O   0  0  0  0  0  0  0  0  0  0  0  0
   15.1107  -21.3890   15.3336 C   0  0  0  0  0  0  0  0  0  0  0  0
    8.4391  -16.3771   23.5615 C   0  0  1  0  0  0  0  0  0  0  0  0
    9.6468  -16.1297   22.6483 N   0  0  0  0  0  0  0  0  0  0  0  0
    9.6370  -17.1934   21.6671 C   0  0  0  0  0  0  0  0  0  0  0  0
   10.9096  -16.1410   23.4457 O   0  0  0  0  0  0  0  0  0  0  0  0
   11.1415  -15.2769   24.3286 N   0  0  0  0  0  0  0  0  0  0  0  0
   11.9144  -17.1293   23.2480 C   0  0  1  0  0  0  0  0  0  0  0  0
   13.1060  -17.1440   24.0942 C   0  0  0  0  0  0  0  0  0  0  0  0
   13.1929  -18.5455   24.6486 C   0  0  0  0  0  0  0  0  0  0  0  0
   13.7968  -18.5467   25.9886 O   0  0  0  0  0  0  0  0  0  0  0  0
   14.1356  -19.6057   26.5668 C   0  0  0  0  0  0  0  0  0  0  0  0
   14.2694  -16.7453   23.2989 O   0  0  0  0  0  0  0  0  0  0  0  0
   15.2260  -16.1110   23.8070 O   0  0  0  0  0  0  0  0  0  0  0  0
   14.0003  -17.3267   26.6406 O   0  0  0  0  0  0  0  0  0  0  0  0
  2  3  2  0
  2  1  1  0
  4  2  1  0
  5  4  1  0
  6  5  1  0
  7  8  1  0
  7  6  1  0
  8 10  1  0
  8  9  1  6
 10 14  1  0
 11 10  2  0
 13 14  1  0
 13 15  1  0
 13 12  1  6
 15 16  2  0
 17 15  1  0
 17 18  1  0
 18 22  1  0
 18 19  1  6
 20 24  1  0
 20 19  1  0
 21 20  2  0
 22 23  2  0
 22 25  1  0
M  END
$$$$
