RAD.pdb
     RDKit          3D

 25 24  0  0  1  0  0  0  0  0999 V2000
    8.7040  -14.0779   17.7356 N   0  0  0  0  0  0  0  0  0  0  0  0
    7.8360  -13.1137   18.3362 C   0  0  0  0  0  0  0  0  0  0  0  0
    6.9616  -12.4767   17.6184 N   0  0  0  0  0  0  0  0  0  0  0  0
    7.8935  -12.8179   19.7236 N   0  0  0  0  0  0  0  0  0  0  0  0
    8.8567  -13.4983   20.5625 C   0  0  0  0  0  0  0  0  0  0  0  0
    8.4141  -14.9390   20.7385 C   0  0  0  0  0  0  0  0  0  0  0  0
    9.3640  -15.6634   21.6719 C   0  0  0  0  0  0  0  0  0  0  0  0
    8.9668  -17.1195   21.8097 C   0  0  2  0  0  0  0  0  0  0  0  0
    7.9567  -17.1836   22.8426 N   0  0  0  0  0  0  0  0  0  0  0  0
   10.2028  -17.8432   22.1842 C   0  0  0  0  0  0  0  0  0  0  0  0
   10.6628  -17.6386   23.3411 O   0  0  0  0  0  0  0  0  0  0  0  0
    6.3027  -11.8014   18.0695 C   0  0  0  0  0  0  0  0  0  0  0  0
   12.3604  -20.5322   20.7415 C   0  0  1  0  0  0  0  0  0  0  0  0
   12.1389  -19.3899   21.7414 N   0  0  0  0  0  0  0  0  0  0  0  0
   10.9052  -18.7428   21.3499 C   0  0  0  0  0  0  0  0  0  0  0  0
   13.2871  -18.4357   21.6999 O   0  0  0  0  0  0  0  0  0  0  0  0
   14.4551  -18.7937   21.9964 N   0  0  0  0  0  0  0  0  0  0  0  0
   13.1191  -17.0737   21.3229 C   0  0  1  0  0  0  0  0  0  0  0  0
   14.2725  -16.1770   21.2776 C   0  0  0  0  0  0  0  0  0  0  0  0
   13.8430  -15.0059   20.4274 C   0  0  0  0  0  0  0  0  0  0  0  0
   14.9957  -14.3924   19.7527 O   0  0  0  0  0  0  0  0  0  0  0  0
   16.1666  -14.8049   19.9243 C   0  0  0  0  0  0  0  0  0  0  0  0
   14.6558  -15.8123   22.6432 O   0  0  0  0  0  0  0  0  0  0  0  0
   15.8519  -15.5896   22.9522 O   0  0  0  0  0  0  0  0  0  0  0  0
   14.7799  -13.3127   18.8908 O   0  0  0  0  0  0  0  0  0  0  0  0
  2  3  2  0
  2  1  1  0
  4  2  1  0
  5  4  1  0
  6  5  1  0
  7  8  1  0
  7  6  1  0
  8 10  1  0
  8  9  1  1
 10 14  1  0
 11 10  2  0
 13 14  1  0
 13 15  1  0
 13 12  1  1
 15 16  2  0
 17 15  1  0
 17 18  1  0
 18 22  1  0
 18 19  1  1
 20 24  1  0
 20 19  1  0
 21 20  2  0
 22 23  2  0
 22 25  1  0
M  END
$$$$
