RAD.pdb
     RDKit          3D

 25 24  0  0  1  0  0  0  0  0999 V2000
    7.6504  -12.9465   17.7038 N   0  0  0  0  0  0  0  0  0  0  0  0
    8.7400  -13.4529   18.4785 C   0  0  0  0  0  0  0  0  0  0  0  0
    9.7266  -12.6784   18.8132 N   0  0  0  0  0  0  0  0  0  0  0  0
    8.7864  -14.8053   18.9085 N   0  0  0  0  0  0  0  0  0  0  0  0
    8.5230  -15.1263   20.2948 C   0  0  0  0  0  0  0  0  0  0  0  0
    7.0967  -14.7253   20.6228 C   0  0  0  0  0  0  0  0  0  0  0  0
    6.7945  -15.0260   22.0776 C   0  0  0  0  0  0  0  0  0  0  0  0
    6.5924  -16.5140   22.2822 C   0  0  2  0  0  0  0  0  0  0  0  0
    5.2567  -16.8238   21.8227 N   0  0  0  0  0  0  0  0  0  0  0  0
    6.7579  -16.7497   23.7343 C   0  0  0  0  0  0  0  0  0  0  0  0
    6.1269  -15.9881   24.5178 O   0  0  0  0  0  0  0  0  0  0  0  0
   10.5298  -13.0585   19.3648 C   0  0  0  0  0  0  0  0  0  0  0  0
    7.4538  -19.1324   26.2563 C   0  0  1  0  0  0  0  0  0  0  0  0
    7.9294  -17.7800   25.7100 N   0  0  0  0  0  0  0  0  0  0  0  0
    7.5645  -17.7581   24.3098 C   0  0  0  0  0  0  0  0  0  0  0  0
    9.4059  -17.6408   25.8864 O   0  0  0  0  0  0  0  0  0  0  0  0
    9.9325  -17.5802   27.0261 N   0  0  0  0  0  0  0  0  0  0  0  0
   10.2922  -17.5698   24.7751 C   0  0  1  0  0  0  0  0  0  0  0  0
   11.7361  -17.5005   24.9911 C   0  0  0  0  0  0  0  0  0  0  0  0
   12.2621  -18.8768   24.6623 C   0  0  0  0  0  0  0  0  0  0  0  0
   13.2594  -19.3109   25.6509 O   0  0  0  0  0  0  0  0  0  0  0  0
   13.6185  -18.5786   26.6024 C   0  0  0  0  0  0  0  0  0  0  0  0
   12.2991  -16.4339   24.1602 O   0  0  0  0  0  0  0  0  0  0  0  0
   11.6473  -15.9230   23.2170 O   0  0  0  0  0  0  0  0  0  0  0  0
   13.8270  -20.5827   25.5263 O   0  0  0  0  0  0  0  0  0  0  0  0
  2  3  2  0
  2  1  1  0
  4  2  1  0
  5  4  1  0
  6  5  1  0
  7  8  1  0
  7  6  1  0
  8 10  1  0
  8  9  1  1
 10 14  1  0
 11 10  2  0
 13 14  1  0
 13 15  1  0
 13 12  1  1
 15 16  2  0
 17 15  1  0
 17 18  1  0
 18 22  1  0
 18 19  1  1
 20 24  1  0
 20 19  1  0
 21 20  2  0
 22 23  2  0
 22 25  1  0
M  END
$$$$
