SRP.pdb
     RDKit          3D

 25 25  0  0  1  0  0  0  0  0999 V2000
   11.0916  -18.6625   24.7039 O   0  0  0  0  0  0  0  0  0  0  0  0
   12.3213  -18.1553   24.2843 C   0  0  0  0  0  0  0  0  0  0  0  0
   12.1575  -17.2551   23.0574 C   0  0  2  0  0  0  0  0  0  0  0  0
   13.4692  -16.7485   22.7327 N   0  0  0  0  0  0  0  0  0  0  0  0
   11.2171  -16.1781   23.4392 C   0  0  0  0  0  0  0  0  0  0  0  0
   11.5987  -15.2657   24.2108 O   0  0  0  0  0  0  0  0  0  0  0  0
    8.0824  -14.6822   17.4293 N   0  0  0  0  0  0  0  0  0  0  0  0
    8.0295  -13.4631   18.1438 C   0  0  0  0  0  0  0  0  0  0  0  0
    8.8178  -12.4801   17.8480 N   0  0  0  0  0  0  0  0  0  0  0  0
    7.1127  -13.2499   19.2207 N   0  0  0  0  0  0  0  0  0  0  0  0
    6.9174  -14.2213   20.2680 C   0  0  0  0  0  0  0  0  0  0  0  0
    8.0558  -14.0582   21.2793 C   0  0  0  0  0  0  0  0  0  0  0  0
    7.8487  -15.0551   22.3595 C   0  0  0  0  0  0  0  0  0  0  0  0
    8.9454  -15.0976   23.4126 C   0  0  2  0  0  0  0  0  0  0  0  0
    9.8652  -16.1176   22.9666 N   0  0  0  0  0  0  0  0  0  0  0  0
    8.4676  -15.2147   24.7832 C   0  0  0  0  0  0  0  0  0  0  0  0
    8.5538  -16.3800   25.3479 O   0  0  0  0  0  0  0  0  0  0  0  0
    8.7472  -11.5810   18.3800 N   0  0  0  0  0  0  0  0  0  0  0  0
    7.9091  -14.2189   25.6117 C   0  0  0  0  0  0  0  0  0  0  0  0
    7.6621  -12.8603   25.2437 C   0  0  0  0  0  0  0  0  0  0  0  0
    6.7446  -12.3247   26.3096 C   0  0  0  0  0  0  0  0  0  0  0  0
    7.2288  -13.0468   27.5448 C   0  0  1  0  0  0  0  0  0  0  0  0
    7.5106  -14.4256   26.9864 C   0  0  0  0  0  0  0  0  0  0  0  0
    6.2697  -15.2117   27.1038 O   0  0  0  0  0  0  0  0  0  0  0  0
    5.4693  -15.4354   26.0088 O   0  0  0  0  0  0  0  0  0  0  0  0
  1  2  1  0
  3  4  1  1
  3  2  1  0
  5  3  1  0
  6  5  2  0
  7  8  1  0
  8  9  2  0
  8 10  1  0
 10 11  1  0
 11 12  1  0
 14 13  1  6
 13 12  1  0
 14 15  1  0
 15  5  1  0
 16 18  1  0
 16 14  1  0
 17 16  2  0
 18 19  1  0
 20 19  1  0
 21 20  1  0
 22 18  1  0
 22 21  1  0
 22 23  1  6
 24 23  1  0
 25 23  2  0
M  END
$$$$
