SRP.pdb
     RDKit          3D

 25 25  0  0  1  0  0  0  0  0999 V2000
   10.0066  -12.0569   19.3003 O   0  0  0  0  0  0  0  0  0  0  0  0
    8.8214  -12.3663   19.9673 C   0  0  0  0  0  0  0  0  0  0  0  0
    8.4801  -13.8517   19.8262 C   0  0  2  0  0  0  0  0  0  0  0  0
    7.5761  -13.9682   18.7072 N   0  0  0  0  0  0  0  0  0  0  0  0
    7.8546  -14.2701   21.1005 C   0  0  0  0  0  0  0  0  0  0  0  0
    6.6787  -13.9186   21.3595 O   0  0  0  0  0  0  0  0  0  0  0  0
    5.8509  -21.4399   25.3796 N   0  0  0  0  0  0  0  0  0  0  0  0
    6.5633  -20.6587   26.3186 C   0  0  0  0  0  0  0  0  0  0  0  0
    6.9419  -21.1561   27.4519 N   0  0  0  0  0  0  0  0  0  0  0  0
    6.9017  -19.2910   26.0719 N   0  0  0  0  0  0  0  0  0  0  0  0
    7.3486  -18.8303   24.7810 C   0  0  0  0  0  0  0  0  0  0  0  0
    7.6939  -17.3435   24.9057 C   0  0  0  0  0  0  0  0  0  0  0  0
    8.0602  -16.8484   23.5550 C   0  0  0  0  0  0  0  0  0  0  0  0
    7.9583  -15.3417   23.3742 C   0  0  2  0  0  0  0  0  0  0  0  0
    8.5319  -15.0721   22.0767 N   0  0  0  0  0  0  0  0  0  0  0  0
    8.4811  -14.5595   24.4858 C   0  0  0  0  0  0  0  0  0  0  0  0
    9.7448  -14.6779   24.7567 O   0  0  0  0  0  0  0  0  0  0  0  0
    7.4677  -20.5571   28.1311 N   0  0  0  0  0  0  0  0  0  0  0  0
    7.7964  -13.6658   25.3356 C   0  0  0  0  0  0  0  0  0  0  0  0
    6.4518  -13.2112   25.1698 C   0  0  0  0  0  0  0  0  0  0  0  0
    6.0790  -12.5955   26.4915 C   0  0  0  0  0  0  0  0  0  0  0  0
    7.3854  -11.9872   26.9441 C   0  0  2  0  0  0  0  0  0  0  0  0
    8.3698  -13.0542   26.5141 C   0  0  0  0  0  0  0  0  0  0  0  0
    8.5094  -14.0030   27.6330 O   0  0  0  0  0  0  0  0  0  0  0  0
    9.2719  -13.6902   28.7331 O   0  0  0  0  0  0  0  0  0  0  0  0
  1  2  1  0
  3  4  1  6
  3  2  1  0
  5  3  1  0
  6  5  2  0
  7  8  1  0
  8  9  2  0
  8 10  1  0
 10 11  1  0
 11 12  1  0
 14 13  1  1
 13 12  1  0
 14 15  1  0
 15  5  1  0
 16 18  1  0
 16 14  1  0
 17 16  2  0
 18 19  1  0
 20 19  1  0
 21 20  1  0
 22 18  1  0
 22 21  1  0
 22 23  1  1
 24 23  1  0
 25 23  2  0
M  END
$$$$
