SRP.pdb
     RDKit          3D

 25 25  0  0  1  0  0  0  0  0999 V2000
   11.6537  -18.2709   23.6464 O   0  0  0  0  0  0  0  0  0  0  0  0
   10.7389  -18.4455   22.6081 C   0  0  0  0  0  0  0  0  0  0  0  0
   10.8390  -17.3093   21.5874 C   0  0  2  0  0  0  0  0  0  0  0  0
   12.2422  -17.1220   21.3068 N   0  0  0  0  0  0  0  0  0  0  0  0
   10.2265  -16.1163   22.2135 C   0  0  0  0  0  0  0  0  0  0  0  0
   10.9484  -15.3053   22.8414 O   0  0  0  0  0  0  0  0  0  0  0  0
    8.3451  -13.5334   16.6126 N   0  0  0  0  0  0  0  0  0  0  0  0
    8.4656  -13.7681   18.0018 C   0  0  0  0  0  0  0  0  0  0  0  0
    9.2227  -14.7141   18.4568 N   0  0  0  0  0  0  0  0  0  0  0  0
    7.7661  -12.9827   18.9711 N   0  0  0  0  0  0  0  0  0  0  0  0
    7.8777  -13.2302   20.3870 C   0  0  0  0  0  0  0  0  0  0  0  0
    6.9283  -14.3789   20.7401 C   0  0  0  0  0  0  0  0  0  0  0  0
    6.8832  -14.4911   22.2196 C   0  0  0  0  0  0  0  0  0  0  0  0
    8.2269  -14.7455   22.8852 C   0  0  2  0  0  0  0  0  0  0  0  0
    8.8239  -15.8294   22.1411 N   0  0  0  0  0  0  0  0  0  0  0  0
    8.1673  -14.9114   24.3308 C   0  0  0  0  0  0  0  0  0  0  0  0
    8.5812  -16.0401   24.8196 O   0  0  0  0  0  0  0  0  0  0  0  0
    9.2786  -14.8822   19.4888 N   0  0  0  0  0  0  0  0  0  0  0  0
    7.7132  -13.9992   25.3062 C   0  0  0  0  0  0  0  0  0  0  0  0
    7.1806  -12.6968   25.0563 C   0  0  0  0  0  0  0  0  0  0  0  0
    6.5157  -12.2901   26.3437 C   0  0  0  0  0  0  0  0  0  0  0  0
    7.4145  -12.9172   27.3832 C   0  0  1  0  0  0  0  0  0  0  0  0
    7.7338  -14.2458   26.7311 C   0  0  0  0  0  0  0  0  0  0  0  0
    6.6988  -15.2056   27.1544 O   0  0  0  0  0  0  0  0  0  0  0  0
    6.7694  -15.8257   28.3791 O   0  0  0  0  0  0  0  0  0  0  0  0
  1  2  1  0
  3  4  1  1
  3  2  1  0
  5  3  1  0
  6  5  2  0
  7  8  1  0
  8  9  2  0
  8 10  1  0
 10 11  1  0
 11 12  1  0
 14 13  1  6
 13 12  1  0
 14 15  1  0
 15  5  1  0
 16 18  1  0
 16 14  1  0
 17 16  2  0
 18 19  1  0
 20 19  1  0
 21 20  1  0
 22 18  1  0
 22 21  1  0
 22 23  1  1
 24 23  1  0
 25 23  2  0
M  END
$$$$
