SRP.pdb
     RDKit          3D

 25 25  0  0  1  0  0  0  0  0999 V2000
   10.2420  -13.0012   20.2061 O   0  0  0  0  0  0  0  0  0  0  0  0
    9.7581  -14.3025   20.0716 C   0  0  0  0  0  0  0  0  0  0  0  0
    8.2311  -14.3155   19.9670 C   0  0  2  0  0  0  0  0  0  0  0  0
    7.8518  -13.1272   19.2411 N   0  0  0  0  0  0  0  0  0  0  0  0
    7.7073  -14.3202   21.3511 C   0  0  0  0  0  0  0  0  0  0  0  0
    7.3141  -13.2479   21.8696 O   0  0  0  0  0  0  0  0  0  0  0  0
    9.0832  -19.4873   28.0388 N   0  0  0  0  0  0  0  0  0  0  0  0
    8.0895  -19.7978   27.0820 C   0  0  0  0  0  0  0  0  0  0  0  0
    8.1710  -20.8663   26.3561 N   0  0  0  0  0  0  0  0  0  0  0  0
    6.9517  -18.9588   26.8648 N   0  0  0  0  0  0  0  0  0  0  0  0
    6.4528  -18.6663   25.5442 C   0  0  0  0  0  0  0  0  0  0  0  0
    6.5676  -17.1553   25.3218 C   0  0  0  0  0  0  0  0  0  0  0  0
    6.9547  -16.9337   23.9060 C   0  0  0  0  0  0  0  0  0  0  0  0
    7.1515  -15.4772   23.5148 C   0  0  2  0  0  0  0  0  0  0  0  0
    7.6223  -15.5074   22.1500 N   0  0  0  0  0  0  0  0  0  0  0  0
    7.9458  -14.6976   24.4540 C   0  0  0  0  0  0  0  0  0  0  0  0
    9.2226  -14.9277   24.4906 O   0  0  0  0  0  0  0  0  0  0  0  0
    7.5139  -20.9977   25.5515 N   0  0  0  0  0  0  0  0  0  0  0  0
    7.5195  -13.7001   25.3556 C   0  0  0  0  0  0  0  0  0  0  0  0
    6.2057  -13.1431   25.4336 C   0  0  0  0  0  0  0  0  0  0  0  0
    6.1625  -12.4206   26.7531 C   0  0  0  0  0  0  0  0  0  0  0  0
    7.5747  -11.9002   26.8824 C   0  0  2  0  0  0  0  0  0  0  0  0
    8.3688  -13.0708   26.3426 C   0  0  0  0  0  0  0  0  0  0  0  0
    8.6716  -13.9601   27.4780 O   0  0  0  0  0  0  0  0  0  0  0  0
    9.6348  -13.6253   28.3999 O   0  0  0  0  0  0  0  0  0  0  0  0
  1  2  1  0
  3  4  1  1
  3  2  1  0
  5  3  1  0
  6  5  2  0
  7  8  1  0
  8  9  2  0
  8 10  1  0
 10 11  1  0
 11 12  1  0
 14 13  1  1
 13 12  1  0
 14 15  1  0
 15  5  1  0
 16 18  1  0
 16 14  1  0
 17 16  2  0
 18 19  1  0
 20 19  1  0
 21 20  1  0
 22 18  1  0
 22 21  1  0
 22 23  1  1
 24 23  1  0
 25 23  2  0
M  END
$$$$
