SRP.pdb
     RDKit          3D

 25 25  0  0  1  0  0  0  0  0999 V2000
   10.4531  -12.7267   20.0083 O   0  0  0  0  0  0  0  0  0  0  0  0
    9.9360  -13.9839   19.6959 C   0  0  0  0  0  0  0  0  0  0  0  0
    8.4090  -13.9445   19.6002 C   0  0  2  0  0  0  0  0  0  0  0  0
    8.0622  -12.6969   18.9630 N   0  0  0  0  0  0  0  0  0  0  0  0
    7.8910  -14.0325   20.9837 C   0  0  0  0  0  0  0  0  0  0  0  0
    7.4674  -12.9991   21.5547 O   0  0  0  0  0  0  0  0  0  0  0  0
    7.5286  -21.2365   26.2097 N   0  0  0  0  0  0  0  0  0  0  0  0
    6.9104  -20.1899   26.9322 C   0  0  0  0  0  0  0  0  0  0  0  0
    6.5019  -20.3670   28.1475 N   0  0  0  0  0  0  0  0  0  0  0  0
    6.7042  -18.8921   26.3676 N   0  0  0  0  0  0  0  0  0  0  0  0
    7.0499  -18.5837   25.0024 C   0  0  0  0  0  0  0  0  0  0  0  0
    6.7197  -17.1088   24.7550 C   0  0  0  0  0  0  0  0  0  0  0  0
    7.0945  -16.7891   23.3548 C   0  0  0  0  0  0  0  0  0  0  0  0
    7.3485  -15.3151   23.0788 C   0  0  2  0  0  0  0  0  0  0  0  0
    7.8452  -15.2591   21.7241 N   0  0  0  0  0  0  0  0  0  0  0  0
    8.1500  -14.6372   24.0882 C   0  0  0  0  0  0  0  0  0  0  0  0
    9.4196  -14.9048   24.1210 O   0  0  0  0  0  0  0  0  0  0  0  0
    6.1184  -19.5567   28.6886 N   0  0  0  0  0  0  0  0  0  0  0  0
    7.7378  -13.7051   25.0634 C   0  0  0  0  0  0  0  0  0  0  0  0
    6.4316  -13.1384   25.1858 C   0  0  0  0  0  0  0  0  0  0  0  0
    6.3992  -12.5173   26.5563 C   0  0  0  0  0  0  0  0  0  0  0  0
    7.8182  -12.0268   26.7219 C   0  0  2  0  0  0  0  0  0  0  0  0
    8.5962  -13.1636   26.0937 C   0  0  0  0  0  0  0  0  0  0  0  0
    8.8883  -14.1402   27.1580 O   0  0  0  0  0  0  0  0  0  0  0  0
    9.8626  -13.8926   28.0954 O   0  0  0  0  0  0  0  0  0  0  0  0
  1  2  1  0
  3  4  1  1
  3  2  1  0
  5  3  1  0
  6  5  2  0
  7  8  1  0
  8  9  2  0
  8 10  1  0
 10 11  1  0
 11 12  1  0
 14 13  1  1
 13 12  1  0
 14 15  1  0
 15  5  1  0
 16 18  1  0
 16 14  1  0
 17 16  2  0
 18 19  1  0
 20 19  1  0
 21 20  1  0
 22 18  1  0
 22 21  1  0
 22 23  1  1
 24 23  1  0
 25 23  2  0
M  END
$$$$
