SRP.pdb
     RDKit          3D

 25 25  0  0  1  0  0  0  0  0999 V2000
   11.3737  -18.5244   25.2137 O   0  0  0  0  0  0  0  0  0  0  0  0
   12.6255  -18.1451   24.7294 C   0  0  0  0  0  0  0  0  0  0  0  0
   12.5042  -17.4467   23.3728 C   0  0  2  0  0  0  0  0  0  0  0  0
   13.8300  -17.0078   23.0088 N   0  0  0  0  0  0  0  0  0  0  0  0
   11.5677  -16.3156   23.5560 C   0  0  0  0  0  0  0  0  0  0  0  0
   11.9571  -15.2756   24.1393 O   0  0  0  0  0  0  0  0  0  0  0  0
    8.7738  -14.2674   17.6511 N   0  0  0  0  0  0  0  0  0  0  0  0
    8.1468  -13.7722   18.8178 C   0  0  0  0  0  0  0  0  0  0  0  0
    8.1141  -12.5036   19.0720 N   0  0  0  0  0  0  0  0  0  0  0  0
    7.5207  -14.6350   19.7714 N   0  0  0  0  0  0  0  0  0  0  0  0
    6.6407  -14.1359   20.7985 C   0  0  0  0  0  0  0  0  0  0  0  0
    7.4384  -14.0552   22.1033 C   0  0  0  0  0  0  0  0  0  0  0  0
    8.4498  -15.1415   22.0841 C   0  0  0  0  0  0  0  0  0  0  0  0
    9.2987  -15.2505   23.3415 C   0  0  2  0  0  0  0  0  0  0  0  0
   10.2109  -16.3422   23.0943 N   0  0  0  0  0  0  0  0  0  0  0  0
    8.5404  -15.3120   24.5833 C   0  0  0  0  0  0  0  0  0  0  0  0
    8.2845  -16.4881   25.0687 O   0  0  0  0  0  0  0  0  0  0  0  0
    7.6408  -12.1611   19.9410 N   0  0  0  0  0  0  0  0  0  0  0  0
    8.0287  -14.2507   25.3588 C   0  0  0  0  0  0  0  0  0  0  0  0
    7.9980  -12.8725   24.9819 C   0  0  0  0  0  0  0  0  0  0  0  0
    7.0480  -12.2210   25.9504 C   0  0  0  0  0  0  0  0  0  0  0  0
    7.3014  -12.9961   27.2219 C   0  0  1  0  0  0  0  0  0  0  0  0
    7.4626  -14.4011   26.6811 C   0  0  0  0  0  0  0  0  0  0  0  0
    6.1260  -15.0213   26.6573 O   0  0  0  0  0  0  0  0  0  0  0  0
    5.5465  -15.4946   27.8104 O   0  0  0  0  0  0  0  0  0  0  0  0
  1  2  1  0
  3  4  1  1
  3  2  1  0
  5  3  1  0
  6  5  2  0
  7  8  1  0
  8  9  2  0
  8 10  1  0
 10 11  1  0
 11 12  1  0
 14 13  1  6
 13 12  1  0
 14 15  1  0
 15  5  1  0
 16 18  1  0
 16 14  1  0
 17 16  2  0
 18 19  1  0
 20 19  1  0
 21 20  1  0
 22 18  1  0
 22 21  1  0
 22 23  1  6
 24 23  1  0
 25 23  2  0
M  END
$$$$
