SRP.pdb
     RDKit          3D

 25 25  0  0  1  0  0  0  0  0999 V2000
   10.6135  -13.1916   19.0782 O   0  0  0  0  0  0  0  0  0  0  0  0
    9.6912  -12.9818   20.1034 C   0  0  0  0  0  0  0  0  0  0  0  0
    8.5668  -14.0192   20.0551 C   0  0  2  0  0  0  0  0  0  0  0  0
    7.5696  -13.5125   19.1432 N   0  0  0  0  0  0  0  0  0  0  0  0
    8.0499  -14.1546   21.4352 C   0  0  0  0  0  0  0  0  0  0  0  0
    7.3366  -13.2454   21.9229 O   0  0  0  0  0  0  0  0  0  0  0  0
    3.8307  -20.8758   22.3492 N   0  0  0  0  0  0  0  0  0  0  0  0
    3.5045  -19.7036   21.6288 C   0  0  0  0  0  0  0  0  0  0  0  0
    2.5001  -19.6781   20.8129 N   0  0  0  0  0  0  0  0  0  0  0  0
    4.2570  -18.4943   21.7596 N   0  0  0  0  0  0  0  0  0  0  0  0
    5.4023  -18.3916   22.6291 C   0  0  0  0  0  0  0  0  0  0  0  0
    5.8787  -16.9362   22.6100 C   0  0  0  0  0  0  0  0  0  0  0  0
    7.0494  -16.8305   23.5164 C   0  0  0  0  0  0  0  0  0  0  0  0
    7.7070  -15.4597   23.5585 C   0  0  2  0  0  0  0  0  0  0  0  0
    8.3248  -15.2914   22.2642 N   0  0  0  0  0  0  0  0  0  0  0  0
    8.5610  -15.2306   24.7156 C   0  0  0  0  0  0  0  0  0  0  0  0
    9.7581  -15.7308   24.6823 O   0  0  0  0  0  0  0  0  0  0  0  0
    2.2563  -18.7877   20.3186 N   0  0  0  0  0  0  0  0  0  0  0  0
    8.2704  -14.5241   25.9014 C   0  0  0  0  0  0  0  0  0  0  0  0
    7.0430  -13.8573   26.2035 C   0  0  0  0  0  0  0  0  0  0  0  0
    7.0942  -13.5908   27.6838 C   0  0  0  0  0  0  0  0  0  0  0  0
    8.5631  -13.3233   27.9129 C   0  0  1  0  0  0  0  0  0  0  0  0
    9.1942  -14.3541   27.0010 C   0  0  0  0  0  0  0  0  0  0  0  0
    9.3726  -15.5883   27.7862 O   0  0  0  0  0  0  0  0  0  0  0  0
   10.3630  -15.6849   28.7345 O   0  0  0  0  0  0  0  0  0  0  0  0
  1  2  1  0
  3  4  1  6
  3  2  1  0
  5  3  1  0
  6  5  2  0
  7  8  1  0
  8  9  2  0
  8 10  1  0
 10 11  1  0
 11 12  1  0
 14 13  1  6
 13 12  1  0
 14 15  1  0
 15  5  1  0
 16 18  1  0
 16 14  1  0
 17 16  2  0
 18 19  1  0
 20 19  1  0
 21 20  1  0
 22 18  1  0
 22 21  1  0
 22 23  1  1
 24 23  1  0
 25 23  2  0
M  END
$$$$
