SRP.pdb
     RDKit          3D

 25 25  0  0  1  0  0  0  0  0999 V2000
   10.6768  -12.8031   20.2721 O   0  0  0  0  0  0  0  0  0  0  0  0
   10.0254  -13.8212   19.5759 C   0  0  0  0  0  0  0  0  0  0  0  0
    8.5114  -13.5971   19.5588 C   0  0  2  0  0  0  0  0  0  0  0  0
    8.2957  -12.2324   19.1419 N   0  0  0  0  0  0  0  0  0  0  0  0
    8.0260  -13.8486   20.9341 C   0  0  0  0  0  0  0  0  0  0  0  0
    7.7256  -12.8806   21.6730 O   0  0  0  0  0  0  0  0  0  0  0  0
    6.5125  -21.8260   25.8291 N   0  0  0  0  0  0  0  0  0  0  0  0
    6.8806  -20.4756   26.0302 C   0  0  0  0  0  0  0  0  0  0  0  0
    7.8945  -20.1623   26.7711 N   0  0  0  0  0  0  0  0  0  0  0  0
    6.1618  -19.3926   25.4333 N   0  0  0  0  0  0  0  0  0  0  0  0
    6.4742  -18.8954   24.1166 C   0  0  0  0  0  0  0  0  0  0  0  0
    6.6993  -17.3844   24.2254 C   0  0  0  0  0  0  0  0  0  0  0  0
    7.0517  -16.8803   22.8744 C   0  0  0  0  0  0  0  0  0  0  0  0
    7.3291  -15.3867   22.7988 C   0  0  2  0  0  0  0  0  0  0  0  0
    7.8766  -15.1652   21.4811 N   0  0  0  0  0  0  0  0  0  0  0  0
    8.0983  -14.8543   23.9149 C   0  0  0  0  0  0  0  0  0  0  0  0
    9.3728  -15.0991   23.9321 O   0  0  0  0  0  0  0  0  0  0  0  0
    8.1575  -19.1559   26.8910 N   0  0  0  0  0  0  0  0  0  0  0  0
    7.6492  -14.0890   25.0114 C   0  0  0  0  0  0  0  0  0  0  0  0
    6.3209  -13.5996   25.2074 C   0  0  0  0  0  0  0  0  0  0  0  0
    6.2646  -13.1829   26.6525 C   0  0  0  0  0  0  0  0  0  0  0  0
    7.6624  -12.6634   26.8932 C   0  0  2  0  0  0  0  0  0  0  0  0
    8.4859  -13.6658   26.1125 C   0  0  0  0  0  0  0  0  0  0  0  0
    8.8192  -14.7717   27.0276 O   0  0  0  0  0  0  0  0  0  0  0  0
    9.7857  -14.6220   27.9936 O   0  0  0  0  0  0  0  0  0  0  0  0
  1  2  1  0
  3  4  1  1
  3  2  1  0
  5  3  1  0
  6  5  2  0
  7  8  1  0
  8  9  2  0
  8 10  1  0
 10 11  1  0
 11 12  1  0
 14 13  1  1
 13 12  1  0
 14 15  1  0
 15  5  1  0
 16 18  1  0
 16 14  1  0
 17 16  2  0
 18 19  1  0
 20 19  1  0
 21 20  1  0
 22 18  1  0
 22 21  1  0
 22 23  1  1
 24 23  1  0
 25 23  2  0
M  END
$$$$
