SRP.pdb
     RDKit          3D

 25 25  0  0  1  0  0  0  0  0999 V2000
   11.9215  -18.0211   25.0028 O   0  0  0  0  0  0  0  0  0  0  0  0
   11.4563  -18.2966   23.7170 C   0  0  0  0  0  0  0  0  0  0  0  0
   11.7693  -17.1453   22.7583 C   0  0  2  0  0  0  0  0  0  0  0  0
   13.1761  -16.8555   22.8984 N   0  0  0  0  0  0  0  0  0  0  0  0
   10.9170  -16.0058   23.1651 C   0  0  0  0  0  0  0  0  0  0  0  0
   11.3531  -15.1685   23.9910 O   0  0  0  0  0  0  0  0  0  0  0  0
    8.3259  -12.5124   18.1878 N   0  0  0  0  0  0  0  0  0  0  0  0
    7.9746  -13.8651   17.9725 C   0  0  0  0  0  0  0  0  0  0  0  0
    8.4073  -14.5117   16.9382 N   0  0  0  0  0  0  0  0  0  0  0  0
    7.1314  -14.5866   18.8749 N   0  0  0  0  0  0  0  0  0  0  0  0
    6.6395  -14.0051   20.0989 C   0  0  0  0  0  0  0  0  0  0  0  0
    7.8224  -13.8635   21.0613 C   0  0  0  0  0  0  0  0  0  0  0  0
    7.5427  -14.7067   22.2505 C   0  0  0  0  0  0  0  0  0  0  0  0
    8.6947  -14.8290   23.2360 C   0  0  2  0  0  0  0  0  0  0  0  0
    9.5923  -15.8009   22.6573 N   0  0  0  0  0  0  0  0  0  0  0  0
    8.2919  -15.0640   24.6156 C   0  0  0  0  0  0  0  0  0  0  0  0
    8.4221  -16.2696   25.0782 O   0  0  0  0  0  0  0  0  0  0  0  0
    8.1611  -15.5224   16.8184 N   0  0  0  0  0  0  0  0  0  0  0  0
    7.7663  -14.1477   25.5503 C   0  0  0  0  0  0  0  0  0  0  0  0
    7.6400  -12.7363   25.3645 C   0  0  0  0  0  0  0  0  0  0  0  0
    6.7103  -12.2776   26.4554 C   0  0  0  0  0  0  0  0  0  0  0  0
    7.0746  -13.1967   27.5975 C   0  0  1  0  0  0  0  0  0  0  0  0
    7.2823  -14.5056   26.8653 C   0  0  0  0  0  0  0  0  0  0  0  0
    5.9821  -15.1978   26.8207 O   0  0  0  0  0  0  0  0  0  0  0  0
    5.5369  -15.9336   27.8931 O   0  0  0  0  0  0  0  0  0  0  0  0
  1  2  1  0
  3  4  1  1
  3  2  1  0
  5  3  1  0
  6  5  2  0
  7  8  1  0
  8  9  2  0
  8 10  1  0
 10 11  1  0
 11 12  1  0
 14 13  1  6
 13 12  1  0
 14 15  1  0
 15  5  1  0
 16 18  1  0
 16 14  1  0
 17 16  2  0
 18 19  1  0
 20 19  1  0
 21 20  1  0
 22 18  1  0
 22 21  1  0
 22 23  1  6
 24 23  1  0
 25 23  2  0
M  END
$$$$
