SRP.pdb
     RDKit          3D

 25 25  0  0  1  0  0  0  0  0999 V2000
   10.1642  -12.5657   20.2105 O   0  0  0  0  0  0  0  0  0  0  0  0
    9.6836  -13.7960   19.7623 C   0  0  0  0  0  0  0  0  0  0  0  0
    8.1534  -13.8286   19.7746 C   0  0  2  0  0  0  0  0  0  0  0  0
    7.7043  -12.5849   19.1964 N   0  0  0  0  0  0  0  0  0  0  0  0
    7.7398  -13.9735   21.1882 C   0  0  0  0  0  0  0  0  0  0  0  0
    7.4079  -12.9577   21.8450 O   0  0  0  0  0  0  0  0  0  0  0  0
    6.8114  -21.5566   25.9182 N   0  0  0  0  0  0  0  0  0  0  0  0
    6.6813  -20.4700   26.8136 C   0  0  0  0  0  0  0  0  0  0  0  0
    6.5179  -20.6653   28.0825 N   0  0  0  0  0  0  0  0  0  0  0  0
    6.7223  -19.1099   26.3728 N   0  0  0  0  0  0  0  0  0  0  0  0
    6.8512  -18.7562   24.9812 C   0  0  0  0  0  0  0  0  0  0  0  0
    6.7800  -17.2300   24.8750 C   0  0  0  0  0  0  0  0  0  0  0  0
    7.1217  -16.8563   23.4797 C   0  0  0  0  0  0  0  0  0  0  0  0
    7.2220  -15.3607   23.2220 C   0  0  2  0  0  0  0  0  0  0  0  0
    7.6961  -15.2371   21.8636 N   0  0  0  0  0  0  0  0  0  0  0  0
    7.9613  -14.6180   24.2333 C   0  0  0  0  0  0  0  0  0  0  0  0
    9.2508  -14.7627   24.2564 O   0  0  0  0  0  0  0  0  0  0  0  0
    6.4000  -19.8448   28.7223 N   0  0  0  0  0  0  0  0  0  0  0  0
    7.4678  -13.7385   25.2196 C   0  0  0  0  0  0  0  0  0  0  0  0
    6.1022  -13.3578   25.3993 C   0  0  0  0  0  0  0  0  0  0  0  0
    6.0460  -12.7276   26.7649 C   0  0  0  0  0  0  0  0  0  0  0  0
    7.3885  -12.0417   26.8591 C   0  0  2  0  0  0  0  0  0  0  0  0
    8.2884  -13.0678   26.2036 C   0  0  0  0  0  0  0  0  0  0  0  0
    8.7627  -13.9786   27.2605 O   0  0  0  0  0  0  0  0  0  0  0  0
    8.2924  -15.2674   27.3455 O   0  0  0  0  0  0  0  0  0  0  0  0
  1  2  1  0
  3  4  1  1
  3  2  1  0
  5  3  1  0
  6  5  2  0
  7  8  1  0
  8  9  2  0
  8 10  1  0
 10 11  1  0
 11 12  1  0
 14 13  1  1
 13 12  1  0
 14 15  1  0
 15  5  1  0
 16 18  1  0
 16 14  1  0
 17 16  2  0
 18 19  1  0
 20 19  1  0
 21 20  1  0
 22 18  1  0
 22 21  1  0
 22 23  1  1
 24 23  1  0
 25 23  2  0
M  END
$$$$
