SRP.pdb
     RDKit          3D

 25 25  0  0  1  0  0  0  0  0999 V2000
   10.2270  -12.5293   20.2780 O   0  0  0  0  0  0  0  0  0  0  0  0
    9.7914  -13.8078   19.9299 C   0  0  0  0  0  0  0  0  0  0  0  0
    8.2663  -13.8581   19.8110 C   0  0  2  0  0  0  0  0  0  0  0  0
    7.8552  -12.6251   19.1838 N   0  0  0  0  0  0  0  0  0  0  0  0
    7.7341  -13.9949   21.1852 C   0  0  0  0  0  0  0  0  0  0  0  0
    7.2516  -12.9936   21.7664 O   0  0  0  0  0  0  0  0  0  0  0  0
    6.7705  -21.4928   25.9278 N   0  0  0  0  0  0  0  0  0  0  0  0
    7.1471  -20.4072   26.7519 C   0  0  0  0  0  0  0  0  0  0  0  0
    7.6895  -20.6041   27.9104 N   0  0  0  0  0  0  0  0  0  0  0  0
    6.9521  -19.0465   26.3566 N   0  0  0  0  0  0  0  0  0  0  0  0
    6.5806  -18.6821   25.0121 C   0  0  0  0  0  0  0  0  0  0  0  0
    6.6396  -17.1555   24.9050 C   0  0  0  0  0  0  0  0  0  0  0  0
    7.1073  -16.8148   23.5380 C   0  0  0  0  0  0  0  0  0  0  0  0
    7.2749  -15.3272   23.2691 C   0  0  2  0  0  0  0  0  0  0  0  0
    7.7393  -15.2345   21.9050 N   0  0  0  0  0  0  0  0  0  0  0  0
    8.0593  -14.6138   24.2674 C   0  0  0  0  0  0  0  0  0  0  0  0
    9.3477  -14.7670   24.2353 O   0  0  0  0  0  0  0  0  0  0  0  0
    7.9607  -19.7838   28.5019 N   0  0  0  0  0  0  0  0  0  0  0  0
    7.6120  -13.7554   25.2935 C   0  0  0  0  0  0  0  0  0  0  0  0
    6.2935  -13.2209   25.4274 C   0  0  0  0  0  0  0  0  0  0  0  0
    6.2244  -12.6923   26.8348 C   0  0  0  0  0  0  0  0  0  0  0  0
    7.6308  -12.1891   27.0599 C   0  0  2  0  0  0  0  0  0  0  0  0
    8.4413  -13.2682   26.3736 C   0  0  0  0  0  0  0  0  0  0  0  0
    8.7320  -14.3076   27.3770 O   0  0  0  0  0  0  0  0  0  0  0  0
    9.6775  -14.1017   28.3532 O   0  0  0  0  0  0  0  0  0  0  0  0
  1  2  1  0
  3  4  1  1
  3  2  1  0
  5  3  1  0
  6  5  2  0
  7  8  1  0
  8  9  2  0
  8 10  1  0
 10 11  1  0
 11 12  1  0
 14 13  1  1
 13 12  1  0
 14 15  1  0
 15  5  1  0
 16 18  1  0
 16 14  1  0
 17 16  2  0
 18 19  1  0
 20 19  1  0
 21 20  1  0
 22 18  1  0
 22 21  1  0
 22 23  1  1
 24 23  1  0
 25 23  2  0
M  END
$$$$
