TEE.pdb
     RDKit          3D

 26 25  0  0  1  0  0  0  0  0999 V2000
    7.3954  -12.5973   19.9171 C   0  0  0  0  0  0  0  0  0  0  0  0
    8.2379  -13.6008   20.6724 C   0  0  1  0  0  0  0  0  0  0  0  0
    7.7643  -13.7365   21.9602 O   0  0  0  0  0  0  0  0  0  0  0  0
    8.1988  -14.9216   19.9182 C   0  0  2  0  0  0  0  0  0  0  0  0
    6.8010  -15.3574   19.8066 N   0  0  0  0  0  0  0  0  0  0  0  0
    8.9566  -15.9295   20.6856 C   0  0  0  0  0  0  0  0  0  0  0  0
    8.2982  -16.7699   21.3519 O   0  0  0  0  0  0  0  0  0  0  0  0
   10.3735  -15.9879   20.7017 N   0  0  0  0  0  0  0  0  0  0  0  0
   11.0338  -17.0563   21.4714 C   0  0  1  0  0  0  0  0  0  0  0  0
   12.4305  -17.2544   20.9444 C   0  0  0  0  0  0  0  0  0  0  0  0
   13.1158  -18.3624   21.6804 C   0  0  0  0  0  0  0  0  0  0  0  0
   14.4883  -18.6098   21.1281 C   0  0  0  0  0  0  0  0  0  0  0  0
   15.4260  -18.9562   21.8608 O   0  0  0  0  0  0  0  0  0  0  0  0
   10.9458  -16.7501   22.9175 C   0  0  0  0  0  0  0  0  0  0  0  0
   11.2944  -15.6666   23.3848 O   0  0  0  0  0  0  0  0  0  0  0  0
   14.6708  -18.4384   19.7760 O   0  0  0  0  0  0  0  0  0  0  0  0
   10.4391  -17.7375   23.8257 N   0  0  0  0  0  0  0  0  0  0  0  0
   10.2281  -17.5205   25.2298 C   0  0  1  0  0  0  0  0  0  0  0  0
    8.8162  -17.5200   25.6820 C   0  0  0  0  0  0  0  0  0  0  0  0
    7.8713  -16.5998   25.0121 C   0  0  0  0  0  0  0  0  0  0  0  0
    6.4784  -16.7201   25.4844 C   0  0  0  0  0  0  0  0  0  0  0  0
    6.1045  -17.5707   26.3058 O   0  0  0  0  0  0  0  0  0  0  0  0
   11.0717  -18.4331   26.0218 C   0  0  0  0  0  0  0  0  0  0  0  0
   11.6106  -19.4167   25.4707 O   0  0  0  0  0  0  0  0  0  0  0  0
    5.4953  -15.8373   24.9961 O   0  0  0  0  0  0  0  0  0  0  0  0
   11.2879  -18.2333   27.3685 O   0  0  0  0  0  0  0  0  0  0  0  0
  2  1  1  6
  2  4  1  0
  2  3  1  0
  4  5  1  1
  6  4  1  0
  7  6  2  0
  8  6  1  0
  9  8  1  0
  9 10  1  6
 11 10  1  0
 12 11  1  0
 12 13  2  0
 14 15  2  0
 14  9  1  0
 16 12  1  0
 17 14  1  0
 18 17  1  0
 18 19  1  6
 20 21  1  0
 20 19  1  0
 21 22  2  0
 23 18  1  0
 24 23  2  0
 25 21  1  0
 26 23  1  0
M  END
$$$$
