TEE.pdb
     RDKit          3D

 26 25  0  0  1  0  0  0  0  0999 V2000
   14.7112  -18.0525   15.4161 C   0  0  0  0  0  0  0  0  0  0  0  0
   15.5645  -16.8414   15.7200 C   0  0  1  0  0  0  0  0  0  0  0  0
   16.8001  -16.9760   15.1230 O   0  0  0  0  0  0  0  0  0  0  0  0
   14.8326  -15.6039   15.2221 C   0  0  2  0  0  0  0  0  0  0  0  0
   15.8261  -14.6146   14.7858 N   0  0  0  0  0  0  0  0  0  0  0  0
   14.0465  -15.0369   16.3353 C   0  0  0  0  0  0  0  0  0  0  0  0
   14.6031  -14.1709   17.0592 O   0  0  0  0  0  0  0  0  0  0  0  0
   12.7110  -15.4222   16.6172 N   0  0  0  0  0  0  0  0  0  0  0  0
   12.0479  -14.8724   17.8121 C   0  0  1  0  0  0  0  0  0  0  0  0
   10.5614  -14.8267   17.5756 C   0  0  0  0  0  0  0  0  0  0  0  0
   10.0584  -16.1679   17.1432 C   0  0  0  0  0  0  0  0  0  0  0  0
    8.5705  -16.1512   16.9531 C   0  0  0  0  0  0  0  0  0  0  0  0
    8.0606  -16.3256   15.8371 O   0  0  0  0  0  0  0  0  0  0  0  0
   12.4704  -15.6373   19.0076 C   0  0  0  0  0  0  0  0  0  0  0  0
   12.4617  -16.8672   19.0408 O   0  0  0  0  0  0  0  0  0  0  0  0
    7.7893  -15.9350   18.0638 O   0  0  0  0  0  0  0  0  0  0  0  0
   12.9094  -14.9402   20.1814 N   0  0  0  0  0  0  0  0  0  0  0  0
   13.3609  -15.5783   21.3864 C   0  0  1  0  0  0  0  0  0  0  0  0
   14.5816  -15.0083   22.0051 C   0  0  0  0  0  0  0  0  0  0  0  0
   15.8527  -15.1061   21.2547 C   0  0  0  0  0  0  0  0  0  0  0  0
   17.0113  -14.5198   21.9559 C   0  0  0  0  0  0  0  0  0  0  0  0
   17.2859  -13.3106   21.9330 O   0  0  0  0  0  0  0  0  0  0  0  0
   12.2502  -15.7042   22.3467 C   0  0  0  0  0  0  0  0  0  0  0  0
   11.1640  -15.1298   22.1193 O   0  0  0  0  0  0  0  0  0  0  0  0
   17.8720  -15.3499   22.7004 O   0  0  0  0  0  0  0  0  0  0  0  0
   12.3733  -16.4450   23.5028 O   0  0  0  0  0  0  0  0  0  0  0  0
  2  1  1  6
  2  4  1  0
  2  3  1  0
  4  5  1  1
  6  4  1  0
  7  6  2  0
  8  6  1  0
  9  8  1  0
  9 10  1  6
 11 10  1  0
 12 11  1  0
 12 13  2  0
 14 15  2  0
 14  9  1  0
 16 12  1  0
 17 14  1  0
 18 17  1  0
 18 19  1  1
 20 21  1  0
 20 19  1  0
 21 22  2  0
 23 18  1  0
 24 23  2  0
 25 21  1  0
 26 23  1  0
M  END
$$$$
