TEE.pdb
     RDKit          3D

 26 25  0  0  1  0  0  0  0  0999 V2000
    8.5470  -13.4937   17.8696 C   0  0  0  0  0  0  0  0  0  0  0  0
    8.5185  -14.2792   19.1617 C   0  0  1  0  0  0  0  0  0  0  0  0
    9.6776  -14.0540   19.8737 O   0  0  0  0  0  0  0  0  0  0  0  0
    7.2859  -13.8596   19.9490 C   0  0  2  0  0  0  0  0  0  0  0  0
    7.3641  -12.4166   20.2095 N   0  0  0  0  0  0  0  0  0  0  0  0
    7.2767  -14.5807   21.2370 C   0  0  0  0  0  0  0  0  0  0  0  0
    7.6021  -13.9358   22.2676 O   0  0  0  0  0  0  0  0  0  0  0  0
    6.9216  -15.9484   21.3578 N   0  0  0  0  0  0  0  0  0  0  0  0
    6.9236  -16.5697   22.6934 C   0  0  1  0  0  0  0  0  0  0  0  0
    6.2217  -17.9001   22.6207 C   0  0  0  0  0  0  0  0  0  0  0  0
    6.8188  -18.8614   23.5996 C   0  0  0  0  0  0  0  0  0  0  0  0
    6.0886  -20.1716   23.5839 C   0  0  0  0  0  0  0  0  0  0  0  0
    6.1451  -20.9303   22.6055 O   0  0  0  0  0  0  0  0  0  0  0  0
    8.3092  -16.6184   23.2136 C   0  0  0  0  0  0  0  0  0  0  0  0
    9.2844  -16.7722   22.4795 O   0  0  0  0  0  0  0  0  0  0  0  0
    5.3518  -20.5031   24.6966 O   0  0  0  0  0  0  0  0  0  0  0  0
    8.5471  -16.4835   24.6213 N   0  0  0  0  0  0  0  0  0  0  0  0
    9.8490  -16.4148   25.2243 C   0  0  1  0  0  0  0  0  0  0  0  0
   10.0706  -15.2905   26.1648 C   0  0  0  0  0  0  0  0  0  0  0  0
    9.4198  -15.3546   27.4917 C   0  0  0  0  0  0  0  0  0  0  0  0
    9.4608  -14.0853   28.2433 C   0  0  0  0  0  0  0  0  0  0  0  0
    9.9109  -13.0276   27.7777 O   0  0  0  0  0  0  0  0  0  0  0  0
   10.2119  -17.7175   25.8099 C   0  0  0  0  0  0  0  0  0  0  0  0
   11.3763  -17.9119   26.2196 O   0  0  0  0  0  0  0  0  0  0  0  0
    8.9705  -14.0373   29.5630 O   0  0  0  0  0  0  0  0  0  0  0  0
    9.2956  -18.7414   25.9215 O   0  0  0  0  0  0  0  0  0  0  0  0
  2  1  1  6
  2  4  1  0
  2  3  1  0
  4  5  1  1
  6  4  1  0
  7  6  2  0
  8  6  1  0
  9  8  1  0
  9 10  1  6
 11 10  1  0
 12 11  1  0
 12 13  2  0
 14 15  2  0
 14  9  1  0
 16 12  1  0
 17 14  1  0
 18 17  1  0
 18 19  1  1
 20 21  1  0
 20 19  1  0
 21 22  2  0
 23 18  1  0
 24 23  2  0
 25 21  1  0
 26 23  1  0
M  END
$$$$
