TEE.pdb
     RDKit          3D

 26 25  0  0  1  0  0  0  0  0999 V2000
   16.6669  -20.6833   18.5150 C   0  0  0  0  0  0  0  0  0  0  0  0
   16.5162  -19.6122   17.4580 C   0  0  1  0  0  0  0  0  0  0  0  0
   16.8591  -20.1202   16.2228 O   0  0  0  0  0  0  0  0  0  0  0  0
   15.0778  -19.1168   17.4811 C   0  0  2  0  0  0  0  0  0  0  0  0
   14.8922  -18.1621   16.3810 N   0  0  0  0  0  0  0  0  0  0  0  0
   14.8337  -18.4265   18.7628 C   0  0  0  0  0  0  0  0  0  0  0  0
   15.5511  -17.4281   19.0322 O   0  0  0  0  0  0  0  0  0  0  0  0
   13.8396  -18.8361   19.6877 N   0  0  0  0  0  0  0  0  0  0  0  0
   13.7122  -18.1120   20.9641 C   0  0  1  0  0  0  0  0  0  0  0  0
   12.3219  -18.3096   21.5079 C   0  0  0  0  0  0  0  0  0  0  0  0
   12.2111  -17.7333   22.8843 C   0  0  0  0  0  0  0  0  0  0  0  0
   10.8070  -17.8374   23.4020 C   0  0  0  0  0  0  0  0  0  0  0  0
   10.2172  -16.8531   23.8704 O   0  0  0  0  0  0  0  0  0  0  0  0
   14.8065  -18.5195   21.8747 C   0  0  0  0  0  0  0  0  0  0  0  0
   15.0703  -19.6995   22.1022 O   0  0  0  0  0  0  0  0  0  0  0  0
   10.1948  -19.0670   23.3386 O   0  0  0  0  0  0  0  0  0  0  0  0
   15.6010  -17.5194   22.5265 N   0  0  0  0  0  0  0  0  0  0  0  0
   16.7076  -17.7992   23.3985 C   0  0  1  0  0  0  0  0  0  0  0  0
   17.9847  -17.1246   23.0641 C   0  0  0  0  0  0  0  0  0  0  0  0
   18.0013  -15.6459   23.0254 C   0  0  0  0  0  0  0  0  0  0  0  0
   19.1535  -15.0765   22.3000 C   0  0  0  0  0  0  0  0  0  0  0  0
   19.0580  -14.1482   21.4833 O   0  0  0  0  0  0  0  0  0  0  0  0
   16.3161  -17.5962   24.8046 C   0  0  0  0  0  0  0  0  0  0  0  0
   15.2257  -17.0481   25.0731 O   0  0  0  0  0  0  0  0  0  0  0  0
   20.4452  -15.5919   22.5238 O   0  0  0  0  0  0  0  0  0  0  0  0
   17.1250  -17.9972   25.8463 O   0  0  0  0  0  0  0  0  0  0  0  0
  2  1  1  1
  2  4  1  0
  2  3  1  0
  4  5  1  6
  6  4  1  0
  7  6  2  0
  8  6  1  0
  9  8  1  0
  9 10  1  1
 11 10  1  0
 12 11  1  0
 12 13  2  0
 14 15  2  0
 14  9  1  0
 16 12  1  0
 17 14  1  0
 18 17  1  0
 18 19  1  6
 20 21  1  0
 20 19  1  0
 21 22  2  0
 23 18  1  0
 24 23  2  0
 25 21  1  0
 26 23  1  0
M  END
$$$$
