TEE.pdb
     RDKit          3D

 26 25  0  0  1  0  0  0  0  0999 V2000
    7.2150  -14.2225   16.9455 C   0  0  0  0  0  0  0  0  0  0  0  0
    8.0948  -14.6364   18.1039 C   0  0  1  0  0  0  0  0  0  0  0  0
    9.3808  -14.8606   17.6599 O   0  0  0  0  0  0  0  0  0  0  0  0
    8.0479  -13.5381   19.1559 C   0  0  2  0  0  0  0  0  0  0  0  0
    8.5802  -12.3021   18.5683 N   0  0  0  0  0  0  0  0  0  0  0  0
    8.8995  -13.9344   20.2946 C   0  0  0  0  0  0  0  0  0  0  0  0
   10.0882  -13.5214   20.3040 O   0  0  0  0  0  0  0  0  0  0  0  0
    8.4394  -14.7483   21.3610 N   0  0  0  0  0  0  0  0  0  0  0  0
    9.3532  -15.0424   22.4783 C   0  0  1  0  0  0  0  0  0  0  0  0
    8.5648  -15.6255   23.6213 C   0  0  0  0  0  0  0  0  0  0  0  0
    7.5545  -14.6396   24.1174 C   0  0  0  0  0  0  0  0  0  0  0  0
    6.7453  -15.2150   25.2419 C   0  0  0  0  0  0  0  0  0  0  0  0
    6.0687  -14.4911   25.9863 O   0  0  0  0  0  0  0  0  0  0  0  0
   10.4717  -15.8830   21.9937 C   0  0  0  0  0  0  0  0  0  0  0  0
   10.2939  -16.8738   21.2862 O   0  0  0  0  0  0  0  0  0  0  0  0
    6.7803  -16.5782   25.4186 O   0  0  0  0  0  0  0  0  0  0  0  0
   11.8202  -15.5493   22.3495 N   0  0  0  0  0  0  0  0  0  0  0  0
   12.9776  -16.3002   21.9496 C   0  0  1  0  0  0  0  0  0  0  0  0
   13.9583  -15.5801   21.1027 C   0  0  0  0  0  0  0  0  0  0  0  0
   13.4444  -14.7821   19.9680 C   0  0  0  0  0  0  0  0  0  0  0  0
   14.4964  -14.1140   19.1777 C   0  0  0  0  0  0  0  0  0  0  0  0
   14.5491  -12.8869   19.0059 O   0  0  0  0  0  0  0  0  0  0  0  0
   13.6062  -16.9355   23.1213 C   0  0  0  0  0  0  0  0  0  0  0  0
   13.2038  -16.6552   24.2707 O   0  0  0  0  0  0  0  0  0  0  0  0
   15.5104  -14.8816   18.5721 O   0  0  0  0  0  0  0  0  0  0  0  0
   14.6371  -17.8408   22.9877 O   0  0  0  0  0  0  0  0  0  0  0  0
  2  1  1  6
  2  4  1  0
  2  3  1  0
  4  5  1  6
  6  4  1  0
  7  6  2  0
  8  6  1  0
  9  8  1  0
  9 10  1  1
 11 10  1  0
 12 11  1  0
 12 13  2  0
 14 15  2  0
 14  9  1  0
 16 12  1  0
 17 14  1  0
 18 17  1  0
 18 19  1  1
 20 21  1  0
 20 19  1  0
 21 22  2  0
 23 18  1  0
 24 23  2  0
 25 21  1  0
 26 23  1  0
M  END
$$$$
