TEE.pdb
     RDKit          3D

 26 25  0  0  1  0  0  0  0  0999 V2000
    7.7457  -19.4973   20.3484 C   0  0  0  0  0  0  0  0  0  0  0  0
    8.6884  -18.4790   19.7470 C   0  0  1  0  0  0  0  0  0  0  0  0
    8.1810  -18.0189   18.5502 O   0  0  0  0  0  0  0  0  0  0  0  0
    8.8740  -17.3492   20.7490 C   0  0  2  0  0  0  0  0  0  0  0  0
    9.1749  -16.1142   20.0138 N   0  0  0  0  0  0  0  0  0  0  0  0
   10.0147  -17.6757   21.6271 C   0  0  0  0  0  0  0  0  0  0  0  0
    9.9543  -18.7461   22.2862 O   0  0  0  0  0  0  0  0  0  0  0  0
   11.1573  -16.8454   21.7557 N   0  0  0  0  0  0  0  0  0  0  0  0
   12.2651  -17.2868   22.6204 C   0  0  1  0  0  0  0  0  0  0  0  0
   13.4869  -16.4594   22.3197 C   0  0  0  0  0  0  0  0  0  0  0  0
   14.6249  -16.8659   23.2020 C   0  0  0  0  0  0  0  0  0  0  0  0
   15.8499  -16.0493   22.9142 C   0  0  0  0  0  0  0  0  0  0  0  0
   16.9673  -16.5757   22.8126 O   0  0  0  0  0  0  0  0  0  0  0  0
   11.8261  -17.2675   24.0345 C   0  0  0  0  0  0  0  0  0  0  0  0
   11.4414  -16.2404   24.5918 O   0  0  0  0  0  0  0  0  0  0  0  0
   15.6895  -14.6916   22.7663 O   0  0  0  0  0  0  0  0  0  0  0  0
   11.8415  -18.4786   24.8022 N   0  0  0  0  0  0  0  0  0  0  0  0
   11.4728  -18.5695   26.1875 C   0  0  1  0  0  0  0  0  0  0  0  0
   11.1205  -19.9233   26.6783 C   0  0  0  0  0  0  0  0  0  0  0  0
   10.7949  -20.0805   28.1128 C   0  0  0  0  0  0  0  0  0  0  0  0
   10.4075  -21.4524   28.4944 C   0  0  0  0  0  0  0  0  0  0  0  0
   11.2023  -22.4038   28.5299 O   0  0  0  0  0  0  0  0  0  0  0  0
   12.4857  -17.9114   27.0316 C   0  0  0  0  0  0  0  0  0  0  0  0
   13.6902  -17.9504   26.7014 O   0  0  0  0  0  0  0  0  0  0  0  0
    9.0714  -21.7310   28.8428 O   0  0  0  0  0  0  0  0  0  0  0  0
   12.1418  -17.2456   28.1887 O   0  0  0  0  0  0  0  0  0  0  0  0
  2  1  1  1
  2  4  1  0
  2  3  1  0
  4  5  1  6
  6  4  1  0
  7  6  2  0
  8  6  1  0
  9  8  1  0
  9 10  1  1
 11 10  1  0
 12 11  1  0
 12 13  2  0
 14 15  2  0
 14  9  1  0
 16 12  1  0
 17 14  1  0
 18 17  1  0
 18 19  1  1
 20 21  1  0
 20 19  1  0
 21 22  2  0
 23 18  1  0
 24 23  2  0
 25 21  1  0
 26 23  1  0
M  END
$$$$
