TEE.pdb
     RDKit          3D

 26 25  0  0  1  0  0  0  0  0999 V2000
   15.6645  -19.4488   16.2637 C   0  0  0  0  0  0  0  0  0  0  0  0
   15.5662  -19.0646   17.7232 C   0  0  1  0  0  0  0  0  0  0  0  0
   16.1236  -17.8188   17.9192 O   0  0  0  0  0  0  0  0  0  0  0  0
   14.0995  -19.0928   18.1271 C   0  0  2  0  0  0  0  0  0  0  0  0
   13.3776  -18.0815   17.3446 N   0  0  0  0  0  0  0  0  0  0  0  0
   13.9950  -18.7563   19.5605 C   0  0  0  0  0  0  0  0  0  0  0  0
   14.2544  -17.5729   19.9011 O   0  0  0  0  0  0  0  0  0  0  0  0
   13.6199  -19.6974   20.5530 N   0  0  0  0  0  0  0  0  0  0  0  0
   13.5145  -19.2524   21.9532 C   0  0  1  0  0  0  0  0  0  0  0  0
   12.3963  -20.0025   22.6275 C   0  0  0  0  0  0  0  0  0  0  0  0
   12.3479  -19.6710   24.0858 C   0  0  0  0  0  0  0  0  0  0  0  0
   11.2620  -20.4397   24.7787 C   0  0  0  0  0  0  0  0  0  0  0  0
   10.5402  -21.2359   24.1614 O   0  0  0  0  0  0  0  0  0  0  0  0
   14.8362  -19.3714   22.6103 C   0  0  0  0  0  0  0  0  0  0  0  0
   15.5279  -20.3851   22.5219 O   0  0  0  0  0  0  0  0  0  0  0  0
   11.0947  -20.2297   26.1273 O   0  0  0  0  0  0  0  0  0  0  0  0
   15.3490  -18.2778   23.3832 N   0  0  0  0  0  0  0  0  0  0  0  0
   16.6215  -18.2775   24.0495 C   0  0  1  0  0  0  0  0  0  0  0  0
   17.1987  -16.9448   24.3469 C   0  0  0  0  0  0  0  0  0  0  0  0
   17.0594  -15.8827   23.3265 C   0  0  0  0  0  0  0  0  0  0  0  0
   18.3427  -15.3102   22.8759 C   0  0  0  0  0  0  0  0  0  0  0  0
   19.4470  -15.6934   23.2902 O   0  0  0  0  0  0  0  0  0  0  0  0
   16.5784  -19.1492   25.2370 C   0  0  0  0  0  0  0  0  0  0  0  0
   15.4780  -19.4533   25.7449 O   0  0  0  0  0  0  0  0  0  0  0  0
   18.3497  -14.2711   21.9248 O   0  0  0  0  0  0  0  0  0  0  0  0
   17.7284  -19.6459   25.8123 O   0  0  0  0  0  0  0  0  0  0  0  0
  2  1  1  6
  2  4  1  0
  2  3  1  0
  4  5  1  6
  6  4  1  0
  7  6  2  0
  8  6  1  0
  9  8  1  0
  9 10  1  1
 11 10  1  0
 12 11  1  0
 12 13  2  0
 14 15  2  0
 14  9  1  0
 16 12  1  0
 17 14  1  0
 18 17  1  0
 18 19  1  1
 20 21  1  0
 20 19  1  0
 21 22  2  0
 23 18  1  0
 24 23  2  0
 25 21  1  0
 26 23  1  0
M  END
$$$$
