TEE.pdb
     RDKit          3D

 26 25  0  0  1  0  0  0  0  0999 V2000
    9.6692  -12.5490   20.0969 C   0  0  0  0  0  0  0  0  0  0  0  0
    8.3053  -12.8053   19.4958 C   0  0  1  0  0  0  0  0  0  0  0  0
    8.1427  -12.0427   18.3585 O   0  0  0  0  0  0  0  0  0  0  0  0
    8.1870  -14.2923   19.1958 C   0  0  2  0  0  0  0  0  0  0  0  0
    6.8634  -14.5501   18.6145 N   0  0  0  0  0  0  0  0  0  0  0  0
    8.3111  -15.0433   20.4605 C   0  0  0  0  0  0  0  0  0  0  0  0
    7.4051  -14.8894   21.3203 O   0  0  0  0  0  0  0  0  0  0  0  0
    9.3923  -15.9172   20.7408 N   0  0  0  0  0  0  0  0  0  0  0  0
    9.4169  -16.6295   22.0300 C   0  0  1  0  0  0  0  0  0  0  0  0
   10.1546  -17.9315   21.8614 C   0  0  0  0  0  0  0  0  0  0  0  0
   11.6330  -17.7054   21.9061 C   0  0  0  0  0  0  0  0  0  0  0  0
   12.3819  -18.9613   21.5712 C   0  0  0  0  0  0  0  0  0  0  0  0
   13.2142  -18.9912   20.6534 O   0  0  0  0  0  0  0  0  0  0  0  0
    9.9554  -15.7339   23.0791 C   0  0  0  0  0  0  0  0  0  0  0  0
   10.4346  -14.6303   22.8221 O   0  0  0  0  0  0  0  0  0  0  0  0
   12.1121  -20.0822   22.3206 O   0  0  0  0  0  0  0  0  0  0  0  0
    9.9281  -16.1473   24.4520 N   0  0  0  0  0  0  0  0  0  0  0  0
    9.5490  -15.3019   25.5496 C   0  0  1  0  0  0  0  0  0  0  0  0
    8.3107  -14.5089   25.3612 C   0  0  0  0  0  0  0  0  0  0  0  0
    7.8888  -13.6068   26.4551 C   0  0  0  0  0  0  0  0  0  0  0  0
    6.6592  -12.8442   26.1649 C   0  0  0  0  0  0  0  0  0  0  0  0
    5.7801  -13.2340   25.3817 O   0  0  0  0  0  0  0  0  0  0  0  0
    9.5393  -16.0692   26.8077 C   0  0  0  0  0  0  0  0  0  0  0  0
    9.1455  -17.2551   26.8093 O   0  0  0  0  0  0  0  0  0  0  0  0
    6.4407  -11.6031   26.7942 O   0  0  0  0  0  0  0  0  0  0  0  0
    9.9562  -15.5127   27.9981 O   0  0  0  0  0  0  0  0  0  0  0  0
  2  1  1  6
  2  4  1  0
  2  3  1  0
  4  5  1  1
  6  4  1  0
  7  6  2  0
  8  6  1  0
  9  8  1  0
  9 10  1  6
 11 10  1  0
 12 11  1  0
 12 13  2  0
 14 15  2  0
 14  9  1  0
 16 12  1  0
 17 14  1  0
 18 17  1  0
 18 19  1  6
 20 21  1  0
 20 19  1  0
 21 22  2  0
 23 18  1  0
 24 23  2  0
 25 21  1  0
 26 23  1  0
M  END
$$$$
