TEE.pdb
     RDKit          3D

 26 25  0  0  1  0  0  0  0  0999 V2000
    7.6556  -12.6185   19.5236 C   0  0  0  0  0  0  0  0  0  0  0  0
    8.3616  -13.5343   20.4984 C   0  0  1  0  0  0  0  0  0  0  0  0
    7.9889  -13.2231   21.7890 O   0  0  0  0  0  0  0  0  0  0  0  0
    8.0101  -14.9717   20.1442 C   0  0  2  0  0  0  0  0  0  0  0  0
    6.5526  -15.1318   20.2234 N   0  0  0  0  0  0  0  0  0  0  0  0
    8.6466  -15.8720   21.1256 C   0  0  0  0  0  0  0  0  0  0  0  0
    7.9246  -16.3305   22.0488 O   0  0  0  0  0  0  0  0  0  0  0  0
   10.0164  -16.2353   21.0708 N   0  0  0  0  0  0  0  0  0  0  0  0
   10.5757  -17.0704   22.1476 C   0  0  1  0  0  0  0  0  0  0  0  0
   11.8044  -17.7764   21.6382 C   0  0  0  0  0  0  0  0  0  0  0  0
   11.4959  -19.2075   21.3289 C   0  0  0  0  0  0  0  0  0  0  0  0
   12.5545  -19.8116   20.4545 C   0  0  0  0  0  0  0  0  0  0  0  0
   13.7435  -19.8354   20.8033 O   0  0  0  0  0  0  0  0  0  0  0  0
   10.7835  -16.2425   23.3576 C   0  0  0  0  0  0  0  0  0  0  0  0
   11.0768  -15.0492   23.2980 O   0  0  0  0  0  0  0  0  0  0  0  0
   12.1586  -20.3399   19.2483 O   0  0  0  0  0  0  0  0  0  0  0  0
   10.6431  -16.8320   24.6573 N   0  0  0  0  0  0  0  0  0  0  0  0
   10.5161  -16.0881   25.8795 C   0  0  1  0  0  0  0  0  0  0  0  0
    9.3393  -15.1915   25.9749 C   0  0  0  0  0  0  0  0  0  0  0  0
    9.1618  -14.4059   27.2157 C   0  0  0  0  0  0  0  0  0  0  0  0
    7.9544  -13.5574   27.2223 C   0  0  0  0  0  0  0  0  0  0  0  0
    7.0849  -13.5962   26.3388 O   0  0  0  0  0  0  0  0  0  0  0  0
   10.6333  -16.9873   27.0412 C   0  0  0  0  0  0  0  0  0  0  0  0
   10.1732  -18.1474   26.9779 O   0  0  0  0  0  0  0  0  0  0  0  0
    7.7473  -12.6433   28.2739 O   0  0  0  0  0  0  0  0  0  0  0  0
   11.2422  -16.5838   28.2103 O   0  0  0  0  0  0  0  0  0  0  0  0
  2  1  1  6
  2  4  1  0
  2  3  1  0
  4  5  1  1
  6  4  1  0
  7  6  2  0
  8  6  1  0
  9  8  1  0
  9 10  1  6
 11 10  1  0
 12 11  1  0
 12 13  2  0
 14 15  2  0
 14  9  1  0
 16 12  1  0
 17 14  1  0
 18 17  1  0
 18 19  1  6
 20 21  1  0
 20 19  1  0
 21 22  2  0
 23 18  1  0
 24 23  2  0
 25 21  1  0
 26 23  1  0
M  END
$$$$
