TEE.pdb
     RDKit          3D

 26 25  0  0  1  0  0  0  0  0999 V2000
    7.2368  -12.6694   19.5199 C   0  0  0  0  0  0  0  0  0  0  0  0
    8.2025  -13.6147   20.1990 C   0  0  1  0  0  0  0  0  0  0  0  0
    8.1048  -13.4820   21.5680 O   0  0  0  0  0  0  0  0  0  0  0  0
    7.8808  -15.0319   19.7483 C   0  0  2  0  0  0  0  0  0  0  0  0
    6.5641  -15.4060   20.2798 N   0  0  0  0  0  0  0  0  0  0  0  0
    8.8992  -15.9480   20.2984 C   0  0  0  0  0  0  0  0  0  0  0  0
    8.5844  -16.6292   21.3087 O   0  0  0  0  0  0  0  0  0  0  0  0
   10.1966  -16.0891   19.7432 N   0  0  0  0  0  0  0  0  0  0  0  0
   11.0916  -17.1291   20.2791 C   0  0  1  0  0  0  0  0  0  0  0  0
   12.0596  -17.5497   19.2050 C   0  0  0  0  0  0  0  0  0  0  0  0
   12.9797  -18.6131   19.7163 C   0  0  0  0  0  0  0  0  0  0  0  0
   13.9778  -19.0126   18.6701 C   0  0  0  0  0  0  0  0  0  0  0  0
   13.6979  -19.8449   17.7955 O   0  0  0  0  0  0  0  0  0  0  0  0
   11.7152  -16.6464   21.5324 C   0  0  0  0  0  0  0  0  0  0  0  0
   12.3685  -15.6052   21.5857 O   0  0  0  0  0  0  0  0  0  0  0  0
   15.2184  -18.4212   18.7152 O   0  0  0  0  0  0  0  0  0  0  0  0
   11.5656  -17.4040   22.7408 N   0  0  0  0  0  0  0  0  0  0  0  0
   12.1777  -17.0655   23.9953 C   0  0  1  0  0  0  0  0  0  0  0  0
   11.7047  -17.8278   25.1755 C   0  0  0  0  0  0  0  0  0  0  0  0
   12.3567  -17.5693   26.4780 C   0  0  0  0  0  0  0  0  0  0  0  0
   11.8404  -18.3990   27.5838 C   0  0  0  0  0  0  0  0  0  0  0  0
   10.9135  -19.2128   27.4547 O   0  0  0  0  0  0  0  0  0  0  0  0
   13.6459  -17.0786   23.8691 C   0  0  0  0  0  0  0  0  0  0  0  0
   14.3197  -16.1446   24.3543 O   0  0  0  0  0  0  0  0  0  0  0  0
   12.4084  -18.2857   28.8678 O   0  0  0  0  0  0  0  0  0  0  0  0
   14.3079  -18.1016   23.2246 O   0  0  0  0  0  0  0  0  0  0  0  0
  2  1  1  6
  2  4  1  0
  2  3  1  0
  4  5  1  1
  6  4  1  0
  7  6  2  0
  8  6  1  0
  9  8  1  0
  9 10  1  6
 11 10  1  0
 12 11  1  0
 12 13  2  0
 14 15  2  0
 14  9  1  0
 16 12  1  0
 17 14  1  0
 18 17  1  0
 18 19  1  1
 20 21  1  0
 20 19  1  0
 21 22  2  0
 23 18  1  0
 24 23  2  0
 25 21  1  0
 26 23  1  0
M  END
$$$$
