TEE.pdb
     RDKit          3D

 26 25  0  0  1  0  0  0  0  0999 V2000
    9.1460  -12.3435   20.0557 C   0  0  0  0  0  0  0  0  0  0  0  0
    8.1359  -13.1355   19.2558 C   0  0  1  0  0  0  0  0  0  0  0  0
    7.0846  -12.3218   18.8900 O   0  0  0  0  0  0  0  0  0  0  0  0
    8.8412  -13.7209   18.0413 C   0  0  2  0  0  0  0  0  0  0  0  0
    7.8639  -14.4817   17.2523 N   0  0  0  0  0  0  0  0  0  0  0  0
    9.9026  -14.6365   18.5038 C   0  0  0  0  0  0  0  0  0  0  0  0
    9.5502  -15.7624   18.9419 O   0  0  0  0  0  0  0  0  0  0  0  0
   11.2810  -14.3039   18.4747 N   0  0  0  0  0  0  0  0  0  0  0  0
   12.2688  -15.3259   18.8612 C   0  0  1  0  0  0  0  0  0  0  0  0
   13.3574  -15.3793   17.8220 C   0  0  0  0  0  0  0  0  0  0  0  0
   12.8417  -15.9833   16.5539 C   0  0  0  0  0  0  0  0  0  0  0  0
   13.9406  -16.1419   15.5452 C   0  0  0  0  0  0  0  0  0  0  0  0
   14.6066  -15.1709   15.1584 O   0  0  0  0  0  0  0  0  0  0  0  0
   12.7325  -15.0671   20.2435 C   0  0  0  0  0  0  0  0  0  0  0  0
   13.1857  -13.9784   20.5943 O   0  0  0  0  0  0  0  0  0  0  0  0
   14.1843  -17.4064   15.0630 O   0  0  0  0  0  0  0  0  0  0  0  0
   12.6603  -16.1089   21.2263 N   0  0  0  0  0  0  0  0  0  0  0  0
   13.1023  -15.9772   22.5867 C   0  0  1  0  0  0  0  0  0  0  0  0
   12.5065  -16.9256   23.5579 C   0  0  0  0  0  0  0  0  0  0  0  0
   12.9911  -16.8871   24.9551 C   0  0  0  0  0  0  0  0  0  0  0  0
   12.4146  -17.9343   25.8203 C   0  0  0  0  0  0  0  0  0  0  0  0
   11.5477  -18.7360   25.4409 O   0  0  0  0  0  0  0  0  0  0  0  0
   14.5746  -15.9607   22.6478 C   0  0  0  0  0  0  0  0  0  0  0  0
   15.2391  -16.5806   21.7901 O   0  0  0  0  0  0  0  0  0  0  0  0
   12.8499  -18.0578   27.1543 O   0  0  0  0  0  0  0  0  0  0  0  0
   15.2504  -15.2742   23.6339 O   0  0  0  0  0  0  0  0  0  0  0  0
  2  1  1  6
  2  4  1  0
  2  3  1  0
  4  5  1  6
  6  4  1  0
  7  6  2  0
  8  6  1  0
  9  8  1  0
  9 10  1  6
 11 10  1  0
 12 11  1  0
 12 13  2  0
 14 15  2  0
 14  9  1  0
 16 12  1  0
 17 14  1  0
 18 17  1  0
 18 19  1  1
 20 21  1  0
 20 19  1  0
 21 22  2  0
 23 18  1  0
 24 23  2  0
 25 21  1  0
 26 23  1  0
M  END
$$$$
