TEE.pdb
     RDKit          3D

 26 25  0  0  1  0  0  0  0  0999 V2000
    9.6207  -18.5135   23.8671 C   0  0  0  0  0  0  0  0  0  0  0  0
   10.2337  -19.2168   25.0575 C   0  0  1  0  0  0  0  0  0  0  0  0
    9.2466  -19.5723   25.9522 O   0  0  0  0  0  0  0  0  0  0  0  0
   10.9979  -20.4320   24.5532 C   0  0  2  0  0  0  0  0  0  0  0  0
   10.0341  -21.4102   24.0330 N   0  0  0  0  0  0  0  0  0  0  0  0
   11.7315  -21.0345   25.6835 C   0  0  0  0  0  0  0  0  0  0  0  0
   11.2010  -22.0168   26.2645 O   0  0  0  0  0  0  0  0  0  0  0  0
   12.9895  -20.5589   26.1337 N   0  0  0  0  0  0  0  0  0  0  0  0
   13.6494  -21.2442   27.2583 C   0  0  1  0  0  0  0  0  0  0  0  0
   15.0591  -20.7313   27.3911 C   0  0  0  0  0  0  0  0  0  0  0  0
   15.8814  -21.1484   26.2127 C   0  0  0  0  0  0  0  0  0  0  0  0
   17.2915  -20.6515   26.3350 C   0  0  0  0  0  0  0  0  0  0  0  0
   18.2442  -21.4356   26.4518 O   0  0  0  0  0  0  0  0  0  0  0  0
   12.8159  -21.1120   28.4750 C   0  0  0  0  0  0  0  0  0  0  0  0
   12.1538  -20.1031   28.7147 O   0  0  0  0  0  0  0  0  0  0  0  0
   17.4913  -19.2912   26.3129 O   0  0  0  0  0  0  0  0  0  0  0  0
   12.7631  -22.1867   29.4231 N   0  0  0  0  0  0  0  0  0  0  0  0
   11.9517  -22.1880   30.6083 C   0  0  1  0  0  0  0  0  0  0  0  0
   10.7506  -23.0563   30.5721 C   0  0  0  0  0  0  0  0  0  0  0  0
    9.9006  -23.1190   31.7813 C   0  0  0  0  0  0  0  0  0  0  0  0
    8.7597  -24.0479   31.6664 C   0  0  0  0  0  0  0  0  0  0  0  0
    8.4946  -24.6831   30.6348 O   0  0  0  0  0  0  0  0  0  0  0  0
   12.7849  -22.4303   31.7994 C   0  0  0  0  0  0  0  0  0  0  0  0
   13.9004  -22.9797   31.6761 O   0  0  0  0  0  0  0  0  0  0  0  0
    7.9059  -24.2472   32.7690 O   0  0  0  0  0  0  0  0  0  0  0  0
   12.3670  -22.0653   33.0614 O   0  0  0  0  0  0  0  0  0  0  0  0
  2  1  1  6
  2  4  1  0
  2  3  1  0
  4  5  1  1
  6  4  1  0
  7  6  2  0
  8  6  1  0
  9  8  1  0
  9 10  1  1
 11 10  1  0
 12 11  1  0
 12 13  2  0
 14 15  2  0
 14  9  1  0
 16 12  1  0
 17 14  1  0
 18 17  1  0
 18 19  1  6
 20 21  1  0
 20 19  1  0
 21 22  2  0
 23 18  1  0
 24 23  2  0
 25 21  1  0
 26 23  1  0
M  END
$$$$
