TEE.pdb
     RDKit          3D

 26 25  0  0  1  0  0  0  0  0999 V2000
    9.4080  -12.7686   19.9581 C   0  0  0  0  0  0  0  0  0  0  0  0
    7.9234  -13.0567   19.9796 C   0  0  1  0  0  0  0  0  0  0  0  0
    7.2734  -12.2382   19.0803 O   0  0  0  0  0  0  0  0  0  0  0  0
    7.7172  -14.5277   19.6501 C   0  0  2  0  0  0  0  0  0  0  0  0
    6.2833  -14.8318   19.7373 N   0  0  0  0  0  0  0  0  0  0  0  0
    8.4428  -15.3433   20.6437 C   0  0  0  0  0  0  0  0  0  0  0  0
    7.8475  -15.6177   21.7180 O   0  0  0  0  0  0  0  0  0  0  0  0
    9.7619  -15.8225   20.4395 N   0  0  0  0  0  0  0  0  0  0  0  0
   10.3473  -16.7418   21.4304 C   0  0  1  0  0  0  0  0  0  0  0  0
   11.2229  -17.7408   20.7211 C   0  0  0  0  0  0  0  0  0  0  0  0
   11.8603  -18.6704   21.7052 C   0  0  0  0  0  0  0  0  0  0  0  0
   12.7058  -19.6961   21.0100 C   0  0  0  0  0  0  0  0  0  0  0  0
   12.3938  -20.8955   21.0077 O   0  0  0  0  0  0  0  0  0  0  0  0
   11.0201  -15.9599   22.4929 C   0  0  0  0  0  0  0  0  0  0  0  0
   11.7397  -14.9932   22.2452 O   0  0  0  0  0  0  0  0  0  0  0  0
   13.8429  -19.2578   20.3731 O   0  0  0  0  0  0  0  0  0  0  0  0
   10.8409  -16.3246   23.8681 N   0  0  0  0  0  0  0  0  0  0  0  0
   11.5088  -15.6929   24.9718 C   0  0  1  0  0  0  0  0  0  0  0  0
   10.8930  -15.8947   26.3052 C   0  0  0  0  0  0  0  0  0  0  0  0
   11.5388  -15.2574   27.4736 C   0  0  0  0  0  0  0  0  0  0  0  0
   10.8317  -15.4837   28.7489 C   0  0  0  0  0  0  0  0  0  0  0  0
    9.8411  -16.2213   28.8615 O   0  0  0  0  0  0  0  0  0  0  0  0
   12.9446  -16.0246   24.9597 C   0  0  0  0  0  0  0  0  0  0  0  0
   13.3107  -17.1913   24.7024 O   0  0  0  0  0  0  0  0  0  0  0  0
   11.2797  -14.8431   29.9207 O   0  0  0  0  0  0  0  0  0  0  0  0
   13.9088  -15.0762   25.2265 O   0  0  0  0  0  0  0  0  0  0  0  0
  2  1  1  6
  2  4  1  0
  2  3  1  0
  4  5  1  1
  6  4  1  0
  7  6  2  0
  8  6  1  0
  9  8  1  0
  9 10  1  6
 11 10  1  0
 12 11  1  0
 12 13  2  0
 14 15  2  0
 14  9  1  0
 16 12  1  0
 17 14  1  0
 18 17  1  0
 18 19  1  1
 20 21  1  0
 20 19  1  0
 21 22  2  0
 23 18  1  0
 24 23  2  0
 25 21  1  0
 26 23  1  0
M  END
$$$$
