TEE.pdb
     RDKit          3D

 26 25  0  0  1  0  0  0  0  0999 V2000
    7.1559  -14.6557   19.7313 C   0  0  0  0  0  0  0  0  0  0  0  0
    7.8718  -14.0862   18.5268 C   0  0  1  0  0  0  0  0  0  0  0  0
    7.0426  -13.2101   17.8589 O   0  0  0  0  0  0  0  0  0  0  0  0
    9.1428  -13.4007   19.0062 C   0  0  2  0  0  0  0  0  0  0  0  0
    9.7324  -12.6647   17.8807 N   0  0  0  0  0  0  0  0  0  0  0  0
   10.0970  -14.4321   19.4586 C   0  0  0  0  0  0  0  0  0  0  0  0
    9.6954  -15.2605   20.3167 O   0  0  0  0  0  0  0  0  0  0  0  0
   11.4262  -14.5257   18.9731 N   0  0  0  0  0  0  0  0  0  0  0  0
   12.2827  -15.6257   19.4486 C   0  0  1  0  0  0  0  0  0  0  0  0
   13.2605  -15.9950   18.3645 C   0  0  0  0  0  0  0  0  0  0  0  0
   12.6080  -15.9130   17.0204 C   0  0  0  0  0  0  0  0  0  0  0  0
   13.3865  -15.0251   16.0953 C   0  0  0  0  0  0  0  0  0  0  0  0
   14.5020  -14.5857   16.4093 O   0  0  0  0  0  0  0  0  0  0  0  0
   12.8937  -15.2515   20.7444 C   0  0  0  0  0  0  0  0  0  0  0  0
   13.6770  -14.3094   20.8568 O   0  0  0  0  0  0  0  0  0  0  0  0
   12.8176  -14.7146   14.8825 O   0  0  0  0  0  0  0  0  0  0  0  0
   12.5756  -16.0004   21.9252 N   0  0  0  0  0  0  0  0  0  0  0  0
   13.2260  -15.8340   23.1951 C   0  0  1  0  0  0  0  0  0  0  0  0
   12.5441  -16.4481   24.3595 C   0  0  0  0  0  0  0  0  0  0  0  0
   13.2736  -17.4799   25.1285 C   0  0  0  0  0  0  0  0  0  0  0  0
   12.5185  -18.0210   26.2752 C   0  0  0  0  0  0  0  0  0  0  0  0
   11.3486  -17.7030   26.5364 O   0  0  0  0  0  0  0  0  0  0  0  0
   14.6427  -16.2287   23.1008 C   0  0  0  0  0  0  0  0  0  0  0  0
   15.5003  -15.6345   23.7885 O   0  0  0  0  0  0  0  0  0  0  0  0
   13.1294  -18.9505   27.1394 O   0  0  0  0  0  0  0  0  0  0  0  0
   15.0568  -17.2456   22.2673 O   0  0  0  0  0  0  0  0  0  0  0  0
  2  1  1  1
  2  4  1  0
  2  3  1  0
  4  5  1  6
  6  4  1  0
  7  6  2  0
  8  6  1  0
  9  8  1  0
  9 10  1  6
 11 10  1  0
 12 11  1  0
 12 13  2  0
 14 15  2  0
 14  9  1  0
 16 12  1  0
 17 14  1  0
 18 17  1  0
 18 19  1  1
 20 21  1  0
 20 19  1  0
 21 22  2  0
 23 18  1  0
 24 23  2  0
 25 21  1  0
 26 23  1  0
M  END
$$$$
