YYP.pdb
     RDKit          3D

 32 34  0  0  1  0  0  0  0  0999 V2000
    9.1000  -13.1762   17.2911 O   0  0  0  0  0  0  0  0  0  0  0  0
    8.3099  -13.7442   18.2910 C   0  0  0  0  0  0  0  0  0  0  0  0
    8.1936  -13.0943   19.5141 C   0  0  0  0  0  0  0  0  0  0  0  0
    7.4112  -13.6452   20.5154 C   0  0  0  0  0  0  0  0  0  0  0  0
    6.7338  -14.8380   20.3315 C   0  0  0  0  0  0  0  0  0  0  0  0
    5.8999  -15.4130   21.4138 C   0  0  0  0  0  0  0  0  0  0  0  0
    6.5181  -16.7008   21.9439 C   0  0  2  0  0  0  0  0  0  0  0  0
    5.6673  -17.7634   21.4924 N   0  0  0  0  0  0  0  0  0  0  0  0
    6.5404  -16.6599   23.4500 C   0  0  0  0  0  0  0  0  0  0  0  0
    5.4168  -16.5474   23.9836 O   0  0  0  0  0  0  0  0  0  0  0  0
    6.8746  -15.4586   19.0961 C   0  0  0  0  0  0  0  0  0  0  0  0
    7.6562  -14.9217   18.0792 C   0  0  0  0  0  0  0  0  0  0  0  0
    5.2101  -22.3616   25.8768 O   0  0  0  0  0  0  0  0  0  0  0  0
    6.0649  -21.2367   25.9107 C   0  0  0  0  0  0  0  0  0  0  0  0
    6.8318  -20.8906   24.8252 C   0  0  0  0  0  0  0  0  0  0  0  0
    7.6558  -19.7772   24.9098 C   0  0  0  0  0  0  0  0  0  0  0  0
    7.7424  -19.0035   26.0274 C   0  0  0  0  0  0  0  0  0  0  0  0
    8.6748  -17.8604   26.0058 C   0  0  0  0  0  0  0  0  0  0  0  0
    7.8968  -16.5811   25.5278 C   0  0  2  0  0  0  0  0  0  0  0  0
    7.7672  -16.7469   24.1299 N   0  0  0  0  0  0  0  0  0  0  0  0
    8.5691  -15.4217   26.0084 C   0  0  0  0  0  0  0  0  0  0  0  0
    9.7564  -15.2000   25.5152 O   0  0  0  0  0  0  0  0  0  0  0  0
    6.9855  -19.3420   27.1104 C   0  0  0  0  0  0  0  0  0  0  0  0
    6.1433  -20.4670   27.0443 C   0  0  0  0  0  0  0  0  0  0  0  0
    8.1295  -14.4662   26.9411 N   0  0  0  0  0  0  0  0  0  0  0  0
    6.7745  -14.1363   27.3628 C   0  0  0  0  0  0  0  0  0  0  0  0
    6.8671  -12.6387   27.6921 C   0  0  0  0  0  0  0  0  0  0  0  0
    8.1862  -12.6170   28.4324 C   0  0  0  0  0  0  0  0  0  0  0  0
    9.0224  -13.5226   27.6309 C   0  0  1  0  0  0  0  0  0  0  0  0
   10.0580  -14.2344   28.4284 C   0  0  0  0  0  0  0  0  0  0  0  0
   11.0726  -13.4595   28.9722 O   0  0  0  0  0  0  0  0  0  0  0  0
   10.0813  -15.4650   28.6395 O   0  0  0  0  0  0  0  0  0  0  0  0
  2  1  1  0
  3  2  2  0
  4  3  1  0
  5 11  1  0
  5  4  2  0
  6  5  1  0
  7  9  1  0
  7  6  1  0
  7  8  1  1
  9 20  1  0
  9 10  2  0
 11 12  2  0
 12  2  1  0
 13 14  1  0
 14 24  2  0
 15 16  2  0
 15 14  1  0
 16 17  1  0
 17 18  1  0
 17 23  2  0
 19 18  1  6
 20 19  1  0
 21 19  1  0
 22 21  2  0
 24 23  1  0
 25 21  1  0
 25 29  1  0
 26 25  1  0
 27 26  1  0
 27 28  1  0
 28 29  1  0
 29 30  1  1
 30 32  2  0
 30 31  1  0
M  END
$$$$
