YYP.pdb
     RDKit          3D

 32 34  0  0  1  0  0  0  0  0999 V2000
    9.3625  -13.6195   15.1192 O   0  0  0  0  0  0  0  0  0  0  0  0
    8.9124  -13.7343   16.4349 C   0  0  0  0  0  0  0  0  0  0  0  0
    9.7713  -14.2408   17.4033 C   0  0  0  0  0  0  0  0  0  0  0  0
    9.3390  -14.3587   18.7138 C   0  0  0  0  0  0  0  0  0  0  0  0
    8.0619  -13.9825   19.0917 C   0  0  0  0  0  0  0  0  0  0  0  0
    7.6159  -14.1146   20.4993 C   0  0  0  0  0  0  0  0  0  0  0  0
    7.6682  -15.5702   20.9466 C   0  0  2  0  0  0  0  0  0  0  0  0
    6.7351  -16.2736   20.1151 N   0  0  0  0  0  0  0  0  0  0  0  0
    7.2474  -15.6634   22.3905 C   0  0  0  0  0  0  0  0  0  0  0  0
    6.0586  -15.3473   22.6068 O   0  0  0  0  0  0  0  0  0  0  0  0
    7.2321  -13.4812   18.0960 C   0  0  0  0  0  0  0  0  0  0  0  0
    7.6475  -13.3563   16.7750 C   0  0  0  0  0  0  0  0  0  0  0  0
    4.1240  -20.5030   21.7231 O   0  0  0  0  0  0  0  0  0  0  0  0
    5.0699  -19.8257   22.5255 C   0  0  0  0  0  0  0  0  0  0  0  0
    6.3994  -19.7883   22.1830 C   0  0  0  0  0  0  0  0  0  0  0  0
    7.2884  -19.1106   23.0053 C   0  0  0  0  0  0  0  0  0  0  0  0
    6.9034  -18.4747   24.1467 C   0  0  0  0  0  0  0  0  0  0  0  0
    7.9455  -17.8107   24.9527 C   0  0  0  0  0  0  0  0  0  0  0  0
    7.8505  -16.2586   24.7240 C   0  0  2  0  0  0  0  0  0  0  0  0
    8.1753  -16.0810   23.3596 N   0  0  0  0  0  0  0  0  0  0  0  0
    8.6499  -15.5956   25.6978 C   0  0  0  0  0  0  0  0  0  0  0  0
    9.8955  -15.9762   25.7747 O   0  0  0  0  0  0  0  0  0  0  0  0
    5.5851  -18.5091   24.4947 C   0  0  0  0  0  0  0  0  0  0  0  0
    4.6680  -19.1906   23.6738 C   0  0  0  0  0  0  0  0  0  0  0  0
    8.2891  -14.5726   26.5920 N   0  0  0  0  0  0  0  0  0  0  0  0
    7.0417  -13.8267   26.6937 C   0  0  0  0  0  0  0  0  0  0  0  0
    7.4988  -12.4515   27.2033 C   0  0  0  0  0  0  0  0  0  0  0  0
    8.5029  -12.8830   28.2492 C   0  0  0  0  0  0  0  0  0  0  0  0
    9.2042  -13.9925   27.5866 C   0  0  1  0  0  0  0  0  0  0  0  0
    9.7077  -15.0249   28.5330 C   0  0  0  0  0  0  0  0  0  0  0  0
   10.7670  -14.6610   29.3522 O   0  0  0  0  0  0  0  0  0  0  0  0
    9.2526  -16.1829   28.6408 O   0  0  0  0  0  0  0  0  0  0  0  0
  2  1  1  0
  3  2  2  0
  4  3  1  0
  5 11  1  0
  5  4  2  0
  6  5  1  0
  7  9  1  0
  7  6  1  0
  7  8  1  6
  9 20  1  0
  9 10  2  0
 11 12  2  0
 12  2  1  0
 13 14  1  0
 14 24  2  0
 15 16  2  0
 15 14  1  0
 16 17  1  0
 17 18  1  0
 17 23  2  0
 19 18  1  1
 20 19  1  0
 21 19  1  0
 22 21  2  0
 24 23  1  0
 25 21  1  0
 25 29  1  0
 26 25  1  0
 27 26  1  0
 27 28  1  0
 28 29  1  0
 29 30  1  1
 30 32  2  0
 30 31  1  0
M  END
$$$$
