YYP.pdb
     RDKit          3D

 32 34  0  0  1  0  0  0  0  0999 V2000
   11.6527  -15.2136   30.2322 O   0  0  0  0  0  0  0  0  0  0  0  0
   10.9302  -15.8934   29.2510 C   0  0  0  0  0  0  0  0  0  0  0  0
   11.5477  -16.9169   28.5416 C   0  0  0  0  0  0  0  0  0  0  0  0
   10.8423  -17.6019   27.5662 C   0  0  0  0  0  0  0  0  0  0  0  0
    9.5252  -17.2934   27.2737 C   0  0  0  0  0  0  0  0  0  0  0  0
    8.7849  -18.0376   26.2270 C   0  0  0  0  0  0  0  0  0  0  0  0
    7.3611  -17.5108   26.0965 C   0  0  2  0  0  0  0  0  0  0  0  0
    6.5084  -18.6635   26.1247 N   0  0  0  0  0  0  0  0  0  0  0  0
    7.2147  -16.7907   24.7810 C   0  0  0  0  0  0  0  0  0  0  0  0
    6.4734  -17.3632   23.9548 O   0  0  0  0  0  0  0  0  0  0  0  0
    8.9421  -16.2643   28.0033 C   0  0  0  0  0  0  0  0  0  0  0  0
    9.6341  -15.5646   28.9854 C   0  0  0  0  0  0  0  0  0  0  0  0
    5.0063  -11.2308   28.0051 O   0  0  0  0  0  0  0  0  0  0  0  0
    5.8046  -11.7678   26.9700 C   0  0  0  0  0  0  0  0  0  0  0  0
    7.1697  -11.6163   26.9703 C   0  0  0  0  0  0  0  0  0  0  0  0
    7.9085  -12.1618   25.9299 C   0  0  0  0  0  0  0  0  0  0  0  0
    7.3409  -12.8466   24.8984 C   0  0  0  0  0  0  0  0  0  0  0  0
    8.2287  -13.3569   23.8364 C   0  0  0  0  0  0  0  0  0  0  0  0
    7.7382  -14.7881   23.4103 C   0  0  2  0  0  0  0  0  0  0  0  0
    7.8898  -15.5757   24.5745 N   0  0  0  0  0  0  0  0  0  0  0  0
    8.4332  -15.1862   22.2333 C   0  0  0  0  0  0  0  0  0  0  0  0
    9.2734  -16.1751   22.3688 O   0  0  0  0  0  0  0  0  0  0  0  0
    5.9856  -12.9995   24.8899 C   0  0  0  0  0  0  0  0  0  0  0  0
    5.2189  -12.4542   25.9359 C   0  0  0  0  0  0  0  0  0  0  0  0
    8.3371  -14.6677   20.9302 N   0  0  0  0  0  0  0  0  0  0  0  0
    7.4363  -13.6529   20.3997 C   0  0  0  0  0  0  0  0  0  0  0  0
    7.2446  -14.0868   18.9386 C   0  0  0  0  0  0  0  0  0  0  0  0
    8.6700  -14.4518   18.5873 C   0  0  0  0  0  0  0  0  0  0  0  0
    9.1301  -15.1574   19.7924 C   0  0  1  0  0  0  0  0  0  0  0  0
   10.5902  -15.0136   20.0423 C   0  0  0  0  0  0  0  0  0  0  0  0
   11.4411  -15.7421   19.2232 O   0  0  0  0  0  0  0  0  0  0  0  0
   11.0996  -14.2946   20.9272 O   0  0  0  0  0  0  0  0  0  0  0  0
  2  1  1  0
  3  2  2  0
  4  3  1  0
  5 11  1  0
  5  4  2  0
  6  5  1  0
  7  9  1  0
  7  6  1  0
  7  8  1  6
  9 20  1  0
  9 10  2  0
 11 12  2  0
 12  2  1  0
 13 14  1  0
 14 24  2  0
 15 16  2  0
 15 14  1  0
 16 17  1  0
 17 18  1  0
 17 23  2  0
 19 18  1  1
 20 19  1  0
 21 19  1  0
 22 21  2  0
 24 23  1  0
 25 21  1  0
 25 29  1  0
 26 25  1  0
 27 26  1  0
 27 28  1  0
 28 29  1  0
 29 30  1  1
 30 32  2  0
 30 31  1  0
M  END
$$$$
