YYP.pdb
     RDKit          3D

 32 34  0  0  1  0  0  0  0  0999 V2000
    9.5526  -13.1807   16.7380 O   0  0  0  0  0  0  0  0  0  0  0  0
    8.7660  -13.5731   17.8216 C   0  0  0  0  0  0  0  0  0  0  0  0
    9.3237  -14.3792   18.8072 C   0  0  0  0  0  0  0  0  0  0  0  0
    8.5557  -14.7749   19.8897 C   0  0  0  0  0  0  0  0  0  0  0  0
    7.2337  -14.3866   20.0202 C   0  0  0  0  0  0  0  0  0  0  0  0
    6.4264  -14.8187   21.1861 C   0  0  0  0  0  0  0  0  0  0  0  0
    6.7702  -16.2502   21.5787 C   0  0  2  0  0  0  0  0  0  0  0  0
    5.7110  -17.0675   21.0620 N   0  0  0  0  0  0  0  0  0  0  0  0
    6.8205  -16.3568   23.0809 C   0  0  0  0  0  0  0  0  0  0  0  0
    5.7093  -16.2752   23.6452 O   0  0  0  0  0  0  0  0  0  0  0  0
    6.7112  -13.5815   19.0152 C   0  0  0  0  0  0  0  0  0  0  0  0
    7.4660  -13.1749   17.9206 C   0  0  0  0  0  0  0  0  0  0  0  0
   10.5528  -16.3647   31.0464 O   0  0  0  0  0  0  0  0  0  0  0  0
   10.3022  -16.5120   29.6634 C   0  0  0  0  0  0  0  0  0  0  0  0
    9.7009  -17.6412   29.1638 C   0  0  0  0  0  0  0  0  0  0  0  0
    9.4779  -17.7375   27.7975 C   0  0  0  0  0  0  0  0  0  0  0  0
    9.8297  -16.7577   26.9191 C   0  0  0  0  0  0  0  0  0  0  0  0
    9.5650  -16.9871   25.4860 C   0  0  0  0  0  0  0  0  0  0  0  0
    8.2984  -16.1567   25.0655 C   0  0  2  0  0  0  0  0  0  0  0  0
    8.0572  -16.5332   23.7244 N   0  0  0  0  0  0  0  0  0  0  0  0
    8.5306  -14.7805   25.3467 C   0  0  0  0  0  0  0  0  0  0  0  0
    9.5893  -14.2523   24.7968 O   0  0  0  0  0  0  0  0  0  0  0  0
   10.4292  -15.6341   27.4073 C   0  0  0  0  0  0  0  0  0  0  0  0
   10.6636  -15.5172   28.7897 C   0  0  0  0  0  0  0  0  0  0  0  0
    7.7705  -13.8969   26.1326 N   0  0  0  0  0  0  0  0  0  0  0  0
    6.5302  -14.1342   26.8592 C   0  0  0  0  0  0  0  0  0  0  0  0
    5.8280  -12.7690   26.8050 C   0  0  0  0  0  0  0  0  0  0  0  0
    7.0042  -11.8610   27.0889 C   0  0  0  0  0  0  0  0  0  0  0  0
    8.0817  -12.4685   26.2940 C   0  0  1  0  0  0  0  0  0  0  0  0
    9.4353  -12.2672   26.8789 C   0  0  0  0  0  0  0  0  0  0  0  0
    9.9274  -10.9697   26.8887 O   0  0  0  0  0  0  0  0  0  0  0  0
   10.1537  -13.1714   27.3542 O   0  0  0  0  0  0  0  0  0  0  0  0
  2  1  1  0
  3  2  2  0
  4  3  1  0
  5 11  1  0
  5  4  2  0
  6  5  1  0
  7  9  1  0
  7  6  1  0
  7  8  1  1
  9 20  1  0
  9 10  2  0
 11 12  2  0
 12  2  1  0
 13 14  1  0
 14 24  2  0
 15 16  2  0
 15 14  1  0
 16 17  1  0
 17 18  1  0
 17 23  2  0
 19 18  1  6
 20 19  1  0
 21 19  1  0
 22 21  2  0
 24 23  1  0
 25 21  1  0
 25 29  1  0
 26 25  1  0
 27 26  1  0
 27 28  1  0
 28 29  1  0
 29 30  1  1
 30 32  2  0
 30 31  1  0
M  END
$$$$
