YYP.pdb
     RDKit          3D

 32 34  0  0  1  0  0  0  0  0999 V2000
   10.2481  -12.2536   19.2498 O   0  0  0  0  0  0  0  0  0  0  0  0
    9.2675  -13.1797   19.6071 C   0  0  0  0  0  0  0  0  0  0  0  0
    7.9464  -12.9411   19.2468 C   0  0  0  0  0  0  0  0  0  0  0  0
    6.9626  -13.8524   19.5928 C   0  0  0  0  0  0  0  0  0  0  0  0
    7.2600  -15.0073   20.2950 C   0  0  0  0  0  0  0  0  0  0  0  0
    6.1945  -15.9726   20.6563 C   0  0  0  0  0  0  0  0  0  0  0  0
    6.7777  -17.1620   21.4092 C   0  0  2  0  0  0  0  0  0  0  0  0
    5.9704  -18.2918   21.0507 N   0  0  0  0  0  0  0  0  0  0  0  0
    6.6838  -16.9082   22.8916 C   0  0  0  0  0  0  0  0  0  0  0  0
    5.5180  -16.8432   23.3349 O   0  0  0  0  0  0  0  0  0  0  0  0
    8.5912  -15.2112   20.6379 C   0  0  0  0  0  0  0  0  0  0  0  0
    9.5925  -14.3076   20.3005 C   0  0  0  0  0  0  0  0  0  0  0  0
    5.1591  -22.1633   25.8956 O   0  0  0  0  0  0  0  0  0  0  0  0
    6.0107  -21.0365   25.8493 C   0  0  0  0  0  0  0  0  0  0  0  0
    6.8151  -20.7946   24.7627 C   0  0  0  0  0  0  0  0  0  0  0  0
    7.6343  -19.6744   24.7667 C   0  0  0  0  0  0  0  0  0  0  0  0
    7.6804  -18.7948   25.8056 C   0  0  0  0  0  0  0  0  0  0  0  0
    8.6116  -17.6549   25.7049 C   0  0  0  0  0  0  0  0  0  0  0  0
    7.8653  -16.4496   25.0262 C   0  0  2  0  0  0  0  0  0  0  0  0
    7.8592  -16.7670   23.6487 N   0  0  0  0  0  0  0  0  0  0  0  0
    8.4818  -15.2326   25.4336 C   0  0  0  0  0  0  0  0  0  0  0  0
    9.7303  -15.0771   25.0882 O   0  0  0  0  0  0  0  0  0  0  0  0
    6.8862  -19.0294   26.8893 C   0  0  0  0  0  0  0  0  0  0  0  0
    6.0482  -20.1594   26.9042 C   0  0  0  0  0  0  0  0  0  0  0  0
    7.9306  -14.1588   26.1543 N   0  0  0  0  0  0  0  0  0  0  0  0
    6.5334  -13.8190   26.3890 C   0  0  0  0  0  0  0  0  0  0  0  0
    6.5582  -12.2857   26.4786 C   0  0  0  0  0  0  0  0  0  0  0  0
    7.7974  -12.0953   27.3252 C   0  0  0  0  0  0  0  0  0  0  0  0
    8.7292  -13.0836   26.7622 C   0  0  1  0  0  0  0  0  0  0  0  0
    9.6979  -13.6188   27.7573 C   0  0  0  0  0  0  0  0  0  0  0  0
   10.6561  -12.7368   28.2364 O   0  0  0  0  0  0  0  0  0  0  0  0
    9.7124  -14.7916   28.1861 O   0  0  0  0  0  0  0  0  0  0  0  0
  2  1  1  0
  3  2  2  0
  4  3  1  0
  5 11  1  0
  5  4  2  0
  6  5  1  0
  7  9  1  0
  7  6  1  0
  7  8  1  1
  9 20  1  0
  9 10  2  0
 11 12  2  0
 12  2  1  0
 13 14  1  0
 14 24  2  0
 15 16  2  0
 15 14  1  0
 16 17  1  0
 17 18  1  0
 17 23  2  0
 19 18  1  1
 20 19  1  0
 21 19  1  0
 22 21  2  0
 24 23  1  0
 25 21  1  0
 25 29  1  0
 26 25  1  0
 27 26  1  0
 27 28  1  0
 28 29  1  0
 29 30  1  1
 30 32  2  0
 30 31  1  0
M  END
$$$$
