YYP.pdb
     RDKit          3D

 32 34  0  0  1  0  0  0  0  0999 V2000
    9.2095  -12.3080   20.0097 O   0  0  0  0  0  0  0  0  0  0  0  0
    8.2680  -13.3156   20.2222 C   0  0  0  0  0  0  0  0  0  0  0  0
    8.4999  -14.5816   19.6971 C   0  0  0  0  0  0  0  0  0  0  0  0
    7.5753  -15.5922   19.9017 C   0  0  0  0  0  0  0  0  0  0  0  0
    6.4135  -15.3758   20.6220 C   0  0  0  0  0  0  0  0  0  0  0  0
    5.4349  -16.4694   20.8321 C   0  0  0  0  0  0  0  0  0  0  0  0
    6.0606  -17.6063   21.6304 C   0  0  2  0  0  0  0  0  0  0  0  0
    5.1072  -18.6774   21.6077 N   0  0  0  0  0  0  0  0  0  0  0  0
    6.2938  -17.1509   23.0478 C   0  0  0  0  0  0  0  0  0  0  0  0
    5.2564  -17.0331   23.7331 O   0  0  0  0  0  0  0  0  0  0  0  0
    6.2163  -14.0978   21.1308 C   0  0  0  0  0  0  0  0  0  0  0  0
    7.1323  -13.0702   20.9351 C   0  0  0  0  0  0  0  0  0  0  0  0
   10.4089  -16.3699   30.6563 O   0  0  0  0  0  0  0  0  0  0  0  0
   10.0956  -16.6331   29.3037 C   0  0  0  0  0  0  0  0  0  0  0  0
   10.8086  -16.0566   28.2812 C   0  0  0  0  0  0  0  0  0  0  0  0
   10.4602  -16.3467   26.9695 C   0  0  0  0  0  0  0  0  0  0  0  0
    9.4358  -17.1829   26.6433 C   0  0  0  0  0  0  0  0  0  0  0  0
    9.1439  -17.3925   25.2125 C   0  0  0  0  0  0  0  0  0  0  0  0
    7.9164  -16.4975   24.8094 C   0  0  2  0  0  0  0  0  0  0  0  0
    7.6034  -16.8985   23.4904 N   0  0  0  0  0  0  0  0  0  0  0  0
    8.2431  -15.1306   25.0375 C   0  0  0  0  0  0  0  0  0  0  0  0
    9.2143  -14.6437   24.3152 O   0  0  0  0  0  0  0  0  0  0  0  0
    8.7215  -17.7576   27.6532 C   0  0  0  0  0  0  0  0  0  0  0  0
    9.0595  -17.4765   28.9897 C   0  0  0  0  0  0  0  0  0  0  0  0
    7.6578  -14.2178   25.9321 N   0  0  0  0  0  0  0  0  0  0  0  0
    6.4824  -14.3727   26.7789 C   0  0  0  0  0  0  0  0  0  0  0  0
    5.9139  -12.9474   26.8500 C   0  0  0  0  0  0  0  0  0  0  0  0
    7.1956  -12.1661   27.0383 C   0  0  0  0  0  0  0  0  0  0  0  0
    8.1209  -12.8332   26.1106 C   0  0  1  0  0  0  0  0  0  0  0  0
    9.5410  -12.7852   26.5533 C   0  0  0  0  0  0  0  0  0  0  0  0
   10.1666  -11.5470   26.5196 O   0  0  0  0  0  0  0  0  0  0  0  0
   10.2040  -13.7679   26.9463 O   0  0  0  0  0  0  0  0  0  0  0  0
  2  1  1  0
  3  2  2  0
  4  3  1  0
  5 11  1  0
  5  4  2  0
  6  5  1  0
  7  9  1  0
  7  6  1  0
  7  8  1  1
  9 20  1  0
  9 10  2  0
 11 12  2  0
 12  2  1  0
 13 14  1  0
 14 24  2  0
 15 16  2  0
 15 14  1  0
 16 17  1  0
 17 18  1  0
 17 23  2  0
 19 18  1  6
 20 19  1  0
 21 19  1  0
 22 21  2  0
 24 23  1  0
 25 21  1  0
 25 29  1  0
 26 25  1  0
 27 26  1  0
 27 28  1  0
 28 29  1  0
 29 30  1  1
 30 32  2  0
 30 31  1  0
M  END
$$$$
