YYP.pdb
     RDKit          3D

 32 34  0  0  1  0  0  0  0  0999 V2000
   12.6368  -23.4270   22.5882 O   0  0  0  0  0  0  0  0  0  0  0  0
   12.4323  -22.0696   22.8379 C   0  0  0  0  0  0  0  0  0  0  0  0
   13.5308  -21.2500   23.0694 C   0  0  0  0  0  0  0  0  0  0  0  0
   13.3433  -19.9002   23.3166 C   0  0  0  0  0  0  0  0  0  0  0  0
   12.0794  -19.3370   23.3401 C   0  0  0  0  0  0  0  0  0  0  0  0
   11.8970  -17.8900   23.6054 C   0  0  0  0  0  0  0  0  0  0  0  0
   11.2552  -17.1995   22.4084 C   0  0  2  0  0  0  0  0  0  0  0  0
   12.3200  -16.9397   21.4835 N   0  0  0  0  0  0  0  0  0  0  0  0
   10.6308  -15.9033   22.8563 C   0  0  0  0  0  0  0  0  0  0  0  0
   11.4323  -14.9522   22.9695 O   0  0  0  0  0  0  0  0  0  0  0  0
   11.0060  -20.1877   23.1048 C   0  0  0  0  0  0  0  0  0  0  0  0
   11.1740  -21.5453   22.8558 C   0  0  0  0  0  0  0  0  0  0  0  0
    8.3178  -13.7855   17.2807 O   0  0  0  0  0  0  0  0  0  0  0  0
    8.0601  -13.9927   18.6547 C   0  0  0  0  0  0  0  0  0  0  0  0
    7.6983  -15.2277   19.1343 C   0  0  0  0  0  0  0  0  0  0  0  0
    7.4550  -15.3785   20.4922 C   0  0  0  0  0  0  0  0  0  0  0  0
    7.5582  -14.3518   21.3813 C   0  0  0  0  0  0  0  0  0  0  0  0
    7.2483  -14.6298   22.7966 C   0  0  0  0  0  0  0  0  0  0  0  0
    8.5940  -14.6981   23.6059 C   0  0  2  0  0  0  0  0  0  0  0  0
    9.2493  -15.8472   23.1074 N   0  0  0  0  0  0  0  0  0  0  0  0
    8.3023  -14.6406   24.9983 C   0  0  0  0  0  0  0  0  0  0  0  0
    8.6002  -15.7046   25.6922 O   0  0  0  0  0  0  0  0  0  0  0  0
    7.9149  -13.1217   20.9124 C   0  0  0  0  0  0  0  0  0  0  0  0
    8.1663  -12.9485   19.5390 C   0  0  0  0  0  0  0  0  0  0  0  0
    7.7419  -13.5881   25.7428 N   0  0  0  0  0  0  0  0  0  0  0  0
    7.4373  -12.2229   25.3351 C   0  0  0  0  0  0  0  0  0  0  0  0
    7.6358  -11.4203   26.6298 C   0  0  0  0  0  0  0  0  0  0  0  0
    6.9657  -12.3504   27.6169 C   0  0  0  0  0  0  0  0  0  0  0  0
    7.4253  -13.6758   27.1764 C   0  0  1  0  0  0  0  0  0  0  0  0
    6.4490  -14.7642   27.4545 C   0  0  0  0  0  0  0  0  0  0  0  0
    6.3970  -15.2421   28.7562 O   0  0  0  0  0  0  0  0  0  0  0  0
    5.6832  -15.2746   26.6103 O   0  0  0  0  0  0  0  0  0  0  0  0
  2  1  1  0
  3  2  2  0
  4  3  1  0
  5 11  1  0
  5  4  2  0
  6  5  1  0
  7  9  1  0
  7  6  1  0
  7  8  1  6
  9 20  1  0
  9 10  2  0
 11 12  2  0
 12  2  1  0
 13 14  1  0
 14 24  2  0
 15 16  2  0
 15 14  1  0
 16 17  1  0
 17 18  1  0
 17 23  2  0
 19 18  1  6
 20 19  1  0
 21 19  1  0
 22 21  2  0
 24 23  1  0
 25 21  1  0
 25 29  1  0
 26 25  1  0
 27 26  1  0
 27 28  1  0
 28 29  1  0
 29 30  1  6
 30 32  2  0
 30 31  1  0
M  END
$$$$
