YYP.pdb
     RDKit          3D

 32 34  0  0  1  0  0  0  0  0999 V2000
    4.3747  -23.7363   24.0472 O   0  0  0  0  0  0  0  0  0  0  0  0
    5.5063  -22.9203   24.0649 C   0  0  0  0  0  0  0  0  0  0  0  0
    5.3462  -21.5407   24.1203 C   0  0  0  0  0  0  0  0  0  0  0  0
    6.4603  -20.7181   24.1405 C   0  0  0  0  0  0  0  0  0  0  0  0
    7.7434  -21.2358   24.1069 C   0  0  0  0  0  0  0  0  0  0  0  0
    8.9248  -20.3407   24.1302 C   0  0  0  0  0  0  0  0  0  0  0  0
    8.8546  -19.3261   22.9957 C   0  0  2  0  0  0  0  0  0  0  0  0
    9.7819  -19.7804   22.0004 N   0  0  0  0  0  0  0  0  0  0  0  0
    9.2701  -17.9724   23.5110 C   0  0  0  0  0  0  0  0  0  0  0  0
   10.4942  -17.7386   23.4291 O   0  0  0  0  0  0  0  0  0  0  0  0
    7.8635  -22.6192   24.0514 C   0  0  0  0  0  0  0  0  0  0  0  0
    6.7572  -23.4611   24.0292 C   0  0  0  0  0  0  0  0  0  0  0  0
    7.0939  -13.0015   19.2495 O   0  0  0  0  0  0  0  0  0  0  0  0
    7.1651  -13.5004   20.5697 C   0  0  0  0  0  0  0  0  0  0  0  0
    6.4420  -14.6023   20.9559 C   0  0  0  0  0  0  0  0  0  0  0  0
    6.5461  -15.0520   22.2646 C   0  0  0  0  0  0  0  0  0  0  0  0
    7.3377  -14.4482   23.1941 C   0  0  0  0  0  0  0  0  0  0  0  0
    7.3446  -15.0030   24.5610 C   0  0  0  0  0  0  0  0  0  0  0  0
    8.6149  -15.9127   24.7321 C   0  0  2  0  0  0  0  0  0  0  0  0
    8.2998  -17.0973   24.0279 N   0  0  0  0  0  0  0  0  0  0  0  0
    8.9291  -16.0165   26.1169 C   0  0  0  0  0  0  0  0  0  0  0  0
    8.7249  -17.1820   26.6667 O   0  0  0  0  0  0  0  0  0  0  0  0
    8.0574  -13.3520   22.8189 C   0  0  0  0  0  0  0  0  0  0  0  0
    7.9658  -12.8809   21.4964 C   0  0  0  0  0  0  0  0  0  0  0  0
    9.4415  -15.0362   26.9844 N   0  0  0  0  0  0  0  0  0  0  0  0
    9.3296  -13.5853   26.9143 C   0  0  0  0  0  0  0  0  0  0  0  0
   10.6417  -13.1035   27.5514 C   0  0  0  0  0  0  0  0  0  0  0  0
   10.7229  -14.0522   28.7269 C   0  0  0  0  0  0  0  0  0  0  0  0
   10.3027  -15.3328   28.1393 C   0  0  1  0  0  0  0  0  0  0  0  0
    9.6243  -16.2355   29.1089 C   0  0  0  0  0  0  0  0  0  0  0  0
   10.3997  -16.7420   30.1421 O   0  0  0  0  0  0  0  0  0  0  0  0
    8.4216  -16.5683   29.0593 O   0  0  0  0  0  0  0  0  0  0  0  0
  2  1  1  0
  3  2  2  0
  4  3  1  0
  5 11  1  0
  5  4  2  0
  6  5  1  0
  7  9  1  0
  7  6  1  0
  7  8  1  6
  9 20  1  0
  9 10  2  0
 11 12  2  0
 12  2  1  0
 13 14  1  0
 14 24  2  0
 15 16  2  0
 15 14  1  0
 16 17  1  0
 17 18  1  0
 17 23  2  0
 19 18  1  1
 20 19  1  0
 21 19  1  0
 22 21  2  0
 24 23  1  0
 25 21  1  0
 25 29  1  0
 26 25  1  0
 27 26  1  0
 27 28  1  0
 28 29  1  0
 29 30  1  1
 30 32  2  0
 30 31  1  0
M  END
$$$$
