YYP.pdb
     RDKit          3D

 32 34  0  0  1  0  0  0  0  0999 V2000
    9.5967  -12.9689   16.1229 O   0  0  0  0  0  0  0  0  0  0  0  0
    8.8785  -13.3130   17.2685 C   0  0  0  0  0  0  0  0  0  0  0  0
    9.5670  -13.7478   18.3950 C   0  0  0  0  0  0  0  0  0  0  0  0
    8.8675  -14.0909   19.5401 C   0  0  0  0  0  0  0  0  0  0  0  0
    7.4869  -14.0126   19.5962 C   0  0  0  0  0  0  0  0  0  0  0  0
    6.7543  -14.3829   20.8305 C   0  0  0  0  0  0  0  0  0  0  0  0
    6.8743  -15.8777   21.1003 C   0  0  2  0  0  0  0  0  0  0  0  0
    5.7567  -16.4897   20.4421 N   0  0  0  0  0  0  0  0  0  0  0  0
    6.7990  -16.1239   22.5850 C   0  0  0  0  0  0  0  0  0  0  0  0
    5.6441  -16.0900   23.0595 O   0  0  0  0  0  0  0  0  0  0  0  0
    6.8336  -13.5743   18.4506 C   0  0  0  0  0  0  0  0  0  0  0  0
    7.5181  -13.2265   17.2915 C   0  0  0  0  0  0  0  0  0  0  0  0
    9.2356  -18.4270   30.6489 O   0  0  0  0  0  0  0  0  0  0  0  0
    9.1793  -18.2318   29.2504 C   0  0  0  0  0  0  0  0  0  0  0  0
   10.2627  -17.7576   28.5522 C   0  0  0  0  0  0  0  0  0  0  0  0
   10.1558  -17.5823   27.1797 C   0  0  0  0  0  0  0  0  0  0  0  0
    9.0179  -17.8599   26.4844 C   0  0  0  0  0  0  0  0  0  0  0  0
    9.0175  -17.6072   25.0309 C   0  0  0  0  0  0  0  0  0  0  0  0
    8.0252  -16.4281   24.7220 C   0  0  2  0  0  0  0  0  0  0  0  0
    7.9779  -16.3654   23.3105 N   0  0  0  0  0  0  0  0  0  0  0  0
    8.4456  -15.2686   25.4334 C   0  0  0  0  0  0  0  0  0  0  0  0
    9.6976  -14.9300   25.2918 O   0  0  0  0  0  0  0  0  0  0  0  0
    7.9369  -18.3292   27.1710 C   0  0  0  0  0  0  0  0  0  0  0  0
    8.0255  -18.5142   28.5629 C   0  0  0  0  0  0  0  0  0  0  0  0
    7.6958  -14.4218   26.2682 N   0  0  0  0  0  0  0  0  0  0  0  0
    6.2638  -14.4143   26.5366 C   0  0  0  0  0  0  0  0  0  0  0  0
    5.9659  -12.9299   26.7967 C   0  0  0  0  0  0  0  0  0  0  0  0
    7.1550  -12.5744   27.6615 C   0  0  0  0  0  0  0  0  0  0  0  0
    8.2621  -13.2746   26.9937 C   0  0  1  0  0  0  0  0  0  0  0  0
    9.3436  -13.6971   27.9248 C   0  0  0  0  0  0  0  0  0  0  0  0
    9.4674  -15.0582   28.1653 O   0  0  0  0  0  0  0  0  0  0  0  0
   10.1375  -12.9242   28.5008 O   0  0  0  0  0  0  0  0  0  0  0  0
  2  1  1  0
  3  2  2  0
  4  3  1  0
  5 11  1  0
  5  4  2  0
  6  5  1  0
  7  9  1  0
  7  6  1  0
  7  8  1  6
  9 20  1  0
  9 10  2  0
 11 12  2  0
 12  2  1  0
 13 14  1  0
 14 24  2  0
 15 16  2  0
 15 14  1  0
 16 17  1  0
 17 18  1  0
 17 23  2  0
 19 18  1  6
 20 19  1  0
 21 19  1  0
 22 21  2  0
 24 23  1  0
 25 21  1  0
 25 29  1  0
 26 25  1  0
 27 26  1  0
 27 28  1  0
 28 29  1  0
 29 30  1  1
 30 32  2  0
 30 31  1  0
M  END
$$$$
