YYP.pdb
     RDKit          3D

 32 34  0  0  1  0  0  0  0  0999 V2000
    7.5077  -14.6733   13.5402 O   0  0  0  0  0  0  0  0  0  0  0  0
    7.7560  -14.9710   14.8806 C   0  0  0  0  0  0  0  0  0  0  0  0
    8.1480  -16.2586   15.2275 C   0  0  0  0  0  0  0  0  0  0  0  0
    8.3999  -16.5682   16.5538 C   0  0  0  0  0  0  0  0  0  0  0  0
    8.2712  -15.6218   17.5554 C   0  0  0  0  0  0  0  0  0  0  0  0
    8.5457  -15.9702   18.9699 C   0  0  0  0  0  0  0  0  0  0  0  0
    9.6141  -15.0536   19.5529 C   0  0  2  0  0  0  0  0  0  0  0  0
   10.8693  -15.5516   19.0702 N   0  0  0  0  0  0  0  0  0  0  0  0
    9.5705  -15.1309   21.0571 C   0  0  0  0  0  0  0  0  0  0  0  0
   10.4644  -15.8383   21.5673 O   0  0  0  0  0  0  0  0  0  0  0  0
    7.8771  -14.3461   17.1701 C   0  0  0  0  0  0  0  0  0  0  0  0
    7.6187  -14.0165   15.8443 C   0  0  0  0  0  0  0  0  0  0  0  0
    7.0547  -12.2611   29.0138 O   0  0  0  0  0  0  0  0  0  0  0  0
    7.1015  -12.5827   27.6385 C   0  0  0  0  0  0  0  0  0  0  0  0
    7.8266  -11.8237   26.7528 C   0  0  0  0  0  0  0  0  0  0  0  0
    7.8392  -12.1811   25.4119 C   0  0  0  0  0  0  0  0  0  0  0  0
    7.1611  -13.2579   24.9264 C   0  0  0  0  0  0  0  0  0  0  0  0
    7.2297  -13.5212   23.4764 C   0  0  0  0  0  0  0  0  0  0  0  0
    8.5409  -14.3320   23.1702 C   0  0  2  0  0  0  0  0  0  0  0  0
    8.5730  -14.4345   21.7606 N   0  0  0  0  0  0  0  0  0  0  0  0
    8.5322  -15.5346   23.9322 C   0  0  0  0  0  0  0  0  0  0  0  0
    7.6469  -16.4282   23.5857 O   0  0  0  0  0  0  0  0  0  0  0  0
    6.4370  -14.0154   25.7993 C   0  0  0  0  0  0  0  0  0  0  0  0
    6.4119  -13.6698   27.1629 C   0  0  0  0  0  0  0  0  0  0  0  0
    9.3548  -15.9058   25.0101 N   0  0  0  0  0  0  0  0  0  0  0  0
   10.4426  -15.1715   25.6427 C   0  0  0  0  0  0  0  0  0  0  0  0
   11.3898  -16.2866   26.1106 C   0  0  0  0  0  0  0  0  0  0  0  0
   10.3810  -17.2684   26.6644 C   0  0  0  0  0  0  0  0  0  0  0  0
    9.3012  -17.2204   25.6675 C   0  0  1  0  0  0  0  0  0  0  0  0
    7.9540  -17.4904   26.2396 C   0  0  0  0  0  0  0  0  0  0  0  0
    7.0877  -16.4110   26.3396 O   0  0  0  0  0  0  0  0  0  0  0  0
    7.5518  -18.6050   26.6339 O   0  0  0  0  0  0  0  0  0  0  0  0
  2  1  1  0
  3  2  2  0
  4  3  1  0
  5 11  1  0
  5  4  2  0
  6  5  1  0
  7  9  1  0
  7  6  1  0
  7  8  1  6
  9 20  1  0
  9 10  2  0
 11 12  2  0
 12  2  1  0
 13 14  1  0
 14 24  2  0
 15 16  2  0
 15 14  1  0
 16 17  1  0
 17 18  1  0
 17 23  2  0
 19 18  1  6
 20 19  1  0
 21 19  1  0
 22 21  2  0
 24 23  1  0
 25 21  1  0
 25 29  1  0
 26 25  1  0
 27 26  1  0
 27 28  1  0
 28 29  1  0
 29 30  1  1
 30 32  2  0
 30 31  1  0
M  END
$$$$
