YYP.pdb
     RDKit          3D

 32 34  0  0  1  0  0  0  0  0999 V2000
   10.0641  -22.4459   17.7192 O   0  0  0  0  0  0  0  0  0  0  0  0
   10.3209  -21.4858   18.6985 C   0  0  0  0  0  0  0  0  0  0  0  0
   10.6437  -21.8998   19.9855 C   0  0  0  0  0  0  0  0  0  0  0  0
   10.9031  -20.9581   20.9674 C   0  0  0  0  0  0  0  0  0  0  0  0
   10.8497  -19.6010   20.7015 C   0  0  0  0  0  0  0  0  0  0  0  0
   11.1312  -18.6067   21.7643 C   0  0  0  0  0  0  0  0  0  0  0  0
   10.9377  -17.1890   21.2407 C   0  0  2  0  0  0  0  0  0  0  0  0
   12.1490  -16.8532   20.5503 N   0  0  0  0  0  0  0  0  0  0  0  0
   10.7275  -16.2527   22.4025 C   0  0  0  0  0  0  0  0  0  0  0  0
   11.7705  -15.7186   22.8347 O   0  0  0  0  0  0  0  0  0  0  0  0
   10.5234  -19.2256   19.4039 C   0  0  0  0  0  0  0  0  0  0  0  0
   10.2587  -20.1559   18.4051 C   0  0  0  0  0  0  0  0  0  0  0  0
    6.0972  -11.0987   27.7936 O   0  0  0  0  0  0  0  0  0  0  0  0
    6.4759  -11.9985   26.7719 C   0  0  0  0  0  0  0  0  0  0  0  0
    6.1916  -13.3392   26.8607 C   0  0  0  0  0  0  0  0  0  0  0  0
    6.5861  -14.1815   25.8307 C   0  0  0  0  0  0  0  0  0  0  0  0
    7.2480  -13.7395   24.7254 C   0  0  0  0  0  0  0  0  0  0  0  0
    7.6388  -14.7357   23.7098 C   0  0  0  0  0  0  0  0  0  0  0  0
    9.1354  -15.1485   23.9546 C   0  0  2  0  0  0  0  0  0  0  0  0
    9.4312  -16.0477   22.9047 N   0  0  0  0  0  0  0  0  0  0  0  0
    9.2774  -15.6084   25.2945 C   0  0  0  0  0  0  0  0  0  0  0  0
    8.9993  -16.8659   25.5030 O   0  0  0  0  0  0  0  0  0  0  0  0
    7.5360  -12.4097   24.6309 C   0  0  0  0  0  0  0  0  0  0  0  0
    7.1440  -11.5394   25.6644 C   0  0  0  0  0  0  0  0  0  0  0  0
    9.6872  -14.8974   26.4359 N   0  0  0  0  0  0  0  0  0  0  0  0
    9.7983  -13.4595   26.6429 C   0  0  0  0  0  0  0  0  0  0  0  0
   10.9630  -13.3397   27.6374 C   0  0  0  0  0  0  0  0  0  0  0  0
   10.6153  -14.4697   28.5812 C   0  0  0  0  0  0  0  0  0  0  0  0
   10.1823  -15.5352   27.6652 C   0  0  1  0  0  0  0  0  0  0  0  0
    9.1646  -16.4469   28.2555 C   0  0  0  0  0  0  0  0  0  0  0  0
    9.5995  -17.3124   29.2491 O   0  0  0  0  0  0  0  0  0  0  0  0
    7.9615  -16.4906   27.9236 O   0  0  0  0  0  0  0  0  0  0  0  0
  2  1  1  0
  3  2  2  0
  4  3  1  0
  5 11  1  0
  5  4  2  0
  6  5  1  0
  7  9  1  0
  7  6  1  0
  7  8  1  1
  9 20  1  0
  9 10  2  0
 11 12  2  0
 12  2  1  0
 13 14  1  0
 14 24  2  0
 15 16  2  0
 15 14  1  0
 16 17  1  0
 17 18  1  0
 17 23  2  0
 19 18  1  6
 20 19  1  0
 21 19  1  0
 22 21  2  0
 24 23  1  0
 25 21  1  0
 25 29  1  0
 26 25  1  0
 27 26  1  0
 27 28  1  0
 28 29  1  0
 29 30  1  1
 30 32  2  0
 30 31  1  0
M  END
$$$$
