YYP.pdb
     RDKit          3D

 32 34  0  0  1  0  0  0  0  0999 V2000
    9.4554  -13.5846   15.4857 O   0  0  0  0  0  0  0  0  0  0  0  0
    8.9404  -13.7555   16.7712 C   0  0  0  0  0  0  0  0  0  0  0  0
    9.4864  -14.7322   17.5957 C   0  0  0  0  0  0  0  0  0  0  0  0
    8.9868  -14.9119   18.8749 C   0  0  0  0  0  0  0  0  0  0  0  0
    7.9477  -14.1383   19.3618 C   0  0  0  0  0  0  0  0  0  0  0  0
    7.4258  -14.3436   20.7341 C   0  0  0  0  0  0  0  0  0  0  0  0
    7.1025  -15.8132   20.9734 C   0  0  2  0  0  0  0  0  0  0  0  0
    5.9027  -16.0799   20.2344 N   0  0  0  0  0  0  0  0  0  0  0  0
    6.8655  -16.0385   22.4443 C   0  0  0  0  0  0  0  0  0  0  0  0
    5.7138  -15.7536   22.8347 O   0  0  0  0  0  0  0  0  0  0  0  0
    7.4275  -13.1727   18.5085 C   0  0  0  0  0  0  0  0  0  0  0  0
    7.9149  -12.9780   17.2210 C   0  0  0  0  0  0  0  0  0  0  0  0
    8.6153  -18.2438   30.7511 O   0  0  0  0  0  0  0  0  0  0  0  0
    8.6413  -18.1177   29.3439 C   0  0  0  0  0  0  0  0  0  0  0  0
    7.5919  -18.5483   28.5696 C   0  0  0  0  0  0  0  0  0  0  0  0
    7.6669  -18.4028   27.1915 C   0  0  0  0  0  0  0  0  0  0  0  0
    8.7408  -17.8486   26.5631 C   0  0  0  0  0  0  0  0  0  0  0  0
    8.7156  -17.7724   25.0899 C   0  0  0  0  0  0  0  0  0  0  0  0
    7.8740  -16.5158   24.6619 C   0  0  2  0  0  0  0  0  0  0  0  0
    7.9064  -16.5324   23.2487 N   0  0  0  0  0  0  0  0  0  0  0  0
    8.3803  -15.3669   25.3332 C   0  0  0  0  0  0  0  0  0  0  0  0
    9.6694  -15.1800   25.2600 O   0  0  0  0  0  0  0  0  0  0  0  0
    9.7879  -17.4204   27.3249 C   0  0  0  0  0  0  0  0  0  0  0  0
    9.7307  -17.5587   28.7239 C   0  0  0  0  0  0  0  0  0  0  0  0
    7.6827  -14.3893   26.0639 N   0  0  0  0  0  0  0  0  0  0  0  0
    6.2477  -14.2158   26.2465 C   0  0  0  0  0  0  0  0  0  0  0  0
    6.0961  -12.6937   26.3885 C   0  0  0  0  0  0  0  0  0  0  0  0
    7.2702  -12.3998   27.2961 C   0  0  0  0  0  0  0  0  0  0  0  0
    8.3296  -13.2563   26.7430 C   0  0  1  0  0  0  0  0  0  0  0  0
    9.3106  -13.7186   27.7624 C   0  0  0  0  0  0  0  0  0  0  0  0
   10.1926  -12.7695   28.2590 O   0  0  0  0  0  0  0  0  0  0  0  0
    9.3981  -14.8861   28.1968 O   0  0  0  0  0  0  0  0  0  0  0  0
  2  1  1  0
  3  2  2  0
  4  3  1  0
  5 11  1  0
  5  4  2  0
  6  5  1  0
  7  9  1  0
  7  6  1  0
  7  8  1  6
  9 20  1  0
  9 10  2  0
 11 12  2  0
 12  2  1  0
 13 14  1  0
 14 24  2  0
 15 16  2  0
 15 14  1  0
 16 17  1  0
 17 18  1  0
 17 23  2  0
 19 18  1  1
 20 19  1  0
 21 19  1  0
 22 21  2  0
 24 23  1  0
 25 21  1  0
 25 29  1  0
 26 25  1  0
 27 26  1  0
 27 28  1  0
 28 29  1  0
 29 30  1  1
 30 32  2  0
 30 31  1  0
M  END
$$$$
