YYP.pdb
     RDKit          3D

 32 34  0  0  1  0  0  0  0  0999 V2000
    9.5082  -13.2607   16.6071 O   0  0  0  0  0  0  0  0  0  0  0  0
    8.8136  -13.6717   17.7452 C   0  0  0  0  0  0  0  0  0  0  0  0
    7.9560  -12.7777   18.3756 C   0  0  0  0  0  0  0  0  0  0  0  0
    7.2584  -13.1723   19.5051 C   0  0  0  0  0  0  0  0  0  0  0  0
    7.3917  -14.4456   20.0306 C   0  0  0  0  0  0  0  0  0  0  0  0
    6.6366  -14.8515   21.2400 C   0  0  0  0  0  0  0  0  0  0  0  0
    6.9225  -16.3064   21.5907 C   0  0  2  0  0  0  0  0  0  0  0  0
    5.8736  -17.0733   20.9837 N   0  0  0  0  0  0  0  0  0  0  0  0
    6.8870  -16.4747   23.0877 C   0  0  0  0  0  0  0  0  0  0  0  0
    5.7643  -16.2949   23.6044 O   0  0  0  0  0  0  0  0  0  0  0  0
    8.2582  -15.3109   19.3736 C   0  0  0  0  0  0  0  0  0  0  0  0
    8.9679  -14.9329   18.2393 C   0  0  0  0  0  0  0  0  0  0  0  0
    4.5050  -21.8187   23.3505 O   0  0  0  0  0  0  0  0  0  0  0  0
    5.4977  -20.9618   23.8771 C   0  0  0  0  0  0  0  0  0  0  0  0
    6.6225  -20.6451   23.1555 C   0  0  0  0  0  0  0  0  0  0  0  0
    7.5684  -19.7998   23.7182 C   0  0  0  0  0  0  0  0  0  0  0  0
    7.4348  -19.2638   24.9633 C   0  0  0  0  0  0  0  0  0  0  0  0
    8.5209  -18.3997   25.4636 C   0  0  0  0  0  0  0  0  0  0  0  0
    8.1430  -16.8994   25.1865 C   0  0  2  0  0  0  0  0  0  0  0  0
    8.0647  -16.8081   23.7780 N   0  0  0  0  0  0  0  0  0  0  0  0
    9.0663  -16.0546   25.8654 C   0  0  0  0  0  0  0  0  0  0  0  0
   10.3221  -16.1988   25.5419 O   0  0  0  0  0  0  0  0  0  0  0  0
    6.3216  -19.5753   25.6870 C   0  0  0  0  0  0  0  0  0  0  0  0
    5.3507  -20.4302   25.1339 C   0  0  0  0  0  0  0  0  0  0  0  0
    8.8164  -15.0707   26.8379 N   0  0  0  0  0  0  0  0  0  0  0  0
    7.5625  -14.4251   27.2034 C   0  0  0  0  0  0  0  0  0  0  0  0
    8.0086  -13.0230   27.6449 C   0  0  0  0  0  0  0  0  0  0  0  0
    9.2309  -13.3843   28.4598 C   0  0  0  0  0  0  0  0  0  0  0  0
    9.8662  -14.4299   27.6444 C   0  0  1  0  0  0  0  0  0  0  0  0
   10.6243  -15.4283   28.4468 C   0  0  0  0  0  0  0  0  0  0  0  0
   11.7689  -14.9776   29.0889 O   0  0  0  0  0  0  0  0  0  0  0  0
   10.3098  -16.6294   28.5808 O   0  0  0  0  0  0  0  0  0  0  0  0
  2  1  1  0
  3  2  2  0
  4  3  1  0
  5 11  1  0
  5  4  2  0
  6  5  1  0
  7  9  1  0
  7  6  1  0
  7  8  1  6
  9 20  1  0
  9 10  2  0
 11 12  2  0
 12  2  1  0
 13 14  1  0
 14 24  2  0
 15 16  2  0
 15 14  1  0
 16 17  1  0
 17 18  1  0
 17 23  2  0
 19 18  1  6
 20 19  1  0
 21 19  1  0
 22 21  2  0
 24 23  1  0
 25 21  1  0
 25 29  1  0
 26 25  1  0
 27 26  1  0
 27 28  1  0
 28 29  1  0
 29 30  1  1
 30 32  2  0
 30 31  1  0
M  END
$$$$
