DIA.pdb
     RDKit          3D

 22 21  0  0  1  0  0  0  0  0999 V2000
    9.0122  -17.8172   17.1008 N   0  0  0  0  0  0  0  0  0  0  0  0
   10.3751  -17.6453   17.5584 C   0  0  1  0  0  0  0  0  0  0  0  0
   11.1688  -17.0917   16.4018 C   0  0  0  0  0  0  0  0  0  0  0  0
   10.8871  -17.9210   15.2087 C   0  0  0  0  0  0  0  0  0  0  0  0
    9.8591  -17.6937   14.5309 O   0  0  0  0  0  0  0  0  0  0  0  0
   10.3819  -16.7715   18.7335 C   0  0  0  0  0  0  0  0  0  0  0  0
   11.4751  -16.4387   19.2509 O   0  0  0  0  0  0  0  0  0  0  0  0
   11.7268  -18.9430   14.8175 O   0  0  0  0  0  0  0  0  0  0  0  0
    6.9703  -12.5226   19.5786 C   0  0  0  0  0  0  0  0  0  0  0  0
    8.2496  -13.3711   19.4998 C   0  0  0  0  0  0  0  0  0  0  0  0
    8.1780  -14.4001   20.5621 C   0  0  2  0  0  0  0  0  0  0  0  0
    8.1747  -13.7134   21.9126 C   0  0  0  0  0  0  0  0  0  0  0  0
    9.2681  -15.4239   20.5627 C   0  0  2  0  0  0  0  0  0  0  0  0
    9.2050  -16.2567   19.3503 N   0  0  0  0  0  0  0  0  0  0  0  0
    9.3113  -16.2651   21.7742 C   0  0  0  0  0  0  0  0  0  0  0  0
    8.3166  -16.9600   22.0754 O   0  0  0  0  0  0  0  0  0  0  0  0
   11.7480  -18.0859   23.7460 C   0  0  0  0  0  0  0  0  0  0  0  0
   10.5444  -17.1910   23.7776 C   0  0  2  0  0  0  0  0  0  0  0  0
   10.4379  -16.3319   22.6331 N   0  0  0  0  0  0  0  0  0  0  0  0
   10.5622  -16.4484   25.0581 C   0  0  0  0  0  0  0  0  0  0  0  0
   10.5489  -17.1864   26.2336 O   0  0  0  0  0  0  0  0  0  0  0  0
   10.5884  -15.2015   25.1549 O   0  0  0  0  0  0  0  0  0  0  0  0
  2  1  1  6
  3  4  1  0
  3  2  1  0
  4  8  1  0
  5  4  2  0
  6  2  1  0
  6  7  2  0
  9 10  1  0
 10 11  1  0
 11 12  1  1
 11 13  1  0
 13 14  1  6
 14  6  1  0
 15 13  1  0
 16 15  2  0
 18 19  1  0
 18 17  1  6
 19 15  1  0
 20 18  1  0
 21 20  1  0
 22 20  2  0
M  END
$$$$
