DIA.pdb
     RDKit          3D

 22 21  0  0  1  0  0  0  0  0999 V2000
    8.3013  -16.0534   20.5531 N   0  0  0  0  0  0  0  0  0  0  0  0
    7.7111  -16.3383   21.8442 C   0  0  1  0  0  0  0  0  0  0  0  0
    7.7560  -17.8334   22.0364 C   0  0  0  0  0  0  0  0  0  0  0  0
    6.7436  -18.4446   21.1465 C   0  0  0  0  0  0  0  0  0  0  0  0
    6.4071  -17.8487   20.0978 O   0  0  0  0  0  0  0  0  0  0  0  0
    8.4389  -15.6014   22.8794 C   0  0  0  0  0  0  0  0  0  0  0  0
    9.6847  -15.4815   22.7937 O   0  0  0  0  0  0  0  0  0  0  0  0
    6.1554  -19.6577   21.4378 O   0  0  0  0  0  0  0  0  0  0  0  0
    6.0398  -12.1070   26.8517 C   0  0  0  0  0  0  0  0  0  0  0  0
    6.5273  -13.3893   26.1585 C   0  0  0  0  0  0  0  0  0  0  0  0
    7.8531  -13.1074   25.5624 C   0  0  2  0  0  0  0  0  0  0  0  0
    7.6824  -12.1143   24.4309 C   0  0  0  0  0  0  0  0  0  0  0  0
    8.6041  -14.2888   25.0362 C   0  0  2  0  0  0  0  0  0  0  0  0
    7.8190  -14.9932   24.0092 N   0  0  0  0  0  0  0  0  0  0  0  0
    9.0672  -15.2271   26.0765 C   0  0  0  0  0  0  0  0  0  0  0  0
    8.2421  -15.9844   26.6321 O   0  0  0  0  0  0  0  0  0  0  0  0
   12.4038  -16.4331   27.4185 C   0  0  0  0  0  0  0  0  0  0  0  0
   10.9155  -16.2510   27.4647 C   0  0  2  0  0  0  0  0  0  0  0  0
   10.4205  -15.3211   26.4902 N   0  0  0  0  0  0  0  0  0  0  0  0
   10.5436  -15.8882   28.8509 C   0  0  0  0  0  0  0  0  0  0  0  0
   10.0686  -14.6039   29.0777 O   0  0  0  0  0  0  0  0  0  0  0  0
   10.6277  -16.6586   29.8328 O   0  0  0  0  0  0  0  0  0  0  0  0
  2  1  1  6
  3  4  1  0
  3  2  1  0
  4  8  1  0
  5  4  2  0
  6  2  1  0
  6  7  2  0
  9 10  1  0
 10 11  1  0
 11 12  1  6
 11 13  1  0
 13 14  1  6
 14  6  1  0
 15 13  1  0
 16 15  2  0
 18 19  1  0
 18 17  1  1
 19 15  1  0
 20 18  1  0
 21 20  1  0
 22 20  2  0
M  END
$$$$
