DIA.pdb
     RDKit          3D

 22 21  0  0  1  0  0  0  0  0999 V2000
    8.7571  -15.1666   19.8979 N   0  0  0  0  0  0  0  0  0  0  0  0
    7.9568  -15.7090   20.9757 C   0  0  1  0  0  0  0  0  0  0  0  0
    7.9432  -17.2081   20.8120 C   0  0  0  0  0  0  0  0  0  0  0  0
    7.2214  -17.5300   19.5606 C   0  0  0  0  0  0  0  0  0  0  0  0
    5.9692  -17.5260   19.5548 O   0  0  0  0  0  0  0  0  0  0  0  0
    8.5162  -15.2736   22.2570 C   0  0  0  0  0  0  0  0  0  0  0  0
    9.7603  -15.2648   22.4181 O   0  0  0  0  0  0  0  0  0  0  0  0
    7.8889  -17.8363   18.3931 O   0  0  0  0  0  0  0  0  0  0  0  0
    7.1887  -11.6713   27.0222 C   0  0  0  0  0  0  0  0  0  0  0  0
    8.0964  -12.8242   26.5643 C   0  0  0  0  0  0  0  0  0  0  0  0
    7.5817  -13.3197   25.2674 C   0  0  2  0  0  0  0  0  0  0  0  0
    6.1454  -13.7675   25.4470 C   0  0  0  0  0  0  0  0  0  0  0  0
    8.3450  -14.4428   24.6409 C   0  0  2  0  0  0  0  0  0  0  0  0
    7.7296  -14.8471   23.3660 N   0  0  0  0  0  0  0  0  0  0  0  0
    8.5406  -15.6105   25.5215 C   0  0  0  0  0  0  0  0  0  0  0  0
    7.5499  -16.2863   25.8749 O   0  0  0  0  0  0  0  0  0  0  0  0
   11.2448  -18.0025   26.2028 C   0  0  0  0  0  0  0  0  0  0  0  0
   10.0648  -17.2334   26.7192 C   0  0  2  0  0  0  0  0  0  0  0  0
    9.8123  -16.0180   25.9992 N   0  0  0  0  0  0  0  0  0  0  0  0
   10.2625  -17.0154   28.1699 C   0  0  0  0  0  0  0  0  0  0  0  0
   10.2671  -15.7067   28.6323 O   0  0  0  0  0  0  0  0  0  0  0  0
   10.4257  -17.9287   29.0089 O   0  0  0  0  0  0  0  0  0  0  0  0
  2  1  1  6
  3  4  1  0
  3  2  1  0
  4  8  1  0
  5  4  2  0
  6  2  1  0
  6  7  2  0
  9 10  1  0
 10 11  1  0
 11 12  1  1
 11 13  1  0
 13 14  1  6
 14  6  1  0
 15 13  1  0
 16 15  2  0
 18 19  1  0
 18 17  1  6
 19 15  1  0
 20 18  1  0
 21 20  1  0
 22 20  2  0
M  END
$$$$
