DIA.pdb
     RDKit          3D

 22 21  0  0  1  0  0  0  0  0999 V2000
    9.8764  -18.4746   16.6513 N   0  0  0  0  0  0  0  0  0  0  0  0
    9.0782  -18.5696   17.8556 C   0  0  1  0  0  0  0  0  0  0  0  0
    9.2131  -19.9802   18.3715 C   0  0  0  0  0  0  0  0  0  0  0  0
    8.4984  -20.8829   17.4416 C   0  0  0  0  0  0  0  0  0  0  0  0
    9.0088  -21.9864   17.1421 O   0  0  0  0  0  0  0  0  0  0  0  0
    9.5306  -17.5591   18.8140 C   0  0  0  0  0  0  0  0  0  0  0  0
   10.7596  -17.3765   18.9870 O   0  0  0  0  0  0  0  0  0  0  0  0
    7.2798  -20.5447   16.8909 O   0  0  0  0  0  0  0  0  0  0  0  0
    7.6759  -12.1298   20.7951 C   0  0  0  0  0  0  0  0  0  0  0  0
    8.7062  -13.2403   21.0557 C   0  0  0  0  0  0  0  0  0  0  0  0
    8.2491  -14.4587   20.3493 C   0  0  2  0  0  0  0  0  0  0  0  0
    6.8950  -14.8644   20.8947 C   0  0  0  0  0  0  0  0  0  0  0  0
    9.1567  -15.6448   20.4260 C   0  0  2  0  0  0  0  0  0  0  0  0
    8.6530  -16.7446   19.5867 N   0  0  0  0  0  0  0  0  0  0  0  0
    9.4279  -16.1150   21.7981 C   0  0  0  0  0  0  0  0  0  0  0  0
    8.5382  -16.7319   22.4232 O   0  0  0  0  0  0  0  0  0  0  0  0
   12.5125  -16.7154   23.8588 C   0  0  0  0  0  0  0  0  0  0  0  0
   11.0349  -16.5029   23.7108 C   0  0  2  0  0  0  0  0  0  0  0  0
   10.6636  -15.9032   22.4610 N   0  0  0  0  0  0  0  0  0  0  0  0
   10.5656  -15.7316   24.8840 C   0  0  0  0  0  0  0  0  0  0  0  0
    9.9340  -14.5182   24.6493 O   0  0  0  0  0  0  0  0  0  0  0  0
   10.6987  -16.0972   26.0729 O   0  0  0  0  0  0  0  0  0  0  0  0
  2  1  1  6
  3  4  1  0
  3  2  1  0
  4  8  1  0
  5  4  2  0
  6  2  1  0
  6  7  2  0
  9 10  1  0
 10 11  1  0
 11 12  1  1
 11 13  1  0
 13 14  1  6
 14  6  1  0
 15 13  1  0
 16 15  2  0
 18 19  1  0
 18 17  1  6
 19 15  1  0
 20 18  1  0
 21 20  1  0
 22 20  2  0
M  END
$$$$
