DIA.pdb
     RDKit          3D

 22 21  0  0  1  0  0  0  0  0999 V2000
    8.7521  -15.3478   20.6517 N   0  0  0  0  0  0  0  0  0  0  0  0
    7.8813  -15.6679   21.7633 C   0  0  1  0  0  0  0  0  0  0  0  0
    7.6954  -17.1644   21.7694 C   0  0  0  0  0  0  0  0  0  0  0  0
    6.9179  -17.5386   20.5669 C   0  0  0  0  0  0  0  0  0  0  0  0
    6.3717  -18.6642   20.5138 O   0  0  0  0  0  0  0  0  0  0  0  0
    8.4722  -15.1549   23.0011 C   0  0  0  0  0  0  0  0  0  0  0  0
    9.7134  -14.9858   23.0706 O   0  0  0  0  0  0  0  0  0  0  0  0
    6.7751  -16.6810   19.4961 O   0  0  0  0  0  0  0  0  0  0  0  0
    5.9719  -11.5836   26.3269 C   0  0  0  0  0  0  0  0  0  0  0  0
    7.0901  -12.2386   25.5002 C   0  0  0  0  0  0  0  0  0  0  0  0
    7.5000  -13.4806   26.1944 C   0  0  2  0  0  0  0  0  0  0  0  0
    8.2208  -13.1130   27.4754 C   0  0  0  0  0  0  0  0  0  0  0  0
    8.3755  -14.4117   25.4178 C   0  0  2  0  0  0  0  0  0  0  0  0
    7.7205  -14.8241   24.1655 N   0  0  0  0  0  0  0  0  0  0  0  0
    8.8379  -15.5881   26.1791 C   0  0  0  0  0  0  0  0  0  0  0  0
    7.9967  -16.3780   26.6601 O   0  0  0  0  0  0  0  0  0  0  0  0
   12.0804  -17.4568   26.5976 C   0  0  0  0  0  0  0  0  0  0  0  0
   10.6990  -17.0692   27.0358 C   0  0  2  0  0  0  0  0  0  0  0  0
   10.2081  -15.8797   26.4006 N   0  0  0  0  0  0  0  0  0  0  0  0
   10.6985  -16.9777   28.5133 C   0  0  0  0  0  0  0  0  0  0  0  0
   11.0172  -18.1216   29.2320 O   0  0  0  0  0  0  0  0  0  0  0  0
   10.4308  -15.9408   29.1599 O   0  0  0  0  0  0  0  0  0  0  0  0
  2  1  1  6
  3  4  1  0
  3  2  1  0
  4  8  1  0
  5  4  2  0
  6  2  1  0
  6  7  2  0
  9 10  1  0
 10 11  1  0
 11 12  1  1
 11 13  1  0
 13 14  1  6
 14  6  1  0
 15 13  1  0
 16 15  2  0
 18 19  1  0
 18 17  1  6
 19 15  1  0
 20 18  1  0
 21 20  1  0
 22 20  2  0
M  END
$$$$
