DIA.pdb
     RDKit          3D

 22 21  0  0  1  0  0  0  0  0999 V2000
    8.2911  -14.3982   20.1275 N   0  0  0  0  0  0  0  0  0  0  0  0
    7.9493  -15.4667   21.0430 C   0  0  1  0  0  0  0  0  0  0  0  0
    8.5277  -16.7404   20.4798 C   0  0  0  0  0  0  0  0  0  0  0  0
    7.8244  -17.0476   19.2143 C   0  0  0  0  0  0  0  0  0  0  0  0
    6.5941  -16.8312   19.1266 O   0  0  0  0  0  0  0  0  0  0  0  0
    8.4608  -15.1408   22.3758 C   0  0  0  0  0  0  0  0  0  0  0  0
    9.6990  -15.0611   22.5611 O   0  0  0  0  0  0  0  0  0  0  0  0
    8.4857  -17.5681   18.1214 O   0  0  0  0  0  0  0  0  0  0  0  0
    5.9087  -11.6965   25.8365 C   0  0  0  0  0  0  0  0  0  0  0  0
    6.9619  -12.3977   24.9638 C   0  0  0  0  0  0  0  0  0  0  0  0
    7.2964  -13.6895   25.6055 C   0  0  2  0  0  0  0  0  0  0  0  0
    7.9362  -13.4186   26.9520 C   0  0  0  0  0  0  0  0  0  0  0  0
    8.2022  -14.5945   24.8329 C   0  0  2  0  0  0  0  0  0  0  0  0
    7.6326  -14.9006   23.5103 N   0  0  0  0  0  0  0  0  0  0  0  0
    8.5732  -15.8337   25.5429 C   0  0  0  0  0  0  0  0  0  0  0  0
    7.6738  -16.5875   25.9740 O   0  0  0  0  0  0  0  0  0  0  0  0
   11.6332  -17.9599   26.0544 C   0  0  0  0  0  0  0  0  0  0  0  0
   10.3165  -17.3950   26.4992 C   0  0  2  0  0  0  0  0  0  0  0  0
    9.9173  -16.2262   25.7685 N   0  0  0  0  0  0  0  0  0  0  0  0
   10.3888  -17.1666   27.9601 C   0  0  0  0  0  0  0  0  0  0  0  0
   10.6689  -18.2571   28.7718 O   0  0  0  0  0  0  0  0  0  0  0  0
   10.2150  -16.0589   28.5146 O   0  0  0  0  0  0  0  0  0  0  0  0
  2  1  1  6
  3  4  1  0
  3  2  1  0
  4  8  1  0
  5  4  2  0
  6  2  1  0
  6  7  2  0
  9 10  1  0
 10 11  1  0
 11 12  1  1
 11 13  1  0
 13 14  1  6
 14  6  1  0
 15 13  1  0
 16 15  2  0
 18 19  1  0
 18 17  1  6
 19 15  1  0
 20 18  1  0
 21 20  1  0
 22 20  2  0
M  END
$$$$
