DIA.pdb
     RDKit          3D

 22 21  0  0  1  0  0  0  0  0999 V2000
    8.8124  -15.8813   21.1701 N   0  0  0  0  0  0  0  0  0  0  0  0
    8.2845  -16.3695   22.4268 C   0  0  1  0  0  0  0  0  0  0  0  0
    8.7215  -17.8059   22.5677 C   0  0  0  0  0  0  0  0  0  0  0  0
    8.0131  -18.6072   21.5446 C   0  0  0  0  0  0  0  0  0  0  0  0
    6.8441  -18.2960   21.2212 O   0  0  0  0  0  0  0  0  0  0  0  0
    8.7606  -15.5124   23.5145 C   0  0  0  0  0  0  0  0  0  0  0  0
    9.9371  -15.0775   23.4901 O   0  0  0  0  0  0  0  0  0  0  0  0
    8.6038  -19.6929   20.9323 O   0  0  0  0  0  0  0  0  0  0  0  0
    5.5621  -11.7274   25.6790 C   0  0  0  0  0  0  0  0  0  0  0  0
    6.7592  -12.4598   25.0519 C   0  0  0  0  0  0  0  0  0  0  0  0
    7.4060  -13.2645   26.1133 C   0  0  2  0  0  0  0  0  0  0  0  0
    8.0055  -12.3290   27.1433 C   0  0  0  0  0  0  0  0  0  0  0  0
    8.4744  -14.2102   25.6650 C   0  0  2  0  0  0  0  0  0  0  0  0
    7.9638  -15.1247   24.6304 N   0  0  0  0  0  0  0  0  0  0  0  0
    9.1174  -14.9634   26.7588 C   0  0  0  0  0  0  0  0  0  0  0  0
    8.4238  -15.7158   27.4771 O   0  0  0  0  0  0  0  0  0  0  0  0
   10.7419  -14.3088   29.4240 C   0  0  0  0  0  0  0  0  0  0  0  0
   11.1002  -15.2389   28.3027 C   0  0  2  0  0  0  0  0  0  0  0  0
   10.5035  -14.8814   27.0476 N   0  0  0  0  0  0  0  0  0  0  0  0
   10.7671  -16.6167   28.7295 C   0  0  0  0  0  0  0  0  0  0  0  0
   11.3771  -17.1032   29.8774 O   0  0  0  0  0  0  0  0  0  0  0  0
    9.9737  -17.3737   28.1275 O   0  0  0  0  0  0  0  0  0  0  0  0
  2  1  1  6
  3  4  1  0
  3  2  1  0
  4  8  1  0
  5  4  2  0
  6  2  1  0
  6  7  2  0
  9 10  1  0
 10 11  1  0
 11 12  1  1
 11 13  1  0
 13 14  1  6
 14  6  1  0
 15 13  1  0
 16 15  2  0
 18 19  1  0
 18 17  1  1
 19 15  1  0
 20 18  1  0
 21 20  1  0
 22 20  2  0
M  END
$$$$
