DIA.pdb
     RDKit          3D

 22 21  0  0  1  0  0  0  0  0999 V2000
    8.5482  -15.2316   20.6498 N   0  0  0  0  0  0  0  0  0  0  0  0
    7.8985  -15.8261   21.7992 C   0  0  1  0  0  0  0  0  0  0  0  0
    8.0437  -17.3216   21.6712 C   0  0  0  0  0  0  0  0  0  0  0  0
    7.1507  -17.7814   20.5841 C   0  0  0  0  0  0  0  0  0  0  0  0
    7.4745  -17.5723   19.3927 O   0  0  0  0  0  0  0  0  0  0  0  0
    8.4997  -15.2907   23.0224 C   0  0  0  0  0  0  0  0  0  0  0  0
    9.7259  -15.0266   23.0450 O   0  0  0  0  0  0  0  0  0  0  0  0
    5.9654  -18.4374   20.8437 O   0  0  0  0  0  0  0  0  0  0  0  0
    5.9986  -11.7037   26.2567 C   0  0  0  0  0  0  0  0  0  0  0  0
    7.0840  -12.4010   25.4211 C   0  0  0  0  0  0  0  0  0  0  0  0
    7.5444  -13.5891   26.1752 C   0  0  2  0  0  0  0  0  0  0  0  0
    8.2726  -13.1288   27.4216 C   0  0  0  0  0  0  0  0  0  0  0  0
    8.4374  -14.5339   25.4360 C   0  0  2  0  0  0  0  0  0  0  0  0
    7.7744  -15.0405   24.2232 N   0  0  0  0  0  0  0  0  0  0  0  0
    8.9544  -15.6476   26.2544 C   0  0  0  0  0  0  0  0  0  0  0  0
    8.1498  -16.4242   26.8135 O   0  0  0  0  0  0  0  0  0  0  0  0
   12.2652  -17.3679   26.8220 C   0  0  0  0  0  0  0  0  0  0  0  0
   10.8776  -16.9679   27.2287 C   0  0  2  0  0  0  0  0  0  0  0  0
   10.3381  -15.8924   26.4467 N   0  0  0  0  0  0  0  0  0  0  0  0
   10.8945  -16.6756   28.6798 C   0  0  0  0  0  0  0  0  0  0  0  0
   11.2719  -17.6968   29.5406 O   0  0  0  0  0  0  0  0  0  0  0  0
   10.5922  -15.5718   29.1848 O   0  0  0  0  0  0  0  0  0  0  0  0
  2  1  1  6
  3  4  1  0
  3  2  1  0
  4  8  1  0
  5  4  2  0
  6  2  1  0
  6  7  2  0
  9 10  1  0
 10 11  1  0
 11 12  1  1
 11 13  1  0
 13 14  1  6
 14  6  1  0
 15 13  1  0
 16 15  2  0
 18 19  1  0
 18 17  1  6
 19 15  1  0
 20 18  1  0
 21 20  1  0
 22 20  2  0
M  END
$$$$
