DIA.pdb
     RDKit          3D

 22 21  0  0  1  0  0  0  0  0999 V2000
    8.9964  -15.6056   20.8135 N   0  0  0  0  0  0  0  0  0  0  0  0
    8.2544  -16.1301   21.9407 C   0  0  1  0  0  0  0  0  0  0  0  0
    8.3733  -17.6327   21.8944 C   0  0  0  0  0  0  0  0  0  0  0  0
    7.5991  -18.1221   20.7318 C   0  0  0  0  0  0  0  0  0  0  0  0
    8.1301  -18.1276   19.5979 O   0  0  0  0  0  0  0  0  0  0  0  0
    8.7810  -15.5476   23.1768 C   0  0  0  0  0  0  0  0  0  0  0  0
   10.0206  -15.4216   23.3225 O   0  0  0  0  0  0  0  0  0  0  0  0
    6.3025  -18.5753   20.8591 O   0  0  0  0  0  0  0  0  0  0  0  0
    5.8423  -11.9116   26.0314 C   0  0  0  0  0  0  0  0  0  0  0  0
    7.0376  -12.5323   25.2906 C   0  0  0  0  0  0  0  0  0  0  0  0
    7.5999  -13.5992   26.1496 C   0  0  2  0  0  0  0  0  0  0  0  0
    8.3102  -12.9605   27.3258 C   0  0  0  0  0  0  0  0  0  0  0  0
    8.5512  -14.5451   25.4886 C   0  0  2  0  0  0  0  0  0  0  0  0
    7.9663  -15.1005   24.2570 N   0  0  0  0  0  0  0  0  0  0  0  0
    9.0448  -15.6234   26.3666 C   0  0  0  0  0  0  0  0  0  0  0  0
    8.2246  -16.3766   26.9350 O   0  0  0  0  0  0  0  0  0  0  0  0
   12.3888  -17.2417   27.1104 C   0  0  0  0  0  0  0  0  0  0  0  0
   10.9428  -16.9488   27.3824 C   0  0  2  0  0  0  0  0  0  0  0  0
   10.4224  -15.8589   26.6074 N   0  0  0  0  0  0  0  0  0  0  0  0
   10.7850  -16.7483   28.8406 C   0  0  0  0  0  0  0  0  0  0  0  0
   11.1128  -17.8057   29.6778 O   0  0  0  0  0  0  0  0  0  0  0  0
   10.3766  -15.6917   29.3714 O   0  0  0  0  0  0  0  0  0  0  0  0
  2  1  1  6
  3  4  1  0
  3  2  1  0
  4  8  1  0
  5  4  2  0
  6  2  1  0
  6  7  2  0
  9 10  1  0
 10 11  1  0
 11 12  1  1
 11 13  1  0
 13 14  1  6
 14  6  1  0
 15 13  1  0
 16 15  2  0
 18 19  1  0
 18 17  1  1
 19 15  1  0
 20 18  1  0
 21 20  1  0
 22 20  2  0
M  END
$$$$
