DIA.pdb
     RDKit          3D

 22 21  0  0  1  0  0  0  0  0999 V2000
    8.7227  -15.3709   20.7137 N   0  0  0  0  0  0  0  0  0  0  0  0
    7.9746  -15.8987   21.8354 C   0  0  1  0  0  0  0  0  0  0  0  0
    7.9868  -17.4018   21.7136 C   0  0  0  0  0  0  0  0  0  0  0  0
    7.1174  -17.7806   20.5773 C   0  0  0  0  0  0  0  0  0  0  0  0
    7.5815  -17.7595   19.4145 O   0  0  0  0  0  0  0  0  0  0  0  0
    8.5718  -15.4161   23.0823 C   0  0  0  0  0  0  0  0  0  0  0  0
    9.8198  -15.3354   23.1801 O   0  0  0  0  0  0  0  0  0  0  0  0
    5.8035  -18.1587   20.7602 O   0  0  0  0  0  0  0  0  0  0  0  0
    6.0678  -11.6942   26.2507 C   0  0  0  0  0  0  0  0  0  0  0  0
    7.1441  -12.4124   25.4210 C   0  0  0  0  0  0  0  0  0  0  0  0
    7.6034  -13.5888   26.1939 C   0  0  2  0  0  0  0  0  0  0  0  0
    8.3578  -13.1095   27.4174 C   0  0  0  0  0  0  0  0  0  0  0  0
    8.4730  -14.5603   25.4614 C   0  0  2  0  0  0  0  0  0  0  0  0
    7.8187  -15.0200   24.2253 N   0  0  0  0  0  0  0  0  0  0  0  0
    8.9217  -15.7072   26.2742 C   0  0  0  0  0  0  0  0  0  0  0  0
    8.0711  -16.4542   26.8049 O   0  0  0  0  0  0  0  0  0  0  0  0
   12.1154  -17.6306   26.7916 C   0  0  0  0  0  0  0  0  0  0  0  0
   10.7625  -17.1527   27.2298 C   0  0  2  0  0  0  0  0  0  0  0  0
   10.2885  -16.0167   26.4921 N   0  0  0  0  0  0  0  0  0  0  0  0
   10.8148  -16.9129   28.6897 C   0  0  0  0  0  0  0  0  0  0  0  0
   11.0691  -17.9998   29.5146 O   0  0  0  0  0  0  0  0  0  0  0  0
   10.6457  -15.7985   29.2323 O   0  0  0  0  0  0  0  0  0  0  0  0
  2  1  1  6
  3  4  1  0
  3  2  1  0
  4  8  1  0
  5  4  2  0
  6  2  1  0
  6  7  2  0
  9 10  1  0
 10 11  1  0
 11 12  1  1
 11 13  1  0
 13 14  1  6
 14  6  1  0
 15 13  1  0
 16 15  2  0
 18 19  1  0
 18 17  1  6
 19 15  1  0
 20 18  1  0
 21 20  1  0
 22 20  2  0
M  END
$$$$
