DIA.pdb
     RDKit          3D

 22 21  0  0  1  0  0  0  0  0999 V2000
    8.4270  -15.1096   20.2366 N   0  0  0  0  0  0  0  0  0  0  0  0
    7.8562  -15.7903   21.3800 C   0  0  1  0  0  0  0  0  0  0  0  0
    8.1655  -17.2583   21.2270 C   0  0  0  0  0  0  0  0  0  0  0  0
    7.4073  -17.7717   20.0642 C   0  0  0  0  0  0  0  0  0  0  0  0
    6.3838  -17.1613   19.6796 O   0  0  0  0  0  0  0  0  0  0  0  0
    8.4037  -15.2103   22.6082 C   0  0  0  0  0  0  0  0  0  0  0  0
    9.6340  -14.9789   22.6884 O   0  0  0  0  0  0  0  0  0  0  0  0
    7.7951  -18.9088   19.3865 O   0  0  0  0  0  0  0  0  0  0  0  0
    8.6498  -11.5458   26.6261 C   0  0  0  0  0  0  0  0  0  0  0  0
    7.8842  -12.8391   26.9485 C   0  0  0  0  0  0  0  0  0  0  0  0
    7.3720  -13.3932   25.6745 C   0  0  2  0  0  0  0  0  0  0  0  0
    6.0130  -14.0164   25.9203 C   0  0  0  0  0  0  0  0  0  0  0  0
    8.2372  -14.4118   25.0034 C   0  0  2  0  0  0  0  0  0  0  0  0
    7.6200  -14.8800   23.7515 N   0  0  0  0  0  0  0  0  0  0  0  0
    8.6107  -15.5524   25.8617 C   0  0  0  0  0  0  0  0  0  0  0  0
    7.7186  -16.3152   26.2923 O   0  0  0  0  0  0  0  0  0  0  0  0
   11.7068  -17.5208   26.5690 C   0  0  0  0  0  0  0  0  0  0  0  0
   10.3625  -16.9944   26.9768 C   0  0  2  0  0  0  0  0  0  0  0  0
    9.9491  -15.8386   26.2333 N   0  0  0  0  0  0  0  0  0  0  0  0
   10.3882  -16.7626   28.4386 C   0  0  0  0  0  0  0  0  0  0  0  0
   10.7151  -17.8345   29.2575 O   0  0  0  0  0  0  0  0  0  0  0  0
   10.1357  -15.6674   28.9879 O   0  0  0  0  0  0  0  0  0  0  0  0
  2  1  1  6
  3  4  1  0
  3  2  1  0
  4  8  1  0
  5  4  2  0
  6  2  1  0
  6  7  2  0
  9 10  1  0
 10 11  1  0
 11 12  1  1
 11 13  1  0
 13 14  1  6
 14  6  1  0
 15 13  1  0
 16 15  2  0
 18 19  1  0
 18 17  1  6
 19 15  1  0
 20 18  1  0
 21 20  1  0
 22 20  2  0
M  END
$$$$
