DIA.pdb
     RDKit          3D

 22 21  0  0  1  0  0  0  0  0999 V2000
    8.2622  -14.9058   20.4132 N   0  0  0  0  0  0  0  0  0  0  0  0
    7.6735  -15.6401   21.5135 C   0  0  1  0  0  0  0  0  0  0  0  0
    7.8236  -17.1081   21.2026 C   0  0  0  0  0  0  0  0  0  0  0  0
    6.9991  -17.4153   20.0125 C   0  0  0  0  0  0  0  0  0  0  0  0
    5.7507  -17.3903   20.1065 O   0  0  0  0  0  0  0  0  0  0  0  0
    8.3292  -15.2448   22.7617 C   0  0  0  0  0  0  0  0  0  0  0  0
    9.5790  -15.1428   22.7989 O   0  0  0  0  0  0  0  0  0  0  0  0
    7.5663  -17.7303   18.7953 O   0  0  0  0  0  0  0  0  0  0  0  0
    6.1533  -11.7184   26.3955 C   0  0  0  0  0  0  0  0  0  0  0  0
    7.1408  -12.4170   25.4471 C   0  0  0  0  0  0  0  0  0  0  0  0
    7.5312  -13.7043   26.0657 C   0  0  2  0  0  0  0  0  0  0  0  0
    8.3073  -13.4240   27.3364 C   0  0  0  0  0  0  0  0  0  0  0  0
    8.3472  -14.6242   25.2147 C   0  0  2  0  0  0  0  0  0  0  0  0
    7.6329  -14.9592   23.9717 N   0  0  0  0  0  0  0  0  0  0  0  0
    8.8010  -15.8475   25.9039 C   0  0  0  0  0  0  0  0  0  0  0  0
    7.9566  -16.6086   26.4242 O   0  0  0  0  0  0  0  0  0  0  0  0
   11.9759  -17.8667   26.1943 C   0  0  0  0  0  0  0  0  0  0  0  0
   10.6466  -17.3837   26.6946 C   0  0  2  0  0  0  0  0  0  0  0  0
   10.1662  -16.2164   26.0120 N   0  0  0  0  0  0  0  0  0  0  0  0
   10.7522  -17.1943   28.1590 C   0  0  0  0  0  0  0  0  0  0  0  0
   11.0201  -18.3117   28.9376 O   0  0  0  0  0  0  0  0  0  0  0  0
   10.6169  -16.0971   28.7442 O   0  0  0  0  0  0  0  0  0  0  0  0
  2  1  1  6
  3  4  1  0
  3  2  1  0
  4  8  1  0
  5  4  2  0
  6  2  1  0
  6  7  2  0
  9 10  1  0
 10 11  1  0
 11 12  1  1
 11 13  1  0
 13 14  1  6
 14  6  1  0
 15 13  1  0
 16 15  2  0
 18 19  1  0
 18 17  1  6
 19 15  1  0
 20 18  1  0
 21 20  1  0
 22 20  2  0
M  END
$$$$
