DIA.pdb
     RDKit          3D

 22 21  0  0  1  0  0  0  0  0999 V2000
   10.5374  -17.9483   17.5829 N   0  0  0  0  0  0  0  0  0  0  0  0
    9.6327  -18.1834   18.6886 C   0  0  1  0  0  0  0  0  0  0  0  0
    9.9100  -19.5725   19.2059 C   0  0  0  0  0  0  0  0  0  0  0  0
    9.3993  -20.5456   18.2145 C   0  0  0  0  0  0  0  0  0  0  0  0
    8.9806  -20.1339   17.1085 O   0  0  0  0  0  0  0  0  0  0  0  0
    9.8270  -17.1418   19.6994 C   0  0  0  0  0  0  0  0  0  0  0  0
   10.9906  -16.8144   20.0350 O   0  0  0  0  0  0  0  0  0  0  0  0
    9.3700  -21.9003   18.4722 O   0  0  0  0  0  0  0  0  0  0  0  0
    7.0065  -12.4787   20.0808 C   0  0  0  0  0  0  0  0  0  0  0  0
    8.1581  -13.4967   20.0650 C   0  0  0  0  0  0  0  0  0  0  0  0
    8.0593  -14.3133   21.2962 C   0  0  2  0  0  0  0  0  0  0  0  0
    8.2607  -13.4150   22.4996 C   0  0  0  0  0  0  0  0  0  0  0  0
    9.0136  -15.4595   21.4055 C   0  0  2  0  0  0  0  0  0  0  0  0
    8.7618  -16.4530   20.3487 N   0  0  0  0  0  0  0  0  0  0  0  0
    9.0415  -16.1027   22.7332 C   0  0  0  0  0  0  0  0  0  0  0  0
    8.0058  -16.6467   23.1741 O   0  0  0  0  0  0  0  0  0  0  0  0
   11.7230  -17.1869   25.1689 C   0  0  0  0  0  0  0  0  0  0  0  0
   10.3077  -16.8775   24.7796 C   0  0  2  0  0  0  0  0  0  0  0  0
   10.1979  -16.1401   23.5534 N   0  0  0  0  0  0  0  0  0  0  0  0
    9.6588  -16.1973   25.9231 C   0  0  0  0  0  0  0  0  0  0  0  0
    9.5646  -16.8931   27.1204 O   0  0  0  0  0  0  0  0  0  0  0  0
    9.1891  -15.0385   25.8859 O   0  0  0  0  0  0  0  0  0  0  0  0
  2  1  1  6
  3  4  1  0
  3  2  1  0
  4  8  1  0
  5  4  2  0
  6  2  1  0
  6  7  2  0
  9 10  1  0
 10 11  1  0
 11 12  1  1
 11 13  1  0
 13 14  1  6
 14  6  1  0
 15 13  1  0
 16 15  2  0
 18 19  1  0
 18 17  1  1
 19 15  1  0
 20 18  1  0
 21 20  1  0
 22 20  2  0
M  END
$$$$
