RGV.pdb
     RDKit          3D

 23 22  0  0  1  0  0  0  0  0999 V2000
   22.1370  -22.0844   -7.2863 N   0  0  0  0  0  0  0  0  0  0  0  0
   21.2300  -21.8843   -8.3744 C   0  0  0  0  0  0  0  0  0  0  0  0
   20.0624  -21.4450   -8.0921 N   0  0  0  0  0  0  0  0  0  0  0  0
   21.6653  -22.1803   -9.6983 N   0  0  0  0  0  0  0  0  0  0  0  0
   22.9564  -21.7442  -10.0951 C   0  0  0  0  0  0  0  0  0  0  0  0
   23.7220  -20.8478   -9.2102 C   0  0  0  0  0  0  0  0  0  0  0  0
   24.9982  -20.2794   -9.6709 C   0  0  0  0  0  0  0  0  0  0  0  0
   25.7748  -20.9756  -10.7247 C   0  0  2  0  0  0  0  0  0  0  0  0
   27.1425  -21.2334  -10.3575 N   0  0  0  0  0  0  0  0  0  0  0  0
   25.7842  -20.1007  -11.9621 C   0  0  0  0  0  0  0  0  0  0  0  0
   24.6956  -19.7046  -12.4642 O   0  0  0  0  0  0  0  0  0  0  0  0
   19.2918  -21.2554   -8.7512 N   0  0  0  0  0  0  0  0  0  0  0  0
   27.0062  -19.7422  -12.5360 C   0  0  0  0  0  0  0  0  0  0  0  0
   27.1399  -18.6847  -13.5320 C   0  0  0  0  0  0  0  0  0  0  0  0
   26.5492  -19.0815  -14.8219 O   0  0  0  0  0  0  0  0  0  0  0  0
   27.2793  -19.4963  -15.7532 C   0  0  0  0  0  0  0  0  0  0  0  0
   22.2974  -18.9508  -15.1846 C   0  0  1  0  0  0  0  0  0  0  0  0
   23.1139  -19.9200  -16.0059 C   0  0  0  0  0  0  0  0  0  0  0  0
   23.1591  -21.2386  -15.2835 C   0  0  1  0  0  0  0  0  0  0  0  0
   24.5200  -19.3753  -16.2524 N   0  0  0  0  0  0  0  0  0  0  0  0
   25.1413  -18.9881  -14.9974 C   0  0  0  0  0  0  0  0  0  0  0  0
   24.3592  -18.1675  -17.0802 O   0  0  0  0  0  0  0  0  0  0  0  0
   24.3648  -17.0384  -16.5508 O   0  0  0  0  0  0  0  0  0  0  0  0
  2  1  1  0
  3  2  2  0
  4  2  1  0
  5  4  1  0
  6  5  1  0
  7  6  1  0
  8  7  1  0
  8 10  1  0
  8  9  1  1
 10 12  1  0
 11 10  2  0
 12 13  1  0
 13 14  1  0
 14 15  2  0
 14 20  1  0
 17 16  1  6
 17 19  1  0
 18 17  1  0
 19 21  1  0
 19 20  1  1
 21 22  2  0
 21 23  1  0
M  END
$$$$
