RGV.pdb
     RDKit          3D

 23 22  0  0  1  0  0  0  0  0999 V2000
   22.8820  -25.8057  -14.9230 N   0  0  0  0  0  0  0  0  0  0  0  0
   22.4566  -25.3773  -16.2201 C   0  0  0  0  0  0  0  0  0  0  0  0
   22.5875  -26.2071  -17.1845 N   0  0  0  0  0  0  0  0  0  0  0  0
   21.9170  -24.0674  -16.3709 N   0  0  0  0  0  0  0  0  0  0  0  0
   21.0826  -23.5608  -15.3406 C   0  0  0  0  0  0  0  0  0  0  0  0
   19.6342  -23.4289  -15.5805 C   0  0  0  0  0  0  0  0  0  0  0  0
   18.7599  -22.9138  -14.5155 C   0  0  0  0  0  0  0  0  0  0  0  0
   19.3537  -22.2109  -13.3529 C   0  0  2  0  0  0  0  0  0  0  0  0
   20.6292  -22.7413  -12.9485 N   0  0  0  0  0  0  0  0  0  0  0  0
   18.4025  -22.3468  -12.1809 C   0  0  0  0  0  0  0  0  0  0  0  0
   17.3846  -21.6038  -12.1037 O   0  0  0  0  0  0  0  0  0  0  0  0
   22.3219  -26.0630  -18.1709 N   0  0  0  0  0  0  0  0  0  0  0  0
   18.6670  -23.2987  -11.1934 C   0  0  0  0  0  0  0  0  0  0  0  0
   17.7825  -23.5371  -10.0581 C   0  0  0  0  0  0  0  0  0  0  0  0
   18.4005  -24.4431   -9.0744 O   0  0  0  0  0  0  0  0  0  0  0  0
   19.2851  -25.2576   -9.4303 C   0  0  0  0  0  0  0  0  0  0  0  0
   18.4426  -26.0048   -4.3315 C   0  0  1  0  0  0  0  0  0  0  0  0
   17.9262  -25.0205   -5.3538 C   0  0  0  0  0  0  0  0  0  0  0  0
   16.4226  -25.0375   -5.3163 C   0  0  2  0  0  0  0  0  0  0  0  0
   18.4491  -25.3593   -6.7488 N   0  0  0  0  0  0  0  0  0  0  0  0
   17.9812  -24.3825   -7.7172 C   0  0  0  0  0  0  0  0  0  0  0  0
   17.8762  -26.6699   -7.1011 O   0  0  0  0  0  0  0  0  0  0  0  0
   16.7560  -26.7397   -7.6445 O   0  0  0  0  0  0  0  0  0  0  0  0
  2  1  1  0
  3  2  2  0
  4  2  1  0
  5  4  1  0
  6  5  1  0
  7  6  1  0
  8  7  1  0
  8 10  1  0
  8  9  1  1
 10 12  1  0
 11 10  2  0
 12 13  1  0
 13 14  1  0
 14 15  2  0
 14 20  1  0
 17 16  1  1
 17 19  1  0
 18 17  1  0
 19 21  1  0
 19 20  1  6
 21 22  2  0
 21 23  1  0
M  END
$$$$
