RGV.pdb
     RDKit          3D

 23 22  0  0  1  0  0  0  0  0999 V2000
   23.6751  -25.4806  -14.3881 N   0  0  0  0  0  0  0  0  0  0  0  0
   24.5209  -25.4213  -15.5405 C   0  0  0  0  0  0  0  0  0  0  0  0
   24.2920  -26.2585  -16.4801 N   0  0  0  0  0  0  0  0  0  0  0  0
   25.5604  -24.4482  -15.5835 N   0  0  0  0  0  0  0  0  0  0  0  0
   25.6081  -23.4689  -14.5572 C   0  0  0  0  0  0  0  0  0  0  0  0
   25.2016  -22.0843  -14.8577 C   0  0  0  0  0  0  0  0  0  0  0  0
   25.2137  -21.0703  -13.7919 C   0  0  0  0  0  0  0  0  0  0  0  0
   24.8768  -21.4611  -12.4020 C   0  0  2  0  0  0  0  0  0  0  0  0
   23.4700  -21.6796  -12.1895 N   0  0  0  0  0  0  0  0  0  0  0  0
   25.3175  -20.3451  -11.4762 C   0  0  0  0  0  0  0  0  0  0  0  0
   25.1581  -19.1402  -11.8184 O   0  0  0  0  0  0  0  0  0  0  0  0
   24.8199  -26.3674  -17.3597 N   0  0  0  0  0  0  0  0  0  0  0  0
   25.8998  -20.6664  -10.2478 C   0  0  0  0  0  0  0  0  0  0  0  0
   26.4063  -19.6625   -9.3184 C   0  0  0  0  0  0  0  0  0  0  0  0
   26.9458  -20.2834   -8.0961 O   0  0  0  0  0  0  0  0  0  0  0  0
   26.6176  -21.4516   -7.7801 C   0  0  0  0  0  0  0  0  0  0  0  0
   30.0760  -19.8205   -4.2409 C   0  0  1  0  0  0  0  0  0  0  0  0
   29.4510  -19.1965   -5.4659 C   0  0  0  0  0  0  0  0  0  0  0  0
   28.8859  -17.8559   -5.0837 C   0  0  2  0  0  0  0  0  0  0  0  0
   28.3715  -20.1063   -6.0501 N   0  0  0  0  0  0  0  0  0  0  0  0
   27.8426  -19.5412   -7.2797 C   0  0  0  0  0  0  0  0  0  0  0  0
   27.2839  -20.1522   -5.0577 O   0  0  0  0  0  0  0  0  0  0  0  0
   27.4052  -20.8406   -4.0250 O   0  0  0  0  0  0  0  0  0  0  0  0
  2  1  1  0
  3  2  2  0
  4  2  1  0
  5  4  1  0
  6  5  1  0
  7  6  1  0
  8  7  1  0
  8 10  1  0
  8  9  1  6
 10 12  1  0
 11 10  2  0
 12 13  1  0
 13 14  1  0
 14 15  2  0
 14 20  1  0
 17 16  1  6
 17 19  1  0
 18 17  1  0
 19 21  1  0
 19 20  1  1
 21 22  2  0
 21 23  1  0
M  END
$$$$
