RGV.pdb
     RDKit          3D

 23 22  0  0  1  0  0  0  0  0999 V2000
   14.9150  -23.9721  -12.6511 N   0  0  0  0  0  0  0  0  0  0  0  0
   14.9238  -22.5763  -12.9650 C   0  0  0  0  0  0  0  0  0  0  0  0
   13.9274  -22.1161  -13.6218 N   0  0  0  0  0  0  0  0  0  0  0  0
   16.0254  -21.7804  -12.5376 N   0  0  0  0  0  0  0  0  0  0  0  0
   17.2906  -22.0032  -13.1412 C   0  0  0  0  0  0  0  0  0  0  0  0
   17.3600  -22.6763  -14.4507 C   0  0  0  0  0  0  0  0  0  0  0  0
   18.6548  -22.8135  -15.1354 C   0  0  0  0  0  0  0  0  0  0  0  0
   19.6401  -21.7073  -15.0727 C   0  0  2  0  0  0  0  0  0  0  0  0
   19.7503  -20.9633  -16.2998 N   0  0  0  0  0  0  0  0  0  0  0  0
   21.0004  -22.3015  -14.7672 C   0  0  0  0  0  0  0  0  0  0  0  0
   21.3609  -23.3749  -15.3257 O   0  0  0  0  0  0  0  0  0  0  0  0
   13.7755  -21.1407  -13.9214 N   0  0  0  0  0  0  0  0  0  0  0  0
   21.8434  -21.6496  -13.8641 C   0  0  0  0  0  0  0  0  0  0  0  0
   23.2177  -22.0683  -13.6111 C   0  0  0  0  0  0  0  0  0  0  0  0
   24.0720  -20.9235  -13.2503 O   0  0  0  0  0  0  0  0  0  0  0  0
   23.6863  -19.7505  -13.4687 C   0  0  0  0  0  0  0  0  0  0  0  0
   28.0526  -21.6613  -11.7476 C   0  0  1  0  0  0  0  0  0  0  0  0
   27.2096  -20.5321  -11.2046 C   0  0  0  0  0  0  0  0  0  0  0  0
   26.5282  -21.0053   -9.9498 C   0  0  1  0  0  0  0  0  0  0  0  0
   26.1925  -20.0631  -12.2437 N   0  0  0  0  0  0  0  0  0  0  0  0
   25.3388  -21.1656  -12.6518 C   0  0  0  0  0  0  0  0  0  0  0  0
   26.9682  -19.6214  -13.4156 O   0  0  0  0  0  0  0  0  0  0  0  0
   27.1383  -20.3910  -14.3820 O   0  0  0  0  0  0  0  0  0  0  0  0
  2  1  1  0
  3  2  2  0
  4  2  1  0
  5  4  1  0
  6  5  1  0
  7  6  1  0
  8  7  1  0
  8 10  1  0
  8  9  1  6
 10 12  1  0
 11 10  2  0
 12 13  1  0
 13 14  1  0
 14 15  2  0
 14 20  1  0
 17 16  1  1
 17 19  1  0
 18 17  1  0
 19 21  1  0
 19 20  1  1
 21 22  2  0
 21 23  1  0
M  END
$$$$
