RGV.pdb
     RDKit          3D

 23 22  0  0  1  0  0  0  0  0999 V2000
   24.8499  -17.4942  -18.6875 N   0  0  0  0  0  0  0  0  0  0  0  0
   23.8488  -18.1283  -19.4890 C   0  0  0  0  0  0  0  0  0  0  0  0
   24.0326  -18.1429  -20.7547 N   0  0  0  0  0  0  0  0  0  0  0  0
   22.7138  -18.7027  -18.8476 N   0  0  0  0  0  0  0  0  0  0  0  0
   22.7919  -18.9717  -17.4562 C   0  0  0  0  0  0  0  0  0  0  0  0
   23.8644  -18.3515  -16.6576 C   0  0  0  0  0  0  0  0  0  0  0  0
   23.9563  -18.6277  -15.2156 C   0  0  0  0  0  0  0  0  0  0  0  0
   24.3929  -19.9659  -14.7500 C   0  0  2  0  0  0  0  0  0  0  0  0
   25.0986  -20.7225  -15.7508 N   0  0  0  0  0  0  0  0  0  0  0  0
   23.1609  -20.7553  -14.3554 C   0  0  0  0  0  0  0  0  0  0  0  0
   22.8537  -21.8046  -14.9868 O   0  0  0  0  0  0  0  0  0  0  0  0
   23.4003  -18.5308  -21.4717 N   0  0  0  0  0  0  0  0  0  0  0  0
   22.3747  -20.3076  -13.2911 C   0  0  0  0  0  0  0  0  0  0  0  0
   21.3387  -21.1230  -12.6667 C   0  0  0  0  0  0  0  0  0  0  0  0
   20.1451  -21.2271  -13.5241 O   0  0  0  0  0  0  0  0  0  0  0  0
   19.9666  -20.4165  -14.4640 C   0  0  0  0  0  0  0  0  0  0  0  0
   17.5404  -24.5895  -12.9285 C   0  0  1  0  0  0  0  0  0  0  0  0
   17.8225  -24.0070  -14.2930 C   0  0  0  0  0  0  0  0  0  0  0  0
   18.9857  -24.7455  -14.8965 C   0  0  1  0  0  0  0  0  0  0  0  0
   18.1071  -22.5089  -14.1976 N   0  0  0  0  0  0  0  0  0  0  0  0
   19.1986  -22.2578  -13.2721 C   0  0  0  0  0  0  0  0  0  0  0  0
   16.8876  -21.8874  -13.6530 O   0  0  0  0  0  0  0  0  0  0  0  0
   16.8400  -21.5425  -12.4556 O   0  0  0  0  0  0  0  0  0  0  0  0
  2  1  1  0
  3  2  2  0
  4  2  1  0
  5  4  1  0
  6  5  1  0
  7  6  1  0
  8  7  1  0
  8 10  1  0
  8  9  1  6
 10 12  1  0
 11 10  2  0
 12 13  1  0
 13 14  1  0
 14 15  2  0
 14 20  1  0
 17 16  1  6
 17 19  1  0
 18 17  1  0
 19 21  1  0
 19 20  1  1
 21 22  2  0
 21 23  1  0
M  END
$$$$
