RGV.pdb
     RDKit          3D

 23 22  0  0  1  0  0  0  0  0999 V2000
   20.4848  -20.4721  -12.7054 N   0  0  0  0  0  0  0  0  0  0  0  0
   20.7536  -21.4962  -13.6675 C   0  0  0  0  0  0  0  0  0  0  0  0
   19.9430  -22.4845  -13.7148 N   0  0  0  0  0  0  0  0  0  0  0  0
   21.8937  -21.3668  -14.5121 N   0  0  0  0  0  0  0  0  0  0  0  0
   23.1781  -21.3393  -13.9088 C   0  0  0  0  0  0  0  0  0  0  0  0
   23.6372  -20.1096  -13.2381 C   0  0  0  0  0  0  0  0  0  0  0  0
   24.9517  -20.0830  -12.5781 C   0  0  0  0  0  0  0  0  0  0  0  0
   25.2827  -21.1069  -11.5582 C   0  0  2  0  0  0  0  0  0  0  0  0
   24.2635  -21.2721  -10.5553 N   0  0  0  0  0  0  0  0  0  0  0  0
   26.5578  -20.6825  -10.8576 C   0  0  0  0  0  0  0  0  0  0  0  0
   27.5177  -20.2068  -11.5258 O   0  0  0  0  0  0  0  0  0  0  0  0
   19.9773  -23.2882  -14.3607 N   0  0  0  0  0  0  0  0  0  0  0  0
   26.6557  -20.8254   -9.4715 C   0  0  0  0  0  0  0  0  0  0  0  0
   27.8459  -20.4551   -8.7136 C   0  0  0  0  0  0  0  0  0  0  0  0
   27.5902  -20.4795   -7.2630 O   0  0  0  0  0  0  0  0  0  0  0  0
   26.4506  -20.7649   -6.8244 C   0  0  0  0  0  0  0  0  0  0  0  0
   30.3852  -18.7293   -4.4138 C   0  0  1  0  0  0  0  0  0  0  0  0
   29.7865  -20.0990   -4.1987 C   0  0  0  0  0  0  0  0  0  0  0  0
   30.7718  -21.1312   -4.6742 C   0  0  1  0  0  0  0  0  0  0  0  0
   28.4509  -20.2305   -4.9290 N   0  0  0  0  0  0  0  0  0  0  0  0
   28.6514  -20.1752   -6.3670 C   0  0  0  0  0  0  0  0  0  0  0  0
   27.6420  -19.0658   -4.5303 O   0  0  0  0  0  0  0  0  0  0  0  0
   27.6081  -18.0487   -5.2511 O   0  0  0  0  0  0  0  0  0  0  0  0
  2  1  1  0
  3  2  2  0
  4  2  1  0
  5  4  1  0
  6  5  1  0
  7  6  1  0
  8  7  1  0
  8 10  1  0
  8  9  1  1
 10 12  1  0
 11 10  2  0
 12 13  1  0
 13 14  1  0
 14 15  2  0
 14 20  1  0
 17 16  1  1
 17 19  1  0
 18 17  1  0
 19 21  1  0
 19 20  1  6
 21 22  2  0
 21 23  1  0
M  END
$$$$
