RGV.pdb
     RDKit          3D

 23 22  0  0  1  0  0  0  0  0999 V2000
   22.1856  -21.2681  -15.8438 N   0  0  0  0  0  0  0  0  0  0  0  0
   20.9380  -21.6036  -15.2292 C   0  0  0  0  0  0  0  0  0  0  0  0
   19.9026  -21.6307  -15.9796 N   0  0  0  0  0  0  0  0  0  0  0  0
   20.9111  -21.8860  -13.8331 N   0  0  0  0  0  0  0  0  0  0  0  0
   22.0489  -21.5456  -13.0557 C   0  0  0  0  0  0  0  0  0  0  0  0
   22.6031  -20.1824  -13.1413 C   0  0  0  0  0  0  0  0  0  0  0  0
   23.7644  -19.8115  -12.3180 C   0  0  0  0  0  0  0  0  0  0  0  0
   24.2296  -20.7271  -11.2487 C   0  0  2  0  0  0  0  0  0  0  0  0
   23.2913  -20.8743  -10.1672 N   0  0  0  0  0  0  0  0  0  0  0  0
   25.5158  -20.1689  -10.6736 C   0  0  0  0  0  0  0  0  0  0  0  0
   26.5392  -20.0581  -11.4047 O   0  0  0  0  0  0  0  0  0  0  0  0
   18.9371  -21.8638  -15.7009 N   0  0  0  0  0  0  0  0  0  0  0  0
   25.5530  -19.7824   -9.3318 C   0  0  0  0  0  0  0  0  0  0  0  0
   26.7475  -19.2454   -8.6893 C   0  0  0  0  0  0  0  0  0  0  0  0
   27.1220  -20.0342   -7.5027 O   0  0  0  0  0  0  0  0  0  0  0  0
   26.5715  -21.1376   -7.2749 C   0  0  0  0  0  0  0  0  0  0  0  0
   29.6319  -18.2377   -4.5078 C   0  0  1  0  0  0  0  0  0  0  0  0
   29.7930  -19.7010   -4.8447 C   0  0  0  0  0  0  0  0  0  0  0  0
   30.9400  -19.8462   -5.8069 C   0  0  1  0  0  0  0  0  0  0  0  0
   28.5024  -20.2702   -5.4317 N   0  0  0  0  0  0  0  0  0  0  0  0
   28.1148  -19.5285   -6.6194 C   0  0  0  0  0  0  0  0  0  0  0  0
   27.4603  -20.0803   -4.4080 O   0  0  0  0  0  0  0  0  0  0  0  0
   26.5862  -19.2035   -4.5573 O   0  0  0  0  0  0  0  0  0  0  0  0
  2  1  1  0
  3  2  2  0
  4  2  1  0
  5  4  1  0
  6  5  1  0
  7  6  1  0
  8  7  1  0
  8 10  1  0
  8  9  1  1
 10 12  1  0
 11 10  2  0
 12 13  1  0
 13 14  1  0
 14 15  2  0
 14 20  1  0
 17 16  1  1
 17 19  1  0
 18 17  1  0
 19 21  1  0
 19 20  1  6
 21 22  2  0
 21 23  1  0
M  END
$$$$
