RGV.pdb
     RDKit          3D

 23 22  0  0  1  0  0  0  0  0999 V2000
   22.4696  -20.3013  -18.2354 N   0  0  0  0  0  0  0  0  0  0  0  0
   21.4510  -19.3538  -18.5696 C   0  0  0  0  0  0  0  0  0  0  0  0
   20.9793  -19.3938  -19.7578 N   0  0  0  0  0  0  0  0  0  0  0  0
   21.0195  -18.4268  -17.5776 N   0  0  0  0  0  0  0  0  0  0  0  0
   21.6106  -18.4965  -16.2891 C   0  0  0  0  0  0  0  0  0  0  0  0
   21.3748  -19.6833  -15.4473 C   0  0  0  0  0  0  0  0  0  0  0  0
   21.9633  -19.7543  -14.1009 C   0  0  0  0  0  0  0  0  0  0  0  0
   23.2858  -20.3969  -13.9100 C   0  0  2  0  0  0  0  0  0  0  0  0
   23.4544  -21.6063  -14.6721 N   0  0  0  0  0  0  0  0  0  0  0  0
   23.4340  -20.7488  -12.4434 C   0  0  0  0  0  0  0  0  0  0  0  0
   22.8944  -21.7950  -11.9869 O   0  0  0  0  0  0  0  0  0  0  0  0
   20.2490  -18.7855  -20.1590 N   0  0  0  0  0  0  0  0  0  0  0  0
   24.1702  -19.9041  -11.6093 C   0  0  0  0  0  0  0  0  0  0  0  0
   24.4549  -20.2128  -10.2123 C   0  0  0  0  0  0  0  0  0  0  0  0
   25.8813  -20.0202   -9.8978 O   0  0  0  0  0  0  0  0  0  0  0  0
   26.7011  -19.7526  -10.8081 C   0  0  0  0  0  0  0  0  0  0  0  0
   29.1792  -19.2146   -6.2664 C   0  0  1  0  0  0  0  0  0  0  0  0
   27.8175  -19.7370   -6.6580 C   0  0  0  0  0  0  0  0  0  0  0  0
   27.6175  -21.0808   -6.0124 C   0  0  2  0  0  0  0  0  0  0  0  0
   27.6850  -19.8275   -8.1774 N   0  0  0  0  0  0  0  0  0  0  0  0
   26.3162  -20.1419   -8.5496 C   0  0  0  0  0  0  0  0  0  0  0  0
   28.5476  -20.9425   -8.6048 O   0  0  0  0  0  0  0  0  0  0  0  0
   28.0747  -22.0896   -8.7299 O   0  0  0  0  0  0  0  0  0  0  0  0
  2  1  1  0
  3  2  2  0
  4  2  1  0
  5  4  1  0
  6  5  1  0
  7  6  1  0
  8  7  1  0
  8 10  1  0
  8  9  1  6
 10 12  1  0
 11 10  2  0
 12 13  1  0
 13 14  1  0
 14 15  2  0
 14 20  1  0
 17 16  1  1
 17 19  1  0
 18 17  1  0
 19 21  1  0
 19 20  1  6
 21 22  2  0
 21 23  1  0
M  END
$$$$
