RGV.pdb
     RDKit          3D

 23 22  0  0  1  0  0  0  0  0999 V2000
   21.3584  -23.1968  -15.5853 N   0  0  0  0  0  0  0  0  0  0  0  0
   21.1804  -21.7920  -15.7900 C   0  0  0  0  0  0  0  0  0  0  0  0
   19.9879  -21.3743  -15.9883 N   0  0  0  0  0  0  0  0  0  0  0  0
   22.3228  -20.9412  -15.7637 N   0  0  0  0  0  0  0  0  0  0  0  0
   23.5931  -21.5119  -16.0382 C   0  0  0  0  0  0  0  0  0  0  0  0
   24.0626  -21.5978  -17.4328 C   0  0  0  0  0  0  0  0  0  0  0  0
   25.4157  -21.1362  -17.7793 C   0  0  0  0  0  0  0  0  0  0  0  0
   26.5789  -21.6151  -16.9945 C   0  0  2  0  0  0  0  0  0  0  0  0
   26.2799  -22.7412  -16.1494 N   0  0  0  0  0  0  0  0  0  0  0  0
   27.0500  -20.4812  -16.1062 C   0  0  0  0  0  0  0  0  0  0  0  0
   26.8094  -19.2843  -16.4283 O   0  0  0  0  0  0  0  0  0  0  0  0
   19.6881  -20.4013  -16.1547 N   0  0  0  0  0  0  0  0  0  0  0  0
   27.7505  -20.7772  -14.9345 C   0  0  0  0  0  0  0  0  0  0  0  0
   28.1961  -19.7566  -13.9922 C   0  0  0  0  0  0  0  0  0  0  0  0
   27.2764  -19.6423  -12.8469 O   0  0  0  0  0  0  0  0  0  0  0  0
   27.5139  -18.8304  -11.9212 C   0  0  0  0  0  0  0  0  0  0  0  0
   23.5230  -21.8485  -12.8442 C   0  0  1  0  0  0  0  0  0  0  0  0
   23.7531  -20.5180  -12.1678 C   0  0  0  0  0  0  0  0  0  0  0  0
   23.4104  -19.4223  -13.1397 C   0  0  1  0  0  0  0  0  0  0  0  0
   25.1966  -20.3961  -11.6823 N   0  0  0  0  0  0  0  0  0  0  0  0
   26.1168  -20.4639  -12.8046 C   0  0  0  0  0  0  0  0  0  0  0  0
   25.4428  -21.5590  -10.8123 O   0  0  0  0  0  0  0  0  0  0  0  0
   26.0720  -22.5448  -11.2452 O   0  0  0  0  0  0  0  0  0  0  0  0
  2  1  1  0
  3  2  2  0
  4  2  1  0
  5  4  1  0
  6  5  1  0
  7  6  1  0
  8  7  1  0
  8 10  1  0
  8  9  1  1
 10 12  1  0
 11 10  2  0
 12 13  1  0
 13 14  1  0
 14 15  2  0
 14 20  1  0
 17 16  1  1
 17 19  1  0
 18 17  1  0
 19 21  1  0
 19 20  1  6
 21 22  2  0
 21 23  1  0
M  END
$$$$
