RGV.pdb
     RDKit          3D

 23 22  0  0  1  0  0  0  0  0999 V2000
   25.7739  -17.8106  -18.8713 N   0  0  0  0  0  0  0  0  0  0  0  0
   24.4886  -17.1857  -18.9362 C   0  0  0  0  0  0  0  0  0  0  0  0
   24.0624  -16.8387  -20.0912 N   0  0  0  0  0  0  0  0  0  0  0  0
   23.7585  -16.9835  -17.7297 N   0  0  0  0  0  0  0  0  0  0  0  0
   24.0522  -17.8157  -16.6181 C   0  0  0  0  0  0  0  0  0  0  0  0
   23.7165  -19.2498  -16.6782 C   0  0  0  0  0  0  0  0  0  0  0  0
   22.6340  -19.7838  -15.8373 C   0  0  0  0  0  0  0  0  0  0  0  0
   22.9653  -20.5585  -14.6173 C   0  0  2  0  0  0  0  0  0  0  0  0
   23.3360  -21.9235  -14.8842 N   0  0  0  0  0  0  0  0  0  0  0  0
   21.7430  -20.5769  -13.7216 C   0  0  0  0  0  0  0  0  0  0  0  0
   20.6226  -20.9250  -14.1883 O   0  0  0  0  0  0  0  0  0  0  0  0
   23.1768  -16.3567  -20.3096 N   0  0  0  0  0  0  0  0  0  0  0  0
   21.8725  -20.2047  -12.3815 C   0  0  0  0  0  0  0  0  0  0  0  0
   20.7707  -20.2638  -11.4272 C   0  0  0  0  0  0  0  0  0  0  0  0
   20.3493  -21.6529  -11.1760 O   0  0  0  0  0  0  0  0  0  0  0  0
   20.6898  -22.5707  -11.9597 C   0  0  0  0  0  0  0  0  0  0  0  0
   17.7142  -22.4599   -7.8619 C   0  0  1  0  0  0  0  0  0  0  0  0
   18.8004  -23.4357   -8.2475 C   0  0  0  0  0  0  0  0  0  0  0  0
   20.0010  -23.1824   -7.3774 C   0  0  1  0  0  0  0  0  0  0  0  0
   19.1517  -23.3024   -9.7284 N   0  0  0  0  0  0  0  0  0  0  0  0
   19.5517  -21.9395  -10.0343 C   0  0  0  0  0  0  0  0  0  0  0  0
   17.9188  -23.6010  -10.4773 O   0  0  0  0  0  0  0  0  0  0  0  0
   17.5424  -24.7810  -10.6216 O   0  0  0  0  0  0  0  0  0  0  0  0
  2  1  1  0
  3  2  2  0
  4  2  1  0
  5  4  1  0
  6  5  1  0
  7  6  1  0
  8  7  1  0
  8 10  1  0
  8  9  1  6
 10 12  1  0
 11 10  2  0
 12 13  1  0
 13 14  1  0
 14 15  2  0
 14 20  1  0
 17 16  1  1
 17 19  1  0
 18 17  1  0
 19 21  1  0
 19 20  1  1
 21 22  2  0
 21 23  1  0
M  END
$$$$
