RGV.pdb
     RDKit          3D

 23 22  0  0  1  0  0  0  0  0999 V2000
   24.9057  -24.6845  -14.4391 N   0  0  0  0  0  0  0  0  0  0  0  0
   23.5714  -24.3601  -14.8408 C   0  0  0  0  0  0  0  0  0  0  0  0
   22.6220  -24.7054  -14.0564 N   0  0  0  0  0  0  0  0  0  0  0  0
   23.3694  -23.6795  -16.0759 N   0  0  0  0  0  0  0  0  0  0  0  0
   24.4528  -22.9441  -16.6239 C   0  0  0  0  0  0  0  0  0  0  0  0
   24.5554  -21.4981  -16.3566 C   0  0  0  0  0  0  0  0  0  0  0  0
   25.6970  -20.7354  -16.8850 C   0  0  0  0  0  0  0  0  0  0  0  0
   27.0792  -21.1915  -16.6030 C   0  0  2  0  0  0  0  0  0  0  0  0
   27.1528  -22.5476  -16.1260 N   0  0  0  0  0  0  0  0  0  0  0  0
   27.6659  -20.2918  -15.5339 C   0  0  0  0  0  0  0  0  0  0  0  0
   27.6748  -19.0398  -15.6967 O   0  0  0  0  0  0  0  0  0  0  0  0
   21.6119  -24.5456  -14.1926 N   0  0  0  0  0  0  0  0  0  0  0  0
   28.1941  -20.8637  -14.3741 C   0  0  0  0  0  0  0  0  0  0  0  0
   28.7393  -20.0765  -13.2736 C   0  0  0  0  0  0  0  0  0  0  0  0
   27.7443  -19.8837  -12.2043 O   0  0  0  0  0  0  0  0  0  0  0  0
   28.0622  -19.3033  -11.1391 C   0  0  0  0  0  0  0  0  0  0  0  0
   23.7047  -21.5051  -12.6422 C   0  0  1  0  0  0  0  0  0  0  0  0
   24.0128  -20.1807  -11.9854 C   0  0  0  0  0  0  0  0  0  0  0  0
   23.8828  -19.0940  -13.0173 C   0  0  1  0  0  0  0  0  0  0  0  0
   25.4093  -20.1916  -11.3658 N   0  0  0  0  0  0  0  0  0  0  0  0
   26.4199  -20.3643  -12.3953 C   0  0  0  0  0  0  0  0  0  0  0  0
   25.4582  -21.3602  -10.4701 O   0  0  0  0  0  0  0  0  0  0  0  0
   26.0634  -22.3932  -10.8187 O   0  0  0  0  0  0  0  0  0  0  0  0
  2  1  1  0
  3  2  2  0
  4  2  1  0
  5  4  1  0
  6  5  1  0
  7  6  1  0
  8  7  1  0
  8 10  1  0
  8  9  1  1
 10 12  1  0
 11 10  2  0
 12 13  1  0
 13 14  1  0
 14 15  2  0
 14 20  1  0
 17 16  1  1
 17 19  1  0
 18 17  1  0
 19 21  1  0
 19 20  1  6
 21 22  2  0
 21 23  1  0
M  END
$$$$
