RGV.pdb
     RDKit          3D

 23 22  0  0  1  0  0  0  0  0999 V2000
   21.1333  -22.1409   -7.9797 N   0  0  0  0  0  0  0  0  0  0  0  0
   20.5036  -21.7826   -9.2134 C   0  0  0  0  0  0  0  0  0  0  0  0
   19.2932  -22.1584   -9.3854 N   0  0  0  0  0  0  0  0  0  0  0  0
   21.2448  -21.0369  -10.1747 N   0  0  0  0  0  0  0  0  0  0  0  0
   22.6322  -21.3044  -10.3095 C   0  0  0  0  0  0  0  0  0  0  0  0
   23.5850  -20.6767   -9.3761 C   0  0  0  0  0  0  0  0  0  0  0  0
   24.8409  -20.1056   -9.8864 C   0  0  0  0  0  0  0  0  0  0  0  0
   25.6101  -20.8322  -10.9250 C   0  0  2  0  0  0  0  0  0  0  0  0
   26.4044  -21.9132  -10.4034 N   0  0  0  0  0  0  0  0  0  0  0  0
   26.5486  -19.8483  -11.5942 C   0  0  0  0  0  0  0  0  0  0  0  0
   27.3390  -19.1540  -10.8961 O   0  0  0  0  0  0  0  0  0  0  0  0
   18.6951  -21.9772  -10.2062 N   0  0  0  0  0  0  0  0  0  0  0  0
   26.5261  -19.7207  -12.9851 C   0  0  0  0  0  0  0  0  0  0  0  0
   27.4271  -18.8395  -13.7198 C   0  0  0  0  0  0  0  0  0  0  0  0
   27.2401  -18.9700  -15.1754 O   0  0  0  0  0  0  0  0  0  0  0  0
   27.9564  -18.3137  -15.9683 C   0  0  0  0  0  0  0  0  0  0  0  0
   25.2203  -22.4958  -16.2930 C   0  0  1  0  0  0  0  0  0  0  0  0
   26.3962  -21.8861  -17.0183 C   0  0  0  0  0  0  0  0  0  0  0  0
   27.6618  -22.3482  -16.3494 C   0  0  1  0  0  0  0  0  0  0  0  0
   26.2997  -20.3613  -17.0273 N   0  0  0  0  0  0  0  0  0  0  0  0
   26.2375  -19.8488  -15.6693 C   0  0  0  0  0  0  0  0  0  0  0  0
   25.0349  -20.0284  -17.7051 O   0  0  0  0  0  0  0  0  0  0  0  0
   24.9721  -20.0251  -18.9505 O   0  0  0  0  0  0  0  0  0  0  0  0
  2  1  1  0
  3  2  2  0
  4  2  1  0
  5  4  1  0
  6  5  1  0
  7  6  1  0
  8  7  1  0
  8 10  1  0
  8  9  1  1
 10 12  1  0
 11 10  2  0
 12 13  1  0
 13 14  1  0
 14 15  2  0
 14 20  1  0
 17 16  1  6
 17 19  1  0
 18 17  1  0
 19 21  1  0
 19 20  1  1
 21 22  2  0
 21 23  1  0
M  END
$$$$
