RGV.pdb
     RDKit          3D

 23 22  0  0  1  0  0  0  0  0999 V2000
   19.7610  -21.8375  -16.4946 N   0  0  0  0  0  0  0  0  0  0  0  0
   20.1607  -22.7085  -17.5569 C   0  0  0  0  0  0  0  0  0  0  0  0
   19.2456  -23.1345  -18.3424 N   0  0  0  0  0  0  0  0  0  0  0  0
   21.5371  -23.0533  -17.6849 N   0  0  0  0  0  0  0  0  0  0  0  0
   22.4504  -22.5431  -16.7257 C   0  0  0  0  0  0  0  0  0  0  0  0
   23.3819  -21.4682  -17.1125 C   0  0  0  0  0  0  0  0  0  0  0  0
   24.3424  -20.9431  -16.1297 C   0  0  0  0  0  0  0  0  0  0  0  0
   24.6016  -21.6977  -14.8800 C   0  0  2  0  0  0  0  0  0  0  0  0
   23.4299  -22.3332  -14.3368 N   0  0  0  0  0  0  0  0  0  0  0  0
   25.1262  -20.7272  -13.8410 C   0  0  0  0  0  0  0  0  0  0  0  0
   24.4751  -19.6804  -13.5682 O   0  0  0  0  0  0  0  0  0  0  0  0
   19.3670  -23.7337  -19.1735 N   0  0  0  0  0  0  0  0  0  0  0  0
   26.3331  -21.0048  -13.1947 C   0  0  0  0  0  0  0  0  0  0  0  0
   26.8792  -20.1686  -12.1314 C   0  0  0  0  0  0  0  0  0  0  0  0
   26.7313  -20.8087  -10.8127 O   0  0  0  0  0  0  0  0  0  0  0  0
   26.2845  -21.9769  -10.7212 C   0  0  0  0  0  0  0  0  0  0  0  0
   26.9319  -18.2591   -7.3429 C   0  0  1  0  0  0  0  0  0  0  0  0
   27.3709  -19.7005   -7.2428 C   0  0  0  0  0  0  0  0  0  0  0  0
   28.8702  -19.7520   -7.3524 C   0  0  1  0  0  0  0  0  0  0  0  0
   26.7071  -20.5488   -8.3264 N   0  0  0  0  0  0  0  0  0  0  0  0
   27.1011  -20.0854   -9.6459 C   0  0  0  0  0  0  0  0  0  0  0  0
   25.2551  -20.3481   -8.1809 O   0  0  0  0  0  0  0  0  0  0  0  0
   24.6292  -20.9283   -7.2717 O   0  0  0  0  0  0  0  0  0  0  0  0
  2  1  1  0
  3  2  2  0
  4  2  1  0
  5  4  1  0
  6  5  1  0
  7  6  1  0
  8  7  1  0
  8 10  1  0
  8  9  1  1
 10 12  1  0
 11 10  2  0
 12 13  1  0
 13 14  1  0
 14 15  2  0
 14 20  1  0
 17 16  1  1
 17 19  1  0
 18 17  1  0
 19 21  1  0
 19 20  1  6
 21 22  2  0
 21 23  1  0
M  END
$$$$
