RGV.pdb
     RDKit          3D

 23 22  0  0  1  0  0  0  0  0999 V2000
   29.5669  -23.5761  -21.6772 N   0  0  0  0  0  0  0  0  0  0  0  0
   28.2213  -23.7277  -22.1389 C   0  0  0  0  0  0  0  0  0  0  0  0
   27.9338  -24.8048  -22.7660 N   0  0  0  0  0  0  0  0  0  0  0  0
   27.2827  -22.6873  -21.8818 N   0  0  0  0  0  0  0  0  0  0  0  0
   27.3507  -22.0130  -20.6347 C   0  0  0  0  0  0  0  0  0  0  0  0
   26.9114  -22.7074  -19.4109 C   0  0  0  0  0  0  0  0  0  0  0  0
   26.8461  -21.9746  -18.1370 C   0  0  0  0  0  0  0  0  0  0  0  0
   27.9135  -21.0055  -17.7912 C   0  0  2  0  0  0  0  0  0  0  0  0
   29.2422  -21.4950  -18.0491 N   0  0  0  0  0  0  0  0  0  0  0  0
   27.8122  -20.6978  -16.3107 C   0  0  0  0  0  0  0  0  0  0  0  0
   28.3627  -21.4598  -15.4678 O   0  0  0  0  0  0  0  0  0  0  0  0
   27.0196  -25.0687  -23.1646 N   0  0  0  0  0  0  0  0  0  0  0  0
   27.1048  -19.5673  -15.8948 C   0  0  0  0  0  0  0  0  0  0  0  0
   27.0374  -19.1361  -14.5028 C   0  0  0  0  0  0  0  0  0  0  0  0
   26.1538  -20.0090  -13.7104 O   0  0  0  0  0  0  0  0  0  0  0  0
   25.4595  -20.8882  -14.2738 C   0  0  0  0  0  0  0  0  0  0  0  0
   24.7787  -21.4119   -9.1212 C   0  0  1  0  0  0  0  0  0  0  0  0
   25.6067  -20.4973   -9.9921 C   0  0  0  0  0  0  0  0  0  0  0  0
   25.3028  -19.0734   -9.6142 C   0  0  2  0  0  0  0  0  0  0  0  0
   25.3229  -20.7500  -11.4720 N   0  0  0  0  0  0  0  0  0  0  0  0
   26.0981  -19.8417  -12.2996 C   0  0  0  0  0  0  0  0  0  0  0  0
   23.8941  -20.4568  -11.6778 O   0  0  0  0  0  0  0  0  0  0  0  0
   23.5361  -19.3341  -12.0859 O   0  0  0  0  0  0  0  0  0  0  0  0
  2  1  1  0
  3  2  2  0
  4  2  1  0
  5  4  1  0
  6  5  1  0
  7  6  1  0
  8  7  1  0
  8 10  1  0
  8  9  1  1
 10 12  1  0
 11 10  2  0
 12 13  1  0
 13 14  1  0
 14 15  2  0
 14 20  1  0
 17 16  1  1
 17 19  1  0
 18 17  1  0
 19 21  1  0
 19 20  1  6
 21 22  2  0
 21 23  1  0
M  END
$$$$
