NCD.pdb
     RDKit          3D

 23 22  0  0  1  0  0  0  0  0999 V2000
    8.1851  -18.1071   15.9890 N   0  0  0  0  0  0  0  0  0  0  0  0
    7.9606  -16.7128   16.1487 C   0  0  0  0  0  0  0  0  0  0  0  0
    7.5578  -16.0614   15.1783 O   0  0  0  0  0  0  0  0  0  0  0  0
    8.2161  -16.1067   17.4565 C   0  0  0  0  0  0  0  0  0  0  0  0
    8.7923  -17.0110   18.5007 C   0  0  2  0  0  0  0  0  0  0  0  0
    7.7082  -17.8648   18.9812 N   0  0  0  0  0  0  0  0  0  0  0  0
    9.3601  -16.3197   19.6740 C   0  0  0  0  0  0  0  0  0  0  0  0
   10.5900  -15.9586   19.7409 O   0  0  0  0  0  0  0  0  0  0  0  0
    8.5170  -16.0361   20.7842 N   0  0  0  0  0  0  0  0  0  0  0  0
    9.0375  -15.5195   22.0267 C   0  0  1  0  0  0  0  0  0  0  0  0
    7.8994  -15.0404   22.9358 C   0  0  0  0  0  0  0  0  0  0  0  0
    7.0605  -13.6270   22.1377 S   0  0  0  0  0  0  0  0  0  0  0  0
    9.9098  -16.4722   22.7256 C   0  0  0  0  0  0  0  0  0  0  0  0
    9.6750  -17.7089   22.7451 O   0  0  0  0  0  0  0  0  0  0  0  0
   11.0657  -16.0188   23.4129 N   0  0  0  0  0  0  0  0  0  0  0  0
   11.8988  -16.9569   24.1482 C   0  0  1  0  0  0  0  0  0  0  0  0
   13.2750  -16.3673   24.3412 C   0  0  0  0  0  0  0  0  0  0  0  0
   14.0219  -16.3412   23.0675 C   0  0  0  0  0  0  0  0  0  0  0  0
   13.6136  -16.9172   22.0526 O   0  0  0  0  0  0  0  0  0  0  0  0
   11.2058  -17.1949   25.4356 C   0  0  0  0  0  0  0  0  0  0  0  0
   10.3210  -16.2271   25.9014 O   0  0  0  0  0  0  0  0  0  0  0  0
   15.2192  -15.6457   23.0164 O   0  0  0  0  0  0  0  0  0  0  0  0
   11.3879  -18.2507   26.1351 O   0  0  0  0  0  0  0  0  0  0  0  0
  1  2  1  0
  2  4  1  0
  3  2  2  0
  4  5  1  0
  5  6  1  1
  5  7  1  0
  7  9  1  0
  7  8  2  0
  9 10  1  0
 10 13  1  0
 10 11  1  1
 11 12  1  0
 13 14  2  0
 15 13  1  0
 15 16  1  0
 16 20  1  0
 17 18  1  0
 16 17  1  1
 18 19  2  0
 20 21  1  0
 22 18  1  0
 23 20  2  0
M  END
$$$$
