NCD.pdb
     RDKit          3D

 23 22  0  0  1  0  0  0  0  0999 V2000
    7.4179  -17.1017   19.0749 N   0  0  0  0  0  0  0  0  0  0  0  0
    7.9626  -17.7816   20.1979 C   0  0  0  0  0  0  0  0  0  0  0  0
    8.4200  -18.9190   20.0388 O   0  0  0  0  0  0  0  0  0  0  0  0
    7.9589  -17.1055   21.4964 C   0  0  0  0  0  0  0  0  0  0  0  0
    8.2515  -15.6378   21.4760 C   0  0  2  0  0  0  0  0  0  0  0  0
    9.3373  -15.4252   20.5216 N   0  0  0  0  0  0  0  0  0  0  0  0
    8.6862  -15.0747   22.7687 C   0  0  0  0  0  0  0  0  0  0  0  0
    9.8880  -15.1835   23.2058 O   0  0  0  0  0  0  0  0  0  0  0  0
    7.7408  -14.3795   23.5728 N   0  0  0  0  0  0  0  0  0  0  0  0
    8.0585  -13.9240   24.9044 C   0  0  1  0  0  0  0  0  0  0  0  0
    6.9608  -12.9959   25.4382 C   0  0  0  0  0  0  0  0  0  0  0  0
    7.4041  -12.4683   27.1303 S   0  0  0  0  0  0  0  0  0  0  0  0
    8.3251  -15.0240   25.8404 C   0  0  0  0  0  0  0  0  0  0  0  0
    7.5974  -16.0497   25.8969 O   0  0  0  0  0  0  0  0  0  0  0  0
    9.4323  -14.9625   26.7262 N   0  0  0  0  0  0  0  0  0  0  0  0
    9.7625  -16.1000   27.5700 C   0  0  1  0  0  0  0  0  0  0  0  0
   10.6381  -17.0611   26.8031 C   0  0  0  0  0  0  0  0  0  0  0  0
   11.0782  -18.1771   27.6643 C   0  0  0  0  0  0  0  0  0  0  0  0
   10.3516  -18.6585   28.5412 O   0  0  0  0  0  0  0  0  0  0  0  0
   10.4500  -15.5409   28.7569 C   0  0  0  0  0  0  0  0  0  0  0  0
   10.8176  -16.4089   29.7806 O   0  0  0  0  0  0  0  0  0  0  0  0
   12.3489  -18.6967   27.4768 O   0  0  0  0  0  0  0  0  0  0  0  0
   10.7179  -14.2957   28.8793 O   0  0  0  0  0  0  0  0  0  0  0  0
  1  2  1  0
  2  4  1  0
  3  2  2  0
  4  5  1  0
  5  6  1  6
  5  7  1  0
  7  9  1  0
  7  8  2  0
  9 10  1  0
 10 13  1  0
 10 11  1  1
 11 12  1  0
 13 14  2  0
 15 13  1  0
 15 16  1  0
 16 20  1  0
 17 18  1  0
 16 17  1  6
 18 19  2  0
 20 21  1  0
 22 18  1  0
 23 20  2  0
M  END
$$$$
