NCD.pdb
     RDKit          3D

 23 22  0  0  1  0  0  0  0  0999 V2000
    9.3179  -17.9914   19.4682 N   0  0  0  0  0  0  0  0  0  0  0  0
    9.9892  -16.7446   19.3459 C   0  0  0  0  0  0  0  0  0  0  0  0
   10.5677  -16.4833   18.2851 O   0  0  0  0  0  0  0  0  0  0  0  0
    9.9670  -15.8219   20.4823 C   0  0  0  0  0  0  0  0  0  0  0  0
    9.2864  -16.3170   21.7200 C   0  0  2  0  0  0  0  0  0  0  0  0
    7.8543  -16.3715   21.4351 N   0  0  0  0  0  0  0  0  0  0  0  0
    9.4656  -15.4625   22.9094 C   0  0  0  0  0  0  0  0  0  0  0  0
   10.6198  -15.1729   23.3903 O   0  0  0  0  0  0  0  0  0  0  0  0
    8.3165  -14.9316   23.5586 N   0  0  0  0  0  0  0  0  0  0  0  0
    8.4063  -14.2213   24.8112 C   0  0  1  0  0  0  0  0  0  0  0  0
    7.1418  -13.3894   25.0566 C   0  0  0  0  0  0  0  0  0  0  0  0
    7.2243  -12.6695   26.7339 S   0  0  0  0  0  0  0  0  0  0  0  0
    8.6927  -15.1009   25.9521 C   0  0  0  0  0  0  0  0  0  0  0  0
    7.9085  -16.0201   26.3054 O   0  0  0  0  0  0  0  0  0  0  0  0
    9.8848  -14.9379   26.7047 N   0  0  0  0  0  0  0  0  0  0  0  0
   10.1647  -15.8081   27.8357 C   0  0  1  0  0  0  0  0  0  0  0  0
   11.5822  -16.3185   27.7424 C   0  0  0  0  0  0  0  0  0  0  0  0
   11.6879  -17.4054   26.7482 C   0  0  0  0  0  0  0  0  0  0  0  0
   10.7137  -17.7992   26.0968 O   0  0  0  0  0  0  0  0  0  0  0  0
    9.9444  -14.9849   29.0474 C   0  0  0  0  0  0  0  0  0  0  0  0
    9.7647  -13.6135   28.8939 O   0  0  0  0  0  0  0  0  0  0  0  0
   12.9236  -17.9982   26.5445 O   0  0  0  0  0  0  0  0  0  0  0  0
    9.9135  -15.4820   30.2260 O   0  0  0  0  0  0  0  0  0  0  0  0
  1  2  1  0
  2  4  1  0
  3  2  2  0
  4  5  1  0
  5  6  1  6
  5  7  1  0
  7  9  1  0
  7  8  2  0
  9 10  1  0
 10 13  1  0
 10 11  1  1
 11 12  1  0
 13 14  2  0
 15 13  1  0
 15 16  1  0
 16 20  1  0
 17 18  1  0
 16 17  1  6
 18 19  2  0
 20 21  1  0
 22 18  1  0
 23 20  2  0
M  END
$$$$
