NCD.pdb
     RDKit          3D

 23 22  0  0  1  0  0  0  0  0999 V2000
    8.4957  -17.6152   15.0545 N   0  0  0  0  0  0  0  0  0  0  0  0
    9.1752  -18.0165   16.2366 C   0  0  0  0  0  0  0  0  0  0  0  0
    9.4786  -19.2073   16.3716 O   0  0  0  0  0  0  0  0  0  0  0  0
    9.4870  -17.0021   17.2449 C   0  0  0  0  0  0  0  0  0  0  0  0
    9.0411  -17.3023   18.6417 C   0  0  2  0  0  0  0  0  0  0  0  0
    7.5839  -17.4077   18.6186 N   0  0  0  0  0  0  0  0  0  0  0  0
    9.3914  -16.2726   19.6386 C   0  0  0  0  0  0  0  0  0  0  0  0
    9.1253  -15.0276   19.4756 O   0  0  0  0  0  0  0  0  0  0  0  0
   10.0523  -16.6655   20.8355 N   0  0  0  0  0  0  0  0  0  0  0  0
   10.3216  -15.7316   21.9017 C   0  0  1  0  0  0  0  0  0  0  0  0
    9.0559  -14.9491   22.2719 C   0  0  0  0  0  0  0  0  0  0  0  0
    8.5699  -15.3843   23.9785 S   0  0  0  0  0  0  0  0  0  0  0  0
   10.9187  -16.3653   23.0845 C   0  0  0  0  0  0  0  0  0  0  0  0
   10.4951  -17.4562   23.5485 O   0  0  0  0  0  0  0  0  0  0  0  0
   12.0122  -15.7553   23.7526 N   0  0  0  0  0  0  0  0  0  0  0  0
   13.2067  -16.5250   24.0616 C   0  0  1  0  0  0  0  0  0  0  0  0
   14.4332  -15.7165   23.7141 C   0  0  0  0  0  0  0  0  0  0  0  0
   15.6664  -16.4610   24.0392 C   0  0  0  0  0  0  0  0  0  0  0  0
   15.8177  -17.6497   23.7350 O   0  0  0  0  0  0  0  0  0  0  0  0
   13.1302  -16.8328   25.5085 C   0  0  0  0  0  0  0  0  0  0  0  0
   13.9094  -17.8722   26.0076 O   0  0  0  0  0  0  0  0  0  0  0  0
   16.6831  -15.7980   24.7075 O   0  0  0  0  0  0  0  0  0  0  0  0
   12.3782  -16.1845   26.3155 O   0  0  0  0  0  0  0  0  0  0  0  0
  1  2  1  0
  2  4  1  0
  3  2  2  0
  4  5  1  0
  5  6  1  6
  5  7  1  0
  7  9  1  0
  7  8  2  0
  9 10  1  0
 10 13  1  0
 10 11  1  1
 11 12  1  0
 13 14  2  0
 15 13  1  0
 15 16  1  0
 16 20  1  0
 17 18  1  0
 16 17  1  1
 18 19  2  0
 20 21  1  0
 22 18  1  0
 23 20  2  0
M  END
$$$$
