NCD.pdb
     RDKit          3D

 23 22  0  0  1  0  0  0  0  0999 V2000
    9.3190  -18.7647   15.1436 N   0  0  0  0  0  0  0  0  0  0  0  0
    8.7634  -17.5123   15.5216 C   0  0  0  0  0  0  0  0  0  0  0  0
    7.7647  -17.1002   14.9206 O   0  0  0  0  0  0  0  0  0  0  0  0
    9.3977  -16.7628   16.6074 C   0  0  0  0  0  0  0  0  0  0  0  0
    9.1184  -17.2495   17.9950 C   0  0  2  0  0  0  0  0  0  0  0  0
    7.6666  -17.3092   18.1496 N   0  0  0  0  0  0  0  0  0  0  0  0
    9.6396  -16.3852   19.0712 C   0  0  0  0  0  0  0  0  0  0  0  0
   10.8577  -15.9827   19.1117 O   0  0  0  0  0  0  0  0  0  0  0  0
    8.7630  -15.9742   20.1135 N   0  0  0  0  0  0  0  0  0  0  0  0
    9.2406  -15.2792   21.2841 C   0  0  1  0  0  0  0  0  0  0  0  0
    8.0958  -14.5301   21.9767 C   0  0  0  0  0  0  0  0  0  0  0  0
    7.0138  -15.7440   22.8097 S   0  0  0  0  0  0  0  0  0  0  0  0
    9.9470  -16.1570   22.2262 C   0  0  0  0  0  0  0  0  0  0  0  0
    9.7389  -17.3977   22.2741 O   0  0  0  0  0  0  0  0  0  0  0  0
   10.9040  -15.6229   23.1280 N   0  0  0  0  0  0  0  0  0  0  0  0
   11.8816  -16.4926   23.7625 C   0  0  1  0  0  0  0  0  0  0  0  0
   13.2712  -15.9595   23.5109 C   0  0  0  0  0  0  0  0  0  0  0  0
   14.2858  -16.7848   24.1968 C   0  0  0  0  0  0  0  0  0  0  0  0
   13.9866  -17.7994   24.8368 O   0  0  0  0  0  0  0  0  0  0  0  0
   11.5395  -16.5071   25.2036 C   0  0  0  0  0  0  0  0  0  0  0  0
   11.9261  -17.6051   25.9661 O   0  0  0  0  0  0  0  0  0  0  0  0
   15.6152  -16.4025   24.1154 O   0  0  0  0  0  0  0  0  0  0  0  0
   10.9040  -15.5542   25.7741 O   0  0  0  0  0  0  0  0  0  0  0  0
  1  2  1  0
  2  4  1  0
  3  2  2  0
  4  5  1  0
  5  6  1  1
  5  7  1  0
  7  9  1  0
  7  8  2  0
  9 10  1  0
 10 13  1  0
 10 11  1  1
 11 12  1  0
 13 14  2  0
 15 13  1  0
 15 16  1  0
 16 20  1  0
 17 18  1  0
 16 17  1  1
 18 19  2  0
 20 21  1  0
 22 18  1  0
 23 20  2  0
M  END
$$$$
