NCD.pdb
     RDKit          3D

 23 22  0  0  1  0  0  0  0  0999 V2000
    8.2930  -12.5677   16.5368 N   0  0  0  0  0  0  0  0  0  0  0  0
    8.1069  -13.6757   17.4072 C   0  0  0  0  0  0  0  0  0  0  0  0
    7.7017  -14.7426   16.9319 O   0  0  0  0  0  0  0  0  0  0  0  0
    8.4030  -13.5065   18.8308 C   0  0  0  0  0  0  0  0  0  0  0  0
    8.6635  -14.7617   19.6035 C   0  0  2  0  0  0  0  0  0  0  0  0
    7.3783  -15.4319   19.7883 N   0  0  0  0  0  0  0  0  0  0  0  0
    9.2478  -14.5549   20.9425 C   0  0  0  0  0  0  0  0  0  0  0  0
   10.3807  -13.9802   21.1259 O   0  0  0  0  0  0  0  0  0  0  0  0
    8.5331  -15.0079   22.0860 N   0  0  0  0  0  0  0  0  0  0  0  0
    9.1166  -14.9975   23.4055 C   0  0  1  0  0  0  0  0  0  0  0  0
    8.0586  -14.6682   24.4655 C   0  0  0  0  0  0  0  0  0  0  0  0
    6.6381  -15.7974   24.2534 S   0  0  0  0  0  0  0  0  0  0  0  0
    9.8248  -16.2422   23.7313 C   0  0  0  0  0  0  0  0  0  0  0  0
    9.3688  -17.3749   23.4247 O   0  0  0  0  0  0  0  0  0  0  0  0
   11.0683  -16.2048   24.4143 N   0  0  0  0  0  0  0  0  0  0  0  0
   11.7724  -17.4382   24.7270 C   0  0  1  0  0  0  0  0  0  0  0  0
   13.2616  -17.2049   24.6455 C   0  0  0  0  0  0  0  0  0  0  0  0
   13.6475  -16.7184   23.3057 C   0  0  0  0  0  0  0  0  0  0  0  0
   14.2320  -15.6417   23.1390 O   0  0  0  0  0  0  0  0  0  0  0  0
   11.3391  -17.8201   26.0910 C   0  0  0  0  0  0  0  0  0  0  0  0
   10.5492  -16.9282   26.8101 O   0  0  0  0  0  0  0  0  0  0  0  0
   13.3411  -17.5006   22.2038 O   0  0  0  0  0  0  0  0  0  0  0  0
   11.6613  -18.9332   26.6337 O   0  0  0  0  0  0  0  0  0  0  0  0
  1  2  1  0
  2  4  1  0
  3  2  2  0
  4  5  1  0
  5  6  1  1
  5  7  1  0
  7  9  1  0
  7  8  2  0
  9 10  1  0
 10 13  1  0
 10 11  1  1
 11 12  1  0
 13 14  2  0
 15 13  1  0
 15 16  1  0
 16 20  1  0
 17 18  1  0
 16 17  1  1
 18 19  2  0
 20 21  1  0
 22 18  1  0
 23 20  2  0
M  END
$$$$
