NCD.pdb
     RDKit          3D

 23 22  0  0  1  0  0  0  0  0999 V2000
    7.1241  -15.1974   17.6746 N   0  0  0  0  0  0  0  0  0  0  0  0
    7.7271  -13.9327   17.9132 C   0  0  0  0  0  0  0  0  0  0  0  0
    7.9159  -13.1748   16.9549 O   0  0  0  0  0  0  0  0  0  0  0  0
    8.0994  -13.5808   19.2845 C   0  0  0  0  0  0  0  0  0  0  0  0
    7.8458  -14.6264   20.3251 C   0  0  2  0  0  0  0  0  0  0  0  0
    6.4115  -14.6213   20.6044 N   0  0  0  0  0  0  0  0  0  0  0  0
    8.5437  -14.4072   21.6064 C   0  0  0  0  0  0  0  0  0  0  0  0
    9.8219  -14.3359   21.6990 O   0  0  0  0  0  0  0  0  0  0  0  0
    7.7767  -14.2675   22.7963 N   0  0  0  0  0  0  0  0  0  0  0  0
    8.3768  -14.3465   24.1060 C   0  0  1  0  0  0  0  0  0  0  0  0
    7.4936  -13.6551   25.1516 C   0  0  0  0  0  0  0  0  0  0  0  0
    5.9245  -14.5787   25.3035 S   0  0  0  0  0  0  0  0  0  0  0  0
    8.6992  -15.7215   24.5092 C   0  0  0  0  0  0  0  0  0  0  0  0
    8.0600  -16.7160   24.0767 O   0  0  0  0  0  0  0  0  0  0  0  0
    9.7614  -15.9751   25.4157 N   0  0  0  0  0  0  0  0  0  0  0  0
   10.2498  -17.3303   25.6149 C   0  0  1  0  0  0  0  0  0  0  0  0
   11.3439  -17.6251   24.6175 C   0  0  0  0  0  0  0  0  0  0  0  0
   11.9329  -18.9578   24.8580 C   0  0  0  0  0  0  0  0  0  0  0  0
   11.5400  -19.6972   25.7677 O   0  0  0  0  0  0  0  0  0  0  0  0
   10.7360  -17.3868   27.0129 C   0  0  0  0  0  0  0  0  0  0  0  0
   10.9211  -18.6345   27.6009 O   0  0  0  0  0  0  0  0  0  0  0  0
   12.9595  -19.3866   24.0321 O   0  0  0  0  0  0  0  0  0  0  0  0
   10.9912  -16.3381   27.7002 O   0  0  0  0  0  0  0  0  0  0  0  0
  1  2  1  0
  2  4  1  0
  3  2  2  0
  4  5  1  0
  5  6  1  1
  5  7  1  0
  7  9  1  0
  7  8  2  0
  9 10  1  0
 10 13  1  0
 10 11  1  1
 11 12  1  0
 13 14  2  0
 15 13  1  0
 15 16  1  0
 16 20  1  0
 17 18  1  0
 16 17  1  6
 18 19  2  0
 20 21  1  0
 22 18  1  0
 23 20  2  0
M  END
$$$$
