NCD.pdb
     RDKit          3D

 23 22  0  0  1  0  0  0  0  0999 V2000
    9.2349  -20.0657   16.1226 N   0  0  0  0  0  0  0  0  0  0  0  0
    8.5451  -18.8240   16.1687 C   0  0  0  0  0  0  0  0  0  0  0  0
    7.5178  -18.6902   15.4940 O   0  0  0  0  0  0  0  0  0  0  0  0
    9.0806  -17.7552   17.0137 C   0  0  0  0  0  0  0  0  0  0  0  0
    9.1688  -18.0543   18.4776 C   0  0  2  0  0  0  0  0  0  0  0  0
    7.8047  -18.2516   18.9629 N   0  0  0  0  0  0  0  0  0  0  0  0
    9.7747  -16.9842   19.2930 C   0  0  0  0  0  0  0  0  0  0  0  0
   11.0004  -16.6242   19.1685 O   0  0  0  0  0  0  0  0  0  0  0  0
    8.9751  -16.3163   20.2616 N   0  0  0  0  0  0  0  0  0  0  0  0
    9.5327  -15.3542   21.1808 C   0  0  1  0  0  0  0  0  0  0  0  0
    8.4533  -14.3818   21.6716 C   0  0  0  0  0  0  0  0  0  0  0  0
    7.3153  -15.2760   22.7867 S   0  0  0  0  0  0  0  0  0  0  0  0
   10.2379  -15.9774   22.3084 C   0  0  0  0  0  0  0  0  0  0  0  0
    9.8382  -17.0441   22.8443 O   0  0  0  0  0  0  0  0  0  0  0  0
   11.4138  -15.3846   22.8377 N   0  0  0  0  0  0  0  0  0  0  0  0
   12.1827  -16.0680   23.8655 C   0  0  1  0  0  0  0  0  0  0  0  0
   11.7962  -17.5268   23.9000 C   0  0  0  0  0  0  0  0  0  0  0  0
   12.6617  -18.2808   24.8292 C   0  0  0  0  0  0  0  0  0  0  0  0
   12.9382  -17.8613   25.9589 O   0  0  0  0  0  0  0  0  0  0  0  0
   13.6065  -15.8741   23.5058 C   0  0  0  0  0  0  0  0  0  0  0  0
   13.9897  -16.0745   22.1831 O   0  0  0  0  0  0  0  0  0  0  0  0
   13.1767  -19.4982   24.4137 O   0  0  0  0  0  0  0  0  0  0  0  0
   14.4959  -15.5317   24.3596 O   0  0  0  0  0  0  0  0  0  0  0  0
  1  2  1  0
  2  4  1  0
  3  2  2  0
  4  5  1  0
  5  6  1  1
  5  7  1  0
  7  9  1  0
  7  8  2  0
  9 10  1  0
 10 13  1  0
 10 11  1  1
 11 12  1  0
 13 14  2  0
 15 13  1  0
 15 16  1  0
 16 20  1  0
 17 18  1  0
 16 17  1  6
 18 19  2  0
 20 21  1  0
 22 18  1  0
 23 20  2  0
M  END
$$$$
