NCD.pdb
     RDKit          3D

 23 22  0  0  1  0  0  0  0  0999 V2000
    5.5553  -18.7429   17.4505 N   0  0  0  0  0  0  0  0  0  0  0  0
    6.9625  -18.9401   17.4844 C   0  0  0  0  0  0  0  0  0  0  0  0
    7.4991  -19.5494   16.5522 O   0  0  0  0  0  0  0  0  0  0  0  0
    7.7172  -18.4130   18.6226 C   0  0  0  0  0  0  0  0  0  0  0  0
    8.1836  -16.9957   18.5045 C   0  0  2  0  0  0  0  0  0  0  0  0
    9.2029  -16.9604   17.4581 N   0  0  0  0  0  0  0  0  0  0  0  0
    8.7911  -16.4394   19.7286 C   0  0  0  0  0  0  0  0  0  0  0  0
   10.0224  -16.6248   20.0403 O   0  0  0  0  0  0  0  0  0  0  0  0
    7.9868  -15.6627   20.6080 N   0  0  0  0  0  0  0  0  0  0  0  0
    8.4695  -15.2182   21.8930 C   0  0  1  0  0  0  0  0  0  0  0  0
    7.4986  -14.2102   22.5197 C   0  0  0  0  0  0  0  0  0  0  0  0
    8.0238  -13.8728   24.2368 S   0  0  0  0  0  0  0  0  0  0  0  0
    8.7536  -16.3253   22.8153 C   0  0  0  0  0  0  0  0  0  0  0  0
    7.9294  -17.2535   23.0252 O   0  0  0  0  0  0  0  0  0  0  0  0
    9.9894  -16.3833   23.5107 N   0  0  0  0  0  0  0  0  0  0  0  0
   10.3067  -17.5266   24.3514 C   0  0  1  0  0  0  0  0  0  0  0  0
   11.0062  -18.5810   23.5281 C   0  0  0  0  0  0  0  0  0  0  0  0
   12.1875  -18.0187   22.8431 C   0  0  0  0  0  0  0  0  0  0  0  0
   13.0383  -17.3490   23.4399 O   0  0  0  0  0  0  0  0  0  0  0  0
   11.1649  -17.0058   25.4406 C   0  0  0  0  0  0  0  0  0  0  0  0
   11.4447  -15.6429   25.4704 O   0  0  0  0  0  0  0  0  0  0  0  0
   12.3403  -18.2543   21.4863 O   0  0  0  0  0  0  0  0  0  0  0  0
   11.6586  -17.7560   26.3520 O   0  0  0  0  0  0  0  0  0  0  0  0
  1  2  1  0
  2  4  1  0
  3  2  2  0
  4  5  1  0
  5  6  1  6
  5  7  1  0
  7  9  1  0
  7  8  2  0
  9 10  1  0
 10 13  1  0
 10 11  1  1
 11 12  1  0
 13 14  2  0
 15 13  1  0
 15 16  1  0
 16 20  1  0
 17 18  1  0
 16 17  1  6
 18 19  2  0
 20 21  1  0
 22 18  1  0
 23 20  2  0
M  END
$$$$
