NCD.pdb
     RDKit          3D

 23 22  0  0  1  0  0  0  0  0999 V2000
    8.0983  -18.6065   16.2343 N   0  0  0  0  0  0  0  0  0  0  0  0
    8.8008  -17.4052   15.9455 C   0  0  0  0  0  0  0  0  0  0  0  0
    8.9049  -17.0471   14.7669 O   0  0  0  0  0  0  0  0  0  0  0  0
    9.3718  -16.6424   17.0568 C   0  0  0  0  0  0  0  0  0  0  0  0
    9.1795  -17.2236   18.4227 C   0  0  2  0  0  0  0  0  0  0  0  0
    7.7541  -17.5057   18.5772 N   0  0  0  0  0  0  0  0  0  0  0  0
    9.5751  -16.3376   19.5342 C   0  0  0  0  0  0  0  0  0  0  0  0
   10.7443  -15.8162   19.6258 O   0  0  0  0  0  0  0  0  0  0  0  0
    8.6276  -16.0418   20.5533 N   0  0  0  0  0  0  0  0  0  0  0  0
    9.0210  -15.4807   21.8229 C   0  0  1  0  0  0  0  0  0  0  0  0
    7.7911  -15.0575   22.6350 C   0  0  0  0  0  0  0  0  0  0  0  0
    6.8434  -16.5508   23.0938 S   0  0  0  0  0  0  0  0  0  0  0  0
    9.8900  -16.3725   22.6017 C   0  0  0  0  0  0  0  0  0  0  0  0
   10.0629  -17.5806   22.2927 O   0  0  0  0  0  0  0  0  0  0  0  0
   10.5743  -15.8899   23.7476 N   0  0  0  0  0  0  0  0  0  0  0  0
   11.7175  -16.6139   24.2801 C   0  0  1  0  0  0  0  0  0  0  0  0
   12.9882  -15.8740   23.9389 C   0  0  0  0  0  0  0  0  0  0  0  0
   14.0751  -16.8164   23.6056 C   0  0  0  0  0  0  0  0  0  0  0  0
   13.9387  -18.0412   23.7053 O   0  0  0  0  0  0  0  0  0  0  0  0
   11.4974  -16.7046   25.7421 C   0  0  0  0  0  0  0  0  0  0  0  0
   11.1657  -15.5449   26.4361 O   0  0  0  0  0  0  0  0  0  0  0  0
   15.2851  -16.3031   23.1670 O   0  0  0  0  0  0  0  0  0  0  0  0
   11.6006  -17.8025   26.3911 O   0  0  0  0  0  0  0  0  0  0  0  0
  1  2  1  0
  2  4  1  0
  3  2  2  0
  4  5  1  0
  5  6  1  1
  5  7  1  0
  7  9  1  0
  7  8  2  0
  9 10  1  0
 10 13  1  0
 10 11  1  1
 11 12  1  0
 13 14  2  0
 15 13  1  0
 15 16  1  0
 16 20  1  0
 17 18  1  0
 16 17  1  1
 18 19  2  0
 20 21  1  0
 22 18  1  0
 23 20  2  0
M  END
$$$$
