NCD.pdb
     RDKit          3D

 23 22  0  0  1  0  0  0  0  0999 V2000
    7.4108  -18.1218   15.7504 N   0  0  0  0  0  0  0  0  0  0  0  0
    8.2835  -17.0140   15.5734 C   0  0  0  0  0  0  0  0  0  0  0  0
    8.7071  -16.7674   14.4385 O   0  0  0  0  0  0  0  0  0  0  0  0
    8.6439  -16.2114   16.7434 C   0  0  0  0  0  0  0  0  0  0  0  0
    8.9478  -16.9720   17.9961 C   0  0  2  0  0  0  0  0  0  0  0  0
    7.6849  -17.5157   18.4906 N   0  0  0  0  0  0  0  0  0  0  0  0
    9.5347  -16.1656   19.0835 C   0  0  0  0  0  0  0  0  0  0  0  0
   10.6561  -15.5522   18.9671 O   0  0  0  0  0  0  0  0  0  0  0  0
    8.8360  -16.0566   20.3178 N   0  0  0  0  0  0  0  0  0  0  0  0
    9.3979  -15.3709   21.4561 C   0  0  1  0  0  0  0  0  0  0  0  0
    8.3098  -14.6133   22.2263 C   0  0  0  0  0  0  0  0  0  0  0  0
    7.0648  -15.8107   22.8218 S   0  0  0  0  0  0  0  0  0  0  0  0
   10.1570  -16.2593   22.3458 C   0  0  0  0  0  0  0  0  0  0  0  0
    9.9546  -17.5011   22.3880 O   0  0  0  0  0  0  0  0  0  0  0  0
   11.1609  -15.7346   23.2009 N   0  0  0  0  0  0  0  0  0  0  0  0
   11.9695  -16.6253   24.0180 C   0  0  1  0  0  0  0  0  0  0  0  0
   13.3841  -16.1031   24.0872 C   0  0  0  0  0  0  0  0  0  0  0  0
   14.0565  -16.2238   22.7780 C   0  0  0  0  0  0  0  0  0  0  0  0
   13.9156  -17.2163   22.0542 O   0  0  0  0  0  0  0  0  0  0  0  0
   11.3194  -16.6600   25.3486 C   0  0  0  0  0  0  0  0  0  0  0  0
   11.7970  -17.5597   26.2968 O   0  0  0  0  0  0  0  0  0  0  0  0
   14.8705  -15.1859   22.3537 O   0  0  0  0  0  0  0  0  0  0  0  0
   10.3389  -15.8994   25.6602 O   0  0  0  0  0  0  0  0  0  0  0  0
  1  2  1  0
  2  4  1  0
  3  2  2  0
  4  5  1  0
  5  6  1  1
  5  7  1  0
  7  9  1  0
  7  8  2  0
  9 10  1  0
 10 13  1  0
 10 11  1  1
 11 12  1  0
 13 14  2  0
 15 13  1  0
 15 16  1  0
 16 20  1  0
 17 18  1  0
 16 17  1  1
 18 19  2  0
 20 21  1  0
 22 18  1  0
 23 20  2  0
M  END
$$$$
