NCD.pdb
     RDKit          3D

 23 22  0  0  1  0  0  0  0  0999 V2000
    7.5468  -15.0907   14.1328 N   0  0  0  0  0  0  0  0  0  0  0  0
    8.4296  -15.8352   14.9613 C   0  0  0  0  0  0  0  0  0  0  0  0
    8.7553  -16.9745   14.6089 O   0  0  0  0  0  0  0  0  0  0  0  0
    8.9162  -15.2208   16.1978 C   0  0  0  0  0  0  0  0  0  0  0  0
    8.7852  -16.0460   17.4396 C   0  0  2  0  0  0  0  0  0  0  0  0
    7.3581  -16.2590   17.6702 N   0  0  0  0  0  0  0  0  0  0  0  0
    9.3392  -15.4245   18.6577 C   0  0  0  0  0  0  0  0  0  0  0  0
   10.5664  -15.0618   18.7570 O   0  0  0  0  0  0  0  0  0  0  0  0
    8.4853  -15.2134   19.7757 N   0  0  0  0  0  0  0  0  0  0  0  0
    8.9934  -14.7777   21.0538 C   0  0  1  0  0  0  0  0  0  0  0  0
    7.8869  -14.1118   21.8806 C   0  0  0  0  0  0  0  0  0  0  0  0
    6.5878  -15.3472   22.2331 S   0  0  0  0  0  0  0  0  0  0  0  0
    9.6467  -15.8537   21.8104 C   0  0  0  0  0  0  0  0  0  0  0  0
    9.3128  -17.0612   21.6862 O   0  0  0  0  0  0  0  0  0  0  0  0
   10.6941  -15.5590   22.7217 N   0  0  0  0  0  0  0  0  0  0  0  0
   11.3371  -16.6258   23.4722 C   0  0  1  0  0  0  0  0  0  0  0  0
   12.8015  -16.3063   23.6514 C   0  0  0  0  0  0  0  0  0  0  0  0
   13.4977  -16.2709   22.3495 C   0  0  0  0  0  0  0  0  0  0  0  0
   13.2658  -17.0933   21.4560 O   0  0  0  0  0  0  0  0  0  0  0  0
   10.6186  -16.7048   24.7651 C   0  0  0  0  0  0  0  0  0  0  0  0
   10.9337  -17.7429   25.6367 O   0  0  0  0  0  0  0  0  0  0  0  0
   14.4407  -15.2797   22.1299 O   0  0  0  0  0  0  0  0  0  0  0  0
    9.7221  -15.8603   25.1118 O   0  0  0  0  0  0  0  0  0  0  0  0
  1  2  1  0
  2  4  1  0
  3  2  2  0
  4  5  1  0
  5  6  1  1
  5  7  1  0
  7  9  1  0
  7  8  2  0
  9 10  1  0
 10 13  1  0
 10 11  1  1
 11 12  1  0
 13 14  2  0
 15 13  1  0
 15 16  1  0
 16 20  1  0
 17 18  1  0
 16 17  1  1
 18 19  2  0
 20 21  1  0
 22 18  1  0
 23 20  2  0
M  END
$$$$
