NCD.pdb
     RDKit          3D

 23 22  0  0  1  0  0  0  0  0999 V2000
    8.5252  -15.3267   18.2679 N   0  0  0  0  0  0  0  0  0  0  0  0
    8.2019  -13.9644   18.5122 C   0  0  0  0  0  0  0  0  0  0  0  0
    8.0122  -13.2169   17.5460 O   0  0  0  0  0  0  0  0  0  0  0  0
    8.1072  -13.5038   19.8985 C   0  0  0  0  0  0  0  0  0  0  0  0
    8.2593  -14.5543   20.9537 C   0  0  2  0  0  0  0  0  0  0  0  0
    7.0372  -15.3552   20.9478 N   0  0  0  0  0  0  0  0  0  0  0  0
    8.4379  -14.0353   22.3233 C   0  0  0  0  0  0  0  0  0  0  0  0
    9.4271  -13.2906   22.6615 O   0  0  0  0  0  0  0  0  0  0  0  0
    7.4783  -14.3683   23.3193 N   0  0  0  0  0  0  0  0  0  0  0  0
    7.6760  -14.0412   24.7106 C   0  0  1  0  0  0  0  0  0  0  0  0
    6.3335  -13.7805   25.4041 C   0  0  0  0  0  0  0  0  0  0  0  0
    6.6200  -12.7280   26.8698 S   0  0  0  0  0  0  0  0  0  0  0  0
    8.4594  -15.0516   25.4334 C   0  0  0  0  0  0  0  0  0  0  0  0
    8.4635  -16.2651   25.0985 O   0  0  0  0  0  0  0  0  0  0  0  0
    9.2507  -14.6832   26.5526 N   0  0  0  0  0  0  0  0  0  0  0  0
   10.0240  -15.6857   27.2679 C   0  0  1  0  0  0  0  0  0  0  0  0
   10.7442  -15.0377   28.4254 C   0  0  0  0  0  0  0  0  0  0  0  0
   11.4842  -16.0417   29.2161 C   0  0  0  0  0  0  0  0  0  0  0  0
   12.1111  -16.9660   28.6858 O   0  0  0  0  0  0  0  0  0  0  0  0
    9.0504  -16.7083   27.7156 C   0  0  0  0  0  0  0  0  0  0  0  0
    9.4931  -18.0169   27.8839 O   0  0  0  0  0  0  0  0  0  0  0  0
   11.4706  -15.9374   30.5977 O   0  0  0  0  0  0  0  0  0  0  0  0
    7.8222  -16.4384   27.9523 O   0  0  0  0  0  0  0  0  0  0  0  0
  1  2  1  0
  2  4  1  0
  3  2  2  0
  4  5  1  0
  5  6  1  1
  5  7  1  0
  7  9  1  0
  7  8  2  0
  9 10  1  0
 10 13  1  0
 10 11  1  1
 11 12  1  0
 13 14  2  0
 15 13  1  0
 15 16  1  0
 16 20  1  0
 17 18  1  0
 16 17  1  1
 18 19  2  0
 20 21  1  0
 22 18  1  0
 23 20  2  0
M  END
$$$$
