NCD.pdb
     RDKit          3D

 23 22  0  0  1  0  0  0  0  0999 V2000
   10.7667  -15.4503   13.9220 N   0  0  0  0  0  0  0  0  0  0  0  0
   10.7573  -16.3347   15.0345 C   0  0  0  0  0  0  0  0  0  0  0  0
   10.6807  -17.5508   14.8255 O   0  0  0  0  0  0  0  0  0  0  0  0
   10.8388  -15.7678   16.3817 C   0  0  0  0  0  0  0  0  0  0  0  0
    9.8777  -16.3192   17.3880 C   0  0  2  0  0  0  0  0  0  0  0  0
    8.5326  -16.1422   16.8453 N   0  0  0  0  0  0  0  0  0  0  0  0
    9.9110  -15.6551   18.7051 C   0  0  0  0  0  0  0  0  0  0  0  0
   10.9920  -15.2027   19.2289 O   0  0  0  0  0  0  0  0  0  0  0  0
    8.6988  -15.5044   19.4342 N   0  0  0  0  0  0  0  0  0  0  0  0
    8.6826  -15.0571   20.8058 C   0  0  1  0  0  0  0  0  0  0  0  0
    7.3424  -14.3940   21.1458 C   0  0  0  0  0  0  0  0  0  0  0  0
    7.3090  -14.0107   22.9319 S   0  0  0  0  0  0  0  0  0  0  0  0
    9.0049  -16.1237   21.7626 C   0  0  0  0  0  0  0  0  0  0  0  0
    8.8169  -17.3406   21.5011 O   0  0  0  0  0  0  0  0  0  0  0  0
    9.5486  -15.8084   23.0351 N   0  0  0  0  0  0  0  0  0  0  0  0
   10.5590  -16.6650   23.6353 C   0  0  1  0  0  0  0  0  0  0  0  0
   11.8005  -16.6607   22.7765 C   0  0  0  0  0  0  0  0  0  0  0  0
   12.8864  -17.4324   23.4139 C   0  0  0  0  0  0  0  0  0  0  0  0
   12.7228  -18.5892   23.8183 O   0  0  0  0  0  0  0  0  0  0  0  0
   10.8108  -16.1129   24.9866 C   0  0  0  0  0  0  0  0  0  0  0  0
   11.6806  -16.7965   25.8309 O   0  0  0  0  0  0  0  0  0  0  0  0
   14.1270  -16.8328   23.5596 O   0  0  0  0  0  0  0  0  0  0  0  0
   10.2619  -15.0368   25.4083 O   0  0  0  0  0  0  0  0  0  0  0  0
  1  2  1  0
  2  4  1  0
  3  2  2  0
  4  5  1  0
  5  6  1  6
  5  7  1  0
  7  9  1  0
  7  8  2  0
  9 10  1  0
 10 13  1  0
 10 11  1  1
 11 12  1  0
 13 14  2  0
 15 13  1  0
 15 16  1  0
 16 20  1  0
 17 18  1  0
 16 17  1  6
 18 19  2  0
 20 21  1  0
 22 18  1  0
 23 20  2  0
M  END
$$$$
