GHF.pdb
     RDKit          3D

 26 27  0  0  1  0  0  0  0  0999 V2000
    3.6317  -18.3585   21.2765 N   0  0  0  0  0  0  0  0  0  0  0  0
    4.3218  -17.2860   21.9590 C   0  0  0  0  0  0  0  0  0  0  0  0
    5.7491  -17.6344   22.2242 C   0  0  0  0  0  0  0  0  0  0  0  0
    5.9690  -18.8327   22.5634 O   0  0  0  0  0  0  0  0  0  0  0  0
    6.7963  -16.6845   22.1044 N   0  0  0  0  0  0  0  0  0  0  0  0
    8.1369  -17.0801   22.3887 C   0  0  1  0  0  0  0  0  0  0  0  0
    9.1746  -16.6562   21.4175 C   0  0  0  0  0  0  0  0  0  0  0  0
    9.0511  -17.1906   20.0531 C   0  0  0  0  0  0  0  0  0  0  0  0
    8.2060  -18.0899   19.4818 C   0  0  0  0  0  0  0  0  0  0  0  0
    8.5564  -18.2148   18.1714 N   0  0  0  0  0  0  0  0  0  0  0  0
    9.5889  -17.4173   17.9343 C   0  0  0  0  0  0  0  0  0  0  0  0
    9.9012  -16.7936   19.0513 N   0  0  0  0  0  0  0  0  0  0  0  0
    8.5209  -16.4203   23.6999 C   0  0  0  0  0  0  0  0  0  0  0  0
    9.0133  -15.2710   23.6454 O   0  0  0  0  0  0  0  0  0  0  0  0
    8.3313  -17.0739   24.9332 N   0  0  0  0  0  0  0  0  0  0  0  0
    8.6987  -16.3738   26.1586 C   0  0  1  0  0  0  0  0  0  0  0  0
    7.4366  -15.9291   26.8431 C   0  0  0  0  0  0  0  0  0  0  0  0
    7.0775  -14.5302   26.5566 C   0  0  0  0  0  0  0  0  0  0  0  0
    7.9180  -13.4782   26.8892 C   0  0  0  0  0  0  0  0  0  0  0  0
    7.5933  -12.1694   26.6218 C   0  0  0  0  0  0  0  0  0  0  0  0
    6.3982  -11.8804   26.0045 C   0  0  0  0  0  0  0  0  0  0  0  0
    5.5323  -12.9201   25.6585 C   0  0  0  0  0  0  0  0  0  0  0  0
    5.8686  -14.2218   25.9310 C   0  0  0  0  0  0  0  0  0  0  0  0
    9.5067  -17.2468   27.0356 C   0  0  0  0  0  0  0  0  0  0  0  0
   10.2475  -16.7717   28.0925 O   0  0  0  0  0  0  0  0  0  0  0  0
    9.5539  -18.5019   26.8460 O   0  0  0  0  0  0  0  0  0  0  0  0
  2  1  1  0
  3  2  1  0
  3  4  2  0
  5  3  1  0
  6  5  1  0
  6 13  1  0
  6  7  1  6
  8  7  1  0
  9  8  2  0
 10 11  1  0
 10  9  1  0
 11 12  2  0
 12  8  1  0
 13 15  1  0
 13 14  2  0
 15 16  1  0
 16 17  1  1
 16 24  1  0
 18 17  1  0
 19 18  2  0
 20 19  1  0
 21 20  2  0
 21 22  1  0
 22 23  2  0
 23 18  1  0
 24 26  2  0
 24 25  1  0
M  END
$$$$
