GHF.pdb
     RDKit          3D

 26 27  0  0  1  0  0  0  0  0999 V2000
    5.7833  -18.9041   19.9067 N   0  0  0  0  0  0  0  0  0  0  0  0
    6.0956  -18.6168   21.2895 C   0  0  0  0  0  0  0  0  0  0  0  0
    7.3316  -17.7884   21.4112 C   0  0  0  0  0  0  0  0  0  0  0  0
    8.4118  -18.3614   21.0886 O   0  0  0  0  0  0  0  0  0  0  0  0
    7.3013  -16.4426   21.8599 N   0  0  0  0  0  0  0  0  0  0  0  0
    8.5176  -15.7013   21.9339 C   0  0  1  0  0  0  0  0  0  0  0  0
    8.4621  -14.2879   21.4878 C   0  0  0  0  0  0  0  0  0  0  0  0
    8.2667  -14.0635   20.0477 C   0  0  0  0  0  0  0  0  0  0  0  0
    8.2556  -14.8956   18.9721 C   0  0  0  0  0  0  0  0  0  0  0  0
    8.0343  -14.1370   17.8625 N   0  0  0  0  0  0  0  0  0  0  0  0
    7.9116  -12.8708   18.2363 C   0  0  0  0  0  0  0  0  0  0  0  0
    8.0480  -12.8054   19.5444 N   0  0  0  0  0  0  0  0  0  0  0  0
    8.9092  -15.6448   23.3986 C   0  0  0  0  0  0  0  0  0  0  0  0
   10.0121  -15.1255   23.6819 O   0  0  0  0  0  0  0  0  0  0  0  0
    8.0653  -16.1564   24.4038 N   0  0  0  0  0  0  0  0  0  0  0  0
    8.4988  -16.0650   25.7932 C   0  0  1  0  0  0  0  0  0  0  0  0
    7.3433  -15.5662   26.6150 C   0  0  0  0  0  0  0  0  0  0  0  0
    7.1674  -14.1057   26.5512 C   0  0  0  0  0  0  0  0  0  0  0  0
    8.2048  -13.2323   26.8422 C   0  0  0  0  0  0  0  0  0  0  0  0
    8.0514  -11.8676   26.7811 C   0  0  0  0  0  0  0  0  0  0  0  0
    6.8337  -11.3381   26.4208 C   0  0  0  0  0  0  0  0  0  0  0  0
    5.7713  -12.1942   26.1225 C   0  0  0  0  0  0  0  0  0  0  0  0
    5.9380  -13.5543   26.1874 C   0  0  0  0  0  0  0  0  0  0  0  0
    8.9760  -17.3770   26.2779 C   0  0  0  0  0  0  0  0  0  0  0  0
    9.5823  -17.5517   27.5000 O   0  0  0  0  0  0  0  0  0  0  0  0
    8.8450  -18.4236   25.5700 O   0  0  0  0  0  0  0  0  0  0  0  0
  2  1  1  0
  3  2  1  0
  3  4  2  0
  5  3  1  0
  6  5  1  0
  6 13  1  0
  6  7  1  1
  8  7  1  0
  9  8  2  0
 10 11  1  0
 10  9  1  0
 11 12  2  0
 12  8  1  0
 13 15  1  0
 13 14  2  0
 15 16  1  0
 16 17  1  1
 16 24  1  0
 18 17  1  0
 19 18  2  0
 20 19  1  0
 21 20  2  0
 21 22  1  0
 22 23  2  0
 23 18  1  0
 24 26  2  0
 24 25  1  0
M  END
$$$$
