GHF.pdb
     RDKit          3D

 26 27  0  0  1  0  0  0  0  0999 V2000
    4.3293  -16.7589   20.6998 N   0  0  0  0  0  0  0  0  0  0  0  0
    5.2992  -15.7417   21.0417 C   0  0  0  0  0  0  0  0  0  0  0  0
    6.5758  -16.3437   21.5283 C   0  0  0  0  0  0  0  0  0  0  0  0
    6.5979  -17.6063   21.5960 O   0  0  0  0  0  0  0  0  0  0  0  0
    7.6962  -15.5531   21.8931 N   0  0  0  0  0  0  0  0  0  0  0  0
    8.9167  -16.1943   22.2588 C   0  0  1  0  0  0  0  0  0  0  0  0
   10.1050  -15.8841   21.4274 C   0  0  0  0  0  0  0  0  0  0  0  0
   10.2364  -16.6329   20.1686 C   0  0  0  0  0  0  0  0  0  0  0  0
   10.1862  -17.9581   19.8678 C   0  0  0  0  0  0  0  0  0  0  0  0
   10.3821  -18.0871   18.5259 N   0  0  0  0  0  0  0  0  0  0  0  0
   10.5493  -16.8783   18.0072 C   0  0  0  0  0  0  0  0  0  0  0  0
   10.4654  -15.9914   18.9770 N   0  0  0  0  0  0  0  0  0  0  0  0
    9.2658  -15.7110   23.6540 C   0  0  0  0  0  0  0  0  0  0  0  0
    9.4045  -14.4784   23.8202 O   0  0  0  0  0  0  0  0  0  0  0  0
    9.4281  -16.6131   24.7237 N   0  0  0  0  0  0  0  0  0  0  0  0
    9.1375  -16.1522   26.0764 C   0  0  1  0  0  0  0  0  0  0  0  0
    7.6740  -15.8189   26.1558 C   0  0  0  0  0  0  0  0  0  0  0  0
    7.4095  -14.3786   26.3094 C   0  0  0  0  0  0  0  0  0  0  0  0
    6.1818  -13.8230   25.9810 C   0  0  0  0  0  0  0  0  0  0  0  0
    5.9242  -12.4804   26.1252 C   0  0  0  0  0  0  0  0  0  0  0  0
    6.9082  -11.6499   26.6100 C   0  0  0  0  0  0  0  0  0  0  0  0
    8.1541  -12.1824   26.9486 C   0  0  0  0  0  0  0  0  0  0  0  0
    8.3980  -13.5242   26.7999 C   0  0  0  0  0  0  0  0  0  0  0  0
    9.5086  -17.1821   27.0691 C   0  0  0  0  0  0  0  0  0  0  0  0
    9.7475  -18.4952   26.7366 O   0  0  0  0  0  0  0  0  0  0  0  0
    9.6242  -16.8929   28.3006 O   0  0  0  0  0  0  0  0  0  0  0  0
  2  1  1  0
  3  2  1  0
  3  4  2  0
  5  3  1  0
  6  5  1  0
  6 13  1  0
  6  7  1  6
  8  7  1  0
  9  8  2  0
 10 11  1  0
 10  9  1  0
 11 12  2  0
 12  8  1  0
 13 15  1  0
 13 14  2  0
 15 16  1  0
 16 17  1  6
 16 24  1  0
 18 17  1  0
 19 18  2  0
 20 19  1  0
 21 20  2  0
 21 22  1  0
 22 23  2  0
 23 18  1  0
 24 26  2  0
 24 25  1  0
M  END
$$$$
