GHF.pdb
     RDKit          3D

 26 27  0  0  1  0  0  0  0  0999 V2000
    5.5855  -19.0360   20.1949 N   0  0  0  0  0  0  0  0  0  0  0  0
    5.5781  -17.9214   21.1169 C   0  0  0  0  0  0  0  0  0  0  0  0
    6.9494  -17.3654   21.3151 C   0  0  0  0  0  0  0  0  0  0  0  0
    7.8975  -18.0611   20.8500 O   0  0  0  0  0  0  0  0  0  0  0  0
    7.1793  -16.1345   21.9825 N   0  0  0  0  0  0  0  0  0  0  0  0
    8.5060  -15.6165   22.0593 C   0  0  1  0  0  0  0  0  0  0  0  0
    8.7102  -14.2363   21.5563 C   0  0  0  0  0  0  0  0  0  0  0  0
    8.2632  -13.9683   20.1812 C   0  0  0  0  0  0  0  0  0  0  0  0
    7.0364  -13.7881   19.6229 C   0  0  0  0  0  0  0  0  0  0  0  0
    7.2140  -13.5780   18.2887 N   0  0  0  0  0  0  0  0  0  0  0  0
    8.5126  -13.6262   18.0247 C   0  0  0  0  0  0  0  0  0  0  0  0
    9.1596  -13.8596   19.1475 N   0  0  0  0  0  0  0  0  0  0  0  0
    8.8732  -15.5658   23.5306 C   0  0  0  0  0  0  0  0  0  0  0  0
    9.9548  -15.0158   23.8371 O   0  0  0  0  0  0  0  0  0  0  0  0
    8.0307  -16.1161   24.5163 N   0  0  0  0  0  0  0  0  0  0  0  0
    8.4533  -16.0535   25.9106 C   0  0  1  0  0  0  0  0  0  0  0  0
    7.3180  -15.4948   26.7219 C   0  0  0  0  0  0  0  0  0  0  0  0
    7.1751  -14.0344   26.6000 C   0  0  0  0  0  0  0  0  0  0  0  0
    5.9951  -13.4506   26.1635 C   0  0  0  0  0  0  0  0  0  0  0  0
    5.8508  -12.0881   26.0506 C   0  0  0  0  0  0  0  0  0  0  0  0
    6.9040  -11.2658   26.3782 C   0  0  0  0  0  0  0  0  0  0  0  0
    8.1042  -11.8266   26.8205 C   0  0  0  0  0  0  0  0  0  0  0  0
    8.2348  -13.1879   26.9287 C   0  0  0  0  0  0  0  0  0  0  0  0
    8.8523  -17.3915   26.3951 C   0  0  0  0  0  0  0  0  0  0  0  0
    9.4722  -17.5987   27.6052 O   0  0  0  0  0  0  0  0  0  0  0  0
    8.6364  -18.4313   25.6982 O   0  0  0  0  0  0  0  0  0  0  0  0
  2  1  1  0
  3  2  1  0
  3  4  2  0
  5  3  1  0
  6  5  1  0
  6 13  1  0
  6  7  1  1
  8  7  1  0
  9  8  2  0
 10 11  1  0
 10  9  1  0
 11 12  2  0
 12  8  1  0
 13 15  1  0
 13 14  2  0
 15 16  1  0
 16 17  1  1
 16 24  1  0
 18 17  1  0
 19 18  2  0
 20 19  1  0
 21 20  2  0
 21 22  1  0
 22 23  2  0
 23 18  1  0
 24 26  2  0
 24 25  1  0
M  END
$$$$
