GHF.pdb
     RDKit          3D

 26 27  0  0  1  0  0  0  0  0999 V2000
    7.6070  -12.6933   18.6785 N   0  0  0  0  0  0  0  0  0  0  0  0
    8.4876  -12.7958   19.8215 C   0  0  0  0  0  0  0  0  0  0  0  0
    8.1786  -14.0024   20.6446 C   0  0  0  0  0  0  0  0  0  0  0  0
    6.9598  -14.3360   20.6957 O   0  0  0  0  0  0  0  0  0  0  0  0
    9.1854  -14.7320   21.3282 N   0  0  0  0  0  0  0  0  0  0  0  0
    8.8280  -15.9055   22.0561 C   0  0  1  0  0  0  0  0  0  0  0  0
    9.4243  -17.1819   21.5925 C   0  0  0  0  0  0  0  0  0  0  0  0
    9.0507  -17.6259   20.2413 C   0  0  0  0  0  0  0  0  0  0  0  0
    8.1355  -17.1820   19.3387 C   0  0  0  0  0  0  0  0  0  0  0  0
    8.2145  -17.9824   18.2392 N   0  0  0  0  0  0  0  0  0  0  0  0
    9.1507  -18.8971   18.4514 C   0  0  0  0  0  0  0  0  0  0  0  0
    9.6647  -18.7003   19.6477 N   0  0  0  0  0  0  0  0  0  0  0  0
    9.3372  -15.7158   23.4727 C   0  0  0  0  0  0  0  0  0  0  0  0
   10.4625  -15.1871   23.6158 O   0  0  0  0  0  0  0  0  0  0  0  0
    8.5746  -16.1183   24.5865 N   0  0  0  0  0  0  0  0  0  0  0  0
    9.1360  -15.9365   25.9200 C   0  0  1  0  0  0  0  0  0  0  0  0
    8.0323  -15.4927   26.8389 C   0  0  0  0  0  0  0  0  0  0  0  0
    7.5949  -14.1070   26.6011 C   0  0  0  0  0  0  0  0  0  0  0  0
    6.3441  -13.8163   26.0770 C   0  0  0  0  0  0  0  0  0  0  0  0
    5.9254  -12.5258   25.8556 C   0  0  0  0  0  0  0  0  0  0  0  0
    6.7652  -11.4794   26.1597 C   0  0  0  0  0  0  0  0  0  0  0  0
    8.0307  -11.7429   26.6886 C   0  0  0  0  0  0  0  0  0  0  0  0
    8.4361  -13.0355   26.9046 C   0  0  0  0  0  0  0  0  0  0  0  0
    9.7619  -17.1874   26.3972 C   0  0  0  0  0  0  0  0  0  0  0  0
   10.5185  -17.2596   27.5435 O   0  0  0  0  0  0  0  0  0  0  0  0
    9.6261  -18.2742   25.7539 O   0  0  0  0  0  0  0  0  0  0  0  0
  2  1  1  0
  3  2  1  0
  3  4  2  0
  5  3  1  0
  6  5  1  0
  6 13  1  0
  6  7  1  6
  8  7  1  0
  9  8  2  0
 10 11  1  0
 10  9  1  0
 11 12  2  0
 12  8  1  0
 13 15  1  0
 13 14  2  0
 15 16  1  0
 16 17  1  1
 16 24  1  0
 18 17  1  0
 19 18  2  0
 20 19  1  0
 21 20  2  0
 21 22  1  0
 22 23  2  0
 23 18  1  0
 24 26  2  0
 24 25  1  0
M  END
$$$$
