GHF.pdb
     RDKit          3D

 26 27  0  0  1  0  0  0  0  0999 V2000
   13.8641  -13.9362   19.3792 N   0  0  0  0  0  0  0  0  0  0  0  0
   13.2112  -15.0610   20.0122 C   0  0  0  0  0  0  0  0  0  0  0  0
   12.0083  -14.6319   20.7854 C   0  0  0  0  0  0  0  0  0  0  0  0
   12.0625  -13.4730   21.2887 O   0  0  0  0  0  0  0  0  0  0  0  0
   10.8735  -15.4682   20.9480 N   0  0  0  0  0  0  0  0  0  0  0  0
    9.8103  -15.0481   21.8011 C   0  0  1  0  0  0  0  0  0  0  0  0
    8.4354  -15.1712   21.2586 C   0  0  0  0  0  0  0  0  0  0  0  0
    8.1852  -14.5304   19.9589 C   0  0  0  0  0  0  0  0  0  0  0  0
    8.2965  -13.2482   19.5198 C   0  0  0  0  0  0  0  0  0  0  0  0
    7.9217  -13.2235   18.2104 N   0  0  0  0  0  0  0  0  0  0  0  0
    7.5869  -14.4536   17.8456 C   0  0  0  0  0  0  0  0  0  0  0  0
    7.7382  -15.2530   18.8810 N   0  0  0  0  0  0  0  0  0  0  0  0
    9.8429  -15.9504   23.0204 C   0  0  0  0  0  0  0  0  0  0  0  0
   10.7334  -16.8286   23.0653 O   0  0  0  0  0  0  0  0  0  0  0  0
    8.9076  -15.8075   24.0640 N   0  0  0  0  0  0  0  0  0  0  0  0
    8.9408  -16.7606   25.1672 C   0  0  1  0  0  0  0  0  0  0  0  0
    8.2430  -16.1411   26.3457 C   0  0  0  0  0  0  0  0  0  0  0  0
    9.0608  -15.1390   27.0493 C   0  0  0  0  0  0  0  0  0  0  0  0
    8.8450  -13.7783   26.8894 C   0  0  0  0  0  0  0  0  0  0  0  0
    9.6004  -12.8356   27.5454 C   0  0  0  0  0  0  0  0  0  0  0  0
   10.6066  -13.2422   28.3909 C   0  0  0  0  0  0  0  0  0  0  0  0
   10.8463  -14.6063   28.5706 C   0  0  0  0  0  0  0  0  0  0  0  0
   10.0850  -15.5367   27.9099 C   0  0  0  0  0  0  0  0  0  0  0  0
    8.3037  -18.0350   24.7746 C   0  0  0  0  0  0  0  0  0  0  0  0
    8.4709  -19.2063   25.4758 O   0  0  0  0  0  0  0  0  0  0  0  0
    7.5583  -18.1054   23.7485 O   0  0  0  0  0  0  0  0  0  0  0  0
  2  1  1  0
  3  2  1  0
  3  4  2  0
  5  3  1  0
  6  5  1  0
  6 13  1  0
  6  7  1  6
  8  7  1  0
  9  8  2  0
 10 11  1  0
 10  9  1  0
 11 12  2  0
 12  8  1  0
 13 15  1  0
 13 14  2  0
 15 16  1  0
 16 17  1  1
 16 24  1  0
 18 17  1  0
 19 18  2  0
 20 19  1  0
 21 20  2  0
 21 22  1  0
 22 23  2  0
 23 18  1  0
 24 26  2  0
 24 25  1  0
M  END
$$$$
