GHF.pdb
     RDKit          3D

 26 27  0  0  1  0  0  0  0  0999 V2000
    7.3054  -12.9712   18.6255 N   0  0  0  0  0  0  0  0  0  0  0  0
    8.0050  -12.8436   19.8851 C   0  0  0  0  0  0  0  0  0  0  0  0
    7.8379  -14.0628   20.7305 C   0  0  0  0  0  0  0  0  0  0  0  0
    6.6809  -14.5733   20.7369 O   0  0  0  0  0  0  0  0  0  0  0  0
    8.9068  -14.6173   21.4810 N   0  0  0  0  0  0  0  0  0  0  0  0
    8.6953  -15.8204   22.2175 C   0  0  1  0  0  0  0  0  0  0  0  0
    9.4192  -17.0251   21.7437 C   0  0  0  0  0  0  0  0  0  0  0  0
    9.0738  -17.5090   20.3986 C   0  0  0  0  0  0  0  0  0  0  0  0
    7.9457  -17.4256   19.6439 C   0  0  0  0  0  0  0  0  0  0  0  0
    8.1862  -18.0653   18.4655 N   0  0  0  0  0  0  0  0  0  0  0  0
    9.4267  -18.5330   18.4864 C   0  0  0  0  0  0  0  0  0  0  0  0
    9.9766  -18.2096   19.6384 N   0  0  0  0  0  0  0  0  0  0  0  0
    9.2088  -15.5708   23.6233 C   0  0  0  0  0  0  0  0  0  0  0  0
   10.2707  -14.9195   23.7430 O   0  0  0  0  0  0  0  0  0  0  0  0
    8.5184  -16.0525   24.7527 N   0  0  0  0  0  0  0  0  0  0  0  0
    9.1111  -15.8551   26.0704 C   0  0  1  0  0  0  0  0  0  0  0  0
    8.0338  -15.3796   27.0047 C   0  0  0  0  0  0  0  0  0  0  0  0
    7.5987  -13.9979   26.7410 C   0  0  0  0  0  0  0  0  0  0  0  0
    8.4427  -12.9160   26.9429 C   0  0  0  0  0  0  0  0  0  0  0  0
    8.0469  -11.6230   26.6954 C   0  0  0  0  0  0  0  0  0  0  0  0
    6.7743  -11.3809   26.2321 C   0  0  0  0  0  0  0  0  0  0  0  0
    5.9031  -12.4516   26.0199 C   0  0  0  0  0  0  0  0  0  0  0  0
    6.3108  -13.7372   26.2709 C   0  0  0  0  0  0  0  0  0  0  0  0
    9.7302  -17.1059   26.5564 C   0  0  0  0  0  0  0  0  0  0  0  0
    9.7437  -18.2711   25.8258 O   0  0  0  0  0  0  0  0  0  0  0  0
   10.2880  -17.1605   27.6963 O   0  0  0  0  0  0  0  0  0  0  0  0
  2  1  1  0
  3  2  1  0
  3  4  2  0
  5  3  1  0
  6  5  1  0
  6 13  1  0
  6  7  1  6
  8  7  1  0
  9  8  2  0
 10 11  1  0
 10  9  1  0
 11 12  2  0
 12  8  1  0
 13 15  1  0
 13 14  2  0
 15 16  1  0
 16 17  1  1
 16 24  1  0
 18 17  1  0
 19 18  2  0
 20 19  1  0
 21 20  2  0
 21 22  1  0
 22 23  2  0
 23 18  1  0
 24 26  2  0
 24 25  1  0
M  END
$$$$
