GHF.pdb
     RDKit          3D

 26 27  0  0  1  0  0  0  0  0999 V2000
   10.7239  -13.3611   18.8804 N   0  0  0  0  0  0  0  0  0  0  0  0
   11.3708  -14.3517   19.7126 C   0  0  0  0  0  0  0  0  0  0  0  0
   10.4098  -14.9740   20.6708 C   0  0  0  0  0  0  0  0  0  0  0  0
    9.2111  -14.5813   20.5808 O   0  0  0  0  0  0  0  0  0  0  0  0
   10.8115  -15.9452   21.6241 N   0  0  0  0  0  0  0  0  0  0  0  0
    9.8654  -16.4227   22.5789 C   0  0  1  0  0  0  0  0  0  0  0  0
    9.6618  -17.8907   22.6351 C   0  0  0  0  0  0  0  0  0  0  0  0
    9.2446  -18.5417   21.3843 C   0  0  0  0  0  0  0  0  0  0  0  0
    9.0043  -18.0741   20.1302 C   0  0  0  0  0  0  0  0  0  0  0  0
    8.6337  -19.1321   19.3563 N   0  0  0  0  0  0  0  0  0  0  0  0
    8.6429  -20.2254   20.1064 C   0  0  0  0  0  0  0  0  0  0  0  0
    9.0070  -19.8924   21.3273 N   0  0  0  0  0  0  0  0  0  0  0  0
   10.3917  -16.0378   23.9489 C   0  0  0  0  0  0  0  0  0  0  0  0
   11.6333  -15.9874   24.0973 O   0  0  0  0  0  0  0  0  0  0  0  0
    9.5182  -15.7474   25.0153 N   0  0  0  0  0  0  0  0  0  0  0  0
   10.0879  -15.4622   26.3270 C   0  0  1  0  0  0  0  0  0  0  0  0
    9.8039  -14.0244   26.6610 C   0  0  0  0  0  0  0  0  0  0  0  0
    8.3750  -13.6774   26.5848 C   0  0  0  0  0  0  0  0  0  0  0  0
    7.4338  -14.5659   26.0865 C   0  0  0  0  0  0  0  0  0  0  0  0
    6.0972  -14.2525   26.0156 C   0  0  0  0  0  0  0  0  0  0  0  0
    5.6663  -13.0202   26.4497 C   0  0  0  0  0  0  0  0  0  0  0  0
    6.5923  -12.1056   26.9561 C   0  0  0  0  0  0  0  0  0  0  0  0
    7.9233  -12.4311   27.0214 C   0  0  0  0  0  0  0  0  0  0  0  0
    9.5271  -16.3718   27.3479 C   0  0  0  0  0  0  0  0  0  0  0  0
    9.9360  -16.3712   28.6611 O   0  0  0  0  0  0  0  0  0  0  0  0
    8.6238  -17.2135   27.0495 O   0  0  0  0  0  0  0  0  0  0  0  0
  2  1  1  0
  3  2  1  0
  3  4  2  0
  5  3  1  0
  6  5  1  0
  6 13  1  0
  6  7  1  1
  8  7  1  0
  9  8  2  0
 10 11  1  0
 10  9  1  0
 11 12  2  0
 12  8  1  0
 13 15  1  0
 13 14  2  0
 15 16  1  0
 16 17  1  1
 16 24  1  0
 18 17  1  0
 19 18  2  0
 20 19  1  0
 21 20  2  0
 21 22  1  0
 22 23  2  0
 23 18  1  0
 24 26  2  0
 24 25  1  0
M  END
$$$$
