GHF.pdb
     RDKit          3D

 26 27  0  0  1  0  0  0  0  0999 V2000
    7.9113  -12.4709   18.8180 N   0  0  0  0  0  0  0  0  0  0  0  0
    8.8669  -12.8829   19.8228 C   0  0  0  0  0  0  0  0  0  0  0  0
    8.3751  -14.0617   20.5957 C   0  0  0  0  0  0  0  0  0  0  0  0
    7.1213  -14.2262   20.6096 O   0  0  0  0  0  0  0  0  0  0  0  0
    9.2551  -14.9445   21.2736 N   0  0  0  0  0  0  0  0  0  0  0  0
    8.7182  -16.0522   21.9943 C   0  0  1  0  0  0  0  0  0  0  0  0
    9.1953  -17.3985   21.5949 C   0  0  0  0  0  0  0  0  0  0  0  0
    8.8223  -17.8513   20.2464 C   0  0  0  0  0  0  0  0  0  0  0  0
    8.0942  -17.2867   19.2463 C   0  0  0  0  0  0  0  0  0  0  0  0
    8.0633  -18.1669   18.2071 N   0  0  0  0  0  0  0  0  0  0  0  0
    8.7515  -19.2471   18.5504 C   0  0  0  0  0  0  0  0  0  0  0  0
    9.2153  -19.0775   19.7711 N   0  0  0  0  0  0  0  0  0  0  0  0
    9.1489  -15.8862   23.4396 C   0  0  0  0  0  0  0  0  0  0  0  0
   10.2850  -15.4063   23.6521 O   0  0  0  0  0  0  0  0  0  0  0  0
    8.3042  -16.2572   24.5041 N   0  0  0  0  0  0  0  0  0  0  0  0
    8.7955  -16.1113   25.8693 C   0  0  1  0  0  0  0  0  0  0  0  0
    7.6470  -15.6842   26.7398 C   0  0  0  0  0  0  0  0  0  0  0  0
    7.2974  -14.2617   26.5908 C   0  0  0  0  0  0  0  0  0  0  0  0
    8.1468  -13.2527   27.0198 C   0  0  0  0  0  0  0  0  0  0  0  0
    7.8310  -11.9219   26.8809 C   0  0  0  0  0  0  0  0  0  0  0  0
    6.6361  -11.5663   26.2991 C   0  0  0  0  0  0  0  0  0  0  0  0
    5.7614  -12.5617   25.8581 C   0  0  0  0  0  0  0  0  0  0  0  0
    6.0888  -13.8860   26.0027 C   0  0  0  0  0  0  0  0  0  0  0  0
    9.3905  -17.3768   26.3474 C   0  0  0  0  0  0  0  0  0  0  0  0
   10.1904  -17.4569   27.4634 O   0  0  0  0  0  0  0  0  0  0  0  0
    9.1853  -18.4697   25.7335 O   0  0  0  0  0  0  0  0  0  0  0  0
  2  1  1  0
  3  2  1  0
  3  4  2  0
  5  3  1  0
  6  5  1  0
  6 13  1  0
  6  7  1  6
  8  7  1  0
  9  8  2  0
 10 11  1  0
 10  9  1  0
 11 12  2  0
 12  8  1  0
 13 15  1  0
 13 14  2  0
 15 16  1  0
 16 17  1  1
 16 24  1  0
 18 17  1  0
 19 18  2  0
 20 19  1  0
 21 20  2  0
 21 22  1  0
 22 23  2  0
 23 18  1  0
 24 26  2  0
 24 25  1  0
M  END
$$$$
