GHF.pdb
     RDKit          3D

 26 27  0  0  1  0  0  0  0  0999 V2000
    7.4575  -12.5130   19.7596 N   0  0  0  0  0  0  0  0  0  0  0  0
    8.3866  -13.6109   19.6063 C   0  0  0  0  0  0  0  0  0  0  0  0
    8.2044  -14.6361   20.6762 C   0  0  0  0  0  0  0  0  0  0  0  0
    7.0481  -15.1406   20.7635 O   0  0  0  0  0  0  0  0  0  0  0  0
    9.2592  -15.0232   21.5428 N   0  0  0  0  0  0  0  0  0  0  0  0
    9.1346  -16.2219   22.3060 C   0  0  1  0  0  0  0  0  0  0  0  0
    9.9981  -17.3584   21.9031 C   0  0  0  0  0  0  0  0  0  0  0  0
    9.7320  -17.9459   20.5815 C   0  0  0  0  0  0  0  0  0  0  0  0
   10.2519  -17.7222   19.3450 C   0  0  0  0  0  0  0  0  0  0  0  0
    9.6211  -18.5563   18.4721 N   0  0  0  0  0  0  0  0  0  0  0  0
    8.7350  -19.2774   19.1453 C   0  0  0  0  0  0  0  0  0  0  0  0
    8.7860  -18.9260   20.4133 N   0  0  0  0  0  0  0  0  0  0  0  0
    9.5517  -15.8843   23.7252 C   0  0  0  0  0  0  0  0  0  0  0  0
   10.6306  -15.2693   23.8791 O   0  0  0  0  0  0  0  0  0  0  0  0
    8.7565  -16.2481   24.8296 N   0  0  0  0  0  0  0  0  0  0  0  0
    9.2732  -16.0072   26.1718 C   0  0  1  0  0  0  0  0  0  0  0  0
    8.1385  -15.5303   27.0345 C   0  0  0  0  0  0  0  0  0  0  0  0
    7.6558  -14.1863   26.6759 C   0  0  0  0  0  0  0  0  0  0  0  0
    8.3610  -13.0422   27.0184 C   0  0  0  0  0  0  0  0  0  0  0  0
    7.9206  -11.7836   26.6841 C   0  0  0  0  0  0  0  0  0  0  0  0
    6.7431  -11.6407   25.9871 C   0  0  0  0  0  0  0  0  0  0  0  0
    6.0122  -12.7758   25.6293 C   0  0  0  0  0  0  0  0  0  0  0  0
    6.4631  -14.0260   25.9691 C   0  0  0  0  0  0  0  0  0  0  0  0
    9.8877  -17.2336   26.7219 C   0  0  0  0  0  0  0  0  0  0  0  0
    9.9128  -18.4305   26.0447 O   0  0  0  0  0  0  0  0  0  0  0  0
   10.4301  -17.2356   27.8704 O   0  0  0  0  0  0  0  0  0  0  0  0
  2  1  1  0
  3  2  1  0
  3  4  2  0
  5  3  1  0
  6  5  1  0
  6 13  1  0
  6  7  1  6
  8  7  1  0
  9  8  2  0
 10 11  1  0
 10  9  1  0
 11 12  2  0
 12  8  1  0
 13 15  1  0
 13 14  2  0
 15 16  1  0
 16 17  1  1
 16 24  1  0
 18 17  1  0
 19 18  2  0
 20 19  1  0
 21 20  2  0
 21 22  1  0
 22 23  2  0
 23 18  1  0
 24 26  2  0
 24 25  1  0
M  END
$$$$
