GHF.pdb
     RDKit          3D

 26 27  0  0  1  0  0  0  0  0999 V2000
    7.7771  -12.9121   18.2181 N   0  0  0  0  0  0  0  0  0  0  0  0
    8.1388  -12.7106   19.6041 C   0  0  0  0  0  0  0  0  0  0  0  0
    7.8948  -13.9383   20.4179 C   0  0  0  0  0  0  0  0  0  0  0  0
    6.7166  -14.3964   20.3826 O   0  0  0  0  0  0  0  0  0  0  0  0
    8.9171  -14.5556   21.1842 N   0  0  0  0  0  0  0  0  0  0  0  0
    8.6479  -15.7902   21.8458 C   0  0  1  0  0  0  0  0  0  0  0  0
    9.4278  -16.9687   21.3958 C   0  0  0  0  0  0  0  0  0  0  0  0
    9.1369  -17.4682   20.0436 C   0  0  0  0  0  0  0  0  0  0  0  0
    7.9849  -17.8191   19.4120 C   0  0  0  0  0  0  0  0  0  0  0  0
    8.3086  -18.2242   18.1523 N   0  0  0  0  0  0  0  0  0  0  0  0
    9.6229  -18.1284   18.0045 C   0  0  0  0  0  0  0  0  0  0  0  0
   10.1387  -17.6764   19.1287 N   0  0  0  0  0  0  0  0  0  0  0  0
    9.0186  -15.5968   23.3043 C   0  0  0  0  0  0  0  0  0  0  0  0
   10.0376  -14.9151   23.5556 O   0  0  0  0  0  0  0  0  0  0  0  0
    8.2469  -16.1618   24.3385 N   0  0  0  0  0  0  0  0  0  0  0  0
    8.6893  -15.9849   25.7168 C   0  0  1  0  0  0  0  0  0  0  0  0
    7.5002  -15.5864   26.5454 C   0  0  0  0  0  0  0  0  0  0  0  0
    7.2449  -14.1363   26.5429 C   0  0  0  0  0  0  0  0  0  0  0  0
    6.0278  -13.6104   26.1357 C   0  0  0  0  0  0  0  0  0  0  0  0
    5.7787  -12.2584   26.1342 C   0  0  0  0  0  0  0  0  0  0  0  0
    6.7607  -11.3880   26.5475 C   0  0  0  0  0  0  0  0  0  0  0  0
    7.9960  -11.8901   26.9627 C   0  0  0  0  0  0  0  0  0  0  0  0
    8.2315  -13.2415   26.9594 C   0  0  0  0  0  0  0  0  0  0  0  0
    9.3096  -17.2248   26.2285 C   0  0  0  0  0  0  0  0  0  0  0  0
    9.3982  -18.3814   25.4895 O   0  0  0  0  0  0  0  0  0  0  0  0
    9.7976  -17.2774   27.4001 O   0  0  0  0  0  0  0  0  0  0  0  0
  2  1  1  0
  3  2  1  0
  3  4  2  0
  5  3  1  0
  6  5  1  0
  6 13  1  0
  6  7  1  6
  8  7  1  0
  9  8  2  0
 10 11  1  0
 10  9  1  0
 11 12  2  0
 12  8  1  0
 13 15  1  0
 13 14  2  0
 15 16  1  0
 16 17  1  1
 16 24  1  0
 18 17  1  0
 19 18  2  0
 20 19  1  0
 21 20  2  0
 21 22  1  0
 22 23  2  0
 23 18  1  0
 24 26  2  0
 24 25  1  0
M  END
$$$$
