GHF.pdb
     RDKit          3D

 26 27  0  0  1  0  0  0  0  0999 V2000
    3.6345  -19.5054   22.9499 N   0  0  0  0  0  0  0  0  0  0  0  0
    3.9839  -18.1020   22.9775 C   0  0  0  0  0  0  0  0  0  0  0  0
    5.4309  -17.8918   22.6757 C   0  0  0  0  0  0  0  0  0  0  0  0
    6.1543  -18.9288   22.7006 O   0  0  0  0  0  0  0  0  0  0  0  0
    5.9653  -16.6113   22.3791 N   0  0  0  0  0  0  0  0  0  0  0  0
    7.3719  -16.4653   22.1924 C   0  0  1  0  0  0  0  0  0  0  0  0
    7.8069  -15.5279   21.1287 C   0  0  0  0  0  0  0  0  0  0  0  0
    9.2388  -15.5374   20.7937 C   0  0  0  0  0  0  0  0  0  0  0  0
   10.2800  -14.7377   21.1483 C   0  0  0  0  0  0  0  0  0  0  0  0
   11.3974  -15.2122   20.5303 N   0  0  0  0  0  0  0  0  0  0  0  0
   11.0616  -16.2753   19.8125 C   0  0  0  0  0  0  0  0  0  0  0  0
    9.7700  -16.4871   19.9572 N   0  0  0  0  0  0  0  0  0  0  0  0
    7.9293  -15.8945   23.4830 C   0  0  0  0  0  0  0  0  0  0  0  0
    8.2574  -14.6868   23.4859 O   0  0  0  0  0  0  0  0  0  0  0  0
    8.0731  -16.6913   24.6358 N   0  0  0  0  0  0  0  0  0  0  0  0
    8.8831  -16.1855   25.7378 C   0  0  1  0  0  0  0  0  0  0  0  0
    7.9588  -15.7509   26.8406 C   0  0  0  0  0  0  0  0  0  0  0  0
    7.4223  -14.3926   26.6529 C   0  0  0  0  0  0  0  0  0  0  0  0
    6.0965  -14.1727   26.3100 C   0  0  0  0  0  0  0  0  0  0  0  0
    5.5855  -12.9082   26.1370 C   0  0  0  0  0  0  0  0  0  0  0  0
    6.4058  -11.8169   26.3065 C   0  0  0  0  0  0  0  0  0  0  0  0
    7.7454  -12.0090   26.6517 C   0  0  0  0  0  0  0  0  0  0  0  0
    8.2426  -13.2762   26.8214 C   0  0  0  0  0  0  0  0  0  0  0  0
    9.8298  -17.2192   26.2063 C   0  0  0  0  0  0  0  0  0  0  0  0
   10.7843  -16.9838   27.1682 O   0  0  0  0  0  0  0  0  0  0  0  0
    9.8030  -18.3960   25.7290 O   0  0  0  0  0  0  0  0  0  0  0  0
  2  1  1  0
  3  2  1  0
  3  4  2  0
  5  3  1  0
  6  5  1  0
  6 13  1  0
  6  7  1  6
  8  7  1  0
  9  8  2  0
 10 11  1  0
 10  9  1  0
 11 12  2  0
 12  8  1  0
 13 15  1  0
 13 14  2  0
 15 16  1  0
 16 17  1  1
 16 24  1  0
 18 17  1  0
 19 18  2  0
 20 19  1  0
 21 20  2  0
 21 22  1  0
 22 23  2  0
 23 18  1  0
 24 26  2  0
 24 25  1  0
M  END
$$$$
