GHF.pdb
     RDKit          3D

 26 27  0  0  1  0  0  0  0  0999 V2000
    8.1218  -12.5911   18.3679 N   0  0  0  0  0  0  0  0  0  0  0  0
    9.1304  -13.1925   19.2124 C   0  0  0  0  0  0  0  0  0  0  0  0
    8.5286  -14.1482   20.1888 C   0  0  0  0  0  0  0  0  0  0  0  0
    7.3333  -13.9101   20.5261 O   0  0  0  0  0  0  0  0  0  0  0  0
    9.2484  -15.2551   20.7084 N   0  0  0  0  0  0  0  0  0  0  0  0
    8.6610  -16.0537   21.7339 C   0  0  1  0  0  0  0  0  0  0  0  0
    8.6627  -17.5207   21.5163 C   0  0  0  0  0  0  0  0  0  0  0  0
    7.9685  -18.0045   20.3135 C   0  0  0  0  0  0  0  0  0  0  0  0
    7.3116  -17.3729   19.3042 C   0  0  0  0  0  0  0  0  0  0  0  0
    6.8513  -18.3267   18.4473 N   0  0  0  0  0  0  0  0  0  0  0  0
    7.2110  -19.5163   18.9097 C   0  0  0  0  0  0  0  0  0  0  0  0
    7.8826  -19.3446   20.0293 N   0  0  0  0  0  0  0  0  0  0  0  0
    9.4851  -15.8331   22.9886 C   0  0  0  0  0  0  0  0  0  0  0  0
   10.7278  -15.7621   22.8581 O   0  0  0  0  0  0  0  0  0  0  0  0
    8.8774  -15.7124   24.2537 N   0  0  0  0  0  0  0  0  0  0  0  0
    9.7275  -15.5012   25.4196 C   0  0  1  0  0  0  0  0  0  0  0  0
    9.7301  -14.0327   25.7404 C   0  0  0  0  0  0  0  0  0  0  0  0
    8.3809  -13.4705   25.9186 C   0  0  0  0  0  0  0  0  0  0  0  0
    7.5375  -13.2419   24.8416 C   0  0  0  0  0  0  0  0  0  0  0  0
    6.2748  -12.7215   24.9985 C   0  0  0  0  0  0  0  0  0  0  0  0
    5.8211  -12.4130   26.2601 C   0  0  0  0  0  0  0  0  0  0  0  0
    6.6494  -12.6328   27.3630 C   0  0  0  0  0  0  0  0  0  0  0  0
    7.9073  -13.1527   27.1924 C   0  0  0  0  0  0  0  0  0  0  0  0
    9.2479  -16.3008   26.5662 C   0  0  0  0  0  0  0  0  0  0  0  0
    8.1325  -17.1034   26.5088 O   0  0  0  0  0  0  0  0  0  0  0  0
    9.8582  -16.2797   27.6800 O   0  0  0  0  0  0  0  0  0  0  0  0
  2  1  1  0
  3  2  1  0
  3  4  2  0
  5  3  1  0
  6  5  1  0
  6 13  1  0
  6  7  1  6
  8  7  1  0
  9  8  2  0
 10 11  1  0
 10  9  1  0
 11 12  2  0
 12  8  1  0
 13 15  1  0
 13 14  2  0
 15 16  1  0
 16 17  1  1
 16 24  1  0
 18 17  1  0
 19 18  2  0
 20 19  1  0
 21 20  2  0
 21 22  1  0
 22 23  2  0
 23 18  1  0
 24 26  2  0
 24 25  1  0
M  END
$$$$
