DVS.pdb
     RDKit          3D

 22 21  0  0  1  0  0  0  0  0999 V2000
   14.8285  -11.1681  -11.6468 N   0  0  0  0  0  0  0  0  0  0  0  0
   15.7769  -10.0950  -11.5175 C   0  0  1  0  0  0  0  0  0  0  0  0
   16.5193   -9.9370  -12.8386 C   0  0  0  0  0  0  0  0  0  0  0  0
   17.3045  -11.1558  -13.1581 C   0  0  0  0  0  0  0  0  0  0  0  0
   16.7425  -12.2025  -13.5974 O   0  0  0  0  0  0  0  0  0  0  0  0
   15.0794   -8.8311  -11.1545 C   0  0  0  0  0  0  0  0  0  0  0  0
   14.0849   -8.4719  -11.8154 O   0  0  0  0  0  0  0  0  0  0  0  0
   18.6735  -11.1301  -12.9670 O   0  0  0  0  0  0  0  0  0  0  0  0
   15.4077   -7.1132   -7.1815 C   0  0  0  0  0  0  0  0  0  0  0  0
   14.3045   -6.8986   -8.2139 C   0  0  2  0  0  0  0  0  0  0  0  0
   13.2908   -7.9950   -8.0355 C   0  0  0  0  0  0  0  0  0  0  0  0
   14.8898   -6.8212   -9.6054 C   0  0  2  0  0  0  0  0  0  0  0  0
   15.5132   -8.0162  -10.0732 N   0  0  0  0  0  0  0  0  0  0  0  0
   15.6519   -5.5708   -9.8421 C   0  0  0  0  0  0  0  0  0  0  0  0
   16.8777   -5.5089   -9.4872 O   0  0  0  0  0  0  0  0  0  0  0  0
   14.6615   -2.3845  -12.5048 O   0  0  0  0  0  0  0  0  0  0  0  0
   15.9131   -2.6866  -12.0271 C   0  0  0  0  0  0  0  0  0  0  0  0
   15.9256   -3.1744  -10.5927 C   0  0  2  0  0  0  0  0  0  0  0  0
   15.1475   -4.3928  -10.4388 N   0  0  0  0  0  0  0  0  0  0  0  0
   15.5780   -2.1375   -9.6196 C   0  0  0  0  0  0  0  0  0  0  0  0
   14.6143   -2.2840   -8.8457 O   0  0  0  0  0  0  0  0  0  0  0  0
   16.3268   -0.9828   -9.5577 O   0  0  0  0  0  0  0  0  0  0  0  0
  2  1  1  6
  2  6  1  0
  2  3  1  0
  3  4  1  0
  4  5  2  0
  4  8  1  0
  6  7  2  0
  6 13  1  0
 10  9  1  1
 10 12  1  0
 11 10  1  0
 12 14  1  0
 12 13  1  1
 14 15  2  0
 14 19  1  0
 16 17  1  0
 18 20  1  0
 18 17  1  6
 19 18  1  0
 20 22  1  0
 21 20  2  0
M  END
$$$$
