DVS.pdb
     RDKit          3D

 22 21  0  0  1  0  0  0  0  0999 V2000
   21.3015  -12.4493  -17.8049 N   0  0  0  0  0  0  0  0  0  0  0  0
   20.4378  -11.8658  -18.7953 C   0  0  1  0  0  0  0  0  0  0  0  0
   19.9577  -12.9655  -19.7342 C   0  0  0  0  0  0  0  0  0  0  0  0
   21.0967  -13.5818  -20.4601 C   0  0  0  0  0  0  0  0  0  0  0  0
   21.9780  -12.8690  -21.0253 O   0  0  0  0  0  0  0  0  0  0  0  0
   19.2817  -11.1947  -18.1406 C   0  0  0  0  0  0  0  0  0  0  0  0
   18.3961  -10.6764  -18.8491 O   0  0  0  0  0  0  0  0  0  0  0  0
   21.1813  -14.9609  -20.5099 O   0  0  0  0  0  0  0  0  0  0  0  0
   16.9181  -12.4381  -15.2471 C   0  0  0  0  0  0  0  0  0  0  0  0
   17.5804  -11.1360  -14.8055 C   0  0  2  0  0  0  0  0  0  0  0  0
   16.5607  -10.3409  -14.0379 C   0  0  0  0  0  0  0  0  0  0  0  0
   18.1608  -10.4074  -15.9960 C   0  0  2  0  0  0  0  0  0  0  0  0
   19.1545  -11.1249  -16.7262 N   0  0  0  0  0  0  0  0  0  0  0  0
   18.4854   -8.9900  -15.7030 C   0  0  0  0  0  0  0  0  0  0  0  0
   19.7004   -8.6003  -15.7682 O   0  0  0  0  0  0  0  0  0  0  0  0
   18.7657   -4.7579  -16.6474 O   0  0  0  0  0  0  0  0  0  0  0  0
   18.5510   -6.1125  -16.5796 C   0  0  0  0  0  0  0  0  0  0  0  0
   17.8882   -6.5695  -15.2960 C   0  0  2  0  0  0  0  0  0  0  0  0
   17.5592   -7.9849  -15.3423 N   0  0  0  0  0  0  0  0  0  0  0  0
   16.7643   -5.7259  -14.8860 C   0  0  0  0  0  0  0  0  0  0  0  0
   16.9562   -4.6498  -14.2910 O   0  0  0  0  0  0  0  0  0  0  0  0
   15.4755   -6.1267  -15.1618 O   0  0  0  0  0  0  0  0  0  0  0  0
  2  1  1  1
  2  6  1  0
  2  3  1  0
  3  4  1  0
  4  5  2  0
  4  8  1  0
  6  7  2  0
  6 13  1  0
 10  9  1  6
 10 12  1  0
 11 10  1  0
 12 14  1  0
 12 13  1  1
 14 15  2  0
 14 19  1  0
 16 17  1  0
 18 20  1  0
 18 17  1  6
 19 18  1  0
 20 22  1  0
 21 20  2  0
M  END
$$$$
