DVS.pdb
     RDKit          3D

 22 21  0  0  1  0  0  0  0  0999 V2000
   17.6349  -12.4411  -16.8198 N   0  0  0  0  0  0  0  0  0  0  0  0
   18.6449  -11.5581  -17.3373 C   0  0  1  0  0  0  0  0  0  0  0  0
   17.9915  -10.5862  -18.3120 C   0  0  0  0  0  0  0  0  0  0  0  0
   17.5082  -11.2920  -19.5254 C   0  0  0  0  0  0  0  0  0  0  0  0
   18.1025  -12.3192  -19.9681 O   0  0  0  0  0  0  0  0  0  0  0  0
   19.3041  -10.8204  -16.2252 C   0  0  0  0  0  0  0  0  0  0  0  0
   18.6491  -10.5523  -15.1986 O   0  0  0  0  0  0  0  0  0  0  0  0
   16.3869  -10.8054  -20.1715 O   0  0  0  0  0  0  0  0  0  0  0  0
   22.5246  -11.7992  -14.4304 C   0  0  0  0  0  0  0  0  0  0  0  0
   22.7290  -10.3678  -14.9188 C   0  0  2  0  0  0  0  0  0  0  0  0
   23.4923   -9.6260  -13.8566 C   0  0  0  0  0  0  0  0  0  0  0  0
   21.4031   -9.7372  -15.2787 C   0  0  2  0  0  0  0  0  0  0  0  0
   20.6633  -10.4092  -16.2966 N   0  0  0  0  0  0  0  0  0  0  0  0
   21.4847   -8.2628  -15.4190 C   0  0  0  0  0  0  0  0  0  0  0  0
   22.0405   -7.7630  -16.4552 O   0  0  0  0  0  0  0  0  0  0  0  0
   19.6700   -3.8920  -14.8381 O   0  0  0  0  0  0  0  0  0  0  0  0
   19.6730   -5.2584  -14.7006 C   0  0  0  0  0  0  0  0  0  0  0  0
   21.0561   -5.8769  -14.7080 C   0  0  2  0  0  0  0  0  0  0  0  0
   20.9972   -7.3134  -14.4920 N   0  0  0  0  0  0  0  0  0  0  0  0
   22.0056   -5.1963  -13.8259 C   0  0  0  0  0  0  0  0  0  0  0  0
   22.1765   -5.5784  -12.6538 O   0  0  0  0  0  0  0  0  0  0  0  0
   22.7209   -4.1176  -14.2976 O   0  0  0  0  0  0  0  0  0  0  0  0
  2  1  1  1
  2  6  1  0
  2  3  1  0
  3  4  1  0
  4  5  2  0
  4  8  1  0
  6  7  2  0
  6 13  1  0
 10  9  1  1
 10 12  1  0
 11 10  1  0
 12 14  1  0
 12 13  1  6
 14 15  2  0
 14 19  1  0
 16 17  1  0
 18 20  1  0
 18 17  1  1
 19 18  1  0
 20 22  1  0
 21 20  2  0
M  END
$$$$
