DVS.pdb
     RDKit          3D

 22 21  0  0  1  0  0  0  0  0999 V2000
   17.4792  -12.0230  -16.8795 N   0  0  0  0  0  0  0  0  0  0  0  0
   18.2103  -10.8818  -17.3597 C   0  0  1  0  0  0  0  0  0  0  0  0
   17.2233   -9.8815  -17.9484 C   0  0  0  0  0  0  0  0  0  0  0  0
   16.5512  -10.4389  -19.1491 C   0  0  0  0  0  0  0  0  0  0  0  0
   15.3131  -10.2623  -19.3499 O   0  0  0  0  0  0  0  0  0  0  0  0
   18.9854  -10.2617  -16.2504 C   0  0  0  0  0  0  0  0  0  0  0  0
   18.4127  -10.0126  -15.1712 O   0  0  0  0  0  0  0  0  0  0  0  0
   17.3061  -11.1613  -20.0545 O   0  0  0  0  0  0  0  0  0  0  0  0
   22.4733  -11.3168  -14.8100 C   0  0  0  0  0  0  0  0  0  0  0  0
   22.5615   -9.8519  -15.2289 C   0  0  2  0  0  0  0  0  0  0  0  0
   23.3902   -9.1310  -14.2019 C   0  0  0  0  0  0  0  0  0  0  0  0
   21.1786   -9.2727  -15.4217 C   0  0  2  0  0  0  0  0  0  0  0  0
   20.3644   -9.9422  -16.3830 N   0  0  0  0  0  0  0  0  0  0  0  0
   21.1803   -7.7920  -15.5096 C   0  0  0  0  0  0  0  0  0  0  0  0
   21.7203   -7.2261  -16.5199 O   0  0  0  0  0  0  0  0  0  0  0  0
   19.4205   -3.4330  -14.2813 O   0  0  0  0  0  0  0  0  0  0  0  0
   19.3983   -4.8056  -14.2426 C   0  0  0  0  0  0  0  0  0  0  0  0
   20.6956   -5.4568  -14.6769 C   0  0  2  0  0  0  0  0  0  0  0  0
   20.6299   -6.9042  -14.5571 N   0  0  0  0  0  0  0  0  0  0  0  0
   21.8814   -4.8758  -14.0453 C   0  0  0  0  0  0  0  0  0  0  0  0
   22.3861   -5.3951  -13.0331 O   0  0  0  0  0  0  0  0  0  0  0  0
   22.4484   -3.7385  -14.5770 O   0  0  0  0  0  0  0  0  0  0  0  0
  2  1  1  1
  2  6  1  0
  2  3  1  0
  3  4  1  0
  4  5  2  0
  4  8  1  0
  6  7  2  0
  6 13  1  0
 10  9  1  1
 10 12  1  0
 11 10  1  0
 12 14  1  0
 12 13  1  6
 14 15  2  0
 14 19  1  0
 16 17  1  0
 18 20  1  0
 18 17  1  1
 19 18  1  0
 20 22  1  0
 21 20  2  0
M  END
$$$$
