DVS.pdb
     RDKit          3D

 22 21  0  0  1  0  0  0  0  0999 V2000
   20.1563  -19.1595  -13.4313 N   0  0  0  0  0  0  0  0  0  0  0  0
   20.9082  -20.3678  -13.2257 C   0  0  1  0  0  0  0  0  0  0  0  0
   20.5817  -21.3439  -14.3491 C   0  0  0  0  0  0  0  0  0  0  0  0
   19.1808  -21.8245  -14.2476 C   0  0  0  0  0  0  0  0  0  0  0  0
   18.2526  -21.2899  -14.9237 O   0  0  0  0  0  0  0  0  0  0  0  0
   22.3663  -20.0696  -13.1984 C   0  0  0  0  0  0  0  0  0  0  0  0
   22.7909  -19.0489  -13.7753 O   0  0  0  0  0  0  0  0  0  0  0  0
   18.9021  -22.8763  -13.3946 O   0  0  0  0  0  0  0  0  0  0  0  0
   24.6186  -20.7619   -9.9178 C   0  0  0  0  0  0  0  0  0  0  0  0
   25.3351  -21.2762  -11.1633 C   0  0  2  0  0  0  0  0  0  0  0  0
   26.7966  -20.9543  -11.0166 C   0  0  0  0  0  0  0  0  0  0  0  0
   24.7010  -20.7065  -12.4117 C   0  0  2  0  0  0  0  0  0  0  0  0
   23.2950  -20.9157  -12.5327 N   0  0  0  0  0  0  0  0  0  0  0  0
   25.4928  -20.9775  -13.6363 C   0  0  0  0  0  0  0  0  0  0  0  0
   25.4685  -22.1468  -14.1506 O   0  0  0  0  0  0  0  0  0  0  0  0
   28.5059  -19.3912  -17.2045 O   0  0  0  0  0  0  0  0  0  0  0  0
   27.7051  -19.1345  -16.1188 C   0  0  0  0  0  0  0  0  0  0  0  0
   27.0616  -20.3688  -15.5203 C   0  0  2  0  0  0  0  0  0  0  0  0
   26.3058  -20.0457  -14.3211 N   0  0  0  0  0  0  0  0  0  0  0  0
   27.9932  -21.4828  -15.3363 C   0  0  0  0  0  0  0  0  0  0  0  0
   28.5530  -21.6740  -14.2413 O   0  0  0  0  0  0  0  0  0  0  0  0
   28.2552  -22.3326  -16.3884 O   0  0  0  0  0  0  0  0  0  0  0  0
  2  1  1  6
  2  6  1  0
  2  3  1  0
  3  4  1  0
  4  5  2  0
  4  8  1  0
  6  7  2  0
  6 13  1  0
 10  9  1  1
 10 12  1  0
 11 10  1  0
 12 14  1  0
 12 13  1  6
 14 15  2  0
 14 19  1  0
 16 17  1  0
 18 20  1  0
 18 17  1  1
 19 18  1  0
 20 22  1  0
 21 20  2  0
M  END
$$$$
