DVS.pdb
     RDKit          3D

 22 21  0  0  1  0  0  0  0  0999 V2000
   18.7965  -13.1074  -16.7297 N   0  0  0  0  0  0  0  0  0  0  0  0
   19.2372  -11.8602  -17.2934 C   0  0  1  0  0  0  0  0  0  0  0  0
   18.0136  -11.0458  -17.6947 C   0  0  0  0  0  0  0  0  0  0  0  0
   17.2145  -11.7562  -18.7247 C   0  0  0  0  0  0  0  0  0  0  0  0
   17.7512  -12.1953  -19.7846 O   0  0  0  0  0  0  0  0  0  0  0  0
   20.0638  -11.1119  -16.3073 C   0  0  0  0  0  0  0  0  0  0  0  0
   19.6005  -10.8824  -15.1726 O   0  0  0  0  0  0  0  0  0  0  0  0
   15.8608  -11.9330  -18.5064 O   0  0  0  0  0  0  0  0  0  0  0  0
   23.7767  -11.7299  -15.1834 C   0  0  0  0  0  0  0  0  0  0  0  0
   23.6667  -10.3110  -15.7346 C   0  0  2  0  0  0  0  0  0  0  0  0
   24.5522   -9.4261  -14.9015 C   0  0  0  0  0  0  0  0  0  0  0  0
   22.2212   -9.8708  -15.7777 C   0  0  2  0  0  0  0  0  0  0  0  0
   21.3709  -10.6477  -16.6196 N   0  0  0  0  0  0  0  0  0  0  0  0
   22.0692   -8.4005  -15.9021 C   0  0  0  0  0  0  0  0  0  0  0  0
   22.3911   -7.8291  -16.9986 O   0  0  0  0  0  0  0  0  0  0  0  0
   19.2042   -5.8921  -14.2514 O   0  0  0  0  0  0  0  0  0  0  0  0
   20.0416   -5.6725  -15.3175 C   0  0  0  0  0  0  0  0  0  0  0  0
   21.4773   -6.0896  -15.0713 C   0  0  2  0  0  0  0  0  0  0  0  0
   21.5905   -7.5286  -14.8978 N   0  0  0  0  0  0  0  0  0  0  0  0
   22.1348   -5.3240  -14.0109 C   0  0  0  0  0  0  0  0  0  0  0  0
   22.2764   -4.0912  -14.1060 O   0  0  0  0  0  0  0  0  0  0  0  0
   22.6038   -5.9752  -12.8912 O   0  0  0  0  0  0  0  0  0  0  0  0
  2  1  1  1
  2  6  1  0
  2  3  1  0
  3  4  1  0
  4  5  2  0
  4  8  1  0
  6  7  2  0
  6 13  1  0
 10  9  1  1
 10 12  1  0
 11 10  1  0
 12 14  1  0
 12 13  1  6
 14 15  2  0
 14 19  1  0
 16 17  1  0
 18 20  1  0
 18 17  1  1
 19 18  1  0
 20 22  1  0
 21 20  2  0
M  END
$$$$
