DVS.pdb
     RDKit          3D

 22 21  0  0  1  0  0  0  0  0999 V2000
   15.8740  -10.5869  -12.7345 N   0  0  0  0  0  0  0  0  0  0  0  0
   16.6308  -10.1229  -13.8656 C   0  0  1  0  0  0  0  0  0  0  0  0
   15.7707   -9.1510  -14.6637 C   0  0  0  0  0  0  0  0  0  0  0  0
   14.6070   -9.8440  -15.2717 C   0  0  0  0  0  0  0  0  0  0  0  0
   14.7554  -10.6604  -16.2287 O   0  0  0  0  0  0  0  0  0  0  0  0
   17.8843   -9.4612  -13.4112 C   0  0  0  0  0  0  0  0  0  0  0  0
   17.8596   -8.7420  -12.3928 O   0  0  0  0  0  0  0  0  0  0  0  0
   13.3451   -9.5818  -14.7712 O   0  0  0  0  0  0  0  0  0  0  0  0
   22.8362   -8.9857  -13.6721 C   0  0  0  0  0  0  0  0  0  0  0  0
   21.5942   -9.7640  -14.0973 C   0  0  2  0  0  0  0  0  0  0  0  0
   21.7677  -10.1506  -15.5400 C   0  0  0  0  0  0  0  0  0  0  0  0
   20.3450   -8.9589  -13.8211 C   0  0  2  0  0  0  0  0  0  0  0  0
   19.1148   -9.6234  -14.1047 N   0  0  0  0  0  0  0  0  0  0  0  0
   20.4403   -7.5608  -14.3073 C   0  0  0  0  0  0  0  0  0  0  0  0
   20.2933   -7.3208  -15.5536 O   0  0  0  0  0  0  0  0  0  0  0  0
   19.8271   -2.8888  -14.1192 O   0  0  0  0  0  0  0  0  0  0  0  0
   19.6997   -4.1813  -13.6733 C   0  0  0  0  0  0  0  0  0  0  0  0
   20.8573   -5.0824  -14.0522 C   0  0  2  0  0  0  0  0  0  0  0  0
   20.6890   -6.4207  -13.5095 N   0  0  0  0  0  0  0  0  0  0  0  0
   22.1695   -4.5007  -13.7644 C   0  0  0  0  0  0  0  0  0  0  0  0
   22.8495   -4.9014  -12.8022 O   0  0  0  0  0  0  0  0  0  0  0  0
   22.6603   -3.4958  -14.5687 O   0  0  0  0  0  0  0  0  0  0  0  0
  2  1  1  1
  2  6  1  0
  2  3  1  0
  3  4  1  0
  4  5  2  0
  4  8  1  0
  6  7  2  0
  6 13  1  0
 10  9  1  6
 10 12  1  0
 11 10  1  0
 12 14  1  0
 12 13  1  6
 14 15  2  0
 14 19  1  0
 16 17  1  0
 18 20  1  0
 18 17  1  1
 19 18  1  0
 20 22  1  0
 21 20  2  0
M  END
$$$$
