DVS.pdb
     RDKit          3D

 22 21  0  0  1  0  0  0  0  0999 V2000
   23.0436  -32.8964  -10.6262 N   0  0  0  0  0  0  0  0  0  0  0  0
   23.4157  -34.2837  -10.6937 C   0  0  1  0  0  0  0  0  0  0  0  0
   24.2679  -34.5011  -11.9379 C   0  0  0  0  0  0  0  0  0  0  0  0
   23.4217  -34.8256  -13.1138 C   0  0  0  0  0  0  0  0  0  0  0  0
   22.1577  -34.8269  -13.0329 O   0  0  0  0  0  0  0  0  0  0  0  0
   24.1662  -34.6766   -9.4698 C   0  0  0  0  0  0  0  0  0  0  0  0
   24.6225  -35.8335   -9.3794 O   0  0  0  0  0  0  0  0  0  0  0  0
   24.0418  -35.1293  -14.3117 O   0  0  0  0  0  0  0  0  0  0  0  0
   25.6982  -31.6435   -6.6892 C   0  0  0  0  0  0  0  0  0  0  0  0
   26.2579  -33.0403   -6.9433 C   0  0  2  0  0  0  0  0  0  0  0  0
   27.2606  -32.9359   -8.0591 C   0  0  0  0  0  0  0  0  0  0  0  0
   25.1372  -34.0186   -7.2116 C   0  0  2  0  0  0  0  0  0  0  0  0
   24.3801  -33.7707   -8.3951 N   0  0  0  0  0  0  0  0  0  0  0  0
   24.3407  -34.3300   -5.9997 C   0  0  0  0  0  0  0  0  0  0  0  0
   23.3081  -33.6266   -5.7323 O   0  0  0  0  0  0  0  0  0  0  0  0
   23.3673  -37.2299   -2.1497 O   0  0  0  0  0  0  0  0  0  0  0  0
   24.1492  -36.9215   -3.2357 C   0  0  0  0  0  0  0  0  0  0  0  0
   23.8321  -35.5797   -3.8641 C   0  0  2  0  0  0  0  0  0  0  0  0
   24.6131  -35.3599   -5.0705 N   0  0  0  0  0  0  0  0  0  0  0  0
   23.8958  -34.4626   -2.9203 C   0  0  0  0  0  0  0  0  0  0  0  0
   24.9252  -33.7706   -2.8170 O   0  0  0  0  0  0  0  0  0  0  0  0
   22.8024  -34.1713   -2.1345 O   0  0  0  0  0  0  0  0  0  0  0  0
  2  1  1  1
  2  6  1  0
  2  3  1  0
  3  4  1  0
  4  5  2  0
  4  8  1  0
  6  7  2  0
  6 13  1  0
 10  9  1  6
 10 12  1  0
 11 10  1  0
 12 14  1  0
 12 13  1  6
 14 15  2  0
 14 19  1  0
 16 17  1  0
 18 20  1  0
 18 17  1  1
 19 18  1  0
 20 22  1  0
 21 20  2  0
M  END
$$$$
