DVS.pdb
     RDKit          3D

 22 21  0  0  1  0  0  0  0  0999 V2000
   17.5262  -11.8863  -17.2970 N   0  0  0  0  0  0  0  0  0  0  0  0
   18.1353  -11.2514  -16.1597 C   0  0  1  0  0  0  0  0  0  0  0  0
   19.4149  -12.0002  -15.8090 C   0  0  0  0  0  0  0  0  0  0  0  0
   19.1230  -13.4041  -15.4244 C   0  0  0  0  0  0  0  0  0  0  0  0
   19.6962  -14.3755  -16.0007 O   0  0  0  0  0  0  0  0  0  0  0  0
   18.4300   -9.8240  -16.4622 C   0  0  0  0  0  0  0  0  0  0  0  0
   18.8273   -9.5117  -17.6022 O   0  0  0  0  0  0  0  0  0  0  0  0
   18.2060  -13.6371  -14.4163 O   0  0  0  0  0  0  0  0  0  0  0  0
   16.2885   -6.6733  -16.3958 C   0  0  0  0  0  0  0  0  0  0  0  0
   17.4035   -6.4770  -15.3724 C   0  0  2  0  0  0  0  0  0  0  0  0
   17.7801   -5.0212  -15.3789 C   0  0  0  0  0  0  0  0  0  0  0  0
   18.5557   -7.4127  -15.6593 C   0  0  2  0  0  0  0  0  0  0  0  0
   18.2727   -8.8005  -15.4881 N   0  0  0  0  0  0  0  0  0  0  0  0
   19.8366   -6.9471  -15.0740 C   0  0  0  0  0  0  0  0  0  0  0  0
   19.9682   -6.9140  -13.8035 O   0  0  0  0  0  0  0  0  0  0  0  0
   24.4193   -5.2185  -15.6638 O   0  0  0  0  0  0  0  0  0  0  0  0
   23.2395   -5.6716  -16.2010 C   0  0  0  0  0  0  0  0  0  0  0  0
   22.1972   -6.0528  -15.1694 C   0  0  2  0  0  0  0  0  0  0  0  0
   20.9712   -6.5161  -15.7987 N   0  0  0  0  0  0  0  0  0  0  0  0
   21.9745   -5.0215  -14.1547 C   0  0  0  0  0  0  0  0  0  0  0  0
   22.4557   -5.1338  -13.0125 O   0  0  0  0  0  0  0  0  0  0  0  0
   21.2222   -3.9104  -14.4664 O   0  0  0  0  0  0  0  0  0  0  0  0
  2  1  1  6
  2  6  1  0
  2  3  1  0
  3  4  1  0
  4  5  2  0
  4  8  1  0
  6  7  2  0
  6 13  1  0
 10  9  1  6
 10 12  1  0
 11 10  1  0
 12 14  1  0
 12 13  1  1
 14 15  2  0
 14 19  1  0
 16 17  1  0
 18 20  1  0
 18 17  1  6
 19 18  1  0
 20 22  1  0
 21 20  2  0
M  END
$$$$
