DVS.pdb
     RDKit          3D

 22 21  0  0  1  0  0  0  0  0999 V2000
   13.8888  -11.6590  -12.1690 N   0  0  0  0  0  0  0  0  0  0  0  0
   15.1141  -10.9164  -12.0479 C   0  0  1  0  0  0  0  0  0  0  0  0
   15.8212  -10.9168  -13.3974 C   0  0  0  0  0  0  0  0  0  0  0  0
   16.2879  -12.2801  -13.7547 C   0  0  0  0  0  0  0  0  0  0  0  0
   15.6244  -13.0153  -14.5443 O   0  0  0  0  0  0  0  0  0  0  0  0
   14.8316   -9.5236  -11.6051 C   0  0  0  0  0  0  0  0  0  0  0  0
   13.9662   -8.8565  -12.2057 O   0  0  0  0  0  0  0  0  0  0  0  0
   17.4711  -12.7394  -13.2063 O   0  0  0  0  0  0  0  0  0  0  0  0
   14.1961   -8.2814   -7.8652 C   0  0  0  0  0  0  0  0  0  0  0  0
   15.3516   -7.5021   -8.4871 C   0  0  2  0  0  0  0  0  0  0  0  0
   15.2794   -6.0899   -7.9756 C   0  0  0  0  0  0  0  0  0  0  0  0
   15.3150   -7.6141   -9.9941 C   0  0  2  0  0  0  0  0  0  0  0  0
   15.5208   -8.9265  -10.5142 N   0  0  0  0  0  0  0  0  0  0  0  0
   16.0737   -6.5345  -10.6716 C   0  0  0  0  0  0  0  0  0  0  0  0
   17.3492   -6.5256  -10.5981 O   0  0  0  0  0  0  0  0  0  0  0  0
   16.8393   -3.5707  -14.2849 O   0  0  0  0  0  0  0  0  0  0  0  0
   16.1504   -4.5384  -13.5957 C   0  0  0  0  0  0  0  0  0  0  0  0
   16.3121   -4.4587  -12.0913 C   0  0  2  0  0  0  0  0  0  0  0  0
   15.5156   -5.4708  -11.4168 N   0  0  0  0  0  0  0  0  0  0  0  0
   16.1153   -3.1118  -11.5528 C   0  0  0  0  0  0  0  0  0  0  0  0
   15.0546   -2.8004  -10.9811 O   0  0  0  0  0  0  0  0  0  0  0  0
   17.1169   -2.1745  -11.6794 O   0  0  0  0  0  0  0  0  0  0  0  0
  2  1  1  6
  2  6  1  0
  2  3  1  0
  3  4  1  0
  4  5  2  0
  4  8  1  0
  6  7  2  0
  6 13  1  0
 10  9  1  1
 10 12  1  0
 11 10  1  0
 12 14  1  0
 12 13  1  1
 14 15  2  0
 14 19  1  0
 16 17  1  0
 18 20  1  0
 18 17  1  6
 19 18  1  0
 20 22  1  0
 21 20  2  0
M  END
$$$$
