DVS.pdb
     RDKit          3D

 22 21  0  0  1  0  0  0  0  0999 V2000
   24.1108  -16.4097  -15.7200 N   0  0  0  0  0  0  0  0  0  0  0  0
   23.8680  -15.2890  -16.5876 C   0  0  1  0  0  0  0  0  0  0  0  0
   22.4351  -15.3683  -17.0992 C   0  0  0  0  0  0  0  0  0  0  0  0
   22.1828  -16.6632  -17.7802 C   0  0  0  0  0  0  0  0  0  0  0  0
   23.0751  -17.2177  -18.4877 O   0  0  0  0  0  0  0  0  0  0  0  0
   24.0930  -14.0122  -15.8562 C   0  0  0  0  0  0  0  0  0  0  0  0
   23.6305  -13.8787  -14.7060 O   0  0  0  0  0  0  0  0  0  0  0  0
   20.9453  -17.2608  -17.6281 O   0  0  0  0  0  0  0  0  0  0  0  0
   27.3961  -12.2441  -15.0768 C   0  0  0  0  0  0  0  0  0  0  0  0
   26.5347  -11.2381  -15.8351 C   0  0  2  0  0  0  0  0  0  0  0  0
   26.7742   -9.8824  -15.2304 C   0  0  0  0  0  0  0  0  0  0  0  0
   25.0859  -11.6695  -15.8262 C   0  0  2  0  0  0  0  0  0  0  0  0
   24.8215  -12.9346  -16.4302 N   0  0  0  0  0  0  0  0  0  0  0  0
   24.1563  -10.5770  -16.2035 C   0  0  0  0  0  0  0  0  0  0  0  0
   24.0916  -10.2046  -17.4240 O   0  0  0  0  0  0  0  0  0  0  0  0
   20.4101   -9.9725  -15.2237 O   0  0  0  0  0  0  0  0  0  0  0  0
   21.1118   -8.8074  -15.0339 C   0  0  0  0  0  0  0  0  0  0  0  0
   22.4516   -8.7711  -15.7405 C   0  0  2  0  0  0  0  0  0  0  0  0
   23.3026   -9.8737  -15.3233 N   0  0  0  0  0  0  0  0  0  0  0  0
   23.1146   -7.4679  -15.6698 C   0  0  0  0  0  0  0  0  0  0  0  0
   22.5419   -6.4368  -16.0667 O   0  0  0  0  0  0  0  0  0  0  0  0
   24.3902   -7.3795  -15.1572 O   0  0  0  0  0  0  0  0  0  0  0  0
  2  1  1  1
  2  6  1  0
  2  3  1  0
  3  4  1  0
  4  5  2  0
  4  8  1  0
  6  7  2  0
  6 13  1  0
 10  9  1  1
 10 12  1  0
 11 10  1  0
 12 14  1  0
 12 13  1  6
 14 15  2  0
 14 19  1  0
 16 17  1  0
 18 20  1  0
 18 17  1  1
 19 18  1  0
 20 22  1  0
 21 20  2  0
M  END
$$$$
