DVS.pdb
     RDKit          3D

 22 21  0  0  1  0  0  0  0  0999 V2000
   16.3821  -10.4054  -13.4207 N   0  0  0  0  0  0  0  0  0  0  0  0
   17.0274   -9.4593  -12.5511 C   0  0  1  0  0  0  0  0  0  0  0  0
   18.0041   -8.6273  -13.3728 C   0  0  0  0  0  0  0  0  0  0  0  0
   19.1474   -9.4521  -13.8380 C   0  0  0  0  0  0  0  0  0  0  0  0
   18.9880  -10.3726  -14.6933 O   0  0  0  0  0  0  0  0  0  0  0  0
   16.0150   -8.5850  -11.8981 C   0  0  0  0  0  0  0  0  0  0  0  0
   15.1238   -8.0592  -12.5939 O   0  0  0  0  0  0  0  0  0  0  0  0
   20.4026   -9.1968  -13.3175 O   0  0  0  0  0  0  0  0  0  0  0  0
   13.8060   -9.4631   -8.8974 C   0  0  0  0  0  0  0  0  0  0  0  0
   14.5213   -8.1644   -8.5357 C   0  0  2  0  0  0  0  0  0  0  0  0
   13.5432   -7.2930   -7.7973 C   0  0  0  0  0  0  0  0  0  0  0  0
   15.1080   -7.5216   -9.7717 C   0  0  2  0  0  0  0  0  0  0  0  0
   16.0322   -8.3286  -10.4998 N   0  0  0  0  0  0  0  0  0  0  0  0
   15.5284   -6.1169   -9.5474 C   0  0  0  0  0  0  0  0  0  0  0  0
   16.5442   -5.8783   -8.8100 O   0  0  0  0  0  0  0  0  0  0  0  0
   15.5614   -1.4569  -10.9881 O   0  0  0  0  0  0  0  0  0  0  0  0
   15.1084   -2.7482  -11.1038 C   0  0  0  0  0  0  0  0  0  0  0  0
   15.4093   -3.6185   -9.9005 C   0  0  2  0  0  0  0  0  0  0  0  0
   14.8999   -4.9683  -10.0801 N   0  0  0  0  0  0  0  0  0  0  0  0
   15.0128   -3.0135   -8.6278 C   0  0  0  0  0  0  0  0  0  0  0  0
   13.9074   -3.2679   -8.1157 O   0  0  0  0  0  0  0  0  0  0  0  0
   15.8739   -2.1505   -7.9863 O   0  0  0  0  0  0  0  0  0  0  0  0
  2  1  1  6
  2  6  1  0
  2  3  1  0
  3  4  1  0
  4  5  2  0
  4  8  1  0
  6  7  2  0
  6 13  1  0
 10  9  1  6
 10 12  1  0
 11 10  1  0
 12 14  1  0
 12 13  1  1
 14 15  2  0
 14 19  1  0
 16 17  1  0
 18 20  1  0
 18 17  1  6
 19 18  1  0
 20 22  1  0
 21 20  2  0
M  END
$$$$
