DVS.pdb
     RDKit          3D

 22 21  0  0  1  0  0  0  0  0999 V2000
   16.2065  -12.1572  -16.1212 N   0  0  0  0  0  0  0  0  0  0  0  0
   17.4868  -11.7679  -15.5952 C   0  0  1  0  0  0  0  0  0  0  0  0
   18.5639  -12.1376  -16.6075 C   0  0  0  0  0  0  0  0  0  0  0  0
   18.6551  -13.6098  -16.7757 C   0  0  0  0  0  0  0  0  0  0  0  0
   19.4991  -14.1295  -17.5642 O   0  0  0  0  0  0  0  0  0  0  0  0
   17.5079  -10.3055  -15.3187 C   0  0  0  0  0  0  0  0  0  0  0  0
   16.8957   -9.5318  -16.0812 O   0  0  0  0  0  0  0  0  0  0  0  0
   17.7951  -14.4133  -16.0502 O   0  0  0  0  0  0  0  0  0  0  0  0
   18.3501   -8.6219  -11.3703 C   0  0  0  0  0  0  0  0  0  0  0  0
   17.6210   -7.9991  -12.5576 C   0  0  2  0  0  0  0  0  0  0  0  0
   16.1773   -8.4115  -12.4761 C   0  0  0  0  0  0  0  0  0  0  0  0
   18.2985   -8.3807  -13.8539 C   0  0  2  0  0  0  0  0  0  0  0  0
   18.2076   -9.7598  -14.2078 N   0  0  0  0  0  0  0  0  0  0  0  0
   19.6431   -7.7724  -14.0032 C   0  0  0  0  0  0  0  0  0  0  0  0
   20.6639   -8.3925  -13.5495 O   0  0  0  0  0  0  0  0  0  0  0  0
   22.6827   -4.7304  -16.2769 O   0  0  0  0  0  0  0  0  0  0  0  0
   21.4344   -5.2697  -16.0850 C   0  0  0  0  0  0  0  0  0  0  0  0
   21.2730   -6.0003  -14.7674 C   0  0  2  0  0  0  0  0  0  0  0  0
   19.9278   -6.5302  -14.6148 N   0  0  0  0  0  0  0  0  0  0  0  0
   21.7263   -5.2263  -13.6105 C   0  0  0  0  0  0  0  0  0  0  0  0
   20.9354   -4.5082  -12.9720 O   0  0  0  0  0  0  0  0  0  0  0  0
   23.0461   -5.2923  -13.2215 O   0  0  0  0  0  0  0  0  0  0  0  0
  2  1  1  6
  2  6  1  0
  2  3  1  0
  3  4  1  0
  4  5  2  0
  4  8  1  0
  6  7  2  0
  6 13  1  0
 10  9  1  1
 10 12  1  0
 11 10  1  0
 12 14  1  0
 12 13  1  1
 14 15  2  0
 14 19  1  0
 16 17  1  0
 18 20  1  0
 18 17  1  6
 19 18  1  0
 20 22  1  0
 21 20  2  0
M  END
$$$$
