QPP.pdb
     RDKit          3D

 24 25  0  0  1  0  0  0  0  0999 V2000
    7.0858  -19.3349   22.4827 N   0  0  0  0  0  0  0  0  0  0  0  0
    8.2935  -18.5667   22.6227 C   0  0  0  0  0  0  0  0  0  0  0  0
    9.1643  -18.9701   23.4083 O   0  0  0  0  0  0  0  0  0  0  0  0
    8.4487  -17.3354   21.8289 C   0  0  0  0  0  0  0  0  0  0  0  0
    7.3646  -16.3251   21.9957 C   0  0  0  0  0  0  0  0  0  0  0  0
    7.8612  -14.8856   22.0055 C   0  0  2  0  0  0  0  0  0  0  0  0
    8.8322  -14.6938   20.9378 N   0  0  0  0  0  0  0  0  0  0  0  0
    8.4445  -14.5333   23.3227 C   0  0  0  0  0  0  0  0  0  0  0  0
    9.6951  -14.4923   23.4100 O   0  0  0  0  0  0  0  0  0  0  0  0
    7.6763  -14.2453   24.4664 N   0  0  0  0  0  0  0  0  0  0  0  0
    6.2335  -14.2341   24.5217 C   0  0  0  0  0  0  0  0  0  0  0  0
    6.0295  -13.0789   25.5180 C   0  0  0  0  0  0  0  0  0  0  0  0
    6.9662  -13.5861   26.6248 C   0  0  0  0  0  0  0  0  0  0  0  0
    8.1920  -13.9024   25.7855 C   0  0  1  0  0  0  0  0  0  0  0  0
    8.9114  -15.0086   26.4105 C   0  0  0  0  0  0  0  0  0  0  0  0
    8.8857  -16.1916   25.9758 O   0  0  0  0  0  0  0  0  0  0  0  0
    9.6936  -14.7215   27.5912 N   0  0  0  0  0  0  0  0  0  0  0  0
    9.6953  -13.4781   28.3239 C   0  0  0  0  0  0  0  0  0  0  0  0
   11.0777  -13.4279   28.9787 C   0  0  0  0  0  0  0  0  0  0  0  0
   11.3450  -14.8799   29.2834 C   0  0  0  0  0  0  0  0  0  0  0  0
   10.6049  -15.6202   28.2330 C   0  0  1  0  0  0  0  0  0  0  0  0
    9.9103  -16.8330   28.7641 C   0  0  0  0  0  0  0  0  0  0  0  0
   10.5675  -17.9812   29.0927 O   0  0  0  0  0  0  0  0  0  0  0  0
    8.6649  -16.7654   28.9048 O   0  0  0  0  0  0  0  0  0  0  0  0
  2  3  2  0
  2  1  1  0
  4  2  1  0
  5  4  1  0
  6  5  1  0
  6  7  1  6
  8  6  1  0
  9  8  2  0
 10  8  1  0
 10 14  1  0
 11 10  1  0
 12 13  1  0
 12 11  1  0
 13 14  1  0
 14 15  1  1
 15 16  2  0
 15 17  1  0
 17 21  1  0
 18 17  1  0
 18 19  1  0
 19 20  1  0
 21 20  1  0
 22 23  1  0
 21 22  1  1
 24 22  2  0
M  END
$$$$
