QPP.pdb
     RDKit          3D

 24 25  0  0  1  0  0  0  0  0999 V2000
   13.3886  -19.8684   23.4526 N   0  0  0  0  0  0  0  0  0  0  0  0
   12.5533  -19.3628   22.3965 C   0  0  0  0  0  0  0  0  0  0  0  0
   12.7256  -19.7949   21.2468 O   0  0  0  0  0  0  0  0  0  0  0  0
   11.5283  -18.3558   22.7214 C   0  0  0  0  0  0  0  0  0  0  0  0
   10.5564  -18.0563   21.6308 C   0  0  0  0  0  0  0  0  0  0  0  0
   10.6880  -16.6515   21.0580 C   0  0  2  0  0  0  0  0  0  0  0  0
   12.0934  -16.3388   20.8423 N   0  0  0  0  0  0  0  0  0  0  0  0
   10.0530  -15.6516   21.9505 C   0  0  0  0  0  0  0  0  0  0  0  0
   10.7945  -15.0426   22.7582 O   0  0  0  0  0  0  0  0  0  0  0  0
    8.6773  -15.3540   21.9376 N   0  0  0  0  0  0  0  0  0  0  0  0
    7.7061  -15.9339   21.0403 C   0  0  0  0  0  0  0  0  0  0  0  0
    6.7878  -14.7148   20.8424 C   0  0  0  0  0  0  0  0  0  0  0  0
    6.5549  -14.3826   22.3240 C   0  0  0  0  0  0  0  0  0  0  0  0
    7.9928  -14.4109   22.8126 C   0  0  1  0  0  0  0  0  0  0  0  0
    8.0015  -14.8354   24.2096 C   0  0  0  0  0  0  0  0  0  0  0  0
    8.4073  -15.9658   24.5926 O   0  0  0  0  0  0  0  0  0  0  0  0
    7.5173  -13.9013   25.2002 N   0  0  0  0  0  0  0  0  0  0  0  0
    6.9409  -12.6057   24.9317 C   0  0  0  0  0  0  0  0  0  0  0  0
    7.2336  -11.7933   26.1954 C   0  0  0  0  0  0  0  0  0  0  0  0
    7.1318  -12.8345   27.2809 C   0  0  0  0  0  0  0  0  0  0  0  0
    7.5314  -14.0995   26.6182 C   0  0  1  0  0  0  0  0  0  0  0  0
    6.6796  -15.2581   27.0273 C   0  0  0  0  0  0  0  0  0  0  0  0
    6.9237  -16.0020   28.1433 O   0  0  0  0  0  0  0  0  0  0  0  0
    5.7010  -15.5384   26.2930 O   0  0  0  0  0  0  0  0  0  0  0  0
  2  3  2  0
  2  1  1  0
  4  2  1  0
  5  4  1  0
  6  5  1  0
  6  7  1  1
  8  6  1  0
  9  8  2  0
 10  8  1  0
 10 14  1  0
 11 10  1  0
 12 13  1  0
 12 11  1  0
 13 14  1  0
 14 15  1  1
 15 16  2  0
 15 17  1  0
 17 21  1  0
 18 17  1  0
 18 19  1  0
 19 20  1  0
 21 20  1  0
 22 23  1  0
 21 22  1  6
 24 22  2  0
M  END
$$$$
