QPP.pdb
     RDKit          3D

 24 25  0  0  1  0  0  0  0  0999 V2000
    6.1184  -18.7269   23.8534 N   0  0  0  0  0  0  0  0  0  0  0  0
    7.5325  -18.6372   23.6064 C   0  0  0  0  0  0  0  0  0  0  0  0
    8.2840  -19.4502   24.1654 O   0  0  0  0  0  0  0  0  0  0  0  0
    8.0307  -17.5874   22.7010 C   0  0  0  0  0  0  0  0  0  0  0  0
    7.0070  -16.6125   22.2260 C   0  0  0  0  0  0  0  0  0  0  0  0
    7.5410  -15.1978   22.0466 C   0  0  2  0  0  0  0  0  0  0  0  0
    8.4123  -15.1459   20.8814 N   0  0  0  0  0  0  0  0  0  0  0  0
    8.2548  -14.7406   23.2636 C   0  0  0  0  0  0  0  0  0  0  0  0
    9.5082  -14.7150   23.2245 O   0  0  0  0  0  0  0  0  0  0  0  0
    7.6059  -14.3380   24.4459 N   0  0  0  0  0  0  0  0  0  0  0  0
    6.1765  -14.2300   24.6184 C   0  0  0  0  0  0  0  0  0  0  0  0
    6.1281  -13.0085   25.5534 C   0  0  0  0  0  0  0  0  0  0  0  0
    7.1241  -13.5109   26.6095 C   0  0  0  0  0  0  0  0  0  0  0  0
    8.2523  -13.9539   25.6942 C   0  0  1  0  0  0  0  0  0  0  0  0
    8.9551  -15.0666   26.3265 C   0  0  0  0  0  0  0  0  0  0  0  0
    8.9296  -16.2478   25.8869 O   0  0  0  0  0  0  0  0  0  0  0  0
    9.7198  -14.7885   27.5207 N   0  0  0  0  0  0  0  0  0  0  0  0
    9.7634  -13.5290   28.2240 C   0  0  0  0  0  0  0  0  0  0  0  0
   11.1293  -13.5293   28.9143 C   0  0  0  0  0  0  0  0  0  0  0  0
   11.3175  -14.9846   29.2599 C   0  0  0  0  0  0  0  0  0  0  0  0
   10.5694  -15.7140   28.2076 C   0  0  1  0  0  0  0  0  0  0  0  0
    9.8030  -16.8784   28.7481 C   0  0  0  0  0  0  0  0  0  0  0  0
   10.3895  -18.0624   29.0837 O   0  0  0  0  0  0  0  0  0  0  0  0
    8.5643  -16.7341   28.8900 O   0  0  0  0  0  0  0  0  0  0  0  0
  2  3  2  0
  2  1  1  0
  4  2  1  0
  5  4  1  0
  6  5  1  0
  6  7  1  6
  8  6  1  0
  9  8  2  0
 10  8  1  0
 10 14  1  0
 11 10  1  0
 12 13  1  0
 12 11  1  0
 13 14  1  0
 14 15  1  1
 15 16  2  0
 15 17  1  0
 17 21  1  0
 18 17  1  0
 18 19  1  0
 19 20  1  0
 21 20  1  0
 22 23  1  0
 21 22  1  1
 24 22  2  0
M  END
$$$$
