QPP.pdb
     RDKit          3D

 24 25  0  0  1  0  0  0  0  0999 V2000
    6.1951  -18.5595   23.7170 N   0  0  0  0  0  0  0  0  0  0  0  0
    7.5658  -18.2417   23.4192 C   0  0  0  0  0  0  0  0  0  0  0  0
    8.4562  -18.7446   24.1210 O   0  0  0  0  0  0  0  0  0  0  0  0
    7.8572  -17.3353   22.2951 C   0  0  0  0  0  0  0  0  0  0  0  0
    6.8943  -16.2114   22.1125 C   0  0  0  0  0  0  0  0  0  0  0  0
    7.5587  -14.8482   21.9744 C   0  0  2  0  0  0  0  0  0  0  0  0
    8.4813  -14.8633   20.8484 N   0  0  0  0  0  0  0  0  0  0  0  0
    8.2562  -14.4673   23.2266 C   0  0  0  0  0  0  0  0  0  0  0  0
    9.5104  -14.4665   23.2137 O   0  0  0  0  0  0  0  0  0  0  0  0
    7.5912  -14.1104   24.4147 N   0  0  0  0  0  0  0  0  0  0  0  0
    6.1590  -14.0253   24.5764 C   0  0  0  0  0  0  0  0  0  0  0  0
    6.0864  -12.8348   25.5490 C   0  0  0  0  0  0  0  0  0  0  0  0
    7.0786  -13.3582   26.5985 C   0  0  0  0  0  0  0  0  0  0  0  0
    8.2209  -13.7582   25.6808 C   0  0  1  0  0  0  0  0  0  0  0  0
    8.9316  -14.8818   26.2845 C   0  0  0  0  0  0  0  0  0  0  0  0
    8.8952  -16.0563   25.8282 O   0  0  0  0  0  0  0  0  0  0  0  0
    9.7175  -14.6230   27.4692 N   0  0  0  0  0  0  0  0  0  0  0  0
    9.7673  -13.3777   28.1969 C   0  0  0  0  0  0  0  0  0  0  0  0
   11.1463  -13.3834   28.8607 C   0  0  0  0  0  0  0  0  0  0  0  0
   11.3496  -14.8442   29.1731 C   0  0  0  0  0  0  0  0  0  0  0  0
   10.5855  -15.5569   28.1208 C   0  0  1  0  0  0  0  0  0  0  0  0
    9.8365  -16.7367   28.6522 C   0  0  0  0  0  0  0  0  0  0  0  0
   10.4382  -17.9194   28.9642 O   0  0  0  0  0  0  0  0  0  0  0  0
    8.5980  -16.6068   28.8092 O   0  0  0  0  0  0  0  0  0  0  0  0
  2  3  2  0
  2  1  1  0
  4  2  1  0
  5  4  1  0
  6  5  1  0
  6  7  1  6
  8  6  1  0
  9  8  2  0
 10  8  1  0
 10 14  1  0
 11 10  1  0
 12 13  1  0
 12 11  1  0
 13 14  1  0
 14 15  1  1
 15 16  2  0
 15 17  1  0
 17 21  1  0
 18 17  1  0
 18 19  1  0
 19 20  1  0
 21 20  1  0
 22 23  1  0
 21 22  1  1
 24 22  2  0
M  END
$$$$
