QPP.pdb
     RDKit          3D

 24 25  0  0  1  0  0  0  0  0999 V2000
   12.9621  -15.6083   19.7997 N   0  0  0  0  0  0  0  0  0  0  0  0
   12.6774  -14.3410   20.4173 C   0  0  0  0  0  0  0  0  0  0  0  0
   13.5767  -13.7813   21.0624 O   0  0  0  0  0  0  0  0  0  0  0  0
   11.3334  -13.7590   20.2586 C   0  0  0  0  0  0  0  0  0  0  0  0
   10.3908  -14.5456   19.4122 C   0  0  0  0  0  0  0  0  0  0  0  0
    8.9833  -13.9670   19.3578 C   0  0  2  0  0  0  0  0  0  0  0  0
    8.9960  -12.7131   18.6181 N   0  0  0  0  0  0  0  0  0  0  0  0
    8.4352  -13.7725   20.7221 C   0  0  0  0  0  0  0  0  0  0  0  0
    8.7077  -12.6974   21.3078 O   0  0  0  0  0  0  0  0  0  0  0  0
    7.6340  -14.7207   21.3855 N   0  0  0  0  0  0  0  0  0  0  0  0
    7.2528  -16.0085   20.8555 C   0  0  0  0  0  0  0  0  0  0  0  0
    5.8365  -16.1147   21.4483 C   0  0  0  0  0  0  0  0  0  0  0  0
    6.1968  -15.8173   22.9116 C   0  0  0  0  0  0  0  0  0  0  0  0
    7.0438  -14.5728   22.7097 C   0  0  1  0  0  0  0  0  0  0  0  0
    8.0486  -14.5168   23.7676 C   0  0  0  0  0  0  0  0  0  0  0  0
    9.1994  -15.0208   23.6639 O   0  0  0  0  0  0  0  0  0  0  0  0
    7.6954  -13.8441   24.9967 N   0  0  0  0  0  0  0  0  0  0  0  0
    6.4651  -13.1330   25.2493 C   0  0  0  0  0  0  0  0  0  0  0  0
    6.8402  -12.0946   26.3092 C   0  0  0  0  0  0  0  0  0  0  0  0
    7.8712  -12.8269   27.1299 C   0  0  0  0  0  0  0  0  0  0  0  0
    8.5082  -13.7635   26.1727 C   0  0  1  0  0  0  0  0  0  0  0  0
    8.7618  -15.1113   26.7681 C   0  0  0  0  0  0  0  0  0  0  0  0
    9.8454  -15.3867   27.5480 O   0  0  0  0  0  0  0  0  0  0  0  0
    7.9240  -16.0134   26.5240 O   0  0  0  0  0  0  0  0  0  0  0  0
  2  3  2  0
  2  1  1  0
  4  2  1  0
  5  4  1  0
  6  5  1  0
  6  7  1  1
  8  6  1  0
  9  8  2  0
 10  8  1  0
 10 14  1  0
 11 10  1  0
 12 13  1  0
 12 11  1  0
 13 14  1  0
 14 15  1  1
 15 16  2  0
 15 17  1  0
 17 21  1  0
 18 17  1  0
 18 19  1  0
 19 20  1  0
 21 20  1  0
 22 23  1  0
 21 22  1  1
 24 22  2  0
M  END
$$$$
