QPP.pdb
     RDKit          3D

 24 25  0  0  1  0  0  0  0  0999 V2000
   10.5339  -17.8174   27.5976 N   0  0  0  0  0  0  0  0  0  0  0  0
   10.3667  -18.1055   26.1984 C   0  0  0  0  0  0  0  0  0  0  0  0
   11.3781  -18.3155   25.5121 O   0  0  0  0  0  0  0  0  0  0  0  0
    9.0048  -18.1408   25.6378 C   0  0  0  0  0  0  0  0  0  0  0  0
    7.9151  -17.7494   26.5776 C   0  0  0  0  0  0  0  0  0  0  0  0
    6.5575  -17.5795   25.9090 C   0  0  2  0  0  0  0  0  0  0  0  0
    6.0656  -18.8741   25.4603 N   0  0  0  0  0  0  0  0  0  0  0  0
    6.6372  -16.6217   24.7794 C   0  0  0  0  0  0  0  0  0  0  0  0
    6.3085  -17.0381   23.6429 O   0  0  0  0  0  0  0  0  0  0  0  0
    7.0571  -15.2852   24.9155 N   0  0  0  0  0  0  0  0  0  0  0  0
    7.4794  -14.6644   26.1488 C   0  0  0  0  0  0  0  0  0  0  0  0
    6.9233  -13.2477   25.9199 C   0  0  0  0  0  0  0  0  0  0  0  0
    7.5380  -13.0004   24.5341 C   0  0  0  0  0  0  0  0  0  0  0  0
    7.1333  -14.2945   23.8496 C   0  0  1  0  0  0  0  0  0  0  0  0
    8.1422  -14.6263   22.8476 C   0  0  0  0  0  0  0  0  0  0  0  0
    9.0302  -15.5050   23.0163 O   0  0  0  0  0  0  0  0  0  0  0  0
    8.1123  -13.9031   21.5969 N   0  0  0  0  0  0  0  0  0  0  0  0
    7.2328  -12.8051   21.2747 C   0  0  0  0  0  0  0  0  0  0  0  0
    7.1014  -12.8616   19.7509 C   0  0  0  0  0  0  0  0  0  0  0  0
    8.4689  -13.3319   19.3248 C   0  0  0  0  0  0  0  0  0  0  0  0
    8.9470  -14.1558   20.4613 C   0  0  1  0  0  0  0  0  0  0  0  0
   10.3920  -13.9278   20.7702 C   0  0  0  0  0  0  0  0  0  0  0  0
   10.8172  -13.2363   21.8654 O   0  0  0  0  0  0  0  0  0  0  0  0
   11.2323  -14.4048   19.9691 O   0  0  0  0  0  0  0  0  0  0  0  0
  2  3  2  0
  2  1  1  0
  4  2  1  0
  5  4  1  0
  6  5  1  0
  6  7  1  6
  8  6  1  0
  9  8  2  0
 10  8  1  0
 10 14  1  0
 11 10  1  0
 12 13  1  0
 12 11  1  0
 13 14  1  0
 14 15  1  6
 15 16  2  0
 15 17  1  0
 17 21  1  0
 18 17  1  0
 18 19  1  0
 19 20  1  0
 21 20  1  0
 22 23  1  0
 21 22  1  1
 24 22  2  0
M  END
$$$$
