QPP.pdb
     RDKit          3D

 24 25  0  0  1  0  0  0  0  0999 V2000
   12.0086  -20.4794   22.9516 N   0  0  0  0  0  0  0  0  0  0  0  0
   11.0451  -19.7768   23.7557 C   0  0  0  0  0  0  0  0  0  0  0  0
   10.4495  -20.4011   24.6466 O   0  0  0  0  0  0  0  0  0  0  0  0
   10.8055  -18.3476   23.4911 C   0  0  0  0  0  0  0  0  0  0  0  0
   11.6605  -17.7405   22.4309 C   0  0  0  0  0  0  0  0  0  0  0  0
   10.9165  -16.7747   21.5184 C   0  0  2  0  0  0  0  0  0  0  0  0
   11.8489  -16.1718   20.5768 N   0  0  0  0  0  0  0  0  0  0  0  0
   10.2115  -15.7348   22.3064 C   0  0  0  0  0  0  0  0  0  0  0  0
   10.9126  -14.9557   22.9954 O   0  0  0  0  0  0  0  0  0  0  0  0
    8.8128  -15.5784   22.3204 N   0  0  0  0  0  0  0  0  0  0  0  0
    7.8740  -16.3963   21.5894 C   0  0  0  0  0  0  0  0  0  0  0  0
    6.8259  -15.3247   21.2405 C   0  0  0  0  0  0  0  0  0  0  0  0
    6.6166  -14.7649   22.6556 C   0  0  0  0  0  0  0  0  0  0  0  0
    8.0672  -14.5687   23.0609 C   0  0  1  0  0  0  0  0  0  0  0  0
    8.1741  -14.7418   24.5067 C   0  0  0  0  0  0  0  0  0  0  0  0
    8.7520  -15.7209   25.0512 O   0  0  0  0  0  0  0  0  0  0  0  0
    7.5826  -13.7295   25.3515 N   0  0  0  0  0  0  0  0  0  0  0  0
    6.9322  -12.5233   24.8990 C   0  0  0  0  0  0  0  0  0  0  0  0
    7.1107  -11.5405   26.0585 C   0  0  0  0  0  0  0  0  0  0  0  0
    7.0306  -12.4429   27.2635 C   0  0  0  0  0  0  0  0  0  0  0  0
    7.5454  -13.7479   26.7827 C   0  0  1  0  0  0  0  0  0  0  0  0
    6.7566  -14.9058   27.3048 C   0  0  0  0  0  0  0  0  0  0  0  0
    7.0208  -15.5059   28.5000 O   0  0  0  0  0  0  0  0  0  0  0  0
    5.8133  -15.3258   26.5913 O   0  0  0  0  0  0  0  0  0  0  0  0
  2  3  2  0
  2  1  1  0
  4  2  1  0
  5  4  1  0
  6  5  1  0
  6  7  1  6
  8  6  1  0
  9  8  2  0
 10  8  1  0
 10 14  1  0
 11 10  1  0
 12 13  1  0
 12 11  1  0
 13 14  1  0
 14 15  1  1
 15 16  2  0
 15 17  1  0
 17 21  1  0
 18 17  1  0
 18 19  1  0
 19 20  1  0
 21 20  1  0
 22 23  1  0
 21 22  1  6
 24 22  2  0
M  END
$$$$
