QPP.pdb
     RDKit          3D

 24 25  0  0  1  0  0  0  0  0999 V2000
   10.6782  -17.9583   27.1709 N   0  0  0  0  0  0  0  0  0  0  0  0
   10.3716  -18.3248   25.8144 C   0  0  0  0  0  0  0  0  0  0  0  0
   11.3065  -18.6226   25.0557 O   0  0  0  0  0  0  0  0  0  0  0  0
    8.9636  -18.3333   25.3813 C   0  0  0  0  0  0  0  0  0  0  0  0
    7.9924  -17.7470   26.3492 C   0  0  0  0  0  0  0  0  0  0  0  0
    6.5805  -17.6076   25.7960 C   0  0  2  0  0  0  0  0  0  0  0  0
    6.0864  -18.9112   25.3767 N   0  0  0  0  0  0  0  0  0  0  0  0
    6.5426  -16.6396   24.6729 C   0  0  0  0  0  0  0  0  0  0  0  0
    6.0753  -17.0390   23.5797 O   0  0  0  0  0  0  0  0  0  0  0  0
    6.9981  -15.3113   24.7697 N   0  0  0  0  0  0  0  0  0  0  0  0
    7.4695  -14.6765   25.9777 C   0  0  0  0  0  0  0  0  0  0  0  0
    6.9413  -13.2515   25.7350 C   0  0  0  0  0  0  0  0  0  0  0  0
    7.5227  -13.0470   24.3280 C   0  0  0  0  0  0  0  0  0  0  0  0
    7.0681  -14.3443   23.6818 C   0  0  1  0  0  0  0  0  0  0  0  0
    8.0402  -14.7208   22.6595 C   0  0  0  0  0  0  0  0  0  0  0  0
    8.8694  -15.6601   22.7977 O   0  0  0  0  0  0  0  0  0  0  0  0
    8.0435  -13.9702   21.4247 N   0  0  0  0  0  0  0  0  0  0  0  0
    7.1980  -12.8416   21.1176 C   0  0  0  0  0  0  0  0  0  0  0  0
    7.0814  -12.8616   19.5917 C   0  0  0  0  0  0  0  0  0  0  0  0
    8.4399  -13.3603   19.1693 C   0  0  0  0  0  0  0  0  0  0  0  0
    8.8830  -14.2214   20.2923 C   0  0  1  0  0  0  0  0  0  0  0  0
   10.3304  -14.0402   20.6206 C   0  0  0  0  0  0  0  0  0  0  0  0
   11.3308  -14.6669   19.9388 O   0  0  0  0  0  0  0  0  0  0  0  0
   10.6111  -13.2707   21.5716 O   0  0  0  0  0  0  0  0  0  0  0  0
  2  3  2  0
  2  1  1  0
  4  2  1  0
  5  4  1  0
  6  5  1  0
  6  7  1  6
  8  6  1  0
  9  8  2  0
 10  8  1  0
 10 14  1  0
 11 10  1  0
 12 13  1  0
 12 11  1  0
 13 14  1  0
 14 15  1  6
 15 16  2  0
 15 17  1  0
 17 21  1  0
 18 17  1  0
 18 19  1  0
 19 20  1  0
 21 20  1  0
 22 23  1  0
 21 22  1  1
 24 22  2  0
M  END
$$$$
