QPP.pdb
     RDKit          3D

 24 25  0  0  1  0  0  0  0  0999 V2000
    7.0226  -20.4186   23.0379 N   0  0  0  0  0  0  0  0  0  0  0  0
    8.1656  -20.0591   22.2424 C   0  0  0  0  0  0  0  0  0  0  0  0
    8.4235  -20.7366   21.2361 O   0  0  0  0  0  0  0  0  0  0  0  0
    8.9817  -18.9032   22.6524 C   0  0  0  0  0  0  0  0  0  0  0  0
   10.1718  -18.6243   21.7982 C   0  0  0  0  0  0  0  0  0  0  0  0
   10.0604  -17.3396   20.9883 C   0  0  2  0  0  0  0  0  0  0  0  0
   11.3002  -17.1085   20.2610 N   0  0  0  0  0  0  0  0  0  0  0  0
    9.7353  -16.1864   21.8624 C   0  0  0  0  0  0  0  0  0  0  0  0
   10.6560  -15.7244   22.5779 O   0  0  0  0  0  0  0  0  0  0  0  0
    8.4620  -15.5903   21.9291 N   0  0  0  0  0  0  0  0  0  0  0  0
    7.3240  -15.9594   21.1208 C   0  0  0  0  0  0  0  0  0  0  0  0
    6.6852  -14.5713   20.9377 C   0  0  0  0  0  0  0  0  0  0  0  0
    6.6400  -14.1623   22.4177 C   0  0  0  0  0  0  0  0  0  0  0  0
    8.0680  -14.4990   22.8109 C   0  0  1  0  0  0  0  0  0  0  0  0
    8.0847  -14.8832   24.2194 C   0  0  0  0  0  0  0  0  0  0  0  0
    8.3378  -16.0511   24.6209 O   0  0  0  0  0  0  0  0  0  0  0  0
    7.7948  -13.8616   25.1994 N   0  0  0  0  0  0  0  0  0  0  0  0
    7.4771  -12.4826   24.9163 C   0  0  0  0  0  0  0  0  0  0  0  0
    7.9276  -11.7268   26.1686 C   0  0  0  0  0  0  0  0  0  0  0  0
    7.6332  -12.7158   27.2676 C   0  0  0  0  0  0  0  0  0  0  0  0
    7.7782  -14.0419   26.6198 C   0  0  1  0  0  0  0  0  0  0  0  0
    6.7215  -15.0098   27.0463 C   0  0  0  0  0  0  0  0  0  0  0  0
    6.8464  -15.8103   28.1427 O   0  0  0  0  0  0  0  0  0  0  0  0
    5.6815  -15.0692   26.3462 O   0  0  0  0  0  0  0  0  0  0  0  0
  2  3  2  0
  2  1  1  0
  4  2  1  0
  5  4  1  0
  6  5  1  0
  6  7  1  1
  8  6  1  0
  9  8  2  0
 10  8  1  0
 10 14  1  0
 11 10  1  0
 12 13  1  0
 12 11  1  0
 13 14  1  0
 14 15  1  1
 15 16  2  0
 15 17  1  0
 17 21  1  0
 18 17  1  0
 18 19  1  0
 19 20  1  0
 21 20  1  0
 22 23  1  0
 21 22  1  6
 24 22  2  0
M  END
$$$$
