QPP.pdb
     RDKit          3D

 24 25  0  0  1  0  0  0  0  0999 V2000
   10.2700  -20.7547   20.9204 N   0  0  0  0  0  0  0  0  0  0  0  0
   10.3011  -20.3385   22.2968 C   0  0  0  0  0  0  0  0  0  0  0  0
    9.9816  -21.1585   23.1708 O   0  0  0  0  0  0  0  0  0  0  0  0
   10.7112  -18.9595   22.6133 C   0  0  0  0  0  0  0  0  0  0  0  0
   11.1442  -18.1366   21.4474 C   0  0  0  0  0  0  0  0  0  0  0  0
   10.3381  -16.8579   21.2635 C   0  0  2  0  0  0  0  0  0  0  0  0
   10.9348  -16.0483   20.2109 N   0  0  0  0  0  0  0  0  0  0  0  0
   10.2514  -16.0967   22.5334 C   0  0  0  0  0  0  0  0  0  0  0  0
   11.3132  -15.6105   22.9909 O   0  0  0  0  0  0  0  0  0  0  0  0
    9.0530  -15.8935   23.2431 N   0  0  0  0  0  0  0  0  0  0  0  0
    7.7540  -16.3821   22.8449 C   0  0  0  0  0  0  0  0  0  0  0  0
    6.8841  -15.2112   23.3358 C   0  0  0  0  0  0  0  0  0  0  0  0
    7.4145  -15.1427   24.7758 C   0  0  0  0  0  0  0  0  0  0  0  0
    8.9063  -15.1545   24.4905 C   0  0  1  0  0  0  0  0  0  0  0  0
    9.5889  -15.8007   25.6079 C   0  0  0  0  0  0  0  0  0  0  0  0
   10.0379  -16.9778   25.5643 O   0  0  0  0  0  0  0  0  0  0  0  0
    9.7546  -15.0409   26.8258 N   0  0  0  0  0  0  0  0  0  0  0  0
    9.2779  -13.6986   27.0578 C   0  0  0  0  0  0  0  0  0  0  0  0
   10.2355  -13.1346   28.1101 C   0  0  0  0  0  0  0  0  0  0  0  0
   10.5458  -14.3479   28.9494 C   0  0  0  0  0  0  0  0  0  0  0  0
   10.4251  -15.4883   28.0092 C   0  0  1  0  0  0  0  0  0  0  0  0
    9.7446  -16.6702   28.6220 C   0  0  0  0  0  0  0  0  0  0  0  0
    8.4731  -17.0436   28.3021 O   0  0  0  0  0  0  0  0  0  0  0  0
   10.3950  -17.3326   29.4668 O   0  0  0  0  0  0  0  0  0  0  0  0
  2  3  2  0
  2  1  1  0
  4  2  1  0
  5  4  1  0
  6  5  1  0
  6  7  1  6
  8  6  1  0
  9  8  2  0
 10  8  1  0
 10 14  1  0
 11 10  1  0
 12 13  1  0
 12 11  1  0
 13 14  1  0
 14 15  1  1
 15 16  2  0
 15 17  1  0
 17 21  1  0
 18 17  1  0
 18 19  1  0
 19 20  1  0
 21 20  1  0
 22 23  1  0
 21 22  1  1
 24 22  2  0
M  END
$$$$
