QPP.pdb
     RDKit          3D

 24 25  0  0  1  0  0  0  0  0999 V2000
    7.0248  -19.0240   22.7944 N   0  0  0  0  0  0  0  0  0  0  0  0
    8.3772  -18.6366   22.4954 C   0  0  0  0  0  0  0  0  0  0  0  0
    9.2905  -19.4404   22.7362 O   0  0  0  0  0  0  0  0  0  0  0  0
    8.6234  -17.3049   21.9155 C   0  0  0  0  0  0  0  0  0  0  0  0
    7.4385  -16.4011   21.8613 C   0  0  0  0  0  0  0  0  0  0  0  0
    7.7937  -14.9203   21.8574 C   0  0  2  0  0  0  0  0  0  0  0  0
    8.6964  -14.6348   20.7514 N   0  0  0  0  0  0  0  0  0  0  0  0
    8.3948  -14.5143   23.1511 C   0  0  0  0  0  0  0  0  0  0  0  0
    9.6405  -14.3745   23.1923 O   0  0  0  0  0  0  0  0  0  0  0  0
    7.6481  -14.2799   24.3209 N   0  0  0  0  0  0  0  0  0  0  0  0
    6.2086  -14.3378   24.4181 C   0  0  0  0  0  0  0  0  0  0  0  0
    5.9803  -13.2083   25.4382 C   0  0  0  0  0  0  0  0  0  0  0  0
    6.9721  -13.6866   26.5092 C   0  0  0  0  0  0  0  0  0  0  0  0
    8.1860  -13.9322   25.6299 C   0  0  1  0  0  0  0  0  0  0  0  0
    8.9747  -15.0121   26.2161 C   0  0  0  0  0  0  0  0  0  0  0  0
    9.0831  -16.1567   25.6990 O   0  0  0  0  0  0  0  0  0  0  0  0
    9.6659  -14.7443   27.4565 N   0  0  0  0  0  0  0  0  0  0  0  0
    9.5533  -13.5412   28.2458 C   0  0  0  0  0  0  0  0  0  0  0  0
   10.8881  -13.4514   28.9892 C   0  0  0  0  0  0  0  0  0  0  0  0
   11.2168  -14.9009   29.2415 C   0  0  0  0  0  0  0  0  0  0  0  0
   10.5849  -15.6251   28.1121 C   0  0  1  0  0  0  0  0  0  0  0  0
    9.9277  -16.8981   28.5399 C   0  0  0  0  0  0  0  0  0  0  0  0
   10.6278  -18.0147   28.8884 O   0  0  0  0  0  0  0  0  0  0  0  0
    8.6730  -16.9138   28.5713 O   0  0  0  0  0  0  0  0  0  0  0  0
  2  3  2  0
  2  1  1  0
  4  2  1  0
  5  4  1  0
  6  5  1  0
  6  7  1  6
  8  6  1  0
  9  8  2  0
 10  8  1  0
 10 14  1  0
 11 10  1  0
 12 13  1  0
 12 11  1  0
 13 14  1  0
 14 15  1  1
 15 16  2  0
 15 17  1  0
 17 21  1  0
 18 17  1  0
 18 19  1  0
 19 20  1  0
 21 20  1  0
 22 23  1  0
 21 22  1  1
 24 22  2  0
M  END
$$$$
