FYW.pdb
     RDKit          3D

 38 41  0  0  1  0  0  0  0  0999 V2000
    8.0186  -16.9633   19.8130 N   0  0  0  0  0  0  0  0  0  0  0  0
    8.5550  -16.2718   20.9466 C   0  0  1  0  0  0  0  0  0  0  0  0
    7.5215  -15.3724   21.5883 C   0  0  0  0  0  0  0  0  0  0  0  0
    7.5163  -14.1225   20.7884 C   0  0  0  0  0  0  0  0  0  0  0  0
    8.4235  -13.1185   21.0367 C   0  0  0  0  0  0  0  0  0  0  0  0
    8.4323  -11.9378   20.2983 C   0  0  0  0  0  0  0  0  0  0  0  0
    7.5136  -11.7363   19.2761 C   0  0  0  0  0  0  0  0  0  0  0  0
    6.6085  -12.7375   19.0278 C   0  0  0  0  0  0  0  0  0  0  0  0
    6.6118  -13.8969   19.7646 C   0  0  0  0  0  0  0  0  0  0  0  0
    9.2564  -17.1555   21.8860 C   0  0  0  0  0  0  0  0  0  0  0  0
    8.6026  -18.1630   22.3038 O   0  0  0  0  0  0  0  0  0  0  0  0
   12.1372  -21.9969   18.6530 O   0  0  0  0  0  0  0  0  0  0  0  0
   12.2274  -21.0900   19.6863 C   0  0  0  0  0  0  0  0  0  0  0  0
   12.0761  -21.5133   20.9897 C   0  0  0  0  0  0  0  0  0  0  0  0
   12.1639  -20.6166   22.0336 C   0  0  0  0  0  0  0  0  0  0  0  0
   12.4037  -19.2730   21.8326 C   0  0  0  0  0  0  0  0  0  0  0  0
   12.5003  -18.2828   22.9029 C   0  0  0  0  0  0  0  0  0  0  0  0
   11.1775  -17.7539   23.4022 C   0  0  2  0  0  0  0  0  0  0  0  0
   10.5671  -16.9729   22.3448 N   0  0  0  0  0  0  0  0  0  0  0  0
   11.3012  -16.9424   24.6348 C   0  0  0  0  0  0  0  0  0  0  0  0
   12.0372  -15.9200   24.6940 O   0  0  0  0  0  0  0  0  0  0  0  0
   12.5534  -18.8609   20.5246 C   0  0  0  0  0  0  0  0  0  0  0  0
   12.4670  -19.7549   19.4636 C   0  0  0  0  0  0  0  0  0  0  0  0
   10.6015  -17.2568   25.8374 N   0  0  0  0  0  0  0  0  0  0  0  0
   10.8041  -16.5598   27.0839 C   0  0  1  0  0  0  0  0  0  0  0  0
   10.2917  -15.1445   27.0439 C   0  0  0  0  0  0  0  0  0  0  0  0
    8.8917  -15.0899   26.5509 C   0  0  0  0  0  0  0  0  0  0  0  0
    8.1117  -16.1869   26.2554 C   0  0  0  0  0  0  0  0  0  0  0  0
    6.9047  -15.7551   25.8385 N   0  0  0  0  0  0  0  0  0  0  0  0
    6.9028  -14.4191   25.8633 C   0  0  0  0  0  0  0  0  0  0  0  0
    5.9031  -13.5292   25.5270 C   0  0  0  0  0  0  0  0  0  0  0  0
    6.1166  -12.1863   25.6269 C   0  0  0  0  0  0  0  0  0  0  0  0
    7.3591  -11.7392   26.0733 C   0  0  0  0  0  0  0  0  0  0  0  0
    8.3643  -12.6051   26.4118 C   0  0  0  0  0  0  0  0  0  0  0  0
    8.1442  -13.9635   26.3092 C   0  0  0  0  0  0  0  0  0  0  0  0
   10.0910  -17.2457   28.2084 C   0  0  0  0  0  0  0  0  0  0  0  0
    9.3086  -18.2019   27.9628 O   0  0  0  0  0  0  0  0  0  0  0  0
   10.2782  -16.8441   29.5210 O   0  0  0  0  0  0  0  0  0  0  0  0
  2  1  1  6
  2  3  1  0
  3  4  1  0
  4  9  1  0
  4  5  2  0
  5  6  1  0
  6  7  2  0
  8  7  1  0
  9  8  2  0
 10  2  1  0
 11 10  2  0
 12 13  1  0
 13 14  2  0
 14 15  1  0
 16 15  2  0
 16 17  1  0
 18 17  1  6
 18 20  1  0
 18 19  1  0
 19 10  1  0
 20 21  2  0
 22 16  1  0
 23 13  1  0
 23 22  2  0
 24 25  1  0
 24 20  1  0
 25 26  1  6
 26 27  1  0
 27 28  2  0
 28 29  1  0
 30 29  1  0
 31 30  2  0
 32 31  1  0
 33 34  1  0
 33 32  2  0
 34 35  2  0
 35 27  1  0
 35 30  1  0
 36 25  1  0
 36 38  1  0
 37 36  2  0
M  END
$$$$
