FYW.pdb
     RDKit          3D

 38 41  0  0  1  0  0  0  0  0999 V2000
    5.5730  -18.0575   23.5002 N   0  0  0  0  0  0  0  0  0  0  0  0
    6.3877  -16.9405   23.8738 C   0  0  1  0  0  0  0  0  0  0  0  0
    6.5011  -16.8145   25.3771 C   0  0  0  0  0  0  0  0  0  0  0  0
    7.0142  -15.4458   25.6336 C   0  0  0  0  0  0  0  0  0  0  0  0
    6.1689  -14.3603   25.6317 C   0  0  0  0  0  0  0  0  0  0  0  0
    6.6324  -13.0685   25.8679 C   0  0  0  0  0  0  0  0  0  0  0  0
    7.9790  -12.8348   26.1155 C   0  0  0  0  0  0  0  0  0  0  0  0
    8.8227  -13.9172   26.1178 C   0  0  0  0  0  0  0  0  0  0  0  0
    8.3510  -15.1859   25.8831 C   0  0  0  0  0  0  0  0  0  0  0  0
    7.6716  -16.8961   23.1632 C   0  0  0  0  0  0  0  0  0  0  0  0
    8.1583  -18.0174   22.8128 O   0  0  0  0  0  0  0  0  0  0  0  0
    6.4545  -13.6069   16.7151 O   0  0  0  0  0  0  0  0  0  0  0  0
    7.2232  -13.7801   17.8455 C   0  0  0  0  0  0  0  0  0  0  0  0
    7.2122  -12.8244   18.8392 C   0  0  0  0  0  0  0  0  0  0  0  0
    7.9764  -12.9848   19.9757 C   0  0  0  0  0  0  0  0  0  0  0  0
    8.7777  -14.0901   20.1750 C   0  0  0  0  0  0  0  0  0  0  0  0
    9.6091  -14.3043   21.3574 C   0  0  0  0  0  0  0  0  0  0  0  0
    9.5227  -15.6882   21.9542 C   0  0  2  0  0  0  0  0  0  0  0  0
    8.3837  -15.7316   22.8493 N   0  0  0  0  0  0  0  0  0  0  0  0
   10.7545  -16.0932   22.6696 C   0  0  0  0  0  0  0  0  0  0  0  0
   11.8962  -16.0091   22.1403 O   0  0  0  0  0  0  0  0  0  0  0  0
    8.7806  -15.0396   19.1743 C   0  0  0  0  0  0  0  0  0  0  0  0
    8.0148  -14.8896   18.0239 C   0  0  0  0  0  0  0  0  0  0  0  0
   10.7392  -16.6051   24.0008 N   0  0  0  0  0  0  0  0  0  0  0  0
   11.9241  -17.0253   24.7078 C   0  0  1  0  0  0  0  0  0  0  0  0
   12.3581  -16.0293   25.7503 C   0  0  0  0  0  0  0  0  0  0  0  0
   11.5723  -16.1790   27.0018 C   0  0  0  0  0  0  0  0  0  0  0  0
   11.2924  -17.3764   27.6238 C   0  0  0  0  0  0  0  0  0  0  0  0
   10.5620  -17.1251   28.7286 N   0  0  0  0  0  0  0  0  0  0  0  0
   10.3746  -15.8052   28.8195 C   0  0  0  0  0  0  0  0  0  0  0  0
    9.6944  -15.0714   29.7698 C   0  0  0  0  0  0  0  0  0  0  0  0
    9.6248  -13.7135   29.6690 C   0  0  0  0  0  0  0  0  0  0  0  0
   10.2526  -13.0910   28.5913 C   0  0  0  0  0  0  0  0  0  0  0  0
   10.9323  -13.8004   27.6377 C   0  0  0  0  0  0  0  0  0  0  0  0
   11.0003  -15.1746   27.7434 C   0  0  0  0  0  0  0  0  0  0  0  0
   11.6966  -18.3237   25.4194 C   0  0  0  0  0  0  0  0  0  0  0  0
   10.5241  -18.7597   25.5668 O   0  0  0  0  0  0  0  0  0  0  0  0
   12.7597  -19.0571   25.9208 O   0  0  0  0  0  0  0  0  0  0  0  0
  2  1  1  1
  2  3  1  0
  3  4  1  0
  4  9  1  0
  4  5  2  0
  5  6  1  0
  6  7  2  0
  8  7  1  0
  9  8  2  0
 10  2  1  0
 11 10  2  0
 12 13  1  0
 13 14  2  0
 14 15  1  0
 16 15  2  0
 16 17  1  0
 18 17  1  1
 18 20  1  0
 18 19  1  0
 19 10  1  0
 20 21  2  0
 22 16  1  0
 23 13  1  0
 23 22  2  0
 24 25  1  0
 24 20  1  0
 25 26  1  1
 26 27  1  0
 27 28  2  0
 28 29  1  0
 30 29  1  0
 31 30  2  0
 32 31  1  0
 33 34  1  0
 33 32  2  0
 34 35  2  0
 35 27  1  0
 35 30  1  0
 36 25  1  0
 36 38  1  0
 37 36  2  0
M  END
$$$$
