FYW.pdb
     RDKit          3D

 38 41  0  0  1  0  0  0  0  0999 V2000
    5.2715  -20.6061   23.7603 N   0  0  0  0  0  0  0  0  0  0  0  0
    6.1612  -19.7521   24.4885 C   0  0  1  0  0  0  0  0  0  0  0  0
    6.9349  -20.5211   25.5367 C   0  0  0  0  0  0  0  0  0  0  0  0
    7.6417  -19.5015   26.3510 C   0  0  0  0  0  0  0  0  0  0  0  0
    8.6928  -18.7828   25.8300 C   0  0  0  0  0  0  0  0  0  0  0  0
    9.3696  -17.8239   26.5795 C   0  0  0  0  0  0  0  0  0  0  0  0
    8.9986  -17.5613   27.8921 C   0  0  0  0  0  0  0  0  0  0  0  0
    7.9501  -18.2777   28.4123 C   0  0  0  0  0  0  0  0  0  0  0  0
    7.2919  -19.2207   27.6608 C   0  0  0  0  0  0  0  0  0  0  0  0
    6.9910  -18.9059   23.6221 C   0  0  0  0  0  0  0  0  0  0  0  0
    7.8990  -19.5006   22.9596 O   0  0  0  0  0  0  0  0  0  0  0  0
    8.1639  -12.1685   17.9008 O   0  0  0  0  0  0  0  0  0  0  0  0
    7.7904  -12.9765   18.9525 C   0  0  0  0  0  0  0  0  0  0  0  0
    7.2900  -14.2379   18.7084 C   0  0  0  0  0  0  0  0  0  0  0  0
    6.9125  -15.0571   19.7513 C   0  0  0  0  0  0  0  0  0  0  0  0
    7.0138  -14.6652   21.0701 C   0  0  0  0  0  0  0  0  0  0  0  0
    6.6230  -15.4927   22.2093 C   0  0  0  0  0  0  0  0  0  0  0  0
    7.4319  -16.7550   22.3865 C   0  0  2  0  0  0  0  0  0  0  0  0
    6.8567  -17.5195   23.4752 N   0  0  0  0  0  0  0  0  0  0  0  0
    8.8676  -16.4969   22.6419 C   0  0  0  0  0  0  0  0  0  0  0  0
    9.7233  -16.4897   21.7155 O   0  0  0  0  0  0  0  0  0  0  0  0
    7.5158  -13.4015   21.3023 C   0  0  0  0  0  0  0  0  0  0  0  0
    7.8998  -12.5660   20.2598 C   0  0  0  0  0  0  0  0  0  0  0  0
    9.3839  -16.2398   23.9466 N   0  0  0  0  0  0  0  0  0  0  0  0
   10.7441  -15.8324   24.2004 C   0  0  1  0  0  0  0  0  0  0  0  0
   10.8331  -14.4437   24.7756 C   0  0  0  0  0  0  0  0  0  0  0  0
    9.8655  -14.2554   25.8866 C   0  0  0  0  0  0  0  0  0  0  0  0
   10.0214  -14.7448   27.1654 C   0  0  0  0  0  0  0  0  0  0  0  0
    8.9506  -14.3789   27.8980 N   0  0  0  0  0  0  0  0  0  0  0  0
    8.1263  -13.6739   27.1177 C   0  0  0  0  0  0  0  0  0  0  0  0
    6.9109  -13.0910   27.4130 C   0  0  0  0  0  0  0  0  0  0  0  0
    6.2253  -12.4077   26.4528 C   0  0  0  0  0  0  0  0  0  0  0  0
    6.7784  -12.3138   25.1767 C   0  0  0  0  0  0  0  0  0  0  0  0
    7.9826  -12.8848   24.8629 C   0  0  0  0  0  0  0  0  0  0  0  0
    8.6732  -13.5756   25.8376 C   0  0  0  0  0  0  0  0  0  0  0  0
   11.4085  -16.7494   25.1809 C   0  0  0  0  0  0  0  0  0  0  0  0
   10.7126  -17.5504   25.8596 O   0  0  0  0  0  0  0  0  0  0  0  0
   12.7828  -16.7312   25.3550 O   0  0  0  0  0  0  0  0  0  0  0  0
  2  1  1  6
  2  3  1  0
  3  4  1  0
  4  9  1  0
  4  5  2  0
  5  6  1  0
  6  7  2  0
  8  7  1  0
  9  8  2  0
 10  2  1  0
 11 10  2  0
 12 13  1  0
 13 14  2  0
 14 15  1  0
 16 15  2  0
 16 17  1  0
 18 17  1  1
 18 20  1  0
 18 19  1  0
 19 10  1  0
 20 21  2  0
 22 16  1  0
 23 13  1  0
 23 22  2  0
 24 25  1  0
 24 20  1  0
 25 26  1  1
 26 27  1  0
 27 28  2  0
 28 29  1  0
 30 29  1  0
 31 30  2  0
 32 31  1  0
 33 34  1  0
 33 32  2  0
 34 35  2  0
 35 27  1  0
 35 30  1  0
 36 25  1  0
 36 38  1  0
 37 36  2  0
M  END
$$$$
