FYW.pdb
     RDKit          3D

 38 41  0  0  1  0  0  0  0  0999 V2000
    7.1228  -18.2616   20.5734 N   0  0  0  0  0  0  0  0  0  0  0  0
    7.6630  -17.1037   21.2204 C   0  0  1  0  0  0  0  0  0  0  0  0
    6.6082  -16.3726   22.0214 C   0  0  0  0  0  0  0  0  0  0  0  0
    6.9287  -14.9291   21.8952 C   0  0  0  0  0  0  0  0  0  0  0  0
    7.4212  -14.2166   22.9640 C   0  0  0  0  0  0  0  0  0  0  0  0
    7.7253  -12.8612   22.8652 C   0  0  0  0  0  0  0  0  0  0  0  0
    7.5380  -12.1799   21.6693 C   0  0  0  0  0  0  0  0  0  0  0  0
    7.0469  -12.8902   20.6027 C   0  0  0  0  0  0  0  0  0  0  0  0
    6.7513  -14.2270   20.7151 C   0  0  0  0  0  0  0  0  0  0  0  0
    8.9028  -17.3772   21.9576 C   0  0  0  0  0  0  0  0  0  0  0  0
    8.8543  -18.3232   22.8060 O   0  0  0  0  0  0  0  0  0  0  0  0
   17.3826  -16.9407   24.6933 O   0  0  0  0  0  0  0  0  0  0  0  0
   16.1805  -16.7551   24.0460 C   0  0  0  0  0  0  0  0  0  0  0  0
   15.3364  -17.8256   23.8398 C   0  0  0  0  0  0  0  0  0  0  0  0
   14.1305  -17.6542   23.1935 C   0  0  0  0  0  0  0  0  0  0  0  0
   13.7123  -16.4249   22.7277 C   0  0  0  0  0  0  0  0  0  0  0  0
   12.4479  -16.1921   22.0331 C   0  0  0  0  0  0  0  0  0  0  0  0
   11.2329  -16.7815   22.7080 C   0  0  2  0  0  0  0  0  0  0  0  0
   10.1102  -16.6859   21.7964 N   0  0  0  0  0  0  0  0  0  0  0  0
   10.9063  -16.1281   23.9962 C   0  0  0  0  0  0  0  0  0  0  0  0
   11.1924  -14.9219   24.2283 O   0  0  0  0  0  0  0  0  0  0  0  0
   14.5647  -15.3612   22.9397 C   0  0  0  0  0  0  0  0  0  0  0  0
   15.7830  -15.5209   23.5897 C   0  0  0  0  0  0  0  0  0  0  0  0
   10.2490  -16.8116   25.0617 N   0  0  0  0  0  0  0  0  0  0  0  0
   10.6240  -16.6765   26.4479 C   0  0  1  0  0  0  0  0  0  0  0  0
   10.0877  -15.4149   27.0709 C   0  0  0  0  0  0  0  0  0  0  0  0
    8.8274  -14.9815   26.4152 C   0  0  0  0  0  0  0  0  0  0  0  0
    7.8383  -15.8268   25.9612 C   0  0  0  0  0  0  0  0  0  0  0  0
    6.8496  -15.0822   25.4272 N   0  0  0  0  0  0  0  0  0  0  0  0
    7.1878  -13.7938   25.5323 C   0  0  0  0  0  0  0  0  0  0  0  0
    6.5045  -12.6640   25.1311 C   0  0  0  0  0  0  0  0  0  0  0  0
    7.0406  -11.4275   25.3372 C   0  0  0  0  0  0  0  0  0  0  0  0
    8.2853  -11.3344   25.9578 C   0  0  0  0  0  0  0  0  0  0  0  0
    8.9797  -12.4426   26.3633 C   0  0  0  0  0  0  0  0  0  0  0  0
    8.4336  -13.6922   26.1528 C   0  0  0  0  0  0  0  0  0  0  0  0
   10.0987  -17.8179   27.2633 C   0  0  0  0  0  0  0  0  0  0  0  0
   10.2641  -17.8233   28.5121 O   0  0  0  0  0  0  0  0  0  0  0  0
    9.4307  -18.8734   26.6642 O   0  0  0  0  0  0  0  0  0  0  0  0
  2  1  1  1
  2  3  1  0
  3  4  1  0
  4  9  1  0
  4  5  2  0
  5  6  1  0
  6  7  2  0
  8  7  1  0
  9  8  2  0
 10  2  1  0
 11 10  2  0
 12 13  1  0
 13 14  2  0
 14 15  1  0
 16 15  2  0
 16 17  1  0
 18 17  1  6
 18 20  1  0
 18 19  1  0
 19 10  1  0
 20 21  2  0
 22 16  1  0
 23 13  1  0
 23 22  2  0
 24 25  1  0
 24 20  1  0
 25 26  1  1
 26 27  1  0
 27 28  2  0
 28 29  1  0
 30 29  1  0
 31 30  2  0
 32 31  1  0
 33 34  1  0
 33 32  2  0
 34 35  2  0
 35 27  1  0
 35 30  1  0
 36 25  1  0
 36 38  1  0
 37 36  2  0
M  END
$$$$
