FYW.pdb
     RDKit          3D

 38 41  0  0  1  0  0  0  0  0999 V2000
    5.3128  -18.4615   23.8735 N   0  0  0  0  0  0  0  0  0  0  0  0
    6.1256  -17.2939   24.0382 C   0  0  1  0  0  0  0  0  0  0  0  0
    5.9876  -16.7132   25.4283 C   0  0  0  0  0  0  0  0  0  0  0  0
    6.7922  -15.4662   25.4305 C   0  0  0  0  0  0  0  0  0  0  0  0
    6.3973  -14.3669   24.7037 C   0  0  0  0  0  0  0  0  0  0  0  0
    7.1404  -13.1892   24.6916 C   0  0  0  0  0  0  0  0  0  0  0  0
    8.3173  -13.0883   25.4225 C   0  0  0  0  0  0  0  0  0  0  0  0
    8.7116  -14.1844   26.1479 C   0  0  0  0  0  0  0  0  0  0  0  0
    7.9682  -15.3396   26.1501 C   0  0  0  0  0  0  0  0  0  0  0  0
    7.5124  -17.4860   23.5964 C   0  0  0  0  0  0  0  0  0  0  0  0
    8.1563  -18.4262   24.1610 O   0  0  0  0  0  0  0  0  0  0  0  0
    6.7734  -11.7665   19.5158 O   0  0  0  0  0  0  0  0  0  0  0  0
    7.4736  -12.9157   19.8116 C   0  0  0  0  0  0  0  0  0  0  0  0
    6.7955  -14.0862   20.0786 C   0  0  0  0  0  0  0  0  0  0  0  0
    7.4835  -15.2436   20.3761 C   0  0  0  0  0  0  0  0  0  0  0  0
    8.8615  -15.2908   20.4212 C   0  0  0  0  0  0  0  0  0  0  0  0
    9.6363  -16.4891   20.7361 C   0  0  0  0  0  0  0  0  0  0  0  0
    9.5183  -16.9665   22.1634 C   0  0  2  0  0  0  0  0  0  0  0  0
    8.1634  -16.7247   22.6176 N   0  0  0  0  0  0  0  0  0  0  0  0
   10.4895  -16.3216   23.0766 C   0  0  0  0  0  0  0  0  0  0  0  0
   10.5095  -15.0744   23.2628 O   0  0  0  0  0  0  0  0  0  0  0  0
    9.5292  -14.1140   20.1523 C   0  0  0  0  0  0  0  0  0  0  0  0
    8.8473  -12.9407   19.8512 C   0  0  0  0  0  0  0  0  0  0  0  0
   11.4673  -17.0598   23.8072 N   0  0  0  0  0  0  0  0  0  0  0  0
   12.4807  -16.4455   24.6294 C   0  0  1  0  0  0  0  0  0  0  0  0
   12.4611  -16.9542   26.0465 C   0  0  0  0  0  0  0  0  0  0  0  0
   11.1734  -16.6395   26.7163 C   0  0  0  0  0  0  0  0  0  0  0  0
   10.1117  -17.5090   26.8421 C   0  0  0  0  0  0  0  0  0  0  0  0
    9.1196  -16.8815   27.5047 N   0  0  0  0  0  0  0  0  0  0  0  0
    9.5263  -15.6431   27.7993 C   0  0  0  0  0  0  0  0  0  0  0  0
    8.8666  -14.6298   28.4642 C   0  0  0  0  0  0  0  0  0  0  0  0
    9.4753  -13.4254   28.6583 C   0  0  0  0  0  0  0  0  0  0  0  0
   10.7693  -13.2453   28.1724 C   0  0  0  0  0  0  0  0  0  0  0  0
   11.4414  -14.2374   27.5100 C   0  0  0  0  0  0  0  0  0  0  0  0
   10.8216  -15.4549   27.3155 C   0  0  0  0  0  0  0  0  0  0  0  0
   13.8517  -16.7187   24.0914 C   0  0  0  0  0  0  0  0  0  0  0  0
   14.8600  -16.2386   24.6742 O   0  0  0  0  0  0  0  0  0  0  0  0
   14.0305  -17.4944   22.9576 O   0  0  0  0  0  0  0  0  0  0  0  0
  2  1  1  1
  2  3  1  0
  3  4  1  0
  4  9  1  0
  4  5  2  0
  5  6  1  0
  6  7  2  0
  8  7  1  0
  9  8  2  0
 10  2  1  0
 11 10  2  0
 12 13  1  0
 13 14  2  0
 14 15  1  0
 16 15  2  0
 16 17  1  0
 18 17  1  6
 18 20  1  0
 18 19  1  0
 19 10  1  0
 20 21  2  0
 22 16  1  0
 23 13  1  0
 23 22  2  0
 24 25  1  0
 24 20  1  0
 25 26  1  1
 26 27  1  0
 27 28  2  0
 28 29  1  0
 30 29  1  0
 31 30  2  0
 32 31  1  0
 33 34  1  0
 33 32  2  0
 34 35  2  0
 35 27  1  0
 35 30  1  0
 36 25  1  0
 36 38  1  0
 37 36  2  0
M  END
$$$$
