FYW.pdb
     RDKit          3D

 38 41  0  0  1  0  0  0  0  0999 V2000
    7.2921  -20.0641   21.3906 N   0  0  0  0  0  0  0  0  0  0  0  0
    6.9774  -18.6917   21.6525 C   0  0  1  0  0  0  0  0  0  0  0  0
    5.8999  -18.5606   22.7063 C   0  0  0  0  0  0  0  0  0  0  0  0
    4.6100  -18.7366   21.9940 C   0  0  0  0  0  0  0  0  0  0  0  0
    4.3294  -18.0255   20.8501 C   0  0  0  0  0  0  0  0  0  0  0  0
    3.1237  -18.1754   20.1697 C   0  0  0  0  0  0  0  0  0  0  0  0
    2.1563  -19.0588   20.6316 C   0  0  0  0  0  0  0  0  0  0  0  0
    2.4356  -19.7686   21.7724 C   0  0  0  0  0  0  0  0  0  0  0  0
    3.6296  -19.6100   22.4331 C   0  0  0  0  0  0  0  0  0  0  0  0
    8.1637  -17.8606   21.8919 C   0  0  0  0  0  0  0  0  0  0  0  0
    9.2895  -18.4260   21.7188 O   0  0  0  0  0  0  0  0  0  0  0  0
    7.1991  -13.3955   16.8204 O   0  0  0  0  0  0  0  0  0  0  0  0
    7.6321  -13.6089   18.1110 C   0  0  0  0  0  0  0  0  0  0  0  0
    6.7153  -13.7413   19.1323 C   0  0  0  0  0  0  0  0  0  0  0  0
    7.1345  -13.9551   20.4284 C   0  0  0  0  0  0  0  0  0  0  0  0
    8.4692  -14.0464   20.7656 C   0  0  0  0  0  0  0  0  0  0  0  0
    8.9643  -14.2666   22.1227 C   0  0  0  0  0  0  0  0  0  0  0  0
    9.3289  -15.6960   22.4432 C   0  0  2  0  0  0  0  0  0  0  0  0
    8.1449  -16.5173   22.2881 N   0  0  0  0  0  0  0  0  0  0  0  0
    9.8964  -15.8631   23.8009 C   0  0  0  0  0  0  0  0  0  0  0  0
   10.9917  -15.3376   24.1397 O   0  0  0  0  0  0  0  0  0  0  0  0
    9.3772  -13.9125   19.7358 C   0  0  0  0  0  0  0  0  0  0  0  0
    8.9674  -13.6966   18.4251 C   0  0  0  0  0  0  0  0  0  0  0  0
    9.2495  -16.6263   24.8176 N   0  0  0  0  0  0  0  0  0  0  0  0
    9.8257  -16.8764   26.1159 C   0  0  1  0  0  0  0  0  0  0  0  0
    8.8618  -16.5982   27.2388 C   0  0  0  0  0  0  0  0  0  0  0  0
    7.9549  -15.4700   26.9060 C   0  0  0  0  0  0  0  0  0  0  0  0
    6.6561  -15.6004   26.4644 C   0  0  0  0  0  0  0  0  0  0  0  0
    6.1451  -14.3689   26.2658 N   0  0  0  0  0  0  0  0  0  0  0  0
    7.0842  -13.4682   26.5697 C   0  0  0  0  0  0  0  0  0  0  0  0
    7.0356  -12.0898   26.5254 C   0  0  0  0  0  0  0  0  0  0  0  0
    8.1251  -11.3522   26.8829 C   0  0  0  0  0  0  0  0  0  0  0  0
    9.2788  -12.0198   27.2906 C   0  0  0  0  0  0  0  0  0  0  0  0
    9.3480  -13.3864   27.3415 C   0  0  0  0  0  0  0  0  0  0  0  0
    8.2431  -14.1292   26.9788 C   0  0  0  0  0  0  0  0  0  0  0  0
   10.2473  -18.3072   26.2532 C   0  0  0  0  0  0  0  0  0  0  0  0
    9.9811  -19.1289   25.3364 O   0  0  0  0  0  0  0  0  0  0  0  0
   10.9285  -18.7445   27.3775 O   0  0  0  0  0  0  0  0  0  0  0  0
  2  1  1  1
  2  3  1  0
  3  4  1  0
  4  9  1  0
  4  5  2  0
  5  6  1  0
  6  7  2  0
  8  7  1  0
  9  8  2  0
 10  2  1  0
 11 10  2  0
 12 13  1  0
 13 14  2  0
 14 15  1  0
 16 15  2  0
 16 17  1  0
 18 17  1  1
 18 20  1  0
 18 19  1  0
 19 10  1  0
 20 21  2  0
 22 16  1  0
 23 13  1  0
 23 22  2  0
 24 25  1  0
 24 20  1  0
 25 26  1  1
 26 27  1  0
 27 28  2  0
 28 29  1  0
 30 29  1  0
 31 30  2  0
 32 31  1  0
 33 34  1  0
 33 32  2  0
 34 35  2  0
 35 27  1  0
 35 30  1  0
 36 25  1  0
 36 38  1  0
 37 36  2  0
M  END
$$$$
