FYW.pdb
     RDKit          3D

 38 41  0  0  1  0  0  0  0  0999 V2000
    6.4401  -18.0728   22.7058 N   0  0  0  0  0  0  0  0  0  0  0  0
    7.2003  -17.4239   21.6801 C   0  0  1  0  0  0  0  0  0  0  0  0
    6.5318  -16.1486   21.2163 C   0  0  0  0  0  0  0  0  0  0  0  0
    6.7421  -15.1599   22.3028 C   0  0  0  0  0  0  0  0  0  0  0  0
    7.2299  -13.9024   22.0319 C   0  0  0  0  0  0  0  0  0  0  0  0
    7.4361  -12.9624   23.0385 C   0  0  0  0  0  0  0  0  0  0  0  0
    7.1516  -13.2706   24.3627 C   0  0  0  0  0  0  0  0  0  0  0  0
    6.6648  -14.5247   24.6336 C   0  0  0  0  0  0  0  0  0  0  0  0
    6.4666  -15.4417   23.6301 C   0  0  0  0  0  0  0  0  0  0  0  0
    8.6213  -17.2752   22.0181 C   0  0  0  0  0  0  0  0  0  0  0  0
    9.1882  -18.2957   22.5224 O   0  0  0  0  0  0  0  0  0  0  0  0
   15.6056  -14.9825   17.2282 O   0  0  0  0  0  0  0  0  0  0  0  0
   14.4144  -15.0292   17.9192 C   0  0  0  0  0  0  0  0  0  0  0  0
   14.1985  -14.1737   18.9786 C   0  0  0  0  0  0  0  0  0  0  0  0
   13.0111  -14.2095   19.6789 C   0  0  0  0  0  0  0  0  0  0  0  0
   11.9950  -15.0872   19.3621 C   0  0  0  0  0  0  0  0  0  0  0  0
   10.7222  -15.1681   20.0753 C   0  0  0  0  0  0  0  0  0  0  0  0
   10.7172  -16.0972   21.2652 C   0  0  2  0  0  0  0  0  0  0  0  0
    9.3818  -16.1145   21.8281 N   0  0  0  0  0  0  0  0  0  0  0  0
   11.7071  -15.7237   22.3014 C   0  0  0  0  0  0  0  0  0  0  0  0
   12.3132  -14.6178   22.2828 O   0  0  0  0  0  0  0  0  0  0  0  0
   12.2222  -15.9382   18.3005 C   0  0  0  0  0  0  0  0  0  0  0  0
   13.4147  -15.9120   17.5866 C   0  0  0  0  0  0  0  0  0  0  0  0
   12.0453  -16.5826   23.3888 N   0  0  0  0  0  0  0  0  0  0  0  0
   11.6953  -16.3084   24.7609 C   0  0  1  0  0  0  0  0  0  0  0  0
   10.2425  -15.9482   24.9253 C   0  0  0  0  0  0  0  0  0  0  0  0
    9.9282  -15.5976   26.3340 C   0  0  0  0  0  0  0  0  0  0  0  0
   10.0511  -16.4502   27.4096 C   0  0  0  0  0  0  0  0  0  0  0  0
    9.6794  -15.7901   28.5246 N   0  0  0  0  0  0  0  0  0  0  0  0
    9.3265  -14.5477   28.1817 C   0  0  0  0  0  0  0  0  0  0  0  0
    8.8772  -13.5066   28.9680 C   0  0  0  0  0  0  0  0  0  0  0  0
    8.5677  -12.3042   28.4047 C   0  0  0  0  0  0  0  0  0  0  0  0
    8.7154  -12.1548   27.0267 C   0  0  0  0  0  0  0  0  0  0  0  0
    9.1594  -13.1749   26.2286 C   0  0  0  0  0  0  0  0  0  0  0  0
    9.4715  -14.3903   26.8028 C   0  0  0  0  0  0  0  0  0  0  0  0
   11.9455  -17.5016   25.6311 C   0  0  0  0  0  0  0  0  0  0  0  0
   12.9559  -17.5274   26.3828 O   0  0  0  0  0  0  0  0  0  0  0  0
   11.0799  -18.5833   25.6230 O   0  0  0  0  0  0  0  0  0  0  0  0
  2  1  1  1
  2  3  1  0
  3  4  1  0
  4  9  1  0
  4  5  2  0
  5  6  1  0
  6  7  2  0
  8  7  1  0
  9  8  2  0
 10  2  1  0
 11 10  2  0
 12 13  1  0
 13 14  2  0
 14 15  1  0
 16 15  2  0
 16 17  1  0
 18 17  1  6
 18 20  1  0
 18 19  1  0
 19 10  1  0
 20 21  2  0
 22 16  1  0
 23 13  1  0
 23 22  2  0
 24 25  1  0
 24 20  1  0
 25 26  1  6
 26 27  1  0
 27 28  2  0
 28 29  1  0
 30 29  1  0
 31 30  2  0
 32 31  1  0
 33 34  1  0
 33 32  2  0
 34 35  2  0
 35 27  1  0
 35 30  1  0
 36 25  1  0
 36 38  1  0
 37 36  2  0
M  END
$$$$
