FYW.pdb
     RDKit          3D

 38 41  0  0  1  0  0  0  0  0999 V2000
    5.6187  -18.0816   23.1194 N   0  0  0  0  0  0  0  0  0  0  0  0
    6.2640  -16.8724   23.5346 C   0  0  1  0  0  0  0  0  0  0  0  0
    6.1123  -16.6450   25.0226 C   0  0  0  0  0  0  0  0  0  0  0  0
    6.4440  -15.2169   25.2523 C   0  0  0  0  0  0  0  0  0  0  0  0
    7.2766  -14.8394   26.2803 C   0  0  0  0  0  0  0  0  0  0  0  0
    7.5972  -13.5043   26.5128 C   0  0  0  0  0  0  0  0  0  0  0  0
    7.0791  -12.5015   25.7032 C   0  0  0  0  0  0  0  0  0  0  0  0
    6.2487  -12.8774   24.6774 C   0  0  0  0  0  0  0  0  0  0  0  0
    5.9413  -14.1986   24.4602 C   0  0  0  0  0  0  0  0  0  0  0  0
    7.6409  -16.7510   23.0401 C   0  0  0  0  0  0  0  0  0  0  0  0
    8.2561  -17.8416   22.8185 O   0  0  0  0  0  0  0  0  0  0  0  0
    6.5051  -14.3466   16.5858 O   0  0  0  0  0  0  0  0  0  0  0  0
    7.2597  -14.3049   17.7379 C   0  0  0  0  0  0  0  0  0  0  0  0
    6.9753  -13.3740   18.7145 C   0  0  0  0  0  0  0  0  0  0  0  0
    7.7222  -13.3211   19.8724 C   0  0  0  0  0  0  0  0  0  0  0  0
    8.7742  -14.1812   20.1106 C   0  0  0  0  0  0  0  0  0  0  0  0
    9.5985  -14.1624   21.3171 C   0  0  0  0  0  0  0  0  0  0  0  0
    9.5860  -15.4429   22.1166 C   0  0  2  0  0  0  0  0  0  0  0  0
    8.3115  -15.5452   22.7990 N   0  0  0  0  0  0  0  0  0  0  0  0
   10.6989  -15.5344   23.0894 C   0  0  0  0  0  0  0  0  0  0  0  0
   11.3416  -14.5186   23.4712 O   0  0  0  0  0  0  0  0  0  0  0  0
    9.0495  -15.1081   19.1268 C   0  0  0  0  0  0  0  0  0  0  0  0
    8.3041  -15.1717   17.9551 C   0  0  0  0  0  0  0  0  0  0  0  0
   11.1224  -16.7706   23.6613 N   0  0  0  0  0  0  0  0  0  0  0  0
   12.4339  -16.9820   24.2231 C   0  0  1  0  0  0  0  0  0  0  0  0
   12.6915  -16.1182   25.4293 C   0  0  0  0  0  0  0  0  0  0  0  0
   11.6605  -16.3312   26.4771 C   0  0  0  0  0  0  0  0  0  0  0  0
   10.9324  -17.4883   26.6495 C   0  0  0  0  0  0  0  0  0  0  0  0
   10.0969  -17.3177   27.6936 N   0  0  0  0  0  0  0  0  0  0  0  0
   10.2785  -16.0875   28.1827 C   0  0  0  0  0  0  0  0  0  0  0  0
    9.6584  -15.4557   29.2412 C   0  0  0  0  0  0  0  0  0  0  0  0
    9.9997  -14.1785   29.5743 C   0  0  0  0  0  0  0  0  0  0  0  0
   10.9820  -13.5329   28.8251 C   0  0  0  0  0  0  0  0  0  0  0  0
   11.6093  -14.1416   27.7712 C   0  0  0  0  0  0  0  0  0  0  0  0
   11.2609  -15.4343   27.4373 C   0  0  0  0  0  0  0  0  0  0  0  0
   12.6102  -18.4027   24.6638 C   0  0  0  0  0  0  0  0  0  0  0  0
   13.7100  -18.7747   25.1523 O   0  0  0  0  0  0  0  0  0  0  0  0
   11.5786  -19.3194   24.5425 O   0  0  0  0  0  0  0  0  0  0  0  0
  2  1  1  1
  2  3  1  0
  3  4  1  0
  4  9  1  0
  4  5  2  0
  5  6  1  0
  6  7  2  0
  8  7  1  0
  9  8  2  0
 10  2  1  0
 11 10  2  0
 12 13  1  0
 13 14  2  0
 14 15  1  0
 16 15  2  0
 16 17  1  0
 18 17  1  1
 18 20  1  0
 18 19  1  0
 19 10  1  0
 20 21  2  0
 22 16  1  0
 23 13  1  0
 23 22  2  0
 24 25  1  0
 24 20  1  0
 25 26  1  1
 26 27  1  0
 27 28  2  0
 28 29  1  0
 30 29  1  0
 31 30  2  0
 32 31  1  0
 33 34  1  0
 33 32  2  0
 34 35  2  0
 35 27  1  0
 35 30  1  0
 36 25  1  0
 36 38  1  0
 37 36  2  0
M  END
$$$$
