FYW.pdb
     RDKit          3D

 38 41  0  0  1  0  0  0  0  0999 V2000
    9.0962  -18.2405   20.1978 N   0  0  0  0  0  0  0  0  0  0  0  0
   10.2823  -17.7545   20.8365 C   0  0  1  0  0  0  0  0  0  0  0  0
   11.4062  -17.5565   19.8434 C   0  0  0  0  0  0  0  0  0  0  0  0
   11.8861  -18.9168   19.4947 C   0  0  0  0  0  0  0  0  0  0  0  0
   11.3300  -20.0343   20.0733 C   0  0  0  0  0  0  0  0  0  0  0  0
   11.7688  -21.3184   19.7604 C   0  0  0  0  0  0  0  0  0  0  0  0
   12.7939  -21.5114   18.8431 C   0  0  0  0  0  0  0  0  0  0  0  0
   13.3488  -20.3971   18.2654 C   0  0  0  0  0  0  0  0  0  0  0  0
   12.9056  -19.1365   18.5840 C   0  0  0  0  0  0  0  0  0  0  0  0
   10.0381  -16.6025   21.7132 C   0  0  0  0  0  0  0  0  0  0  0  0
   11.0687  -15.9805   22.1231 O   0  0  0  0  0  0  0  0  0  0  0  0
    8.0969  -13.3154   16.7506 O   0  0  0  0  0  0  0  0  0  0  0  0
    7.9529  -13.5116   18.1068 C   0  0  0  0  0  0  0  0  0  0  0  0
    7.1902  -14.5609   18.5740 C   0  0  0  0  0  0  0  0  0  0  0  0
    7.0376  -14.7691   19.9285 C   0  0  0  0  0  0  0  0  0  0  0  0
    7.6294  -13.9534   20.8707 C   0  0  0  0  0  0  0  0  0  0  0  0
    7.4944  -14.1281   22.3152 C   0  0  0  0  0  0  0  0  0  0  0  0
    8.5613  -14.9829   22.9555 C   0  0  2  0  0  0  0  0  0  0  0  0
    8.7776  -16.1481   22.1213 N   0  0  0  0  0  0  0  0  0  0  0  0
    8.2270  -15.3952   24.3380 C   0  0  0  0  0  0  0  0  0  0  0  0
    7.3266  -14.8221   25.0100 O   0  0  0  0  0  0  0  0  0  0  0  0
    8.3900  -12.9070   20.3917 C   0  0  0  0  0  0  0  0  0  0  0  0
    8.5516  -12.6864   19.0288 C   0  0  0  0  0  0  0  0  0  0  0  0
    8.8953  -16.4637   25.0061 N   0  0  0  0  0  0  0  0  0  0  0  0
    8.5414  -16.9248   26.3262 C   0  0  1  0  0  0  0  0  0  0  0  0
    7.0830  -17.2811   26.4417 C   0  0  0  0  0  0  0  0  0  0  0  0
    6.7139  -18.3633   25.4937 C   0  0  0  0  0  0  0  0  0  0  0  0
    7.0259  -19.6963   25.6516 C   0  0  0  0  0  0  0  0  0  0  0  0
    6.5303  -20.3800   24.6009 N   0  0  0  0  0  0  0  0  0  0  0  0
    5.9160  -19.5163   23.7871 C   0  0  0  0  0  0  0  0  0  0  0  0
    5.2620  -19.7381   22.5925 C   0  0  0  0  0  0  0  0  0  0  0  0
    4.6982  -18.6981   21.9146 C   0  0  0  0  0  0  0  0  0  0  0  0
    4.7985  -17.4168   22.4541 C   0  0  0  0  0  0  0  0  0  0  0  0
    5.4430  -17.1751   23.6377 C   0  0  0  0  0  0  0  0  0  0  0  0
    6.0123  -18.2304   24.3206 C   0  0  0  0  0  0  0  0  0  0  0  0
    9.3164  -18.1524   26.6953 C   0  0  0  0  0  0  0  0  0  0  0  0
   10.0080  -18.7419   25.8230 O   0  0  0  0  0  0  0  0  0  0  0  0
    9.2851  -18.6531   27.9867 O   0  0  0  0  0  0  0  0  0  0  0  0
  2  1  1  6
  2  3  1  0
  3  4  1  0
  4  9  1  0
  4  5  2  0
  5  6  1  0
  6  7  2  0
  8  7  1  0
  9  8  2  0
 10  2  1  0
 11 10  2  0
 12 13  1  0
 13 14  2  0
 14 15  1  0
 16 15  2  0
 16 17  1  0
 18 17  1  6
 18 20  1  0
 18 19  1  0
 19 10  1  0
 20 21  2  0
 22 16  1  0
 23 13  1  0
 23 22  2  0
 24 25  1  0
 24 20  1  0
 25 26  1  6
 26 27  1  0
 27 28  2  0
 28 29  1  0
 30 29  1  0
 31 30  2  0
 32 31  1  0
 33 34  1  0
 33 32  2  0
 34 35  2  0
 35 27  1  0
 35 30  1  0
 36 25  1  0
 36 38  1  0
 37 36  2  0
M  END
$$$$
