FYW.pdb
     RDKit          3D

 38 41  0  0  1  0  0  0  0  0999 V2000
    5.7825  -17.7289   25.0846 N   0  0  0  0  0  0  0  0  0  0  0  0
    6.6892  -16.6627   24.7813 C   0  0  1  0  0  0  0  0  0  0  0  0
    7.1433  -15.9468   26.0343 C   0  0  0  0  0  0  0  0  0  0  0  0
    6.8112  -14.5151   25.8285 C   0  0  0  0  0  0  0  0  0  0  0  0
    7.5046  -13.7506   24.9188 C   0  0  0  0  0  0  0  0  0  0  0  0
    7.2089  -12.4053   24.7138 C   0  0  0  0  0  0  0  0  0  0  0  0
    6.1922  -11.7876   25.4309 C   0  0  0  0  0  0  0  0  0  0  0  0
    5.5001  -12.5497   26.3383 C   0  0  0  0  0  0  0  0  0  0  0  0
    5.8031  -13.8759   26.5298 C   0  0  0  0  0  0  0  0  0  0  0  0
    7.7796  -17.0664   23.8850 C   0  0  0  0  0  0  0  0  0  0  0  0
    8.2973  -18.2061   24.1088 O   0  0  0  0  0  0  0  0  0  0  0  0
   13.3935  -17.4766   17.0235 O   0  0  0  0  0  0  0  0  0  0  0  0
   12.4448  -17.0833   17.9419 C   0  0  0  0  0  0  0  0  0  0  0  0
   12.4244  -17.6516   19.1979 C   0  0  0  0  0  0  0  0  0  0  0  0
   11.4807  -17.2674   20.1270 C   0  0  0  0  0  0  0  0  0  0  0  0
   10.5244  -16.3113   19.8538 C   0  0  0  0  0  0  0  0  0  0  0  0
    9.5009  -15.8737   20.8006 C   0  0  0  0  0  0  0  0  0  0  0  0
    9.5255  -16.5785   22.1354 C   0  0  2  0  0  0  0  0  0  0  0  0
    8.2797  -16.3027   22.8228 N   0  0  0  0  0  0  0  0  0  0  0  0
   10.6767  -16.1873   22.9808 C   0  0  0  0  0  0  0  0  0  0  0  0
   11.0627  -14.9904   23.0768 O   0  0  0  0  0  0  0  0  0  0  0  0
   10.5545  -15.7495   18.5943 C   0  0  0  0  0  0  0  0  0  0  0  0
   11.5006  -16.1282   17.6488 C   0  0  0  0  0  0  0  0  0  0  0  0
   11.4284  -17.1300   23.7429 N   0  0  0  0  0  0  0  0  0  0  0  0
   12.7656  -16.8825   24.2236 C   0  0  1  0  0  0  0  0  0  0  0  0
   12.7923  -15.9359   25.3943 C   0  0  0  0  0  0  0  0  0  0  0  0
   11.7685  -16.2993   26.4072 C   0  0  0  0  0  0  0  0  0  0  0  0
   11.3608  -17.5833   26.6972 C   0  0  0  0  0  0  0  0  0  0  0  0
   10.4236  -17.5275   27.6644 N   0  0  0  0  0  0  0  0  0  0  0  0
   10.2301  -16.2463   27.9911 C   0  0  0  0  0  0  0  0  0  0  0  0
    9.3764  -15.6895   28.9213 C   0  0  0  0  0  0  0  0  0  0  0  0
    9.3372  -14.3379   29.0955 C   0  0  0  0  0  0  0  0  0  0  0  0
   10.1741  -13.5399   28.3170 C   0  0  0  0  0  0  0  0  0  0  0  0
   11.0283  -14.0721   27.3886 C   0  0  0  0  0  0  0  0  0  0  0  0
   11.0647  -15.4406   27.2154 C   0  0  0  0  0  0  0  0  0  0  0  0
   13.4193  -18.1510   24.6789 C   0  0  0  0  0  0  0  0  0  0  0  0
   14.6165  -18.1327   25.0702 O   0  0  0  0  0  0  0  0  0  0  0  0
   12.7259  -19.3504   24.6770 O   0  0  0  0  0  0  0  0  0  0  0  0
  2  1  1  1
  2  3  1  0
  3  4  1  0
  4  9  1  0
  4  5  2  0
  5  6  1  0
  6  7  2  0
  8  7  1  0
  9  8  2  0
 10  2  1  0
 11 10  2  0
 12 13  1  0
 13 14  2  0
 14 15  1  0
 16 15  2  0
 16 17  1  0
 18 17  1  6
 18 20  1  0
 18 19  1  0
 19 10  1  0
 20 21  2  0
 22 16  1  0
 23 13  1  0
 23 22  2  0
 24 25  1  0
 24 20  1  0
 25 26  1  1
 26 27  1  0
 27 28  2  0
 28 29  1  0
 30 29  1  0
 31 30  2  0
 32 31  1  0
 33 34  1  0
 33 32  2  0
 34 35  2  0
 35 27  1  0
 35 30  1  0
 36 25  1  0
 36 38  1  0
 37 36  2  0
M  END
$$$$
