FYW.pdb
     RDKit          3D

 38 41  0  0  1  0  0  0  0  0999 V2000
    8.5542  -17.8073   18.8816 N   0  0  0  0  0  0  0  0  0  0  0  0
    9.0302  -16.9705   19.9419 C   0  0  1  0  0  0  0  0  0  0  0  0
    7.9071  -16.1708   20.5647 C   0  0  0  0  0  0  0  0  0  0  0  0
    8.0112  -14.8065   19.9903 C   0  0  0  0  0  0  0  0  0  0  0  0
    8.9903  -13.9347   20.4078 C   0  0  0  0  0  0  0  0  0  0  0  0
    9.1021  -12.6500   19.8821 C   0  0  0  0  0  0  0  0  0  0  0  0
    8.2171  -12.2051   18.9083 C   0  0  0  0  0  0  0  0  0  0  0  0
    7.2404  -13.0742   18.4913 C   0  0  0  0  0  0  0  0  0  0  0  0
    7.1424  -14.3387   19.0191 C   0  0  0  0  0  0  0  0  0  0  0  0
    9.8749  -17.6833   20.9082 C   0  0  0  0  0  0  0  0  0  0  0  0
    9.4704  -18.8348   21.2652 O   0  0  0  0  0  0  0  0  0  0  0  0
   13.9985  -20.6373   17.1154 O   0  0  0  0  0  0  0  0  0  0  0  0
   13.8182  -19.9914   18.3191 C   0  0  0  0  0  0  0  0  0  0  0  0
   13.4677  -20.7112   19.4416 C   0  0  0  0  0  0  0  0  0  0  0  0
   13.2841  -20.0777   20.6525 C   0  0  0  0  0  0  0  0  0  0  0  0
   13.4387  -18.7150   20.8022 C   0  0  0  0  0  0  0  0  0  0  0  0
   13.2507  -17.9965   22.0607 C   0  0  0  0  0  0  0  0  0  0  0  0
   11.8150  -17.8574   22.5060 C   0  0  2  0  0  0  0  0  0  0  0  0
   11.0700  -17.1967   21.4529 N   0  0  0  0  0  0  0  0  0  0  0  0
   11.6684  -17.1184   23.7810 C   0  0  0  0  0  0  0  0  0  0  0  0
   12.2101  -17.5110   24.8502 O   0  0  0  0  0  0  0  0  0  0  0  0
   13.7895  -18.0052   19.6726 C   0  0  0  0  0  0  0  0  0  0  0  0
   13.9774  -18.6320   18.4461 C   0  0  0  0  0  0  0  0  0  0  0  0
   10.9082  -15.9166   23.8917 N   0  0  0  0  0  0  0  0  0  0  0  0
    9.8845  -15.7088   24.8862 C   0  0  1  0  0  0  0  0  0  0  0  0
    8.5225  -15.5019   24.2784 C   0  0  0  0  0  0  0  0  0  0  0  0
    7.5671  -14.9437   25.2692 C   0  0  0  0  0  0  0  0  0  0  0  0
    6.6403  -15.6773   25.9775 C   0  0  0  0  0  0  0  0  0  0  0  0
    5.9522  -14.8397   26.7788 N   0  0  0  0  0  0  0  0  0  0  0  0
    6.4191  -13.6013   26.5954 C   0  0  0  0  0  0  0  0  0  0  0  0
    6.0349  -12.4143   27.1849 C   0  0  0  0  0  0  0  0  0  0  0  0
    6.6533  -11.2473   26.8464 C   0  0  0  0  0  0  0  0  0  0  0  0
    7.6744  -11.2835   25.8982 C   0  0  0  0  0  0  0  0  0  0  0  0
    8.0708  -12.4503   25.3013 C   0  0  0  0  0  0  0  0  0  0  0  0
    7.4422  -13.6291   25.6467 C   0  0  0  0  0  0  0  0  0  0  0  0
    9.7738  -16.8888   25.8023 C   0  0  0  0  0  0  0  0  0  0  0  0
    9.7607  -16.7138   27.0496 O   0  0  0  0  0  0  0  0  0  0  0  0
    9.6854  -18.1761   25.2982 O   0  0  0  0  0  0  0  0  0  0  0  0
  2  1  1  6
  2  3  1  0
  3  4  1  0
  4  9  1  0
  4  5  2  0
  5  6  1  0
  6  7  2  0
  8  7  1  0
  9  8  2  0
 10  2  1  0
 11 10  2  0
 12 13  1  0
 13 14  2  0
 14 15  1  0
 16 15  2  0
 16 17  1  0
 18 17  1  6
 18 20  1  0
 18 19  1  0
 19 10  1  0
 20 21  2  0
 22 16  1  0
 23 13  1  0
 23 22  2  0
 24 25  1  0
 24 20  1  0
 25 26  1  6
 26 27  1  0
 27 28  2  0
 28 29  1  0
 30 29  1  0
 31 30  2  0
 32 31  1  0
 33 34  1  0
 33 32  2  0
 34 35  2  0
 35 27  1  0
 35 30  1  0
 36 25  1  0
 36 38  1  0
 37 36  2  0
M  END
$$$$
