FYW.pdb
     RDKit          3D

 38 41  0  0  1  0  0  0  0  0999 V2000
    6.6524  -18.7191   20.8270 N   0  0  0  0  0  0  0  0  0  0  0  0
    7.1489  -17.4154   21.1507 C   0  0  1  0  0  0  0  0  0  0  0  0
    6.0622  -16.5350   21.7274 C   0  0  0  0  0  0  0  0  0  0  0  0
    6.5731  -15.1447   21.6361 C   0  0  0  0  0  0  0  0  0  0  0  0
    6.5315  -14.4511   20.4486 C   0  0  0  0  0  0  0  0  0  0  0  0
    7.0082  -13.1469   20.3431 C   0  0  0  0  0  0  0  0  0  0  0  0
    7.5467  -12.4995   21.4478 C   0  0  0  0  0  0  0  0  0  0  0  0
    7.5882  -13.1907   22.6326 C   0  0  0  0  0  0  0  0  0  0  0  0
    7.1142  -14.4770   22.7215 C   0  0  0  0  0  0  0  0  0  0  0  0
    8.3866  -17.4460   21.9396 C   0  0  0  0  0  0  0  0  0  0  0  0
    8.4004  -18.2412   22.9319 O   0  0  0  0  0  0  0  0  0  0  0  0
   10.2444  -13.6830   16.8017 O   0  0  0  0  0  0  0  0  0  0  0  0
   10.6482  -14.3157   17.9572 C   0  0  0  0  0  0  0  0  0  0  0  0
   10.6665  -15.6930   18.0182 C   0  0  0  0  0  0  0  0  0  0  0  0
   11.0684  -16.3393   19.1681 C   0  0  0  0  0  0  0  0  0  0  0  0
   11.4663  -15.6544   20.2976 C   0  0  0  0  0  0  0  0  0  0  0  0
   11.8953  -16.2916   21.5407 C   0  0  0  0  0  0  0  0  0  0  0  0
   10.7746  -16.7990   22.4157 C   0  0  2  0  0  0  0  0  0  0  0  0
    9.5300  -16.6789   21.6828 N   0  0  0  0  0  0  0  0  0  0  0  0
   10.6787  -16.0888   23.7116 C   0  0  0  0  0  0  0  0  0  0  0  0
   11.1232  -14.9193   23.8704 O   0  0  0  0  0  0  0  0  0  0  0  0
   11.4440  -14.2771   20.2250 C   0  0  0  0  0  0  0  0  0  0  0  0
   11.0409  -13.6137   19.0718 C   0  0  0  0  0  0  0  0  0  0  0  0
   10.0806  -16.6726   24.8675 N   0  0  0  0  0  0  0  0  0  0  0  0
   10.6801  -16.6396   26.1790 C   0  0  1  0  0  0  0  0  0  0  0  0
   10.1428  -15.5208   27.0315 C   0  0  0  0  0  0  0  0  0  0  0  0
    8.7630  -15.1477   26.6275 C   0  0  0  0  0  0  0  0  0  0  0  0
    7.7358  -16.0373   26.3991 C   0  0  0  0  0  0  0  0  0  0  0  0
    6.6346  -15.3411   26.0529 N   0  0  0  0  0  0  0  0  0  0  0  0
    6.9392  -14.0401   26.0570 C   0  0  0  0  0  0  0  0  0  0  0  0
    6.1493  -12.9454   25.7710 C   0  0  0  0  0  0  0  0  0  0  0  0
    6.6697  -11.6869   25.8362 C   0  0  0  0  0  0  0  0  0  0  0  0
    8.0078  -11.5356   26.1960 C   0  0  0  0  0  0  0  0  0  0  0  0
    8.8088  -12.6082   26.4835 C   0  0  0  0  0  0  0  0  0  0  0  0
    8.2782  -13.8803   26.4162 C   0  0  0  0  0  0  0  0  0  0  0  0
   10.4204  -17.9130   26.9238 C   0  0  0  0  0  0  0  0  0  0  0  0
    9.6081  -18.7558   26.4585 O   0  0  0  0  0  0  0  0  0  0  0  0
   11.0618  -18.1809   28.1222 O   0  0  0  0  0  0  0  0  0  0  0  0
  2  1  1  1
  2  3  1  0
  3  4  1  0
  4  9  1  0
  4  5  2  0
  5  6  1  0
  6  7  2  0
  8  7  1  0
  9  8  2  0
 10  2  1  0
 11 10  2  0
 12 13  1  0
 13 14  2  0
 14 15  1  0
 16 15  2  0
 16 17  1  0
 18 17  1  6
 18 20  1  0
 18 19  1  0
 19 10  1  0
 20 21  2  0
 22 16  1  0
 23 13  1  0
 23 22  2  0
 24 25  1  0
 24 20  1  0
 25 26  1  1
 26 27  1  0
 27 28  2  0
 28 29  1  0
 30 29  1  0
 31 30  2  0
 32 31  1  0
 33 34  1  0
 33 32  2  0
 34 35  2  0
 35 27  1  0
 35 30  1  0
 36 25  1  0
 36 38  1  0
 37 36  2  0
M  END
$$$$
