FYW.pdb
     RDKit          3D

 38 41  0  0  1  0  0  0  0  0999 V2000
    8.1954  -17.7903   19.1795 N   0  0  0  0  0  0  0  0  0  0  0  0
    8.3419  -16.5299   19.8435 C   0  0  1  0  0  0  0  0  0  0  0  0
    6.9991  -15.9015   20.1443 C   0  0  0  0  0  0  0  0  0  0  0  0
    7.2928  -14.5476   20.6763 C   0  0  0  0  0  0  0  0  0  0  0  0
    7.5752  -13.4999   19.8305 C   0  0  0  0  0  0  0  0  0  0  0  0
    7.8557  -12.2234   20.3113 C   0  0  0  0  0  0  0  0  0  0  0  0
    7.8585  -11.9669   21.6765 C   0  0  0  0  0  0  0  0  0  0  0  0
    7.5767  -13.0115   22.5206 C   0  0  0  0  0  0  0  0  0  0  0  0
    7.3019  -14.2656   22.0317 C   0  0  0  0  0  0  0  0  0  0  0  0
    9.2574  -16.5818   20.9901 C   0  0  0  0  0  0  0  0  0  0  0  0
    9.2319  -17.6492   21.6809 O   0  0  0  0  0  0  0  0  0  0  0  0
   14.8657  -15.4394   17.1392 O   0  0  0  0  0  0  0  0  0  0  0  0
   14.2317  -15.2654   18.3501 C   0  0  0  0  0  0  0  0  0  0  0  0
   13.2880  -14.2711   18.4971 C   0  0  0  0  0  0  0  0  0  0  0  0
   12.6458  -14.0857   19.7032 C   0  0  0  0  0  0  0  0  0  0  0  0
   12.9088  -14.8712   20.8064 C   0  0  0  0  0  0  0  0  0  0  0  0
   12.2603  -14.7121   22.1062 C   0  0  0  0  0  0  0  0  0  0  0  0
   11.1563  -15.7013   22.3922 C   0  0  2  0  0  0  0  0  0  0  0  0
   10.1390  -15.5617   21.3694 N   0  0  0  0  0  0  0  0  0  0  0  0
   10.5591  -15.5364   23.7373 C   0  0  0  0  0  0  0  0  0  0  0  0
   10.2855  -14.4019   24.2156 O   0  0  0  0  0  0  0  0  0  0  0  0
   13.8546  -15.8627   20.6476 C   0  0  0  0  0  0  0  0  0  0  0  0
   14.5090  -16.0597   19.4371 C   0  0  0  0  0  0  0  0  0  0  0  0
   10.2522  -16.6420   24.5846 N   0  0  0  0  0  0  0  0  0  0  0  0
   10.1860  -16.5510   26.0226 C   0  0  1  0  0  0  0  0  0  0  0  0
    8.8310  -16.9243   26.5630 C   0  0  0  0  0  0  0  0  0  0  0  0
    7.7730  -16.0227   26.0398 C   0  0  0  0  0  0  0  0  0  0  0  0
    6.7311  -16.4113   25.2258 C   0  0  0  0  0  0  0  0  0  0  0  0
    5.9731  -15.3303   24.9539 N   0  0  0  0  0  0  0  0  0  0  0  0
    6.5076  -14.2736   25.5729 C   0  0  0  0  0  0  0  0  0  0  0  0
    6.0937  -12.9574   25.5936 C   0  0  0  0  0  0  0  0  0  0  0  0
    6.7973  -12.0269   26.2992 C   0  0  0  0  0  0  0  0  0  0  0  0
    7.9353  -12.4353   26.9930 C   0  0  0  0  0  0  0  0  0  0  0  0
    8.3631  -13.7359   26.9855 C   0  0  0  0  0  0  0  0  0  0  0  0
    7.6481  -14.6745   26.2699 C   0  0  0  0  0  0  0  0  0  0  0  0
   11.1767  -17.4705   26.6682 C   0  0  0  0  0  0  0  0  0  0  0  0
   11.2953  -17.4820   27.9222 O   0  0  0  0  0  0  0  0  0  0  0  0
   11.9689  -18.3130   25.9054 O   0  0  0  0  0  0  0  0  0  0  0  0
  2  1  1  1
  2  3  1  0
  3  4  1  0
  4  9  1  0
  4  5  2  0
  5  6  1  0
  6  7  2  0
  8  7  1  0
  9  8  2  0
 10  2  1  0
 11 10  2  0
 12 13  1  0
 13 14  2  0
 14 15  1  0
 16 15  2  0
 16 17  1  0
 18 17  1  6
 18 20  1  0
 18 19  1  0
 19 10  1  0
 20 21  2  0
 22 16  1  0
 23 13  1  0
 23 22  2  0
 24 25  1  0
 24 20  1  0
 25 26  1  1
 26 27  1  0
 27 28  2  0
 28 29  1  0
 30 29  1  0
 31 30  2  0
 32 31  1  0
 33 34  1  0
 33 32  2  0
 34 35  2  0
 35 27  1  0
 35 30  1  0
 36 25  1  0
 36 38  1  0
 37 36  2  0
M  END
$$$$
