FYW.pdb
     RDKit          3D

 38 41  0  0  1  0  0  0  0  0999 V2000
    7.5044  -17.9165   20.4640 N   0  0  0  0  0  0  0  0  0  0  0  0
    7.9965  -16.6665   20.9603 C   0  0  1  0  0  0  0  0  0  0  0  0
    6.8765  -15.8028   21.4972 C   0  0  0  0  0  0  0  0  0  0  0  0
    7.2078  -14.4121   21.0991 C   0  0  0  0  0  0  0  0  0  0  0  0
    7.1941  -14.0311   19.7772 C   0  0  0  0  0  0  0  0  0  0  0  0
    7.5044  -12.7316   19.3844 C   0  0  0  0  0  0  0  0  0  0  0  0
    7.8413  -11.7693   20.3278 C   0  0  0  0  0  0  0  0  0  0  0  0
    7.8549  -12.1486   21.6466 C   0  0  0  0  0  0  0  0  0  0  0  0
    7.5465  -13.4344   22.0190 C   0  0  0  0  0  0  0  0  0  0  0  0
    9.1385  -16.8136   21.8711 C   0  0  0  0  0  0  0  0  0  0  0  0
    9.3244  -17.9746   22.3554 O   0  0  0  0  0  0  0  0  0  0  0  0
   13.4994  -15.5607   17.0912 O   0  0  0  0  0  0  0  0  0  0  0  0
   13.2037  -15.4434   18.4318 C   0  0  0  0  0  0  0  0  0  0  0  0
   12.3640  -14.4402   18.8669 C   0  0  0  0  0  0  0  0  0  0  0  0
   12.0594  -14.3111   20.2056 C   0  0  0  0  0  0  0  0  0  0  0  0
   12.5695  -15.1636   21.1628 C   0  0  0  0  0  0  0  0  0  0  0  0
   12.2821  -15.0660   22.5922 C   0  0  0  0  0  0  0  0  0  0  0  0
   11.1814  -15.9748   23.0837 C   0  0  2  0  0  0  0  0  0  0  0  0
   10.0202  -15.7885   22.2367 N   0  0  0  0  0  0  0  0  0  0  0  0
   10.8249  -15.7450   24.5026 C   0  0  0  0  0  0  0  0  0  0  0  0
   10.8058  -14.5911   25.0114 O   0  0  0  0  0  0  0  0  0  0  0  0
   13.4084  -16.1634   20.7159 C   0  0  0  0  0  0  0  0  0  0  0  0
   13.7232  -16.3040   19.3693 C   0  0  0  0  0  0  0  0  0  0  0  0
   10.4800  -16.8058   25.3917 N   0  0  0  0  0  0  0  0  0  0  0  0
   10.4469  -16.6651   26.8268 C   0  0  1  0  0  0  0  0  0  0  0  0
    9.0468  -16.7095   27.3792 C   0  0  0  0  0  0  0  0  0  0  0  0
    8.0903  -16.0080   26.4853 C   0  0  0  0  0  0  0  0  0  0  0  0
    7.2502  -16.6240   25.5832 C   0  0  0  0  0  0  0  0  0  0  0  0
    6.5300  -15.6757   24.9514 N   0  0  0  0  0  0  0  0  0  0  0  0
    6.8924  -14.4818   25.4297 C   0  0  0  0  0  0  0  0  0  0  0  0
    6.4413  -13.2210   25.0965 C   0  0  0  0  0  0  0  0  0  0  0  0
    6.9555  -12.1212   25.7169 C   0  0  0  0  0  0  0  0  0  0  0  0
    7.9396  -12.3012   26.6876 C   0  0  0  0  0  0  0  0  0  0  0  0
    8.4011  -13.5432   27.0328 C   0  0  0  0  0  0  0  0  0  0  0  0
    7.8781  -14.6537   26.4025 C   0  0  0  0  0  0  0  0  0  0  0  0
   11.2100  -17.7672   27.4953 C   0  0  0  0  0  0  0  0  0  0  0  0
   11.3566  -17.7576   28.7464 O   0  0  0  0  0  0  0  0  0  0  0  0
   11.7604  -18.8022   26.7570 O   0  0  0  0  0  0  0  0  0  0  0  0
  2  1  1  1
  2  3  1  0
  3  4  1  0
  4  9  1  0
  4  5  2  0
  5  6  1  0
  6  7  2  0
  8  7  1  0
  9  8  2  0
 10  2  1  0
 11 10  2  0
 12 13  1  0
 13 14  2  0
 14 15  1  0
 16 15  2  0
 16 17  1  0
 18 17  1  6
 18 20  1  0
 18 19  1  0
 19 10  1  0
 20 21  2  0
 22 16  1  0
 23 13  1  0
 23 22  2  0
 24 25  1  0
 24 20  1  0
 25 26  1  1
 26 27  1  0
 27 28  2  0
 28 29  1  0
 30 29  1  0
 31 30  2  0
 32 31  1  0
 33 34  1  0
 33 32  2  0
 34 35  2  0
 35 27  1  0
 35 30  1  0
 36 25  1  0
 36 38  1  0
 37 36  2  0
M  END
$$$$
