FYW.pdb
     RDKit          3D

 38 41  0  0  1  0  0  0  0  0999 V2000
    7.3678  -17.7053   20.6372 N   0  0  0  0  0  0  0  0  0  0  0  0
    7.9004  -16.4720   21.1334 C   0  0  1  0  0  0  0  0  0  0  0  0
    6.8107  -15.5780   21.6830 C   0  0  0  0  0  0  0  0  0  0  0  0
    7.1626  -14.1998   21.2602 C   0  0  0  0  0  0  0  0  0  0  0  0
    7.0659  -13.8164   19.9424 C   0  0  0  0  0  0  0  0  0  0  0  0
    7.3939  -12.5285   19.5265 C   0  0  0  0  0  0  0  0  0  0  0  0
    7.8341  -11.5807   20.4416 C   0  0  0  0  0  0  0  0  0  0  0  0
    7.9306  -11.9623   21.7562 C   0  0  0  0  0  0  0  0  0  0  0  0
    7.6035  -13.2366   22.1517 C   0  0  0  0  0  0  0  0  0  0  0  0
    9.0454  -16.6556   22.0337 C   0  0  0  0  0  0  0  0  0  0  0  0
    9.0680  -17.7389   22.6994 O   0  0  0  0  0  0  0  0  0  0  0  0
   13.4658  -15.7565   16.9524 O   0  0  0  0  0  0  0  0  0  0  0  0
   13.2083  -15.6083   18.2979 C   0  0  0  0  0  0  0  0  0  0  0  0
   13.3696  -16.6783   19.1522 C   0  0  0  0  0  0  0  0  0  0  0  0
   13.1157  -16.5442   20.5009 C   0  0  0  0  0  0  0  0  0  0  0  0
   12.6946  -15.3537   21.0566 C   0  0  0  0  0  0  0  0  0  0  0  0
   12.4074  -15.1617   22.4764 C   0  0  0  0  0  0  0  0  0  0  0  0
   11.2704  -15.9964   23.0145 C   0  0  2  0  0  0  0  0  0  0  0  0
   10.0934  -15.7429   22.2078 N   0  0  0  0  0  0  0  0  0  0  0  0
   10.9804  -15.7358   24.4432 C   0  0  0  0  0  0  0  0  0  0  0  0
   11.0861  -14.5859   24.9505 O   0  0  0  0  0  0  0  0  0  0  0  0
   12.5367  -14.2902   20.1924 C   0  0  0  0  0  0  0  0  0  0  0  0
   12.7894  -14.4125   18.8309 C   0  0  0  0  0  0  0  0  0  0  0  0
   10.5636  -16.7602   25.3440 N   0  0  0  0  0  0  0  0  0  0  0  0
   10.7084  -16.6708   26.7763 C   0  0  1  0  0  0  0  0  0  0  0  0
    9.9055  -15.5429   27.3684 C   0  0  0  0  0  0  0  0  0  0  0  0
    8.5639  -15.4452   26.7385 C   0  0  0  0  0  0  0  0  0  0  0  0
    7.8343  -16.5106   26.2574 C   0  0  0  0  0  0  0  0  0  0  0  0
    6.6715  -16.0443   25.7598 N   0  0  0  0  0  0  0  0  0  0  0  0
    6.6486  -14.7171   25.9139 C   0  0  0  0  0  0  0  0  0  0  0  0
    5.6773  -13.8021   25.5624 C   0  0  0  0  0  0  0  0  0  0  0  0
    5.8606  -12.4748   25.8142 C   0  0  0  0  0  0  0  0  0  0  0  0
    7.0434  -12.0692   26.4302 C   0  0  0  0  0  0  0  0  0  0  0  0
    8.0197  -12.9606   26.7868 C   0  0  0  0  0  0  0  0  0  0  0  0
    7.8302  -14.3031   26.5301 C   0  0  0  0  0  0  0  0  0  0  0  0
   10.2453  -17.9283   27.4456 C   0  0  0  0  0  0  0  0  0  0  0  0
    9.7412  -18.8548   26.7570 O   0  0  0  0  0  0  0  0  0  0  0  0
   10.3626  -18.0905   28.8164 O   0  0  0  0  0  0  0  0  0  0  0  0
  2  1  1  1
  2  3  1  0
  3  4  1  0
  4  9  1  0
  4  5  2  0
  5  6  1  0
  6  7  2  0
  8  7  1  0
  9  8  2  0
 10  2  1  0
 11 10  2  0
 12 13  1  0
 13 14  2  0
 14 15  1  0
 16 15  2  0
 16 17  1  0
 18 17  1  6
 18 20  1  0
 18 19  1  0
 19 10  1  0
 20 21  2  0
 22 16  1  0
 23 13  1  0
 23 22  2  0
 24 25  1  0
 24 20  1  0
 25 26  1  1
 26 27  1  0
 27 28  2  0
 28 29  1  0
 30 29  1  0
 31 30  2  0
 32 31  1  0
 33 34  1  0
 33 32  2  0
 34 35  2  0
 35 27  1  0
 35 30  1  0
 36 25  1  0
 36 38  1  0
 37 36  2  0
M  END
$$$$
