FYW.pdb
     RDKit          3D

 38 41  0  0  1  0  0  0  0  0999 V2000
    6.6159  -17.3213   21.2220 N   0  0  0  0  0  0  0  0  0  0  0  0
    7.6714  -17.5258   20.2759 C   0  0  1  0  0  0  0  0  0  0  0  0
    7.3464  -16.8994   18.9377 C   0  0  0  0  0  0  0  0  0  0  0  0
    7.4024  -15.4318   19.1505 C   0  0  0  0  0  0  0  0  0  0  0  0
    6.6308  -14.8257   20.1149 C   0  0  0  0  0  0  0  0  0  0  0  0
    6.6681  -13.4500   20.3274 C   0  0  0  0  0  0  0  0  0  0  0  0
    7.4961  -12.6386   19.5621 C   0  0  0  0  0  0  0  0  0  0  0  0
    8.2662  -13.2426   18.6002 C   0  0  0  0  0  0  0  0  0  0  0  0
    8.2188  -14.6011   18.4019 C   0  0  0  0  0  0  0  0  0  0  0  0
    8.9970  -17.1777   20.8021 C   0  0  0  0  0  0  0  0  0  0  0  0
    9.9836  -17.7987   20.2939 O   0  0  0  0  0  0  0  0  0  0  0  0
   15.6936  -14.4560   18.6156 O   0  0  0  0  0  0  0  0  0  0  0  0
   14.5341  -14.4725   19.3596 C   0  0  0  0  0  0  0  0  0  0  0  0
   14.5907  -14.6967   20.7189 C   0  0  0  0  0  0  0  0  0  0  0  0
   13.4382  -14.7158   21.4757 C   0  0  0  0  0  0  0  0  0  0  0  0
   12.1902  -14.5152   20.9229 C   0  0  0  0  0  0  0  0  0  0  0  0
   10.9403  -14.5310   21.6796 C   0  0  0  0  0  0  0  0  0  0  0  0
   10.5713  -15.8699   22.2714 C   0  0  2  0  0  0  0  0  0  0  0  0
    9.2481  -16.2299   21.8023 N   0  0  0  0  0  0  0  0  0  0  0  0
   10.6139  -15.8853   23.7516 C   0  0  0  0  0  0  0  0  0  0  0  0
   11.1346  -14.9495   24.4178 O   0  0  0  0  0  0  0  0  0  0  0  0
   12.1458  -14.2918   19.5624 C   0  0  0  0  0  0  0  0  0  0  0  0
   13.3003  -14.2701   18.7884 C   0  0  0  0  0  0  0  0  0  0  0  0
   10.0727  -16.9535   24.5267 N   0  0  0  0  0  0  0  0  0  0  0  0
   10.2446  -17.0704   25.9540 C   0  0  1  0  0  0  0  0  0  0  0  0
    8.9359  -17.0343   26.6980 C   0  0  0  0  0  0  0  0  0  0  0  0
    8.0536  -15.9536   26.1884 C   0  0  0  0  0  0  0  0  0  0  0  0
    6.9204  -16.1473   25.4287 C   0  0  0  0  0  0  0  0  0  0  0  0
    6.3785  -14.9443   25.1526 N   0  0  0  0  0  0  0  0  0  0  0  0
    7.1376  -14.0001   25.7163 C   0  0  0  0  0  0  0  0  0  0  0  0
    6.9920  -12.6279   25.7114 C   0  0  0  0  0  0  0  0  0  0  0  0
    7.8959  -11.8388   26.3590 C   0  0  0  0  0  0  0  0  0  0  0  0
    8.9611  -12.4481   27.0202 C   0  0  0  0  0  0  0  0  0  0  0  0
    9.1239  -13.8075   27.0371 C   0  0  0  0  0  0  0  0  0  0  0  0
    8.2069  -14.6024   26.3804 C   0  0  0  0  0  0  0  0  0  0  0  0
   10.9104  -18.3630   26.3139 C   0  0  0  0  0  0  0  0  0  0  0  0
   11.1100  -19.2330   25.4251 O   0  0  0  0  0  0  0  0  0  0  0  0
   11.3126  -18.6193   27.6146 O   0  0  0  0  0  0  0  0  0  0  0  0
  2  1  1  1
  2  3  1  0
  3  4  1  0
  4  9  1  0
  4  5  2  0
  5  6  1  0
  6  7  2  0
  8  7  1  0
  9  8  2  0
 10  2  1  0
 11 10  2  0
 12 13  1  0
 13 14  2  0
 14 15  1  0
 16 15  2  0
 16 17  1  0
 18 17  1  1
 18 20  1  0
 18 19  1  0
 19 10  1  0
 20 21  2  0
 22 16  1  0
 23 13  1  0
 23 22  2  0
 24 25  1  0
 24 20  1  0
 25 26  1  1
 26 27  1  0
 27 28  2  0
 28 29  1  0
 30 29  1  0
 31 30  2  0
 32 31  1  0
 33 34  1  0
 33 32  2  0
 34 35  2  0
 35 27  1  0
 35 30  1  0
 36 25  1  0
 36 38  1  0
 37 36  2  0
M  END
$$$$
