NYF.pdb
     RDKit          3D

 32 33  0  0  1  0  0  0  0  0999 V2000
   26.4283  -34.9012   -7.5690 N   0  0  0  0  0  0  0  0  0  0  0  0
   25.6275  -33.7357   -7.3579 C   0  0  0  0  0  0  0  0  0  0  0  0
   25.4798  -33.3129   -6.1910 O   0  0  0  0  0  0  0  0  0  0  0  0
   24.9902  -33.0578   -8.5459 C   0  0  0  0  0  0  0  0  0  0  0  0
   25.3569  -33.9514   -9.7433 C   0  0  2  0  0  0  0  0  0  0  0  0
   26.6088  -33.3678  -10.2542 N   0  0  0  0  0  0  0  0  0  0  0  0
   24.3174  -33.8859  -10.7845 C   0  0  0  0  0  0  0  0  0  0  0  0
   24.1099  -32.7467  -11.3237 O   0  0  0  0  0  0  0  0  0  0  0  0
   27.4801  -35.4355  -16.4008 O   0  0  0  0  0  0  0  0  0  0  0  0
   26.2865  -35.5078  -15.6782 C   0  0  0  0  0  0  0  0  0  0  0  0
   26.2076  -36.4278  -14.6529 C   0  0  0  0  0  0  0  0  0  0  0  0
   25.0516  -36.5493  -13.8984 C   0  0  0  0  0  0  0  0  0  0  0  0
   23.9468  -35.7455  -14.1619 C   0  0  0  0  0  0  0  0  0  0  0  0
   22.7579  -35.9166  -13.3357 C   0  0  0  0  0  0  0  0  0  0  0  0
   22.6165  -34.8180  -12.2908 C   0  0  2  0  0  0  0  0  0  0  0  0
   23.5470  -34.9904  -11.2169 N   0  0  0  0  0  0  0  0  0  0  0  0
   21.2370  -34.9442  -11.7606 C   0  0  0  0  0  0  0  0  0  0  0  0
   21.0718  -35.6271  -10.7160 O   0  0  0  0  0  0  0  0  0  0  0  0
   24.0419  -34.8441  -15.1764 C   0  0  0  0  0  0  0  0  0  0  0  0
   25.2025  -34.7132  -15.9416 C   0  0  0  0  0  0  0  0  0  0  0  0
   20.0936  -34.3607  -12.3333 N   0  0  0  0  0  0  0  0  0  0  0  0
   18.7441  -34.5668  -11.8401 C   0  0  1  0  0  0  0  0  0  0  0  0
   18.0444  -33.2648  -11.5907 C   0  0  0  0  0  0  0  0  0  0  0  0
   16.6585  -33.4796  -11.1514 C   0  0  0  0  0  0  0  0  0  0  0  0
   16.4050  -33.5767   -9.7910 C   0  0  0  0  0  0  0  0  0  0  0  0
   15.1384  -33.7756   -9.2724 C   0  0  0  0  0  0  0  0  0  0  0  0
   14.0933  -33.8795  -10.1409 C   0  0  0  0  0  0  0  0  0  0  0  0
   14.3380  -33.7825  -11.5030 C   0  0  0  0  0  0  0  0  0  0  0  0
   15.5963  -33.5851  -12.0264 C   0  0  0  0  0  0  0  0  0  0  0  0
   18.0222  -35.4575  -12.7314 C   0  0  0  0  0  0  0  0  0  0  0  0
   18.4575  -35.6072  -13.9281 O   0  0  0  0  0  0  0  0  0  0  0  0
   16.8955  -36.1304  -12.3058 O   0  0  0  0  0  0  0  0  0  0  0  0
  2  3  2  0
  2  1  1  0
  4  2  1  0
  5  4  1  0
  5  6  1  6
  7  8  2  0
  7  5  1  0
  9 10  1  0
 10 20  2  0
 10 11  1  0
 11 12  2  0
 12 13  1  0
 13 14  1  0
 15 14  1  6
 15 16  1  0
 16  7  1  0
 17 15  1  0
 17 21  1  0
 18 17  2  0
 19 13  2  0
 20 19  1  0
 22 21  1  0
 22 30  1  0
 22 23  1  6
 24 23  1  0
 25 24  2  0
 26 25  1  0
 27 26  2  0
 27 28  1  0
 28 29  2  0
 29 24  1  0
 30 32  1  0
 31 30  2  0
M  END
$$$$
