NYF.pdb
     RDKit          3D

 32 33  0  0  1  0  0  0  0  0999 V2000
   24.5234  -17.6569  -15.4819 N   0  0  0  0  0  0  0  0  0  0  0  0
   23.7438  -18.3097  -14.4767 C   0  0  0  0  0  0  0  0  0  0  0  0
   22.6107  -17.8558  -14.2078 O   0  0  0  0  0  0  0  0  0  0  0  0
   24.3124  -19.5197  -13.7771 C   0  0  0  0  0  0  0  0  0  0  0  0
   25.7582  -19.6204  -14.2930 C   0  0  2  0  0  0  0  0  0  0  0  0
   25.6256  -20.2888  -15.5987 N   0  0  0  0  0  0  0  0  0  0  0  0
   26.5800  -20.4473  -13.3931 C   0  0  0  0  0  0  0  0  0  0  0  0
   26.4243  -21.7129  -13.4674 O   0  0  0  0  0  0  0  0  0  0  0  0
   32.5854  -23.7804   -7.9895 O   0  0  0  0  0  0  0  0  0  0  0  0
   31.8128  -22.8738   -8.7198 C   0  0  0  0  0  0  0  0  0  0  0  0
   31.9131  -22.9021  -10.0956 C   0  0  0  0  0  0  0  0  0  0  0  0
   31.1736  -22.0290  -10.8773 C   0  0  0  0  0  0  0  0  0  0  0  0
   30.3157  -21.1051  -10.2883 C   0  0  0  0  0  0  0  0  0  0  0  0
   29.5623  -20.2118  -11.1599 C   0  0  0  0  0  0  0  0  0  0  0  0
   28.2652  -20.8405  -11.6506 C   0  0  2  0  0  0  0  0  0  0  0  0
   27.5164  -19.9333  -12.4661 N   0  0  0  0  0  0  0  0  0  0  0  0
   27.4832  -21.1513  -10.4291 C   0  0  0  0  0  0  0  0  0  0  0  0
   27.8413  -22.1431   -9.7415 O   0  0  0  0  0  0  0  0  0  0  0  0
   30.2295  -21.0909   -8.9307 C   0  0  0  0  0  0  0  0  0  0  0  0
   30.9695  -21.9672   -8.1344 C   0  0  0  0  0  0  0  0  0  0  0  0
   26.3687  -20.4246   -9.9753 N   0  0  0  0  0  0  0  0  0  0  0  0
   25.5715  -20.7987   -8.8215 C   0  0  1  0  0  0  0  0  0  0  0  0
   25.4961  -19.6857   -7.8202 C   0  0  0  0  0  0  0  0  0  0  0  0
   26.6738  -19.6782   -6.9411 C   0  0  0  0  0  0  0  0  0  0  0  0
   27.4995  -18.5635   -6.9536 C   0  0  0  0  0  0  0  0  0  0  0  0
   28.6297  -18.4536   -6.1643 C   0  0  0  0  0  0  0  0  0  0  0  0
   28.9435  -19.4898   -5.3366 C   0  0  0  0  0  0  0  0  0  0  0  0
   28.1225  -20.6080   -5.3173 C   0  0  0  0  0  0  0  0  0  0  0  0
   26.9959  -20.7245   -6.1006 C   0  0  0  0  0  0  0  0  0  0  0  0
   24.2733  -21.2854   -9.2538 C   0  0  0  0  0  0  0  0  0  0  0  0
   23.4546  -21.7121   -8.3641 O   0  0  0  0  0  0  0  0  0  0  0  0
   23.9232  -21.2893  -10.5882 O   0  0  0  0  0  0  0  0  0  0  0  0
  2  3  2  0
  2  1  1  0
  4  2  1  0
  5  4  1  0
  5  6  1  6
  7  8  2  0
  7  5  1  0
  9 10  1  0
 10 20  2  0
 10 11  1  0
 11 12  2  0
 12 13  1  0
 13 14  1  0
 15 14  1  1
 15 16  1  0
 16  7  1  0
 17 15  1  0
 17 21  1  0
 18 17  2  0
 19 13  2  0
 20 19  1  0
 22 21  1  0
 22 30  1  0
 22 23  1  1
 24 23  1  0
 25 24  2  0
 26 25  1  0
 27 26  2  0
 27 28  1  0
 28 29  2  0
 29 24  1  0
 30 32  1  0
 31 30  2  0
M  END
$$$$
