NYF.pdb
     RDKit          3D

 32 33  0  0  1  0  0  0  0  0999 V2000
   26.1561  -36.7036  -12.0056 N   0  0  0  0  0  0  0  0  0  0  0  0
   25.6256  -35.3807  -11.8928 C   0  0  0  0  0  0  0  0  0  0  0  0
   26.1667  -34.4602  -12.5426 O   0  0  0  0  0  0  0  0  0  0  0  0
   24.4354  -35.1409  -10.9968 C   0  0  0  0  0  0  0  0  0  0  0  0
   24.0999  -36.5273  -10.4206 C   0  0  2  0  0  0  0  0  0  0  0  0
   22.9647  -36.9884  -11.2377 N   0  0  0  0  0  0  0  0  0  0  0  0
   23.6872  -36.4236   -9.0107 C   0  0  0  0  0  0  0  0  0  0  0  0
   22.5213  -35.9544   -8.7824 O   0  0  0  0  0  0  0  0  0  0  0  0
   19.4336  -40.8238   -7.5887 O   0  0  0  0  0  0  0  0  0  0  0  0
   20.4858  -40.0465   -7.0979 C   0  0  0  0  0  0  0  0  0  0  0  0
   21.7324  -40.2164   -7.6643 C   0  0  0  0  0  0  0  0  0  0  0  0
   22.8174  -39.4762   -7.2225 C   0  0  0  0  0  0  0  0  0  0  0  0
   22.6700  -38.5474   -6.1969 C   0  0  0  0  0  0  0  0  0  0  0  0
   23.8458  -37.7969   -5.7732 C   0  0  0  0  0  0  0  0  0  0  0  0
   24.0408  -36.5219   -6.5825 C   0  0  2  0  0  0  0  0  0  0  0  0
   24.4907  -36.8059   -7.9113 N   0  0  0  0  0  0  0  0  0  0  0  0
   25.0899  -35.7519   -5.8708 C   0  0  0  0  0  0  0  0  0  0  0  0
   26.2819  -36.1390   -5.9894 O   0  0  0  0  0  0  0  0  0  0  0  0
   21.4341  -38.3931   -5.6497 C   0  0  0  0  0  0  0  0  0  0  0  0
   20.3344  -39.1331   -6.0887 C   0  0  0  0  0  0  0  0  0  0  0  0
   24.8596  -34.6197   -5.0701 N   0  0  0  0  0  0  0  0  0  0  0  0
   25.9096  -33.8662   -4.4094 C   0  0  1  0  0  0  0  0  0  0  0  0
   25.9577  -32.4484   -4.8935 C   0  0  0  0  0  0  0  0  0  0  0  0
   26.1347  -32.3881   -6.3512 C   0  0  0  0  0  0  0  0  0  0  0  0
   27.3302  -32.8409   -6.8901 C   0  0  0  0  0  0  0  0  0  0  0  0
   27.5973  -32.8308   -8.2469 C   0  0  0  0  0  0  0  0  0  0  0  0
   26.6393  -32.3541   -9.0909 C   0  0  0  0  0  0  0  0  0  0  0  0
   25.4404  -31.9003   -8.5603 C   0  0  0  0  0  0  0  0  0  0  0  0
   25.1677  -31.9070   -7.2105 C   0  0  0  0  0  0  0  0  0  0  0  0
   25.7744  -33.9880   -2.9686 C   0  0  0  0  0  0  0  0  0  0  0  0
   26.6376  -33.4022   -2.2233 O   0  0  0  0  0  0  0  0  0  0  0  0
   24.7428  -34.7137   -2.4095 O   0  0  0  0  0  0  0  0  0  0  0  0
  2  3  2  0
  2  1  1  0
  4  2  1  0
  5  4  1  0
  5  6  1  6
  7  8  2  0
  7  5  1  0
  9 10  1  0
 10 20  2  0
 10 11  1  0
 11 12  2  0
 12 13  1  0
 13 14  1  0
 15 14  1  1
 15 16  1  0
 16  7  1  0
 17 15  1  0
 17 21  1  0
 18 17  2  0
 19 13  2  0
 20 19  1  0
 22 21  1  0
 22 30  1  0
 22 23  1  1
 24 23  1  0
 25 24  2  0
 26 25  1  0
 27 26  2  0
 27 28  1  0
 28 29  2  0
 29 24  1  0
 30 32  1  0
 31 30  2  0
M  END
$$$$
