NYF.pdb
     RDKit          3D

 32 33  0  0  1  0  0  0  0  0999 V2000
   37.0049  -25.7077  -16.6459 N   0  0  0  0  0  0  0  0  0  0  0  0
   36.6205  -26.0617  -17.9767 C   0  0  0  0  0  0  0  0  0  0  0  0
   36.1073  -25.1857  -18.7059 O   0  0  0  0  0  0  0  0  0  0  0  0
   36.8461  -27.4751  -18.4547 C   0  0  0  0  0  0  0  0  0  0  0  0
   37.5200  -28.1820  -17.2661 C   0  0  2  0  0  0  0  0  0  0  0  0
   38.9608  -28.0299  -17.5304 N   0  0  0  0  0  0  0  0  0  0  0  0
   37.1685  -29.6119  -17.2382 C   0  0  0  0  0  0  0  0  0  0  0  0
   37.6546  -30.3450  -18.1643 O   0  0  0  0  0  0  0  0  0  0  0  0
   42.0562  -33.6186  -16.0863 O   0  0  0  0  0  0  0  0  0  0  0  0
   40.7245  -33.2697  -15.8481 C   0  0  0  0  0  0  0  0  0  0  0  0
   39.7414  -34.1126  -16.3243 C   0  0  0  0  0  0  0  0  0  0  0  0
   38.4015  -33.8231  -16.1214 C   0  0  0  0  0  0  0  0  0  0  0  0
   38.0218  -32.6744  -15.4339 C   0  0  0  0  0  0  0  0  0  0  0  0
   36.5981  -32.4210  -15.2497 C   0  0  0  0  0  0  0  0  0  0  0  0
   36.0049  -31.5997  -16.3865 C   0  0  2  0  0  0  0  0  0  0  0  0
   36.3385  -30.2132  -16.2636 N   0  0  0  0  0  0  0  0  0  0  0  0
   34.5346  -31.7559  -16.2691 C   0  0  0  0  0  0  0  0  0  0  0  0
   33.9432  -31.0814  -15.3858 O   0  0  0  0  0  0  0  0  0  0  0  0
   39.0041  -31.8545  -14.9717 C   0  0  0  0  0  0  0  0  0  0  0  0
   40.3569  -32.1380  -15.1699 C   0  0  0  0  0  0  0  0  0  0  0  0
   33.7443  -32.6006  -17.0678 N   0  0  0  0  0  0  0  0  0  0  0  0
   32.2975  -32.6786  -16.9814 C   0  0  1  0  0  0  0  0  0  0  0  0
   31.6692  -31.3185  -17.0279 C   0  0  0  0  0  0  0  0  0  0  0  0
   30.2026  -31.4089  -17.0560 C   0  0  0  0  0  0  0  0  0  0  0  0
   29.5651  -31.4100  -18.2881 C   0  0  0  0  0  0  0  0  0  0  0  0
   28.1917  -31.4939  -18.4262 C   0  0  0  0  0  0  0  0  0  0  0  0
   27.4325  -31.5804  -17.2977 C   0  0  0  0  0  0  0  0  0  0  0  0
   28.0623  -31.5811  -16.0615 C   0  0  0  0  0  0  0  0  0  0  0  0
   29.4291  -31.4973  -15.9164 C   0  0  0  0  0  0  0  0  0  0  0  0
   31.7902  -33.5920  -17.9900 C   0  0  0  0  0  0  0  0  0  0  0  0
   30.7463  -34.2844  -17.7161 O   0  0  0  0  0  0  0  0  0  0  0  0
   32.4111  -33.7147  -19.2159 O   0  0  0  0  0  0  0  0  0  0  0  0
  2  3  2  0
  2  1  1  0
  4  2  1  0
  5  4  1  0
  5  6  1  6
  7  8  2  0
  7  5  1  0
  9 10  1  0
 10 20  2  0
 10 11  1  0
 11 12  2  0
 12 13  1  0
 13 14  1  0
 15 14  1  1
 15 16  1  0
 16  7  1  0
 17 15  1  0
 17 21  1  0
 18 17  2  0
 19 13  2  0
 20 19  1  0
 22 21  1  0
 22 30  1  0
 22 23  1  6
 24 23  1  0
 25 24  2  0
 26 25  1  0
 27 26  2  0
 27 28  1  0
 28 29  2  0
 29 24  1  0
 30 32  1  0
 31 30  2  0
M  END
$$$$
