NYF.pdb
     RDKit          3D

 32 33  0  0  1  0  0  0  0  0999 V2000
   28.6782  -18.4432  -20.9502 N   0  0  0  0  0  0  0  0  0  0  0  0
   28.7253  -18.9214  -19.6036 C   0  0  0  0  0  0  0  0  0  0  0  0
   29.7037  -19.6124  -19.2464 O   0  0  0  0  0  0  0  0  0  0  0  0
   27.5971  -18.5773  -18.6625 C   0  0  0  0  0  0  0  0  0  0  0  0
   26.4536  -18.1162  -19.5824 C   0  0  2  0  0  0  0  0  0  0  0  0
   26.8547  -16.7618  -19.9992 N   0  0  0  0  0  0  0  0  0  0  0  0
   25.1804  -18.0520  -18.8450 C   0  0  0  0  0  0  0  0  0  0  0  0
   25.0634  -17.1266  -17.9725 O   0  0  0  0  0  0  0  0  0  0  0  0
   17.2818  -19.5525  -15.3102 O   0  0  0  0  0  0  0  0  0  0  0  0
   18.3697  -19.4770  -16.1836 C   0  0  0  0  0  0  0  0  0  0  0  0
   19.1214  -20.6175  -16.3782 C   0  0  0  0  0  0  0  0  0  0  0  0
   20.2132  -20.6086  -17.2316 C   0  0  0  0  0  0  0  0  0  0  0  0
   20.5731  -19.4472  -17.9082 C   0  0  0  0  0  0  0  0  0  0  0  0
   21.7304  -19.4964  -18.7934 C   0  0  0  0  0  0  0  0  0  0  0  0
   22.9674  -18.8704  -18.1638 C   0  0  2  0  0  0  0  0  0  0  0  0
   24.0963  -18.9391  -19.0411 N   0  0  0  0  0  0  0  0  0  0  0  0
   23.2491  -19.6737  -16.9491 C   0  0  0  0  0  0  0  0  0  0  0  0
   23.8224  -20.7840  -17.1017 O   0  0  0  0  0  0  0  0  0  0  0  0
   19.8212  -18.3320  -17.7044 C   0  0  0  0  0  0  0  0  0  0  0  0
   18.7187  -18.3310  -16.8476 C   0  0  0  0  0  0  0  0  0  0  0  0
   22.9255  -19.2938  -15.6349 N   0  0  0  0  0  0  0  0  0  0  0  0
   23.2934  -20.0567  -14.4562 C   0  0  1  0  0  0  0  0  0  0  0  0
   24.2659  -19.3068  -13.5966 C   0  0  0  0  0  0  0  0  0  0  0  0
   24.5615  -20.0423  -12.3591 C   0  0  0  0  0  0  0  0  0  0  0  0
   25.6847  -20.8559  -12.3273 C   0  0  0  0  0  0  0  0  0  0  0  0
   26.0540  -21.5879  -11.2136 C   0  0  0  0  0  0  0  0  0  0  0  0
   25.2769  -21.5029  -10.0972 C   0  0  0  0  0  0  0  0  0  0  0  0
   24.1525  -20.6906  -10.1203 C   0  0  0  0  0  0  0  0  0  0  0  0
   23.7784  -19.9594  -11.2256 C   0  0  0  0  0  0  0  0  0  0  0  0
   22.0982  -20.4844  -13.7507 C   0  0  0  0  0  0  0  0  0  0  0  0
   21.1033  -19.6779  -13.6916 O   0  0  0  0  0  0  0  0  0  0  0  0
   22.0286  -21.7283  -13.1580 O   0  0  0  0  0  0  0  0  0  0  0  0
  2  3  2  0
  2  1  1  0
  4  2  1  0
  5  4  1  0
  5  6  1  1
  7  8  2  0
  7  5  1  0
  9 10  1  0
 10 20  2  0
 10 11  1  0
 11 12  2  0
 12 13  1  0
 13 14  1  0
 15 14  1  6
 15 16  1  0
 16  7  1  0
 17 15  1  0
 17 21  1  0
 18 17  2  0
 19 13  2  0
 20 19  1  0
 22 21  1  0
 22 30  1  0
 22 23  1  1
 24 23  1  0
 25 24  2  0
 26 25  1  0
 27 26  2  0
 27 28  1  0
 28 29  2  0
 29 24  1  0
 30 32  1  0
 31 30  2  0
M  END
$$$$
