NYF.pdb
     RDKit          3D

 32 33  0  0  1  0  0  0  0  0999 V2000
   18.4496  -18.9138  -11.7122 N   0  0  0  0  0  0  0  0  0  0  0  0
   19.8378  -18.6884  -11.9693 C   0  0  0  0  0  0  0  0  0  0  0  0
   20.1651  -17.7187  -12.6870 O   0  0  0  0  0  0  0  0  0  0  0  0
   20.8573  -19.6244  -11.3681 C   0  0  0  0  0  0  0  0  0  0  0  0
   21.4953  -20.3292  -12.5776 C   0  0  2  0  0  0  0  0  0  0  0  0
   20.6597  -21.5258  -12.7752 N   0  0  0  0  0  0  0  0  0  0  0  0
   22.8794  -20.7339  -12.2790 C   0  0  0  0  0  0  0  0  0  0  0  0
   23.0350  -21.8000  -11.5930 O   0  0  0  0  0  0  0  0  0  0  0  0
   31.5629  -21.4955  -11.6436 O   0  0  0  0  0  0  0  0  0  0  0  0
   30.3018  -21.0611  -12.0593 C   0  0  0  0  0  0  0  0  0  0  0  0
   29.3380  -22.0176  -12.3039 C   0  0  0  0  0  0  0  0  0  0  0  0
   28.0673  -21.6522  -12.7188 C   0  0  0  0  0  0  0  0  0  0  0  0
   27.7396  -20.3118  -12.8981 C   0  0  0  0  0  0  0  0  0  0  0  0
   26.3876  -19.9859  -13.3354 C   0  0  0  0  0  0  0  0  0  0  0  0
   25.3255  -20.5550  -12.4045 C   0  0  2  0  0  0  0  0  0  0  0  0
   24.0290  -20.0250  -12.6992 N   0  0  0  0  0  0  0  0  0  0  0  0
   25.7217  -20.1330  -11.0389 C   0  0  0  0  0  0  0  0  0  0  0  0
   25.5003  -18.9387  -10.7080 O   0  0  0  0  0  0  0  0  0  0  0  0
   28.7020  -19.3822  -12.6528 C   0  0  0  0  0  0  0  0  0  0  0  0
   29.9848  -19.7401  -12.2333 C   0  0  0  0  0  0  0  0  0  0  0  0
   26.3280  -20.9627  -10.0797 N   0  0  0  0  0  0  0  0  0  0  0  0
   27.0554  -20.4698   -8.9243 C   0  0  1  0  0  0  0  0  0  0  0  0
   26.1711  -20.3717   -7.7179 C   0  0  0  0  0  0  0  0  0  0  0  0
   26.9200  -19.9007   -6.5444 C   0  0  0  0  0  0  0  0  0  0  0  0
   27.2907  -20.8287   -5.5821 C   0  0  0  0  0  0  0  0  0  0  0  0
   27.9986  -20.4916   -4.4429 C   0  0  0  0  0  0  0  0  0  0  0  0
   28.3473  -19.1868   -4.2608 C   0  0  0  0  0  0  0  0  0  0  0  0
   27.9815  -18.2525   -5.2190 C   0  0  0  0  0  0  0  0  0  0  0  0
   27.2763  -18.5808   -6.3553 C   0  0  0  0  0  0  0  0  0  0  0  0
   28.2480  -21.2707   -8.7118 C   0  0  0  0  0  0  0  0  0  0  0  0
   28.2752  -22.4619   -9.1856 O   0  0  0  0  0  0  0  0  0  0  0  0
   29.3295  -20.7668   -8.0192 O   0  0  0  0  0  0  0  0  0  0  0  0
  2  3  2  0
  2  1  1  0
  4  2  1  0
  5  4  1  0
  5  6  1  1
  7  8  2  0
  7  5  1  0
  9 10  1  0
 10 20  2  0
 10 11  1  0
 11 12  2  0
 12 13  1  0
 13 14  1  0
 15 14  1  6
 15 16  1  0
 16  7  1  0
 17 15  1  0
 17 21  1  0
 18 17  2  0
 19 13  2  0
 20 19  1  0
 22 21  1  0
 22 30  1  0
 22 23  1  1
 24 23  1  0
 25 24  2  0
 26 25  1  0
 27 26  2  0
 27 28  1  0
 28 29  2  0
 29 24  1  0
 30 32  1  0
 31 30  2  0
M  END
$$$$
