NYF.pdb
     RDKit          3D

 32 33  0  0  1  0  0  0  0  0999 V2000
   19.9053  -10.8217    5.9500 N   0  0  0  0  0  0  0  0  0  0  0  0
   20.2954  -11.8856    6.8219 C   0  0  0  0  0  0  0  0  0  0  0  0
   21.3115  -11.7353    7.5341 O   0  0  0  0  0  0  0  0  0  0  0  0
   19.4709  -13.1491    6.8532 C   0  0  0  0  0  0  0  0  0  0  0  0
   18.2803  -12.8565    5.9239 C   0  0  2  0  0  0  0  0  0  0  0  0
   17.3196  -12.1480    6.7866 N   0  0  0  0  0  0  0  0  0  0  0  0
   17.6780  -14.1077    5.4331 C   0  0  0  0  0  0  0  0  0  0  0  0
   16.9296  -14.7473    6.2469 O   0  0  0  0  0  0  0  0  0  0  0  0
   15.4183  -21.2041    0.7104 O   0  0  0  0  0  0  0  0  0  0  0  0
   15.8398  -19.9384    1.1256 C   0  0  0  0  0  0  0  0  0  0  0  0
   17.1153  -19.5387    0.7838 C   0  0  0  0  0  0  0  0  0  0  0  0
   17.5935  -18.2953    1.1653 C   0  0  0  0  0  0  0  0  0  0  0  0
   16.7955  -17.4258    1.9025 C   0  0  0  0  0  0  0  0  0  0  0  0
   17.3506  -16.1305    2.2757 C   0  0  0  0  0  0  0  0  0  0  0  0
   17.2139  -15.8503    3.7661 C   0  0  2  0  0  0  0  0  0  0  0  0
   17.8749  -14.6357    4.1359 N   0  0  0  0  0  0  0  0  0  0  0  0
   17.8746  -16.9883    4.4503 C   0  0  0  0  0  0  0  0  0  0  0  0
   19.0781  -16.8472    4.7916 O   0  0  0  0  0  0  0  0  0  0  0  0
   15.5408  -17.8363    2.2311 C   0  0  0  0  0  0  0  0  0  0  0  0
   15.0493  -19.0866    1.8504 C   0  0  0  0  0  0  0  0  0  0  0  0
   17.2629  -18.2181    4.7495 N   0  0  0  0  0  0  0  0  0  0  0  0
   17.9355  -19.3175    5.4171 C   0  0  1  0  0  0  0  0  0  0  0  0
   18.3541  -18.9441    6.8071 C   0  0  0  0  0  0  0  0  0  0  0  0
   17.2058  -18.9290    7.7242 C   0  0  0  0  0  0  0  0  0  0  0  0
   17.4168  -18.5417    9.0395 C   0  0  0  0  0  0  0  0  0  0  0  0
   16.4058  -18.4902    9.9816 C   0  0  0  0  0  0  0  0  0  0  0  0
   15.1449  -18.8357    9.5965 C   0  0  0  0  0  0  0  0  0  0  0  0
   14.9251  -19.2232    8.2826 C   0  0  0  0  0  0  0  0  0  0  0  0
   15.9269  -19.2773    7.3394 C   0  0  0  0  0  0  0  0  0  0  0  0
   17.1120  -20.5121    5.3553 C   0  0  0  0  0  0  0  0  0  0  0  0
   17.6049  -21.6156    5.7833 O   0  0  0  0  0  0  0  0  0  0  0  0
   15.8287  -20.4664    4.8509 O   0  0  0  0  0  0  0  0  0  0  0  0
  2  3  2  0
  2  1  1  0
  4  2  1  0
  5  4  1  0
  5  6  1  1
  7  8  2  0
  7  5  1  0
  9 10  1  0
 10 20  2  0
 10 11  1  0
 11 12  2  0
 12 13  1  0
 13 14  1  0
 15 14  1  6
 15 16  1  0
 16  7  1  0
 17 15  1  0
 17 21  1  0
 18 17  2  0
 19 13  2  0
 20 19  1  0
 22 21  1  0
 22 30  1  0
 22 23  1  1
 24 23  1  0
 25 24  2  0
 26 25  1  0
 27 26  2  0
 27 28  1  0
 28 29  2  0
 29 24  1  0
 30 32  1  0
 31 30  2  0
M  END
$$$$
