NYF.pdb
     RDKit          3D

 32 33  0  0  1  0  0  0  0  0999 V2000
   21.0519   -9.8586  -13.2697 N   0  0  0  0  0  0  0  0  0  0  0  0
   21.4305   -8.4814  -13.3333 C   0  0  0  0  0  0  0  0  0  0  0  0
   22.5980   -8.1652  -13.0182 O   0  0  0  0  0  0  0  0  0  0  0  0
   20.4124   -7.4598  -13.7769 C   0  0  0  0  0  0  0  0  0  0  0  0
   19.1331   -8.2750  -14.0326 C   0  0  2  0  0  0  0  0  0  0  0  0
   19.2224   -8.6427  -15.4559 N   0  0  0  0  0  0  0  0  0  0  0  0
   17.9327   -7.4522  -13.8068 C   0  0  0  0  0  0  0  0  0  0  0  0
   18.1182   -6.2093  -13.5781 O   0  0  0  0  0  0  0  0  0  0  0  0
   10.1199   -3.6857  -14.2496 O   0  0  0  0  0  0  0  0  0  0  0  0
   11.1591   -4.6132  -14.3583 C   0  0  0  0  0  0  0  0  0  0  0  0
   12.3655   -4.1744  -14.8640 C   0  0  0  0  0  0  0  0  0  0  0  0
   13.4357   -5.0446  -14.9974 C   0  0  0  0  0  0  0  0  0  0  0  0
   13.3129   -6.3797  -14.6245 C   0  0  0  0  0  0  0  0  0  0  0  0
   14.4717   -7.2493  -14.7866 C   0  0  0  0  0  0  0  0  0  0  0  0
   15.5158   -7.0302  -13.7001 C   0  0  2  0  0  0  0  0  0  0  0  0
   16.6078   -7.9468  -13.8274 N   0  0  0  0  0  0  0  0  0  0  0  0
   14.8178   -7.2846  -12.4163 C   0  0  0  0  0  0  0  0  0  0  0  0
   14.5493   -8.4790  -12.1228 O   0  0  0  0  0  0  0  0  0  0  0  0
   12.1164   -6.7952  -14.1283 C   0  0  0  0  0  0  0  0  0  0  0  0
   11.0326   -5.9260  -13.9889 C   0  0  0  0  0  0  0  0  0  0  0  0
   14.4294   -6.2949  -11.4966 N   0  0  0  0  0  0  0  0  0  0  0  0
   13.6317   -6.5563  -10.3125 C   0  0  1  0  0  0  0  0  0  0  0  0
   14.4819   -6.6228   -9.0797 C   0  0  0  0  0  0  0  0  0  0  0  0
   13.6658   -6.8616   -7.8811 C   0  0  0  0  0  0  0  0  0  0  0  0
   13.3556   -5.7812   -7.0680 C   0  0  0  0  0  0  0  0  0  0  0  0
   12.5931   -5.8960   -5.9201 C   0  0  0  0  0  0  0  0  0  0  0  0
   12.1256   -7.1288   -5.5750 C   0  0  0  0  0  0  0  0  0  0  0  0
   12.4303   -8.2144   -6.3833 C   0  0  0  0  0  0  0  0  0  0  0  0
   13.1894   -8.1077   -7.5273 C   0  0  0  0  0  0  0  0  0  0  0  0
   12.5476   -5.5941  -10.2240 C   0  0  0  0  0  0  0  0  0  0  0  0
   12.7208   -4.4312  -10.7356 O   0  0  0  0  0  0  0  0  0  0  0  0
   11.3569   -5.9183   -9.6071 O   0  0  0  0  0  0  0  0  0  0  0  0
  2  3  2  0
  2  1  1  0
  4  2  1  0
  5  4  1  0
  5  6  1  6
  7  8  2  0
  7  5  1  0
  9 10  1  0
 10 20  2  0
 10 11  1  0
 11 12  2  0
 12 13  1  0
 13 14  1  0
 15 14  1  6
 15 16  1  0
 16  7  1  0
 17 15  1  0
 17 21  1  0
 18 17  2  0
 19 13  2  0
 20 19  1  0
 22 21  1  0
 22 30  1  0
 22 23  1  1
 24 23  1  0
 25 24  2  0
 26 25  1  0
 27 26  2  0
 27 28  1  0
 28 29  2  0
 29 24  1  0
 30 32  1  0
 31 30  2  0
M  END
$$$$
