NYF.pdb
     RDKit          3D

 32 33  0  0  1  0  0  0  0  0999 V2000
   25.5962  -14.2988  -16.3702 N   0  0  0  0  0  0  0  0  0  0  0  0
   26.2690  -13.1407  -15.8700 C   0  0  0  0  0  0  0  0  0  0  0  0
   27.2513  -13.2978  -15.1132 O   0  0  0  0  0  0  0  0  0  0  0  0
   25.7728  -11.7731  -16.2706 C   0  0  0  0  0  0  0  0  0  0  0  0
   24.4350  -12.0403  -16.9815 C   0  0  2  0  0  0  0  0  0  0  0  0
   24.8289  -12.6091  -18.2816 N   0  0  0  0  0  0  0  0  0  0  0  0
   23.6933  -10.7857  -17.1927 C   0  0  0  0  0  0  0  0  0  0  0  0
   24.0497  -10.0630  -18.1837 O   0  0  0  0  0  0  0  0  0  0  0  0
   17.4905  -13.3624  -15.1641 O   0  0  0  0  0  0  0  0  0  0  0  0
   18.2496  -12.3150  -15.6922 C   0  0  0  0  0  0  0  0  0  0  0  0
   19.2188  -12.6261  -16.6236 C   0  0  0  0  0  0  0  0  0  0  0  0
   20.0055  -11.6332  -17.1852 C   0  0  0  0  0  0  0  0  0  0  0  0
   19.8335  -10.3019  -16.8186 C   0  0  0  0  0  0  0  0  0  0  0  0
   20.6891   -9.2998  -17.4422 C   0  0  0  0  0  0  0  0  0  0  0  0
   21.9899   -9.0932  -16.6779 C   0  0  2  0  0  0  0  0  0  0  0  0
   22.6271  -10.3393  -16.3776 N   0  0  0  0  0  0  0  0  0  0  0  0
   21.6078   -8.4270  -15.4090 C   0  0  0  0  0  0  0  0  0  0  0  0
   21.3718   -9.1584  -14.4120 O   0  0  0  0  0  0  0  0  0  0  0  0
   18.8737  -10.0132  -15.8988 C   0  0  0  0  0  0  0  0  0  0  0  0
   18.0751  -11.0062  -15.3281 C   0  0  0  0  0  0  0  0  0  0  0  0
   21.4866   -7.0381  -15.2290 N   0  0  0  0  0  0  0  0  0  0  0  0
   21.0503   -6.4154  -13.9927 C   0  0  1  0  0  0  0  0  0  0  0  0
   22.1648   -5.6605  -13.3333 C   0  0  0  0  0  0  0  0  0  0  0  0
   22.6698   -4.5880  -14.2019 C   0  0  0  0  0  0  0  0  0  0  0  0
   23.7051   -4.8807  -15.0777 C   0  0  0  0  0  0  0  0  0  0  0  0
   24.2510   -3.9463  -15.9388 C   0  0  0  0  0  0  0  0  0  0  0  0
   23.7454   -2.6808  -15.9244 C   0  0  0  0  0  0  0  0  0  0  0  0
   22.7092   -2.3800  -15.0523 C   0  0  0  0  0  0  0  0  0  0  0  0
   22.1612   -3.3050  -14.1918 C   0  0  0  0  0  0  0  0  0  0  0  0
   19.8637   -5.6138  -14.2343 C   0  0  0  0  0  0  0  0  0  0  0  0
   19.4937   -5.4220  -15.4469 O   0  0  0  0  0  0  0  0  0  0  0  0
   19.1466   -5.0707  -13.1883 O   0  0  0  0  0  0  0  0  0  0  0  0
  2  3  2  0
  2  1  1  0
  4  2  1  0
  5  4  1  0
  5  6  1  6
  7  8  2  0
  7  5  1  0
  9 10  1  0
 10 20  2  0
 10 11  1  0
 11 12  2  0
 12 13  1  0
 13 14  1  0
 15 14  1  6
 15 16  1  0
 16  7  1  0
 17 15  1  0
 17 21  1  0
 18 17  2  0
 19 13  2  0
 20 19  1  0
 22 21  1  0
 22 30  1  0
 22 23  1  6
 24 23  1  0
 25 24  2  0
 26 25  1  0
 27 26  2  0
 27 28  1  0
 28 29  2  0
 29 24  1  0
 30 32  1  0
 31 30  2  0
M  END
$$$$
