NYF.pdb
     RDKit          3D

 32 33  0  0  1  0  0  0  0  0999 V2000
   37.5343   -5.8925  -15.9435 N   0  0  0  0  0  0  0  0  0  0  0  0
   37.7792   -7.1979  -15.4141 C   0  0  0  0  0  0  0  0  0  0  0  0
   37.4252   -8.1925  -16.0833 O   0  0  0  0  0  0  0  0  0  0  0  0
   38.4540   -7.3308  -14.0710 C   0  0  0  0  0  0  0  0  0  0  0  0
   38.5560   -5.8885  -13.5455 C   0  0  2  0  0  0  0  0  0  0  0  0
   39.7388   -5.3413  -14.2315 N   0  0  0  0  0  0  0  0  0  0  0  0
   38.7761   -5.8750  -12.0894 C   0  0  0  0  0  0  0  0  0  0  0  0
   39.9258   -6.2459  -11.6748 O   0  0  0  0  0  0  0  0  0  0  0  0
   38.5242   -4.5600   -3.4486 O   0  0  0  0  0  0  0  0  0  0  0  0
   38.1476   -4.6202   -4.7927 C   0  0  0  0  0  0  0  0  0  0  0  0
   38.8180   -3.8117   -5.6875 C   0  0  0  0  0  0  0  0  0  0  0  0
   38.4922   -3.8243   -7.0344 C   0  0  0  0  0  0  0  0  0  0  0  0
   37.4804   -4.6528   -7.5101 C   0  0  0  0  0  0  0  0  0  0  0  0
   37.1810   -4.6248   -8.9365 C   0  0  0  0  0  0  0  0  0  0  0  0
   38.1545   -5.4683   -9.7486 C   0  0  2  0  0  0  0  0  0  0  0  0
   37.8068   -5.4826  -11.1371 N   0  0  0  0  0  0  0  0  0  0  0  0
   38.0407   -6.8445   -9.2072 C   0  0  0  0  0  0  0  0  0  0  0  0
   37.0443   -7.5301   -9.5561 O   0  0  0  0  0  0  0  0  0  0  0  0
   36.8298   -5.4430   -6.6139 C   0  0  0  0  0  0  0  0  0  0  0  0
   37.1514   -5.4384   -5.2552 C   0  0  0  0  0  0  0  0  0  0  0  0
   38.9599   -7.4478   -8.3313 N   0  0  0  0  0  0  0  0  0  0  0  0
   38.7781   -8.7630   -7.7447 C   0  0  1  0  0  0  0  0  0  0  0  0
   39.0034   -9.8506   -8.7512 C   0  0  0  0  0  0  0  0  0  0  0  0
   38.3405  -11.0981   -8.3461 C   0  0  0  0  0  0  0  0  0  0  0  0
   37.6855  -11.8425   -9.3164 C   0  0  0  0  0  0  0  0  0  0  0  0
   37.0332  -13.0308   -9.0424 C   0  0  0  0  0  0  0  0  0  0  0  0
   37.0369  -13.4893   -7.7590 C   0  0  0  0  0  0  0  0  0  0  0  0
   37.6906  -12.7514   -6.7828 C   0  0  0  0  0  0  0  0  0  0  0  0
   38.3416  -11.5673   -7.0482 C   0  0  0  0  0  0  0  0  0  0  0  0
   39.5974   -8.8905   -6.5524 C   0  0  0  0  0  0  0  0  0  0  0  0
   39.2525   -9.7484   -5.6642 O   0  0  0  0  0  0  0  0  0  0  0  0
   40.7221   -8.1113   -6.3752 O   0  0  0  0  0  0  0  0  0  0  0  0
  2  3  2  0
  2  1  1  0
  4  2  1  0
  5  4  1  0
  5  6  1  6
  7  8  2  0
  7  5  1  0
  9 10  1  0
 10 20  2  0
 10 11  1  0
 11 12  2  0
 12 13  1  0
 13 14  1  0
 15 14  1  1
 15 16  1  0
 16  7  1  0
 17 15  1  0
 17 21  1  0
 18 17  2  0
 19 13  2  0
 20 19  1  0
 22 21  1  0
 22 30  1  0
 22 23  1  6
 24 23  1  0
 25 24  2  0
 26 25  1  0
 27 26  2  0
 27 28  1  0
 28 29  2  0
 29 24  1  0
 30 32  1  0
 31 30  2  0
M  END
$$$$
