HET.pdb
     RDKit          3D

 27 27  0  0  1  0  0  0  0  0999 V2000
   25.6210  -28.8071  -16.8826 N   0  0  0  0  0  0  0  0  0  0  0  0
   25.8701  -30.1969  -16.6109 C   0  0  1  0  0  0  0  0  0  0  0  0
   27.2985  -30.4963  -16.2714 C   0  0  0  0  0  0  0  0  0  0  0  0
   28.0978  -30.4554  -17.5124 C   0  0  0  0  0  0  0  0  0  0  0  0
   28.3365  -29.3136  -18.2780 C   0  0  0  0  0  0  0  0  0  0  0  0
   29.0967  -29.6792  -19.3176 N   0  0  0  0  0  0  0  0  0  0  0  0
   29.3357  -30.9903  -19.2259 C   0  0  0  0  0  0  0  0  0  0  0  0
   28.7318  -31.4638  -18.1332 N   0  0  0  0  0  0  0  0  0  0  0  0
   24.9384  -30.6442  -15.5371 C   0  0  0  0  0  0  0  0  0  0  0  0
   24.5593  -29.8671  -14.6148 O   0  0  0  0  0  0  0  0  0  0  0  0
   24.4183  -31.9778  -15.4861 N   0  0  0  0  0  0  0  0  0  0  0  0
   23.5196  -32.3821  -14.4439 C   0  0  1  0  0  0  0  0  0  0  0  0
   22.4862  -33.3810  -14.8425 C   0  0  0  0  0  0  0  0  0  0  0  0
   21.5735  -33.0442  -15.9522 C   0  0  0  0  0  0  0  0  0  0  0  0
   20.5758  -34.0484  -16.3414 C   0  0  0  0  0  0  0  0  0  0  0  0
   20.5592  -35.1498  -15.7297 O   0  0  0  0  0  0  0  0  0  0  0  0
   24.2662  -32.8614  -13.2347 C   0  0  0  0  0  0  0  0  0  0  0  0
   25.3788  -33.4401  -13.3262 O   0  0  0  0  0  0  0  0  0  0  0  0
   19.6448  -33.8607  -17.3456 O   0  0  0  0  0  0  0  0  0  0  0  0
   22.9364  -31.7188   -9.3784 C   0  0  0  0  0  0  0  0  0  0  0  0
   24.3695  -31.9989   -9.7370 C   0  0  1  0  0  0  0  0  0  0  0  0
   25.0420  -32.3495   -8.5673 O   0  0  0  0  0  0  0  0  0  0  0  0
   24.4954  -33.0909  -10.7834 C   0  0  2  0  0  0  0  0  0  0  0  0
   23.7261  -32.6695  -11.9365 N   0  0  0  0  0  0  0  0  0  0  0  0
   23.9632  -34.3338  -10.1820 C   0  0  0  0  0  0  0  0  0  0  0  0
   24.6228  -34.9544   -9.1347 O   0  0  0  0  0  0  0  0  0  0  0  0
   22.9052  -34.8671  -10.5939 O   0  0  0  0  0  0  0  0  0  0  0  0
  2  1  1  1
  2  3  1  0
  4  3  1  0
  4  8  1  0
  5  6  1  0
  5  4  2  0
  6  7  1  0
  7  8  2  0
  9  2  1  0
  9 10  2  0
 11  9  1  0
 12 11  1  0
 12 13  1  6
 14 13  1  0
 15 14  1  0
 16 15  2  0
 17 12  1  0
 17 18  2  0
 19 15  1  0
 21 20  1  1
 21 23  1  0
 22 21  1  0
 23 24  1  6
 23 25  1  0
 24 17  1  0
 25 26  1  0
 27 25  2  0
M  END
$$$$
