HET.pdb
     RDKit          3D

 27 27  0  0  1  0  0  0  0  0999 V2000
   17.3023  -11.1294  -16.6530 N   0  0  0  0  0  0  0  0  0  0  0  0
   17.5750   -9.7965  -17.1184 C   0  0  1  0  0  0  0  0  0  0  0  0
   16.4417   -8.8406  -16.9013 C   0  0  0  0  0  0  0  0  0  0  0  0
   15.2789   -9.2998  -17.6873 C   0  0  0  0  0  0  0  0  0  0  0  0
   14.8494   -8.7391  -18.8906 C   0  0  0  0  0  0  0  0  0  0  0  0
   13.7724   -9.4257  -19.2915 N   0  0  0  0  0  0  0  0  0  0  0  0
   13.5209  -10.3806  -18.3916 C   0  0  0  0  0  0  0  0  0  0  0  0
   14.4319  -10.3071  -17.4182 N   0  0  0  0  0  0  0  0  0  0  0  0
   18.8341   -9.3196  -16.4793 C   0  0  0  0  0  0  0  0  0  0  0  0
   19.0755   -9.5116  -15.2533 O   0  0  0  0  0  0  0  0  0  0  0  0
   19.8431   -8.6172  -17.2141 N   0  0  0  0  0  0  0  0  0  0  0  0
   21.0530   -8.1818  -16.5787 C   0  0  1  0  0  0  0  0  0  0  0  0
   22.3127   -8.5191  -17.3026 C   0  0  0  0  0  0  0  0  0  0  0  0
   22.5252   -9.9150  -17.7317 C   0  0  0  0  0  0  0  0  0  0  0  0
   23.7893  -10.2347  -18.4062 C   0  0  0  0  0  0  0  0  0  0  0  0
   24.7974   -9.5175  -18.1680 O   0  0  0  0  0  0  0  0  0  0  0  0
   21.0093   -6.7153  -16.2680 C   0  0  0  0  0  0  0  0  0  0  0  0
   20.8553   -5.8494  -17.1667 O   0  0  0  0  0  0  0  0  0  0  0  0
   23.9455  -11.2825  -19.2940 O   0  0  0  0  0  0  0  0  0  0  0  0
   18.6748   -4.6911  -15.0848 C   0  0  0  0  0  0  0  0  0  0  0  0
   19.7823   -4.4890  -14.0882 C   0  0  1  0  0  0  0  0  0  0  0  0
   19.4991   -5.2718  -12.9700 O   0  0  0  0  0  0  0  0  0  0  0  0
   21.1423   -4.8378  -14.6644 C   0  0  2  0  0  0  0  0  0  0  0  0
   21.1421   -6.2620  -14.9298 N   0  0  0  0  0  0  0  0  0  0  0  0
   22.1540   -4.4591  -13.6531 C   0  0  0  0  0  0  0  0  0  0  0  0
   22.4180   -3.1283  -13.3770 O   0  0  0  0  0  0  0  0  0  0  0  0
   22.8044   -5.3205  -13.0139 O   0  0  0  0  0  0  0  0  0  0  0  0
  2  1  1  1
  2  3  1  0
  4  3  1  0
  4  8  1  0
  5  6  1  0
  5  4  2  0
  6  7  1  0
  7  8  2  0
  9  2  1  0
  9 10  2  0
 11  9  1  0
 12 11  1  0
 12 13  1  6
 14 13  1  0
 15 14  1  0
 16 15  2  0
 17 12  1  0
 17 18  2  0
 19 15  1  0
 21 20  1  6
 21 23  1  0
 22 21  1  0
 23 24  1  1
 23 25  1  0
 24 17  1  0
 25 26  1  0
 27 25  2  0
M  END
$$$$
