HET.pdb
     RDKit          3D

 27 27  0  0  1  0  0  0  0  0999 V2000
   18.1541  -14.7837  -15.9779 N   0  0  0  0  0  0  0  0  0  0  0  0
   17.8428  -13.4902  -16.5231 C   0  0  1  0  0  0  0  0  0  0  0  0
   16.4181  -13.0764  -16.3130 C   0  0  0  0  0  0  0  0  0  0  0  0
   15.5382  -14.0530  -16.9860 C   0  0  0  0  0  0  0  0  0  0  0  0
   15.5750  -14.3657  -18.3452 C   0  0  0  0  0  0  0  0  0  0  0  0
   14.6303  -15.2871  -18.5708 N   0  0  0  0  0  0  0  0  0  0  0  0
   14.0161  -15.5544  -17.4150 C   0  0  0  0  0  0  0  0  0  0  0  0
   14.5638  -14.8083  -16.4525 N   0  0  0  0  0  0  0  0  0  0  0  0
   18.7990  -12.4956  -15.9594 C   0  0  0  0  0  0  0  0  0  0  0  0
   18.7795  -12.1675  -14.7387 O   0  0  0  0  0  0  0  0  0  0  0  0
   19.7943  -11.8539  -16.7650 N   0  0  0  0  0  0  0  0  0  0  0  0
   20.7721  -10.9834  -16.1789 C   0  0  1  0  0  0  0  0  0  0  0  0
   22.1837  -11.2418  -16.5852 C   0  0  0  0  0  0  0  0  0  0  0  0
   22.8030  -12.5248  -16.2001 C   0  0  0  0  0  0  0  0  0  0  0  0
   24.1581  -12.8013  -16.6925 C   0  0  0  0  0  0  0  0  0  0  0  0
   24.3076  -13.1061  -17.9058 O   0  0  0  0  0  0  0  0  0  0  0  0
   20.4231   -9.5419  -16.4014 C   0  0  0  0  0  0  0  0  0  0  0  0
   20.3489   -9.0460  -17.5546 O   0  0  0  0  0  0  0  0  0  0  0  0
   25.2909  -12.7480  -15.9024 O   0  0  0  0  0  0  0  0  0  0  0  0
   17.4075   -7.7434  -15.7759 C   0  0  0  0  0  0  0  0  0  0  0  0
   18.4731   -7.0305  -14.9902 C   0  0  1  0  0  0  0  0  0  0  0  0
   18.3759   -7.4466  -13.6633 O   0  0  0  0  0  0  0  0  0  0  0  0
   19.8628   -7.2926  -15.5407 C   0  0  2  0  0  0  0  0  0  0  0  0
   20.1631   -8.6889  -15.2975 N   0  0  0  0  0  0  0  0  0  0  0  0
   20.7920   -6.3897  -14.8257 C   0  0  0  0  0  0  0  0  0  0  0  0
   20.7113   -5.0168  -14.9860 O   0  0  0  0  0  0  0  0  0  0  0  0
   21.6789   -6.8291  -14.0552 O   0  0  0  0  0  0  0  0  0  0  0  0
  2  1  1  1
  2  3  1  0
  4  3  1  0
  4  8  1  0
  5  6  1  0
  5  4  2  0
  6  7  1  0
  7  8  2  0
  9  2  1  0
  9 10  2  0
 11  9  1  0
 12 11  1  0
 12 13  1  6
 14 13  1  0
 15 14  1  0
 16 15  2  0
 17 12  1  0
 17 18  2  0
 19 15  1  0
 21 20  1  6
 21 23  1  0
 22 21  1  0
 23 24  1  1
 23 25  1  0
 24 17  1  0
 25 26  1  0
 27 25  2  0
M  END
$$$$
