HET.pdb
     RDKit          3D

 27 27  0  0  1  0  0  0  0  0999 V2000
   24.1776  -13.6542  -19.2796 N   0  0  0  0  0  0  0  0  0  0  0  0
   25.5732  -13.8485  -19.5658 C   0  0  1  0  0  0  0  0  0  0  0  0
   25.8285  -14.8024  -20.6927 C   0  0  0  0  0  0  0  0  0  0  0  0
   25.1757  -16.0895  -20.3795 C   0  0  0  0  0  0  0  0  0  0  0  0
   25.1637  -16.7009  -19.1254 C   0  0  0  0  0  0  0  0  0  0  0  0
   24.4774  -17.8444  -19.2430 N   0  0  0  0  0  0  0  0  0  0  0  0
   24.0681  -17.9633  -20.5091 C   0  0  0  0  0  0  0  0  0  0  0  0
   24.4896  -16.9016  -21.2005 N   0  0  0  0  0  0  0  0  0  0  0  0
   26.1962  -12.5173  -19.8129 C   0  0  0  0  0  0  0  0  0  0  0  0
   27.3582  -12.4030  -20.2975 O   0  0  0  0  0  0  0  0  0  0  0  0
   25.5174  -11.2913  -19.5168 N   0  0  0  0  0  0  0  0  0  0  0  0
   26.1178  -10.0229  -19.8129 C   0  0  1  0  0  0  0  0  0  0  0  0
   25.1625   -8.9182  -20.1155 C   0  0  0  0  0  0  0  0  0  0  0  0
   24.3046   -9.0376  -21.3103 C   0  0  0  0  0  0  0  0  0  0  0  0
   23.3128   -7.9808  -21.5443 C   0  0  0  0  0  0  0  0  0  0  0  0
   23.7034   -6.7833  -21.5713 O   0  0  0  0  0  0  0  0  0  0  0  0
   27.0707   -9.6045  -18.7330 C   0  0  0  0  0  0  0  0  0  0  0  0
   26.6691   -9.1895  -17.6160 O   0  0  0  0  0  0  0  0  0  0  0  0
   21.9652   -8.2183  -21.7390 O   0  0  0  0  0  0  0  0  0  0  0  0
   29.7901  -11.5407  -17.0937 C   0  0  0  0  0  0  0  0  0  0  0  0
   30.3976  -10.2996  -17.6866 C   0  0  1  0  0  0  0  0  0  0  0  0
   31.0122  -10.6559  -18.8861 O   0  0  0  0  0  0  0  0  0  0  0  0
   29.3676   -9.2073  -17.9083 C   0  0  2  0  0  0  0  0  0  0  0  0
   28.4717   -9.6686  -18.9492 N   0  0  0  0  0  0  0  0  0  0  0  0
   30.1050   -7.9879  -18.3073 C   0  0  0  0  0  0  0  0  0  0  0  0
   30.0267   -7.5030  -19.6018 O   0  0  0  0  0  0  0  0  0  0  0  0
   30.8215   -7.3536  -17.4963 O   0  0  0  0  0  0  0  0  0  0  0  0
  2  1  1  6
  2  3  1  0
  4  3  1  0
  4  8  1  0
  5  6  1  0
  5  4  2  0
  6  7  1  0
  7  8  2  0
  9  2  1  0
  9 10  2  0
 11  9  1  0
 12 11  1  0
 12 13  1  1
 14 13  1  0
 15 14  1  0
 16 15  2  0
 17 12  1  0
 17 18  2  0
 19 15  1  0
 21 20  1  6
 21 23  1  0
 22 21  1  0
 23 24  1  6
 23 25  1  0
 24 17  1  0
 25 26  1  0
 27 25  2  0
M  END
$$$$
