HET.pdb
     RDKit          3D

 27 27  0  0  1  0  0  0  0  0999 V2000
   20.0459  -11.8053  -17.9186 N   0  0  0  0  0  0  0  0  0  0  0  0
   19.3248  -10.8768  -17.0907 C   0  0  1  0  0  0  0  0  0  0  0  0
   19.0768  -11.3783  -15.7006 C   0  0  0  0  0  0  0  0  0  0  0  0
   18.1696  -12.5414  -15.7727 C   0  0  0  0  0  0  0  0  0  0  0  0
   16.7913  -12.4747  -15.9789 C   0  0  0  0  0  0  0  0  0  0  0  0
   16.3246  -13.7295  -15.9810 N   0  0  0  0  0  0  0  0  0  0  0  0
   17.3508  -14.5623  -15.7860 C   0  0  0  0  0  0  0  0  0  0  0  0
   18.4703  -13.8456  -15.6593 N   0  0  0  0  0  0  0  0  0  0  0  0
   20.0537   -9.5769  -17.0904 C   0  0  0  0  0  0  0  0  0  0  0  0
   21.1987   -9.4530  -16.5689 O   0  0  0  0  0  0  0  0  0  0  0  0
   19.5020   -8.3936  -17.6792 N   0  0  0  0  0  0  0  0  0  0  0  0
   20.1951   -7.1398  -17.6090 C   0  0  1  0  0  0  0  0  0  0  0  0
   19.8424   -6.1537  -18.6709 C   0  0  0  0  0  0  0  0  0  0  0  0
   18.9039   -6.5679  -19.7318 C   0  0  0  0  0  0  0  0  0  0  0  0
   18.0029   -5.5468  -20.2802 C   0  0  0  0  0  0  0  0  0  0  0  0
   18.0746   -4.3737  -19.8263 O   0  0  0  0  0  0  0  0  0  0  0  0
   20.0566   -6.5147  -16.2528 C   0  0  0  0  0  0  0  0  0  0  0  0
   18.9400   -6.1641  -15.7931 O   0  0  0  0  0  0  0  0  0  0  0  0
   17.0723   -5.7928  -21.2721 O   0  0  0  0  0  0  0  0  0  0  0  0
   22.6030   -7.6091  -13.3684 C   0  0  0  0  0  0  0  0  0  0  0  0
   21.2637   -6.9619  -13.1485 C   0  0  1  0  0  0  0  0  0  0  0  0
   21.2041   -6.5441  -11.8199 O   0  0  0  0  0  0  0  0  0  0  0  0
   21.0272   -5.7988  -14.0942 C   0  0  2  0  0  0  0  0  0  0  0  0
   21.2014   -6.3008  -15.4420 N   0  0  0  0  0  0  0  0  0  0  0  0
   22.0188   -4.7538  -13.7559 C   0  0  0  0  0  0  0  0  0  0  0  0
   23.0197   -4.4096  -14.6486 O   0  0  0  0  0  0  0  0  0  0  0  0
   21.9907   -4.1462  -12.6589 O   0  0  0  0  0  0  0  0  0  0  0  0
  2  1  1  6
  2  3  1  0
  4  3  1  0
  4  8  1  0
  5  6  1  0
  5  4  2  0
  6  7  1  0
  7  8  2  0
  9  2  1  0
  9 10  2  0
 11  9  1  0
 12 11  1  0
 12 13  1  6
 14 13  1  0
 15 14  1  0
 16 15  2  0
 17 12  1  0
 17 18  2  0
 19 15  1  0
 21 20  1  6
 21 23  1  0
 22 21  1  0
 23 24  1  6
 23 25  1  0
 24 17  1  0
 25 26  1  0
 27 25  2  0
M  END
$$$$
