HET.pdb
     RDKit          3D

 27 27  0  0  1  0  0  0  0  0999 V2000
   13.0257  -25.1005   -1.5323 N   0  0  0  0  0  0  0  0  0  0  0  0
   13.9392  -24.1158   -1.0192 C   0  0  1  0  0  0  0  0  0  0  0  0
   13.3871  -22.7229   -1.0255 C   0  0  0  0  0  0  0  0  0  0  0  0
   13.1370  -22.3199   -2.4240 C   0  0  0  0  0  0  0  0  0  0  0  0
   11.8834  -22.0392   -2.9682 C   0  0  0  0  0  0  0  0  0  0  0  0
   12.0676  -21.7136   -4.2536 N   0  0  0  0  0  0  0  0  0  0  0  0
   13.3742  -21.7812   -4.5236 C   0  0  0  0  0  0  0  0  0  0  0  0
   14.0251  -22.1484   -3.4171 N   0  0  0  0  0  0  0  0  0  0  0  0
   14.3721  -24.5356    0.3438 C   0  0  0  0  0  0  0  0  0  0  0  0
   13.5400  -24.8555    1.2402 O   0  0  0  0  0  0  0  0  0  0  0  0
   15.7530  -24.6014    0.7183 N   0  0  0  0  0  0  0  0  0  0  0  0
   16.1466  -25.0761    2.0133 C   0  0  1  0  0  0  0  0  0  0  0  0
   16.9320  -26.3440    2.0181 C   0  0  0  0  0  0  0  0  0  0  0  0
   16.3169  -27.5547    1.4403 C   0  0  0  0  0  0  0  0  0  0  0  0
   17.1039  -28.7938    1.4606 C   0  0  0  0  0  0  0  0  0  0  0  0
   18.2906  -28.7469    1.8814 O   0  0  0  0  0  0  0  0  0  0  0  0
   16.8694  -24.0143    2.7875 C   0  0  0  0  0  0  0  0  0  0  0  0
   17.7627  -23.3011    2.2636 O   0  0  0  0  0  0  0  0  0  0  0  0
   16.6213  -30.0201    1.0439 O   0  0  0  0  0  0  0  0  0  0  0  0
   15.6166  -20.9476    4.6014 C   0  0  0  0  0  0  0  0  0  0  0  0
   16.2880  -21.8818    5.5695 C   0  0  1  0  0  0  0  0  0  0  0  0
   15.2951  -22.6336    6.1961 O   0  0  0  0  0  0  0  0  0  0  0  0
   17.3013  -22.7825    4.8875 C   0  0  2  0  0  0  0  0  0  0  0  0
   16.5569  -23.7848    4.1526 N   0  0  0  0  0  0  0  0  0  0  0  0
   18.1394  -23.3790    5.9513 C   0  0  0  0  0  0  0  0  0  0  0  0
   18.9568  -22.5863    6.7390 O   0  0  0  0  0  0  0  0  0  0  0  0
   18.1412  -24.6128    6.1776 O   0  0  0  0  0  0  0  0  0  0  0  0
  2  1  1  1
  2  3  1  0
  4  3  1  0
  4  8  1  0
  5  6  1  0
  5  4  2  0
  6  7  1  0
  7  8  2  0
  9  2  1  0
  9 10  2  0
 11  9  1  0
 12 11  1  0
 12 13  1  6
 14 13  1  0
 15 14  1  0
 16 15  2  0
 17 12  1  0
 17 18  2  0
 19 15  1  0
 21 20  1  6
 21 23  1  0
 22 21  1  0
 23 24  1  1
 23 25  1  0
 24 17  1  0
 25 26  1  0
 27 25  2  0
M  END
$$$$
