HET.pdb
     RDKit          3D

 27 27  0  0  1  0  0  0  0  0999 V2000
   18.0223  -11.9051  -18.1026 N   0  0  0  0  0  0  0  0  0  0  0  0
   18.1534  -11.4986  -16.7297 C   0  0  1  0  0  0  0  0  0  0  0  0
   19.1484  -12.3085  -15.9555 C   0  0  0  0  0  0  0  0  0  0  0  0
   18.6564  -13.6977  -15.8619 C   0  0  0  0  0  0  0  0  0  0  0  0
   17.3397  -14.0678  -15.5863 C   0  0  0  0  0  0  0  0  0  0  0  0
   17.2906  -15.4057  -15.5856 N   0  0  0  0  0  0  0  0  0  0  0  0
   18.5141  -15.8736  -15.8477 C   0  0  0  0  0  0  0  0  0  0  0  0
   19.3442  -14.8413  -16.0156 N   0  0  0  0  0  0  0  0  0  0  0  0
   18.4741  -10.0435  -16.6947 C   0  0  0  0  0  0  0  0  0  0  0  0
   19.5766   -9.5920  -17.1177 O   0  0  0  0  0  0  0  0  0  0  0  0
   17.5549   -9.0726  -16.1812 N   0  0  0  0  0  0  0  0  0  0  0  0
   17.8900   -7.6783  -16.1538 C   0  0  1  0  0  0  0  0  0  0  0  0
   16.7385   -6.7471  -15.9768 C   0  0  0  0  0  0  0  0  0  0  0  0
   15.6086   -6.8380  -16.9217 C   0  0  0  0  0  0  0  0  0  0  0  0
   14.3089   -6.3169  -16.4807 C   0  0  0  0  0  0  0  0  0  0  0  0
   14.2071   -5.0864  -16.2296 O   0  0  0  0  0  0  0  0  0  0  0  0
   18.9513   -7.3919  -15.1336 C   0  0  0  0  0  0  0  0  0  0  0  0
   18.8229   -7.7269  -13.9284 O   0  0  0  0  0  0  0  0  0  0  0  0
   13.1793   -7.0974  -16.3221 O   0  0  0  0  0  0  0  0  0  0  0  0
   22.2927   -8.6610  -14.8238 C   0  0  0  0  0  0  0  0  0  0  0  0
   22.4193   -7.1664  -14.9277 C   0  0  1  0  0  0  0  0  0  0  0  0
   22.7465   -6.8560  -16.2468 O   0  0  0  0  0  0  0  0  0  0  0  0
   21.1496   -6.4528  -14.5014 C   0  0  2  0  0  0  0  0  0  0  0  0
   20.1461   -6.7253  -15.5102 N   0  0  0  0  0  0  0  0  0  0  0  0
   21.4702   -5.0111  -14.4090 C   0  0  0  0  0  0  0  0  0  0  0  0
   20.9079   -4.1013  -15.2883 O   0  0  0  0  0  0  0  0  0  0  0  0
   22.2555   -4.5629  -13.5395 O   0  0  0  0  0  0  0  0  0  0  0  0
  2  1  1  6
  2  3  1  0
  4  3  1  0
  4  8  1  0
  5  6  1  0
  5  4  2  0
  6  7  1  0
  7  8  2  0
  9  2  1  0
  9 10  2  0
 11  9  1  0
 12 11  1  0
 12 13  1  1
 14 13  1  0
 15 14  1  0
 16 15  2  0
 17 12  1  0
 17 18  2  0
 19 15  1  0
 21 20  1  6
 21 23  1  0
 22 21  1  0
 23 24  1  6
 23 25  1  0
 24 17  1  0
 25 26  1  0
 27 25  2  0
M  END
$$$$
