HET.pdb
     RDKit          3D

 27 27  0  0  1  0  0  0  0  0999 V2000
   22.5889  -12.3476  -17.8047 N   0  0  0  0  0  0  0  0  0  0  0  0
   21.7385  -11.3019  -18.3053 C   0  0  1  0  0  0  0  0  0  0  0  0
   20.5973  -11.8020  -19.1377 C   0  0  0  0  0  0  0  0  0  0  0  0
   21.1222  -12.2340  -20.4487 C   0  0  0  0  0  0  0  0  0  0  0  0
   21.6220  -13.5046  -20.7358 C   0  0  0  0  0  0  0  0  0  0  0  0
   21.9989  -13.5068  -22.0204 N   0  0  0  0  0  0  0  0  0  0  0  0
   21.7541  -12.2983  -22.5346 C   0  0  0  0  0  0  0  0  0  0  0  0
   21.2229  -11.5246  -21.5849 N   0  0  0  0  0  0  0  0  0  0  0  0
   21.2682  -10.4812  -17.1536 C   0  0  0  0  0  0  0  0  0  0  0  0
   20.6062  -10.9840  -16.2011 O   0  0  0  0  0  0  0  0  0  0  0  0
   21.5373   -9.0777  -17.0574 N   0  0  0  0  0  0  0  0  0  0  0  0
   20.9958   -8.2922  -15.9865 C   0  0  1  0  0  0  0  0  0  0  0  0
   21.8814   -7.2040  -15.4804 C   0  0  0  0  0  0  0  0  0  0  0  0
   21.4018   -6.3698  -14.3615 C   0  0  0  0  0  0  0  0  0  0  0  0
   22.2758   -5.2852  -13.8979 C   0  0  0  0  0  0  0  0  0  0  0  0
   23.4217   -5.1743  -14.4099 O   0  0  0  0  0  0  0  0  0  0  0  0
   19.6469   -7.7412  -16.3416 C   0  0  0  0  0  0  0  0  0  0  0  0
   19.4240   -7.1912  -17.4501 O   0  0  0  0  0  0  0  0  0  0  0  0
   21.9181   -4.3692  -12.9266 O   0  0  0  0  0  0  0  0  0  0  0  0
   14.8435   -7.8203  -15.6735 C   0  0  0  0  0  0  0  0  0  0  0  0
   16.2196   -8.1550  -15.1682 C   0  0  1  0  0  0  0  0  0  0  0  0
   16.4653   -9.4969  -15.4548 O   0  0  0  0  0  0  0  0  0  0  0  0
   17.2864   -7.2654  -15.7794 C   0  0  2  0  0  0  0  0  0  0  0  0
   18.5716   -7.8294  -15.4198 N   0  0  0  0  0  0  0  0  0  0  0  0
   17.0962   -5.9091  -15.2190 C   0  0  0  0  0  0  0  0  0  0  0  0
   16.3362   -4.9649  -15.8882 O   0  0  0  0  0  0  0  0  0  0  0  0
   17.6110   -5.5667  -14.1276 O   0  0  0  0  0  0  0  0  0  0  0  0
  2  1  1  1
  2  3  1  0
  4  3  1  0
  4  8  1  0
  5  6  1  0
  5  4  2  0
  6  7  1  0
  7  8  2  0
  9  2  1  0
  9 10  2  0
 11  9  1  0
 12 11  1  0
 12 13  1  6
 14 13  1  0
 15 14  1  0
 16 15  2  0
 17 12  1  0
 17 18  2  0
 19 15  1  0
 21 20  1  6
 21 23  1  0
 22 21  1  0
 23 24  1  1
 23 25  1  0
 24 17  1  0
 25 26  1  0
 27 25  2  0
M  END
$$$$
