HET.pdb
     RDKit          3D

 27 27  0  0  1  0  0  0  0  0999 V2000
   24.7800  -11.9897  -18.3666 N   0  0  0  0  0  0  0  0  0  0  0  0
   24.6849  -11.4681  -17.0301 C   0  0  1  0  0  0  0  0  0  0  0  0
   25.9533  -10.8399  -16.5384 C   0  0  0  0  0  0  0  0  0  0  0  0
   26.9804  -11.8924  -16.4032 C   0  0  0  0  0  0  0  0  0  0  0  0
   26.7880  -13.2450  -16.6860 C   0  0  0  0  0  0  0  0  0  0  0  0
   27.9438  -13.8746  -16.4413 N   0  0  0  0  0  0  0  0  0  0  0  0
   28.8357  -12.9727  -16.0221 C   0  0  0  0  0  0  0  0  0  0  0  0
   28.2552  -11.7705  -15.9978 N   0  0  0  0  0  0  0  0  0  0  0  0
   23.5365  -10.5199  -16.9719 C   0  0  0  0  0  0  0  0  0  0  0  0
   23.2610   -9.7444  -17.9316 O   0  0  0  0  0  0  0  0  0  0  0  0
   22.6788  -10.4308  -15.8283 N   0  0  0  0  0  0  0  0  0  0  0  0
   21.5389   -9.5603  -15.8243 C   0  0  1  0  0  0  0  0  0  0  0  0
   20.2648  -10.1772  -15.3544 C   0  0  0  0  0  0  0  0  0  0  0  0
   19.0207   -9.3910  -15.4629 C   0  0  0  0  0  0  0  0  0  0  0  0
   17.7705  -10.0334  -15.0390 C   0  0  0  0  0  0  0  0  0  0  0  0
   17.6061  -11.2567  -15.2915 O   0  0  0  0  0  0  0  0  0  0  0  0
   21.8176   -8.2992  -15.0619 C   0  0  0  0  0  0  0  0  0  0  0  0
   22.4121   -8.3096  -13.9540 O   0  0  0  0  0  0  0  0  0  0  0  0
   16.7530   -9.3754  -14.3742 O   0  0  0  0  0  0  0  0  0  0  0  0
   23.9567   -5.5226  -15.9241 C   0  0  0  0  0  0  0  0  0  0  0  0
   22.5738   -4.9632  -15.7354 C   0  0  1  0  0  0  0  0  0  0  0  0
   21.9934   -4.8248  -16.9953 O   0  0  0  0  0  0  0  0  0  0  0  0
   21.7192   -5.8387  -14.8375 C   0  0  2  0  0  0  0  0  0  0  0  0
   21.4110   -7.0429  -15.5817 N   0  0  0  0  0  0  0  0  0  0  0  0
   20.5038   -5.0638  -14.5025 C   0  0  0  0  0  0  0  0  0  0  0  0
   20.5834   -3.9184  -13.7288 O   0  0  0  0  0  0  0  0  0  0  0  0
   19.3669   -5.4115  -14.9026 O   0  0  0  0  0  0  0  0  0  0  0  0
  2  1  1  6
  2  3  1  0
  4  3  1  0
  4  8  1  0
  5  6  1  0
  5  4  2  0
  6  7  1  0
  7  8  2  0
  9  2  1  0
  9 10  2  0
 11  9  1  0
 12 11  1  0
 12 13  1  1
 14 13  1  0
 15 14  1  0
 16 15  2  0
 17 12  1  0
 17 18  2  0
 19 15  1  0
 21 20  1  6
 21 23  1  0
 22 21  1  0
 23 24  1  6
 23 25  1  0
 24 17  1  0
 25 26  1  0
 27 25  2  0
M  END
$$$$
