HET.pdb
     RDKit          3D

 27 27  0  0  1  0  0  0  0  0999 V2000
   17.1756  -12.2382  -16.8186 N   0  0  0  0  0  0  0  0  0  0  0  0
   18.4408  -11.8422  -16.2617 C   0  0  1  0  0  0  0  0  0  0  0  0
   19.6208  -12.4395  -16.9660 C   0  0  0  0  0  0  0  0  0  0  0  0
   19.5582  -13.9087  -16.8304 C   0  0  0  0  0  0  0  0  0  0  0  0
   19.1933  -14.7951  -17.8442 C   0  0  0  0  0  0  0  0  0  0  0  0
   19.2574  -16.0326  -17.3375 N   0  0  0  0  0  0  0  0  0  0  0  0
   19.6441  -15.9474  -16.0617 C   0  0  0  0  0  0  0  0  0  0  0  0
   19.8272  -14.6617  -15.7511 N   0  0  0  0  0  0  0  0  0  0  0  0
   18.5030  -10.3533  -16.2383 C   0  0  0  0  0  0  0  0  0  0  0  0
   18.4701   -9.6664  -17.2991 O   0  0  0  0  0  0  0  0  0  0  0  0
   18.6036   -9.6139  -15.0158 N   0  0  0  0  0  0  0  0  0  0  0  0
   18.5636   -8.1801  -15.0128 C   0  0  1  0  0  0  0  0  0  0  0  0
   17.2965   -7.5768  -14.5078 C   0  0  0  0  0  0  0  0  0  0  0  0
   16.0467   -7.8454  -15.2452 C   0  0  0  0  0  0  0  0  0  0  0  0
   14.8136   -7.2276  -14.7421 C   0  0  0  0  0  0  0  0  0  0  0  0
   14.8823   -6.4866  -13.7255 O   0  0  0  0  0  0  0  0  0  0  0  0
   19.7404   -7.6026  -14.2843 C   0  0  0  0  0  0  0  0  0  0  0  0
   20.0632   -7.9875  -13.1316 O   0  0  0  0  0  0  0  0  0  0  0  0
   13.5704   -7.4089  -15.3183 O   0  0  0  0  0  0  0  0  0  0  0  0
   23.2853   -7.4534  -15.6141 C   0  0  0  0  0  0  0  0  0  0  0  0
   22.8405   -6.0750  -15.2103 C   0  0  1  0  0  0  0  0  0  0  0  0
   22.4535   -5.3958  -16.3646 O   0  0  0  0  0  0  0  0  0  0  0  0
   21.7108   -6.1112  -14.1976 C   0  0  2  0  0  0  0  0  0  0  0  0
   20.5316   -6.5914  -14.8888 N   0  0  0  0  0  0  0  0  0  0  0  0
   21.5367   -4.7322  -13.6898 C   0  0  0  0  0  0  0  0  0  0  0  0
   22.5005   -4.1441  -12.8884 O   0  0  0  0  0  0  0  0  0  0  0  0
   20.5198   -4.0506  -13.9632 O   0  0  0  0  0  0  0  0  0  0  0  0
  2  1  1  6
  2  3  1  0
  4  3  1  0
  4  8  1  0
  5  6  1  0
  5  4  2  0
  6  7  1  0
  7  8  2  0
  9  2  1  0
  9 10  2  0
 11  9  1  0
 12 11  1  0
 12 13  1  1
 14 13  1  0
 15 14  1  0
 16 15  2  0
 17 12  1  0
 17 18  2  0
 19 15  1  0
 21 20  1  6
 21 23  1  0
 22 21  1  0
 23 24  1  6
 23 25  1  0
 24 17  1  0
 25 26  1  0
 27 25  2  0
M  END
$$$$
