HET.pdb
     RDKit          3D

 27 27  0  0  1  0  0  0  0  0999 V2000
   21.0756  -12.8356  -16.7610 N   0  0  0  0  0  0  0  0  0  0  0  0
   20.6715  -11.4778  -17.0070 C   0  0  1  0  0  0  0  0  0  0  0  0
   19.2143  -11.2305  -16.7610 C   0  0  0  0  0  0  0  0  0  0  0  0
   18.4305  -12.0175  -17.7342 C   0  0  0  0  0  0  0  0  0  0  0  0
   18.9055  -12.4831  -18.9607 C   0  0  0  0  0  0  0  0  0  0  0  0
   17.9057  -13.1490  -19.5517 N   0  0  0  0  0  0  0  0  0  0  0  0
   16.8405  -13.1141  -18.7462 C   0  0  0  0  0  0  0  0  0  0  0  0
   17.1550  -12.4292  -17.6440 N   0  0  0  0  0  0  0  0  0  0  0  0
   21.5333  -10.5723  -16.1955 C   0  0  0  0  0  0  0  0  0  0  0  0
   21.2713  -10.3054  -14.9879 O   0  0  0  0  0  0  0  0  0  0  0  0
   22.7067   -9.9521  -16.7340 N   0  0  0  0  0  0  0  0  0  0  0  0
   23.5519   -9.1318  -15.9155 C   0  0  1  0  0  0  0  0  0  0  0  0
   25.0155   -9.2709  -16.1668 C   0  0  0  0  0  0  0  0  0  0  0  0
   25.6643  -10.5582  -15.8511 C   0  0  0  0  0  0  0  0  0  0  0  0
   27.0656  -10.7308  -16.2531 C   0  0  0  0  0  0  0  0  0  0  0  0
   27.4593  -11.8800  -16.5876 O   0  0  0  0  0  0  0  0  0  0  0  0
   23.1474   -7.6894  -15.9866 C   0  0  0  0  0  0  0  0  0  0  0  0
   23.2136   -7.0322  -17.0565 O   0  0  0  0  0  0  0  0  0  0  0  0
   27.9892   -9.7031  -16.2886 O   0  0  0  0  0  0  0  0  0  0  0  0
   19.9314   -6.5622  -14.5389 C   0  0  0  0  0  0  0  0  0  0  0  0
   20.7848   -5.6742  -15.4015 C   0  0  1  0  0  0  0  0  0  0  0  0
   20.2291   -4.3959  -15.3801 O   0  0  0  0  0  0  0  0  0  0  0  0
   22.2303   -5.6453  -14.9403 C   0  0  2  0  0  0  0  0  0  0  0  0
   22.6716   -7.0207  -14.8289 N   0  0  0  0  0  0  0  0  0  0  0  0
   22.2581   -4.9435  -13.6378 C   0  0  0  0  0  0  0  0  0  0  0  0
   22.0386   -3.5786  -13.5623 O   0  0  0  0  0  0  0  0  0  0  0  0
   22.4791   -5.5523  -12.5635 O   0  0  0  0  0  0  0  0  0  0  0  0
  2  1  1  1
  2  3  1  0
  4  3  1  0
  4  8  1  0
  5  6  1  0
  5  4  2  0
  6  7  1  0
  7  8  2  0
  9  2  1  0
  9 10  2  0
 11  9  1  0
 12 11  1  0
 12 13  1  6
 14 13  1  0
 15 14  1  0
 16 15  2  0
 17 12  1  0
 17 18  2  0
 19 15  1  0
 21 20  1  1
 21 23  1  0
 22 21  1  0
 23 24  1  1
 23 25  1  0
 24 17  1  0
 25 26  1  0
 27 25  2  0
M  END
$$$$
