HNG.pdb
     RDKit          3D

 23 23  0  0  1  0  0  0  0  0999 V2000
   10.9645  -21.0346   20.6226 N   0  0  0  0  0  0  0  0  0  0  0  0
   10.7463  -22.2491   21.3381 C   0  0  1  0  0  0  0  0  0  0  0  0
   10.7895  -23.4718   20.4470 C   0  0  0  0  0  0  0  0  0  0  0  0
    9.7917  -23.3421   19.3488 C   0  0  0  0  0  0  0  0  0  0  0  0
    8.9743  -22.2518   19.1394 C   0  0  0  0  0  0  0  0  0  0  0  0
    8.2148  -22.4942   18.0642 N   0  0  0  0  0  0  0  0  0  0  0  0
    8.5497  -23.7135   17.6079 C   0  0  0  0  0  0  0  0  0  0  0  0
    9.5085  -24.2229   18.3932 N   0  0  0  0  0  0  0  0  0  0  0  0
   11.7351  -22.3715   22.4376 C   0  0  0  0  0  0  0  0  0  0  0  0
   11.6527  -23.3282   23.2192 O   0  0  0  0  0  0  0  0  0  0  0  0
   15.1017  -23.4375   22.1568 N   0  0  0  0  0  0  0  0  0  0  0  0
   15.6979  -22.1561   22.3059 C   0  0  0  0  0  0  0  0  0  0  0  0
   16.7350  -21.9188   21.6406 O   0  0  0  0  0  0  0  0  0  0  0  0
   15.1271  -21.1305   23.2091 C   0  0  0  0  0  0  0  0  0  0  0  0
   13.7685  -21.5163   23.6927 C   0  0  2  0  0  0  0  0  0  0  0  0
   12.7805  -21.4348   22.6373 N   0  0  0  0  0  0  0  0  0  0  0  0
   13.3376  -20.7076   24.8735 C   0  0  0  0  0  0  0  0  0  0  0  0
   14.1073  -20.0177   25.5595 O   0  0  0  0  0  0  0  0  0  0  0  0
   11.9571  -20.7232   25.2428 N   0  0  0  0  0  0  0  0  0  0  0  0
   11.4475  -19.9882   26.3700 C   0  0  0  0  0  0  0  0  0  0  0  0
   11.6810  -20.6945   27.6552 C   0  0  0  0  0  0  0  0  0  0  0  0
   12.2926  -21.7851   27.6204 O   0  0  0  0  0  0  0  0  0  0  0  0
   11.2260  -20.1424   28.8437 O   0  0  0  0  0  0  0  0  0  0  0  0
  2  9  1  0
  2  1  1  6
  3  2  1  0
  4  5  2  0
  4  3  1  0
  6  5  1  0
  7  8  2  0
  7  6  1  0
  8  4  1  0
  9 10  2  0
 11 12  1  0
 12 14  1  0
 13 12  2  0
 15 14  1  6
 15 17  1  0
 16  9  1  0
 16 15  1  0
 17 19  1  0
 18 17  2  0
 19 20  1  0
 20 21  1  0
 21 22  2  0
 21 23  1  0
M  END
$$$$
