HNG.pdb
     RDKit          3D

 23 23  0  0  1  0  0  0  0  0999 V2000
   13.8006  -14.2516   17.9398 N   0  0  0  0  0  0  0  0  0  0  0  0
   12.5702  -14.9565   18.0939 C   0  0  1  0  0  0  0  0  0  0  0  0
   12.7647  -16.4483   18.2606 C   0  0  0  0  0  0  0  0  0  0  0  0
   12.7853  -17.1152   16.9289 C   0  0  0  0  0  0  0  0  0  0  0  0
   12.6731  -16.4730   15.7142 C   0  0  0  0  0  0  0  0  0  0  0  0
   12.7336  -17.3927   14.7435 N   0  0  0  0  0  0  0  0  0  0  0  0
   12.8809  -18.5891   15.3384 C   0  0  0  0  0  0  0  0  0  0  0  0
   12.9116  -18.4130   16.6664 N   0  0  0  0  0  0  0  0  0  0  0  0
   11.8098  -14.3997   19.2399 C   0  0  0  0  0  0  0  0  0  0  0  0
   12.4073  -13.7266   20.0902 O   0  0  0  0  0  0  0  0  0  0  0  0
    8.0446  -11.7882   18.7835 N   0  0  0  0  0  0  0  0  0  0  0  0
    8.0462  -13.2073   18.8583 C   0  0  0  0  0  0  0  0  0  0  0  0
    7.9111  -13.8441   17.7856 O   0  0  0  0  0  0  0  0  0  0  0  0
    8.2006  -13.9204   20.1473 C   0  0  0  0  0  0  0  0  0  0  0  0
    9.6375  -14.0896   20.5150 C   0  0  2  0  0  0  0  0  0  0  0  0
   10.4171  -14.6043   19.4086 N   0  0  0  0  0  0  0  0  0  0  0  0
    9.8145  -14.9521   21.7229 C   0  0  0  0  0  0  0  0  0  0  0  0
    9.2997  -14.7140   22.8262 O   0  0  0  0  0  0  0  0  0  0  0  0
   10.6240  -16.1243   21.6103 N   0  0  0  0  0  0  0  0  0  0  0  0
   10.7800  -17.0655   22.6875 C   0  0  0  0  0  0  0  0  0  0  0  0
   12.0862  -16.9193   23.3785 C   0  0  0  0  0  0  0  0  0  0  0  0
   12.3170  -17.6642   24.3565 O   0  0  0  0  0  0  0  0  0  0  0  0
   13.0051  -15.9793   22.9351 O   0  0  0  0  0  0  0  0  0  0  0  0
  2  9  1  0
  2  1  1  1
  3  2  1  0
  4  5  2  0
  4  3  1  0
  6  5  1  0
  7  8  2  0
  7  6  1  0
  8  4  1  0
  9 10  2  0
 11 12  1  0
 12 14  1  0
 13 12  2  0
 15 14  1  6
 15 17  1  0
 16  9  1  0
 16 15  1  0
 17 19  1  0
 18 17  2  0
 19 20  1  0
 20 21  1  0
 21 22  2  0
 21 23  1  0
M  END
$$$$
