HNG.pdb
     RDKit          3D

 23 23  0  0  1  0  0  0  0  0999 V2000
    7.7915  -17.8701   17.7993 N   0  0  0  0  0  0  0  0  0  0  0  0
    9.1326  -18.0432   18.2532 C   0  0  1  0  0  0  0  0  0  0  0  0
   10.0937  -18.3766   17.1324 C   0  0  0  0  0  0  0  0  0  0  0  0
    9.5277  -19.4548   16.2745 C   0  0  0  0  0  0  0  0  0  0  0  0
    9.4548  -20.7886   16.6154 C   0  0  0  0  0  0  0  0  0  0  0  0
    8.8885  -21.4531   15.6007 N   0  0  0  0  0  0  0  0  0  0  0  0
    8.6115  -20.5527   14.6417 C   0  0  0  0  0  0  0  0  0  0  0  0
    9.0026  -19.3406   15.0578 N   0  0  0  0  0  0  0  0  0  0  0  0
    9.5805  -16.8288   18.9786 C   0  0  0  0  0  0  0  0  0  0  0  0
   10.7512  -16.4469   18.8499 O   0  0  0  0  0  0  0  0  0  0  0  0
    6.3455  -13.0175   19.3136 N   0  0  0  0  0  0  0  0  0  0  0  0
    7.6976  -13.3280   19.6222 C   0  0  0  0  0  0  0  0  0  0  0  0
    8.5704  -13.0203   18.7748 O   0  0  0  0  0  0  0  0  0  0  0  0
    8.0758  -13.9896   20.8921 C   0  0  0  0  0  0  0  0  0  0  0  0
    9.1544  -15.0010   20.6870 C   0  0  2  0  0  0  0  0  0  0  0  0
    8.7221  -16.0777   19.8206 N   0  0  0  0  0  0  0  0  0  0  0  0
    9.6708  -15.5472   21.9789 C   0  0  0  0  0  0  0  0  0  0  0  0
    8.9457  -15.9740   22.8905 O   0  0  0  0  0  0  0  0  0  0  0  0
   11.0843  -15.5845   22.1863 N   0  0  0  0  0  0  0  0  0  0  0  0
   11.6800  -16.1471   23.3692 C   0  0  0  0  0  0  0  0  0  0  0  0
   13.1636  -16.1501   23.3057 C   0  0  0  0  0  0  0  0  0  0  0  0
   13.7053  -15.7126   22.2666 O   0  0  0  0  0  0  0  0  0  0  0  0
   13.9036  -16.6279   24.3774 O   0  0  0  0  0  0  0  0  0  0  0  0
  2  9  1  0
  2  1  1  6
  3  2  1  0
  4  5  2  0
  4  3  1  0
  6  5  1  0
  7  8  2  0
  7  6  1  0
  8  4  1  0
  9 10  2  0
 11 12  1  0
 12 14  1  0
 13 12  2  0
 15 14  1  1
 15 17  1  0
 16  9  1  0
 16 15  1  0
 17 19  1  0
 18 17  2  0
 19 20  1  0
 20 21  1  0
 21 22  2  0
 21 23  1  0
M  END
$$$$
