HNG.pdb
     RDKit          3D

 23 23  0  0  1  0  0  0  0  0999 V2000
   10.5240  -15.7020   17.4004 N   0  0  0  0  0  0  0  0  0  0  0  0
   11.1606  -14.9645   18.4422 C   0  0  1  0  0  0  0  0  0  0  0  0
   10.2475  -14.7060   19.6214 C   0  0  0  0  0  0  0  0  0  0  0  0
    9.0476  -13.9400   19.1833 C   0  0  0  0  0  0  0  0  0  0  0  0
    8.7955  -13.5231   17.8937 C   0  0  0  0  0  0  0  0  0  0  0  0
    7.6288  -12.8670   17.8828 N   0  0  0  0  0  0  0  0  0  0  0  0
    7.1582  -12.8726   19.1420 C   0  0  0  0  0  0  0  0  0  0  0  0
    8.0254  -13.5263   19.9269 N   0  0  0  0  0  0  0  0  0  0  0  0
   12.3901  -15.6698   18.8810 C   0  0  0  0  0  0  0  0  0  0  0  0
   12.4697  -16.8957   18.7270 O   0  0  0  0  0  0  0  0  0  0  0  0
   14.8165  -13.4663   18.1847 N   0  0  0  0  0  0  0  0  0  0  0  0
   15.7476  -14.5234   17.9972 C   0  0  0  0  0  0  0  0  0  0  0  0
   16.6107  -14.3823   17.0973 O   0  0  0  0  0  0  0  0  0  0  0  0
   15.7118  -15.7507   18.8255 C   0  0  0  0  0  0  0  0  0  0  0  0
   14.7044  -15.6463   19.9223 C   0  0  2  0  0  0  0  0  0  0  0  0
   13.4891  -14.9989   19.4743 N   0  0  0  0  0  0  0  0  0  0  0  0
   15.2507  -14.9520   21.1279 C   0  0  0  0  0  0  0  0  0  0  0  0
   16.1933  -14.1462   21.0962 O   0  0  0  0  0  0  0  0  0  0  0  0
   14.6580  -15.2263   22.3990 N   0  0  0  0  0  0  0  0  0  0  0  0
   14.9234  -16.4346   23.1340 C   0  0  0  0  0  0  0  0  0  0  0  0
   16.3252  -16.5023   23.6192 C   0  0  0  0  0  0  0  0  0  0  0  0
   16.5224  -16.4137   24.8513 O   0  0  0  0  0  0  0  0  0  0  0  0
   17.3661  -16.6592   22.7157 O   0  0  0  0  0  0  0  0  0  0  0  0
  2  9  1  0
  2  1  1  6
  3  2  1  0
  4  5  2  0
  4  3  1  0
  6  5  1  0
  7  8  2  0
  7  6  1  0
  8  4  1  0
  9 10  2  0
 11 12  1  0
 12 14  1  0
 13 12  2  0
 15 14  1  6
 15 17  1  0
 16  9  1  0
 16 15  1  0
 17 19  1  0
 18 17  2  0
 19 20  1  0
 20 21  1  0
 21 22  2  0
 21 23  1  0
M  END
$$$$
