HNG.pdb
     RDKit          3D

 23 23  0  0  1  0  0  0  0  0999 V2000
    9.1077  -16.1720   21.2744 N   0  0  0  0  0  0  0  0  0  0  0  0
    8.3401  -15.2779   22.0781 C   0  0  1  0  0  0  0  0  0  0  0  0
    7.0793  -14.8029   21.3882 C   0  0  0  0  0  0  0  0  0  0  0  0
    7.4229  -14.0796   20.1322 C   0  0  0  0  0  0  0  0  0  0  0  0
    8.6995  -13.8783   19.6523 C   0  0  0  0  0  0  0  0  0  0  0  0
    8.6160  -13.1922   18.5060 N   0  0  0  0  0  0  0  0  0  0  0  0
    7.3116  -12.9675   18.2716 C   0  0  0  0  0  0  0  0  0  0  0  0
    6.5923  -13.5095   19.2638 N   0  0  0  0  0  0  0  0  0  0  0  0
    8.0130  -15.9197   23.3753 C   0  0  0  0  0  0  0  0  0  0  0  0
    7.2473  -15.3417   24.1580 O   0  0  0  0  0  0  0  0  0  0  0  0
    5.7220  -17.1251   24.4247 N   0  0  0  0  0  0  0  0  0  0  0  0
    6.0426  -18.4954   24.6227 C   0  0  0  0  0  0  0  0  0  0  0  0
    5.1253  -19.3349   24.4548 O   0  0  0  0  0  0  0  0  0  0  0  0
    7.4038  -18.9296   25.0126 C   0  0  0  0  0  0  0  0  0  0  0  0
    8.3547  -17.7802   25.0673 C   0  0  2  0  0  0  0  0  0  0  0  0
    8.5414  -17.1764   23.7644 N   0  0  0  0  0  0  0  0  0  0  0  0
    9.6732  -18.1643   25.6573 C   0  0  0  0  0  0  0  0  0  0  0  0
    9.9011  -18.2080   26.8759 O   0  0  0  0  0  0  0  0  0  0  0  0
   10.7428  -18.5036   24.7723 N   0  0  0  0  0  0  0  0  0  0  0  0
   11.8771  -17.6438   24.5611 C   0  0  0  0  0  0  0  0  0  0  0  0
   13.0572  -18.0621   25.3594 C   0  0  0  0  0  0  0  0  0  0  0  0
   14.0109  -18.6008   24.7552 O   0  0  0  0  0  0  0  0  0  0  0  0
   13.0783  -17.8515   26.7304 O   0  0  0  0  0  0  0  0  0  0  0  0
  2  9  1  0
  2  1  1  6
  3  2  1  0
  4  5  2  0
  4  3  1  0
  6  5  1  0
  7  8  2  0
  7  6  1  0
  8  4  1  0
  9 10  2  0
 11 12  1  0
 12 14  1  0
 13 12  2  0
 15 14  1  6
 15 17  1  0
 16  9  1  0
 16 15  1  0
 17 19  1  0
 18 17  2  0
 19 20  1  0
 20 21  1  0
 21 22  2  0
 21 23  1  0
M  END
$$$$
