HNG.pdb
     RDKit          3D

 23 23  0  0  1  0  0  0  0  0999 V2000
   10.5816  -15.4024   17.0991 N   0  0  0  0  0  0  0  0  0  0  0  0
   11.3470  -14.6542   18.0419 C   0  0  1  0  0  0  0  0  0  0  0  0
   10.6623  -14.5273   19.3858 C   0  0  0  0  0  0  0  0  0  0  0  0
    9.3487  -13.8426   19.2301 C   0  0  0  0  0  0  0  0  0  0  0  0
    8.8287  -13.3772   18.0411 C   0  0  0  0  0  0  0  0  0  0  0  0
    7.6361  -12.8229   18.2905 N   0  0  0  0  0  0  0  0  0  0  0  0
    7.4126  -12.9386   19.6109 C   0  0  0  0  0  0  0  0  0  0  0  0
    8.4573  -13.5592   20.1757 N   0  0  0  0  0  0  0  0  0  0  0  0
   12.6908  -15.2637   18.1981 C   0  0  0  0  0  0  0  0  0  0  0  0
   12.8484  -16.4579   17.9117 O   0  0  0  0  0  0  0  0  0  0  0  0
   16.3713  -15.1391   16.1346 N   0  0  0  0  0  0  0  0  0  0  0  0
   16.4295  -13.9769   16.9506 C   0  0  0  0  0  0  0  0  0  0  0  0
   16.6997  -12.8879   16.3889 O   0  0  0  0  0  0  0  0  0  0  0  0
   16.1828  -14.0351   18.4098 C   0  0  0  0  0  0  0  0  0  0  0  0
   15.1588  -15.0650   18.7552 C   0  0  2  0  0  0  0  0  0  0  0  0
   13.8141  -14.5355   18.6648 N   0  0  0  0  0  0  0  0  0  0  0  0
   15.3929  -15.6653   20.1039 C   0  0  0  0  0  0  0  0  0  0  0  0
   16.3588  -16.3928   20.3808 O   0  0  0  0  0  0  0  0  0  0  0  0
   14.4526  -15.3906   21.1444 N   0  0  0  0  0  0  0  0  0  0  0  0
   14.5722  -15.9490   22.4651 C   0  0  0  0  0  0  0  0  0  0  0  0
   15.8094  -15.5036   23.1551 C   0  0  0  0  0  0  0  0  0  0  0  0
   16.6291  -14.8202   22.5026 O   0  0  0  0  0  0  0  0  0  0  0  0
   16.0269  -15.8469   24.4814 O   0  0  0  0  0  0  0  0  0  0  0  0
  2  9  1  0
  2  1  1  6
  3  2  1  0
  4  5  2  0
  4  3  1  0
  6  5  1  0
  7  8  2  0
  7  6  1  0
  8  4  1  0
  9 10  2  0
 11 12  1  0
 12 14  1  0
 13 12  2  0
 15 14  1  1
 15 17  1  0
 16  9  1  0
 16 15  1  0
 17 19  1  0
 18 17  2  0
 19 20  1  0
 20 21  1  0
 21 22  2  0
 21 23  1  0
M  END
$$$$
