HNG.pdb
     RDKit          3D

 23 23  0  0  1  0  0  0  0  0999 V2000
   10.9801  -15.7494   16.7126 N   0  0  0  0  0  0  0  0  0  0  0  0
   11.3560  -14.8335   17.7394 C   0  0  1  0  0  0  0  0  0  0  0  0
   10.2495  -14.5896   18.7430 C   0  0  0  0  0  0  0  0  0  0  0  0
    9.0653  -13.9912   18.0661 C   0  0  0  0  0  0  0  0  0  0  0  0
    9.1132  -13.1231   16.9962 C   0  0  0  0  0  0  0  0  0  0  0  0
    7.8589  -12.7986   16.6597 N   0  0  0  0  0  0  0  0  0  0  0  0
    7.0400  -13.4510   17.5027 C   0  0  0  0  0  0  0  0  0  0  0  0
    7.7797  -14.1738   18.3547 N   0  0  0  0  0  0  0  0  0  0  0  0
   12.5811  -15.3167   18.4229 C   0  0  0  0  0  0  0  0  0  0  0  0
   12.6729  -16.5151   18.7204 O   0  0  0  0  0  0  0  0  0  0  0  0
   16.5232  -15.4698   16.9674 N   0  0  0  0  0  0  0  0  0  0  0  0
   16.3852  -14.1904   17.5706 C   0  0  0  0  0  0  0  0  0  0  0  0
   16.5616  -13.1844   16.8417 O   0  0  0  0  0  0  0  0  0  0  0  0
   16.0462  -14.0363   19.0041 C   0  0  0  0  0  0  0  0  0  0  0  0
   14.8884  -14.8948   19.3923 C   0  0  2  0  0  0  0  0  0  0  0  0
   13.6624  -14.4619   18.7548 N   0  0  0  0  0  0  0  0  0  0  0  0
   14.7082  -14.9654   20.8744 C   0  0  0  0  0  0  0  0  0  0  0  0
   14.3435  -14.0087   21.5748 O   0  0  0  0  0  0  0  0  0  0  0  0
   14.9696  -16.2058   21.5341 N   0  0  0  0  0  0  0  0  0  0  0  0
   14.6662  -16.4242   22.9237 C   0  0  0  0  0  0  0  0  0  0  0  0
   15.8900  -16.5135   23.7600 C   0  0  0  0  0  0  0  0  0  0  0  0
   16.9214  -15.9359   23.3509 O   0  0  0  0  0  0  0  0  0  0  0  0
   15.8656  -17.2207   24.9532 O   0  0  0  0  0  0  0  0  0  0  0  0
  2  9  1  0
  2  1  1  6
  3  2  1  0
  4  5  2  0
  4  3  1  0
  6  5  1  0
  7  8  2  0
  7  6  1  0
  8  4  1  0
  9 10  2  0
 11 12  1  0
 12 14  1  0
 13 12  2  0
 15 14  1  1
 15 17  1  0
 16  9  1  0
 16 15  1  0
 17 19  1  0
 18 17  2  0
 19 20  1  0
 20 21  1  0
 21 22  2  0
 21 23  1  0
M  END
$$$$
