HNG.pdb
     RDKit          3D

 23 23  0  0  1  0  0  0  0  0999 V2000
   12.9036  -13.8823   19.1427 N   0  0  0  0  0  0  0  0  0  0  0  0
   11.7271  -14.4032   19.7586 C   0  0  1  0  0  0  0  0  0  0  0  0
   11.0014  -15.4046   18.8859 C   0  0  0  0  0  0  0  0  0  0  0  0
    9.9059  -14.7313   18.1341 C   0  0  0  0  0  0  0  0  0  0  0  0
    9.6392  -13.3789   18.1550 C   0  0  0  0  0  0  0  0  0  0  0  0
    8.5867  -13.1441   17.3620 N   0  0  0  0  0  0  0  0  0  0  0  0
    8.2008  -14.3270   16.8533 C   0  0  0  0  0  0  0  0  0  0  0  0
    9.0068  -15.2872   17.3267 N   0  0  0  0  0  0  0  0  0  0  0  0
   12.0693  -15.0075   21.0698 C   0  0  0  0  0  0  0  0  0  0  0  0
   13.2581  -15.0819   21.4078 O   0  0  0  0  0  0  0  0  0  0  0  0
   11.3639  -15.7461   26.4175 N   0  0  0  0  0  0  0  0  0  0  0  0
   10.3712  -16.2855   25.5554 C   0  0  0  0  0  0  0  0  0  0  0  0
    9.6850  -17.2423   25.9893 O   0  0  0  0  0  0  0  0  0  0  0  0
   10.1449  -15.7482   24.1939 C   0  0  0  0  0  0  0  0  0  0  0  0
   11.3497  -15.9144   23.3282 C   0  0  2  0  0  0  0  0  0  0  0  0
   11.0890  -15.5088   21.9629 N   0  0  0  0  0  0  0  0  0  0  0  0
   11.8839  -17.3099   23.3643 C   0  0  0  0  0  0  0  0  0  0  0  0
   12.3921  -17.8321   24.3683 O   0  0  0  0  0  0  0  0  0  0  0  0
   11.8094  -18.0989   22.1751 N   0  0  0  0  0  0  0  0  0  0  0  0
   12.1368  -19.4999   22.1520 C   0  0  0  0  0  0  0  0  0  0  0  0
   13.5568  -19.7405   21.7905 C   0  0  0  0  0  0  0  0  0  0  0  0
   14.4387  -19.1895   22.4858 O   0  0  0  0  0  0  0  0  0  0  0  0
   13.8705  -20.5544   20.7118 O   0  0  0  0  0  0  0  0  0  0  0  0
  2  9  1  0
  2  1  1  6
  3  2  1  0
  4  5  2  0
  4  3  1  0
  6  5  1  0
  7  8  2  0
  7  6  1  0
  8  4  1  0
  9 10  2  0
 11 12  1  0
 12 14  1  0
 13 12  2  0
 15 14  1  1
 15 17  1  0
 16  9  1  0
 16 15  1  0
 17 19  1  0
 18 17  2  0
 19 20  1  0
 20 21  1  0
 21 22  2  0
 21 23  1  0
M  END
$$$$
