HNG.pdb
     RDKit          3D

 23 23  0  0  1  0  0  0  0  0999 V2000
    8.2196  -15.9004   18.6423 N   0  0  0  0  0  0  0  0  0  0  0  0
    9.3982  -15.0971   18.6297 C   0  0  1  0  0  0  0  0  0  0  0  0
    9.1962  -13.7685   17.9332 C   0  0  0  0  0  0  0  0  0  0  0  0
    8.5478  -13.9768   16.6085 C   0  0  0  0  0  0  0  0  0  0  0  0
    7.2646  -13.5944   16.2803 C   0  0  0  0  0  0  0  0  0  0  0  0
    7.0319  -13.9446   15.0095 N   0  0  0  0  0  0  0  0  0  0  0  0
    8.1483  -14.5355   14.5495 C   0  0  0  0  0  0  0  0  0  0  0  0
    9.0653  -14.5517   15.5264 N   0  0  0  0  0  0  0  0  0  0  0  0
    9.8818  -14.8890   20.0169 C   0  0  0  0  0  0  0  0  0  0  0  0
   10.9345  -14.2638   20.2013 O   0  0  0  0  0  0  0  0  0  0  0  0
    9.3981  -13.8184   25.5190 N   0  0  0  0  0  0  0  0  0  0  0  0
    9.0816  -15.0498   24.8841 C   0  0  0  0  0  0  0  0  0  0  0  0
    9.2458  -16.1023   25.5473 O   0  0  0  0  0  0  0  0  0  0  0  0
    8.5763  -15.1030   23.4929 C   0  0  0  0  0  0  0  0  0  0  0  0
    9.6826  -15.3086   22.5120 C   0  0  2  0  0  0  0  0  0  0  0  0
    9.1881  -15.3775   21.1527 N   0  0  0  0  0  0  0  0  0  0  0  0
   10.5031  -16.5168   22.8298 C   0  0  0  0  0  0  0  0  0  0  0  0
   10.0258  -17.6398   23.0534 O   0  0  0  0  0  0  0  0  0  0  0  0
   11.9247  -16.3806   22.8816 N   0  0  0  0  0  0  0  0  0  0  0  0
   12.7958  -17.4693   23.2372 C   0  0  0  0  0  0  0  0  0  0  0  0
   14.2263  -17.0710   23.2320 C   0  0  0  0  0  0  0  0  0  0  0  0
   14.6303  -16.3298   24.1551 O   0  0  0  0  0  0  0  0  0  0  0  0
   15.0684  -17.5192   22.2248 O   0  0  0  0  0  0  0  0  0  0  0  0
  2  9  1  0
  2  1  1  1
  3  2  1  0
  4  5  2  0
  4  3  1  0
  6  5  1  0
  7  8  2  0
  7  6  1  0
  8  4  1  0
  9 10  2  0
 11 12  1  0
 12 14  1  0
 13 12  2  0
 15 14  1  1
 15 17  1  0
 16  9  1  0
 16 15  1  0
 17 19  1  0
 18 17  2  0
 19 20  1  0
 20 21  1  0
 21 22  2  0
 21 23  1  0
M  END
$$$$
