HNG.pdb
     RDKit          3D

 23 23  0  0  1  0  0  0  0  0999 V2000
   12.6357  -14.2468   19.2009 N   0  0  0  0  0  0  0  0  0  0  0  0
   11.2453  -14.4709   19.4275 C   0  0  1  0  0  0  0  0  0  0  0  0
   10.6666  -15.5361   18.5213 C   0  0  0  0  0  0  0  0  0  0  0  0
    9.6498  -14.9388   17.6112 C   0  0  0  0  0  0  0  0  0  0  0  0
    9.3171  -13.6021   17.5560 C   0  0  0  0  0  0  0  0  0  0  0  0
    8.3698  -13.4412   16.6240 N   0  0  0  0  0  0  0  0  0  0  0  0
    8.1134  -14.6543   16.1048 C   0  0  0  0  0  0  0  0  0  0  0  0
    8.8947  -15.5596   16.7093 N   0  0  0  0  0  0  0  0  0  0  0  0
   11.0159  -14.8186   20.8516 C   0  0  0  0  0  0  0  0  0  0  0  0
   11.9283  -14.6432   21.6699 O   0  0  0  0  0  0  0  0  0  0  0  0
    6.8163  -13.7517   21.5327 N   0  0  0  0  0  0  0  0  0  0  0  0
    7.5013  -14.0949   22.7297 C   0  0  0  0  0  0  0  0  0  0  0  0
    7.6689  -13.1886   23.5813 O   0  0  0  0  0  0  0  0  0  0  0  0
    8.0035  -15.4664   22.9753 C   0  0  0  0  0  0  0  0  0  0  0  0
    9.4705  -15.5705   22.7191 C   0  0  2  0  0  0  0  0  0  0  0  0
    9.7883  -15.3476   21.3241 N   0  0  0  0  0  0  0  0  0  0  0  0
   10.0339  -16.8760   23.1797 C   0  0  0  0  0  0  0  0  0  0  0  0
    9.9164  -17.3129   24.3348 O   0  0  0  0  0  0  0  0  0  0  0  0
   10.7533  -17.6771   22.2401 N   0  0  0  0  0  0  0  0  0  0  0  0
   11.2655  -18.9819   22.5650 C   0  0  0  0  0  0  0  0  0  0  0  0
   12.6020  -18.9180   23.2091 C   0  0  0  0  0  0  0  0  0  0  0  0
   13.4519  -19.7743   22.8787 O   0  0  0  0  0  0  0  0  0  0  0  0
   12.8756  -17.9309   24.1446 O   0  0  0  0  0  0  0  0  0  0  0  0
  2  9  1  0
  2  1  1  1
  3  2  1  0
  4  5  2  0
  4  3  1  0
  6  5  1  0
  7  8  2  0
  7  6  1  0
  8  4  1  0
  9 10  2  0
 11 12  1  0
 12 14  1  0
 13 12  2  0
 15 14  1  6
 15 17  1  0
 16  9  1  0
 16 15  1  0
 17 19  1  0
 18 17  2  0
 19 20  1  0
 20 21  1  0
 21 22  2  0
 21 23  1  0
M  END
$$$$
