HNG.pdb
     RDKit          3D

 23 23  0  0  1  0  0  0  0  0999 V2000
   10.8117  -15.4385   17.5117 N   0  0  0  0  0  0  0  0  0  0  0  0
   11.2053  -14.8136   18.7320 C   0  0  1  0  0  0  0  0  0  0  0  0
   10.1254  -14.8615   19.7915 C   0  0  0  0  0  0  0  0  0  0  0  0
    8.9444  -14.0647   19.3570 C   0  0  0  0  0  0  0  0  0  0  0  0
    8.8231  -13.4143   18.1475 C   0  0  0  0  0  0  0  0  0  0  0  0
    7.6308  -12.8069   18.1127 N   0  0  0  0  0  0  0  0  0  0  0  0
    7.0160  -13.0716   19.2785 C   0  0  0  0  0  0  0  0  0  0  0  0
    7.8199  -13.8363   20.0298 N   0  0  0  0  0  0  0  0  0  0  0  0
   12.4560  -15.4331   19.2356 C   0  0  0  0  0  0  0  0  0  0  0  0
   12.5798  -16.6642   19.1909 O   0  0  0  0  0  0  0  0  0  0  0  0
   15.8305  -13.5762   17.2311 N   0  0  0  0  0  0  0  0  0  0  0  0
   15.7670  -14.7358   18.0502 C   0  0  0  0  0  0  0  0  0  0  0  0
   15.5503  -15.8341   17.4834 O   0  0  0  0  0  0  0  0  0  0  0  0
   15.9481  -14.6647   19.5184 C   0  0  0  0  0  0  0  0  0  0  0  0
   14.7752  -15.2324   20.2467 C   0  0  2  0  0  0  0  0  0  0  0  0
   13.5269  -14.6737   19.7709 N   0  0  0  0  0  0  0  0  0  0  0  0
   14.8918  -15.0617   21.7270 C   0  0  0  0  0  0  0  0  0  0  0  0
   15.8724  -14.5527   22.2911 O   0  0  0  0  0  0  0  0  0  0  0  0
   13.8135  -15.5087   22.5514 N   0  0  0  0  0  0  0  0  0  0  0  0
   13.8361  -16.7717   23.2406 C   0  0  0  0  0  0  0  0  0  0  0  0
   14.8657  -16.8116   24.3098 C   0  0  0  0  0  0  0  0  0  0  0  0
   14.8515  -17.7816   25.0995 O   0  0  0  0  0  0  0  0  0  0  0  0
   15.8031  -15.7938   24.4096 O   0  0  0  0  0  0  0  0  0  0  0  0
  2  9  1  0
  2  1  1  6
  3  2  1  0
  4  5  2  0
  4  3  1  0
  6  5  1  0
  7  8  2  0
  7  6  1  0
  8  4  1  0
  9 10  2  0
 11 12  1  0
 12 14  1  0
 13 12  2  0
 15 14  1  6
 15 17  1  0
 16  9  1  0
 16 15  1  0
 17 19  1  0
 18 17  2  0
 19 20  1  0
 20 21  1  0
 21 22  2  0
 21 23  1  0
M  END
$$$$
