SRV.pdb
     RDKit          3D

 25 24  0  0  1  0  0  0  0  0999 V2000
   18.3976  -18.6327  -14.8989 O   0  0  0  0  0  0  0  0  0  0  0  0
   19.6953  -18.4769  -14.4271 C   0  0  0  0  0  0  0  0  0  0  0  0
   20.4253  -19.7624  -14.6531 C   0  0  2  0  0  0  0  0  0  0  0  0
   19.9032  -20.8107  -13.7958 N   0  0  0  0  0  0  0  0  0  0  0  0
   21.8864  -19.6368  -14.3622 C   0  0  0  0  0  0  0  0  0  0  0  0
   22.4174  -20.2288  -13.3864 O   0  0  0  0  0  0  0  0  0  0  0  0
   28.7794  -21.8646  -18.3241 N   0  0  0  0  0  0  0  0  0  0  0  0
   28.6264  -22.4027  -17.0252 C   0  0  0  0  0  0  0  0  0  0  0  0
   29.0727  -23.5729  -16.6877 N   0  0  0  0  0  0  0  0  0  0  0  0
   27.9405  -21.6067  -16.0352 N   0  0  0  0  0  0  0  0  0  0  0  0
   26.5155  -21.4014  -16.1498 C   0  0  0  0  0  0  0  0  0  0  0  0
   26.0882  -20.4865  -14.9904 C   0  0  0  0  0  0  0  0  0  0  0  0
   24.6355  -20.2345  -15.1446 C   0  0  0  0  0  0  0  0  0  0  0  0
   24.1985  -18.7857  -14.9966 C   0  0  2  0  0  0  0  0  0  0  0  0
   22.7401  -18.8492  -15.1666 N   0  0  0  0  0  0  0  0  0  0  0  0
   24.7312  -17.8802  -16.0155 C   0  0  0  0  0  0  0  0  0  0  0  0
   24.2410  -17.8742  -17.1839 O   0  0  0  0  0  0  0  0  0  0  0  0
   28.8474  -23.8926  -15.7214 C   0  0  0  0  0  0  0  0  0  0  0  0
   24.5301  -14.3152  -15.7229 C   0  0  2  0  0  0  0  0  0  0  0  0
   25.9224  -14.5437  -16.2222 C   0  0  0  0  0  0  0  0  0  0  0  0
   26.8816  -14.2708  -15.0856 C   0  0  2  0  0  0  0  0  0  0  0  0
   26.1177  -15.9354  -16.7834 N   0  0  0  0  0  0  0  0  0  0  0  0
   25.7969  -16.9570  -15.8162 C   0  0  0  0  0  0  0  0  0  0  0  0
   27.4821  -16.1135  -17.3379 O   0  0  0  0  0  0  0  0  0  0  0  0
   27.8242  -15.6200  -18.5867 O   0  0  0  0  0  0  0  0  0  0  0  0
  2  3  1  0
  2  1  1  0
  3  4  1  1
  5  6  2  0
  5  3  1  0
  7  8  1  0
  8 10  1  0
  8  9  2  0
 10 11  1  0
 12 11  1  0
 12 13  1  0
 14 13  1  6
 14 15  1  0
 15  5  1  0
 16 17  2  0
 16 14  1  0
 19 18  1  6
 20 19  1  0
 21 19  1  0
 21 22  1  6
 22 16  1  0
 23 21  1  0
 24 23  1  0
 25 23  2  0
M  END
$$$$
