SRV.pdb
     RDKit          3D

 25 24  0  0  1  0  0  0  0  0999 V2000
   17.2661  -11.4434  -19.2083 O   0  0  0  0  0  0  0  0  0  0  0  0
   17.0878  -12.7279  -18.7091 C   0  0  0  0  0  0  0  0  0  0  0  0
   18.4243  -13.3979  -18.6724 C   0  0  2  0  0  0  0  0  0  0  0  0
   18.3000  -14.7750  -18.2315 N   0  0  0  0  0  0  0  0  0  0  0  0
   19.3690  -12.7149  -17.7363 C   0  0  0  0  0  0  0  0  0  0  0  0
   19.3815  -12.9770  -16.5051 O   0  0  0  0  0  0  0  0  0  0  0  0
   26.9460  -13.4582  -15.8842 N   0  0  0  0  0  0  0  0  0  0  0  0
   27.1412  -12.0928  -16.1969 C   0  0  0  0  0  0  0  0  0  0  0  0
   28.3130  -11.5386  -16.2431 N   0  0  0  0  0  0  0  0  0  0  0  0
   25.9774  -11.2853  -16.4758 N   0  0  0  0  0  0  0  0  0  0  0  0
   24.8436  -11.8784  -17.1457 C   0  0  0  0  0  0  0  0  0  0  0  0
   23.7900  -10.7741  -17.3312 C   0  0  0  0  0  0  0  0  0  0  0  0
   22.6030  -11.4029  -17.9581 C   0  0  0  0  0  0  0  0  0  0  0  0
   21.2652  -11.0716  -17.3158 C   0  0  2  0  0  0  0  0  0  0  0  0
   20.2915  -11.7444  -18.1872 N   0  0  0  0  0  0  0  0  0  0  0  0
   20.9364   -9.6458  -17.2906 C   0  0  0  0  0  0  0  0  0  0  0  0
   20.7818   -9.0066  -18.3737 O   0  0  0  0  0  0  0  0  0  0  0  0
   28.3351  -10.5220  -16.4731 C   0  0  0  0  0  0  0  0  0  0  0  0
   18.7777   -5.6483  -16.0289 C   0  0  2  0  0  0  0  0  0  0  0  0
   19.0414   -7.1201  -16.0959 C   0  0  0  0  0  0  0  0  0  0  0  0
   18.3020   -7.6775  -17.2912 C   0  0  1  0  0  0  0  0  0  0  0  0
   20.5180   -7.4436  -16.1638 N   0  0  0  0  0  0  0  0  0  0  0  0
   20.7618   -8.8649  -16.1127 C   0  0  0  0  0  0  0  0  0  0  0  0
   21.2841   -6.7175  -15.1213 O   0  0  0  0  0  0  0  0  0  0  0  0
   21.8824   -7.3878  -14.0664 O   0  0  0  0  0  0  0  0  0  0  0  0
  2  3  1  0
  2  1  1  0
  3  4  1  1
  5  6  2  0
  5  3  1  0
  7  8  1  0
  8 10  1  0
  8  9  2  0
 10 11  1  0
 12 11  1  0
 12 13  1  0
 14 13  1  6
 14 15  1  0
 15  5  1  0
 16 17  2  0
 16 14  1  0
 19 18  1  1
 20 19  1  0
 21 19  1  0
 21 22  1  1
 22 16  1  0
 23 21  1  0
 24 23  1  0
 25 23  2  0
M  END
$$$$
