SRV.pdb
     RDKit          3D

 25 24  0  0  1  0  0  0  0  0999 V2000
   26.4028  -18.6247  -17.9122 O   0  0  0  0  0  0  0  0  0  0  0  0
   27.6615  -18.3847  -17.3747 C   0  0  0  0  0  0  0  0  0  0  0  0
   28.2923  -19.7061  -17.0703 C   0  0  2  0  0  0  0  0  0  0  0  0
   28.5302  -20.4580  -18.2886 N   0  0  0  0  0  0  0  0  0  0  0  0
   27.4293  -20.5502  -16.1883 C   0  0  0  0  0  0  0  0  0  0  0  0
   26.7543  -21.5079  -16.6482 O   0  0  0  0  0  0  0  0  0  0  0  0
   23.0062  -19.9904   -9.7724 N   0  0  0  0  0  0  0  0  0  0  0  0
   23.9885  -20.6069   -8.9630 C   0  0  0  0  0  0  0  0  0  0  0  0
   23.8824  -20.7054   -7.6740 N   0  0  0  0  0  0  0  0  0  0  0  0
   25.1605  -21.1487   -9.6087 N   0  0  0  0  0  0  0  0  0  0  0  0
   25.2403  -21.1536  -11.0509 C   0  0  0  0  0  0  0  0  0  0  0  0
   26.6075  -21.7438  -11.4335 C   0  0  0  0  0  0  0  0  0  0  0  0
   27.1490  -20.9139  -12.5362 C   0  0  0  0  0  0  0  0  0  0  0  0
   26.4864  -21.1049  -13.8913 C   0  0  2  0  0  0  0  0  0  0  0  0
   27.3297  -20.3142  -14.7988 N   0  0  0  0  0  0  0  0  0  0  0  0
   25.1204  -20.5876  -13.9814 C   0  0  0  0  0  0  0  0  0  0  0  0
   24.8946  -19.3502  -13.8286 O   0  0  0  0  0  0  0  0  0  0  0  0
   24.6302  -21.2454   -7.1884 C   0  0  0  0  0  0  0  0  0  0  0  0
   20.6323  -20.4270  -15.7644 C   0  0  2  0  0  0  0  0  0  0  0  0
   22.0122  -21.0000  -15.6765 C   0  0  0  0  0  0  0  0  0  0  0  0
   22.8511  -20.3793  -16.7708 C   0  0  1  0  0  0  0  0  0  0  0  0
   22.6425  -20.7922  -14.3166 N   0  0  0  0  0  0  0  0  0  0  0  0
   23.9610  -21.3733  -14.2386 C   0  0  0  0  0  0  0  0  0  0  0  0
   21.7621  -21.2804  -13.2270 O   0  0  0  0  0  0  0  0  0  0  0  0
   20.9512  -20.4146  -12.5110 O   0  0  0  0  0  0  0  0  0  0  0  0
  2  3  1  0
  2  1  1  0
  3  4  1  6
  5  6  2  0
  5  3  1  0
  7  8  1  0
  8 10  1  0
  8  9  2  0
 10 11  1  0
 12 11  1  0
 12 13  1  0
 14 13  1  1
 14 15  1  0
 15  5  1  0
 16 17  2  0
 16 14  1  0
 19 18  1  6
 20 19  1  0
 21 19  1  0
 21 22  1  6
 22 16  1  0
 23 21  1  0
 24 23  1  0
 25 23  2  0
M  END
$$$$
