SRV.pdb
     RDKit          3D

 25 24  0  0  1  0  0  0  0  0999 V2000
   26.6910  -18.8713   -6.3821 O   0  0  0  0  0  0  0  0  0  0  0  0
   26.7116  -19.4897   -7.6263 C   0  0  0  0  0  0  0  0  0  0  0  0
   25.3523  -20.0590   -7.8807 C   0  0  2  0  0  0  0  0  0  0  0  0
   25.0576  -21.1300   -6.9466 N   0  0  0  0  0  0  0  0  0  0  0  0
   25.2298  -20.6250   -9.2590 C   0  0  0  0  0  0  0  0  0  0  0  0
   25.5639  -21.8110   -9.5166 O   0  0  0  0  0  0  0  0  0  0  0  0
   19.1157  -21.8966  -14.0687 N   0  0  0  0  0  0  0  0  0  0  0  0
   20.2909  -22.6641  -13.8962 C   0  0  0  0  0  0  0  0  0  0  0  0
   20.3019  -23.9604  -13.9422 N   0  0  0  0  0  0  0  0  0  0  0  0
   21.5315  -21.9653  -13.6579 N   0  0  0  0  0  0  0  0  0  0  0  0
   21.5733  -20.5269  -13.7824 C   0  0  0  0  0  0  0  0  0  0  0  0
   23.0434  -20.0966  -13.6498 C   0  0  0  0  0  0  0  0  0  0  0  0
   23.3131  -19.9006  -12.2054 C   0  0  0  0  0  0  0  0  0  0  0  0
   24.6914  -20.3301  -11.7280 C   0  0  2  0  0  0  0  0  0  0  0  0
   24.7341  -19.8579  -10.3370 N   0  0  0  0  0  0  0  0  0  0  0  0
   25.8065  -19.7128  -12.4471 C   0  0  0  0  0  0  0  0  0  0  0  0
   26.0644  -18.4822  -12.2907 O   0  0  0  0  0  0  0  0  0  0  0  0
   21.2251  -24.4207  -13.7924 C   0  0  0  0  0  0  0  0  0  0  0  0
   29.5099  -20.6420  -12.4193 C   0  0  2  0  0  0  0  0  0  0  0  0
   29.0730  -20.5091  -13.8447 C   0  0  0  0  0  0  0  0  0  0  0  0
   28.9374  -21.8976  -14.4276 C   0  0  2  0  0  0  0  0  0  0  0  0
   27.7865  -19.7254  -13.9878 N   0  0  0  0  0  0  0  0  0  0  0  0
   26.6762  -20.3896  -13.3489 C   0  0  0  0  0  0  0  0  0  0  0  0
   27.4945  -19.4109  -15.4078 O   0  0  0  0  0  0  0  0  0  0  0  0
   26.4613  -20.0353  -16.0881 O   0  0  0  0  0  0  0  0  0  0  0  0
  2  3  1  0
  2  1  1  0
  3  4  1  1
  5  6  2  0
  5  3  1  0
  7  8  1  0
  8 10  1  0
  8  9  2  0
 10 11  1  0
 12 11  1  0
 12 13  1  0
 14 13  1  6
 14 15  1  0
 15  5  1  0
 16 17  2  0
 16 14  1  0
 19 18  1  6
 20 19  1  0
 21 19  1  0
 21 22  1  6
 22 16  1  0
 23 21  1  0
 24 23  1  0
 25 23  2  0
M  END
$$$$
