SRV.pdb
     RDKit          3D

 25 24  0  0  1  0  0  0  0  0999 V2000
   28.7760  -21.6609  -14.2946 O   0  0  0  0  0  0  0  0  0  0  0  0
   27.9902  -22.0993  -15.3536 C   0  0  0  0  0  0  0  0  0  0  0  0
   27.0953  -20.9724  -15.7609 C   0  0  2  0  0  0  0  0  0  0  0  0
   27.8601  -19.8989  -16.3684 N   0  0  0  0  0  0  0  0  0  0  0  0
   26.3600  -20.3906  -14.5964 C   0  0  0  0  0  0  0  0  0  0  0  0
   26.4928  -19.1821  -14.2702 O   0  0  0  0  0  0  0  0  0  0  0  0
   19.4872  -19.1529  -12.8419 N   0  0  0  0  0  0  0  0  0  0  0  0
   19.1203  -20.0714  -11.8312 C   0  0  0  0  0  0  0  0  0  0  0  0
   18.1984  -19.8251  -10.9527 N   0  0  0  0  0  0  0  0  0  0  0  0
   19.8088  -21.3394  -11.7813 N   0  0  0  0  0  0  0  0  0  0  0  0
   20.8756  -21.6073  -12.7174 C   0  0  0  0  0  0  0  0  0  0  0  0
   22.1180  -20.8446  -12.2289 C   0  0  0  0  0  0  0  0  0  0  0  0
   23.2269  -21.1759  -13.1553 C   0  0  0  0  0  0  0  0  0  0  0  0
   24.5877  -20.6083  -12.7841 C   0  0  2  0  0  0  0  0  0  0  0  0
   25.4822  -21.1673  -13.8075 N   0  0  0  0  0  0  0  0  0  0  0  0
   25.0868  -21.0264  -11.4734 C   0  0  0  0  0  0  0  0  0  0  0  0
   25.4122  -22.2339  -11.2693 O   0  0  0  0  0  0  0  0  0  0  0  0
   17.9761  -20.5959  -10.2870 C   0  0  0  0  0  0  0  0  0  0  0  0
   26.9110  -20.2157   -6.9491 C   0  0  2  0  0  0  0  0  0  0  0  0
   26.5687  -19.7381   -8.3257 C   0  0  0  0  0  0  0  0  0  0  0  0
   27.8574  -19.5553   -9.0952 C   0  0  1  0  0  0  0  0  0  0  0  0
   25.6258  -20.6752   -9.0485 N   0  0  0  0  0  0  0  0  0  0  0  0
   25.2542  -20.1701  -10.3480 C   0  0  0  0  0  0  0  0  0  0  0  0
   24.4354  -20.9950   -8.2230 O   0  0  0  0  0  0  0  0  0  0  0  0
   24.4894  -21.9443   -7.2149 O   0  0  0  0  0  0  0  0  0  0  0  0
  2  3  1  0
  2  1  1  0
  3  4  1  1
  5  6  2  0
  5  3  1  0
  7  8  1  0
  8 10  1  0
  8  9  2  0
 10 11  1  0
 12 11  1  0
 12 13  1  0
 14 13  1  6
 14 15  1  0
 15  5  1  0
 16 17  2  0
 16 14  1  0
 19 18  1  1
 20 19  1  0
 21 19  1  0
 21 22  1  1
 22 16  1  0
 23 21  1  0
 24 23  1  0
 25 23  2  0
M  END
$$$$
