SRV.pdb
     RDKit          3D

 25 24  0  0  1  0  0  0  0  0999 V2000
   20.6291  -16.8228  -17.8215 O   0  0  0  0  0  0  0  0  0  0  0  0
   21.6148  -16.7287  -16.8466 C   0  0  0  0  0  0  0  0  0  0  0  0
   21.0545  -15.9516  -15.6981 C   0  0  2  0  0  0  0  0  0  0  0  0
   19.7262  -16.4241  -15.3536 N   0  0  0  0  0  0  0  0  0  0  0  0
   20.9410  -14.4937  -16.0090 C   0  0  0  0  0  0  0  0  0  0  0  0
   21.9457  -13.8094  -16.3363 O   0  0  0  0  0  0  0  0  0  0  0  0
   15.7714  -11.1741  -19.5278 N   0  0  0  0  0  0  0  0  0  0  0  0
   15.4227   -9.9452  -18.9209 C   0  0  0  0  0  0  0  0  0  0  0  0
   15.0024   -8.9187  -19.5932 N   0  0  0  0  0  0  0  0  0  0  0  0
   15.5433   -9.8362  -17.4864 N   0  0  0  0  0  0  0  0  0  0  0  0
   15.9725  -10.9822  -16.7192 C   0  0  0  0  0  0  0  0  0  0  0  0
   17.4992  -10.8861  -16.5645 C   0  0  0  0  0  0  0  0  0  0  0  0
   18.0203  -12.2724  -16.4987 C   0  0  0  0  0  0  0  0  0  0  0  0
   19.5245  -12.4033  -16.3193 C   0  0  2  0  0  0  0  0  0  0  0  0
   19.7034  -13.8147  -15.9507 N   0  0  0  0  0  0  0  0  0  0  0  0
   20.0849  -11.5831  -15.2446 C   0  0  0  0  0  0  0  0  0  0  0  0
   19.7486  -11.7910  -14.0407 O   0  0  0  0  0  0  0  0  0  0  0  0
   14.7588   -8.0706  -19.0382 C   0  0  0  0  0  0  0  0  0  0  0  0
   23.5238  -11.3293  -14.0918 C   0  0  2  0  0  0  0  0  0  0  0  0
   23.0704   -9.9098  -14.2324 C   0  0  0  0  0  0  0  0  0  0  0  0
   23.7332   -9.3225  -15.4580 C   0  0  2  0  0  0  0  0  0  0  0  0
   21.5643   -9.7855  -14.3097 N   0  0  0  0  0  0  0  0  0  0  0  0
   21.0186  -10.5230  -15.4234 C   0  0  0  0  0  0  0  0  0  0  0  0
   21.1344   -8.3657  -14.3281 O   0  0  0  0  0  0  0  0  0  0  0  0
   21.2056   -7.5749  -13.1925 O   0  0  0  0  0  0  0  0  0  0  0  0
  2  3  1  0
  2  1  1  0
  3  4  1  6
  5  6  2  0
  5  3  1  0
  7  8  1  0
  8 10  1  0
  8  9  2  0
 10 11  1  0
 12 11  1  0
 12 13  1  0
 14 13  1  1
 14 15  1  0
 15  5  1  0
 16 17  2  0
 16 14  1  0
 19 18  1  1
 20 19  1  0
 21 19  1  0
 21 22  1  1
 22 16  1  0
 23 21  1  0
 24 23  1  0
 25 23  2  0
M  END
$$$$
