SRV.pdb
     RDKit          3D

 25 24  0  0  1  0  0  0  0  0999 V2000
   23.3027  -16.4196  -19.3478 O   0  0  0  0  0  0  0  0  0  0  0  0
   24.5167  -16.1398  -18.7323 C   0  0  0  0  0  0  0  0  0  0  0  0
   25.3333  -17.3926  -18.7327 C   0  0  2  0  0  0  0  0  0  0  0  0
   25.3442  -18.0019  -20.0500 N   0  0  0  0  0  0  0  0  0  0  0  0
   24.7999  -18.4107  -17.7765 C   0  0  0  0  0  0  0  0  0  0  0  0
   24.1493  -19.4119  -18.1749 O   0  0  0  0  0  0  0  0  0  0  0  0
   26.5385  -22.0806  -10.9494 N   0  0  0  0  0  0  0  0  0  0  0  0
   27.4513  -21.4768  -11.8451 C   0  0  0  0  0  0  0  0  0  0  0  0
   28.5246  -22.0700  -12.2675 N   0  0  0  0  0  0  0  0  0  0  0  0
   27.1685  -20.1380  -12.3055 N   0  0  0  0  0  0  0  0  0  0  0  0
   25.9591  -19.4774  -11.8731 C   0  0  0  0  0  0  0  0  0  0  0  0
   24.8869  -19.7339  -12.9448 C   0  0  0  0  0  0  0  0  0  0  0  0
   25.3246  -19.0360  -14.1772 C   0  0  0  0  0  0  0  0  0  0  0  0
   24.4360  -19.2302  -15.3956 C   0  0  2  0  0  0  0  0  0  0  0  0
   24.9999  -18.2985  -16.3823 N   0  0  0  0  0  0  0  0  0  0  0  0
   23.0318  -18.8726  -15.1904 C   0  0  0  0  0  0  0  0  0  0  0  0
   22.7083  -17.6739  -14.9373 O   0  0  0  0  0  0  0  0  0  0  0  0
   29.1274  -21.5254  -12.9208 C   0  0  0  0  0  0  0  0  0  0  0  0
   20.1138  -18.9670  -17.4172 C   0  0  2  0  0  0  0  0  0  0  0  0
   19.6653  -19.6467  -16.1614 C   0  0  0  0  0  0  0  0  0  0  0  0
   19.5680  -21.1302  -16.4373 C   0  0  2  0  0  0  0  0  0  0  0  0
   20.5799  -19.3649  -14.9893 N   0  0  0  0  0  0  0  0  0  0  0  0
   21.9366  -19.7807  -15.2515 C   0  0  0  0  0  0  0  0  0  0  0  0
   20.0569  -19.9582  -13.7343 O   0  0  0  0  0  0  0  0  0  0  0  0
   18.9705  -19.4079  -13.0732 O   0  0  0  0  0  0  0  0  0  0  0  0
  2  3  1  0
  2  1  1  0
  3  4  1  6
  5  6  2  0
  5  3  1  0
  7  8  1  0
  8 10  1  0
  8  9  2  0
 10 11  1  0
 12 11  1  0
 12 13  1  0
 14 13  1  1
 14 15  1  0
 15  5  1  0
 16 17  2  0
 16 14  1  0
 19 18  1  6
 20 19  1  0
 21 19  1  0
 21 22  1  1
 22 16  1  0
 23 21  1  0
 24 23  1  0
 25 23  2  0
M  END
$$$$
