SRV.pdb
     RDKit          3D

 25 24  0  0  1  0  0  0  0  0999 V2000
   22.9019  -26.3446  -16.2460 O   0  0  0  0  0  0  0  0  0  0  0  0
   22.4221  -25.4030  -17.1482 C   0  0  0  0  0  0  0  0  0  0  0  0
   22.9421  -24.0628  -16.7360 C   0  0  2  0  0  0  0  0  0  0  0  0
   24.3883  -24.0844  -16.6153 N   0  0  0  0  0  0  0  0  0  0  0  0
   22.3923  -23.6294  -15.4149 C   0  0  0  0  0  0  0  0  0  0  0  0
   22.8439  -22.6210  -14.8118 O   0  0  0  0  0  0  0  0  0  0  0  0
   16.4724  -22.3115  -16.5175 N   0  0  0  0  0  0  0  0  0  0  0  0
   16.2745  -21.6376  -15.2900 C   0  0  0  0  0  0  0  0  0  0  0  0
   15.1048  -21.4744  -14.7536 N   0  0  0  0  0  0  0  0  0  0  0  0
   17.4328  -21.1096  -14.6090 N   0  0  0  0  0  0  0  0  0  0  0  0
   18.7203  -21.1454  -15.2625 C   0  0  0  0  0  0  0  0  0  0  0  0
   19.2779  -22.5692  -15.1018 C   0  0  0  0  0  0  0  0  0  0  0  0
   20.0692  -22.5901  -13.8485 C   0  0  0  0  0  0  0  0  0  0  0  0
   20.7314  -23.9161  -13.5092 C   0  0  2  0  0  0  0  0  0  0  0  0
   21.3414  -24.3292  -14.7809 N   0  0  0  0  0  0  0  0  0  0  0  0
   19.8072  -24.9706  -13.0900 C   0  0  0  0  0  0  0  0  0  0  0  0
   19.0503  -25.5308  -13.9379 O   0  0  0  0  0  0  0  0  0  0  0  0
   15.0807  -20.9706  -13.8413 C   0  0  0  0  0  0  0  0  0  0  0  0
   18.8679  -28.8041  -10.1904 C   0  0  2  0  0  0  0  0  0  0  0  0
   19.6300  -27.5503  -10.4858 C   0  0  0  0  0  0  0  0  0  0  0  0
   20.9905  -27.9400  -11.0183 C   0  0  1  0  0  0  0  0  0  0  0  0
   18.9019  -26.6414  -11.4520 N   0  0  0  0  0  0  0  0  0  0  0  0
   19.6667  -25.4569  -11.7591 C   0  0  0  0  0  0  0  0  0  0  0  0
   17.5415  -26.3054  -10.9650 O   0  0  0  0  0  0  0  0  0  0  0  0
   17.2764  -25.0982  -10.3384 O   0  0  0  0  0  0  0  0  0  0  0  0
  2  3  1  0
  2  1  1  0
  3  4  1  1
  5  6  2  0
  5  3  1  0
  7  8  1  0
  8 10  1  0
  8  9  2  0
 10 11  1  0
 12 11  1  0
 12 13  1  0
 14 13  1  6
 14 15  1  0
 15  5  1  0
 16 17  2  0
 16 14  1  0
 19 18  1  1
 20 19  1  0
 21 19  1  0
 21 22  1  1
 22 16  1  0
 23 21  1  0
 24 23  1  0
 25 23  2  0
M  END
$$$$
