SRV.pdb
     RDKit          3D

 25 24  0  0  1  0  0  0  0  0999 V2000
   29.2813  -20.7001  -14.5740 O   0  0  0  0  0  0  0  0  0  0  0  0
   28.4012  -20.7337  -15.6487 C   0  0  0  0  0  0  0  0  0  0  0  0
   27.1008  -21.2897  -15.1624 C   0  0  2  0  0  0  0  0  0  0  0  0
   26.1639  -21.4479  -16.2595 N   0  0  0  0  0  0  0  0  0  0  0  0
   26.4537  -20.4003  -14.1498 C   0  0  0  0  0  0  0  0  0  0  0  0
   25.9022  -19.3179  -14.4799 O   0  0  0  0  0  0  0  0  0  0  0  0
   19.6371  -19.8528  -12.9382 N   0  0  0  0  0  0  0  0  0  0  0  0
   20.4439  -20.6333  -13.7985 C   0  0  0  0  0  0  0  0  0  0  0  0
   20.1828  -20.7954  -15.0586 N   0  0  0  0  0  0  0  0  0  0  0  0
   21.6098  -21.2763  -13.2405 N   0  0  0  0  0  0  0  0  0  0  0  0
   21.8279  -21.2403  -11.8132 C   0  0  0  0  0  0  0  0  0  0  0  0
   22.9451  -20.2187  -11.5446 C   0  0  0  0  0  0  0  0  0  0  0  0
   24.1257  -20.6441  -12.3338 C   0  0  0  0  0  0  0  0  0  0  0  0
   25.4727  -20.1671  -11.8141 C   0  0  2  0  0  0  0  0  0  0  0  0
   26.4298  -20.7308  -12.7764 N   0  0  0  0  0  0  0  0  0  0  0  0
   25.8253  -20.6658  -10.4841 C   0  0  0  0  0  0  0  0  0  0  0  0
   25.9151  -21.9118  -10.2723 O   0  0  0  0  0  0  0  0  0  0  0  0
   20.8298  -21.4177  -15.5886 C   0  0  0  0  0  0  0  0  0  0  0  0
   27.2514  -19.9780   -5.7490 C   0  0  2  0  0  0  0  0  0  0  0  0
   27.0051  -19.4169   -7.1145 C   0  0  0  0  0  0  0  0  0  0  0  0
   28.3259  -18.9359   -7.6718 C   0  0  1  0  0  0  0  0  0  0  0  0
   26.3480  -20.4146   -8.0432 N   0  0  0  0  0  0  0  0  0  0  0  0
   26.0935  -19.8515   -9.3471 C   0  0  0  0  0  0  0  0  0  0  0  0
   25.1187  -20.9899   -7.4443 O   0  0  0  0  0  0  0  0  0  0  0  0
   25.1680  -22.1103   -6.6304 O   0  0  0  0  0  0  0  0  0  0  0  0
  2  3  1  0
  2  1  1  0
  3  4  1  6
  5  6  2  0
  5  3  1  0
  7  8  1  0
  8 10  1  0
  8  9  2  0
 10 11  1  0
 12 11  1  0
 12 13  1  0
 14 13  1  6
 14 15  1  0
 15  5  1  0
 16 17  2  0
 16 14  1  0
 19 18  1  1
 20 19  1  0
 21 19  1  0
 21 22  1  1
 22 16  1  0
 23 21  1  0
 24 23  1  0
 25 23  2  0
M  END
$$$$
