SRV.pdb
     RDKit          3D

 25 24  0  0  1  0  0  0  0  0999 V2000
   20.7533  -11.9151  -15.1687 O   0  0  0  0  0  0  0  0  0  0  0  0
   20.2181  -10.8040  -14.5285 C   0  0  0  0  0  0  0  0  0  0  0  0
   18.7855  -10.6806  -14.9397 C   0  0  2  0  0  0  0  0  0  0  0  0
   18.6799  -10.2924  -16.3342 N   0  0  0  0  0  0  0  0  0  0  0  0
   18.0573   -9.6519  -14.1355 C   0  0  0  0  0  0  0  0  0  0  0  0
   18.0450   -8.4391  -14.4726 O   0  0  0  0  0  0  0  0  0  0  0  0
   11.6756  -12.0466   -9.3908 N   0  0  0  0  0  0  0  0  0  0  0  0
   11.6222  -11.2356  -10.5481 C   0  0  0  0  0  0  0  0  0  0  0  0
   10.6341  -11.2661  -11.3879 N   0  0  0  0  0  0  0  0  0  0  0  0
   12.7223  -10.3352  -10.7997 N   0  0  0  0  0  0  0  0  0  0  0  0
   13.7800  -10.2137   -9.8236 C   0  0  0  0  0  0  0  0  0  0  0  0
   14.7939   -9.1946  -10.3690 C   0  0  0  0  0  0  0  0  0  0  0  0
   15.5746   -9.8781  -11.4277 C   0  0  0  0  0  0  0  0  0  0  0  0
   16.6070   -9.0209  -12.1427 C   0  0  2  0  0  0  0  0  0  0  0  0
   17.3493   -9.9904  -12.9606 N   0  0  0  0  0  0  0  0  0  0  0  0
   17.5630   -8.3523  -11.2592 C   0  0  0  0  0  0  0  0  0  0  0  0
   18.3759   -9.0331  -10.5655 O   0  0  0  0  0  0  0  0  0  0  0  0
   10.7046  -10.6269  -12.2083 C   0  0  0  0  0  0  0  0  0  0  0  0
   20.7918   -4.9098  -10.3973 C   0  0  2  0  0  0  0  0  0  0  0  0
   19.7088   -5.5724  -11.1900 C   0  0  0  0  0  0  0  0  0  0  0  0
   20.3591   -6.4682  -12.2200 C   0  0  1  0  0  0  0  0  0  0  0  0
   18.7426   -6.3469  -10.3203 N   0  0  0  0  0  0  0  0  0  0  0  0
   17.6797   -6.9428  -11.0932 C   0  0  0  0  0  0  0  0  0  0  0  0
   18.2147   -5.5116   -9.2137 O   0  0  0  0  0  0  0  0  0  0  0  0
   18.8991   -5.3838   -8.0156 O   0  0  0  0  0  0  0  0  0  0  0  0
  2  3  1  0
  2  1  1  0
  3  4  1  6
  5  6  2  0
  5  3  1  0
  7  8  1  0
  8 10  1  0
  8  9  2  0
 10 11  1  0
 12 11  1  0
 12 13  1  0
 14 13  1  1
 14 15  1  0
 15  5  1  0
 16 17  2  0
 16 14  1  0
 19 18  1  6
 20 19  1  0
 21 19  1  0
 21 22  1  6
 22 16  1  0
 23 21  1  0
 24 23  1  0
 25 23  2  0
M  END
$$$$
