SRV.pdb
     RDKit          3D

 25 24  0  0  1  0  0  0  0  0999 V2000
   26.1714  -18.8940   -8.4007 O   0  0  0  0  0  0  0  0  0  0  0  0
   25.6734  -19.8911   -7.5709 C   0  0  0  0  0  0  0  0  0  0  0  0
   24.4178  -20.4198   -8.1877 C   0  0  2  0  0  0  0  0  0  0  0  0
   23.8927  -21.5326   -7.4181 N   0  0  0  0  0  0  0  0  0  0  0  0
   24.6408  -20.9098   -9.5825 C   0  0  0  0  0  0  0  0  0  0  0  0
   25.3268  -21.9387   -9.8178 O   0  0  0  0  0  0  0  0  0  0  0  0
   20.4230  -17.4380  -15.2451 N   0  0  0  0  0  0  0  0  0  0  0  0
   21.1974  -18.0306  -16.2693 C   0  0  0  0  0  0  0  0  0  0  0  0
   21.4134  -17.4586  -17.4132 N   0  0  0  0  0  0  0  0  0  0  0  0
   21.7702  -19.3327  -16.0226 N   0  0  0  0  0  0  0  0  0  0  0  0
   21.5837  -19.9598  -14.7350 C   0  0  0  0  0  0  0  0  0  0  0  0
   22.9635  -20.4354  -14.2512 C   0  0  0  0  0  0  0  0  0  0  0  0
   23.0179  -20.2034  -12.7881 C   0  0  0  0  0  0  0  0  0  0  0  0
   24.2805  -20.6847  -12.0909 C   0  0  2  0  0  0  0  0  0  0  0  0
   24.0935  -20.2434  -10.7016 N   0  0  0  0  0  0  0  0  0  0  0  0
   25.5194  -20.0866  -12.5901 C   0  0  0  0  0  0  0  0  0  0  0  0
   25.8600  -18.9227  -12.2229 O   0  0  0  0  0  0  0  0  0  0  0  0
   21.9837  -17.9976  -18.0995 C   0  0  0  0  0  0  0  0  0  0  0  0
   30.1460  -20.2607  -14.0048 C   0  0  2  0  0  0  0  0  0  0  0  0
   28.8741  -20.8547  -13.4856 C   0  0  0  0  0  0  0  0  0  0  0  0
   28.9729  -20.9373  -11.9790 C   0  0  1  0  0  0  0  0  0  0  0  0
   27.6506  -20.0740  -13.9137 N   0  0  0  0  0  0  0  0  0  0  0  0
   26.4278  -20.7126  -13.4905 C   0  0  0  0  0  0  0  0  0  0  0  0
   27.6552  -19.8101  -15.3736 O   0  0  0  0  0  0  0  0  0  0  0  0
   28.3773  -18.7588  -15.9151 O   0  0  0  0  0  0  0  0  0  0  0  0
  2  3  1  0
  2  1  1  0
  3  4  1  1
  5  6  2  0
  5  3  1  0
  7  8  1  0
  8 10  1  0
  8  9  2  0
 10 11  1  0
 12 11  1  0
 12 13  1  0
 14 13  1  6
 14 15  1  0
 15  5  1  0
 16 17  2  0
 16 14  1  0
 19 18  1  6
 20 19  1  0
 21 19  1  0
 21 22  1  6
 22 16  1  0
 23 21  1  0
 24 23  1  0
 25 23  2  0
M  END
$$$$
