SRV.pdb
     RDKit          3D

 25 24  0  0  1  0  0  0  0  0999 V2000
   28.0938  -17.0736  -18.4096 O   0  0  0  0  0  0  0  0  0  0  0  0
   27.0856  -17.9139  -17.9535 C   0  0  0  0  0  0  0  0  0  0  0  0
   27.6994  -18.9026  -17.0142 C   0  0  2  0  0  0  0  0  0  0  0  0
   28.5598  -19.8282  -17.7279 N   0  0  0  0  0  0  0  0  0  0  0  0
   26.6667  -19.7154  -16.3012 C   0  0  0  0  0  0  0  0  0  0  0  0
   25.9659  -20.5682  -16.9063 O   0  0  0  0  0  0  0  0  0  0  0  0
   26.2171  -19.4634   -8.4491 N   0  0  0  0  0  0  0  0  0  0  0  0
   25.5636  -20.6122   -8.9523 C   0  0  0  0  0  0  0  0  0  0  0  0
   24.4367  -21.0482   -8.4806 N   0  0  0  0  0  0  0  0  0  0  0  0
   26.1861  -21.3274  -10.0409 N   0  0  0  0  0  0  0  0  0  0  0  0
   27.2501  -20.6992  -10.7889 C   0  0  0  0  0  0  0  0  0  0  0  0
   27.0108  -21.0078  -12.2760 C   0  0  0  0  0  0  0  0  0  0  0  0
   25.8696  -20.1712  -12.7181 C   0  0  0  0  0  0  0  0  0  0  0  0
   25.4405  -20.3535  -14.1653 C   0  0  2  0  0  0  0  0  0  0  0  0
   26.4279  -19.5659  -14.9167 N   0  0  0  0  0  0  0  0  0  0  0  0
   24.1117  -19.8266  -14.4792 C   0  0  0  0  0  0  0  0  0  0  0  0
   23.9134  -18.5757  -14.5180 O   0  0  0  0  0  0  0  0  0  0  0  0
   24.0681  -21.9275   -8.9021 C   0  0  0  0  0  0  0  0  0  0  0  0
   20.9989  -21.8953  -16.5394 C   0  0  2  0  0  0  0  0  0  0  0  0
   21.1236  -20.4135  -16.3696 C   0  0  0  0  0  0  0  0  0  0  0  0
   19.7650  -19.7953  -16.6117 C   0  0  1  0  0  0  0  0  0  0  0  0
   21.6683  -20.0277  -15.0116 N   0  0  0  0  0  0  0  0  0  0  0  0
   22.9614  -20.6170  -14.7617 C   0  0  0  0  0  0  0  0  0  0  0  0
   20.7041  -20.3401  -13.9283 O   0  0  0  0  0  0  0  0  0  0  0  0
   20.9377  -21.3667  -13.0274 O   0  0  0  0  0  0  0  0  0  0  0  0
  2  3  1  0
  2  1  1  0
  3  4  1  6
  5  6  2  0
  5  3  1  0
  7  8  1  0
  8 10  1  0
  8  9  2  0
 10 11  1  0
 12 11  1  0
 12 13  1  0
 14 13  1  1
 14 15  1  0
 15  5  1  0
 16 17  2  0
 16 14  1  0
 19 18  1  6
 20 19  1  0
 21 19  1  0
 21 22  1  6
 22 16  1  0
 23 21  1  0
 24 23  1  0
 25 23  2  0
M  END
$$$$
