QAD.pdb
     RDKit          3D

 23 22  0  0  1  0  0  0  0  0999 V2000
    7.7959  -12.6364   16.6667 N   0  0  0  0  0  0  0  0  0  0  0  0
    7.8716  -13.8590   15.9016 C   0  0  0  0  0  0  0  0  0  0  0  0
    7.3122  -13.9580   14.7911 O   0  0  0  0  0  0  0  0  0  0  0  0
    8.6185  -14.9819   16.4657 C   0  0  0  0  0  0  0  0  0  0  0  0
    9.1486  -14.6884   17.8204 C   0  0  0  0  0  0  0  0  0  0  0  0
    8.9650  -15.8327   18.7608 C   0  0  2  0  0  0  0  0  0  0  0  0
    7.6735  -16.4165   18.8194 N   0  0  0  0  0  0  0  0  0  0  0  0
    9.3458  -15.3351   20.1187 C   0  0  0  0  0  0  0  0  0  0  0  0
   10.4905  -14.8553   20.2701 O   0  0  0  0  0  0  0  0  0  0  0  0
    7.5440  -14.5499   23.2270 C   0  0  0  0  0  0  0  0  0  0  0  0
    8.7854  -15.0103   22.5086 C   0  0  2  0  0  0  0  0  0  0  0  0
    8.4292  -15.4153   21.1722 N   0  0  0  0  0  0  0  0  0  0  0  0
    9.5021  -16.0830   23.2322 C   0  0  0  0  0  0  0  0  0  0  0  0
    9.0538  -17.2588   23.1429 O   0  0  0  0  0  0  0  0  0  0  0  0
   10.6545  -15.8879   24.0178 N   0  0  0  0  0  0  0  0  0  0  0  0
   11.2487  -16.9662   24.7591 C   0  0  1  0  0  0  0  0  0  0  0  0
   12.7368  -16.7175   24.8382 C   0  0  0  0  0  0  0  0  0  0  0  0
   13.3834  -16.6146   23.5234 C   0  0  0  0  0  0  0  0  0  0  0  0
   13.1665  -17.3293   22.5241 O   0  0  0  0  0  0  0  0  0  0  0  0
   10.7434  -17.0665   26.1440 C   0  0  0  0  0  0  0  0  0  0  0  0
    9.9498  -16.1660   26.5210 O   0  0  0  0  0  0  0  0  0  0  0  0
   14.3435  -15.6105   23.3743 O   0  0  0  0  0  0  0  0  0  0  0  0
   11.0759  -18.0572   27.0282 O   0  0  0  0  0  0  0  0  0  0  0  0
  2  1  1  0
  2  3  2  0
  4  2  1  0
  5  4  1  0
  6  5  1  0
  6  7  1  1
  8  6  1  0
  8 12  1  0
  9  8  2  0
 11 10  1  1
 11 12  1  0
 11 13  1  0
 13 15  1  0
 13 14  2  0
 15 16  1  0
 16 17  1  1
 17 18  1  0
 18 19  2  0
 18 22  1  0
 20 16  1  0
 20 23  1  0
 21 20  2  0
M  END
$$$$
