QAD.pdb
     RDKit          3D

 23 22  0  0  1  0  0  0  0  0999 V2000
    8.8786  -15.0606   14.5085 N   0  0  0  0  0  0  0  0  0  0  0  0
    7.9668  -14.1514   15.1626 C   0  0  0  0  0  0  0  0  0  0  0  0
    7.0732  -13.5642   14.5201 O   0  0  0  0  0  0  0  0  0  0  0  0
    8.1215  -13.9327   16.5997 C   0  0  0  0  0  0  0  0  0  0  0  0
    9.2404  -14.7184   17.1768 C   0  0  0  0  0  0  0  0  0  0  0  0
    8.7693  -15.7347   18.1631 C   0  0  2  0  0  0  0  0  0  0  0  0
    7.3859  -16.0483   18.1528 N   0  0  0  0  0  0  0  0  0  0  0  0
    9.1519  -15.2261   19.5164 C   0  0  0  0  0  0  0  0  0  0  0  0
   10.3353  -14.8652   19.6966 O   0  0  0  0  0  0  0  0  0  0  0  0
    7.3074  -14.1510   22.5188 C   0  0  0  0  0  0  0  0  0  0  0  0
    8.5371  -14.7205   21.8612 C   0  0  2  0  0  0  0  0  0  0  0  0
    8.1942  -15.1656   20.5341 N   0  0  0  0  0  0  0  0  0  0  0  0
    9.1641  -15.7998   22.6548 C   0  0  0  0  0  0  0  0  0  0  0  0
    8.6853  -16.9627   22.5545 O   0  0  0  0  0  0  0  0  0  0  0  0
   10.2621  -15.6246   23.5190 N   0  0  0  0  0  0  0  0  0  0  0  0
   10.8234  -16.7260   24.2519 C   0  0  1  0  0  0  0  0  0  0  0  0
   12.3084  -16.4869   24.3946 C   0  0  0  0  0  0  0  0  0  0  0  0
   13.0199  -16.4432   23.1104 C   0  0  0  0  0  0  0  0  0  0  0  0
   12.7344  -17.0762   22.0740 O   0  0  0  0  0  0  0  0  0  0  0  0
   10.2652  -16.8623   25.6132 C   0  0  0  0  0  0  0  0  0  0  0  0
    9.5162  -15.9329   26.0109 O   0  0  0  0  0  0  0  0  0  0  0  0
   14.1350  -15.6042   23.0403 O   0  0  0  0  0  0  0  0  0  0  0  0
   10.5049  -17.9145   26.4553 O   0  0  0  0  0  0  0  0  0  0  0  0
  2  1  1  0
  2  3  2  0
  4  2  1  0
  5  4  1  0
  6  5  1  0
  6  7  1  1
  8  6  1  0
  8 12  1  0
  9  8  2  0
 11 10  1  1
 11 12  1  0
 11 13  1  0
 13 15  1  0
 13 14  2  0
 15 16  1  0
 16 17  1  1
 17 18  1  0
 18 19  2  0
 18 22  1  0
 20 16  1  0
 20 23  1  0
 21 20  2  0
M  END
$$$$
