QAD.pdb
     RDKit          3D

 23 22  0  0  1  0  0  0  0  0999 V2000
    8.1371  -12.4791   16.6236 N   0  0  0  0  0  0  0  0  0  0  0  0
    7.7866  -13.7671   16.0724 C   0  0  0  0  0  0  0  0  0  0  0  0
    7.4617  -13.8867   14.8740 O   0  0  0  0  0  0  0  0  0  0  0  0
    7.8175  -14.9294   16.9585 C   0  0  0  0  0  0  0  0  0  0  0  0
    8.2779  -14.5881   18.3274 C   0  0  0  0  0  0  0  0  0  0  0  0
    8.2853  -15.7733   19.2346 C   0  0  2  0  0  0  0  0  0  0  0  0
    7.0613  -16.4737   19.3881 N   0  0  0  0  0  0  0  0  0  0  0  0
    8.7481  -15.2858   20.5705 C   0  0  0  0  0  0  0  0  0  0  0  0
    9.9062  -14.8230   20.6593 O   0  0  0  0  0  0  0  0  0  0  0  0
    7.1394  -14.6291   23.8322 C   0  0  0  0  0  0  0  0  0  0  0  0
    8.3368  -14.9957   22.9950 C   0  0  2  0  0  0  0  0  0  0  0  0
    7.8903  -15.3565   21.6731 N   0  0  0  0  0  0  0  0  0  0  0  0
    9.1578  -16.0640   23.6052 C   0  0  0  0  0  0  0  0  0  0  0  0
    8.8111  -17.2612   23.4104 O   0  0  0  0  0  0  0  0  0  0  0  0
   10.3045  -15.8425   24.3922 N   0  0  0  0  0  0  0  0  0  0  0  0
   10.9847  -16.9251   25.0486 C   0  0  1  0  0  0  0  0  0  0  0  0
   12.4669  -16.6338   25.0209 C   0  0  0  0  0  0  0  0  0  0  0  0
   13.1157  -17.0205   23.7612 C   0  0  0  0  0  0  0  0  0  0  0  0
   12.5750  -17.5614   22.7755 O   0  0  0  0  0  0  0  0  0  0  0  0
   10.5922  -17.0843   26.4642 C   0  0  0  0  0  0  0  0  0  0  0  0
   11.0355  -18.0990   27.0613 O   0  0  0  0  0  0  0  0  0  0  0  0
   14.4833  -16.7553   23.6537 O   0  0  0  0  0  0  0  0  0  0  0  0
    9.7921  -16.2157   27.1566 O   0  0  0  0  0  0  0  0  0  0  0  0
  2  1  1  0
  2  3  2  0
  4  2  1  0
  5  4  1  0
  6  5  1  0
  6  7  1  1
  8  6  1  0
  8 12  1  0
  9  8  2  0
 11 10  1  1
 11 12  1  0
 11 13  1  0
 13 15  1  0
 13 14  2  0
 15 16  1  0
 16 17  1  1
 17 18  1  0
 18 19  2  0
 18 22  1  0
 20 16  1  0
 20 23  1  0
 21 20  2  0
M  END
$$$$
