QAD.pdb
     RDKit          3D

 23 22  0  0  1  0  0  0  0  0999 V2000
    6.2690  -14.3241   13.3370 N   0  0  0  0  0  0  0  0  0  0  0  0
    7.1745  -15.4263   13.1114 C   0  0  0  0  0  0  0  0  0  0  0  0
    7.0715  -16.1457   12.0975 O   0  0  0  0  0  0  0  0  0  0  0  0
    8.2145  -15.6808   14.1067 C   0  0  0  0  0  0  0  0  0  0  0  0
    8.1683  -14.7186   15.2356 C   0  0  0  0  0  0  0  0  0  0  0  0
    9.3073  -14.9013   16.1826 C   0  0  2  0  0  0  0  0  0  0  0  0
    9.5760  -16.2242   16.6182 N   0  0  0  0  0  0  0  0  0  0  0  0
    9.0190  -14.0379   17.3692 C   0  0  0  0  0  0  0  0  0  0  0  0
    8.6684  -12.8552   17.1652 O   0  0  0  0  0  0  0  0  0  0  0  0
    7.2296  -13.5159   19.6542 C   0  0  0  0  0  0  0  0  0  0  0  0
    8.6942  -13.8290   19.8150 C   0  0  2  0  0  0  0  0  0  0  0  0
    9.1452  -14.5628   18.6595 N   0  0  0  0  0  0  0  0  0  0  0  0
    8.9917  -14.5510   21.0713 C   0  0  0  0  0  0  0  0  0  0  0  0
    8.5766  -14.0523   22.1531 O   0  0  0  0  0  0  0  0  0  0  0  0
    9.7083  -15.7609   21.1496 N   0  0  0  0  0  0  0  0  0  0  0  0
   10.5693  -16.0523   22.2628 C   0  0  1  0  0  0  0  0  0  0  0  0
   10.6802  -17.5536   22.3900 C   0  0  0  0  0  0  0  0  0  0  0  0
   10.6512  -18.0267   23.7802 C   0  0  0  0  0  0  0  0  0  0  0  0
   10.5581  -17.3258   24.8081 O   0  0  0  0  0  0  0  0  0  0  0  0
   11.9376  -15.5210   22.0931 C   0  0  0  0  0  0  0  0  0  0  0  0
   12.3486  -15.3894   20.9114 O   0  0  0  0  0  0  0  0  0  0  0  0
   10.7369  -19.4078   23.9739 O   0  0  0  0  0  0  0  0  0  0  0  0
   12.7728  -15.1687   23.1189 O   0  0  0  0  0  0  0  0  0  0  0  0
  2  1  1  0
  2  3  2  0
  4  2  1  0
  5  4  1  0
  6  5  1  0
  6  7  1  1
  8  6  1  0
  8 12  1  0
  9  8  2  0
 11 10  1  6
 11 12  1  0
 11 13  1  0
 13 15  1  0
 13 14  2  0
 15 16  1  0
 16 17  1  6
 17 18  1  0
 18 19  2  0
 18 22  1  0
 20 16  1  0
 20 23  1  0
 21 20  2  0
M  END
$$$$
