QAD.pdb
     RDKit          3D

 23 22  0  0  1  0  0  0  0  0999 V2000
   11.8127  -15.7111   18.8552 N   0  0  0  0  0  0  0  0  0  0  0  0
   12.1351  -14.8155   17.7691 C   0  0  0  0  0  0  0  0  0  0  0  0
   12.9696  -15.1347   16.8987 O   0  0  0  0  0  0  0  0  0  0  0  0
   11.4601  -13.5197   17.7186 C   0  0  0  0  0  0  0  0  0  0  0  0
   10.5467  -13.3097   18.8692 C   0  0  0  0  0  0  0  0  0  0  0  0
    9.1442  -13.7163   18.5607 C   0  0  2  0  0  0  0  0  0  0  0  0
    8.3017  -12.7328   17.9818 N   0  0  0  0  0  0  0  0  0  0  0  0
    8.5436  -14.1885   19.8463 C   0  0  0  0  0  0  0  0  0  0  0  0
    8.0458  -13.3347   20.6121 O   0  0  0  0  0  0  0  0  0  0  0  0
    6.8238  -16.8181   21.2398 C   0  0  0  0  0  0  0  0  0  0  0  0
    8.0920  -16.0301   21.4389 C   0  0  2  0  0  0  0  0  0  0  0  0
    8.5512  -15.5517   20.1593 N   0  0  0  0  0  0  0  0  0  0  0  0
    9.1407  -16.7995   22.1432 C   0  0  0  0  0  0  0  0  0  0  0  0
    9.0616  -18.0584   22.1285 O   0  0  0  0  0  0  0  0  0  0  0  0
   10.2273  -16.2276   22.8328 N   0  0  0  0  0  0  0  0  0  0  0  0
   11.1880  -17.0410   23.5261 C   0  0  1  0  0  0  0  0  0  0  0  0
   12.5007  -16.2937   23.5571 C   0  0  0  0  0  0  0  0  0  0  0  0
   13.0620  -16.0415   22.2234 C   0  0  0  0  0  0  0  0  0  0  0  0
   13.4047  -14.9388   21.7513 O   0  0  0  0  0  0  0  0  0  0  0  0
   10.8075  -17.3237   24.9255 C   0  0  0  0  0  0  0  0  0  0  0  0
   11.5388  -18.1297   25.5568 O   0  0  0  0  0  0  0  0  0  0  0  0
   13.2306  -17.1535   21.3943 O   0  0  0  0  0  0  0  0  0  0  0  0
    9.7306  -16.7762   25.5693 O   0  0  0  0  0  0  0  0  0  0  0  0
  2  1  1  0
  2  3  2  0
  4  2  1  0
  5  4  1  0
  6  5  1  0
  6  7  1  1
  8  6  1  0
  8 12  1  0
  9  8  2  0
 11 10  1  6
 11 12  1  0
 11 13  1  0
 13 15  1  0
 13 14  2  0
 15 16  1  0
 16 17  1  1
 17 18  1  0
 18 19  2  0
 18 22  1  0
 20 16  1  0
 20 23  1  0
 21 20  2  0
M  END
$$$$
