QAD.pdb
     RDKit          3D

 23 22  0  0  1  0  0  0  0  0999 V2000
    9.4348  -13.8950   16.5650 N   0  0  0  0  0  0  0  0  0  0  0  0
    7.9963  -13.7778   16.5148 C   0  0  0  0  0  0  0  0  0  0  0  0
    7.3815  -13.8656   15.4330 O   0  0  0  0  0  0  0  0  0  0  0  0
    7.2777  -13.5480   17.7670 C   0  0  0  0  0  0  0  0  0  0  0  0
    8.1624  -13.6399   18.9549 C   0  0  0  0  0  0  0  0  0  0  0  0
    7.9928  -14.9281   19.6892 C   0  0  2  0  0  0  0  0  0  0  0  0
    6.6751  -15.4440   19.7876 N   0  0  0  0  0  0  0  0  0  0  0  0
    8.5442  -14.7128   21.0626 C   0  0  0  0  0  0  0  0  0  0  0  0
    9.7039  -14.2570   21.1664 O   0  0  0  0  0  0  0  0  0  0  0  0
    7.1750  -15.0332   24.5077 C   0  0  0  0  0  0  0  0  0  0  0  0
    8.3056  -14.9476   23.5161 C   0  0  2  0  0  0  0  0  0  0  0  0
    7.7644  -15.0202   22.1823 N   0  0  0  0  0  0  0  0  0  0  0  0
    9.3448  -15.9759   23.7410 C   0  0  0  0  0  0  0  0  0  0  0  0
    9.2152  -17.0861   23.1560 O   0  0  0  0  0  0  0  0  0  0  0  0
   10.4746  -15.8065   24.5645 N   0  0  0  0  0  0  0  0  0  0  0  0
   11.4304  -16.8629   24.7536 C   0  0  1  0  0  0  0  0  0  0  0  0
   12.8014  -16.3199   24.4249 C   0  0  0  0  0  0  0  0  0  0  0  0
   13.8772  -17.3054   24.5948 C   0  0  0  0  0  0  0  0  0  0  0  0
   13.8417  -18.5136   24.2859 O   0  0  0  0  0  0  0  0  0  0  0  0
   11.4751  -17.3636   26.1431 C   0  0  0  0  0  0  0  0  0  0  0  0
   10.9532  -16.6315   27.0231 O   0  0  0  0  0  0  0  0  0  0  0  0
   15.0670  -16.8425   25.1625 O   0  0  0  0  0  0  0  0  0  0  0  0
   12.0369  -18.5507   26.5292 O   0  0  0  0  0  0  0  0  0  0  0  0
  2  1  1  0
  2  3  2  0
  4  2  1  0
  5  4  1  0
  6  5  1  0
  6  7  1  1
  8  6  1  0
  8 12  1  0
  9  8  2  0
 11 10  1  1
 11 12  1  0
 11 13  1  0
 13 15  1  0
 13 14  2  0
 15 16  1  0
 16 17  1  1
 17 18  1  0
 18 19  2  0
 18 22  1  0
 20 16  1  0
 20 23  1  0
 21 20  2  0
M  END
$$$$
