QAD.pdb
     RDKit          3D

 23 22  0  0  1  0  0  0  0  0999 V2000
    9.7009  -14.0775   16.1907 N   0  0  0  0  0  0  0  0  0  0  0  0
    8.2678  -14.0431   16.0145 C   0  0  0  0  0  0  0  0  0  0  0  0
    7.7411  -14.4325   14.9529 O   0  0  0  0  0  0  0  0  0  0  0  0
    7.4487  -13.5343   17.1132 C   0  0  0  0  0  0  0  0  0  0  0  0
    8.2465  -13.2479   18.3313 C   0  0  0  0  0  0  0  0  0  0  0  0
    8.6213  -14.4905   19.0681 C   0  0  2  0  0  0  0  0  0  0  0  0
    7.6580  -15.5311   19.1064 N   0  0  0  0  0  0  0  0  0  0  0  0
    8.9566  -14.0743   20.4649 C   0  0  0  0  0  0  0  0  0  0  0  0
    9.8251  -13.1888   20.6227 O   0  0  0  0  0  0  0  0  0  0  0  0
    7.2979  -14.2567   23.6843 C   0  0  0  0  0  0  0  0  0  0  0  0
    8.5862  -14.2833   22.9043 C   0  0  2  0  0  0  0  0  0  0  0  0
    8.3027  -14.6737   21.5463 N   0  0  0  0  0  0  0  0  0  0  0  0
    9.6117  -15.1532   23.5203 C   0  0  0  0  0  0  0  0  0  0  0  0
    9.9238  -14.9394   24.7237 O   0  0  0  0  0  0  0  0  0  0  0  0
   10.2694  -16.2085   22.8591 N   0  0  0  0  0  0  0  0  0  0  0  0
   11.2820  -16.9896   23.5147 C   0  0  1  0  0  0  0  0  0  0  0  0
   11.0440  -18.4433   23.1792 C   0  0  0  0  0  0  0  0  0  0  0  0
    9.8458  -19.0027   23.8184 C   0  0  0  0  0  0  0  0  0  0  0  0
    9.0885  -18.4259   24.6247 O   0  0  0  0  0  0  0  0  0  0  0  0
   12.6514  -16.6529   23.0738 C   0  0  0  0  0  0  0  0  0  0  0  0
   12.7518  -15.8567   22.1048 O   0  0  0  0  0  0  0  0  0  0  0  0
    9.5179  -20.3206   23.4898 O   0  0  0  0  0  0  0  0  0  0  0  0
   13.7980  -17.1414   23.6401 O   0  0  0  0  0  0  0  0  0  0  0  0
  2  1  1  0
  2  3  2  0
  4  2  1  0
  5  4  1  0
  6  5  1  0
  6  7  1  1
  8  6  1  0
  8 12  1  0
  9  8  2  0
 11 10  1  1
 11 12  1  0
 11 13  1  0
 13 15  1  0
 13 14  2  0
 15 16  1  0
 16 17  1  6
 17 18  1  0
 18 19  2  0
 18 22  1  0
 20 16  1  0
 20 23  1  0
 21 20  2  0
M  END
$$$$
