QAD.pdb
     RDKit          3D

 23 22  0  0  1  0  0  0  0  0999 V2000
    9.0510  -12.5959   17.6366 N   0  0  0  0  0  0  0  0  0  0  0  0
    7.9047  -13.4731   17.5870 C   0  0  0  0  0  0  0  0  0  0  0  0
    7.8383  -14.3976   16.7523 O   0  0  0  0  0  0  0  0  0  0  0  0
    6.8193  -13.2460   18.5395 C   0  0  0  0  0  0  0  0  0  0  0  0
    7.3027  -13.1486   19.9392 C   0  0  0  0  0  0  0  0  0  0  0  0
    8.2309  -14.2614   20.2966 C   0  0  2  0  0  0  0  0  0  0  0  0
    7.8873  -15.5586   19.8371 N   0  0  0  0  0  0  0  0  0  0  0  0
    8.3281  -14.2740   21.7889 C   0  0  0  0  0  0  0  0  0  0  0  0
    7.7347  -13.3759   22.4250 O   0  0  0  0  0  0  0  0  0  0  0  0
    7.7163  -15.4089   24.4078 C   0  0  0  0  0  0  0  0  0  0  0  0
    9.1217  -15.3603   23.8678 C   0  0  2  0  0  0  0  0  0  0  0  0
    9.0675  -15.2732   22.4302 N   0  0  0  0  0  0  0  0  0  0  0  0
    9.9478  -16.5026   24.3154 C   0  0  0  0  0  0  0  0  0  0  0  0
   10.0410  -16.7158   25.5553 O   0  0  0  0  0  0  0  0  0  0  0  0
   10.6422  -17.3750   23.4550 N   0  0  0  0  0  0  0  0  0  0  0  0
   12.0015  -17.7618   23.7160 C   0  0  1  0  0  0  0  0  0  0  0  0
   12.7020  -17.9393   22.3892 C   0  0  0  0  0  0  0  0  0  0  0  0
   12.0591  -18.9301   21.5162 C   0  0  0  0  0  0  0  0  0  0  0  0
   11.0859  -19.6578   21.7986 O   0  0  0  0  0  0  0  0  0  0  0  0
   12.7565  -16.7489   24.4822 C   0  0  0  0  0  0  0  0  0  0  0  0
   13.2646  -17.1275   25.5691 O   0  0  0  0  0  0  0  0  0  0  0  0
   12.5929  -19.0744   20.2330 O   0  0  0  0  0  0  0  0  0  0  0  0
   12.9366  -15.4485   24.0943 O   0  0  0  0  0  0  0  0  0  0  0  0
  2  1  1  0
  2  3  2  0
  4  2  1  0
  5  4  1  0
  6  5  1  0
  6  7  1  1
  8  6  1  0
  8 12  1  0
  9  8  2  0
 11 10  1  6
 11 12  1  0
 11 13  1  0
 13 15  1  0
 13 14  2  0
 15 16  1  0
 16 17  1  6
 17 18  1  0
 18 19  2  0
 18 22  1  0
 20 16  1  0
 20 23  1  0
 21 20  2  0
M  END
$$$$
