QAD.pdb
     RDKit          3D

 23 22  0  0  1  0  0  0  0  0999 V2000
    9.0787  -13.3912   16.4379 N   0  0  0  0  0  0  0  0  0  0  0  0
    7.8645  -13.9806   16.9518 C   0  0  0  0  0  0  0  0  0  0  0  0
    7.2362  -14.8345   16.2945 O   0  0  0  0  0  0  0  0  0  0  0  0
    7.3868  -13.5459   18.2633 C   0  0  0  0  0  0  0  0  0  0  0  0
    8.4687  -13.5092   19.2784 C   0  0  0  0  0  0  0  0  0  0  0  0
    8.4296  -14.6898   20.1908 C   0  0  2  0  0  0  0  0  0  0  0  0
    7.2477  -15.4740   20.1781 N   0  0  0  0  0  0  0  0  0  0  0  0
    8.6640  -14.1693   21.5731 C   0  0  0  0  0  0  0  0  0  0  0  0
    9.7169  -13.5312   21.7912 O   0  0  0  0  0  0  0  0  0  0  0  0
    6.6238  -13.4273   24.4749 C   0  0  0  0  0  0  0  0  0  0  0  0
    7.9265  -13.9483   23.9266 C   0  0  2  0  0  0  0  0  0  0  0  0
    7.7166  -14.4030   22.5752 N   0  0  0  0  0  0  0  0  0  0  0  0
    8.5231  -15.0049   24.7724 C   0  0  0  0  0  0  0  0  0  0  0  0
    8.7382  -14.7398   25.9868 O   0  0  0  0  0  0  0  0  0  0  0  0
    8.8707  -16.2924   24.3198 N   0  0  0  0  0  0  0  0  0  0  0  0
    9.4295  -17.2745   25.2080 C   0  0  1  0  0  0  0  0  0  0  0  0
    8.7307  -18.5895   24.9532 C   0  0  0  0  0  0  0  0  0  0  0  0
    7.2828  -18.5389   25.1947 C   0  0  0  0  0  0  0  0  0  0  0  0
    6.7067  -18.0745   26.1991 O   0  0  0  0  0  0  0  0  0  0  0  0
   10.8751  -17.4940   24.9953 C   0  0  0  0  0  0  0  0  0  0  0  0
   11.3799  -16.9695   23.9691 O   0  0  0  0  0  0  0  0  0  0  0  0
    6.4621  -19.0665   24.1945 O   0  0  0  0  0  0  0  0  0  0  0  0
   11.6872  -18.2176   25.8265 O   0  0  0  0  0  0  0  0  0  0  0  0
  2  1  1  0
  2  3  2  0
  4  2  1  0
  5  4  1  0
  6  5  1  0
  6  7  1  1
  8  6  1  0
  8 12  1  0
  9  8  2  0
 11 10  1  1
 11 12  1  0
 11 13  1  0
 13 15  1  0
 13 14  2  0
 15 16  1  0
 16 17  1  6
 17 18  1  0
 18 19  2  0
 18 22  1  0
 20 16  1  0
 20 23  1  0
 21 20  2  0
M  END
$$$$
