QAD.pdb
     RDKit          3D

 23 22  0  0  1  0  0  0  0  0999 V2000
    6.9801  -12.6884   18.1469 N   0  0  0  0  0  0  0  0  0  0  0  0
    7.5220  -13.8446   17.4721 C   0  0  0  0  0  0  0  0  0  0  0  0
    6.9364  -14.3514   16.4943 O   0  0  0  0  0  0  0  0  0  0  0  0
    8.7751  -14.4102   17.9690 C   0  0  0  0  0  0  0  0  0  0  0  0
    9.3521  -13.6202   19.0849 C   0  0  0  0  0  0  0  0  0  0  0  0
   10.5854  -14.2473   19.6445 C   0  0  2  0  0  0  0  0  0  0  0  0
   11.0311  -15.4473   19.0334 N   0  0  0  0  0  0  0  0  0  0  0  0
   10.3165  -14.4996   21.0938 C   0  0  0  0  0  0  0  0  0  0  0  0
    9.9876  -13.5283   21.8092 O   0  0  0  0  0  0  0  0  0  0  0  0
    9.1201  -16.9503   23.2485 C   0  0  0  0  0  0  0  0  0  0  0  0
   10.3094  -16.0542   23.0211 C   0  0  2  0  0  0  0  0  0  0  0  0
   10.4360  -15.7944   21.6092 N   0  0  0  0  0  0  0  0  0  0  0  0
   11.5591  -16.6045   23.5899 C   0  0  0  0  0  0  0  0  0  0  0  0
   11.5579  -16.9418   24.8054 O   0  0  0  0  0  0  0  0  0  0  0  0
   12.7571  -16.7807   22.8707 N   0  0  0  0  0  0  0  0  0  0  0  0
   13.9435  -17.2893   23.5025 C   0  0  1  0  0  0  0  0  0  0  0  0
   14.5369  -18.3484   22.6032 C   0  0  0  0  0  0  0  0  0  0  0  0
   14.7154  -17.9041   21.2147 C   0  0  0  0  0  0  0  0  0  0  0  0
   14.4809  -16.7679   20.7559 O   0  0  0  0  0  0  0  0  0  0  0  0
   14.9789  -16.2559   23.7107 C   0  0  0  0  0  0  0  0  0  0  0  0
   14.7836  -15.1429   23.1576 O   0  0  0  0  0  0  0  0  0  0  0  0
   15.1988  -18.8532   20.3104 O   0  0  0  0  0  0  0  0  0  0  0  0
   16.1165  -16.4266   24.4528 O   0  0  0  0  0  0  0  0  0  0  0  0
  2  1  1  0
  2  3  2  0
  4  2  1  0
  5  4  1  0
  6  5  1  0
  6  7  1  6
  8  6  1  0
  8 12  1  0
  9  8  2  0
 11 10  1  6
 11 12  1  0
 11 13  1  0
 13 15  1  0
 13 14  2  0
 15 16  1  0
 16 17  1  6
 17 18  1  0
 18 19  2  0
 18 22  1  0
 20 16  1  0
 20 23  1  0
 21 20  2  0
M  END
$$$$
