QAD.pdb
     RDKit          3D

 23 22  0  0  1  0  0  0  0  0999 V2000
    8.0790  -15.7581   11.2771 N   0  0  0  0  0  0  0  0  0  0  0  0
    7.1457  -14.9639   12.0412 C   0  0  0  0  0  0  0  0  0  0  0  0
    6.1628  -14.4242   11.4948 O   0  0  0  0  0  0  0  0  0  0  0  0
    7.3859  -14.8041   13.4743 C   0  0  0  0  0  0  0  0  0  0  0  0
    8.6266  -15.4845   13.9218 C   0  0  0  0  0  0  0  0  0  0  0  0
    8.4815  -16.0935   15.2766 C   0  0  2  0  0  0  0  0  0  0  0  0
    7.1607  -16.3009   15.7508 N   0  0  0  0  0  0  0  0  0  0  0  0
    9.2146  -15.2012   16.2269 C   0  0  0  0  0  0  0  0  0  0  0  0
   10.4094  -14.9305   15.9771 O   0  0  0  0  0  0  0  0  0  0  0  0
    8.2341  -13.1870   19.1905 C   0  0  0  0  0  0  0  0  0  0  0  0
    9.2501  -13.8808   18.3213 C   0  0  2  0  0  0  0  0  0  0  0  0
    8.5593  -14.6970   17.3551 N   0  0  0  0  0  0  0  0  0  0  0  0
   10.2299  -14.6679   19.1011 C   0  0  0  0  0  0  0  0  0  0  0  0
    9.9815  -15.8879   19.3043 O   0  0  0  0  0  0  0  0  0  0  0  0
   11.4266  -14.1534   19.6365 N   0  0  0  0  0  0  0  0  0  0  0  0
   12.3381  -14.9856   20.3726 C   0  0  1  0  0  0  0  0  0  0  0  0
   13.6310  -14.2241   20.5491 C   0  0  0  0  0  0  0  0  0  0  0  0
   14.6969  -15.0180   21.1743 C   0  0  0  0  0  0  0  0  0  0  0  0
   14.6364  -16.2167   21.5149 O   0  0  0  0  0  0  0  0  0  0  0  0
   11.8447  -15.3367   21.7204 C   0  0  0  0  0  0  0  0  0  0  0  0
   12.5595  -16.1215   22.3957 O   0  0  0  0  0  0  0  0  0  0  0  0
   15.9076  -14.3629   21.4136 O   0  0  0  0  0  0  0  0  0  0  0  0
   10.6815  -14.8725   22.2732 O   0  0  0  0  0  0  0  0  0  0  0  0
  2  1  1  0
  2  3  2  0
  4  2  1  0
  5  4  1  0
  6  5  1  0
  6  7  1  1
  8  6  1  0
  8 12  1  0
  9  8  2  0
 11 10  1  1
 11 12  1  0
 11 13  1  0
 13 15  1  0
 13 14  2  0
 15 16  1  0
 16 17  1  1
 17 18  1  0
 18 19  2  0
 18 22  1  0
 20 16  1  0
 20 23  1  0
 21 20  2  0
M  END
$$$$
