QAD.pdb
     RDKit          3D

 23 22  0  0  1  0  0  0  0  0999 V2000
    7.7907  -12.5450   17.4724 N   0  0  0  0  0  0  0  0  0  0  0  0
    8.4184  -12.8939   18.7254 C   0  0  0  0  0  0  0  0  0  0  0  0
    9.6537  -13.0474   18.8047 O   0  0  0  0  0  0  0  0  0  0  0  0
    7.5660  -13.0680   19.9002 C   0  0  0  0  0  0  0  0  0  0  0  0
    7.9186  -14.2779   20.6838 C   0  0  0  0  0  0  0  0  0  0  0  0
    7.8118  -15.5277   19.8750 C   0  0  2  0  0  0  0  0  0  0  0  0
    6.5262  -15.8658   19.3800 N   0  0  0  0  0  0  0  0  0  0  0  0
    8.3188  -16.6393   20.7373 C   0  0  0  0  0  0  0  0  0  0  0  0
    7.7131  -16.8796   21.8044 O   0  0  0  0  0  0  0  0  0  0  0  0
   10.5755  -19.4799   20.1609 C   0  0  0  0  0  0  0  0  0  0  0  0
    9.8998  -18.5111   21.0957 C   0  0  2  0  0  0  0  0  0  0  0  0
    9.4402  -17.3741   20.3386 N   0  0  0  0  0  0  0  0  0  0  0  0
   10.7661  -18.1031   22.2230 C   0  0  0  0  0  0  0  0  0  0  0  0
   11.3428  -16.9834   22.1512 O   0  0  0  0  0  0  0  0  0  0  0  0
   10.9961  -18.8764   23.3774 N   0  0  0  0  0  0  0  0  0  0  0  0
   11.8827  -18.4287   24.4161 C   0  0  1  0  0  0  0  0  0  0  0  0
   11.5305  -19.1688   25.6852 C   0  0  0  0  0  0  0  0  0  0  0  0
   12.3514  -18.7765   26.8382 C   0  0  0  0  0  0  0  0  0  0  0  0
   13.2085  -17.8706   26.8739 O   0  0  0  0  0  0  0  0  0  0  0  0
   13.3048  -18.7040   24.1243 C   0  0  0  0  0  0  0  0  0  0  0  0
   13.5827  -19.8612   23.7163 O   0  0  0  0  0  0  0  0  0  0  0  0
   12.1528  -19.4928   28.0213 O   0  0  0  0  0  0  0  0  0  0  0  0
   14.3220  -17.7990   24.2662 O   0  0  0  0  0  0  0  0  0  0  0  0
  2  1  1  0
  2  3  2  0
  4  2  1  0
  5  4  1  0
  6  5  1  0
  6  7  1  1
  8  6  1  0
  8 12  1  0
  9  8  2  0
 11 10  1  6
 11 12  1  0
 11 13  1  0
 13 15  1  0
 13 14  2  0
 15 16  1  0
 16 17  1  1
 17 18  1  0
 18 19  2  0
 18 22  1  0
 20 16  1  0
 20 23  1  0
 21 20  2  0
M  END
$$$$
