QAD.pdb
     RDKit          3D

 23 22  0  0  1  0  0  0  0  0999 V2000
    8.1619  -12.7807   16.2867 N   0  0  0  0  0  0  0  0  0  0  0  0
    8.0118  -14.1369   15.8133 C   0  0  0  0  0  0  0  0  0  0  0  0
    7.5737  -14.3739   14.6697 O   0  0  0  0  0  0  0  0  0  0  0  0
    8.3829  -15.2277   16.7131 C   0  0  0  0  0  0  0  0  0  0  0  0
    8.9323  -14.7390   18.0021 C   0  0  0  0  0  0  0  0  0  0  0  0
    8.6921  -15.6980   19.1202 C   0  0  2  0  0  0  0  0  0  0  0  0
    7.4461  -16.3761   19.1298 N   0  0  0  0  0  0  0  0  0  0  0  0
    8.8430  -14.9211   20.3892 C   0  0  0  0  0  0  0  0  0  0  0  0
    9.5333  -13.8790   20.3628 O   0  0  0  0  0  0  0  0  0  0  0  0
    6.9955  -14.3883   23.3738 C   0  0  0  0  0  0  0  0  0  0  0  0
    8.3635  -14.6593   22.8044 C   0  0  2  0  0  0  0  0  0  0  0  0
    8.2192  -15.3689   21.5583 N   0  0  0  0  0  0  0  0  0  0  0  0
    9.2439  -15.3834   23.7470 C   0  0  0  0  0  0  0  0  0  0  0  0
    9.5439  -14.8148   24.8323 O   0  0  0  0  0  0  0  0  0  0  0  0
    9.7751  -16.6680   23.5212 N   0  0  0  0  0  0  0  0  0  0  0  0
   10.7904  -17.2208   24.3750 C   0  0  1  0  0  0  0  0  0  0  0  0
   11.9094  -16.2120   24.4877 C   0  0  0  0  0  0  0  0  0  0  0  0
   13.2340  -16.7719   24.1890 C   0  0  0  0  0  0  0  0  0  0  0  0
   13.7103  -17.8408   24.6215 O   0  0  0  0  0  0  0  0  0  0  0  0
   10.3089  -17.5011   25.7436 C   0  0  0  0  0  0  0  0  0  0  0  0
    9.4480  -16.7115   26.2109 O   0  0  0  0  0  0  0  0  0  0  0  0
   14.0484  -16.0300   23.3295 O   0  0  0  0  0  0  0  0  0  0  0  0
   10.7302  -18.5447   26.5228 O   0  0  0  0  0  0  0  0  0  0  0  0
  2  1  1  0
  2  3  2  0
  4  2  1  0
  5  4  1  0
  6  5  1  0
  6  7  1  6
  8  6  1  0
  8 12  1  0
  9  8  2  0
 11 10  1  1
 11 12  1  0
 11 13  1  0
 13 15  1  0
 13 14  2  0
 15 16  1  0
 16 17  1  1
 17 18  1  0
 18 19  2  0
 18 22  1  0
 20 16  1  0
 20 23  1  0
 21 20  2  0
M  END
$$$$
