QAD.pdb
     RDKit          3D

 23 22  0  0  1  0  0  0  0  0999 V2000
    6.6460  -23.1887   21.0988 N   0  0  0  0  0  0  0  0  0  0  0  0
    5.9908  -21.9674   21.5046 C   0  0  0  0  0  0  0  0  0  0  0  0
    6.6516  -20.9557   21.8142 O   0  0  0  0  0  0  0  0  0  0  0  0
    4.5297  -21.9487   21.5481 C   0  0  0  0  0  0  0  0  0  0  0  0
    3.9320  -23.2366   21.1165 C   0  0  0  0  0  0  0  0  0  0  0  0
    2.4441  -23.1670   21.0217 C   0  0  2  0  0  0  0  0  0  0  0  0
    1.9002  -22.1964   20.1417 N   0  0  0  0  0  0  0  0  0  0  0  0
    1.9389  -22.9181   22.4071 C   0  0  0  0  0  0  0  0  0  0  0  0
    1.7075  -21.7371   22.7459 O   0  0  0  0  0  0  0  0  0  0  0  0
    0.2520  -24.9209   24.9171 C   0  0  0  0  0  0  0  0  0  0  0  0
    1.2033  -23.7961   24.6024 C   0  0  2  0  0  0  0  0  0  0  0  0
    1.7391  -23.9933   23.2792 N   0  0  0  0  0  0  0  0  0  0  0  0
    2.2759  -23.6532   25.6108 C   0  0  0  0  0  0  0  0  0  0  0  0
    1.9438  -23.3490   26.7891 O   0  0  0  0  0  0  0  0  0  0  0  0
    3.6485  -23.8326   25.3514 N   0  0  0  0  0  0  0  0  0  0  0  0
    4.6348  -23.6694   26.3838 C   0  0  1  0  0  0  0  0  0  0  0  0
    5.7349  -24.6771   26.1455 C   0  0  0  0  0  0  0  0  0  0  0  0
    5.3751  -26.0425   26.5497 C   0  0  0  0  0  0  0  0  0  0  0  0
    4.2953  -26.4152   27.0514 O   0  0  0  0  0  0  0  0  0  0  0  0
    5.2565  -22.3289   26.3862 C   0  0  0  0  0  0  0  0  0  0  0  0
    5.0117  -21.5922   25.3961 O   0  0  0  0  0  0  0  0  0  0  0  0
    6.3436  -27.0301   26.3522 O   0  0  0  0  0  0  0  0  0  0  0  0
    6.0671  -21.8443   27.3772 O   0  0  0  0  0  0  0  0  0  0  0  0
  2  1  1  0
  2  3  2  0
  4  2  1  0
  5  4  1  0
  6  5  1  0
  6  7  1  6
  8  6  1  0
  8 12  1  0
  9  8  2  0
 11 10  1  1
 11 12  1  0
 11 13  1  0
 13 15  1  0
 13 14  2  0
 15 16  1  0
 16 17  1  6
 17 18  1  0
 18 19  2  0
 18 22  1  0
 20 16  1  0
 20 23  1  0
 21 20  2  0
M  END
$$$$
