WHN.pdb
     RDKit          3D

 33 35  0  0  1  0  0  0  0  0999 V2000
    6.4833  -16.9874   23.8492 N   0  0  0  0  0  0  0  0  0  0  0  0
    7.5725  -16.0445   23.8570 C   0  0  1  0  0  0  0  0  0  0  0  0
    8.0697  -15.8269   25.2535 C   0  0  0  0  0  0  0  0  0  0  0  0
    7.1144  -14.9537   25.9755 C   0  0  0  0  0  0  0  0  0  0  0  0
    6.0299  -15.3547   26.7503 C   0  0  0  0  0  0  0  0  0  0  0  0
    5.4159  -14.2865   27.2803 N   0  0  0  0  0  0  0  0  0  0  0  0
    6.0899  -13.2195   26.8553 C   0  0  0  0  0  0  0  0  0  0  0  0
    5.8516  -11.8872   27.1154 C   0  0  0  0  0  0  0  0  0  0  0  0
    6.6508  -10.9111   26.5793 C   0  0  0  0  0  0  0  0  0  0  0  0
    7.6982  -11.2864   25.7746 C   0  0  0  0  0  0  0  0  0  0  0  0
    7.9740  -12.6176   25.4871 C   0  0  0  0  0  0  0  0  0  0  0  0
    7.1613  -13.5905   26.0349 C   0  0  0  0  0  0  0  0  0  0  0  0
    8.6202  -16.5500   22.9470 C   0  0  0  0  0  0  0  0  0  0  0  0
    8.9717  -17.7535   22.9753 O   0  0  0  0  0  0  0  0  0  0  0  0
    9.2363  -15.6900   22.0385 N   0  0  0  0  0  0  0  0  0  0  0  0
   10.2987  -16.1674   21.1065 C   0  0  1  0  0  0  0  0  0  0  0  0
   10.4491  -15.0346   20.1297 C   0  0  0  0  0  0  0  0  0  0  0  0
    9.4237  -14.9434   19.0914 C   0  0  0  0  0  0  0  0  0  0  0  0
    8.3786  -15.7832   18.8410 C   0  0  0  0  0  0  0  0  0  0  0  0
    7.6746  -15.2382   17.8226 N   0  0  0  0  0  0  0  0  0  0  0  0
    8.2321  -14.0913   17.4231 C   0  0  0  0  0  0  0  0  0  0  0  0
    9.3004  -13.9140   18.2004 N   0  0  0  0  0  0  0  0  0  0  0  0
   11.5510  -16.3016   21.9455 C   0  0  0  0  0  0  0  0  0  0  0  0
   11.9545  -15.4155   22.7305 O   0  0  0  0  0  0  0  0  0  0  0  0
   15.5918  -19.0548   24.0568 N   0  0  0  0  0  0  0  0  0  0  0  0
   14.5382  -19.8684   23.5999 C   0  0  0  0  0  0  0  0  0  0  0  0
   14.6225  -21.1052   23.7435 O   0  0  0  0  0  0  0  0  0  0  0  0
   13.3692  -19.2660   22.9692 C   0  0  0  0  0  0  0  0  0  0  0  0
   13.4587  -17.7778   22.7198 C   0  0  2  0  0  0  0  0  0  0  0  0
   12.3072  -17.4927   21.8374 N   0  0  0  0  0  0  0  0  0  0  0  0
   14.6639  -17.3824   21.9601 C   0  0  0  0  0  0  0  0  0  0  0  0
   15.5993  -16.7846   22.5262 O   0  0  0  0  0  0  0  0  0  0  0  0
   14.7827  -17.6641   20.6128 O   0  0  0  0  0  0  0  0  0  0  0  0
  2 13  1  0
  2  1  1  1
  3  2  1  0
  4  3  1  0
  5  4  2  0
  6  5  1  0
  7 12  2  0
  7  6  1  0
  8  7  1  0
  9  8  2  0
  9 10  1  0
 10 11  2  0
 11 12  1  0
 12  4  1  0
 13 14  2  0
 15 16  1  0
 15 13  1  0
 16 17  1  6
 18 17  1  0
 19 18  2  0
 20 21  1  0
 20 19  1  0
 21 22  2  0
 22 18  1  0
 23 24  2  0
 23 16  1  0
 25 26  1  0
 26 27  2  0
 26 28  1  0
 29 28  1  6
 29 30  1  0
 30 23  1  0
 31 33  1  0
 31 29  1  0
 32 31  2  0
M  END
$$$$
