WHN.pdb
     RDKit          3D

 33 35  0  0  1  0  0  0  0  0999 V2000
    6.0558  -17.0731   23.6640 N   0  0  0  0  0  0  0  0  0  0  0  0
    7.0798  -16.0602   23.6371 C   0  0  1  0  0  0  0  0  0  0  0  0
    7.6624  -15.8651   25.0036 C   0  0  0  0  0  0  0  0  0  0  0  0
    6.8427  -14.8748   25.7409 C   0  0  0  0  0  0  0  0  0  0  0  0
    5.7164  -15.1284   26.5182 C   0  0  0  0  0  0  0  0  0  0  0  0
    5.2610  -13.9907   27.0635 N   0  0  0  0  0  0  0  0  0  0  0  0
    6.0761  -13.0241   26.6456 C   0  0  0  0  0  0  0  0  0  0  0  0
    6.0286  -11.6746   26.9214 C   0  0  0  0  0  0  0  0  0  0  0  0
    6.9544  -10.8143   26.3906 C   0  0  0  0  0  0  0  0  0  0  0  0
    7.9348  -11.3237   25.5753 C   0  0  0  0  0  0  0  0  0  0  0  0
    8.0195  -12.6771   25.2719 C   0  0  0  0  0  0  0  0  0  0  0  0
    7.0809  -13.5324   25.8145 C   0  0  0  0  0  0  0  0  0  0  0  0
    8.0888  -16.4579   22.6345 C   0  0  0  0  0  0  0  0  0  0  0  0
    8.2841  -17.6664   22.3619 O   0  0  0  0  0  0  0  0  0  0  0  0
    8.8425  -15.4885   21.9737 N   0  0  0  0  0  0  0  0  0  0  0  0
    9.8050  -15.8488   20.8923 C   0  0  1  0  0  0  0  0  0  0  0  0
    9.9804  -14.5645   20.1311 C   0  0  0  0  0  0  0  0  0  0  0  0
    8.9310  -14.2438   19.1648 C   0  0  0  0  0  0  0  0  0  0  0  0
    8.0537  -13.1995   19.1654 C   0  0  0  0  0  0  0  0  0  0  0  0
    7.3267  -13.2992   18.0291 N   0  0  0  0  0  0  0  0  0  0  0  0
    7.7103  -14.3609   17.3141 C   0  0  0  0  0  0  0  0  0  0  0  0
    8.6908  -14.9358   18.0107 N   0  0  0  0  0  0  0  0  0  0  0  0
   11.0932  -16.2180   21.5955 C   0  0  0  0  0  0  0  0  0  0  0  0
   11.5043  -15.6457   22.6289 O   0  0  0  0  0  0  0  0  0  0  0  0
   15.3647  -19.2578   22.4865 N   0  0  0  0  0  0  0  0  0  0  0  0
   14.3491  -19.9336   21.7848 C   0  0  0  0  0  0  0  0  0  0  0  0
   14.5135  -21.1351   21.4900 O   0  0  0  0  0  0  0  0  0  0  0  0
   13.1258  -19.2321   21.4121 C   0  0  0  0  0  0  0  0  0  0  0  0
   13.1056  -17.7519   21.7181 C   0  0  2  0  0  0  0  0  0  0  0  0
   11.8758  -17.2664   21.0565 N   0  0  0  0  0  0  0  0  0  0  0  0
   14.2239  -17.0101   21.0978 C   0  0  0  0  0  0  0  0  0  0  0  0
   14.1102  -16.5404   19.9492 O   0  0  0  0  0  0  0  0  0  0  0  0
   15.4150  -16.8198   21.7715 O   0  0  0  0  0  0  0  0  0  0  0  0
  2 13  1  0
  2  1  1  1
  3  2  1  0
  4  3  1  0
  5  4  2  0
  6  5  1  0
  7 12  2  0
  7  6  1  0
  8  7  1  0
  9  8  2  0
  9 10  1  0
 10 11  2  0
 11 12  1  0
 12  4  1  0
 13 14  2  0
 15 16  1  0
 15 13  1  0
 16 17  1  6
 18 17  1  0
 19 18  2  0
 20 21  1  0
 20 19  1  0
 21 22  2  0
 22 18  1  0
 23 24  2  0
 23 16  1  0
 25 26  1  0
 26 27  2  0
 26 28  1  0
 29 28  1  6
 29 30  1  0
 30 23  1  0
 31 33  1  0
 31 29  1  0
 32 31  2  0
M  END
$$$$
