WHN.pdb
     RDKit          3D

 33 35  0  0  1  0  0  0  0  0999 V2000
    6.8700  -17.9626   25.3727 N   0  0  0  0  0  0  0  0  0  0  0  0
    6.6095  -17.1580   24.2064 C   0  0  1  0  0  0  0  0  0  0  0  0
    6.1296  -15.7955   24.6041 C   0  0  0  0  0  0  0  0  0  0  0  0
    6.9814  -15.2858   25.7045 C   0  0  0  0  0  0  0  0  0  0  0  0
    7.8749  -16.0161   26.4827 C   0  0  0  0  0  0  0  0  0  0  0  0
    8.4984  -15.2109   27.3555 N   0  0  0  0  0  0  0  0  0  0  0  0
    8.0163  -13.9876   27.1449 C   0  0  0  0  0  0  0  0  0  0  0  0
    8.3313  -12.8117   27.7911 C   0  0  0  0  0  0  0  0  0  0  0  0
    7.7216  -11.6334   27.4463 C   0  0  0  0  0  0  0  0  0  0  0  0
    6.7868  -11.6457   26.4407 C   0  0  0  0  0  0  0  0  0  0  0  0
    6.4399  -12.8083   25.7632 C   0  0  0  0  0  0  0  0  0  0  0  0
    7.0629  -13.9879   26.1202 C   0  0  0  0  0  0  0  0  0  0  0  0
    7.8429  -17.1178   23.3949 C   0  0  0  0  0  0  0  0  0  0  0  0
    8.3904  -18.1758   23.0029 O   0  0  0  0  0  0  0  0  0  0  0  0
    8.4184  -15.8949   23.0517 N   0  0  0  0  0  0  0  0  0  0  0  0
    9.5289  -15.8041   22.0597 C   0  0  1  0  0  0  0  0  0  0  0  0
    9.3727  -14.4270   21.4774 C   0  0  0  0  0  0  0  0  0  0  0  0
    8.3747  -14.2887   20.4178 C   0  0  0  0  0  0  0  0  0  0  0  0
    7.5743  -15.2434   19.8627 C   0  0  0  0  0  0  0  0  0  0  0  0
    6.7751  -14.6134   18.9715 N   0  0  0  0  0  0  0  0  0  0  0  0
    7.0384  -13.3036   18.9437 C   0  0  0  0  0  0  0  0  0  0  0  0
    8.0161  -13.1085   19.8286 N   0  0  0  0  0  0  0  0  0  0  0  0
   10.8071  -15.8871   22.8657 C   0  0  0  0  0  0  0  0  0  0  0  0
   10.9913  -15.2641   23.9345 O   0  0  0  0  0  0  0  0  0  0  0  0
   12.9660  -20.2802   25.1427 N   0  0  0  0  0  0  0  0  0  0  0  0
   13.0288  -18.8745   25.1628 C   0  0  0  0  0  0  0  0  0  0  0  0
   13.8150  -18.3149   25.9541 O   0  0  0  0  0  0  0  0  0  0  0  0
   12.1839  -18.0914   24.2682 C   0  0  0  0  0  0  0  0  0  0  0  0
   12.9190  -17.2266   23.2699 C   0  0  2  0  0  0  0  0  0  0  0  0
   11.8509  -16.7133   22.3859 N   0  0  0  0  0  0  0  0  0  0  0  0
   13.8391  -17.9893   22.3995 C   0  0  0  0  0  0  0  0  0  0  0  0
   13.4116  -18.5680   21.3820 O   0  0  0  0  0  0  0  0  0  0  0  0
   15.1868  -18.0788   22.6900 O   0  0  0  0  0  0  0  0  0  0  0  0
  2 13  1  0
  2  1  1  1
  3  2  1  0
  4  3  1  0
  5  4  2  0
  6  5  1  0
  7 12  2  0
  7  6  1  0
  8  7  1  0
  9  8  2  0
  9 10  1  0
 10 11  2  0
 11 12  1  0
 12  4  1  0
 13 14  2  0
 15 16  1  0
 15 13  1  0
 16 17  1  1
 18 17  1  0
 19 18  2  0
 20 21  1  0
 20 19  1  0
 21 22  2  0
 22 18  1  0
 23 24  2  0
 23 16  1  0
 25 26  1  0
 26 27  2  0
 26 28  1  0
 29 28  1  1
 29 30  1  0
 30 23  1  0
 31 33  1  0
 31 29  1  0
 32 31  2  0
M  END
$$$$
