WHN.pdb
     RDKit          3D

 33 35  0  0  1  0  0  0  0  0999 V2000
    6.2599  -17.3079   23.9154 N   0  0  0  0  0  0  0  0  0  0  0  0
    7.2309  -16.2486   23.8124 C   0  0  1  0  0  0  0  0  0  0  0  0
    7.8335  -15.9556   25.1524 C   0  0  0  0  0  0  0  0  0  0  0  0
    6.9734  -14.9825   25.8662 C   0  0  0  0  0  0  0  0  0  0  0  0
    5.7693  -15.2423   26.5140 C   0  0  0  0  0  0  0  0  0  0  0  0
    5.2946  -14.1234   27.0812 N   0  0  0  0  0  0  0  0  0  0  0  0
    6.1738  -13.1625   26.8039 C   0  0  0  0  0  0  0  0  0  0  0  0
    6.1373  -11.8304   27.1558 C   0  0  0  0  0  0  0  0  0  0  0  0
    7.1348  -10.9727   26.7705 C   0  0  0  0  0  0  0  0  0  0  0  0
    8.1761  -11.4669   26.0243 C   0  0  0  0  0  0  0  0  0  0  0  0
    8.2521  -12.8025   25.6483 C   0  0  0  0  0  0  0  0  0  0  0  0
    7.2409  -13.6555   26.0443 C   0  0  0  0  0  0  0  0  0  0  0  0
    8.2358  -16.6470   22.8059 C   0  0  0  0  0  0  0  0  0  0  0  0
    8.4568  -17.8569   22.5606 O   0  0  0  0  0  0  0  0  0  0  0  0
    8.9567  -15.6767   22.1108 N   0  0  0  0  0  0  0  0  0  0  0  0
    9.9598  -16.0438   21.0694 C   0  0  1  0  0  0  0  0  0  0  0  0
   10.1078  -14.7857   20.2601 C   0  0  0  0  0  0  0  0  0  0  0  0
    9.0894  -14.5592   19.2357 C   0  0  0  0  0  0  0  0  0  0  0  0
    8.0298  -15.3452   18.8902 C   0  0  0  0  0  0  0  0  0  0  0  0
    7.3413  -14.6763   17.9371 N   0  0  0  0  0  0  0  0  0  0  0  0
    7.9225  -13.5031   17.6697 C   0  0  0  0  0  0  0  0  0  0  0  0
    8.9902  -13.4345   18.4649 N   0  0  0  0  0  0  0  0  0  0  0  0
   11.2418  -16.3352   21.8189 C   0  0  0  0  0  0  0  0  0  0  0  0
   11.5713  -15.7533   22.8758 O   0  0  0  0  0  0  0  0  0  0  0  0
   15.4319  -19.3443   23.0565 N   0  0  0  0  0  0  0  0  0  0  0  0
   14.4593  -20.0180   22.2944 C   0  0  0  0  0  0  0  0  0  0  0  0
   14.6113  -21.2339   22.0576 O   0  0  0  0  0  0  0  0  0  0  0  0
   13.2943  -19.2978   21.7932 C   0  0  0  0  0  0  0  0  0  0  0  0
   13.2898  -17.8082   22.0508 C   0  0  2  0  0  0  0  0  0  0  0  0
   12.1158  -17.3182   21.2974 N   0  0  0  0  0  0  0  0  0  0  0  0
   14.4621  -17.1113   21.4801 C   0  0  0  0  0  0  0  0  0  0  0  0
   14.5025  -16.8339   20.2659 O   0  0  0  0  0  0  0  0  0  0  0  0
   15.5349  -16.7522   22.2731 O   0  0  0  0  0  0  0  0  0  0  0  0
  2 13  1  0
  2  1  1  1
  3  2  1  0
  4  3  1  0
  5  4  2  0
  6  5  1  0
  7 12  2  0
  7  6  1  0
  8  7  1  0
  9  8  2  0
  9 10  1  0
 10 11  2  0
 11 12  1  0
 12  4  1  0
 13 14  2  0
 15 16  1  0
 15 13  1  0
 16 17  1  6
 18 17  1  0
 19 18  2  0
 20 21  1  0
 20 19  1  0
 21 22  2  0
 22 18  1  0
 23 24  2  0
 23 16  1  0
 25 26  1  0
 26 27  2  0
 26 28  1  0
 29 28  1  6
 29 30  1  0
 30 23  1  0
 31 33  1  0
 31 29  1  0
 32 31  2  0
M  END
$$$$
