WHN.pdb
     RDKit          3D

 33 35  0  0  1  0  0  0  0  0999 V2000
    6.1919  -18.1402   24.7685 N   0  0  0  0  0  0  0  0  0  0  0  0
    6.7067  -16.8295   24.4642 C   0  0  1  0  0  0  0  0  0  0  0  0
    7.6850  -16.3927   25.5115 C   0  0  0  0  0  0  0  0  0  0  0  0
    7.1007  -15.2673   26.2785 C   0  0  0  0  0  0  0  0  0  0  0  0
    6.2779  -15.3509   27.3979 C   0  0  0  0  0  0  0  0  0  0  0  0
    5.9759  -14.1235   27.8467 N   0  0  0  0  0  0  0  0  0  0  0  0
    6.5905  -13.2670   27.0332 C   0  0  0  0  0  0  0  0  0  0  0  0
    6.5862  -11.8891   27.0666 C   0  0  0  0  0  0  0  0  0  0  0  0
    7.2747  -11.1600   26.1321 C   0  0  0  0  0  0  0  0  0  0  0  0
    7.9720  -11.8301   25.1574 C   0  0  0  0  0  0  0  0  0  0  0  0
    8.0032  -13.2175   25.0874 C   0  0  0  0  0  0  0  0  0  0  0  0
    7.3060  -13.9395   26.0359 C   0  0  0  0  0  0  0  0  0  0  0  0
    7.2964  -16.8737   23.1108 C   0  0  0  0  0  0  0  0  0  0  0  0
    7.6183  -17.9654   22.5841 O   0  0  0  0  0  0  0  0  0  0  0  0
    7.5042  -15.6945   22.3963 N   0  0  0  0  0  0  0  0  0  0  0  0
    8.0654  -15.7059   21.0141 C   0  0  1  0  0  0  0  0  0  0  0  0
    7.6926  -14.3557   20.4686 C   0  0  0  0  0  0  0  0  0  0  0  0
    8.0545  -14.1057   19.0742 C   0  0  0  0  0  0  0  0  0  0  0  0
    8.6538  -14.9428   18.1797 C   0  0  0  0  0  0  0  0  0  0  0  0
    8.7151  -14.2782   17.0030 N   0  0  0  0  0  0  0  0  0  0  0  0
    8.1790  -13.0598   17.1198 C   0  0  0  0  0  0  0  0  0  0  0  0
    7.7762  -12.9576   18.3864 N   0  0  0  0  0  0  0  0  0  0  0  0
    9.5663  -15.8041   21.1813 C   0  0  0  0  0  0  0  0  0  0  0  0
   10.2189  -15.1030   21.9857 O   0  0  0  0  0  0  0  0  0  0  0  0
   14.0133  -15.1782   18.4708 N   0  0  0  0  0  0  0  0  0  0  0  0
   13.3066  -14.7445   19.6079 C   0  0  0  0  0  0  0  0  0  0  0  0
   13.8814  -14.0043   20.4320 O   0  0  0  0  0  0  0  0  0  0  0  0
   11.9232  -15.1591   19.8118 C   0  0  0  0  0  0  0  0  0  0  0  0
   11.7232  -16.6224   20.1343 C   0  0  2  0  0  0  0  0  0  0  0  0
   10.2709  -16.7383   20.3857 N   0  0  0  0  0  0  0  0  0  0  0  0
   12.3897  -17.0431   21.3850 C   0  0  0  0  0  0  0  0  0  0  0  0
   11.8031  -16.9381   22.4795 O   0  0  0  0  0  0  0  0  0  0  0  0
   13.6708  -17.5601   21.3722 O   0  0  0  0  0  0  0  0  0  0  0  0
  2 13  1  0
  2  1  1  1
  3  2  1  0
  4  3  1  0
  5  4  2  0
  6  5  1  0
  7 12  2  0
  7  6  1  0
  8  7  1  0
  9  8  2  0
  9 10  1  0
 10 11  2  0
 11 12  1  0
 12  4  1  0
 13 14  2  0
 15 16  1  0
 15 13  1  0
 16 17  1  1
 18 17  1  0
 19 18  2  0
 20 21  1  0
 20 19  1  0
 21 22  2  0
 22 18  1  0
 23 24  2  0
 23 16  1  0
 25 26  1  0
 26 27  2  0
 26 28  1  0
 29 28  1  1
 29 30  1  0
 30 23  1  0
 31 33  1  0
 31 29  1  0
 32 31  2  0
M  END
$$$$
