WHN.pdb
     RDKit          3D

 33 35  0  0  1  0  0  0  0  0999 V2000
    6.2489  -17.3427   23.9088 N   0  0  0  0  0  0  0  0  0  0  0  0
    7.2482  -16.3065   23.8511 C   0  0  1  0  0  0  0  0  0  0  0  0
    7.9145  -16.1438   25.1831 C   0  0  0  0  0  0  0  0  0  0  0  0
    7.1341  -15.1841   25.9993 C   0  0  0  0  0  0  0  0  0  0  0  0
    6.0845  -15.4767   26.8653 C   0  0  0  0  0  0  0  0  0  0  0  0
    5.6467  -14.3577   27.4614 N   0  0  0  0  0  0  0  0  0  0  0  0
    6.3978  -13.3648   26.9888 C   0  0  0  0  0  0  0  0  0  0  0  0
    6.3380  -12.0200   27.2847 C   0  0  0  0  0  0  0  0  0  0  0  0
    7.1926  -11.1292   26.6889 C   0  0  0  0  0  0  0  0  0  0  0  0
    8.1138  -11.6028   25.7877 C   0  0  0  0  0  0  0  0  0  0  0  0
    8.2084  -12.9502   25.4610 C   0  0  0  0  0  0  0  0  0  0  0  0
    7.3420  -13.8366   26.0696 C   0  0  0  0  0  0  0  0  0  0  0  0
    8.1975  -16.6477   22.7723 C   0  0  0  0  0  0  0  0  0  0  0  0
    8.2793  -17.8197   22.3334 O   0  0  0  0  0  0  0  0  0  0  0  0
    9.0208  -15.6647   22.2242 N   0  0  0  0  0  0  0  0  0  0  0  0
   10.0712  -15.9960   21.2181 C   0  0  1  0  0  0  0  0  0  0  0  0
   10.2137  -14.7279   20.4233 C   0  0  0  0  0  0  0  0  0  0  0  0
    9.0869  -14.3844   19.5573 C   0  0  0  0  0  0  0  0  0  0  0  0
    7.9441  -15.0886   19.3158 C   0  0  0  0  0  0  0  0  0  0  0  0
    7.1807  -14.3266   18.4993 N   0  0  0  0  0  0  0  0  0  0  0  0
    7.7946  -13.1734   18.2183 C   0  0  0  0  0  0  0  0  0  0  0  0
    8.9589  -13.2118   18.8663 N   0  0  0  0  0  0  0  0  0  0  0  0
   11.3326  -16.2576   22.0124 C   0  0  0  0  0  0  0  0  0  0  0  0
   12.1152  -15.3550   22.3826 O   0  0  0  0  0  0  0  0  0  0  0  0
   14.2024  -19.3877   25.2384 N   0  0  0  0  0  0  0  0  0  0  0  0
   12.8822  -19.8330   25.0403 C   0  0  0  0  0  0  0  0  0  0  0  0
   12.4686  -20.8113   25.6957 O   0  0  0  0  0  0  0  0  0  0  0  0
   12.0174  -19.1551   24.0812 C   0  0  0  0  0  0  0  0  0  0  0  0
   12.6093  -17.9287   23.4248 C   0  0  2  0  0  0  0  0  0  0  0  0
   11.6448  -17.5944   22.3553 N   0  0  0  0  0  0  0  0  0  0  0  0
   13.8969  -18.1906   22.7473 C   0  0  0  0  0  0  0  0  0  0  0  0
   14.9099  -17.5252   23.0372 O   0  0  0  0  0  0  0  0  0  0  0  0
   14.0090  -19.1731   21.7825 O   0  0  0  0  0  0  0  0  0  0  0  0
  2 13  1  0
  2  1  1  1
  3  2  1  0
  4  3  1  0
  5  4  2  0
  6  5  1  0
  7 12  2  0
  7  6  1  0
  8  7  1  0
  9  8  2  0
  9 10  1  0
 10 11  2  0
 11 12  1  0
 12  4  1  0
 13 14  2  0
 15 16  1  0
 15 13  1  0
 16 17  1  6
 18 17  1  0
 19 18  2  0
 20 21  1  0
 20 19  1  0
 21 22  2  0
 22 18  1  0
 23 24  2  0
 23 16  1  0
 25 26  1  0
 26 27  2  0
 26 28  1  0
 29 28  1  6
 29 30  1  0
 30 23  1  0
 31 33  1  0
 31 29  1  0
 32 31  2  0
M  END
$$$$
