WHN.pdb
     RDKit          3D

 33 35  0  0  1  0  0  0  0  0999 V2000
    7.6106  -17.4127   25.8662 N   0  0  0  0  0  0  0  0  0  0  0  0
    6.7226  -16.9678   24.8227 C   0  0  1  0  0  0  0  0  0  0  0  0
    6.2658  -15.5649   25.0836 C   0  0  0  0  0  0  0  0  0  0  0  0
    7.3083  -14.8546   25.8614 C   0  0  0  0  0  0  0  0  0  0  0  0
    8.5895  -15.3089   26.1599 C   0  0  0  0  0  0  0  0  0  0  0  0
    9.2650  -14.3776   26.8495 N   0  0  0  0  0  0  0  0  0  0  0  0
    8.4362  -13.3452   26.9931 C   0  0  0  0  0  0  0  0  0  0  0  0
    8.6543  -12.1449   27.6344 C   0  0  0  0  0  0  0  0  0  0  0  0
    7.6729  -11.1899   27.6940 C   0  0  0  0  0  0  0  0  0  0  0  0
    6.4627  -11.4516   27.1005 C   0  0  0  0  0  0  0  0  0  0  0  0
    6.2010  -12.6479   26.4436 C   0  0  0  0  0  0  0  0  0  0  0  0
    7.1992  -13.6006   26.3903 C   0  0  0  0  0  0  0  0  0  0  0  0
    7.4267  -17.1114   23.5323 C   0  0  0  0  0  0  0  0  0  0  0  0
    7.6945  -18.2451   23.0677 O   0  0  0  0  0  0  0  0  0  0  0  0
    7.8054  -15.9810   22.8091 N   0  0  0  0  0  0  0  0  0  0  0  0
    7.9222  -16.0066   21.3221 C   0  0  1  0  0  0  0  0  0  0  0  0
    7.6147  -14.5918   20.9175 C   0  0  0  0  0  0  0  0  0  0  0  0
    7.7523  -14.2881   19.4939 C   0  0  0  0  0  0  0  0  0  0  0  0
    8.0097  -15.1352   18.4565 C   0  0  0  0  0  0  0  0  0  0  0  0
    7.9744  -14.3918   17.3269 N   0  0  0  0  0  0  0  0  0  0  0  0
    7.7048  -13.1140   17.6102 C   0  0  0  0  0  0  0  0  0  0  0  0
    7.5695  -13.0540   18.9351 N   0  0  0  0  0  0  0  0  0  0  0  0
    9.3717  -16.3289   21.0296 C   0  0  0  0  0  0  0  0  0  0  0  0
    9.8530  -16.3598   19.8756 O   0  0  0  0  0  0  0  0  0  0  0  0
   14.4551  -16.3735   21.5796 N   0  0  0  0  0  0  0  0  0  0  0  0
   13.6055  -15.2833   21.3148 C   0  0  0  0  0  0  0  0  0  0  0  0
   14.1020  -14.2149   20.9032 O   0  0  0  0  0  0  0  0  0  0  0  0
   12.1672  -15.4096   21.5212 C   0  0  0  0  0  0  0  0  0  0  0  0
   11.6889  -16.7781   21.9495 C   0  0  2  0  0  0  0  0  0  0  0  0
   10.2298  -16.6107   22.1189 N   0  0  0  0  0  0  0  0  0  0  0  0
   12.2089  -17.1939   23.2695 C   0  0  0  0  0  0  0  0  0  0  0  0
   13.0473  -18.1116   23.3575 O   0  0  0  0  0  0  0  0  0  0  0  0
   11.7817  -16.5794   24.4308 O   0  0  0  0  0  0  0  0  0  0  0  0
  2 13  1  0
  2  1  1  1
  3  2  1  0
  4  3  1  0
  5  4  2  0
  6  5  1  0
  7 12  2  0
  7  6  1  0
  8  7  1  0
  9  8  2  0
  9 10  1  0
 10 11  2  0
 11 12  1  0
 12  4  1  0
 13 14  2  0
 15 16  1  0
 15 13  1  0
 16 17  1  1
 18 17  1  0
 19 18  2  0
 20 21  1  0
 20 19  1  0
 21 22  2  0
 22 18  1  0
 23 24  2  0
 23 16  1  0
 25 26  1  0
 26 27  2  0
 26 28  1  0
 29 28  1  1
 29 30  1  0
 30 23  1  0
 31 33  1  0
 31 29  1  0
 32 31  2  0
M  END
$$$$
