WHN.pdb
     RDKit          3D

 33 35  0  0  1  0  0  0  0  0999 V2000
    6.4941  -17.1717   23.2016 N   0  0  0  0  0  0  0  0  0  0  0  0
    7.5120  -16.1524   23.2155 C   0  0  1  0  0  0  0  0  0  0  0  0
    8.1132  -16.0283   24.5822 C   0  0  0  0  0  0  0  0  0  0  0  0
    7.2174  -15.2075   25.4309 C   0  0  0  0  0  0  0  0  0  0  0  0
    6.1554  -15.6559   26.2109 C   0  0  0  0  0  0  0  0  0  0  0  0
    5.5981  -14.6309   26.8725 N   0  0  0  0  0  0  0  0  0  0  0  0
    6.2859  -13.5447   26.5255 C   0  0  0  0  0  0  0  0  0  0  0  0
    6.1003  -12.2396   26.9279 C   0  0  0  0  0  0  0  0  0  0  0  0
    6.9055  -11.2358   26.4556 C   0  0  0  0  0  0  0  0  0  0  0  0
    7.9051  -11.5554   25.5702 C   0  0  0  0  0  0  0  0  0  0  0  0
    8.1269  -12.8576   25.1389 C   0  0  0  0  0  0  0  0  0  0  0  0
    7.3090  -13.8590   25.6237 C   0  0  0  0  0  0  0  0  0  0  0  0
    8.5086  -16.4884   22.1785 C   0  0  0  0  0  0  0  0  0  0  0  0
    8.4637  -17.5864   21.5742 O   0  0  0  0  0  0  0  0  0  0  0  0
    9.5190  -15.5833   21.8558 N   0  0  0  0  0  0  0  0  0  0  0  0
   10.4124  -15.7949   20.6799 C   0  0  1  0  0  0  0  0  0  0  0  0
   10.4272  -14.4543   19.9998 C   0  0  0  0  0  0  0  0  0  0  0  0
    9.2044  -14.0825   19.2897 C   0  0  0  0  0  0  0  0  0  0  0  0
    8.7410  -14.5283   18.0870 C   0  0  0  0  0  0  0  0  0  0  0  0
    7.5382  -13.9416   17.8897 N   0  0  0  0  0  0  0  0  0  0  0  0
    7.2256  -13.1469   18.9176 C   0  0  0  0  0  0  0  0  0  0  0  0
    8.2456  -13.2354   19.7713 N   0  0  0  0  0  0  0  0  0  0  0  0
   11.7787  -16.1037   21.2527 C   0  0  0  0  0  0  0  0  0  0  0  0
   12.8218  -16.1502   20.5641 O   0  0  0  0  0  0  0  0  0  0  0  0
   11.4787  -18.2272   25.3907 N   0  0  0  0  0  0  0  0  0  0  0  0
   11.7198  -16.8419   25.3315 C   0  0  0  0  0  0  0  0  0  0  0  0
   10.8639  -16.0583   25.7907 O   0  0  0  0  0  0  0  0  0  0  0  0
   12.9547  -16.3388   24.7405 C   0  0  0  0  0  0  0  0  0  0  0  0
   13.1707  -16.6907   23.2864 C   0  0  2  0  0  0  0  0  0  0  0  0
   11.8837  -16.3536   22.6415 N   0  0  0  0  0  0  0  0  0  0  0  0
   13.3765  -18.1367   23.0577 C   0  0  0  0  0  0  0  0  0  0  0  0
   14.3841  -18.7110   23.5137 O   0  0  0  0  0  0  0  0  0  0  0  0
   12.4631  -18.8827   22.3381 O   0  0  0  0  0  0  0  0  0  0  0  0
  2 13  1  0
  2  1  1  1
  3  2  1  0
  4  3  1  0
  5  4  2  0
  6  5  1  0
  7 12  2  0
  7  6  1  0
  8  7  1  0
  9  8  2  0
  9 10  1  0
 10 11  2  0
 11 12  1  0
 12  4  1  0
 13 14  2  0
 15 16  1  0
 15 13  1  0
 16 17  1  6
 18 17  1  0
 19 18  2  0
 20 21  1  0
 20 19  1  0
 21 22  2  0
 22 18  1  0
 23 24  2  0
 23 16  1  0
 25 26  1  0
 26 27  2  0
 26 28  1  0
 29 28  1  1
 29 30  1  0
 30 23  1  0
 31 33  1  0
 31 29  1  0
 32 31  2  0
M  END
$$$$
