WHN.pdb
     RDKit          3D

 33 35  0  0  1  0  0  0  0  0999 V2000
    6.0480  -16.9075   23.5180 N   0  0  0  0  0  0  0  0  0  0  0  0
    7.1411  -15.9693   23.5071 C   0  0  1  0  0  0  0  0  0  0  0  0
    7.7730  -15.8824   24.8628 C   0  0  0  0  0  0  0  0  0  0  0  0
    7.0091  -14.9195   25.6907 C   0  0  0  0  0  0  0  0  0  0  0  0
    6.0081  -15.2129   26.6122 C   0  0  0  0  0  0  0  0  0  0  0  0
    5.5724  -14.0888   27.2003 N   0  0  0  0  0  0  0  0  0  0  0  0
    6.2772  -13.0920   26.6683 C   0  0  0  0  0  0  0  0  0  0  0  0
    6.1996  -11.7417   26.9332 C   0  0  0  0  0  0  0  0  0  0  0  0
    7.0045  -10.8478   26.2759 C   0  0  0  0  0  0  0  0  0  0  0  0
    7.8936  -11.3240   25.3443 C   0  0  0  0  0  0  0  0  0  0  0  0
    8.0045  -12.6769   25.0471 C   0  0  0  0  0  0  0  0  0  0  0  0
    7.1884  -13.5663   25.7177 C   0  0  0  0  0  0  0  0  0  0  0  0
    8.0913  -16.3879   22.4567 C   0  0  0  0  0  0  0  0  0  0  0  0
    8.3153  -17.6023   22.2380 O   0  0  0  0  0  0  0  0  0  0  0  0
    8.7561  -15.4319   21.6895 N   0  0  0  0  0  0  0  0  0  0  0  0
    9.7111  -15.8205   20.6113 C   0  0  1  0  0  0  0  0  0  0  0  0
    9.8905  -14.5533   19.8226 C   0  0  0  0  0  0  0  0  0  0  0  0
    8.8358  -14.2439   18.8584 C   0  0  0  0  0  0  0  0  0  0  0  0
    7.8712  -13.2818   18.9207 C   0  0  0  0  0  0  0  0  0  0  0  0
    7.1774  -13.3482   17.7613 N   0  0  0  0  0  0  0  0  0  0  0  0
    7.6655  -14.3104   16.9728 C   0  0  0  0  0  0  0  0  0  0  0  0
    8.6788  -14.8556   17.6460 N   0  0  0  0  0  0  0  0  0  0  0  0
   11.0006  -16.1827   21.3158 C   0  0  0  0  0  0  0  0  0  0  0  0
   11.4438  -15.5621   22.3071 O   0  0  0  0  0  0  0  0  0  0  0  0
   14.1145  -19.9853   23.6739 N   0  0  0  0  0  0  0  0  0  0  0  0
   13.7768  -20.0102   22.3079 C   0  0  0  0  0  0  0  0  0  0  0  0
   14.4506  -20.7168   21.5306 O   0  0  0  0  0  0  0  0  0  0  0  0
   12.6543  -19.2187   21.8171 C   0  0  0  0  0  0  0  0  0  0  0  0
   12.9642  -17.7718   21.5082 C   0  0  2  0  0  0  0  0  0  0  0  0
   11.7461  -17.2821   20.8282 N   0  0  0  0  0  0  0  0  0  0  0  0
   14.0689  -17.6028   20.5404 C   0  0  0  0  0  0  0  0  0  0  0  0
   13.8476  -17.6496   19.3150 O   0  0  0  0  0  0  0  0  0  0  0  0
   15.3655  -17.3900   20.9673 O   0  0  0  0  0  0  0  0  0  0  0  0
  2 13  1  0
  2  1  1  1
  3  2  1  0
  4  3  1  0
  5  4  2  0
  6  5  1  0
  7 12  2  0
  7  6  1  0
  8  7  1  0
  9  8  2  0
  9 10  1  0
 10 11  2  0
 11 12  1  0
 12  4  1  0
 13 14  2  0
 15 16  1  0
 15 13  1  0
 16 17  1  6
 18 17  1  0
 19 18  2  0
 20 21  1  0
 20 19  1  0
 21 22  2  0
 22 18  1  0
 23 24  2  0
 23 16  1  0
 25 26  1  0
 26 27  2  0
 26 28  1  0
 29 28  1  6
 29 30  1  0
 30 23  1  0
 31 33  1  0
 31 29  1  0
 32 31  2  0
M  END
$$$$
