WHN.pdb
     RDKit          3D

 33 35  0  0  1  0  0  0  0  0999 V2000
    6.4586  -17.3242   23.4552 N   0  0  0  0  0  0  0  0  0  0  0  0
    7.5290  -16.3658   23.3499 C   0  0  1  0  0  0  0  0  0  0  0  0
    8.2065  -16.1866   24.6742 C   0  0  0  0  0  0  0  0  0  0  0  0
    7.3374  -15.3706   25.5546 C   0  0  0  0  0  0  0  0  0  0  0  0
    6.3539  -15.8313   26.4250 C   0  0  0  0  0  0  0  0  0  0  0  0
    5.7999  -14.8047   27.0870 N   0  0  0  0  0  0  0  0  0  0  0  0
    6.4129  -13.7056   26.6519 C   0  0  0  0  0  0  0  0  0  0  0  0
    6.1988  -12.3944   27.0185 C   0  0  0  0  0  0  0  0  0  0  0  0
    6.9237  -11.3777   26.4529 C   0  0  0  0  0  0  0  0  0  0  0  0
    7.8715  -11.6905   25.5100 C   0  0  0  0  0  0  0  0  0  0  0  0
    8.1196  -12.9985   25.1119 C   0  0  0  0  0  0  0  0  0  0  0  0
    7.3828  -14.0129   25.6908 C   0  0  0  0  0  0  0  0  0  0  0  0
    8.4506  -16.8254   22.2913 C   0  0  0  0  0  0  0  0  0  0  0  0
    8.3872  -17.9961   21.8461 O   0  0  0  0  0  0  0  0  0  0  0  0
    9.4097  -15.9579   21.7696 N   0  0  0  0  0  0  0  0  0  0  0  0
   10.2110  -16.3126   20.5622 C   0  0  1  0  0  0  0  0  0  0  0  0
   10.3888  -14.9977   19.8556 C   0  0  0  0  0  0  0  0  0  0  0  0
    9.2314  -14.5112   19.1063 C   0  0  0  0  0  0  0  0  0  0  0  0
    8.0105  -15.0952   18.9382 C   0  0  0  0  0  0  0  0  0  0  0  0
    7.2577  -14.2282   18.2230 N   0  0  0  0  0  0  0  0  0  0  0  0
    7.9532  -13.1240   17.9353 C   0  0  0  0  0  0  0  0  0  0  0  0
    9.1587  -13.3000   18.4766 N   0  0  0  0  0  0  0  0  0  0  0  0
   11.5423  -16.8080   21.0840 C   0  0  0  0  0  0  0  0  0  0  0  0
   12.5504  -16.9695   20.3614 O   0  0  0  0  0  0  0  0  0  0  0  0
   12.5095  -14.8950   25.3073 N   0  0  0  0  0  0  0  0  0  0  0  0
   13.3182  -15.8008   24.5959 C   0  0  0  0  0  0  0  0  0  0  0  0
   14.3842  -15.3930   24.0910 O   0  0  0  0  0  0  0  0  0  0  0  0
   12.9086  -17.1936   24.4561 C   0  0  0  0  0  0  0  0  0  0  0  0
   12.8684  -17.7210   23.0400 C   0  0  2  0  0  0  0  0  0  0  0  0
   11.6545  -17.1051   22.4629 N   0  0  0  0  0  0  0  0  0  0  0  0
   12.6607  -19.1828   22.9648 C   0  0  0  0  0  0  0  0  0  0  0  0
   11.5484  -19.6473   22.6488 O   0  0  0  0  0  0  0  0  0  0  0  0
   13.6877  -20.0648   23.2409 O   0  0  0  0  0  0  0  0  0  0  0  0
  2 13  1  0
  2  1  1  1
  3  2  1  0
  4  3  1  0
  5  4  2  0
  6  5  1  0
  7 12  2  0
  7  6  1  0
  8  7  1  0
  9  8  2  0
  9 10  1  0
 10 11  2  0
 11 12  1  0
 12  4  1  0
 13 14  2  0
 15 16  1  0
 15 13  1  0
 16 17  1  6
 18 17  1  0
 19 18  2  0
 20 21  1  0
 20 19  1  0
 21 22  2  0
 22 18  1  0
 23 24  2  0
 23 16  1  0
 25 26  1  0
 26 27  2  0
 26 28  1  0
 29 28  1  1
 29 30  1  0
 30 23  1  0
 31 33  1  0
 31 29  1  0
 32 31  2  0
M  END
$$$$
