WHN.pdb
     RDKit          3D

 33 35  0  0  1  0  0  0  0  0999 V2000
    6.5517  -16.8268   22.9525 N   0  0  0  0  0  0  0  0  0  0  0  0
    7.9384  -16.5780   23.2537 C   0  0  1  0  0  0  0  0  0  0  0  0
    8.1311  -16.3918   24.7278 C   0  0  0  0  0  0  0  0  0  0  0  0
    7.1660  -15.3790   25.2167 C   0  0  0  0  0  0  0  0  0  0  0  0
    5.8526  -15.5970   25.6224 C   0  0  0  0  0  0  0  0  0  0  0  0
    5.2971  -14.4492   26.0385 N   0  0  0  0  0  0  0  0  0  0  0  0
    6.2325  -13.5112   25.9030 C   0  0  0  0  0  0  0  0  0  0  0  0
    6.1533  -12.1648   26.1867 C   0  0  0  0  0  0  0  0  0  0  0  0
    7.2240  -11.3359   25.9730 C   0  0  0  0  0  0  0  0  0  0  0  0
    8.3824  -11.8737   25.4689 C   0  0  0  0  0  0  0  0  0  0  0  0
    8.5051  -13.2251   25.1696 C   0  0  0  0  0  0  0  0  0  0  0  0
    7.4190  -14.0487   25.3909 C   0  0  0  0  0  0  0  0  0  0  0  0
    8.7320  -17.6978   22.7080 C   0  0  0  0  0  0  0  0  0  0  0  0
    8.5424  -18.1119   21.5395 O   0  0  0  0  0  0  0  0  0  0  0  0
    9.7087  -18.3132   23.4902 N   0  0  0  0  0  0  0  0  0  0  0  0
   11.0862  -17.7524   23.6057 C   0  0  1  0  0  0  0  0  0  0  0  0
   10.9266  -16.3251   23.1616 C   0  0  0  0  0  0  0  0  0  0  0  0
   11.0436  -16.0843   21.7242 C   0  0  0  0  0  0  0  0  0  0  0  0
   11.2311  -16.9832   20.7159 C   0  0  0  0  0  0  0  0  0  0  0  0
   11.2055  -16.2833   19.5586 N   0  0  0  0  0  0  0  0  0  0  0  0
   11.0089  -14.9831   19.7967 C   0  0  0  0  0  0  0  0  0  0  0  0
   10.9103  -14.8649   21.1208 N   0  0  0  0  0  0  0  0  0  0  0  0
   11.4285  -17.8046   25.0789 C   0  0  0  0  0  0  0  0  0  0  0  0
   10.9261  -17.0403   25.9321 O   0  0  0  0  0  0  0  0  0  0  0  0
   12.8302  -19.0278   29.7526 N   0  0  0  0  0  0  0  0  0  0  0  0
   12.5921  -17.8055   29.0971 C   0  0  0  0  0  0  0  0  0  0  0  0
   12.4587  -16.7689   29.7790 O   0  0  0  0  0  0  0  0  0  0  0  0
   12.5043  -17.7606   27.6419 C   0  0  0  0  0  0  0  0  0  0  0  0
   12.5468  -19.1017   26.9457 C   0  0  2  0  0  0  0  0  0  0  0  0
   12.3670  -18.7689   25.5164 N   0  0  0  0  0  0  0  0  0  0  0  0
   11.4169  -19.9846   27.3054 C   0  0  0  0  0  0  0  0  0  0  0  0
   10.3828  -19.5113   27.8149 O   0  0  0  0  0  0  0  0  0  0  0  0
   11.4783  -21.3474   27.0870 O   0  0  0  0  0  0  0  0  0  0  0  0
  2 13  1  0
  2  1  1  1
  3  2  1  0
  4  3  1  0
  5  4  2  0
  6  5  1  0
  7 12  2  0
  7  6  1  0
  8  7  1  0
  9  8  2  0
  9 10  1  0
 10 11  2  0
 11 12  1  0
 12  4  1  0
 13 14  2  0
 15 16  1  0
 15 13  1  0
 16 17  1  1
 18 17  1  0
 19 18  2  0
 20 21  1  0
 20 19  1  0
 21 22  2  0
 22 18  1  0
 23 24  2  0
 23 16  1  0
 25 26  1  0
 26 27  2  0
 26 28  1  0
 29 28  1  1
 29 30  1  0
 30 23  1  0
 31 33  1  0
 31 29  1  0
 32 31  2  0
M  END
$$$$
