WHN.pdb
     RDKit          3D

 33 35  0  0  1  0  0  0  0  0999 V2000
    6.2333  -17.2517   23.7686 N   0  0  0  0  0  0  0  0  0  0  0  0
    7.2472  -16.2283   23.7793 C   0  0  1  0  0  0  0  0  0  0  0  0
    7.7477  -15.9985   25.1726 C   0  0  0  0  0  0  0  0  0  0  0  0
    6.8877  -14.9891   25.8342 C   0  0  0  0  0  0  0  0  0  0  0  0
    5.6350  -15.1964   26.4042 C   0  0  0  0  0  0  0  0  0  0  0  0
    5.1749  -14.0581   26.9442 N   0  0  0  0  0  0  0  0  0  0  0  0
    6.1109  -13.1364   26.7260 C   0  0  0  0  0  0  0  0  0  0  0  0
    6.1106  -11.8042   27.0794 C   0  0  0  0  0  0  0  0  0  0  0  0
    7.1668  -10.9908   26.7604 C   0  0  0  0  0  0  0  0  0  0  0  0
    8.2304  -11.5296   26.0794 C   0  0  0  0  0  0  0  0  0  0  0  0
    8.2715  -12.8671   25.7045 C   0  0  0  0  0  0  0  0  0  0  0  0
    7.2011  -13.6752   26.0333 C   0  0  0  0  0  0  0  0  0  0  0  0
    8.3164  -16.6353   22.8452 C   0  0  0  0  0  0  0  0  0  0  0  0
    8.5455  -17.8471   22.6175 O   0  0  0  0  0  0  0  0  0  0  0  0
    9.0901  -15.6712   22.2001 N   0  0  0  0  0  0  0  0  0  0  0  0
   10.1442  -16.0461   21.2132 C   0  0  1  0  0  0  0  0  0  0  0  0
   10.2777  -14.8201   20.3537 C   0  0  0  0  0  0  0  0  0  0  0  0
    9.2277  -14.6193   19.3562 C   0  0  0  0  0  0  0  0  0  0  0  0
    8.1449  -15.4014   19.0805 C   0  0  0  0  0  0  0  0  0  0  0  0
    7.4337  -14.7611   18.1244 N   0  0  0  0  0  0  0  0  0  0  0  0
    8.0228  -13.6097   17.7884 C   0  0  0  0  0  0  0  0  0  0  0  0
    9.1185  -13.5260   18.5429 N   0  0  0  0  0  0  0  0  0  0  0  0
   11.4066  -16.2563   22.0209 C   0  0  0  0  0  0  0  0  0  0  0  0
   11.7497  -15.5182   22.9706 O   0  0  0  0  0  0  0  0  0  0  0  0
   12.0594  -19.6300   23.8325 N   0  0  0  0  0  0  0  0  0  0  0  0
   12.9890  -20.0663   22.8702 C   0  0  0  0  0  0  0  0  0  0  0  0
   13.1343  -21.2912   22.6807 O   0  0  0  0  0  0  0  0  0  0  0  0
   13.7667  -19.0940   22.1105 C   0  0  0  0  0  0  0  0  0  0  0  0
   13.4864  -17.6435   22.4308 C   0  0  2  0  0  0  0  0  0  0  0  0
   12.2449  -17.3456   21.6852 N   0  0  0  0  0  0  0  0  0  0  0  0
   14.5121  -16.7183   21.9037 C   0  0  0  0  0  0  0  0  0  0  0  0
   14.3231  -16.1096   20.8329 O   0  0  0  0  0  0  0  0  0  0  0  0
   15.6976  -16.5064   22.5807 O   0  0  0  0  0  0  0  0  0  0  0  0
  2 13  1  0
  2  1  1  1
  3  2  1  0
  4  3  1  0
  5  4  2  0
  6  5  1  0
  7 12  2  0
  7  6  1  0
  8  7  1  0
  9  8  2  0
  9 10  1  0
 10 11  2  0
 11 12  1  0
 12  4  1  0
 13 14  2  0
 15 16  1  0
 15 13  1  0
 16 17  1  6
 18 17  1  0
 19 18  2  0
 20 21  1  0
 20 19  1  0
 21 22  2  0
 22 18  1  0
 23 24  2  0
 23 16  1  0
 25 26  1  0
 26 27  2  0
 26 28  1  0
 29 28  1  6
 29 30  1  0
 30 23  1  0
 31 33  1  0
 31 29  1  0
 32 31  2  0
M  END
$$$$
