WHN.pdb
     RDKit          3D

 33 35  0  0  1  0  0  0  0  0999 V2000
    6.2795  -16.8874   23.5438 N   0  0  0  0  0  0  0  0  0  0  0  0
    7.3815  -15.9601   23.5104 C   0  0  1  0  0  0  0  0  0  0  0  0
    8.0347  -15.8709   24.8558 C   0  0  0  0  0  0  0  0  0  0  0  0
    7.2099  -15.0108   25.7368 C   0  0  0  0  0  0  0  0  0  0  0  0
    6.1528  -15.4095   26.5498 C   0  0  0  0  0  0  0  0  0  0  0  0
    5.6700  -14.3614   27.2334 N   0  0  0  0  0  0  0  0  0  0  0  0
    6.4000  -13.3092   26.8681 C   0  0  0  0  0  0  0  0  0  0  0  0
    6.2939  -11.9987   27.2814 C   0  0  0  0  0  0  0  0  0  0  0  0
    7.1327  -11.0342   26.7866 C   0  0  0  0  0  0  0  0  0  0  0  0
    8.0853  -11.3987   25.8673 C   0  0  0  0  0  0  0  0  0  0  0  0
    8.2268  -12.7081   25.4239 C   0  0  0  0  0  0  0  0  0  0  0  0
    7.3757  -13.6697   25.9317 C   0  0  0  0  0  0  0  0  0  0  0  0
    8.3116  -16.3947   22.4485 C   0  0  0  0  0  0  0  0  0  0  0  0
    8.4743  -17.6118   22.1936 O   0  0  0  0  0  0  0  0  0  0  0  0
    9.0256  -15.4511   21.7107 N   0  0  0  0  0  0  0  0  0  0  0  0
   10.0302  -15.8572   20.6854 C   0  0  1  0  0  0  0  0  0  0  0  0
   10.0906  -14.6741   19.7599 C   0  0  0  0  0  0  0  0  0  0  0  0
    9.0216  -14.5822   18.7667 C   0  0  0  0  0  0  0  0  0  0  0  0
    7.9953  -15.4481   18.5277 C   0  0  0  0  0  0  0  0  0  0  0  0
    7.2331  -14.8926   17.5579 N   0  0  0  0  0  0  0  0  0  0  0  0
    7.7361  -13.7143   17.1781 C   0  0  0  0  0  0  0  0  0  0  0  0
    8.8287  -13.5275   17.9187 N   0  0  0  0  0  0  0  0  0  0  0  0
   11.3398  -16.0042   21.4294 C   0  0  0  0  0  0  0  0  0  0  0  0
   11.5642  -15.4800   22.5425 O   0  0  0  0  0  0  0  0  0  0  0  0
   14.0917  -18.7357   24.6459 N   0  0  0  0  0  0  0  0  0  0  0  0
   13.7268  -19.1438   23.3494 C   0  0  0  0  0  0  0  0  0  0  0  0
   14.1893  -20.2116   22.8984 O   0  0  0  0  0  0  0  0  0  0  0  0
   12.8210  -18.3246   22.5522 C   0  0  0  0  0  0  0  0  0  0  0  0
   13.4861  -17.3363   21.6216 C   0  0  2  0  0  0  0  0  0  0  0  0
   12.3665  -16.7757   20.8354 N   0  0  0  0  0  0  0  0  0  0  0  0
   14.3946  -17.9721   20.6439 C   0  0  0  0  0  0  0  0  0  0  0  0
   15.5614  -18.2685   20.9659 O   0  0  0  0  0  0  0  0  0  0  0  0
   13.9758  -18.2521   19.3575 O   0  0  0  0  0  0  0  0  0  0  0  0
  2 13  1  0
  2  1  1  1
  3  2  1  0
  4  3  1  0
  5  4  2  0
  6  5  1  0
  7 12  2  0
  7  6  1  0
  8  7  1  0
  9  8  2  0
  9 10  1  0
 10 11  2  0
 11 12  1  0
 12  4  1  0
 13 14  2  0
 15 16  1  0
 15 13  1  0
 16 17  1  6
 18 17  1  0
 19 18  2  0
 20 21  1  0
 20 19  1  0
 21 22  2  0
 22 18  1  0
 23 24  2  0
 23 16  1  0
 25 26  1  0
 26 27  2  0
 26 28  1  0
 29 28  1  1
 29 30  1  0
 30 23  1  0
 31 33  1  0
 31 29  1  0
 32 31  2  0
M  END
$$$$
