ALM.pdb
     RDKit          3D

 22 21  0  0  1  0  0  0  0  0999 V2000
   19.2182  -33.5013   -6.5054 C   0  0  0  0  0  0  0  0  0  0  0  0
   19.9978  -34.3271   -7.4954 C   0  0  2  0  0  0  0  0  0  0  0  0
   19.4568  -35.6717   -7.5899 N   0  0  0  0  0  0  0  0  0  0  0  0
   21.4474  -34.3288   -7.2107 C   0  0  0  0  0  0  0  0  0  0  0  0
   21.9043  -35.0284   -6.3032 O   0  0  0  0  0  0  0  0  0  0  0  0
   26.4804  -34.3863   -8.7203 C   0  0  0  0  0  0  0  0  0  0  0  0
   26.1734  -32.9407   -8.2820 C   0  0  1  0  0  0  0  0  0  0  0  0
   27.0853  -32.0617   -9.0545 C   0  0  0  0  0  0  0  0  0  0  0  0
   24.7103  -32.7538   -8.5234 C   0  0  0  0  0  0  0  0  0  0  0  0
   23.7773  -33.4724   -7.6405 C   0  0  2  0  0  0  0  0  0  0  0  0
   22.4054  -33.5426   -7.9434 N   0  0  0  0  0  0  0  0  0  0  0  0
   23.9480  -32.9110   -6.2614 C   0  0  0  0  0  0  0  0  0  0  0  0
   23.3726  -31.7985   -6.0199 O   0  0  0  0  0  0  0  0  0  0  0  0
   21.4286  -32.1142    0.4147 C   0  0  0  0  0  0  0  0  0  0  0  0
   21.5405  -32.6453   -1.2964 S   0  0  0  0  0  0  0  0  0  0  0  0
   23.2571  -32.5879   -1.9106 C   0  0  0  0  0  0  0  0  0  0  0  0
   23.3049  -33.0255   -3.3431 C   0  0  0  0  0  0  0  0  0  0  0  0
   24.6898  -32.9714   -3.9136 C   0  0  2  0  0  0  0  0  0  0  0  0
   24.7072  -33.5694   -5.2608 N   0  0  0  0  0  0  0  0  0  0  0  0
   25.6566  -33.7412   -3.1114 C   0  0  0  0  0  0  0  0  0  0  0  0
   26.0080  -34.9180   -3.4710 O   0  0  0  0  0  0  0  0  0  0  0  0
   26.2386  -33.2617   -1.9468 O   0  0  0  0  0  0  0  0  0  0  0  0
  2  4  1  0
  2  1  1  1
  2  3  1  0
  4  5  2  0
  7  6  1  6
  7  9  1  0
  7  8  1  0
 10  9  1  6
 10 12  1  0
 11 10  1  0
 11  4  1  0
 12 19  1  0
 13 12  2  0
 15 16  1  0
 15 14  1  0
 17 16  1  0
 18 17  1  1
 19 18  1  0
 20 22  1  0
 20 18  1  0
 21 20  2  0
M  END
$$$$
