ALM.pdb
     RDKit          3D

 22 21  0  0  1  0  0  0  0  0999 V2000
   27.3573  -19.3429  -16.6509 C   0  0  0  0  0  0  0  0  0  0  0  0
   27.6624  -20.3676  -15.5894 C   0  0  2  0  0  0  0  0  0  0  0  0
   28.3544  -21.5119  -16.1560 N   0  0  0  0  0  0  0  0  0  0  0  0
   26.4610  -20.7648  -14.8270 C   0  0  0  0  0  0  0  0  0  0  0  0
   25.7548  -21.6979  -15.2169 O   0  0  0  0  0  0  0  0  0  0  0  0
   25.9511  -20.2282   -9.1469 C   0  0  0  0  0  0  0  0  0  0  0  0
   26.1995  -20.7032  -10.5922 C   0  0  1  0  0  0  0  0  0  0  0  0
   26.4961  -22.1548  -10.5155 C   0  0  0  0  0  0  0  0  0  0  0  0
   24.9734  -20.3165  -11.3545 C   0  0  0  0  0  0  0  0  0  0  0  0
   24.9705  -20.5566  -12.8067 C   0  0  2  0  0  0  0  0  0  0  0  0
   26.0358  -20.1173  -13.6134 N   0  0  0  0  0  0  0  0  0  0  0  0
   23.6856  -20.0052  -13.3462 C   0  0  0  0  0  0  0  0  0  0  0  0
   23.7625  -18.9222  -14.0157 O   0  0  0  0  0  0  0  0  0  0  0  0
   21.8448  -18.4719  -17.5440 C   0  0  0  0  0  0  0  0  0  0  0  0
   21.4917  -20.1816  -17.9619 S   0  0  0  0  0  0  0  0  0  0  0  0
   20.8374  -21.1052  -16.5314 C   0  0  0  0  0  0  0  0  0  0  0  0
   21.8680  -21.1671  -15.4452 C   0  0  0  0  0  0  0  0  0  0  0  0
   21.4210  -20.4798  -14.1905 C   0  0  2  0  0  0  0  0  0  0  0  0
   22.4362  -20.6419  -13.1341 N   0  0  0  0  0  0  0  0  0  0  0  0
   20.1748  -21.0519  -13.6519 C   0  0  0  0  0  0  0  0  0  0  0  0
   20.2040  -22.1055  -12.9259 O   0  0  0  0  0  0  0  0  0  0  0  0
   18.9198  -20.5075  -13.8834 O   0  0  0  0  0  0  0  0  0  0  0  0
  2  4  1  0
  2  1  1  6
  2  3  1  0
  4  5  2  0
  7  6  1  1
  7  9  1  0
  7  8  1  0
 10  9  1  1
 10 12  1  0
 11 10  1  0
 11  4  1  0
 12 19  1  0
 13 12  2  0
 15 16  1  0
 15 14  1  0
 17 16  1  0
 18 17  1  6
 19 18  1  0
 20 22  1  0
 20 18  1  0
 21 20  2  0
M  END
$$$$
