ALM.pdb
     RDKit          3D

 22 21  0  0  1  0  0  0  0  0999 V2000
   24.6304  -19.5096  -16.5801 C   0  0  0  0  0  0  0  0  0  0  0  0
   24.7479  -19.6874  -15.0887 C   0  0  2  0  0  0  0  0  0  0  0  0
   25.1481  -18.4470  -14.4478 N   0  0  0  0  0  0  0  0  0  0  0  0
   25.6313  -20.8136  -14.7228 C   0  0  0  0  0  0  0  0  0  0  0  0
   25.3499  -21.9644  -15.0665 O   0  0  0  0  0  0  0  0  0  0  0  0
   30.7693  -20.8714  -11.5630 C   0  0  0  0  0  0  0  0  0  0  0  0
   29.2360  -20.7349  -11.6440 C   0  0  1  0  0  0  0  0  0  0  0  0
   28.9484  -19.2899  -11.8180 C   0  0  0  0  0  0  0  0  0  0  0  0
   28.8148  -21.6339  -12.7612 C   0  0  0  0  0  0  0  0  0  0  0  0
   27.3879  -21.6491  -13.1220 C   0  0  2  0  0  0  0  0  0  0  0  0
   26.8454  -20.6616  -13.9641 N   0  0  0  0  0  0  0  0  0  0  0  0
   26.6063  -21.6887  -11.8439 C   0  0  0  0  0  0  0  0  0  0  0  0
   26.8691  -22.6440  -11.0404 O   0  0  0  0  0  0  0  0  0  0  0  0
   28.3859  -19.7746   -6.5472 C   0  0  0  0  0  0  0  0  0  0  0  0
   26.6366  -19.3933   -6.6787 S   0  0  0  0  0  0  0  0  0  0  0  0
   25.7823  -20.5279   -7.8234 C   0  0  0  0  0  0  0  0  0  0  0  0
   25.8094  -19.9705   -9.2143 C   0  0  0  0  0  0  0  0  0  0  0  0
   25.0210  -20.8016  -10.1807 C   0  0  2  0  0  0  0  0  0  0  0  0
   25.6199  -20.7209  -11.5253 N   0  0  0  0  0  0  0  0  0  0  0  0
   23.6324  -20.3301  -10.3221 C   0  0  0  0  0  0  0  0  0  0  0  0
   23.2624  -19.7056  -11.3762 O   0  0  0  0  0  0  0  0  0  0  0  0
   22.6561  -20.5234   -9.3555 O   0  0  0  0  0  0  0  0  0  0  0  0
  2  4  1  0
  2  1  1  6
  2  3  1  0
  4  5  2  0
  7  6  1  6
  7  9  1  0
  7  8  1  0
 10  9  1  1
 10 12  1  0
 11 10  1  0
 11  4  1  0
 12 19  1  0
 13 12  2  0
 15 16  1  0
 15 14  1  0
 17 16  1  0
 18 17  1  1
 19 18  1  0
 20 22  1  0
 20 18  1  0
 21 20  2  0
M  END
$$$$
