ALM.pdb
     RDKit          3D

 22 21  0  0  1  0  0  0  0  0999 V2000
   30.8012  -20.7830  -11.2053 C   0  0  0  0  0  0  0  0  0  0  0  0
   30.8328  -21.5644   -9.9176 C   0  0  2  0  0  0  0  0  0  0  0  0
   31.2931  -22.9229  -10.1457 N   0  0  0  0  0  0  0  0  0  0  0  0
   29.5402  -21.5269   -9.2033 C   0  0  0  0  0  0  0  0  0  0  0  0
   28.7096  -22.4238   -9.3686 O   0  0  0  0  0  0  0  0  0  0  0  0
   28.4850  -18.6135   -4.3218 C   0  0  0  0  0  0  0  0  0  0  0  0
   28.7222  -19.7903   -5.2888 C   0  0  1  0  0  0  0  0  0  0  0  0
   28.5379  -21.0318   -4.4977 C   0  0  0  0  0  0  0  0  0  0  0  0
   27.7670  -19.5761   -6.4183 C   0  0  0  0  0  0  0  0  0  0  0  0
   27.9300  -20.4154   -7.6163 C   0  0  2  0  0  0  0  0  0  0  0  0
   29.1624  -20.4786   -8.2916 N   0  0  0  0  0  0  0  0  0  0  0  0
   26.8580  -20.0196   -8.5860 C   0  0  0  0  0  0  0  0  0  0  0  0
   26.9719  -18.8711   -9.1294 O   0  0  0  0  0  0  0  0  0  0  0  0
   23.9558  -22.3365  -15.1971 C   0  0  0  0  0  0  0  0  0  0  0  0
   24.8750  -22.5922  -13.6765 S   0  0  0  0  0  0  0  0  0  0  0  0
   24.4925  -21.3137  -12.4329 C   0  0  0  0  0  0  0  0  0  0  0  0
   25.2889  -21.5550  -11.1866 C   0  0  0  0  0  0  0  0  0  0  0  0
   25.0020  -20.5443  -10.1177 C   0  0  2  0  0  0  0  0  0  0  0  0
   25.7638  -20.8663   -8.8975 N   0  0  0  0  0  0  0  0  0  0  0  0
   23.5825  -20.5338   -9.7233 C   0  0  0  0  0  0  0  0  0  0  0  0
   22.6927  -20.0593  -10.5112 O   0  0  0  0  0  0  0  0  0  0  0  0
   23.1217  -21.0228   -8.5093 O   0  0  0  0  0  0  0  0  0  0  0  0
  2  4  1  0
  2  1  1  6
  2  3  1  0
  4  5  2  0
  7  6  1  1
  7  9  1  0
  7  8  1  0
 10  9  1  1
 10 12  1  0
 11 10  1  0
 11  4  1  0
 12 19  1  0
 13 12  2  0
 15 16  1  0
 15 14  1  0
 17 16  1  0
 18 17  1  6
 19 18  1  0
 20 22  1  0
 20 18  1  0
 21 20  2  0
M  END
$$$$
