ALM.pdb
     RDKit          3D

 22 21  0  0  1  0  0  0  0  0999 V2000
   21.9592  -23.4947   -7.6058 C   0  0  0  0  0  0  0  0  0  0  0  0
   22.3657  -22.2924   -6.7938 C   0  0  2  0  0  0  0  0  0  0  0  0
   21.2095  -21.6698   -6.1734 N   0  0  0  0  0  0  0  0  0  0  0  0
   23.1652  -21.3275   -7.5762 C   0  0  0  0  0  0  0  0  0  0  0  0
   22.6154  -20.3901   -8.1600 O   0  0  0  0  0  0  0  0  0  0  0  0
   28.7750  -20.0466   -6.8693 C   0  0  0  0  0  0  0  0  0  0  0  0
   27.2437  -19.8723   -6.9018 C   0  0  1  0  0  0  0  0  0  0  0  0
   26.9744  -18.4422   -6.6131 C   0  0  0  0  0  0  0  0  0  0  0  0
   26.8148  -20.3697   -8.2444 C   0  0  0  0  0  0  0  0  0  0  0  0
   25.3705  -20.5182   -8.4860 C   0  0  2  0  0  0  0  0  0  0  0  0
   24.5963  -21.4029   -7.7138 N   0  0  0  0  0  0  0  0  0  0  0  0
   25.1939  -20.8487   -9.9371 C   0  0  0  0  0  0  0  0  0  0  0  0
   25.4751  -22.0413  -10.2919 O   0  0  0  0  0  0  0  0  0  0  0  0
   19.8610  -21.4671  -12.8355 C   0  0  0  0  0  0  0  0  0  0  0  0
   20.7235  -20.4889  -14.0691 S   0  0  0  0  0  0  0  0  0  0  0  0
   22.5337  -20.5987  -13.8733 C   0  0  0  0  0  0  0  0  0  0  0  0
   22.9185  -20.2698  -12.4627 C   0  0  0  0  0  0  0  0  0  0  0  0
   24.3917  -20.4061  -12.2234 C   0  0  2  0  0  0  0  0  0  0  0  0
   24.7373  -19.8968  -10.8839 N   0  0  0  0  0  0  0  0  0  0  0  0
   25.1898  -19.6187  -13.1792 C   0  0  0  0  0  0  0  0  0  0  0  0
   25.8307  -18.5812  -12.7910 O   0  0  0  0  0  0  0  0  0  0  0  0
   25.3024  -19.9348  -14.5255 O   0  0  0  0  0  0  0  0  0  0  0  0
  2  4  1  0
  2  1  1  6
  2  3  1  0
  4  5  2  0
  7  6  1  6
  7  9  1  0
  7  8  1  0
 10  9  1  1
 10 12  1  0
 11 10  1  0
 11  4  1  0
 12 19  1  0
 13 12  2  0
 15 16  1  0
 15 14  1  0
 17 16  1  0
 18 17  1  6
 19 18  1  0
 20 22  1  0
 20 18  1  0
 21 20  2  0
M  END
$$$$
