ALM.pdb
     RDKit          3D

 22 21  0  0  1  0  0  0  0  0999 V2000
   20.3980  -12.9478  -14.5347 C   0  0  0  0  0  0  0  0  0  0  0  0
   21.3891  -12.9045  -15.6687 C   0  0  2  0  0  0  0  0  0  0  0  0
   20.7701  -12.3957  -16.8800 N   0  0  0  0  0  0  0  0  0  0  0  0
   22.0536  -14.2057  -15.8870 C   0  0  0  0  0  0  0  0  0  0  0  0
   21.4779  -15.1043  -16.5057 O   0  0  0  0  0  0  0  0  0  0  0  0
   25.9894  -17.1589  -17.4812 C   0  0  0  0  0  0  0  0  0  0  0  0
   26.1952  -17.0631  -15.9565 C   0  0  1  0  0  0  0  0  0  0  0  0
   27.6576  -17.1455  -15.7210 C   0  0  0  0  0  0  0  0  0  0  0  0
   25.5279  -15.7909  -15.5440 C   0  0  0  0  0  0  0  0  0  0  0  0
   24.0661  -15.7088  -15.6948 C   0  0  2  0  0  0  0  0  0  0  0  0
   23.3768  -14.5157  -15.4119 N   0  0  0  0  0  0  0  0  0  0  0  0
   23.4722  -16.8229  -14.8873 C   0  0  0  0  0  0  0  0  0  0  0  0
   23.4169  -16.6497  -13.6247 O   0  0  0  0  0  0  0  0  0  0  0  0
   18.2194  -19.3841  -10.9559 C   0  0  0  0  0  0  0  0  0  0  0  0
   19.0857  -18.3343  -12.1264 S   0  0  0  0  0  0  0  0  0  0  0  0
   20.4349  -19.2295  -12.9665 C   0  0  0  0  0  0  0  0  0  0  0  0
   21.2272  -18.2835  -13.8168 C   0  0  0  0  0  0  0  0  0  0  0  0
   22.3125  -18.9748  -14.5854 C   0  0  2  0  0  0  0  0  0  0  0  0
   22.9895  -18.0178  -15.4792 N   0  0  0  0  0  0  0  0  0  0  0  0
   21.7903  -20.0455  -15.4522 C   0  0  0  0  0  0  0  0  0  0  0  0
   21.6333  -19.8474  -16.7067 O   0  0  0  0  0  0  0  0  0  0  0  0
   21.4434  -21.3059  -14.9873 O   0  0  0  0  0  0  0  0  0  0  0  0
  2  4  1  0
  2  1  1  1
  2  3  1  0
  4  5  2  0
  7  6  1  6
  7  9  1  0
  7  8  1  0
 10  9  1  1
 10 12  1  0
 11 10  1  0
 11  4  1  0
 12 19  1  0
 13 12  2  0
 15 16  1  0
 15 14  1  0
 17 16  1  0
 18 17  1  6
 19 18  1  0
 20 22  1  0
 20 18  1  0
 21 20  2  0
M  END
$$$$
