ALM.pdb
     RDKit          3D

 22 21  0  0  1  0  0  0  0  0999 V2000
   19.6878  -28.3312  -11.7414 C   0  0  0  0  0  0  0  0  0  0  0  0
   18.3947  -27.8129  -11.1677 C   0  0  2  0  0  0  0  0  0  0  0  0
   17.6173  -27.1214  -12.1811 N   0  0  0  0  0  0  0  0  0  0  0  0
   18.6044  -26.9827   -9.9639 C   0  0  0  0  0  0  0  0  0  0  0  0
   19.4236  -27.3226   -9.1065 O   0  0  0  0  0  0  0  0  0  0  0  0
   17.9049  -21.2171   -9.4153 C   0  0  0  0  0  0  0  0  0  0  0  0
   18.6187  -22.5831   -9.4394 C   0  0  1  0  0  0  0  0  0  0  0  0
   19.9911  -22.3524   -8.9254 C   0  0  0  0  0  0  0  0  0  0  0  0
   17.7542  -23.4982   -8.6337 C   0  0  0  0  0  0  0  0  0  0  0  0
   18.1206  -24.9232   -8.5960 C   0  0  2  0  0  0  0  0  0  0  0  0
   17.8950  -25.7566   -9.7065 N   0  0  0  0  0  0  0  0  0  0  0  0
   17.4598  -25.5207   -7.3908 C   0  0  0  0  0  0  0  0  0  0  0  0
   16.3205  -26.0651   -7.5723 O   0  0  0  0  0  0  0  0  0  0  0  0
   20.2669  -27.0914   -1.8009 C   0  0  0  0  0  0  0  0  0  0  0  0
   18.5566  -27.3177   -1.3049 S   0  0  0  0  0  0  0  0  0  0  0  0
   17.4015  -26.9024   -2.6542 C   0  0  0  0  0  0  0  0  0  0  0  0
   18.1581  -26.3632   -3.8301 C   0  0  0  0  0  0  0  0  0  0  0  0
   17.2659  -26.0561   -4.9945 C   0  0  2  0  0  0  0  0  0  0  0  0
   18.0559  -25.4930   -6.1043 N   0  0  0  0  0  0  0  0  0  0  0  0
   16.2439  -25.0470   -4.6662 C   0  0  0  0  0  0  0  0  0  0  0  0
   15.0878  -25.4046   -4.2498 O   0  0  0  0  0  0  0  0  0  0  0  0
   16.4536  -23.6801   -4.7795 O   0  0  0  0  0  0  0  0  0  0  0  0
  2  4  1  0
  2  1  1  6
  2  3  1  0
  4  5  2  0
  7  6  1  1
  7  9  1  0
  7  8  1  0
 10  9  1  6
 10 12  1  0
 11 10  1  0
 11  4  1  0
 12 19  1  0
 13 12  2  0
 15 16  1  0
 15 14  1  0
 17 16  1  0
 18 17  1  1
 19 18  1  0
 20 22  1  0
 20 18  1  0
 21 20  2  0
M  END
$$$$
