ALM.pdb
     RDKit          3D

 22 21  0  0  1  0  0  0  0  0999 V2000
   19.2268   -9.5518  -20.4361 C   0  0  0  0  0  0  0  0  0  0  0  0
   18.8382   -9.3045  -19.0017 C   0  0  2  0  0  0  0  0  0  0  0  0
   17.4151   -9.5181  -18.8050 N   0  0  0  0  0  0  0  0  0  0  0  0
   19.2740   -7.9777  -18.5199 C   0  0  0  0  0  0  0  0  0  0  0  0
   20.4664   -7.6631  -18.5519 O   0  0  0  0  0  0  0  0  0  0  0  0
   16.3377   -2.9937  -18.5606 C   0  0  0  0  0  0  0  0  0  0  0  0
   17.4212   -4.0475  -18.8635 C   0  0  1  0  0  0  0  0  0  0  0  0
   18.4701   -3.3602  -19.6560 C   0  0  0  0  0  0  0  0  0  0  0  0
   17.8400   -4.5819  -17.5319 C   0  0  0  0  0  0  0  0  0  0  0  0
   18.7710   -5.7218  -17.5179 C   0  0  2  0  0  0  0  0  0  0  0  0
   18.3741   -6.9843  -17.9945 N   0  0  0  0  0  0  0  0  0  0  0  0
   19.2797   -5.8635  -16.1153 C   0  0  0  0  0  0  0  0  0  0  0  0
   18.6607   -6.6852  -15.3611 O   0  0  0  0  0  0  0  0  0  0  0  0
   23.1251   -9.8397  -11.6992 C   0  0  0  0  0  0  0  0  0  0  0  0
   22.3359   -9.2420  -13.1966 S   0  0  0  0  0  0  0  0  0  0  0  0
   22.0012   -7.4507  -13.1148 C   0  0  0  0  0  0  0  0  0  0  0  0
   21.3404   -6.9935  -14.3799 C   0  0  0  0  0  0  0  0  0  0  0  0
   20.9497   -5.5474  -14.3327 C   0  0  2  0  0  0  0  0  0  0  0  0
   20.3929   -5.1297  -15.6322 N   0  0  0  0  0  0  0  0  0  0  0  0
   22.1010   -4.6641  -14.0777 C   0  0  0  0  0  0  0  0  0  0  0  0
   22.6884   -4.0666  -15.0451 O   0  0  0  0  0  0  0  0  0  0  0  0
   22.6146   -4.4223  -12.8117 O   0  0  0  0  0  0  0  0  0  0  0  0
  2  4  1  0
  2  1  1  6
  2  3  1  0
  4  5  2  0
  7  6  1  1
  7  9  1  0
  7  8  1  0
 10  9  1  1
 10 12  1  0
 11 10  1  0
 11  4  1  0
 12 19  1  0
 13 12  2  0
 15 16  1  0
 15 14  1  0
 17 16  1  0
 18 17  1  6
 19 18  1  0
 20 22  1  0
 20 18  1  0
 21 20  2  0
M  END
$$$$
