ALM.pdb
     RDKit          3D

 22 21  0  0  1  0  0  0  0  0999 V2000
   21.2708  -11.0961  -21.0620 C   0  0  0  0  0  0  0  0  0  0  0  0
   22.3386  -11.7501  -20.2243 C   0  0  2  0  0  0  0  0  0  0  0  0
   22.1338  -13.1860  -20.1504 N   0  0  0  0  0  0  0  0  0  0  0  0
   22.4614  -11.1354  -18.8866 C   0  0  0  0  0  0  0  0  0  0  0  0
   21.6038  -11.3414  -18.0242 O   0  0  0  0  0  0  0  0  0  0  0  0
   27.1663   -9.8590  -15.8613 C   0  0  0  0  0  0  0  0  0  0  0  0
   25.8071  -10.4714  -16.2534 C   0  0  1  0  0  0  0  0  0  0  0  0
   25.3418  -11.2538  -15.0820 C   0  0  0  0  0  0  0  0  0  0  0  0
   24.9520   -9.3150  -16.6602 C   0  0  0  0  0  0  0  0  0  0  0  0
   23.6429   -9.6147  -17.2623 C   0  0  2  0  0  0  0  0  0  0  0  0
   23.5519  -10.2790  -18.4989 N   0  0  0  0  0  0  0  0  0  0  0  0
   22.8831   -8.3252  -17.3399 C   0  0  0  0  0  0  0  0  0  0  0  0
   22.7732   -7.7930  -18.4940 O   0  0  0  0  0  0  0  0  0  0  0  0
   16.7558   -5.0120  -18.8223 C   0  0  0  0  0  0  0  0  0  0  0  0
   18.0290   -6.2704  -18.6885 S   0  0  0  0  0  0  0  0  0  0  0  0
   19.3620   -5.7641  -17.5508 C   0  0  0  0  0  0  0  0  0  0  0  0
   20.3484   -6.8804  -17.3866 C   0  0  0  0  0  0  0  0  0  0  0  0
   21.4549   -6.5331  -16.4372 C   0  0  2  0  0  0  0  0  0  0  0  0
   22.3070   -7.7120  -16.1983 N   0  0  0  0  0  0  0  0  0  0  0  0
   20.9504   -6.1182  -15.1166 C   0  0  0  0  0  0  0  0  0  0  0  0
   20.8915   -6.9561  -14.1511 O   0  0  0  0  0  0  0  0  0  0  0  0
   20.5180   -4.8309  -14.8322 O   0  0  0  0  0  0  0  0  0  0  0  0
  2  4  1  0
  2  1  1  1
  2  3  1  0
  4  5  2  0
  7  6  1  1
  7  9  1  0
  7  8  1  0
 10  9  1  6
 10 12  1  0
 11 10  1  0
 11  4  1  0
 12 19  1  0
 13 12  2  0
 15 16  1  0
 15 14  1  0
 17 16  1  0
 18 17  1  6
 19 18  1  0
 20 22  1  0
 20 18  1  0
 21 20  2  0
M  END
$$$$
