ALM.pdb
     RDKit          3D

 22 21  0  0  1  0  0  0  0  0999 V2000
   17.8067  -11.3704  -17.7588 C   0  0  0  0  0  0  0  0  0  0  0  0
   18.7317  -10.2128  -18.0314 C   0  0  2  0  0  0  0  0  0  0  0  0
   20.0848  -10.6771  -18.2821 N   0  0  0  0  0  0  0  0  0  0  0  0
   18.6823   -9.1888  -16.9676 C   0  0  0  0  0  0  0  0  0  0  0  0
   17.6147   -8.6452  -16.6739 O   0  0  0  0  0  0  0  0  0  0  0  0
   19.4976   -6.8759  -12.3852 C   0  0  0  0  0  0  0  0  0  0  0  0
   20.7781   -6.5910  -13.1948 C   0  0  1  0  0  0  0  0  0  0  0  0
   21.8883   -6.5059  -12.2144 C   0  0  0  0  0  0  0  0  0  0  0  0
   20.8657   -7.6921  -14.2016 C   0  0  0  0  0  0  0  0  0  0  0  0
   19.8161   -7.7583  -15.2313 C   0  0  2  0  0  0  0  0  0  0  0  0
   19.8345   -8.7608  -16.2179 N   0  0  0  0  0  0  0  0  0  0  0  0
   19.7589   -6.4161  -15.8954 C   0  0  0  0  0  0  0  0  0  0  0  0
   20.6773   -6.1554  -16.7416 O   0  0  0  0  0  0  0  0  0  0  0  0
   15.8625   -0.9769  -19.6884 C   0  0  0  0  0  0  0  0  0  0  0  0
   15.9691   -2.5549  -18.8392 S   0  0  0  0  0  0  0  0  0  0  0  0
   17.5153   -2.7041  -17.8829 C   0  0  0  0  0  0  0  0  0  0  0  0
   17.5534   -4.0222  -17.1707 C   0  0  0  0  0  0  0  0  0  0  0  0
   18.7958   -4.1953  -16.3506 C   0  0  2  0  0  0  0  0  0  0  0  0
   18.7420   -5.4694  -15.6111 N   0  0  0  0  0  0  0  0  0  0  0  0
   18.9485   -3.1388  -15.3351 C   0  0  0  0  0  0  0  0  0  0  0  0
   19.4665   -2.0102  -15.6446 O   0  0  0  0  0  0  0  0  0  0  0  0
   18.5535   -3.2849  -14.0131 O   0  0  0  0  0  0  0  0  0  0  0  0
  2  4  1  0
  2  1  1  1
  2  3  1  0
  4  5  2  0
  7  6  1  1
  7  9  1  0
  7  8  1  0
 10  9  1  6
 10 12  1  0
 11 10  1  0
 11  4  1  0
 12 19  1  0
 13 12  2  0
 15 16  1  0
 15 14  1  0
 17 16  1  0
 18 17  1  1
 19 18  1  0
 20 22  1  0
 20 18  1  0
 21 20  2  0
M  END
$$$$
