ALM.pdb
     RDKit          3D

 22 21  0  0  1  0  0  0  0  0999 V2000
   21.8779  -19.1804  -13.6688 C   0  0  0  0  0  0  0  0  0  0  0  0
   23.0130  -18.9623  -14.6352 C   0  0  2  0  0  0  0  0  0  0  0  0
   22.5411  -19.0029  -16.0081 N   0  0  0  0  0  0  0  0  0  0  0  0
   24.1366  -19.8933  -14.4047 C   0  0  0  0  0  0  0  0  0  0  0  0
   23.9908  -21.1046  -14.5869 O   0  0  0  0  0  0  0  0  0  0  0  0
   29.6444  -18.7641  -15.2423 C   0  0  0  0  0  0  0  0  0  0  0  0
   28.1585  -19.1713  -15.2926 C   0  0  1  0  0  0  0  0  0  0  0  0
   27.9713  -19.9347  -16.5508 C   0  0  0  0  0  0  0  0  0  0  0  0
   27.9067  -19.9162  -14.0215 C   0  0  0  0  0  0  0  0  0  0  0  0
   26.5258  -20.3447  -13.7455 C   0  0  2  0  0  0  0  0  0  0  0  0
   25.4423  -19.4750  -13.9653 N   0  0  0  0  0  0  0  0  0  0  0  0
   26.4859  -20.8314  -12.3286 C   0  0  0  0  0  0  0  0  0  0  0  0
   27.2956  -21.7679  -12.0210 O   0  0  0  0  0  0  0  0  0  0  0  0
   28.3589  -18.6572   -7.3848 C   0  0  0  0  0  0  0  0  0  0  0  0
   27.2920  -19.8100   -6.5157 S   0  0  0  0  0  0  0  0  0  0  0  0
   26.2417  -20.7578   -7.6672 C   0  0  0  0  0  0  0  0  0  0  0  0
   26.3853  -20.2163   -9.0572 C   0  0  0  0  0  0  0  0  0  0  0  0
   25.5523  -20.9648  -10.0533 C   0  0  2  0  0  0  0  0  0  0  0  0
   25.5995  -20.2900  -11.3631 N   0  0  0  0  0  0  0  0  0  0  0  0
   24.1307  -21.0150   -9.6697 C   0  0  0  0  0  0  0  0  0  0  0  0
   23.2431  -20.4367  -10.3877 O   0  0  0  0  0  0  0  0  0  0  0  0
   23.6655  -21.6726   -8.5400 O   0  0  0  0  0  0  0  0  0  0  0  0
  2  4  1  0
  2  1  1  1
  2  3  1  0
  4  5  2  0
  7  6  1  1
  7  9  1  0
  7  8  1  0
 10  9  1  1
 10 12  1  0
 11 10  1  0
 11  4  1  0
 12 19  1  0
 13 12  2  0
 15 16  1  0
 15 14  1  0
 17 16  1  0
 18 17  1  1
 19 18  1  0
 20 22  1  0
 20 18  1  0
 21 20  2  0
M  END
$$$$
