ALM.pdb
     RDKit          3D

 22 21  0  0  1  0  0  0  0  0999 V2000
   20.3709   -9.1283  -20.9955 C   0  0  0  0  0  0  0  0  0  0  0  0
   20.8548  -10.3265  -20.2208 C   0  0  2  0  0  0  0  0  0  0  0  0
   19.9943  -11.4741  -20.4484 N   0  0  0  0  0  0  0  0  0  0  0  0
   21.0273  -10.0362  -18.7826 C   0  0  0  0  0  0  0  0  0  0  0  0
   20.0595   -9.7071  -18.0921 O   0  0  0  0  0  0  0  0  0  0  0  0
   24.6069  -12.6457  -15.1779 C   0  0  0  0  0  0  0  0  0  0  0  0
   23.3614  -12.1468  -15.9370 C   0  0  1  0  0  0  0  0  0  0  0  0
   22.1827  -12.6985  -15.2248 C   0  0  0  0  0  0  0  0  0  0  0  0
   23.4820  -10.6573  -15.9644 C   0  0  0  0  0  0  0  0  0  0  0  0
   22.4659   -9.9057  -16.7187 C   0  0  2  0  0  0  0  0  0  0  0  0
   22.2922  -10.1118  -18.0993 N   0  0  0  0  0  0  0  0  0  0  0  0
   22.7116   -8.4490  -16.4662 C   0  0  0  0  0  0  0  0  0  0  0  0
   23.6028   -7.8849  -17.1838 O   0  0  0  0  0  0  0  0  0  0  0  0
   21.1192   -1.3207  -17.3349 C   0  0  0  0  0  0  0  0  0  0  0  0
   20.8605   -3.0923  -17.4662 S   0  0  0  0  0  0  0  0  0  0  0  0
   21.8490   -4.0119  -16.2397 C   0  0  0  0  0  0  0  0  0  0  0  0
   21.5656   -5.4795  -16.3482 C   0  0  0  0  0  0  0  0  0  0  0  0
   22.3343   -6.2877  -15.3470 C   0  0  2  0  0  0  0  0  0  0  0  0
   21.9986   -7.7166  -15.4833 N   0  0  0  0  0  0  0  0  0  0  0  0
   22.0047   -5.9203  -13.9588 C   0  0  0  0  0  0  0  0  0  0  0  0
   21.2696   -6.6839  -13.2417 O   0  0  0  0  0  0  0  0  0  0  0  0
   22.4536   -4.7586  -13.3472 O   0  0  0  0  0  0  0  0  0  0  0  0
  2  4  1  0
  2  1  1  6
  2  3  1  0
  4  5  2  0
  7  6  1  1
  7  9  1  0
  7  8  1  0
 10  9  1  6
 10 12  1  0
 11 10  1  0
 11  4  1  0
 12 19  1  0
 13 12  2  0
 15 16  1  0
 15 14  1  0
 17 16  1  0
 18 17  1  6
 19 18  1  0
 20 22  1  0
 20 18  1  0
 21 20  2  0
M  END
$$$$
