ALM.pdb
     RDKit          3D

 22 21  0  0  1  0  0  0  0  0999 V2000
   13.5986  -21.7343    2.9699 C   0  0  0  0  0  0  0  0  0  0  0  0
   14.7648  -21.6231    2.0225 C   0  0  2  0  0  0  0  0  0  0  0  0
   15.2063  -22.9361    1.5861 N   0  0  0  0  0  0  0  0  0  0  0  0
   15.8718  -20.8209    2.5823 C   0  0  0  0  0  0  0  0  0  0  0  0
   16.8030  -21.3709    3.1755 O   0  0  0  0  0  0  0  0  0  0  0  0
   19.7039  -17.2567    2.7079 C   0  0  0  0  0  0  0  0  0  0  0  0
   18.4087  -16.4970    3.0561 C   0  0  1  0  0  0  0  0  0  0  0  0
   18.5890  -15.1075    2.5683 C   0  0  0  0  0  0  0  0  0  0  0  0
   17.3046  -17.2828    2.4258 C   0  0  0  0  0  0  0  0  0  0  0  0
   17.0017  -18.6070    2.9925 C   0  0  2  0  0  0  0  0  0  0  0  0
   15.9476  -19.3866    2.4830 N   0  0  0  0  0  0  0  0  0  0  0  0
   16.8110  -18.4263    4.4680 C   0  0  0  0  0  0  0  0  0  0  0  0
   15.6118  -18.2794    4.8774 O   0  0  0  0  0  0  0  0  0  0  0  0
   18.7131  -20.1967   11.8057 C   0  0  0  0  0  0  0  0  0  0  0  0
   19.0284  -20.3134   10.0423 S   0  0  0  0  0  0  0  0  0  0  0  0
   18.0551  -19.0918    9.1000 C   0  0  0  0  0  0  0  0  0  0  0  0
   18.3512  -19.2182    7.6363 C   0  0  0  0  0  0  0  0  0  0  0  0
   17.5646  -18.2496    6.8062 C   0  0  2  0  0  0  0  0  0  0  0  0
   17.8970  -18.4172    5.3798 N   0  0  0  0  0  0  0  0  0  0  0  0
   17.8747  -16.8477    7.1368 C   0  0  0  0  0  0  0  0  0  0  0  0
   17.2180  -16.2345    8.0481 O   0  0  0  0  0  0  0  0  0  0  0  0
   18.8695  -16.1145    6.5061 O   0  0  0  0  0  0  0  0  0  0  0  0
  2  4  1  0
  2  1  1  1
  2  3  1  0
  4  5  2  0
  7  6  1  6
  7  9  1  0
  7  8  1  0
 10  9  1  6
 10 12  1  0
 11 10  1  0
 11  4  1  0
 12 19  1  0
 13 12  2  0
 15 16  1  0
 15 14  1  0
 17 16  1  0
 18 17  1  1
 19 18  1  0
 20 22  1  0
 20 18  1  0
 21 20  2  0
M  END
$$$$
