ALM.pdb
     RDKit          3D

 22 21  0  0  1  0  0  0  0  0999 V2000
   15.6116  -13.1119  -15.2810 C   0  0  0  0  0  0  0  0  0  0  0  0
   15.0845  -11.7221  -15.0351 C   0  0  2  0  0  0  0  0  0  0  0  0
   13.7168  -11.5945  -15.5066 N   0  0  0  0  0  0  0  0  0  0  0  0
   15.9664  -10.6773  -15.5947 C   0  0  0  0  0  0  0  0  0  0  0  0
   16.9280  -10.9860  -16.3029 O   0  0  0  0  0  0  0  0  0  0  0  0
   14.4053   -5.4069  -17.1537 C   0  0  0  0  0  0  0  0  0  0  0  0
   14.9610   -6.8412  -17.2542 C   0  0  1  0  0  0  0  0  0  0  0  0
   15.3916   -7.0305  -18.6612 C   0  0  0  0  0  0  0  0  0  0  0  0
   16.0326   -6.9266  -16.2158 C   0  0  0  0  0  0  0  0  0  0  0  0
   16.5867   -8.2570  -15.9169 C   0  0  2  0  0  0  0  0  0  0  0  0
   15.7793   -9.2683  -15.3655 N   0  0  0  0  0  0  0  0  0  0  0  0
   17.7857   -8.0531  -15.0412 C   0  0  0  0  0  0  0  0  0  0  0  0
   17.5746   -7.9929  -13.7846 O   0  0  0  0  0  0  0  0  0  0  0  0
   23.7658  -10.6816  -15.3060 C   0  0  0  0  0  0  0  0  0  0  0  0
   23.2334  -10.3267  -13.6288 S   0  0  0  0  0  0  0  0  0  0  0  0
   22.1723   -8.8448  -13.5562 C   0  0  0  0  0  0  0  0  0  0  0  0
   21.0276   -8.9856  -14.5133 C   0  0  0  0  0  0  0  0  0  0  0  0
   20.1874   -7.7468  -14.5889 C   0  0  2  0  0  0  0  0  0  0  0  0
   19.0981   -7.9315  -15.5648 N   0  0  0  0  0  0  0  0  0  0  0  0
   20.9551   -6.5765  -15.0489 C   0  0  0  0  0  0  0  0  0  0  0  0
   20.8709   -6.1805  -16.2629 O   0  0  0  0  0  0  0  0  0  0  0  0
   21.7966   -5.8415  -14.2263 O   0  0  0  0  0  0  0  0  0  0  0  0
  2  4  1  0
  2  1  1  6
  2  3  1  0
  4  5  2  0
  7  6  1  6
  7  9  1  0
  7  8  1  0
 10  9  1  1
 10 12  1  0
 11 10  1  0
 11  4  1  0
 12 19  1  0
 13 12  2  0
 15 16  1  0
 15 14  1  0
 17 16  1  0
 18 17  1  6
 19 18  1  0
 20 22  1  0
 20 18  1  0
 21 20  2  0
M  END
$$$$
