AHP.pdb
     RDKit          3D

 23 24  0  0  1  0  0  0  0  0999 V2000
    8.6185  -12.9510   19.8648 C   0  0  0  0  0  0  0  0  0  0  0  0
    8.3994  -14.4125   20.1268 C   0  0  2  0  0  0  0  0  0  0  0  0
    7.7383  -15.0637   19.0102 N   0  0  0  0  0  0  0  0  0  0  0  0
    7.6482  -14.6579   21.3939 C   0  0  0  0  0  0  0  0  0  0  0  0
    6.3937  -14.5927   21.4562 O   0  0  0  0  0  0  0  0  0  0  0  0
    8.3609  -14.9709   22.5510 N   0  0  0  0  0  0  0  0  0  0  0  0
    7.6818  -15.2769   23.8499 C   0  0  1  0  0  0  0  0  0  0  0  0
    7.9894  -16.7810   23.9591 C   0  0  0  0  0  0  0  0  0  0  0  0
    7.0603  -17.6757   23.3225 C   0  0  0  0  0  0  0  0  0  0  0  0
    5.9325  -17.3205   22.6160 C   0  0  0  0  0  0  0  0  0  0  0  0
    5.2774  -18.4212   22.1653 N   0  0  0  0  0  0  0  0  0  0  0  0
    5.9924  -19.4783   22.5876 C   0  0  0  0  0  0  0  0  0  0  0  0
    7.0588  -19.0417   23.2795 N   0  0  0  0  0  0  0  0  0  0  0  0
    8.4039  -14.4759   24.8529 C   0  0  0  0  0  0  0  0  0  0  0  0
    9.6711  -14.6939   24.9595 O   0  0  0  0  0  0  0  0  0  0  0  0
    7.8058  -13.4958   25.6868 N   0  0  0  0  0  0  0  0  0  0  0  0
    6.5380  -12.8605   25.4985 C   0  0  0  0  0  0  0  0  0  0  0  0
    6.0444  -12.6869   26.9324 C   0  0  0  0  0  0  0  0  0  0  0  0
    7.3152  -12.0899   27.5524 C   0  0  0  0  0  0  0  0  0  0  0  0
    8.3687  -12.9210   26.9015 C   0  0  1  0  0  0  0  0  0  0  0  0
    8.8366  -13.9372   27.8652 C   0  0  0  0  0  0  0  0  0  0  0  0
    8.3902  -15.1016   27.7634 O   0  0  0  0  0  0  0  0  0  0  0  0
    9.7416  -13.6490   28.8656 O   0  0  0  0  0  0  0  0  0  0  0  0
  2  3  1  0
  2  1  1  6
  4  5  2  0
  4  2  1  0
  6  4  1  0
  7  6  1  0
  7 14  1  0
  7  8  1  1
  9  8  1  0
 10  9  2  0
 11 10  1  0
 12 11  1  0
 12 13  2  0
 13  9  1  0
 14 16  1  0
 15 14  2  0
 16 17  1  0
 16 20  1  0
 17 18  1  0
 19 18  1  0
 20 19  1  0
 20 21  1  1
 21 22  2  0
 21 23  1  0
M  END
$$$$
