AHP.pdb
     RDKit          3D

 23 24  0  0  1  0  0  0  0  0999 V2000
    8.9484  -12.6106   19.7621 C   0  0  0  0  0  0  0  0  0  0  0  0
    8.4574  -14.0254   19.6629 C   0  0  2  0  0  0  0  0  0  0  0  0
    7.7703  -14.2671   18.4069 N   0  0  0  0  0  0  0  0  0  0  0  0
    7.5890  -14.4093   20.8156 C   0  0  0  0  0  0  0  0  0  0  0  0
    6.4281  -14.8676   20.6605 O   0  0  0  0  0  0  0  0  0  0  0  0
    8.0808  -14.2552   22.1115 N   0  0  0  0  0  0  0  0  0  0  0  0
    7.3915  -14.8440   23.3033 C   0  0  1  0  0  0  0  0  0  0  0  0
    7.7037  -16.3340   23.0774 C   0  0  0  0  0  0  0  0  0  0  0  0
    7.3161  -17.2389   24.1262 C   0  0  0  0  0  0  0  0  0  0  0  0
    6.4239  -16.9814   25.1435 C   0  0  0  0  0  0  0  0  0  0  0  0
    6.3066  -18.0545   25.9672 N   0  0  0  0  0  0  0  0  0  0  0  0
    7.1275  -18.9959   25.4704 C   0  0  0  0  0  0  0  0  0  0  0  0
    7.7342  -18.5168   24.3709 N   0  0  0  0  0  0  0  0  0  0  0  0
    8.1020  -14.2853   24.4661 C   0  0  0  0  0  0  0  0  0  0  0  0
    9.3156  -14.6850   24.6454 O   0  0  0  0  0  0  0  0  0  0  0  0
    7.5481  -13.3499   25.3781 N   0  0  0  0  0  0  0  0  0  0  0  0
    6.3034  -12.6561   25.2525 C   0  0  0  0  0  0  0  0  0  0  0  0
    5.8287  -12.5736   26.7009 C   0  0  0  0  0  0  0  0  0  0  0  0
    7.1261  -12.0722   27.3497 C   0  0  0  0  0  0  0  0  0  0  0  0
    8.1423  -12.8897   26.6263 C   0  0  1  0  0  0  0  0  0  0  0  0
    8.5800  -13.9924   27.5053 C   0  0  0  0  0  0  0  0  0  0  0  0
    8.0739  -15.1239   27.3348 O   0  0  0  0  0  0  0  0  0  0  0  0
    9.5200  -13.8191   28.5000 O   0  0  0  0  0  0  0  0  0  0  0  0
  2  3  1  0
  2  1  1  1
  4  5  2  0
  4  2  1  0
  6  4  1  0
  7  6  1  0
  7 14  1  0
  7  8  1  6
  9  8  1  0
 10  9  2  0
 11 10  1  0
 12 11  1  0
 12 13  2  0
 13  9  1  0
 14 16  1  0
 15 14  2  0
 16 17  1  0
 16 20  1  0
 17 18  1  0
 19 18  1  0
 20 19  1  0
 20 21  1  1
 21 22  2  0
 21 23  1  0
M  END
$$$$
