AHP.pdb
     RDKit          3D

 23 24  0  0  1  0  0  0  0  0999 V2000
    8.7167  -12.7621   19.8237 C   0  0  0  0  0  0  0  0  0  0  0  0
    8.0744  -14.1184   19.8049 C   0  0  2  0  0  0  0  0  0  0  0  0
    7.1757  -14.2698   18.6747 N   0  0  0  0  0  0  0  0  0  0  0  0
    7.3655  -14.4310   21.0815 C   0  0  0  0  0  0  0  0  0  0  0  0
    6.1239  -14.2818   21.2161 O   0  0  0  0  0  0  0  0  0  0  0  0
    8.1044  -14.9056   22.1649 N   0  0  0  0  0  0  0  0  0  0  0  0
    7.4632  -15.2934   23.4613 C   0  0  1  0  0  0  0  0  0  0  0  0
    7.7178  -16.8109   23.4365 C   0  0  0  0  0  0  0  0  0  0  0  0
    7.3969  -17.5371   24.6359 C   0  0  0  0  0  0  0  0  0  0  0  0
    6.7990  -17.0281   25.7676 C   0  0  0  0  0  0  0  0  0  0  0  0
    6.6598  -17.9903   26.7155 N   0  0  0  0  0  0  0  0  0  0  0  0
    7.1714  -19.1135   26.1831 C   0  0  0  0  0  0  0  0  0  0  0  0
    7.6138  -18.8514   24.9412 N   0  0  0  0  0  0  0  0  0  0  0  0
    8.2519  -14.6025   24.4956 C   0  0  0  0  0  0  0  0  0  0  0  0
    9.4882  -14.9542   24.6070 O   0  0  0  0  0  0  0  0  0  0  0  0
    7.7483  -13.5912   25.3543 N   0  0  0  0  0  0  0  0  0  0  0  0
    6.5105  -12.8860   25.2231 C   0  0  0  0  0  0  0  0  0  0  0  0
    6.0937  -12.6863   26.6779 C   0  0  0  0  0  0  0  0  0  0  0  0
    7.4228  -12.1616   27.2379 C   0  0  0  0  0  0  0  0  0  0  0  0
    8.3974  -13.0496   26.5408 C   0  0  1  0  0  0  0  0  0  0  0  0
    8.8517  -14.0911   27.4839 C   0  0  0  0  0  0  0  0  0  0  0  0
    8.3272  -15.2249   27.4136 O   0  0  0  0  0  0  0  0  0  0  0  0
    9.8264  -13.8586   28.4319 O   0  0  0  0  0  0  0  0  0  0  0  0
  2  3  1  0
  2  1  1  1
  4  5  2  0
  4  2  1  0
  6  4  1  0
  7  6  1  0
  7 14  1  0
  7  8  1  1
  9  8  1  0
 10  9  2  0
 11 10  1  0
 12 11  1  0
 12 13  2  0
 13  9  1  0
 14 16  1  0
 15 14  2  0
 16 17  1  0
 16 20  1  0
 17 18  1  0
 19 18  1  0
 20 19  1  0
 20 21  1  1
 21 22  2  0
 21 23  1  0
M  END
$$$$
