AHP.pdb
     RDKit          3D

 23 24  0  0  1  0  0  0  0  0999 V2000
    9.4345  -12.6465   19.8283 C   0  0  0  0  0  0  0  0  0  0  0  0
    8.5625  -13.8573   19.6667 C   0  0  2  0  0  0  0  0  0  0  0  0
    7.6885  -13.7379   18.5134 N   0  0  0  0  0  0  0  0  0  0  0  0
    7.7680  -14.1554   20.8955 C   0  0  0  0  0  0  0  0  0  0  0  0
    6.5710  -13.7928   21.0277 O   0  0  0  0  0  0  0  0  0  0  0  0
    8.3728  -14.8613   21.9351 N   0  0  0  0  0  0  0  0  0  0  0  0
    7.6360  -15.2305   23.1853 C   0  0  1  0  0  0  0  0  0  0  0  0
    7.7990  -16.7603   23.1440 C   0  0  0  0  0  0  0  0  0  0  0  0
    7.4661  -17.4757   24.3466 C   0  0  0  0  0  0  0  0  0  0  0  0
    6.2296  -17.5340   24.9506 C   0  0  0  0  0  0  0  0  0  0  0  0
    6.2777  -18.2867   26.0797 N   0  0  0  0  0  0  0  0  0  0  0  0
    7.5495  -18.7073   26.1921 C   0  0  0  0  0  0  0  0  0  0  0  0
    8.2658  -18.2273   25.1611 N   0  0  0  0  0  0  0  0  0  0  0  0
    8.4046  -14.6072   24.2761 C   0  0  0  0  0  0  0  0  0  0  0  0
    9.6350  -14.9762   24.3968 O   0  0  0  0  0  0  0  0  0  0  0  0
    7.8881  -13.6420   25.1791 N   0  0  0  0  0  0  0  0  0  0  0  0
    6.6700  -12.9033   25.0482 C   0  0  0  0  0  0  0  0  0  0  0  0
    6.2019  -12.7877   26.4964 C   0  0  0  0  0  0  0  0  0  0  0  0
    7.5185  -12.3286   27.1377 C   0  0  0  0  0  0  0  0  0  0  0  0
    8.5018  -13.1913   26.4212 C   0  0  1  0  0  0  0  0  0  0  0  0
    8.8996  -14.3004   27.3112 C   0  0  0  0  0  0  0  0  0  0  0  0
    9.7451  -14.0706   28.2043 O   0  0  0  0  0  0  0  0  0  0  0  0
    8.3750  -15.5707   27.1925 O   0  0  0  0  0  0  0  0  0  0  0  0
  2  3  1  0
  2  1  1  1
  4  5  2  0
  4  2  1  0
  6  4  1  0
  7  6  1  0
  7 14  1  0
  7  8  1  1
  9  8  1  0
 10  9  2  0
 11 10  1  0
 12 11  1  0
 12 13  2  0
 13  9  1  0
 14 16  1  0
 15 14  2  0
 16 17  1  0
 16 20  1  0
 17 18  1  0
 19 18  1  0
 20 19  1  0
 20 21  1  1
 21 22  2  0
 21 23  1  0
M  END
$$$$
