AHP.pdb
     RDKit          3D

 23 24  0  0  1  0  0  0  0  0999 V2000
    8.6850  -12.7207   19.7777 C   0  0  0  0  0  0  0  0  0  0  0  0
    8.3950  -14.1797   19.9771 C   0  0  2  0  0  0  0  0  0  0  0  0
    7.6815  -14.7436   18.8453 N   0  0  0  0  0  0  0  0  0  0  0  0
    7.6543  -14.4452   21.2463 C   0  0  0  0  0  0  0  0  0  0  0  0
    6.4006  -14.3787   21.3206 O   0  0  0  0  0  0  0  0  0  0  0  0
    8.3764  -14.7791   22.3917 N   0  0  0  0  0  0  0  0  0  0  0  0
    7.7080  -15.2037   23.6626 C   0  0  1  0  0  0  0  0  0  0  0  0
    7.9859  -16.7165   23.6126 C   0  0  0  0  0  0  0  0  0  0  0  0
    7.1100  -17.5049   22.7880 C   0  0  0  0  0  0  0  0  0  0  0  0
    5.7458  -17.6331   22.9290 C   0  0  0  0  0  0  0  0  0  0  0  0
    5.2386  -18.4692   21.9869 N   0  0  0  0  0  0  0  0  0  0  0  0
    6.2849  -18.8727   21.2458 C   0  0  0  0  0  0  0  0  0  0  0  0
    7.4063  -18.3014   21.7176 N   0  0  0  0  0  0  0  0  0  0  0  0
    8.4595  -14.5237   24.7313 C   0  0  0  0  0  0  0  0  0  0  0  0
    9.6992  -14.8557   24.8637 O   0  0  0  0  0  0  0  0  0  0  0  0
    7.9174  -13.5425   25.6014 N   0  0  0  0  0  0  0  0  0  0  0  0
    6.7145  -12.7916   25.4118 C   0  0  0  0  0  0  0  0  0  0  0  0
    6.1881  -12.6543   26.8379 C   0  0  0  0  0  0  0  0  0  0  0  0
    7.4823  -12.2027   27.5284 C   0  0  0  0  0  0  0  0  0  0  0  0
    8.4842  -13.0846   26.8630 C   0  0  1  0  0  0  0  0  0  0  0  0
    8.8317  -14.1878   27.7808 C   0  0  0  0  0  0  0  0  0  0  0  0
    8.2832  -15.2989   27.6077 O   0  0  0  0  0  0  0  0  0  0  0  0
    9.7329  -14.0364   28.8143 O   0  0  0  0  0  0  0  0  0  0  0  0
  2  3  1  0
  2  1  1  6
  4  5  2  0
  4  2  1  0
  6  4  1  0
  7  6  1  0
  7 14  1  0
  7  8  1  1
  9  8  1  0
 10  9  2  0
 11 10  1  0
 12 11  1  0
 12 13  2  0
 13  9  1  0
 14 16  1  0
 15 14  2  0
 16 17  1  0
 16 20  1  0
 17 18  1  0
 19 18  1  0
 20 19  1  0
 20 21  1  1
 21 22  2  0
 21 23  1  0
M  END
$$$$
