AHP.pdb
     RDKit          3D

 23 24  0  0  1  0  0  0  0  0999 V2000
    8.2318  -13.0368   19.3016 C   0  0  0  0  0  0  0  0  0  0  0  0
    8.7059  -14.1887   20.1387 C   0  0  2  0  0  0  0  0  0  0  0  0
    8.7927  -15.4137   19.3641 N   0  0  0  0  0  0  0  0  0  0  0  0
    7.8611  -14.3970   21.3524 C   0  0  0  0  0  0  0  0  0  0  0  0
    6.6746  -13.9862   21.4253 O   0  0  0  0  0  0  0  0  0  0  0  0
    8.4051  -15.0708   22.4455 N   0  0  0  0  0  0  0  0  0  0  0  0
    7.6137  -15.3534   23.6849 C   0  0  1  0  0  0  0  0  0  0  0  0
    7.7198  -16.8884   23.7197 C   0  0  0  0  0  0  0  0  0  0  0  0
    6.7405  -17.6186   22.9603 C   0  0  0  0  0  0  0  0  0  0  0  0
    5.7405  -17.0815   22.1799 C   0  0  0  0  0  0  0  0  0  0  0  0
    4.9867  -18.0611   21.6179 N   0  0  0  0  0  0  0  0  0  0  0  0
    5.5105  -19.2236   22.0435 C   0  0  0  0  0  0  0  0  0  0  0  0
    6.5582  -18.9682   22.8456 N   0  0  0  0  0  0  0  0  0  0  0  0
    8.3689  -14.7077   24.7720 C   0  0  0  0  0  0  0  0  0  0  0  0
    9.5749  -15.1252   24.9617 O   0  0  0  0  0  0  0  0  0  0  0  0
    7.8649  -13.6725   25.6015 N   0  0  0  0  0  0  0  0  0  0  0  0
    6.6865  -12.8907   25.3853 C   0  0  0  0  0  0  0  0  0  0  0  0
    6.1736  -12.6748   26.8067 C   0  0  0  0  0  0  0  0  0  0  0  0
    7.4862  -12.2376   27.4710 C   0  0  0  0  0  0  0  0  0  0  0  0
    8.4543  -13.1801   26.8396 C   0  0  1  0  0  0  0  0  0  0  0  0
    8.7705  -14.2540   27.8025 C   0  0  0  0  0  0  0  0  0  0  0  0
    8.1870  -15.3537   27.6778 O   0  0  0  0  0  0  0  0  0  0  0  0
    9.6798  -14.0874   28.8265 O   0  0  0  0  0  0  0  0  0  0  0  0
  2  3  1  0
  2  1  1  6
  4  5  2  0
  4  2  1  0
  6  4  1  0
  7  6  1  0
  7 14  1  0
  7  8  1  1
  9  8  1  0
 10  9  2  0
 11 10  1  0
 12 11  1  0
 12 13  2  0
 13  9  1  0
 14 16  1  0
 15 14  2  0
 16 17  1  0
 16 20  1  0
 17 18  1  0
 19 18  1  0
 20 19  1  0
 20 21  1  1
 21 22  2  0
 21 23  1  0
M  END
$$$$
