AHP.pdb
     RDKit          3D

 23 24  0  0  1  0  0  0  0  0999 V2000
   11.6758  -18.0042   22.9576 C   0  0  0  0  0  0  0  0  0  0  0  0
   11.0707  -17.2350   21.8199 C   0  0  2  0  0  0  0  0  0  0  0  0
   12.0114  -17.0665   20.7269 N   0  0  0  0  0  0  0  0  0  0  0  0
   10.5285  -15.9120   22.2510 C   0  0  0  0  0  0  0  0  0  0  0  0
   11.2466  -14.8822   22.3257 O   0  0  0  0  0  0  0  0  0  0  0  0
    9.1777  -15.8122   22.5832 N   0  0  0  0  0  0  0  0  0  0  0  0
    8.5635  -14.5313   23.0566 C   0  0  1  0  0  0  0  0  0  0  0  0
    7.3035  -14.5023   22.1735 C   0  0  0  0  0  0  0  0  0  0  0  0
    7.5058  -14.2535   20.7713 C   0  0  0  0  0  0  0  0  0  0  0  0
    8.0338  -13.1125   20.2086 C   0  0  0  0  0  0  0  0  0  0  0  0
    8.0657  -13.2111   18.8547 N   0  0  0  0  0  0  0  0  0  0  0  0
    7.5561  -14.4190   18.5577 C   0  0  0  0  0  0  0  0  0  0  0  0
    7.2192  -15.0479   19.6968 N   0  0  0  0  0  0  0  0  0  0  0  0
    8.2549  -14.7618   24.4781 C   0  0  0  0  0  0  0  0  0  0  0  0
    8.3746  -15.9739   24.9037 O   0  0  0  0  0  0  0  0  0  0  0  0
    7.8489  -13.7534   25.3903 N   0  0  0  0  0  0  0  0  0  0  0  0
    7.6194  -12.3712   25.1019 C   0  0  0  0  0  0  0  0  0  0  0  0
    6.4571  -12.0331   26.0318 C   0  0  0  0  0  0  0  0  0  0  0  0
    7.0013  -12.6477   27.3285 C   0  0  0  0  0  0  0  0  0  0  0  0
    7.5972  -13.9153   26.8162 C   0  0  1  0  0  0  0  0  0  0  0  0
    6.6801  -15.0310   27.1236 C   0  0  0  0  0  0  0  0  0  0  0  0
    5.8230  -15.3474   26.2689 O   0  0  0  0  0  0  0  0  0  0  0  0
    6.7357  -15.7305   28.3113 O   0  0  0  0  0  0  0  0  0  0  0  0
  2  3  1  0
  2  1  1  1
  4  5  2  0
  4  2  1  0
  6  4  1  0
  7  6  1  0
  7 14  1  0
  7  8  1  6
  9  8  1  0
 10  9  2  0
 11 10  1  0
 12 11  1  0
 12 13  2  0
 13  9  1  0
 14 16  1  0
 15 14  2  0
 16 17  1  0
 16 20  1  0
 17 18  1  0
 19 18  1  0
 20 19  1  0
 20 21  1  6
 21 22  2  0
 21 23  1  0
M  END
$$$$
