AHP.pdb
     RDKit          3D

 23 24  0  0  1  0  0  0  0  0999 V2000
    9.3394  -12.6417   19.8856 C   0  0  0  0  0  0  0  0  0  0  0  0
    8.7247  -13.9999   19.7125 C   0  0  2  0  0  0  0  0  0  0  0  0
    8.0685  -14.1305   18.4240 N   0  0  0  0  0  0  0  0  0  0  0  0
    7.7799  -14.3427   20.8170 C   0  0  0  0  0  0  0  0  0  0  0  0
    6.5868  -14.6782   20.6025 O   0  0  0  0  0  0  0  0  0  0  0  0
    8.2343  -14.2898   22.1344 N   0  0  0  0  0  0  0  0  0  0  0  0
    7.4450  -14.8531   23.2754 C   0  0  1  0  0  0  0  0  0  0  0  0
    7.5449  -16.3536   22.9482 C   0  0  0  0  0  0  0  0  0  0  0  0
    6.4627  -16.9201   22.1888 C   0  0  0  0  0  0  0  0  0  0  0  0
    5.3316  -16.2631   21.7571 C   0  0  0  0  0  0  0  0  0  0  0  0
    4.5106  -17.1069   21.0806 N   0  0  0  0  0  0  0  0  0  0  0  0
    5.1232  -18.3034   21.0833 C   0  0  0  0  0  0  0  0  0  0  0  0
    6.2896  -18.2004   21.7432 N   0  0  0  0  0  0  0  0  0  0  0  0
    8.2057  -14.4834   24.4812 C   0  0  0  0  0  0  0  0  0  0  0  0
    9.3540  -15.0517   24.6338 O   0  0  0  0  0  0  0  0  0  0  0  0
    7.7658  -13.5560   25.4610 N   0  0  0  0  0  0  0  0  0  0  0  0
    6.6661  -12.6471   25.3560 C   0  0  0  0  0  0  0  0  0  0  0  0
    6.1283  -12.6201   26.7843 C   0  0  0  0  0  0  0  0  0  0  0  0
    7.4516  -12.4160   27.5345 C   0  0  0  0  0  0  0  0  0  0  0  0
    8.3553  -13.3262   26.7734 C   0  0  1  0  0  0  0  0  0  0  0  0
    8.5476  -14.5663   27.5516 C   0  0  0  0  0  0  0  0  0  0  0  0
    7.8397  -15.5590   27.2707 O   0  0  0  0  0  0  0  0  0  0  0  0
    9.4735  -14.6668   28.5693 O   0  0  0  0  0  0  0  0  0  0  0  0
  2  3  1  0
  2  1  1  1
  4  5  2  0
  4  2  1  0
  6  4  1  0
  7  6  1  0
  7 14  1  0
  7  8  1  6
  9  8  1  0
 10  9  2  0
 11 10  1  0
 12 11  1  0
 12 13  2  0
 13  9  1  0
 14 16  1  0
 15 14  2  0
 16 17  1  0
 16 20  1  0
 17 18  1  0
 19 18  1  0
 20 19  1  0
 20 21  1  1
 21 22  2  0
 21 23  1  0
M  END
$$$$
