AHP.pdb
     RDKit          3D

 23 24  0  0  1  0  0  0  0  0999 V2000
    8.5174  -12.7044   19.7237 C   0  0  0  0  0  0  0  0  0  0  0  0
    8.5438  -14.1839   19.9749 C   0  0  2  0  0  0  0  0  0  0  0  0
    8.1130  -14.9330   18.8081 N   0  0  0  0  0  0  0  0  0  0  0  0
    7.7399  -14.5732   21.1716 C   0  0  0  0  0  0  0  0  0  0  0  0
    6.5945  -15.0840   21.0761 O   0  0  0  0  0  0  0  0  0  0  0  0
    8.2762  -14.3639   22.4418 N   0  0  0  0  0  0  0  0  0  0  0  0
    7.6739  -14.9669   23.6730 C   0  0  1  0  0  0  0  0  0  0  0  0
    8.1150  -16.4301   23.4914 C   0  0  0  0  0  0  0  0  0  0  0  0
    7.1404  -17.3323   22.9391 C   0  0  0  0  0  0  0  0  0  0  0  0
    5.8572  -17.0160   22.5509 C   0  0  0  0  0  0  0  0  0  0  0  0
    5.2070  -18.1147   22.0884 N   0  0  0  0  0  0  0  0  0  0  0  0
    6.0811  -19.1315   22.1838 C   0  0  0  0  0  0  0  0  0  0  0  0
    7.2382  -18.6727   22.6909 N   0  0  0  0  0  0  0  0  0  0  0  0
    8.3596  -14.3026   24.7945 C   0  0  0  0  0  0  0  0  0  0  0  0
    9.6009  -14.6070   24.9714 O   0  0  0  0  0  0  0  0  0  0  0  0
    7.7539  -13.3639   25.6695 N   0  0  0  0  0  0  0  0  0  0  0  0
    6.5217  -12.6661   25.4667 C   0  0  0  0  0  0  0  0  0  0  0  0
    5.9592  -12.5798   26.8831 C   0  0  0  0  0  0  0  0  0  0  0  0
    7.2160  -12.0819   27.6098 C   0  0  0  0  0  0  0  0  0  0  0  0
    8.2719  -12.9039   26.9512 C   0  0  1  0  0  0  0  0  0  0  0  0
    8.6509  -14.0068   27.8570 C   0  0  0  0  0  0  0  0  0  0  0  0
    8.1524  -15.1368   27.6570 O   0  0  0  0  0  0  0  0  0  0  0  0
    9.5285  -13.8351   28.9074 O   0  0  0  0  0  0  0  0  0  0  0  0
  2  3  1  0
  2  1  1  6
  4  5  2  0
  4  2  1  0
  6  4  1  0
  7  6  1  0
  7 14  1  0
  7  8  1  6
  9  8  1  0
 10  9  2  0
 11 10  1  0
 12 11  1  0
 12 13  2  0
 13  9  1  0
 14 16  1  0
 15 14  2  0
 16 17  1  0
 16 20  1  0
 17 18  1  0
 19 18  1  0
 20 19  1  0
 20 21  1  1
 21 22  2  0
 21 23  1  0
M  END
$$$$
