AHP.pdb
     RDKit          3D

 23 24  0  0  1  0  0  0  0  0999 V2000
    9.0609  -12.3412   19.6712 C   0  0  0  0  0  0  0  0  0  0  0  0
    8.6648  -13.7872   19.7410 C   0  0  2  0  0  0  0  0  0  0  0  0
    7.9656  -14.2095   18.5406 N   0  0  0  0  0  0  0  0  0  0  0  0
    7.8526  -14.0976   20.9551 C   0  0  0  0  0  0  0  0  0  0  0  0
    6.6024  -13.9638   20.9810 O   0  0  0  0  0  0  0  0  0  0  0  0
    8.5015  -14.5525   22.1027 N   0  0  0  0  0  0  0  0  0  0  0  0
    7.7526  -15.0341   23.3065 C   0  0  1  0  0  0  0  0  0  0  0  0
    8.0517  -16.5411   23.2161 C   0  0  0  0  0  0  0  0  0  0  0  0
    7.2908  -17.2916   22.2536 C   0  0  0  0  0  0  0  0  0  0  0  0
    6.0149  -17.0104   21.8173 C   0  0  0  0  0  0  0  0  0  0  0  0
    5.5962  -17.9369   20.9173 N   0  0  0  0  0  0  0  0  0  0  0  0
    6.6102  -18.8090   20.7825 C   0  0  0  0  0  0  0  0  0  0  0  0
    7.6261  -18.4308   21.5771 N   0  0  0  0  0  0  0  0  0  0  0  0
    8.4206  -14.3908   24.4507 C   0  0  0  0  0  0  0  0  0  0  0  0
    9.6675  -14.6743   24.6228 O   0  0  0  0  0  0  0  0  0  0  0  0
    7.7925  -13.4926   25.3521 N   0  0  0  0  0  0  0  0  0  0  0  0
    6.5609  -12.7924   25.1540 C   0  0  0  0  0  0  0  0  0  0  0  0
    5.9697  -12.7686   26.5610 C   0  0  0  0  0  0  0  0  0  0  0  0
    7.2090  -12.2962   27.3334 C   0  0  0  0  0  0  0  0  0  0  0  0
    8.2822  -13.0848   26.6623 C   0  0  1  0  0  0  0  0  0  0  0  0
    8.6489  -14.2234   27.5282 C   0  0  0  0  0  0  0  0  0  0  0  0
    8.1493  -15.3431   27.2794 O   0  0  0  0  0  0  0  0  0  0  0  0
    9.5161  -14.0954   28.5933 O   0  0  0  0  0  0  0  0  0  0  0  0
  2  3  1  0
  2  1  1  6
  4  5  2  0
  4  2  1  0
  6  4  1  0
  7  6  1  0
  7 14  1  0
  7  8  1  1
  9  8  1  0
 10  9  2  0
 11 10  1  0
 12 11  1  0
 12 13  2  0
 13  9  1  0
 14 16  1  0
 15 14  2  0
 16 17  1  0
 16 20  1  0
 17 18  1  0
 19 18  1  0
 20 19  1  0
 20 21  1  1
 21 22  2  0
 21 23  1  0
M  END
$$$$
