AHP.pdb
     RDKit          3D

 23 24  0  0  1  0  0  0  0  0999 V2000
   12.0359  -16.7867   20.5051 C   0  0  0  0  0  0  0  0  0  0  0  0
   11.1926  -17.0699   21.7138 C   0  0  2  0  0  0  0  0  0  0  0  0
   10.1459  -18.0331   21.4229 N   0  0  0  0  0  0  0  0  0  0  0  0
   10.6104  -15.8287   22.3060 C   0  0  0  0  0  0  0  0  0  0  0  0
   11.3110  -14.8207   22.5797 O   0  0  0  0  0  0  0  0  0  0  0  0
    9.2410  -15.7832   22.5657 N   0  0  0  0  0  0  0  0  0  0  0  0
    8.5567  -14.5352   23.0309 C   0  0  1  0  0  0  0  0  0  0  0  0
    7.3082  -14.5697   22.1317 C   0  0  0  0  0  0  0  0  0  0  0  0
    7.5177  -14.3256   20.7298 C   0  0  0  0  0  0  0  0  0  0  0  0
    7.9045  -13.1359   20.1532 C   0  0  0  0  0  0  0  0  0  0  0  0
    7.9905  -13.2578   18.8036 N   0  0  0  0  0  0  0  0  0  0  0  0
    7.6570  -14.5294   18.5232 C   0  0  0  0  0  0  0  0  0  0  0  0
    7.3732  -15.1739   19.6681 N   0  0  0  0  0  0  0  0  0  0  0  0
    8.2419  -14.7816   24.4484 C   0  0  0  0  0  0  0  0  0  0  0  0
    8.3155  -16.0056   24.8498 O   0  0  0  0  0  0  0  0  0  0  0  0
    7.8769  -13.7765   25.3812 N   0  0  0  0  0  0  0  0  0  0  0  0
    7.7422  -12.3746   25.1301 C   0  0  0  0  0  0  0  0  0  0  0  0
    6.5800  -11.9905   26.0420 C   0  0  0  0  0  0  0  0  0  0  0  0
    7.0510  -12.6761   27.3318 C   0  0  0  0  0  0  0  0  0  0  0  0
    7.5789  -13.9636   26.7951 C   0  0  1  0  0  0  0  0  0  0  0  0
    6.5859  -15.0272   27.0461 C   0  0  0  0  0  0  0  0  0  0  0  0
    5.7488  -15.2807   26.1515 O   0  0  0  0  0  0  0  0  0  0  0  0
    6.5499  -15.7448   28.2237 O   0  0  0  0  0  0  0  0  0  0  0  0
  2  3  1  0
  2  1  1  6
  4  5  2  0
  4  2  1  0
  6  4  1  0
  7  6  1  0
  7 14  1  0
  7  8  1  6
  9  8  1  0
 10  9  2  0
 11 10  1  0
 12 11  1  0
 12 13  2  0
 13  9  1  0
 14 16  1  0
 15 14  2  0
 16 17  1  0
 16 20  1  0
 17 18  1  0
 19 18  1  0
 20 19  1  0
 20 21  1  6
 21 22  2  0
 21 23  1  0
M  END
$$$$
