AHP.pdb
     RDKit          3D

 23 24  0  0  1  0  0  0  0  0999 V2000
    8.9998  -12.5918   19.6935 C   0  0  0  0  0  0  0  0  0  0  0  0
    8.5398  -14.0168   19.5919 C   0  0  2  0  0  0  0  0  0  0  0  0
    7.8280  -14.2627   18.3505 N   0  0  0  0  0  0  0  0  0  0  0  0
    7.7092  -14.4322   20.7613 C   0  0  0  0  0  0  0  0  0  0  0  0
    6.4919  -14.7285   20.6511 O   0  0  0  0  0  0  0  0  0  0  0  0
    8.3023  -14.4947   22.0219 N   0  0  0  0  0  0  0  0  0  0  0  0
    7.5669  -14.9926   23.2275 C   0  0  1  0  0  0  0  0  0  0  0  0
    7.7817  -16.5072   23.0591 C   0  0  0  0  0  0  0  0  0  0  0  0
    7.4331  -17.3355   24.1821 C   0  0  0  0  0  0  0  0  0  0  0  0
    6.1984  -17.4202   24.7868 C   0  0  0  0  0  0  0  0  0  0  0  0
    6.2291  -18.2892   25.8297 N   0  0  0  0  0  0  0  0  0  0  0  0
    7.4879  -18.7573   25.8866 C   0  0  0  0  0  0  0  0  0  0  0  0
    8.2134  -18.1927   24.9060 N   0  0  0  0  0  0  0  0  0  0  0  0
    8.3042  -14.4393   24.3762 C   0  0  0  0  0  0  0  0  0  0  0  0
    9.5340  -14.8085   24.5024 O   0  0  0  0  0  0  0  0  0  0  0  0
    7.7588  -13.5395   25.3285 N   0  0  0  0  0  0  0  0  0  0  0  0
    6.4675  -12.9248   25.2933 C   0  0  0  0  0  0  0  0  0  0  0  0
    6.0920  -12.8710   26.7719 C   0  0  0  0  0  0  0  0  0  0  0  0
    7.3982  -12.2893   27.3296 C   0  0  0  0  0  0  0  0  0  0  0  0
    8.4097  -13.0424   26.5333 C   0  0  1  0  0  0  0  0  0  0  0  0
    8.9761  -14.1151   27.3753 C   0  0  0  0  0  0  0  0  0  0  0  0
    9.8830  -13.8182   28.1844 O   0  0  0  0  0  0  0  0  0  0  0  0
    8.5429  -15.4227   27.3007 O   0  0  0  0  0  0  0  0  0  0  0  0
  2  3  1  0
  2  1  1  1
  4  5  2  0
  4  2  1  0
  6  4  1  0
  7  6  1  0
  7 14  1  0
  7  8  1  1
  9  8  1  0
 10  9  2  0
 11 10  1  0
 12 11  1  0
 12 13  2  0
 13  9  1  0
 14 16  1  0
 15 14  2  0
 16 17  1  0
 16 20  1  0
 17 18  1  0
 19 18  1  0
 20 19  1  0
 20 21  1  1
 21 22  2  0
 21 23  1  0
M  END
$$$$
