AHP.pdb
     RDKit          3D

 23 24  0  0  1  0  0  0  0  0999 V2000
    8.3870  -13.2124   19.7917 C   0  0  0  0  0  0  0  0  0  0  0  0
    8.1050  -14.6651   20.0421 C   0  0  2  0  0  0  0  0  0  0  0  0
    7.4011  -15.2739   18.9277 N   0  0  0  0  0  0  0  0  0  0  0  0
    7.3593  -14.8895   21.3163 C   0  0  0  0  0  0  0  0  0  0  0  0
    6.1296  -15.1522   21.3393 O   0  0  0  0  0  0  0  0  0  0  0  0
    8.0490  -14.8054   22.5255 N   0  0  0  0  0  0  0  0  0  0  0  0
    7.4292  -15.2048   23.8287 C   0  0  1  0  0  0  0  0  0  0  0  0
    7.7392  -16.7122   23.8158 C   0  0  0  0  0  0  0  0  0  0  0  0
    7.5712  -17.4145   25.0597 C   0  0  0  0  0  0  0  0  0  0  0  0
    8.5157  -17.5646   26.0510 C   0  0  0  0  0  0  0  0  0  0  0  0
    8.0234  -18.2998   27.0809 N   0  0  0  0  0  0  0  0  0  0  0  0
    6.7621  -18.6173   26.7416 C   0  0  0  0  0  0  0  0  0  0  0  0
    6.4842  -18.0924   25.5358 N   0  0  0  0  0  0  0  0  0  0  0  0
    8.1974  -14.4763   24.8526 C   0  0  0  0  0  0  0  0  0  0  0  0
    9.4710  -14.6819   24.8709 O   0  0  0  0  0  0  0  0  0  0  0  0
    7.6360  -13.5767   25.7956 N   0  0  0  0  0  0  0  0  0  0  0  0
    6.3124  -13.0341   25.7878 C   0  0  0  0  0  0  0  0  0  0  0  0
    5.9850  -12.9525   27.2764 C   0  0  0  0  0  0  0  0  0  0  0  0
    7.2754  -12.2831   27.7689 C   0  0  0  0  0  0  0  0  0  0  0  0
    8.2992  -13.0060   26.9605 C   0  0  1  0  0  0  0  0  0  0  0  0
    8.9521  -14.0185   27.8143 C   0  0  0  0  0  0  0  0  0  0  0  0
    8.5904  -15.2110   27.7032 O   0  0  0  0  0  0  0  0  0  0  0  0
    9.9392  -13.6970   28.7228 O   0  0  0  0  0  0  0  0  0  0  0  0
  2  3  1  0
  2  1  1  6
  4  5  2  0
  4  2  1  0
  6  4  1  0
  7  6  1  0
  7 14  1  0
  7  8  1  1
  9  8  1  0
 10  9  2  0
 11 10  1  0
 12 11  1  0
 12 13  2  0
 13  9  1  0
 14 16  1  0
 15 14  2  0
 16 17  1  0
 16 20  1  0
 17 18  1  0
 19 18  1  0
 20 19  1  0
 20 21  1  1
 21 22  2  0
 21 23  1  0
M  END
$$$$
