AHP.pdb
     RDKit          3D

 23 24  0  0  1  0  0  0  0  0999 V2000
    8.7635  -12.5164   19.8582 C   0  0  0  0  0  0  0  0  0  0  0  0
    8.3822  -13.9644   19.7561 C   0  0  2  0  0  0  0  0  0  0  0  0
    7.6453  -14.2394   18.5356 N   0  0  0  0  0  0  0  0  0  0  0  0
    7.6152  -14.4370   20.9470 C   0  0  0  0  0  0  0  0  0  0  0  0
    6.3774  -14.6566   20.9069 O   0  0  0  0  0  0  0  0  0  0  0  0
    8.2934  -14.6431   22.1480 N   0  0  0  0  0  0  0  0  0  0  0  0
    7.6008  -15.1269   23.3843 C   0  0  1  0  0  0  0  0  0  0  0  0
    7.8071  -16.6436   23.2243 C   0  0  0  0  0  0  0  0  0  0  0  0
    7.4928  -17.4598   24.3662 C   0  0  0  0  0  0  0  0  0  0  0  0
    6.2683  -18.0151   24.6654 C   0  0  0  0  0  0  0  0  0  0  0  0
    6.3250  -18.7136   25.8284 N   0  0  0  0  0  0  0  0  0  0  0  0
    7.5901  -18.6007   26.2685 C   0  0  0  0  0  0  0  0  0  0  0  0
    8.2941  -17.8535   25.4010 N   0  0  0  0  0  0  0  0  0  0  0  0
    8.3795  -14.5629   24.5000 C   0  0  0  0  0  0  0  0  0  0  0  0
    9.5957  -14.9768   24.6199 O   0  0  0  0  0  0  0  0  0  0  0  0
    7.8872  -13.6083   25.4273 N   0  0  0  0  0  0  0  0  0  0  0  0
    6.6585  -12.8802   25.3453 C   0  0  0  0  0  0  0  0  0  0  0  0
    6.2420  -12.7780   26.8102 C   0  0  0  0  0  0  0  0  0  0  0  0
    7.5767  -12.3106   27.4065 C   0  0  0  0  0  0  0  0  0  0  0  0
    8.5413  -13.1595   26.6494 C   0  0  1  0  0  0  0  0  0  0  0  0
    8.9811  -14.2703   27.5172 C   0  0  0  0  0  0  0  0  0  0  0  0
    9.8454  -14.0347   28.3907 O   0  0  0  0  0  0  0  0  0  0  0  0
    8.4759  -15.5485   27.3986 O   0  0  0  0  0  0  0  0  0  0  0  0
  2  3  1  0
  2  1  1  1
  4  5  2  0
  4  2  1  0
  6  4  1  0
  7  6  1  0
  7 14  1  0
  7  8  1  1
  9  8  1  0
 10  9  2  0
 11 10  1  0
 12 11  1  0
 12 13  2  0
 13  9  1  0
 14 16  1  0
 15 14  2  0
 16 17  1  0
 16 20  1  0
 17 18  1  0
 19 18  1  0
 20 19  1  0
 20 21  1  1
 21 22  2  0
 21 23  1  0
M  END
$$$$
