AHP.pdb
     RDKit          3D

 23 24  0  0  1  0  0  0  0  0999 V2000
    8.5251  -12.9979   19.7934 C   0  0  0  0  0  0  0  0  0  0  0  0
    8.2132  -14.4617   19.9061 C   0  0  2  0  0  0  0  0  0  0  0  0
    7.5577  -14.9632   18.7116 N   0  0  0  0  0  0  0  0  0  0  0  0
    7.4027  -14.7799   21.1194 C   0  0  0  0  0  0  0  0  0  0  0  0
    6.2726  -15.3274   21.0495 O   0  0  0  0  0  0  0  0  0  0  0  0
    7.9152  -14.4595   22.3762 N   0  0  0  0  0  0  0  0  0  0  0  0
    7.3270  -15.0028   23.6415 C   0  0  1  0  0  0  0  0  0  0  0  0
    7.5897  -16.5043   23.4295 C   0  0  0  0  0  0  0  0  0  0  0  0
    7.2890  -17.3728   24.5360 C   0  0  0  0  0  0  0  0  0  0  0  0
    6.7577  -16.9995   25.7508 C   0  0  0  0  0  0  0  0  0  0  0  0
    6.6191  -18.0743   26.5689 N   0  0  0  0  0  0  0  0  0  0  0  0
    7.0641  -19.1331   25.8703 C   0  0  0  0  0  0  0  0  0  0  0  0
    7.4660  -18.7227   24.6552 N   0  0  0  0  0  0  0  0  0  0  0  0
    8.1509  -14.4292   24.7191 C   0  0  0  0  0  0  0  0  0  0  0  0
    9.3566  -14.8768   24.8218 O   0  0  0  0  0  0  0  0  0  0  0  0
    7.7118  -13.4315   25.6277 N   0  0  0  0  0  0  0  0  0  0  0  0
    6.5151  -12.6524   25.5409 C   0  0  0  0  0  0  0  0  0  0  0  0
    6.1209  -12.4964   27.0073 C   0  0  0  0  0  0  0  0  0  0  0  0
    7.4818  -12.0737   27.5774 C   0  0  0  0  0  0  0  0  0  0  0  0
    8.3993  -12.9824   26.8312 C   0  0  1  0  0  0  0  0  0  0  0  0
    8.8005  -14.0900   27.7215 C   0  0  0  0  0  0  0  0  0  0  0  0
    8.2466  -15.2019   27.5720 O   0  0  0  0  0  0  0  0  0  0  0  0
    9.7571  -13.9419   28.7043 O   0  0  0  0  0  0  0  0  0  0  0  0
  2  3  1  0
  2  1  1  6
  4  5  2  0
  4  2  1  0
  6  4  1  0
  7  6  1  0
  7 14  1  0
  7  8  1  6
  9  8  1  0
 10  9  2  0
 11 10  1  0
 12 11  1  0
 12 13  2  0
 13  9  1  0
 14 16  1  0
 15 14  2  0
 16 17  1  0
 16 20  1  0
 17 18  1  0
 19 18  1  0
 20 19  1  0
 20 21  1  1
 21 22  2  0
 21 23  1  0
M  END
$$$$
