AHP.pdb
     RDKit          3D

 23 24  0  0  1  0  0  0  0  0999 V2000
   12.4175  -16.0402   21.2597 C   0  0  0  0  0  0  0  0  0  0  0  0
   10.9646  -16.3665   21.0726 C   0  0  2  0  0  0  0  0  0  0  0  0
   10.4574  -15.8501   19.8139 N   0  0  0  0  0  0  0  0  0  0  0  0
   10.1225  -15.8899   22.2100 C   0  0  0  0  0  0  0  0  0  0  0  0
    9.6359  -14.7307   22.2479 O   0  0  0  0  0  0  0  0  0  0  0  0
    9.8648  -16.7595   23.2694 N   0  0  0  0  0  0  0  0  0  0  0  0
    8.9618  -16.3900   24.4053 C   0  0  1  0  0  0  0  0  0  0  0  0
    8.3402  -17.7657   24.7047 C   0  0  0  0  0  0  0  0  0  0  0  0
    7.6567  -17.9030   25.9628 C   0  0  0  0  0  0  0  0  0  0  0  0
    6.8350  -16.9701   26.5559 C   0  0  0  0  0  0  0  0  0  0  0  0
    6.3700  -17.4236   27.7483 N   0  0  0  0  0  0  0  0  0  0  0  0
    6.8988  -18.6485   27.9120 C   0  0  0  0  0  0  0  0  0  0  0  0
    7.6685  -18.9424   26.8501 N   0  0  0  0  0  0  0  0  0  0  0  0
    9.8655  -15.9310   25.4738 C   0  0  0  0  0  0  0  0  0  0  0  0
   10.9670  -16.5875   25.6172 O   0  0  0  0  0  0  0  0  0  0  0  0
    9.6079  -14.8311   26.3326 N   0  0  0  0  0  0  0  0  0  0  0  0
    8.5391  -13.8861   26.2268 C   0  0  0  0  0  0  0  0  0  0  0  0
    8.2168  -13.5937   27.6898 C   0  0  0  0  0  0  0  0  0  0  0  0
    9.6420  -13.3511   28.2051 C   0  0  0  0  0  0  0  0  0  0  0  0
   10.3906  -14.4267   27.4930 C   0  0  1  0  0  0  0  0  0  0  0  0
   10.6482  -15.5327   28.4369 C   0  0  0  0  0  0  0  0  0  0  0  0
   11.5313  -15.3749   29.3091 O   0  0  0  0  0  0  0  0  0  0  0  0
    9.9544  -16.7241   28.3901 O   0  0  0  0  0  0  0  0  0  0  0  0
  2  3  1  0
  2  1  1  1
  4  5  2  0
  4  2  1  0
  6  4  1  0
  7  6  1  0
  7 14  1  0
  7  8  1  1
  9  8  1  0
 10  9  2  0
 11 10  1  0
 12 11  1  0
 12 13  2  0
 13  9  1  0
 14 16  1  0
 15 14  2  0
 16 17  1  0
 16 20  1  0
 17 18  1  0
 19 18  1  0
 20 19  1  0
 20 21  1  1
 21 22  2  0
 21 23  1  0
M  END
$$$$
