PGP.pdb
     RDKit          3D

 19 20  0  0  1  0  0  0  0  0999 V2000
   26.2573  -21.8676  -15.1235 N   0  0  0  0  0  0  0  0  0  0  0  0
   25.4594  -22.8153  -15.9234 C   0  0  0  0  0  0  0  0  0  0  0  0
   24.2001  -22.9004  -15.0903 C   0  0  0  0  0  0  0  0  0  0  0  0
   23.9525  -21.4750  -14.6929 C   0  0  0  0  0  0  0  0  0  0  0  0
   25.3050  -20.8252  -14.7981 C   0  0  1  0  0  0  0  0  0  0  0  0
   25.6510  -20.1812  -13.5163 C   0  0  0  0  0  0  0  0  0  0  0  0
   24.8937  -19.2814  -13.0057 O   0  0  0  0  0  0  0  0  0  0  0  0
   26.8085  -20.4846  -12.7600 N   0  0  0  0  0  0  0  0  0  0  0  0
   27.0389  -19.8362  -11.4801 C   0  0  0  0  0  0  0  0  0  0  0  0
   26.4641  -20.6161  -10.3618 C   0  0  0  0  0  0  0  0  0  0  0  0
   25.7215  -21.6026  -10.6704 O   0  0  0  0  0  0  0  0  0  0  0  0
   26.7160  -20.2964   -9.0138 N   0  0  0  0  0  0  0  0  0  0  0  0
   27.7011  -19.2851   -8.6036 C   0  0  0  0  0  0  0  0  0  0  0  0
   27.9420  -19.5906   -7.1352 C   0  0  0  0  0  0  0  0  0  0  0  0
   26.5516  -20.0004   -6.7154 C   0  0  0  0  0  0  0  0  0  0  0  0
   26.0946  -20.8781   -7.8525 C   0  0  1  0  0  0  0  0  0  0  0  0
   24.6086  -20.9176   -7.9398 C   0  0  0  0  0  0  0  0  0  0  0  0
   24.0666  -20.0919   -8.7114 O   0  0  0  0  0  0  0  0  0  0  0  0
   23.8519  -21.8015   -7.2241 O   0  0  0  0  0  0  0  0  0  0  0  0
  1  2  1  0
  3  2  1  0
  4  5  1  0
  4  3  1  0
  5  1  1  0
  5  6  1  1
  7  6  2  0
  8  6  1  0
  9  8  1  0
 10  9  1  0
 10 12  1  0
 11 10  2  0
 12 16  1  0
 13 12  1  0
 13 14  1  0
 14 15  1  0
 16 17  1  6
 16 15  1  0
 17 19  1  0
 18 17  2  0
M  END
$$$$
