PGP.pdb
     RDKit          3D

 19 20  0  0  1  0  0  0  0  0999 V2000
   26.4554  -20.5303  -17.9780 N   0  0  0  0  0  0  0  0  0  0  0  0
   27.0617  -20.3494  -19.3101 C   0  0  0  0  0  0  0  0  0  0  0  0
   28.5134  -20.1490  -18.9366 C   0  0  0  0  0  0  0  0  0  0  0  0
   28.7401  -21.1781  -17.8686 C   0  0  0  0  0  0  0  0  0  0  0  0
   27.3650  -21.4476  -17.3219 C   0  0  1  0  0  0  0  0  0  0  0  0
   27.3580  -21.2372  -15.8614 C   0  0  0  0  0  0  0  0  0  0  0  0
   27.9672  -22.0473  -15.0762 O   0  0  0  0  0  0  0  0  0  0  0  0
   26.7014  -20.1624  -15.2152 N   0  0  0  0  0  0  0  0  0  0  0  0
   26.7565  -20.0325  -13.7689 C   0  0  0  0  0  0  0  0  0  0  0  0
   25.5807  -20.6533  -13.1198 C   0  0  0  0  0  0  0  0  0  0  0  0
   24.7574  -21.2583  -13.8787 O   0  0  0  0  0  0  0  0  0  0  0  0
   25.3666  -20.5877  -11.7297 N   0  0  0  0  0  0  0  0  0  0  0  0
   26.3635  -20.0496  -10.7926 C   0  0  0  0  0  0  0  0  0  0  0  0
   25.9074  -20.5717   -9.4410 C   0  0  0  0  0  0  0  0  0  0  0  0
   24.4104  -20.4918   -9.6144 C   0  0  0  0  0  0  0  0  0  0  0  0
   24.1978  -21.0220  -11.0094 C   0  0  1  0  0  0  0  0  0  0  0  0
   22.9261  -20.5120  -11.5923 C   0  0  0  0  0  0  0  0  0  0  0  0
   21.8971  -21.1980  -11.3890 O   0  0  0  0  0  0  0  0  0  0  0  0
   22.8593  -19.3554  -12.3163 O   0  0  0  0  0  0  0  0  0  0  0  0
  1  2  1  0
  3  2  1  0
  4  5  1  0
  4  3  1  0
  5  1  1  0
  5  6  1  1
  7  6  2  0
  8  6  1  0
  9  8  1  0
 10  9  1  0
 10 12  1  0
 11 10  2  0
 12 16  1  0
 13 12  1  0
 13 14  1  0
 14 15  1  0
 16 17  1  6
 16 15  1  0
 17 19  1  0
 18 17  2  0
M  END
$$$$
