PGP.pdb
     RDKit          3D

 19 20  0  0  1  0  0  0  0  0999 V2000
   26.7075  -21.2702  -15.4537 N   0  0  0  0  0  0  0  0  0  0  0  0
   25.7898  -22.0219  -16.3298 C   0  0  0  0  0  0  0  0  0  0  0  0
   24.5851  -22.1615  -15.4264 C   0  0  0  0  0  0  0  0  0  0  0  0
   24.4720  -20.8072  -14.7905 C   0  0  0  0  0  0  0  0  0  0  0  0
   25.8596  -20.2364  -14.8953 C   0  0  1  0  0  0  0  0  0  0  0  0
   26.3364  -19.8337  -13.5581 C   0  0  0  0  0  0  0  0  0  0  0  0
   25.7034  -18.9566  -12.8697 O   0  0  0  0  0  0  0  0  0  0  0  0
   27.4945  -20.3574  -12.9349 N   0  0  0  0  0  0  0  0  0  0  0  0
   27.8586  -19.9367  -11.5925 C   0  0  0  0  0  0  0  0  0  0  0  0
   27.1429  -20.7208  -10.5618 C   0  0  0  0  0  0  0  0  0  0  0  0
   26.4624  -21.7172  -10.9665 O   0  0  0  0  0  0  0  0  0  0  0  0
   27.2007  -20.3944   -9.1932 N   0  0  0  0  0  0  0  0  0  0  0  0
   28.1459  -19.4102   -8.6462 C   0  0  0  0  0  0  0  0  0  0  0  0
   28.1543  -19.7070   -7.1564 C   0  0  0  0  0  0  0  0  0  0  0  0
   26.7040  -20.0681   -6.9473 C   0  0  0  0  0  0  0  0  0  0  0  0
   26.3937  -20.9434   -8.1346 C   0  0  1  0  0  0  0  0  0  0  0  0
   24.9370  -20.9369   -8.4434 C   0  0  0  0  0  0  0  0  0  0  0  0
   24.5368  -20.0727   -9.2582 O   0  0  0  0  0  0  0  0  0  0  0  0
   24.0605  -21.8198   -7.8792 O   0  0  0  0  0  0  0  0  0  0  0  0
  1  2  1  0
  3  2  1  0
  4  5  1  0
  4  3  1  0
  5  1  1  0
  5  6  1  1
  7  6  2  0
  8  6  1  0
  9  8  1  0
 10  9  1  0
 10 12  1  0
 11 10  2  0
 12 16  1  0
 13 12  1  0
 13 14  1  0
 14 15  1  0
 16 17  1  6
 16 15  1  0
 17 19  1  0
 18 17  2  0
M  END
$$$$
