PGP.pdb
     RDKit          3D

 19 20  0  0  1  0  0  0  0  0999 V2000
   23.1321  -21.1650  -14.1073 N   0  0  0  0  0  0  0  0  0  0  0  0
   22.1953  -20.2849  -14.8302 C   0  0  0  0  0  0  0  0  0  0  0  0
   22.9770  -18.9904  -14.8468 C   0  0  0  0  0  0  0  0  0  0  0  0
   24.3743  -19.4354  -15.1640 C   0  0  0  0  0  0  0  0  0  0  0  0
   24.4071  -20.8757  -14.7318 C   0  0  1  0  0  0  0  0  0  0  0  0
   25.5158  -21.0870  -13.7813 C   0  0  0  0  0  0  0  0  0  0  0  0
   26.7179  -20.7648  -14.0892 O   0  0  0  0  0  0  0  0  0  0  0  0
   25.3614  -21.6455  -12.4897 N   0  0  0  0  0  0  0  0  0  0  0  0
   26.4725  -21.6453  -11.5531 C   0  0  0  0  0  0  0  0  0  0  0  0
   26.3588  -20.5441  -10.5715 C   0  0  0  0  0  0  0  0  0  0  0  0
   26.6675  -19.3779  -10.9770 O   0  0  0  0  0  0  0  0  0  0  0  0
   25.9310  -20.7579   -9.2471 N   0  0  0  0  0  0  0  0  0  0  0  0
   25.3540  -22.0304   -8.7898 C   0  0  0  0  0  0  0  0  0  0  0  0
   24.6612  -21.6656   -7.4881 C   0  0  0  0  0  0  0  0  0  0  0  0
   25.6306  -20.6438   -6.9461 C   0  0  0  0  0  0  0  0  0  0  0  0
   25.9697  -19.8155   -8.1590 C   0  0  1  0  0  0  0  0  0  0  0  0
   27.2931  -19.1506   -8.0053 C   0  0  0  0  0  0  0  0  0  0  0  0
   28.2881  -19.7624   -8.4598 O   0  0  0  0  0  0  0  0  0  0  0  0
   27.4405  -17.9336   -7.4026 O   0  0  0  0  0  0  0  0  0  0  0  0
  1  2  1  0
  3  2  1  0
  4  5  1  0
  4  3  1  0
  5  1  1  0
  5  6  1  1
  7  6  2  0
  8  6  1  0
  9  8  1  0
 10  9  1  0
 10 12  1  0
 11 10  2  0
 12 16  1  0
 13 12  1  0
 13 14  1  0
 14 15  1  0
 16 17  1  1
 16 15  1  0
 17 19  1  0
 18 17  2  0
M  END
$$$$
