PGP.pdb
     RDKit          3D

 19 20  0  0  1  0  0  0  0  0999 V2000
   28.5594  -20.4912   -7.6234 N   0  0  0  0  0  0  0  0  0  0  0  0
   29.0788  -19.5537   -6.6105 C   0  0  0  0  0  0  0  0  0  0  0  0
   28.0155  -18.4789   -6.6465 C   0  0  0  0  0  0  0  0  0  0  0  0
   26.7370  -19.2607   -6.7198 C   0  0  0  0  0  0  0  0  0  0  0  0
   27.1516  -20.5875   -7.2946 C   0  0  1  0  0  0  0  0  0  0  0  0
   26.3514  -20.8822   -8.4989 C   0  0  0  0  0  0  0  0  0  0  0  0
   25.0790  -21.0217   -8.4264 O   0  0  0  0  0  0  0  0  0  0  0  0
   26.8940  -21.0340   -9.7975 N   0  0  0  0  0  0  0  0  0  0  0  0
   26.1200  -21.6789  -10.8448 C   0  0  0  0  0  0  0  0  0  0  0  0
   25.0824  -20.7766  -11.3910 C   0  0  0  0  0  0  0  0  0  0  0  0
   24.4980  -20.0050  -10.5647 O   0  0  0  0  0  0  0  0  0  0  0  0
   24.7445  -20.7589  -12.7579 N   0  0  0  0  0  0  0  0  0  0  0  0
   25.5613  -21.4123  -13.7910 C   0  0  0  0  0  0  0  0  0  0  0  0
   25.0815  -20.7781  -15.0852 C   0  0  0  0  0  0  0  0  0  0  0  0
   23.6107  -20.6299  -14.7816 C   0  0  0  0  0  0  0  0  0  0  0  0
   23.6028  -20.1227  -13.3621 C   0  0  1  0  0  0  0  0  0  0  0  0
   22.3200  -20.4488  -12.6800 C   0  0  0  0  0  0  0  0  0  0  0  0
   22.1957  -21.6156  -12.2398 O   0  0  0  0  0  0  0  0  0  0  0  0
   21.3136  -19.5374  -12.5289 O   0  0  0  0  0  0  0  0  0  0  0  0
  1  2  1  0
  3  2  1  0
  4  5  1  0
  4  3  1  0
  5  1  1  0
  5  6  1  6
  7  6  2  0
  8  6  1  0
  9  8  1  0
 10  9  1  0
 10 12  1  0
 11 10  2  0
 12 16  1  0
 13 12  1  0
 13 14  1  0
 14 15  1  0
 16 17  1  1
 16 15  1  0
 17 19  1  0
 18 17  2  0
M  END
$$$$
