PGP.pdb
     RDKit          3D

 19 20  0  0  1  0  0  0  0  0999 V2000
   18.7176  -12.4723  -15.8694 N   0  0  0  0  0  0  0  0  0  0  0  0
   17.3906  -13.0937  -16.0362 C   0  0  0  0  0  0  0  0  0  0  0  0
   16.6436  -11.9835  -16.7409 C   0  0  0  0  0  0  0  0  0  0  0  0
   17.6411  -11.4773  -17.7409 C   0  0  0  0  0  0  0  0  0  0  0  0
   18.9718  -11.8808  -17.1674 C   0  0  1  0  0  0  0  0  0  0  0  0
   19.8416  -10.6955  -17.0415 C   0  0  0  0  0  0  0  0  0  0  0  0
   20.1975  -10.0267  -18.0758 O   0  0  0  0  0  0  0  0  0  0  0  0
   20.3465  -10.2056  -15.8131 N   0  0  0  0  0  0  0  0  0  0  0  0
   21.1128   -8.9715  -15.7752 C   0  0  0  0  0  0  0  0  0  0  0  0
   20.3064   -7.8439  -15.2580 C   0  0  0  0  0  0  0  0  0  0  0  0
   19.0487   -8.0233  -15.1821 O   0  0  0  0  0  0  0  0  0  0  0  0
   20.8862   -6.6227  -14.8638 N   0  0  0  0  0  0  0  0  0  0  0  0
   22.3393   -6.4013  -14.8345 C   0  0  0  0  0  0  0  0  0  0  0  0
   22.4991   -5.1682  -13.9619 C   0  0  0  0  0  0  0  0  0  0  0  0
   21.2788   -4.3847  -14.3795 C   0  0  0  0  0  0  0  0  0  0  0  0
   20.1981   -5.4343  -14.4308 C   0  0  1  0  0  0  0  0  0  0  0  0
   19.0953   -5.0286  -15.3453 C   0  0  0  0  0  0  0  0  0  0  0  0
   19.2943   -5.1841  -16.5730 O   0  0  0  0  0  0  0  0  0  0  0  0
   17.9153   -4.5106  -14.8920 O   0  0  0  0  0  0  0  0  0  0  0  0
  1  2  1  0
  3  2  1  0
  4  5  1  0
  4  3  1  0
  5  1  1  0
  5  6  1  1
  7  6  2  0
  8  6  1  0
  9  8  1  0
 10  9  1  0
 10 12  1  0
 11 10  2  0
 12 16  1  0
 13 12  1  0
 13 14  1  0
 14 15  1  0
 16 17  1  6
 16 15  1  0
 17 19  1  0
 18 17  2  0
M  END
$$$$
