PGP.pdb
     RDKit          3D

 19 20  0  0  1  0  0  0  0  0999 V2000
   15.5278  -18.9536    4.1860 N   0  0  0  0  0  0  0  0  0  0  0  0
   15.0884  -20.2034    3.5382 C   0  0  0  0  0  0  0  0  0  0  0  0
   15.8513  -20.1311    2.2344 C   0  0  0  0  0  0  0  0  0  0  0  0
   17.2084  -19.6491    2.6552 C   0  0  0  0  0  0  0  0  0  0  0  0
   16.9597  -18.9514    3.9643 C   0  0  1  0  0  0  0  0  0  0  0  0
   17.4777  -17.5711    3.9011 C   0  0  0  0  0  0  0  0  0  0  0  0
   18.7210  -17.3434    3.6860 O   0  0  0  0  0  0  0  0  0  0  0  0
   16.6804  -16.4133    4.0673 N   0  0  0  0  0  0  0  0  0  0  0  0
   17.2898  -15.0942    4.0465 C   0  0  0  0  0  0  0  0  0  0  0  0
   17.8885  -14.7488    5.3548 C   0  0  0  0  0  0  0  0  0  0  0  0
   17.7089  -15.5753    6.3058 O   0  0  0  0  0  0  0  0  0  0  0  0
   18.6253  -13.5659    5.5563 N   0  0  0  0  0  0  0  0  0  0  0  0
   18.9218  -12.6157    4.4743 C   0  0  0  0  0  0  0  0  0  0  0  0
   20.0588  -11.7768    5.0320 C   0  0  0  0  0  0  0  0  0  0  0  0
   19.6448  -11.6943    6.4810 C   0  0  0  0  0  0  0  0  0  0  0  0
   19.2007  -13.1009    6.7916 C   0  0  1  0  0  0  0  0  0  0  0  0
   18.2424  -13.1247    7.9310 C   0  0  0  0  0  0  0  0  0  0  0  0
   18.7178  -13.3766    9.0629 O   0  0  0  0  0  0  0  0  0  0  0  0
   16.9063  -12.8862    7.7749 O   0  0  0  0  0  0  0  0  0  0  0  0
  1  2  1  0
  3  2  1  0
  4  5  1  0
  4  3  1  0
  5  1  1  0
  5  6  1  6
  7  6  2  0
  8  6  1  0
  9  8  1  0
 10  9  1  0
 10 12  1  0
 11 10  2  0
 12 16  1  0
 13 12  1  0
 13 14  1  0
 14 15  1  0
 16 17  1  1
 16 15  1  0
 17 19  1  0
 18 17  2  0
M  END
$$$$
