PGP.pdb
     RDKit          3D

 19 20  0  0  1  0  0  0  0  0999 V2000
   27.7791  -21.5746  -15.8023 N   0  0  0  0  0  0  0  0  0  0  0  0
   27.6613  -21.7685  -17.2594 C   0  0  0  0  0  0  0  0  0  0  0  0
   26.9660  -20.4871  -17.6614 C   0  0  0  0  0  0  0  0  0  0  0  0
   27.6712  -19.4422  -16.8477 C   0  0  0  0  0  0  0  0  0  0  0  0
   28.2449  -20.2075  -15.6868 C   0  0  1  0  0  0  0  0  0  0  0  0
   27.7914  -19.6051  -14.4183 C   0  0  0  0  0  0  0  0  0  0  0  0
   28.0041  -18.3666  -14.1641 O   0  0  0  0  0  0  0  0  0  0  0  0
   27.1061  -20.3124  -13.4014 N   0  0  0  0  0  0  0  0  0  0  0  0
   26.5002  -19.5968  -12.2913 C   0  0  0  0  0  0  0  0  0  0  0  0
   25.8239  -20.5185  -11.3519 C   0  0  0  0  0  0  0  0  0  0  0  0
   25.1103  -21.4398  -11.8635 O   0  0  0  0  0  0  0  0  0  0  0  0
   25.9524  -20.3969   -9.9549 N   0  0  0  0  0  0  0  0  0  0  0  0
   26.9259  -19.4982   -9.3177 C   0  0  0  0  0  0  0  0  0  0  0  0
   27.0104  -20.0111   -7.8904 C   0  0  0  0  0  0  0  0  0  0  0  0
   25.5723  -20.4081   -7.6630 C   0  0  0  0  0  0  0  0  0  0  0  0
   25.2001  -21.1008   -8.9490 C   0  0  1  0  0  0  0  0  0  0  0  0
   23.7295  -21.0579   -9.1787 C   0  0  0  0  0  0  0  0  0  0  0  0
   23.0406  -21.9216   -8.5868 O   0  0  0  0  0  0  0  0  0  0  0  0
   23.1374  -20.1319   -9.9899 O   0  0  0  0  0  0  0  0  0  0  0  0
  1  2  1  0
  3  2  1  0
  4  5  1  0
  4  3  1  0
  5  1  1  0
  5  6  1  1
  7  6  2  0
  8  6  1  0
  9  8  1  0
 10  9  1  0
 10 12  1  0
 11 10  2  0
 12 16  1  0
 13 12  1  0
 13 14  1  0
 14 15  1  0
 16 17  1  6
 16 15  1  0
 17 19  1  0
 18 17  2  0
M  END
$$$$
