PGP.pdb
     RDKit          3D

 19 20  0  0  1  0  0  0  0  0999 V2000
   26.3281  -21.3432  -17.8111 N   0  0  0  0  0  0  0  0  0  0  0  0
   25.4606  -21.5154  -18.9913 C   0  0  0  0  0  0  0  0  0  0  0  0
   24.2121  -20.7951  -18.5337 C   0  0  0  0  0  0  0  0  0  0  0  0
   24.7497  -19.5663  -17.8613 C   0  0  0  0  0  0  0  0  0  0  0  0
   26.1521  -19.9456  -17.4720 C   0  0  1  0  0  0  0  0  0  0  0  0
   26.3446  -19.7296  -16.0250 C   0  0  0  0  0  0  0  0  0  0  0  0
   26.0431  -18.6087  -15.4804 O   0  0  0  0  0  0  0  0  0  0  0  0
   26.8620  -20.7029  -15.1368 N   0  0  0  0  0  0  0  0  0  0  0  0
   26.8633  -20.4611  -13.7039 C   0  0  0  0  0  0  0  0  0  0  0  0
   25.6133  -20.9346  -13.0693 C   0  0  0  0  0  0  0  0  0  0  0  0
   24.7578  -21.4919  -13.8291 O   0  0  0  0  0  0  0  0  0  0  0  0
   25.3651  -20.7842  -11.6915 N   0  0  0  0  0  0  0  0  0  0  0  0
   26.3860  -20.3164  -10.7426 C   0  0  0  0  0  0  0  0  0  0  0  0
   25.8338  -20.7249   -9.3877 C   0  0  0  0  0  0  0  0  0  0  0  0
   24.3607  -20.4904   -9.6173 C   0  0  0  0  0  0  0  0  0  0  0  0
   24.1340  -21.0561  -10.9960 C   0  0  1  0  0  0  0  0  0  0  0  0
   22.9448  -20.4373  -11.6440 C   0  0  0  0  0  0  0  0  0  0  0  0
   23.1589  -19.4634  -12.4034 O   0  0  0  0  0  0  0  0  0  0  0  0
   21.6732  -20.8914  -11.4369 O   0  0  0  0  0  0  0  0  0  0  0  0
  1  2  1  0
  3  2  1  0
  4  5  1  0
  4  3  1  0
  5  1  1  0
  5  6  1  1
  7  6  2  0
  8  6  1  0
  9  8  1  0
 10  9  1  0
 10 12  1  0
 11 10  2  0
 12 16  1  0
 13 12  1  0
 13 14  1  0
 14 15  1  0
 16 17  1  6
 16 15  1  0
 17 19  1  0
 18 17  2  0
M  END
$$$$
