PGP.pdb
     RDKit          3D

 19 20  0  0  1  0  0  0  0  0999 V2000
   24.1218  -21.0409  -11.3540 N   0  0  0  0  0  0  0  0  0  0  0  0
   23.5950  -21.0847  -12.7308 C   0  0  0  0  0  0  0  0  0  0  0  0
   24.6968  -20.3686  -13.4794 C   0  0  0  0  0  0  0  0  0  0  0  0
   25.9483  -20.9303  -12.8717 C   0  0  0  0  0  0  0  0  0  0  0  0
   25.5104  -21.4202  -11.5186 C   0  0  1  0  0  0  0  0  0  0  0  0
   26.3485  -20.8072  -10.4701 C   0  0  0  0  0  0  0  0  0  0  0  0
   27.6095  -21.0331  -10.4189 O   0  0  0  0  0  0  0  0  0  0  0  0
   25.8565  -19.9459   -9.4601 N   0  0  0  0  0  0  0  0  0  0  0  0
   26.7749  -19.2869   -8.5470 C   0  0  0  0  0  0  0  0  0  0  0  0
   27.0363  -20.1112   -7.3464 C   0  0  0  0  0  0  0  0  0  0  0  0
   26.3740  -21.1923   -7.2355 O   0  0  0  0  0  0  0  0  0  0  0  0
   27.9702  -19.7330   -6.3628 N   0  0  0  0  0  0  0  0  0  0  0  0
   28.8624  -18.5740   -6.5123 C   0  0  0  0  0  0  0  0  0  0  0  0
   29.9422  -18.8129   -5.4709 C   0  0  0  0  0  0  0  0  0  0  0  0
   29.1174  -19.4263   -4.3659 C   0  0  0  0  0  0  0  0  0  0  0  0
   28.2155  -20.3839   -5.1020 C   0  0  1  0  0  0  0  0  0  0  0  0
   26.9717  -20.6550   -4.3298 C   0  0  0  0  0  0  0  0  0  0  0  0
   27.0380  -21.5413   -3.4461 O   0  0  0  0  0  0  0  0  0  0  0  0
   25.8036  -19.9833   -4.5550 O   0  0  0  0  0  0  0  0  0  0  0  0
  1  2  1  0
  3  2  1  0
  4  5  1  0
  4  3  1  0
  5  1  1  0
  5  6  1  1
  7  6  2  0
  8  6  1  0
  9  8  1  0
 10  9  1  0
 10 12  1  0
 11 10  2  0
 12 16  1  0
 13 12  1  0
 13 14  1  0
 14 15  1  0
 16 17  1  1
 16 15  1  0
 17 19  1  0
 18 17  2  0
M  END
$$$$
