PGP.pdb
     RDKit          3D

 19 20  0  0  1  0  0  0  0  0999 V2000
   21.2679  -19.4541  -16.4898 N   0  0  0  0  0  0  0  0  0  0  0  0
   21.3708  -18.8055  -17.8103 C   0  0  0  0  0  0  0  0  0  0  0  0
   22.5676  -17.9070  -17.5930 C   0  0  0  0  0  0  0  0  0  0  0  0
   23.5218  -18.7810  -16.8337 C   0  0  0  0  0  0  0  0  0  0  0  0
   22.6388  -19.8149  -16.1904 C   0  0  1  0  0  0  0  0  0  0  0  0
   22.8696  -19.8321  -14.7330 C   0  0  0  0  0  0  0  0  0  0  0  0
   24.0024  -20.1880  -14.2496 O   0  0  0  0  0  0  0  0  0  0  0  0
   21.8976  -19.4719  -13.7690 N   0  0  0  0  0  0  0  0  0  0  0  0
   22.2126  -19.5334  -12.3517 C   0  0  0  0  0  0  0  0  0  0  0  0
   21.5211  -20.6601  -11.6872 C   0  0  0  0  0  0  0  0  0  0  0  0
   20.8124  -21.4163  -12.4259 O   0  0  0  0  0  0  0  0  0  0  0  0
   21.6307  -20.8996  -10.3040 N   0  0  0  0  0  0  0  0  0  0  0  0
   22.5233  -20.1268   -9.4279 C   0  0  0  0  0  0  0  0  0  0  0  0
   22.6409  -20.9880   -8.1821 C   0  0  0  0  0  0  0  0  0  0  0  0
   21.2389  -21.5411   -8.1056 C   0  0  0  0  0  0  0  0  0  0  0  0
   20.9327  -21.8990   -9.5375 C   0  0  1  0  0  0  0  0  0  0  0  0
   19.4650  -21.9117   -9.7883 C   0  0  0  0  0  0  0  0  0  0  0  0
   18.9579  -20.8518  -10.2247 O   0  0  0  0  0  0  0  0  0  0  0  0
   18.6884  -23.0126   -9.5618 O   0  0  0  0  0  0  0  0  0  0  0  0
  1  2  1  0
  3  2  1  0
  4  5  1  0
  4  3  1  0
  5  1  1  0
  5  6  1  1
  7  6  2  0
  8  6  1  0
  9  8  1  0
 10  9  1  0
 10 12  1  0
 11 10  2  0
 12 16  1  0
 13 12  1  0
 13 14  1  0
 14 15  1  0
 16 17  1  1
 16 15  1  0
 17 19  1  0
 18 17  2  0
M  END
$$$$
