PGP.pdb
     RDKit          3D

 19 20  0  0  1  0  0  0  0  0999 V2000
   26.0870  -19.9021  -12.1711 N   0  0  0  0  0  0  0  0  0  0  0  0
   26.4991  -20.6350  -13.3826 C   0  0  0  0  0  0  0  0  0  0  0  0
   26.8559  -21.9810  -12.7928 C   0  0  0  0  0  0  0  0  0  0  0  0
   25.7546  -22.2272  -11.8040 C   0  0  0  0  0  0  0  0  0  0  0  0
   25.2369  -20.8521  -11.4825 C   0  0  1  0  0  0  0  0  0  0  0  0
   25.2785  -20.6309  -10.0242 C   0  0  0  0  0  0  0  0  0  0  0  0
   24.6150  -21.3824   -9.2248 O   0  0  0  0  0  0  0  0  0  0  0  0
   26.0257  -19.6061   -9.3955 N   0  0  0  0  0  0  0  0  0  0  0  0
   26.0510  -19.5007   -7.9463 C   0  0  0  0  0  0  0  0  0  0  0  0
   27.2360  -20.1743   -7.3707 C   0  0  0  0  0  0  0  0  0  0  0  0
   27.4626  -21.3666   -7.7537 O   0  0  0  0  0  0  0  0  0  0  0  0
   28.0841  -19.5413   -6.4418 N   0  0  0  0  0  0  0  0  0  0  0  0
   28.1341  -18.0819   -6.2714 C   0  0  0  0  0  0  0  0  0  0  0  0
   29.4399  -17.8494   -5.5309 C   0  0  0  0  0  0  0  0  0  0  0  0
   29.4557  -19.0597   -4.6295 C   0  0  0  0  0  0  0  0  0  0  0  0
   29.0149  -20.1742   -5.5438 C   0  0  1  0  0  0  0  0  0  0  0  0
   28.4152  -21.2985   -4.7735 C   0  0  0  0  0  0  0  0  0  0  0  0
   27.1710  -21.4314   -4.8454 O   0  0  0  0  0  0  0  0  0  0  0  0
   29.1639  -22.1563   -4.0186 O   0  0  0  0  0  0  0  0  0  0  0  0
  1  2  1  0
  3  2  1  0
  4  5  1  0
  4  3  1  0
  5  1  1  0
  5  6  1  1
  7  6  2  0
  8  6  1  0
  9  8  1  0
 10  9  1  0
 10 12  1  0
 11 10  2  0
 12 16  1  0
 13 12  1  0
 13 14  1  0
 14 15  1  0
 16 17  1  1
 16 15  1  0
 17 19  1  0
 18 17  2  0
M  END
$$$$
