PGP.pdb
     RDKit          3D

 19 20  0  0  1  0  0  0  0  0999 V2000
   25.9327  -18.9450  -17.6426 N   0  0  0  0  0  0  0  0  0  0  0  0
   25.5843  -19.8124  -18.7832 C   0  0  0  0  0  0  0  0  0  0  0  0
   24.5223  -20.6897  -18.1590 C   0  0  0  0  0  0  0  0  0  0  0  0
   23.7046  -19.7223  -17.3550 C   0  0  0  0  0  0  0  0  0  0  0  0
   24.6406  -18.5721  -17.1034 C   0  0  1  0  0  0  0  0  0  0  0  0
   24.7334  -18.3114  -15.6540 C   0  0  0  0  0  0  0  0  0  0  0  0
   23.6934  -17.9968  -14.9733 O   0  0  0  0  0  0  0  0  0  0  0  0
   25.9346  -18.3802  -14.9082 N   0  0  0  0  0  0  0  0  0  0  0  0
   25.9065  -18.2620  -13.4601 C   0  0  0  0  0  0  0  0  0  0  0  0
   25.6805  -19.5718  -12.8098 C   0  0  0  0  0  0  0  0  0  0  0  0
   25.4118  -20.5542  -13.5729 O   0  0  0  0  0  0  0  0  0  0  0  0
   25.7552  -19.7416  -11.4140 N   0  0  0  0  0  0  0  0  0  0  0  0
   26.1887  -18.6734  -10.5016 C   0  0  0  0  0  0  0  0  0  0  0  0
   26.5291  -19.4110   -9.2180 C   0  0  0  0  0  0  0  0  0  0  0  0
   25.4600  -20.4761   -9.2298 C   0  0  0  0  0  0  0  0  0  0  0  0
   25.4465  -20.9328  -10.6663 C   0  0  1  0  0  0  0  0  0  0  0  0
   24.1317  -21.5297  -11.0301 C   0  0  0  0  0  0  0  0  0  0  0  0
   23.9392  -22.7205  -10.6898 O   0  0  0  0  0  0  0  0  0  0  0  0
   23.1669  -20.8333  -11.7011 O   0  0  0  0  0  0  0  0  0  0  0  0
  1  2  1  0
  3  2  1  0
  4  5  1  0
  4  3  1  0
  5  1  1  0
  5  6  1  1
  7  6  2  0
  8  6  1  0
  9  8  1  0
 10  9  1  0
 10 12  1  0
 11 10  2  0
 12 16  1  0
 13 12  1  0
 13 14  1  0
 14 15  1  0
 16 17  1  6
 16 15  1  0
 17 19  1  0
 18 17  2  0
M  END
$$$$
