PGP.pdb
     RDKit          3D

 19 20  0  0  1  0  0  0  0  0999 V2000
   26.9286  -20.6640  -17.9604 N   0  0  0  0  0  0  0  0  0  0  0  0
   27.6259  -20.5322  -19.2532 C   0  0  0  0  0  0  0  0  0  0  0  0
   29.0677  -20.5099  -18.7974 C   0  0  0  0  0  0  0  0  0  0  0  0
   29.1129  -21.5771  -17.7438 C   0  0  0  0  0  0  0  0  0  0  0  0
   27.6872  -21.6931  -17.2786 C   0  0  1  0  0  0  0  0  0  0  0  0
   27.6225  -21.5091  -15.8159 C   0  0  0  0  0  0  0  0  0  0  0  0
   28.1578  -22.3603  -15.0206 O   0  0  0  0  0  0  0  0  0  0  0  0
   26.9859  -20.4171  -15.1784 N   0  0  0  0  0  0  0  0  0  0  0  0
   26.9489  -20.3348  -13.7281 C   0  0  0  0  0  0  0  0  0  0  0  0
   25.5886  -20.5837  -13.2018 C   0  0  0  0  0  0  0  0  0  0  0  0
   24.6704  -20.7948  -14.0575 O   0  0  0  0  0  0  0  0  0  0  0  0
   25.3050  -20.5905  -11.8226 N   0  0  0  0  0  0  0  0  0  0  0  0
   26.3391  -20.4072  -10.7938 C   0  0  0  0  0  0  0  0  0  0  0  0
   25.6789  -20.9157   -9.5237 C   0  0  0  0  0  0  0  0  0  0  0  0
   24.2631  -20.4455   -9.7511 C   0  0  0  0  0  0  0  0  0  0  0  0
   24.0198  -20.7782  -11.2011 C   0  0  1  0  0  0  0  0  0  0  0  0
   22.9553  -19.9138  -11.7815 C   0  0  0  0  0  0  0  0  0  0  0  0
   23.3339  -18.8966  -12.4082 O   0  0  0  0  0  0  0  0  0  0  0  0
   21.6250  -20.1954  -11.6510 O   0  0  0  0  0  0  0  0  0  0  0  0
  1  2  1  0
  3  2  1  0
  4  5  1  0
  4  3  1  0
  5  1  1  0
  5  6  1  1
  7  6  2  0
  8  6  1  0
  9  8  1  0
 10  9  1  0
 10 12  1  0
 11 10  2  0
 12 16  1  0
 13 12  1  0
 13 14  1  0
 14 15  1  0
 16 17  1  6
 16 15  1  0
 17 19  1  0
 18 17  2  0
M  END
$$$$
