PGP.pdb
     RDKit          3D

 19 20  0  0  1  0  0  0  0  0999 V2000
   23.8200  -19.8125  -10.4884 N   0  0  0  0  0  0  0  0  0  0  0  0
   23.0608  -19.6049  -11.7356 C   0  0  0  0  0  0  0  0  0  0  0  0
   24.1382  -19.8496  -12.7682 C   0  0  0  0  0  0  0  0  0  0  0  0
   24.8658  -21.0466  -12.2306 C   0  0  0  0  0  0  0  0  0  0  0  0
   24.5714  -21.0222  -10.7557 C   0  0  1  0  0  0  0  0  0  0  0  0
   25.8351  -21.0328   -9.9939 C   0  0  0  0  0  0  0  0  0  0  0  0
   26.4947  -22.1195   -9.8273 O   0  0  0  0  0  0  0  0  0  0  0  0
   26.4144  -19.8873   -9.3970 N   0  0  0  0  0  0  0  0  0  0  0  0
   27.6857  -19.9871   -8.7003 C   0  0  0  0  0  0  0  0  0  0  0  0
   27.4972  -20.2055   -7.2490 C   0  0  0  0  0  0  0  0  0  0  0  0
   26.3011  -20.3537   -6.8403 O   0  0  0  0  0  0  0  0  0  0  0  0
   28.5784  -20.2501   -6.3481 N   0  0  0  0  0  0  0  0  0  0  0  0
   29.9694  -20.4518   -6.7793 C   0  0  0  0  0  0  0  0  0  0  0  0
   30.6867  -20.8616   -5.5046 C   0  0  0  0  0  0  0  0  0  0  0  0
   29.9645  -19.9963   -4.5010 C   0  0  0  0  0  0  0  0  0  0  0  0
   28.5206  -20.1229   -4.9150 C   0  0  1  0  0  0  0  0  0  0  0  0
   27.7246  -18.9490   -4.4617 C   0  0  0  0  0  0  0  0  0  0  0  0
   27.5465  -18.0316   -5.2968 O   0  0  0  0  0  0  0  0  0  0  0  0
   27.2034  -18.8543   -3.2024 O   0  0  0  0  0  0  0  0  0  0  0  0
  1  2  1  0
  3  2  1  0
  4  5  1  0
  4  3  1  0
  5  1  1  0
  5  6  1  1
  7  6  2  0
  8  6  1  0
  9  8  1  0
 10  9  1  0
 10 12  1  0
 11 10  2  0
 12 16  1  0
 13 12  1  0
 13 14  1  0
 14 15  1  0
 16 17  1  6
 16 15  1  0
 17 19  1  0
 18 17  2  0
M  END
$$$$
