LPH.pdb
     RDKit          3D

 26 27  0  0  1  0  0  0  0  0999 V2000
    6.4287  -11.6140   27.1872 C   0  0  0  0  0  0  0  0  0  0  0  0
    5.9143  -12.8426   26.5244 C   0  0  1  0  0  0  0  0  0  0  0  0
    4.7143  -12.4022   25.6708 C   0  0  0  0  0  0  0  0  0  0  0  0
    6.8613  -13.6059   25.6819 C   0  0  0  0  0  0  0  0  0  0  0  0
    6.3228  -14.9442   25.2282 C   0  0  2  0  0  0  0  0  0  0  0  0
    5.8656  -15.6711   26.3546 N   0  0  0  0  0  0  0  0  0  0  0  0
    7.2940  -15.6424   24.3574 C   0  0  0  0  0  0  0  0  0  0  0  0
    7.6444  -16.8148   24.7781 O   0  0  0  0  0  0  0  0  0  0  0  0
    7.8647  -15.2005   23.1666 N   0  0  0  0  0  0  0  0  0  0  0  0
    7.7756  -13.9418   22.4990 C   0  0  0  0  0  0  0  0  0  0  0  0
    7.5314  -14.3517   21.0550 C   0  0  0  0  0  0  0  0  0  0  0  0
    8.2498  -15.6503   20.9348 C   0  0  0  0  0  0  0  0  0  0  0  0
    8.7363  -16.0137   22.3161 C   0  0  1  0  0  0  0  0  0  0  0  0
   10.1590  -15.6962   22.5363 C   0  0  0  0  0  0  0  0  0  0  0  0
   10.6086  -14.6131   22.0695 O   0  0  0  0  0  0  0  0  0  0  0  0
   11.0585  -16.5154   23.2323 N   0  0  0  0  0  0  0  0  0  0  0  0
   11.4719  -16.2752   24.6271 C   0  0  1  0  0  0  0  0  0  0  0  0
   10.2690  -16.3597   25.5332 C   0  0  0  0  0  0  0  0  0  0  0  0
   10.6860  -16.1784   26.9351 C   0  0  0  0  0  0  0  0  0  0  0  0
   11.0757  -14.9458   27.4869 C   0  0  0  0  0  0  0  0  0  0  0  0
   11.3897  -15.1383   28.7773 N   0  0  0  0  0  0  0  0  0  0  0  0
   11.2203  -16.4251   29.0726 C   0  0  0  0  0  0  0  0  0  0  0  0
   10.8007  -17.0293   27.9628 N   0  0  0  0  0  0  0  0  0  0  0  0
   12.3717  -17.4194   24.9900 C   0  0  0  0  0  0  0  0  0  0  0  0
   13.5738  -17.1436   25.3379 O   0  0  0  0  0  0  0  0  0  0  0  0
   12.0454  -18.7377   24.9907 O   0  0  0  0  0  0  0  0  0  0  0  0
  2  1  1  6
  3  2  1  0
  4  2  1  0
  5  6  1  1
  5  4  1  0
  7  8  2  0
  7  5  1  0
  9  7  1  0
 10  9  1  0
 11 10  1  0
 12 11  1  0
 12 13  1  0
 13 14  1  6
 13  9  1  0
 14 15  2  0
 16 17  1  0
 16 14  1  0
 18 19  1  0
 17 18  1  1
 19 23  1  0
 20 19  2  0
 20 21  1  0
 21 22  1  0
 23 22  2  0
 24 17  1  0
 25 24  2  0
 26 24  1  0
M  END
$$$$
