LPH.pdb
     RDKit          3D

 26 27  0  0  1  0  0  0  0  0999 V2000
    6.9293  -13.1553   18.7607 C   0  0  0  0  0  0  0  0  0  0  0  0
    8.1332  -13.3356   19.6159 C   0  0  1  0  0  0  0  0  0  0  0  0
    8.8497  -11.9762   19.6446 C   0  0  0  0  0  0  0  0  0  0  0  0
    7.9163  -13.8047   21.0023 C   0  0  0  0  0  0  0  0  0  0  0  0
    9.1977  -14.0026   21.7806 C   0  0  2  0  0  0  0  0  0  0  0  0
   10.1592  -14.6265   20.9485 N   0  0  0  0  0  0  0  0  0  0  0  0
    8.9370  -14.6644   23.0779 C   0  0  0  0  0  0  0  0  0  0  0  0
    9.8037  -15.5689   23.4015 O   0  0  0  0  0  0  0  0  0  0  0  0
    7.8946  -14.4374   23.9729 N   0  0  0  0  0  0  0  0  0  0  0  0
    6.7330  -13.6148   23.8644 C   0  0  0  0  0  0  0  0  0  0  0  0
    6.7011  -12.9106   25.2118 C   0  0  0  0  0  0  0  0  0  0  0  0
    7.3015  -13.9076   26.1406 C   0  0  0  0  0  0  0  0  0  0  0  0
    7.7910  -15.0576   25.2955 C   0  0  1  0  0  0  0  0  0  0  0  0
    6.8691  -16.2080   25.2845 C   0  0  0  0  0  0  0  0  0  0  0  0
    5.6285  -15.9797   25.3253 O   0  0  0  0  0  0  0  0  0  0  0  0
    7.2716  -17.5496   25.2316 N   0  0  0  0  0  0  0  0  0  0  0  0
    8.1819  -18.1693   26.2121 C   0  0  1  0  0  0  0  0  0  0  0  0
    9.1264  -17.1263   26.7555 C   0  0  0  0  0  0  0  0  0  0  0  0
    9.9403  -17.7056   27.8390 C   0  0  0  0  0  0  0  0  0  0  0  0
    9.8560  -19.0451   28.2563 C   0  0  0  0  0  0  0  0  0  0  0  0
   10.7303  -19.2344   29.2566 N   0  0  0  0  0  0  0  0  0  0  0  0
   11.3636  -18.0881   29.4954 C   0  0  0  0  0  0  0  0  0  0  0  0
   10.8797  -17.1886   28.6412 N   0  0  0  0  0  0  0  0  0  0  0  0
    7.3148  -18.6090   27.3546 C   0  0  0  0  0  0  0  0  0  0  0  0
    7.4580  -19.8084   27.7826 O   0  0  0  0  0  0  0  0  0  0  0  0
    6.3794  -17.8618   27.9958 O   0  0  0  0  0  0  0  0  0  0  0  0
  2  1  1  1
  3  2  1  0
  4  2  1  0
  5  6  1  6
  5  4  1  0
  7  8  2  0
  7  5  1  0
  9  7  1  0
 10  9  1  0
 11 10  1  0
 12 11  1  0
 12 13  1  0
 13 14  1  6
 13  9  1  0
 14 15  2  0
 16 17  1  0
 16 14  1  0
 18 19  1  0
 17 18  1  1
 19 23  1  0
 20 19  2  0
 20 21  1  0
 21 22  1  0
 23 22  2  0
 24 17  1  0
 25 24  2  0
 26 24  1  0
M  END
$$$$
