LPH.pdb
     RDKit          3D

 26 27  0  0  1  0  0  0  0  0999 V2000
    7.2498  -16.4842   20.2003 C   0  0  0  0  0  0  0  0  0  0  0  0
    6.2312  -15.9673   21.1534 C   0  0  1  0  0  0  0  0  0  0  0  0
    5.1503  -17.0545   21.2616 C   0  0  0  0  0  0  0  0  0  0  0  0
    6.6956  -15.6013   22.5098 C   0  0  0  0  0  0  0  0  0  0  0  0
    7.5057  -14.3249   22.5470 C   0  0  2  0  0  0  0  0  0  0  0  0
    8.1455  -14.1398   21.2970 N   0  0  0  0  0  0  0  0  0  0  0  0
    8.3847  -14.2855   23.7366 C   0  0  0  0  0  0  0  0  0  0  0  0
    9.6472  -14.3886   23.4733 O   0  0  0  0  0  0  0  0  0  0  0  0
    8.0258  -14.1544   25.0756 N   0  0  0  0  0  0  0  0  0  0  0  0
    6.7436  -14.0324   25.6913 C   0  0  0  0  0  0  0  0  0  0  0  0
    6.9612  -12.9008   26.6836 C   0  0  0  0  0  0  0  0  0  0  0  0
    8.3933  -13.0427   27.0657 C   0  0  0  0  0  0  0  0  0  0  0  0
    8.9787  -14.1207   26.1871 C   0  0  1  0  0  0  0  0  0  0  0  0
    9.0775  -15.4302   26.8570 C   0  0  0  0  0  0  0  0  0  0  0  0
    8.0113  -16.0649   27.0883 O   0  0  0  0  0  0  0  0  0  0  0  0
   10.2789  -16.0289   27.2603 N   0  0  0  0  0  0  0  0  0  0  0  0
   10.3735  -17.4088   27.7712 C   0  0  1  0  0  0  0  0  0  0  0  0
   11.6467  -18.0465   27.2739 C   0  0  0  0  0  0  0  0  0  0  0  0
   11.6284  -18.1166   25.8019 C   0  0  0  0  0  0  0  0  0  0  0  0
   10.5342  -18.5776   25.0497 C   0  0  0  0  0  0  0  0  0  0  0  0
   10.8537  -18.5080   23.7482 N   0  0  0  0  0  0  0  0  0  0  0  0
   12.0902  -18.0281   23.6352 C   0  0  0  0  0  0  0  0  0  0  0  0
   12.5359  -17.8007   24.8691 N   0  0  0  0  0  0  0  0  0  0  0  0
   10.5011  -17.2857   29.2608 C   0  0  0  0  0  0  0  0  0  0  0  0
   10.6093  -16.1075   29.7532 O   0  0  0  0  0  0  0  0  0  0  0  0
   10.5141  -18.3038   30.1595 O   0  0  0  0  0  0  0  0  0  0  0  0
  2  1  1  6
  3  2  1  0
  4  2  1  0
  5  6  1  6
  5  4  1  0
  7  8  2  0
  7  5  1  0
  9  7  1  0
 10  9  1  0
 11 10  1  0
 12 11  1  0
 12 13  1  0
 13 14  1  1
 13  9  1  0
 14 15  2  0
 16 17  1  0
 16 14  1  0
 18 19  1  0
 17 18  1  6
 19 23  1  0
 20 19  2  0
 20 21  1  0
 21 22  1  0
 23 22  2  0
 24 17  1  0
 25 24  2  0
 26 24  1  0
M  END
$$$$
