LPH.pdb
     RDKit          3D

 26 27  0  0  1  0  0  0  0  0999 V2000
    8.4519  -12.1638   20.1816 C   0  0  0  0  0  0  0  0  0  0  0  0
    7.7423  -13.1529   21.0368 C   0  0  1  0  0  0  0  0  0  0  0  0
    6.2836  -13.1738   20.5531 C   0  0  0  0  0  0  0  0  0  0  0  0
    8.2716  -14.5345   21.0578 C   0  0  0  0  0  0  0  0  0  0  0  0
    7.9320  -15.2923   22.3217 C   0  0  2  0  0  0  0  0  0  0  0  0
    6.5295  -15.4761   22.3948 N   0  0  0  0  0  0  0  0  0  0  0  0
    8.5660  -14.6687   23.5042 C   0  0  0  0  0  0  0  0  0  0  0  0
    9.8154  -14.3715   23.3477 O   0  0  0  0  0  0  0  0  0  0  0  0
    7.9939  -14.3701   24.7381 N   0  0  0  0  0  0  0  0  0  0  0  0
    6.6360  -14.4230   25.1752 C   0  0  0  0  0  0  0  0  0  0  0  0
    6.4771  -13.1046   25.9163 C   0  0  0  0  0  0  0  0  0  0  0  0
    7.8364  -12.8485   26.4676 C   0  0  0  0  0  0  0  0  0  0  0  0
    8.7460  -13.9150   25.9093 C   0  0  1  0  0  0  0  0  0  0  0  0
    9.0001  -15.0184   26.8533 C   0  0  0  0  0  0  0  0  0  0  0  0
    8.0319  -15.7581   27.1822 O   0  0  0  0  0  0  0  0  0  0  0  0
   10.2492  -15.3102   27.4184 N   0  0  0  0  0  0  0  0  0  0  0  0
   10.5271  -16.5268   28.2036 C   0  0  1  0  0  0  0  0  0  0  0  0
   11.9131  -17.0293   27.8851 C   0  0  0  0  0  0  0  0  0  0  0  0
   11.9374  -17.6007   26.5268 C   0  0  0  0  0  0  0  0  0  0  0  0
   11.4064  -16.9599   25.3941 C   0  0  0  0  0  0  0  0  0  0  0  0
   11.5960  -17.7537   24.3289 N   0  0  0  0  0  0  0  0  0  0  0  0
   12.2179  -18.8619   24.7251 C   0  0  0  0  0  0  0  0  0  0  0  0
   12.4132  -18.7530   26.0377 N   0  0  0  0  0  0  0  0  0  0  0  0
   10.5405  -16.0929   29.6396 C   0  0  0  0  0  0  0  0  0  0  0  0
   10.4743  -14.8362   29.8818 O   0  0  0  0  0  0  0  0  0  0  0  0
   10.6158  -16.9002   30.7290 O   0  0  0  0  0  0  0  0  0  0  0  0
  2  1  1  6
  3  2  1  0
  4  2  1  0
  5  6  1  1
  5  4  1  0
  7  8  2  0
  7  5  1  0
  9  7  1  0
 10  9  1  0
 11 10  1  0
 12 11  1  0
 12 13  1  0
 13 14  1  1
 13  9  1  0
 14 15  2  0
 16 17  1  0
 16 14  1  0
 18 19  1  0
 17 18  1  6
 19 23  1  0
 20 19  2  0
 20 21  1  0
 21 22  1  0
 23 22  2  0
 24 17  1  0
 25 24  2  0
 26 24  1  0
M  END
$$$$
