LPH.pdb
     RDKit          3D

 26 27  0  0  1  0  0  0  0  0999 V2000
    7.0120  -12.0968   27.2438 C   0  0  0  0  0  0  0  0  0  0  0  0
    7.0889  -13.2899   26.3585 C   0  0  1  0  0  0  0  0  0  0  0  0
    8.4886  -13.8906   26.5644 C   0  0  0  0  0  0  0  0  0  0  0  0
    6.0695  -14.3448   26.5519 C   0  0  0  0  0  0  0  0  0  0  0  0
    5.8238  -15.1813   25.3163 C   0  0  2  0  0  0  0  0  0  0  0  0
    4.8911  -16.2029   25.6203 N   0  0  0  0  0  0  0  0  0  0  0  0
    7.0985  -15.6270   24.7117 C   0  0  0  0  0  0  0  0  0  0  0  0
    7.6123  -16.6800   25.2606 O   0  0  0  0  0  0  0  0  0  0  0  0
    7.7973  -15.0628   23.6475 N   0  0  0  0  0  0  0  0  0  0  0  0
    7.9077  -13.7062   23.2171 C   0  0  0  0  0  0  0  0  0  0  0  0
    7.7124  -13.8209   21.7134 C   0  0  0  0  0  0  0  0  0  0  0  0
    8.2731  -15.1619   21.3903 C   0  0  0  0  0  0  0  0  0  0  0  0
    8.6180  -15.8226   22.7022 C   0  0  1  0  0  0  0  0  0  0  0  0
   10.0508  -15.7395   23.0388 C   0  0  0  0  0  0  0  0  0  0  0  0
   10.5586  -14.5971   23.2119 O   0  0  0  0  0  0  0  0  0  0  0  0
   10.8998  -16.8455   23.1824 N   0  0  0  0  0  0  0  0  0  0  0  0
   12.3251  -16.7404   23.5450 C   0  0  1  0  0  0  0  0  0  0  0  0
   12.7893  -18.0394   24.1552 C   0  0  0  0  0  0  0  0  0  0  0  0
   12.0731  -18.2810   25.4203 C   0  0  0  0  0  0  0  0  0  0  0  0
   11.4569  -17.2722   26.1807 C   0  0  0  0  0  0  0  0  0  0  0  0
   10.9011  -17.8362   27.2641 N   0  0  0  0  0  0  0  0  0  0  0  0
   11.1316  -19.1468   27.2313 C   0  0  0  0  0  0  0  0  0  0  0  0
   11.8313  -19.3934   26.1256 N   0  0  0  0  0  0  0  0  0  0  0  0
   13.0657  -16.5783   22.2505 C   0  0  0  0  0  0  0  0  0  0  0  0
   12.4109  -16.7593   21.1638 O   0  0  0  0  0  0  0  0  0  0  0  0
   14.3763  -16.2544   22.1021 O   0  0  0  0  0  0  0  0  0  0  0  0
  2  1  1  1
  3  2  1  0
  4  2  1  0
  5  6  1  1
  5  4  1  0
  7  8  2  0
  7  5  1  0
  9  7  1  0
 10  9  1  0
 11 10  1  0
 12 11  1  0
 12 13  1  0
 13 14  1  1
 13  9  1  0
 14 15  2  0
 16 17  1  0
 16 14  1  0
 18 19  1  0
 17 18  1  6
 19 23  1  0
 20 19  2  0
 20 21  1  0
 21 22  1  0
 23 22  2  0
 24 17  1  0
 25 24  2  0
 26 24  1  0
M  END
$$$$
