LPH.pdb
     RDKit          3D

 26 27  0  0  1  0  0  0  0  0999 V2000
    6.1890  -12.0852   25.6479 C   0  0  0  0  0  0  0  0  0  0  0  0
    7.1233  -13.2037   25.9465 C   0  0  1  0  0  0  0  0  0  0  0  0
    8.1695  -12.6431   26.9230 C   0  0  0  0  0  0  0  0  0  0  0  0
    6.5410  -14.4418   26.5099 C   0  0  0  0  0  0  0  0  0  0  0  0
    5.8934  -15.3312   25.4724 C   0  0  2  0  0  0  0  0  0  0  0  0
    5.0767  -16.2895   26.1212 N   0  0  0  0  0  0  0  0  0  0  0  0
    6.8981  -15.8691   24.5288 C   0  0  0  0  0  0  0  0  0  0  0  0
    7.1515  -17.1292   24.6770 O   0  0  0  0  0  0  0  0  0  0  0  0
    7.5894  -15.1984   23.5232 N   0  0  0  0  0  0  0  0  0  0  0  0
    7.6567  -13.8088   23.2030 C   0  0  0  0  0  0  0  0  0  0  0  0
    7.4841  -13.8104   21.6922 C   0  0  0  0  0  0  0  0  0  0  0  0
    8.0961  -15.1013   21.2726 C   0  0  0  0  0  0  0  0  0  0  0  0
    8.4482  -15.8519   22.5332 C   0  0  1  0  0  0  0  0  0  0  0  0
    9.8729  -15.7464   22.8969 C   0  0  0  0  0  0  0  0  0  0  0  0
   10.3118  -14.6247   23.2738 O   0  0  0  0  0  0  0  0  0  0  0  0
   10.7855  -16.8094   22.8551 N   0  0  0  0  0  0  0  0  0  0  0  0
   12.1326  -16.7544   23.4521 C   0  0  1  0  0  0  0  0  0  0  0  0
   12.4853  -18.1021   24.0305 C   0  0  0  0  0  0  0  0  0  0  0  0
   11.5775  -18.4193   25.1473 C   0  0  0  0  0  0  0  0  0  0  0  0
   11.1644  -17.4870   26.1147 C   0  0  0  0  0  0  0  0  0  0  0  0
   10.3461  -18.1062   26.9794 N   0  0  0  0  0  0  0  0  0  0  0  0
   10.2185  -19.3794   26.6126 C   0  0  0  0  0  0  0  0  0  0  0  0
   10.9593  -19.5476   25.5190 N   0  0  0  0  0  0  0  0  0  0  0  0
   13.0759  -16.5097   22.3116 C   0  0  0  0  0  0  0  0  0  0  0  0
   12.6030  -16.5810   21.1227 O   0  0  0  0  0  0  0  0  0  0  0  0
   14.3985  -16.2151   22.4034 O   0  0  0  0  0  0  0  0  0  0  0  0
  2  1  1  1
  3  2  1  0
  4  2  1  0
  5  6  1  1
  5  4  1  0
  7  8  2  0
  7  5  1  0
  9  7  1  0
 10  9  1  0
 11 10  1  0
 12 11  1  0
 12 13  1  0
 13 14  1  1
 13  9  1  0
 14 15  2  0
 16 17  1  0
 16 14  1  0
 18 19  1  0
 17 18  1  6
 19 23  1  0
 20 19  2  0
 20 21  1  0
 21 22  1  0
 23 22  2  0
 24 17  1  0
 25 24  2  0
 26 24  1  0
M  END
$$$$
