LPH.pdb
     RDKit          3D

 26 27  0  0  1  0  0  0  0  0999 V2000
    6.3978  -13.5681   20.7849 C   0  0  0  0  0  0  0  0  0  0  0  0
    7.3413  -14.6810   21.0753 C   0  0  1  0  0  0  0  0  0  0  0  0
    6.8359  -15.8943   20.2786 C   0  0  0  0  0  0  0  0  0  0  0  0
    8.7713  -14.4551   20.7694 C   0  0  0  0  0  0  0  0  0  0  0  0
    9.4911  -13.6364   21.8175 C   0  0  2  0  0  0  0  0  0  0  0  0
   10.8496  -13.4888   21.4446 N   0  0  0  0  0  0  0  0  0  0  0  0
    9.2466  -14.1731   23.1744 C   0  0  0  0  0  0  0  0  0  0  0  0
   10.1945  -14.9258   23.6315 O   0  0  0  0  0  0  0  0  0  0  0  0
    8.1441  -13.9715   24.0007 N   0  0  0  0  0  0  0  0  0  0  0  0
    6.8242  -13.5167   23.7024 C   0  0  0  0  0  0  0  0  0  0  0  0
    6.5681  -12.5026   24.8064 C   0  0  0  0  0  0  0  0  0  0  0  0
    7.3516  -13.0334   25.9560 C   0  0  0  0  0  0  0  0  0  0  0  0
    8.1379  -14.2152   25.4447 C   0  0  1  0  0  0  0  0  0  0  0  0
    7.5210  -15.5132   25.7732 C   0  0  0  0  0  0  0  0  0  0  0  0
    6.6701  -15.9900   24.9722 O   0  0  0  0  0  0  0  0  0  0  0  0
    7.8117  -16.2647   26.9200 N   0  0  0  0  0  0  0  0  0  0  0  0
    8.5895  -17.5172   26.9013 C   0  0  1  0  0  0  0  0  0  0  0  0
    9.2563  -17.7190   28.2391 C   0  0  0  0  0  0  0  0  0  0  0  0
    9.9920  -16.5000   28.6195 C   0  0  0  0  0  0  0  0  0  0  0  0
   10.9079  -15.8402   27.7820 C   0  0  0  0  0  0  0  0  0  0  0  0
   11.3913  -14.7738   28.4377 N   0  0  0  0  0  0  0  0  0  0  0  0
   10.8317  -14.7223   29.6443 C   0  0  0  0  0  0  0  0  0  0  0  0
   10.0008  -15.7588   29.7348 N   0  0  0  0  0  0  0  0  0  0  0  0
    7.5851  -18.6204   26.7445 C   0  0  0  0  0  0  0  0  0  0  0  0
    6.3438  -18.3037   26.7771 O   0  0  0  0  0  0  0  0  0  0  0  0
    7.8524  -19.9401   26.5682 O   0  0  0  0  0  0  0  0  0  0  0  0
  2  1  1  6
  3  2  1  0
  4  2  1  0
  5  6  1  6
  5  4  1  0
  7  8  2  0
  7  5  1  0
  9  7  1  0
 10  9  1  0
 11 10  1  0
 12 11  1  0
 12 13  1  0
 13 14  1  6
 13  9  1  0
 14 15  2  0
 16 17  1  0
 16 14  1  0
 18 19  1  0
 17 18  1  1
 19 23  1  0
 20 19  2  0
 20 21  1  0
 21 22  1  0
 23 22  2  0
 24 17  1  0
 25 24  2  0
 26 24  1  0
M  END
$$$$
