LPH.pdb
     RDKit          3D

 26 27  0  0  1  0  0  0  0  0999 V2000
    8.3085  -21.1940   18.9664 C   0  0  0  0  0  0  0  0  0  0  0  0
    8.5609  -20.0795   19.9189 C   0  0  1  0  0  0  0  0  0  0  0  0
    8.6586  -20.7176   21.3138 C   0  0  0  0  0  0  0  0  0  0  0  0
    9.7556  -19.2400   19.6793 C   0  0  0  0  0  0  0  0  0  0  0  0
    9.4352  -17.8927   19.0717 C   0  0  2  0  0  0  0  0  0  0  0  0
   10.2155  -17.7082   17.9042 N   0  0  0  0  0  0  0  0  0  0  0  0
    9.5202  -16.8172   20.0842 C   0  0  0  0  0  0  0  0  0  0  0  0
   10.7253  -16.4361   20.3609 O   0  0  0  0  0  0  0  0  0  0  0  0
    8.4835  -16.1799   20.7611 N   0  0  0  0  0  0  0  0  0  0  0  0
    7.0810  -16.4448   20.7837 C   0  0  0  0  0  0  0  0  0  0  0  0
    6.4812  -15.0565   20.6246 C   0  0  0  0  0  0  0  0  0  0  0  0
    7.4779  -14.1683   21.2841 C   0  0  0  0  0  0  0  0  0  0  0  0
    8.6610  -15.0300   21.6504 C   0  0  1  0  0  0  0  0  0  0  0  0
    8.6708  -15.4365   23.0674 C   0  0  0  0  0  0  0  0  0  0  0  0
    8.0251  -16.4696   23.3971 O   0  0  0  0  0  0  0  0  0  0  0  0
    9.3504  -14.7545   24.0861 N   0  0  0  0  0  0  0  0  0  0  0  0
    9.4277  -15.2318   25.4789 C   0  0  1  0  0  0  0  0  0  0  0  0
   10.1471  -14.2109   26.3247 C   0  0  0  0  0  0  0  0  0  0  0  0
   10.2287  -14.6846   27.7179 C   0  0  0  0  0  0  0  0  0  0  0  0
    9.5713  -14.0701   28.7976 C   0  0  0  0  0  0  0  0  0  0  0  0
    9.8598  -14.7540   29.9156 N   0  0  0  0  0  0  0  0  0  0  0  0
   10.6637  -15.7677   29.6029 C   0  0  0  0  0  0  0  0  0  0  0  0
   10.8726  -15.7104   28.2891 N   0  0  0  0  0  0  0  0  0  0  0  0
    8.0119  -15.2860   25.9721 C   0  0  0  0  0  0  0  0  0  0  0  0
    7.1616  -14.4973   25.4270 O   0  0  0  0  0  0  0  0  0  0  0  0
    7.5249  -16.0939   26.9491 O   0  0  0  0  0  0  0  0  0  0  0  0
  2  1  1  6
  3  2  1  0
  4  2  1  0
  5  6  1  6
  5  4  1  0
  7  8  2  0
  7  5  1  0
  9  7  1  0
 10  9  1  0
 11 10  1  0
 12 11  1  0
 12 13  1  0
 13 14  1  1
 13  9  1  0
 14 15  2  0
 16 17  1  0
 16 14  1  0
 18 19  1  0
 17 18  1  1
 19 23  1  0
 20 19  2  0
 20 21  1  0
 21 22  1  0
 23 22  2  0
 24 17  1  0
 25 24  2  0
 26 24  1  0
M  END
$$$$
