LPH.pdb
     RDKit          3D

 26 27  0  0  1  0  0  0  0  0999 V2000
    7.5089  -12.2232   27.7312 C   0  0  0  0  0  0  0  0  0  0  0  0
    6.7904  -13.2901   26.9837 C   0  0  1  0  0  0  0  0  0  0  0  0
    5.6928  -12.5840   26.1719 C   0  0  0  0  0  0  0  0  0  0  0  0
    7.5937  -14.1450   26.0819 C   0  0  0  0  0  0  0  0  0  0  0  0
    6.7851  -15.2173   25.3869 C   0  0  2  0  0  0  0  0  0  0  0  0
    6.2592  -16.1081   26.3545 N   0  0  0  0  0  0  0  0  0  0  0  0
    7.5557  -15.8375   24.2866 C   0  0  0  0  0  0  0  0  0  0  0  0
    7.8438  -17.0852   24.4715 O   0  0  0  0  0  0  0  0  0  0  0  0
    7.9992  -15.2540   23.1026 N   0  0  0  0  0  0  0  0  0  0  0  0
    8.0349  -13.8876   22.6910 C   0  0  0  0  0  0  0  0  0  0  0  0
    7.4924  -13.9569   21.2721 C   0  0  0  0  0  0  0  0  0  0  0  0
    7.9341  -15.2965   20.7950 C   0  0  0  0  0  0  0  0  0  0  0  0
    8.5609  -15.9991   21.9739 C   0  0  1  0  0  0  0  0  0  0  0  0
   10.0342  -15.9469   21.9688 C   0  0  0  0  0  0  0  0  0  0  0  0
   10.6455  -16.4249   20.9734 O   0  0  0  0  0  0  0  0  0  0  0  0
   10.8146  -15.4007   22.9971 N   0  0  0  0  0  0  0  0  0  0  0  0
   11.7784  -16.1812   23.7945 C   0  0  1  0  0  0  0  0  0  0  0  0
   11.1043  -17.4173   24.3355 C   0  0  0  0  0  0  0  0  0  0  0  0
   10.8186  -17.2428   25.7708 C   0  0  0  0  0  0  0  0  0  0  0  0
   11.0181  -16.0412   26.4723 C   0  0  0  0  0  0  0  0  0  0  0  0
   10.6586  -16.2312   27.7512 N   0  0  0  0  0  0  0  0  0  0  0  0
   10.2425  -17.4870   27.8977 C   0  0  0  0  0  0  0  0  0  0  0  0
   10.3449  -18.0746   26.7073 N   0  0  0  0  0  0  0  0  0  0  0  0
   12.8280  -16.6452   22.8283 C   0  0  0  0  0  0  0  0  0  0  0  0
   13.9783  -16.0830   22.8843 O   0  0  0  0  0  0  0  0  0  0  0  0
   12.6899  -17.6127   21.8853 O   0  0  0  0  0  0  0  0  0  0  0  0
  2  1  1  6
  3  2  1  0
  4  2  1  0
  5  6  1  1
  5  4  1  0
  7  8  2  0
  7  5  1  0
  9  7  1  0
 10  9  1  0
 11 10  1  0
 12 11  1  0
 12 13  1  0
 13 14  1  6
 13  9  1  0
 14 15  2  0
 16 17  1  0
 16 14  1  0
 18 19  1  0
 17 18  1  6
 19 23  1  0
 20 19  2  0
 20 21  1  0
 21 22  1  0
 23 22  2  0
 24 17  1  0
 25 24  2  0
 26 24  1  0
M  END
$$$$
