LPH.pdb
     RDKit          3D

 26 27  0  0  1  0  0  0  0  0999 V2000
    5.2519  -12.7055   25.5900 C   0  0  0  0  0  0  0  0  0  0  0  0
    6.6008  -13.2377   25.9222 C   0  0  1  0  0  0  0  0  0  0  0  0
    7.2916  -12.1614   26.7747 C   0  0  0  0  0  0  0  0  0  0  0  0
    6.6624  -14.5365   26.6284 C   0  0  0  0  0  0  0  0  0  0  0  0
    6.2932  -15.7160   25.7571 C   0  0  2  0  0  0  0  0  0  0  0  0
    5.7340  -16.7372   26.5638 N   0  0  0  0  0  0  0  0  0  0  0  0
    7.4270  -16.1187   24.8961 C   0  0  0  0  0  0  0  0  0  0  0  0
    7.8134  -17.3430   25.0571 O   0  0  0  0  0  0  0  0  0  0  0  0
    8.1140  -15.3566   23.9546 N   0  0  0  0  0  0  0  0  0  0  0  0
    8.2094  -13.9421   23.7880 C   0  0  0  0  0  0  0  0  0  0  0  0
    8.0058  -13.7725   22.2906 C   0  0  0  0  0  0  0  0  0  0  0  0
    8.5765  -15.0226   21.7172 C   0  0  0  0  0  0  0  0  0  0  0  0
    8.9356  -15.9158   22.8790 C   0  0  1  0  0  0  0  0  0  0  0  0
   10.3697  -15.8835   23.2189 C   0  0  0  0  0  0  0  0  0  0  0  0
   11.2019  -15.7236   22.2836 O   0  0  0  0  0  0  0  0  0  0  0  0
   10.8831  -16.0184   24.5162 N   0  0  0  0  0  0  0  0  0  0  0  0
   12.3242  -16.0352   24.8273 C   0  0  1  0  0  0  0  0  0  0  0  0
   12.5298  -16.4954   26.2490 C   0  0  0  0  0  0  0  0  0  0  0  0
   11.4975  -15.9049   27.1193 C   0  0  0  0  0  0  0  0  0  0  0  0
   11.3575  -14.5253   27.3495 C   0  0  0  0  0  0  0  0  0  0  0  0
   10.3248  -14.3367   28.1854 N   0  0  0  0  0  0  0  0  0  0  0  0
    9.8034  -15.5210   28.4972 C   0  0  0  0  0  0  0  0  0  0  0  0
   10.5150  -16.4436   27.8527 N   0  0  0  0  0  0  0  0  0  0  0  0
   12.9225  -17.0856   23.9389 C   0  0  0  0  0  0  0  0  0  0  0  0
   14.1985  -17.2040   23.9336 O   0  0  0  0  0  0  0  0  0  0  0  0
   12.2478  -17.9395   23.1264 O   0  0  0  0  0  0  0  0  0  0  0  0
  2  1  1  1
  3  2  1  0
  4  2  1  0
  5  6  1  1
  5  4  1  0
  7  8  2  0
  7  5  1  0
  9  7  1  0
 10  9  1  0
 11 10  1  0
 12 11  1  0
 12 13  1  0
 13 14  1  1
 13  9  1  0
 14 15  2  0
 16 17  1  0
 16 14  1  0
 18 19  1  0
 17 18  1  1
 19 23  1  0
 20 19  2  0
 20 21  1  0
 21 22  1  0
 23 22  2  0
 24 17  1  0
 25 24  2  0
 26 24  1  0
M  END
$$$$
