LPH.pdb
     RDKit          3D

 26 27  0  0  1  0  0  0  0  0999 V2000
    7.3153  -12.1480   27.8067 C   0  0  0  0  0  0  0  0  0  0  0  0
    6.4899  -12.9422   26.8574 C   0  0  1  0  0  0  0  0  0  0  0  0
    5.8809  -11.9355   25.8684 C   0  0  0  0  0  0  0  0  0  0  0  0
    7.1699  -14.0191   26.1042 C   0  0  0  0  0  0  0  0  0  0  0  0
    6.2250  -14.8820   25.2983 C   0  0  2  0  0  0  0  0  0  0  0  0
    5.4319  -15.6570   26.1794 N   0  0  0  0  0  0  0  0  0  0  0  0
    6.9510  -15.6328   24.2503 C   0  0  0  0  0  0  0  0  0  0  0  0
    6.8671  -16.9195   24.3578 O   0  0  0  0  0  0  0  0  0  0  0  0
    7.6978  -15.1338   23.1861 N   0  0  0  0  0  0  0  0  0  0  0  0
    8.0029  -13.7916   22.8076 C   0  0  0  0  0  0  0  0  0  0  0  0
    7.7498  -13.8068   21.3082 C   0  0  0  0  0  0  0  0  0  0  0  0
    8.0885  -15.2014   20.9115 C   0  0  0  0  0  0  0  0  0  0  0  0
    8.3649  -15.9659   22.1826 C   0  0  1  0  0  0  0  0  0  0  0  0
    9.8024  -16.1173   22.4720 C   0  0  0  0  0  0  0  0  0  0  0  0
   10.4571  -15.0895   22.8008 O   0  0  0  0  0  0  0  0  0  0  0  0
   10.5034  -17.3294   22.4087 N   0  0  0  0  0  0  0  0  0  0  0  0
   11.9160  -17.4785   22.8040 C   0  0  1  0  0  0  0  0  0  0  0  0
   12.0854  -18.7420   23.6103 C   0  0  0  0  0  0  0  0  0  0  0  0
   11.2856  -18.6574   24.8452 C   0  0  0  0  0  0  0  0  0  0  0  0
   11.4187  -17.6349   25.8004 C   0  0  0  0  0  0  0  0  0  0  0  0
   10.5439  -17.8632   26.7920 N   0  0  0  0  0  0  0  0  0  0  0  0
    9.8643  -18.9742   26.5171 C   0  0  0  0  0  0  0  0  0  0  0  0
   10.3198  -19.4335   25.3533 N   0  0  0  0  0  0  0  0  0  0  0  0
   12.6801  -17.6708   21.5274 C   0  0  0  0  0  0  0  0  0  0  0  0
   12.0082  -17.7611   20.4399 O   0  0  0  0  0  0  0  0  0  0  0  0
   14.0288  -17.7606   21.3963 O   0  0  0  0  0  0  0  0  0  0  0  0
  2  1  1  1
  3  2  1  0
  4  2  1  0
  5  6  1  1
  5  4  1  0
  7  8  2  0
  7  5  1  0
  9  7  1  0
 10  9  1  0
 11 10  1  0
 12 11  1  0
 12 13  1  0
 13 14  1  1
 13  9  1  0
 14 15  2  0
 16 17  1  0
 16 14  1  0
 18 19  1  0
 17 18  1  1
 19 23  1  0
 20 19  2  0
 20 21  1  0
 21 22  1  0
 23 22  2  0
 24 17  1  0
 25 24  2  0
 26 24  1  0
M  END
$$$$
