LPH.pdb
     RDKit          3D

 26 27  0  0  1  0  0  0  0  0999 V2000
    7.4948  -11.7897   19.8759 C   0  0  0  0  0  0  0  0  0  0  0  0
    7.7162  -13.2394   19.6254 C   0  0  1  0  0  0  0  0  0  0  0  0
    8.9824  -13.3393   18.7601 C   0  0  0  0  0  0  0  0  0  0  0  0
    7.8597  -14.1177   20.8075 C   0  0  0  0  0  0  0  0  0  0  0  0
    7.6957  -15.5874   20.4914 C   0  0  2  0  0  0  0  0  0  0  0  0
    6.4249  -15.8009   19.9034 N   0  0  0  0  0  0  0  0  0  0  0  0
    8.0134  -16.4249   21.6691 C   0  0  0  0  0  0  0  0  0  0  0  0
    6.9793  -16.8294   22.3333 O   0  0  0  0  0  0  0  0  0  0  0  0
    9.2627  -16.8214   22.1393 N   0  0  0  0  0  0  0  0  0  0  0  0
   10.5774  -16.4551   21.7208 C   0  0  0  0  0  0  0  0  0  0  0  0
   11.2916  -17.7966   21.6673 C   0  0  0  0  0  0  0  0  0  0  0  0
   10.6214  -18.5911   22.7335 C   0  0  0  0  0  0  0  0  0  0  0  0
    9.4701  -17.7602   23.2439 C   0  0  1  0  0  0  0  0  0  0  0  0
    9.7712  -17.0570   24.5042 C   0  0  0  0  0  0  0  0  0  0  0  0
   10.6413  -16.1429   24.4851 O   0  0  0  0  0  0  0  0  0  0  0  0
    9.1573  -17.3306   25.7342 N   0  0  0  0  0  0  0  0  0  0  0  0
    9.5086  -16.6480   26.9929 C   0  0  1  0  0  0  0  0  0  0  0  0
    8.2612  -16.0891   27.6308 C   0  0  0  0  0  0  0  0  0  0  0  0
    7.7496  -14.9650   26.8267 C   0  0  0  0  0  0  0  0  0  0  0  0
    8.5688  -14.0383   26.1591 C   0  0  0  0  0  0  0  0  0  0  0  0
    7.7821  -13.1534   25.5275 N   0  0  0  0  0  0  0  0  0  0  0  0
    6.5098  -13.4691   25.7587 C   0  0  0  0  0  0  0  0  0  0  0  0
    6.5100  -14.5512   26.5346 N   0  0  0  0  0  0  0  0  0  0  0  0
   10.0239  -17.7184   27.9090 C   0  0  0  0  0  0  0  0  0  0  0  0
    9.9260  -18.9346   27.5170 O   0  0  0  0  0  0  0  0  0  0  0  0
   10.5931  -17.5359   29.1284 O   0  0  0  0  0  0  0  0  0  0  0  0
  2  1  1  1
  3  2  1  0
  4  2  1  0
  5  6  1  1
  5  4  1  0
  7  8  2  0
  7  5  1  0
  9  7  1  0
 10  9  1  0
 11 10  1  0
 12 11  1  0
 12 13  1  0
 13 14  1  1
 13  9  1  0
 14 15  2  0
 16 17  1  0
 16 14  1  0
 18 19  1  0
 17 18  1  1
 19 23  1  0
 20 19  2  0
 20 21  1  0
 21 22  1  0
 23 22  2  0
 24 17  1  0
 25 24  2  0
 26 24  1  0
M  END
$$$$
