LPH.pdb
     RDKit          3D

 26 27  0  0  1  0  0  0  0  0999 V2000
    3.4507  -19.8442   21.9486 C   0  0  0  0  0  0  0  0  0  0  0  0
    3.9150  -18.9075   20.8902 C   0  0  1  0  0  0  0  0  0  0  0  0
    2.7978  -17.8665   20.7148 C   0  0  0  0  0  0  0  0  0  0  0  0
    5.2014  -18.2124   21.1164 C   0  0  0  0  0  0  0  0  0  0  0  0
    5.8096  -17.6414   19.8551 C   0  0  2  0  0  0  0  0  0  0  0  0
    5.7366  -18.6071   18.8215 N   0  0  0  0  0  0  0  0  0  0  0  0
    7.1507  -17.0749   20.1186 C   0  0  0  0  0  0  0  0  0  0  0  0
    8.1120  -17.6508   19.4719 O   0  0  0  0  0  0  0  0  0  0  0  0
    7.4964  -16.0207   20.9602 N   0  0  0  0  0  0  0  0  0  0  0  0
    6.6963  -15.2162   21.8264 C   0  0  0  0  0  0  0  0  0  0  0  0
    7.1945  -13.8115   21.5246 C   0  0  0  0  0  0  0  0  0  0  0  0
    8.6259  -14.0179   21.1703 C   0  0  0  0  0  0  0  0  0  0  0  0
    8.8581  -15.5081   21.1262 C   0  0  1  0  0  0  0  0  0  0  0  0
    9.4917  -16.0366   22.3478 C   0  0  0  0  0  0  0  0  0  0  0  0
    8.7738  -16.1908   23.3743 O   0  0  0  0  0  0  0  0  0  0  0  0
   10.8453  -16.3842   22.4554 N   0  0  0  0  0  0  0  0  0  0  0  0
   11.4017  -17.1680   23.5735 C   0  0  1  0  0  0  0  0  0  0  0  0
   12.4316  -18.1372   23.0491 C   0  0  0  0  0  0  0  0  0  0  0  0
   11.7678  -19.2002   22.2735 C   0  0  0  0  0  0  0  0  0  0  0  0
   10.5809  -19.8398   22.6708 C   0  0  0  0  0  0  0  0  0  0  0  0
   10.2564  -20.7498   21.7396 N   0  0  0  0  0  0  0  0  0  0  0  0
   11.1727  -20.7215   20.7745 C   0  0  0  0  0  0  0  0  0  0  0  0
   12.0653  -19.7921   21.1097 N   0  0  0  0  0  0  0  0  0  0  0  0
   12.1310  -16.1842   24.4399 C   0  0  0  0  0  0  0  0  0  0  0  0
   12.4193  -15.0435   23.9319 O   0  0  0  0  0  0  0  0  0  0  0  0
   12.5251  -16.3735   25.7257 O   0  0  0  0  0  0  0  0  0  0  0  0
  2  1  1  1
  3  2  1  0
  4  2  1  0
  5  6  1  6
  5  4  1  0
  7  8  2  0
  7  5  1  0
  9  7  1  0
 10  9  1  0
 11 10  1  0
 12 11  1  0
 12 13  1  0
 13 14  1  1
 13  9  1  0
 14 15  2  0
 16 17  1  0
 16 14  1  0
 18 19  1  0
 17 18  1  6
 19 23  1  0
 20 19  2  0
 20 21  1  0
 21 22  1  0
 23 22  2  0
 24 17  1  0
 25 24  2  0
 26 24  1  0
M  END
$$$$
