LPH.pdb
     RDKit          3D

 26 27  0  0  1  0  0  0  0  0999 V2000
    5.9202  -12.4361   25.3077 C   0  0  0  0  0  0  0  0  0  0  0  0
    6.9482  -13.4197   25.7426 C   0  0  1  0  0  0  0  0  0  0  0  0
    7.8499  -12.6856   26.7478 C   0  0  0  0  0  0  0  0  0  0  0  0
    6.4668  -14.6817   26.3466 C   0  0  0  0  0  0  0  0  0  0  0  0
    6.1147  -15.7429   25.3284 C   0  0  2  0  0  0  0  0  0  0  0  0
    5.5181  -16.8451   25.9882 N   0  0  0  0  0  0  0  0  0  0  0  0
    7.2725  -16.0559   24.4620 C   0  0  0  0  0  0  0  0  0  0  0  0
    7.9224  -17.1221   24.8011 O   0  0  0  0  0  0  0  0  0  0  0  0
    7.7377  -15.3574   23.3509 N   0  0  0  0  0  0  0  0  0  0  0  0
    7.4007  -14.0625   22.8535 C   0  0  0  0  0  0  0  0  0  0  0  0
    7.2306  -14.3160   21.3638 C   0  0  0  0  0  0  0  0  0  0  0  0
    8.1871  -15.4231   21.0870 C   0  0  0  0  0  0  0  0  0  0  0  0
    8.7449  -15.8658   22.4172 C   0  0  1  0  0  0  0  0  0  0  0  0
   10.0801  -15.3108   22.7043 C   0  0  0  0  0  0  0  0  0  0  0  0
   10.2723  -14.0804   22.4993 O   0  0  0  0  0  0  0  0  0  0  0  0
   11.1628  -16.0550   23.1926 N   0  0  0  0  0  0  0  0  0  0  0  0
   11.6762  -15.9437   24.5703 C   0  0  1  0  0  0  0  0  0  0  0  0
   10.5895  -16.3177   25.5472 C   0  0  0  0  0  0  0  0  0  0  0  0
   11.0964  -16.2029   26.9262 C   0  0  0  0  0  0  0  0  0  0  0  0
   12.3428  -15.6472   27.2626 C   0  0  0  0  0  0  0  0  0  0  0  0
   12.4855  -15.6996   28.5959 N   0  0  0  0  0  0  0  0  0  0  0  0
   11.3977  -16.2580   29.1221 C   0  0  0  0  0  0  0  0  0  0  0  0
   10.5811  -16.5514   28.1122 N   0  0  0  0  0  0  0  0  0  0  0  0
   12.7489  -16.9853   24.6926 C   0  0  0  0  0  0  0  0  0  0  0  0
   13.9376  -16.5866   24.9580 O   0  0  0  0  0  0  0  0  0  0  0  0
   12.5950  -18.3271   24.5510 O   0  0  0  0  0  0  0  0  0  0  0  0
  2  1  1  1
  3  2  1  0
  4  2  1  0
  5  6  1  1
  5  4  1  0
  7  8  2  0
  7  5  1  0
  9  7  1  0
 10  9  1  0
 11 10  1  0
 12 11  1  0
 12 13  1  0
 13 14  1  1
 13  9  1  0
 14 15  2  0
 16 17  1  0
 16 14  1  0
 18 19  1  0
 17 18  1  1
 19 23  1  0
 20 19  2  0
 20 21  1  0
 21 22  1  0
 23 22  2  0
 24 17  1  0
 25 24  2  0
 26 24  1  0
M  END
$$$$
