LPH.pdb
     RDKit          3D

 26 27  0  0  1  0  0  0  0  0999 V2000
    7.6648  -13.6470   21.7041 C   0  0  0  0  0  0  0  0  0  0  0  0
    7.6633  -13.5597   20.2190 C   0  0  1  0  0  0  0  0  0  0  0  0
    8.1883  -12.1584   19.8684 C   0  0  0  0  0  0  0  0  0  0  0  0
    8.4448  -14.5751   19.4791 C   0  0  0  0  0  0  0  0  0  0  0  0
    7.8633  -15.9682   19.5686 C   0  0  2  0  0  0  0  0  0  0  0  0
    6.4893  -15.9248   19.2276 N   0  0  0  0  0  0  0  0  0  0  0  0
    8.1889  -16.5997   20.8664 C   0  0  0  0  0  0  0  0  0  0  0  0
    7.1651  -16.8224   21.6255 O   0  0  0  0  0  0  0  0  0  0  0  0
    9.4361  -16.9747   21.3594 N   0  0  0  0  0  0  0  0  0  0  0  0
   10.7526  -16.6640   20.9031 C   0  0  0  0  0  0  0  0  0  0  0  0
   11.4469  -18.0159   20.9562 C   0  0  0  0  0  0  0  0  0  0  0  0
   10.7739  -18.7094   22.0890 C   0  0  0  0  0  0  0  0  0  0  0  0
    9.6388  -17.8218   22.5366 C   0  0  1  0  0  0  0  0  0  0  0  0
    9.9600  -17.0215   23.7322 C   0  0  0  0  0  0  0  0  0  0  0  0
   10.7542  -16.0489   23.6044 O   0  0  0  0  0  0  0  0  0  0  0  0
    9.4441  -17.2623   25.0130 N   0  0  0  0  0  0  0  0  0  0  0  0
    9.8196  -16.4811   26.2058 C   0  0  1  0  0  0  0  0  0  0  0  0
    8.5802  -16.1235   26.9875 C   0  0  0  0  0  0  0  0  0  0  0  0
    7.8252  -15.0771   26.2756 C   0  0  0  0  0  0  0  0  0  0  0  0
    8.2558  -14.4692   25.0837 C   0  0  0  0  0  0  0  0  0  0  0  0
    7.3356  -13.5667   24.7104 N   0  0  0  0  0  0  0  0  0  0  0  0
    6.3459  -13.5698   25.6006 C   0  0  0  0  0  0  0  0  0  0  0  0
    6.6550  -14.4761   26.5259 N   0  0  0  0  0  0  0  0  0  0  0  0
   10.6244  -17.4097   27.0664 C   0  0  0  0  0  0  0  0  0  0  0  0
   10.6216  -18.6547   26.7625 O   0  0  0  0  0  0  0  0  0  0  0  0
   11.3686  -17.0689   28.1501 O   0  0  0  0  0  0  0  0  0  0  0  0
  2  1  1  1
  3  2  1  0
  4  2  1  0
  5  6  1  1
  5  4  1  0
  7  8  2  0
  7  5  1  0
  9  7  1  0
 10  9  1  0
 11 10  1  0
 12 11  1  0
 12 13  1  0
 13 14  1  1
 13  9  1  0
 14 15  2  0
 16 17  1  0
 16 14  1  0
 18 19  1  0
 17 18  1  1
 19 23  1  0
 20 19  2  0
 20 21  1  0
 21 22  1  0
 23 22  2  0
 24 17  1  0
 25 24  2  0
 26 24  1  0
M  END
$$$$
