EKV.pdb
     RDKit          3D

 26 25  0  0  1  0  0  0  0  0999 V2000
   21.9424  -10.2992  -20.1066 N   0  0  0  0  0  0  0  0  0  0  0  0
   21.5025   -8.9392  -20.1650 C   0  0  1  0  0  0  0  0  0  0  0  0
   20.5132   -8.6135  -21.2225 C   0  0  0  0  0  0  0  0  0  0  0  0
   20.8506   -8.9812  -22.6203 C   0  0  0  0  0  0  0  0  0  0  0  0
   21.8509   -8.1547  -23.3061 C   0  0  0  0  0  0  0  0  0  0  0  0
   22.9695   -8.5819  -23.6381 O   0  0  0  0  0  0  0  0  0  0  0  0
   21.1082   -8.4298  -18.8232 C   0  0  0  0  0  0  0  0  0  0  0  0
   20.6819   -7.2444  -18.7013 O   0  0  0  0  0  0  0  0  0  0  0  0
   21.6011   -6.8079  -23.6346 O   0  0  0  0  0  0  0  0  0  0  0  0
   21.1794   -9.2045  -17.6443 N   0  0  0  0  0  0  0  0  0  0  0  0
   20.6631   -8.7523  -16.3452 C   0  0  1  0  0  0  0  0  0  0  0  0
   20.2102   -9.9160  -15.5299 C   0  0  0  0  0  0  0  0  0  0  0  0
   18.9010  -10.4468  -16.0278 C   0  0  0  0  0  0  0  0  0  0  0  0
   18.4925  -11.7086  -15.2704 C   0  0  0  0  0  0  0  0  0  0  0  0
   17.2218  -12.2952  -15.8105 C   0  0  0  0  0  0  0  0  0  0  0  0
   16.9807  -13.5563  -15.1322 N   0  0  0  0  0  0  0  0  0  0  0  0
   21.5961   -7.8353  -15.6928 C   0  0  0  0  0  0  0  0  0  0  0  0
   22.7891   -8.1125  -15.5156 O   0  0  0  0  0  0  0  0  0  0  0  0
   22.1553   -4.2624  -16.8733 C   0  0  0  0  0  0  0  0  0  0  0  0
   21.9255   -4.2418  -15.3847 C   0  0  1  0  0  0  0  0  0  0  0  0
   20.5060   -3.7781  -15.1434 C   0  0  0  0  0  0  0  0  0  0  0  0
   22.0757   -5.6006  -14.7674 C   0  0  2  0  0  0  0  0  0  0  0  0
   21.1402   -6.5744  -15.2386 N   0  0  0  0  0  0  0  0  0  0  0  0
   21.8952   -5.4579  -13.3012 C   0  0  0  0  0  0  0  0  0  0  0  0
   22.6532   -4.7668  -12.5693 O   0  0  0  0  0  0  0  0  0  0  0  0
   20.8419   -6.1005  -12.6266 O   0  0  0  0  0  0  0  0  0  0  0  0
  2  1  1  1
  2  7  1  0
  3  4  1  0
  3  2  1  0
  4  5  1  0
  5  6  2  0
  5  9  1  0
  7  8  2  0
 10  7  1  0
 10 11  1  0
 11 17  1  0
 12 13  1  0
 11 12  1  1
 13 14  1  0
 14 15  1  0
 15 16  1  0
 17 18  2  0
 20 19  1  6
 20 22  1  0
 21 20  1  0
 22 24  1  0
 23 17  1  0
 22 23  1  6
 24 25  2  0
 24 26  1  0
M  END
$$$$
