EKV.pdb
     RDKit          3D

 26 25  0  0  1  0  0  0  0  0999 V2000
   18.8491  -14.1652  -17.6170 N   0  0  0  0  0  0  0  0  0  0  0  0
   19.1702  -13.2391  -16.5750 C   0  0  1  0  0  0  0  0  0  0  0  0
   20.6124  -12.9533  -16.3714 C   0  0  0  0  0  0  0  0  0  0  0  0
   21.5597  -13.3993  -17.4233 C   0  0  0  0  0  0  0  0  0  0  0  0
   22.6412  -12.4752  -17.7843 C   0  0  0  0  0  0  0  0  0  0  0  0
   22.4688  -11.4818  -18.5105 O   0  0  0  0  0  0  0  0  0  0  0  0
   18.3393  -12.0069  -16.6580 C   0  0  0  0  0  0  0  0  0  0  0  0
   18.0374  -11.5275  -17.7897 O   0  0  0  0  0  0  0  0  0  0  0  0
   23.9594  -12.6600  -17.3234 O   0  0  0  0  0  0  0  0  0  0  0  0
   17.8511  -11.3191  -15.5250 N   0  0  0  0  0  0  0  0  0  0  0  0
   16.9572  -10.1559  -15.6063 C   0  0  1  0  0  0  0  0  0  0  0  0
   15.7331  -10.3801  -14.7845 C   0  0  0  0  0  0  0  0  0  0  0  0
   14.7684   -9.2438  -14.9322 C   0  0  0  0  0  0  0  0  0  0  0  0
   13.4822   -9.5061  -14.1514 C   0  0  0  0  0  0  0  0  0  0  0  0
   12.4566   -8.4383  -14.3933 C   0  0  0  0  0  0  0  0  0  0  0  0
   11.1933   -8.8889  -13.8367 N   0  0  0  0  0  0  0  0  0  0  0  0
   17.6809   -8.9111  -15.3543 C   0  0  0  0  0  0  0  0  0  0  0  0
   18.3640   -8.7313  -14.3381 O   0  0  0  0  0  0  0  0  0  0  0  0
   20.2207   -7.3003  -17.7072 C   0  0  0  0  0  0  0  0  0  0  0  0
   19.1981   -6.2658  -17.3153 C   0  0  1  0  0  0  0  0  0  0  0  0
   18.2362   -6.1067  -18.4719 C   0  0  0  0  0  0  0  0  0  0  0  0
   18.4043   -6.6787  -16.1114 C   0  0  2  0  0  0  0  0  0  0  0  0
   17.6137   -7.8561  -16.2958 N   0  0  0  0  0  0  0  0  0  0  0  0
   17.4935   -5.5607  -15.7604 C   0  0  0  0  0  0  0  0  0  0  0  0
   16.2452   -5.5992  -15.9280 O   0  0  0  0  0  0  0  0  0  0  0  0
   17.9821   -4.3640  -15.2065 O   0  0  0  0  0  0  0  0  0  0  0  0
  2  1  1  6
  2  7  1  0
  3  4  1  0
  3  2  1  0
  4  5  1  0
  5  6  2  0
  5  9  1  0
  7  8  2  0
 10  7  1  0
 10 11  1  0
 11 17  1  0
 12 13  1  0
 11 12  1  1
 13 14  1  0
 14 15  1  0
 15 16  1  0
 17 18  2  0
 20 19  1  6
 20 22  1  0
 21 20  1  0
 22 24  1  0
 23 17  1  0
 22 23  1  6
 24 25  2  0
 24 26  1  0
M  END
$$$$
