EKV.pdb
     RDKit          3D

 26 25  0  0  1  0  0  0  0  0999 V2000
   19.6171  -11.8800  -18.9985 N   0  0  0  0  0  0  0  0  0  0  0  0
   20.6240  -11.2271  -18.2197 C   0  0  1  0  0  0  0  0  0  0  0  0
   21.9384  -11.0276  -18.8795 C   0  0  0  0  0  0  0  0  0  0  0  0
   22.6722  -12.2345  -19.3355 C   0  0  0  0  0  0  0  0  0  0  0  0
   23.6710  -12.7959  -18.4183 C   0  0  0  0  0  0  0  0  0  0  0  0
   24.4515  -12.0929  -17.7546 O   0  0  0  0  0  0  0  0  0  0  0  0
   20.1047   -9.9913  -17.5726 C   0  0  0  0  0  0  0  0  0  0  0  0
   19.6119   -9.0685  -18.2849 O   0  0  0  0  0  0  0  0  0  0  0  0
   23.8082  -14.1854  -18.2314 O   0  0  0  0  0  0  0  0  0  0  0  0
   20.1252   -9.7755  -16.1769 N   0  0  0  0  0  0  0  0  0  0  0  0
   19.6474   -8.5401  -15.5410 C   0  0  1  0  0  0  0  0  0  0  0  0
   18.4830   -8.8263  -14.6544 C   0  0  0  0  0  0  0  0  0  0  0  0
   17.3260   -9.3633  -15.4397 C   0  0  0  0  0  0  0  0  0  0  0  0
   16.0965   -9.5516  -14.5532 C   0  0  0  0  0  0  0  0  0  0  0  0
   14.8894   -9.9453  -15.3521 C   0  0  0  0  0  0  0  0  0  0  0  0
   13.8232  -10.2827  -14.4257 N   0  0  0  0  0  0  0  0  0  0  0  0
   20.7488   -7.7947  -14.9342 C   0  0  0  0  0  0  0  0  0  0  0  0
   21.5642   -8.3187  -14.1648 O   0  0  0  0  0  0  0  0  0  0  0  0
   23.0897   -5.4273  -17.0389 C   0  0  0  0  0  0  0  0  0  0  0  0
   22.6424   -4.7511  -15.7693 C   0  0  1  0  0  0  0  0  0  0  0  0
   21.5500   -3.7688  -16.1299 C   0  0  0  0  0  0  0  0  0  0  0  0
   22.0765   -5.7229  -14.7766 C   0  0  2  0  0  0  0  0  0  0  0  0
   20.9098   -6.4185  -15.2243 N   0  0  0  0  0  0  0  0  0  0  0  0
   21.7216   -4.9668  -13.5498 C   0  0  0  0  0  0  0  0  0  0  0  0
   20.5376   -4.7973  -13.1531 O   0  0  0  0  0  0  0  0  0  0  0  0
   22.7097   -4.3815  -12.7383 O   0  0  0  0  0  0  0  0  0  0  0  0
  2  1  1  6
  2  7  1  0
  3  4  1  0
  3  2  1  0
  4  5  1  0
  5  6  2  0
  5  9  1  0
  7  8  2  0
 10  7  1  0
 10 11  1  0
 11 17  1  0
 12 13  1  0
 11 12  1  1
 13 14  1  0
 14 15  1  0
 15 16  1  0
 17 18  2  0
 20 19  1  6
 20 22  1  0
 21 20  1  0
 22 24  1  0
 23 17  1  0
 22 23  1  6
 24 25  2  0
 24 26  1  0
M  END
$$$$
