EKV.pdb
     RDKit          3D

 26 25  0  0  1  0  0  0  0  0999 V2000
   25.7853  -21.7177  -13.2753 N   0  0  0  0  0  0  0  0  0  0  0  0
   25.4151  -21.4666  -14.6341 C   0  0  1  0  0  0  0  0  0  0  0  0
   25.9139  -22.4364  -15.6409 C   0  0  0  0  0  0  0  0  0  0  0  0
   27.3733  -22.7041  -15.6778 C   0  0  0  0  0  0  0  0  0  0  0  0
   28.0877  -22.3461  -16.9088 C   0  0  0  0  0  0  0  0  0  0  0  0
   29.3202  -22.4468  -17.0300 O   0  0  0  0  0  0  0  0  0  0  0  0
   23.9587  -21.1889  -14.7659 C   0  0  0  0  0  0  0  0  0  0  0  0
   23.4997  -20.7458  -15.8589 O   0  0  0  0  0  0  0  0  0  0  0  0
   27.4108  -21.8595  -18.0443 O   0  0  0  0  0  0  0  0  0  0  0  0
   23.0292  -21.3945  -13.7224 N   0  0  0  0  0  0  0  0  0  0  0  0
   21.5868  -21.1525  -13.8629 C   0  0  1  0  0  0  0  0  0  0  0  0
   20.8231  -21.9590  -12.8678 C   0  0  0  0  0  0  0  0  0  0  0  0
   19.3466  -21.8088  -13.0704 C   0  0  0  0  0  0  0  0  0  0  0  0
   18.5626  -22.6381  -12.0554 C   0  0  0  0  0  0  0  0  0  0  0  0
   17.0870  -22.3848  -12.1508 C   0  0  0  0  0  0  0  0  0  0  0  0
   16.4359  -23.0816  -11.0556 N   0  0  0  0  0  0  0  0  0  0  0  0
   21.2887  -19.7218  -13.8947 C   0  0  0  0  0  0  0  0  0  0  0  0
   21.3868  -18.9982  -12.8956 O   0  0  0  0  0  0  0  0  0  0  0  0
   22.6750  -17.0397  -16.3376 C   0  0  0  0  0  0  0  0  0  0  0  0
   21.1692  -16.9981  -16.3283 C   0  0  1  0  0  0  0  0  0  0  0  0
   20.6807  -17.6940  -17.5794 C   0  0  0  0  0  0  0  0  0  0  0  0
   20.5880  -17.7165  -15.1467 C   0  0  2  0  0  0  0  0  0  0  0  0
   20.8708  -19.1178  -15.1048 N   0  0  0  0  0  0  0  0  0  0  0  0
   19.1145  -17.5434  -15.1874 C   0  0  0  0  0  0  0  0  0  0  0  0
   18.3080  -18.4836  -15.4185 O   0  0  0  0  0  0  0  0  0  0  0  0
   18.5177  -16.2897  -14.9647 O   0  0  0  0  0  0  0  0  0  0  0  0
  2  1  1  1
  2  7  1  0
  3  4  1  0
  3  2  1  0
  4  5  1  0
  5  6  2  0
  5  9  1  0
  7  8  2  0
 10  7  1  0
 10 11  1  0
 11 17  1  0
 12 13  1  0
 11 12  1  1
 13 14  1  0
 14 15  1  0
 15 16  1  0
 17 18  2  0
 20 19  1  1
 20 22  1  0
 21 20  1  0
 22 24  1  0
 23 17  1  0
 22 23  1  6
 24 25  2  0
 24 26  1  0
M  END
$$$$
