EKV.pdb
     RDKit          3D

 26 25  0  0  1  0  0  0  0  0999 V2000
   29.7702  -22.9265  -16.1540 N   0  0  0  0  0  0  0  0  0  0  0  0
   28.9471  -21.9441  -16.7895 C   0  0  1  0  0  0  0  0  0  0  0  0
   28.3767  -22.3181  -18.1078 C   0  0  0  0  0  0  0  0  0  0  0  0
   29.0533  -23.3955  -18.8722 C   0  0  0  0  0  0  0  0  0  0  0  0
   28.1952  -24.3734  -19.5514 C   0  0  0  0  0  0  0  0  0  0  0  0
   27.5001  -24.0915  -20.5420 O   0  0  0  0  0  0  0  0  0  0  0  0
   27.9324  -21.3868  -15.8539 C   0  0  0  0  0  0  0  0  0  0  0  0
   28.2115  -21.2621  -14.6257 O   0  0  0  0  0  0  0  0  0  0  0  0
   28.1054  -25.7101  -19.1161 O   0  0  0  0  0  0  0  0  0  0  0  0
   26.6431  -20.9755  -16.2583 N   0  0  0  0  0  0  0  0  0  0  0  0
   25.7595  -20.1464  -15.4272 C   0  0  1  0  0  0  0  0  0  0  0  0
   24.8132  -19.3734  -16.2822 C   0  0  0  0  0  0  0  0  0  0  0  0
   23.8335  -18.6078  -15.4469 C   0  0  0  0  0  0  0  0  0  0  0  0
   22.8248  -17.8648  -16.3205 C   0  0  0  0  0  0  0  0  0  0  0  0
   21.8820  -17.0355  -15.4996 C   0  0  0  0  0  0  0  0  0  0  0  0
   20.8879  -16.4638  -16.3907 N   0  0  0  0  0  0  0  0  0  0  0  0
   25.1583  -20.9276  -14.3478 C   0  0  0  0  0  0  0  0  0  0  0  0
   24.3905  -21.8751  -14.5585 O   0  0  0  0  0  0  0  0  0  0  0  0
   27.0743  -21.4907  -10.7590 C   0  0  0  0  0  0  0  0  0  0  0  0
   25.5924  -21.2551  -10.6258 C   0  0  1  0  0  0  0  0  0  0  0  0
   25.3933  -19.8446  -10.1170 C   0  0  0  0  0  0  0  0  0  0  0  0
   24.8776  -21.3745  -11.9392 C   0  0  2  0  0  0  0  0  0  0  0  0
   25.4520  -20.6072  -13.0006 N   0  0  0  0  0  0  0  0  0  0  0  0
   23.4801  -20.9156  -11.7411 C   0  0  0  0  0  0  0  0  0  0  0  0
   23.0157  -19.8574  -12.2433 O   0  0  0  0  0  0  0  0  0  0  0  0
   22.5702  -21.6531  -10.9627 O   0  0  0  0  0  0  0  0  0  0  0  0
  2  1  1  1
  2  7  1  0
  3  4  1  0
  3  2  1  0
  4  5  1  0
  5  6  2  0
  5  9  1  0
  7  8  2  0
 10  7  1  0
 10 11  1  0
 11 17  1  0
 12 13  1  0
 11 12  1  6
 13 14  1  0
 14 15  1  0
 15 16  1  0
 17 18  2  0
 20 19  1  6
 20 22  1  0
 21 20  1  0
 22 24  1  0
 23 17  1  0
 22 23  1  6
 24 25  2  0
 24 26  1  0
M  END
$$$$
