EKV.pdb
     RDKit          3D

 26 25  0  0  1  0  0  0  0  0999 V2000
   17.6440  -12.0046  -13.3977 N   0  0  0  0  0  0  0  0  0  0  0  0
   17.5092  -10.6348  -13.7874 C   0  0  1  0  0  0  0  0  0  0  0  0
   17.1550  -10.3876  -15.2074 C   0  0  0  0  0  0  0  0  0  0  0  0
   18.2468  -10.4452  -16.2113 C   0  0  0  0  0  0  0  0  0  0  0  0
   19.0660   -9.2388  -16.3779 C   0  0  0  0  0  0  0  0  0  0  0  0
   18.8845   -8.2009  -15.7193 O   0  0  0  0  0  0  0  0  0  0  0  0
   16.6572   -9.8723  -12.8344 C   0  0  0  0  0  0  0  0  0  0  0  0
   16.4200   -8.6471  -13.0453 O   0  0  0  0  0  0  0  0  0  0  0  0
   20.1229   -9.1826  -17.3073 O   0  0  0  0  0  0  0  0  0  0  0  0
   16.0790  -10.4425  -11.6788 N   0  0  0  0  0  0  0  0  0  0  0  0
   15.1754   -9.7115  -10.7800 C   0  0  1  0  0  0  0  0  0  0  0  0
   14.3253  -10.6629  -10.0079 C   0  0  0  0  0  0  0  0  0  0  0  0
   13.2762  -11.2799  -10.8811 C   0  0  0  0  0  0  0  0  0  0  0  0
   12.4339  -12.2892  -10.1036 C   0  0  0  0  0  0  0  0  0  0  0  0
   11.3795  -12.9166  -10.9668 C   0  0  0  0  0  0  0  0  0  0  0  0
   10.5633  -13.7788  -10.1307 N   0  0  0  0  0  0  0  0  0  0  0  0
   15.9000   -8.7144   -9.9940 C   0  0  0  0  0  0  0  0  0  0  0  0
   16.8669   -9.0043   -9.2780 O   0  0  0  0  0  0  0  0  0  0  0  0
   17.6899   -5.5682  -11.0882 C   0  0  0  0  0  0  0  0  0  0  0  0
   16.6753   -5.1906  -10.0406 C   0  0  1  0  0  0  0  0  0  0  0  0
   15.4828   -4.5876  -10.7495 C   0  0  0  0  0  0  0  0  0  0  0  0
   16.1938   -6.3784   -9.2614 C   0  0  2  0  0  0  0  0  0  0  0  0
   15.4991   -7.3576  -10.0387 N   0  0  0  0  0  0  0  0  0  0  0  0
   15.2731   -5.8883   -8.2055 C   0  0  0  0  0  0  0  0  0  0  0  0
   14.0367   -6.1314   -8.1905 O   0  0  0  0  0  0  0  0  0  0  0  0
   15.7379   -5.1054   -7.1338 O   0  0  0  0  0  0  0  0  0  0  0  0
  2  1  1  1
  2  7  1  0
  3  4  1  0
  3  2  1  0
  4  5  1  0
  5  6  2  0
  5  9  1  0
  7  8  2  0
 10  7  1  0
 10 11  1  0
 11 17  1  0
 12 13  1  0
 11 12  1  1
 13 14  1  0
 14 15  1  0
 15 16  1  0
 17 18  2  0
 20 19  1  6
 20 22  1  0
 21 20  1  0
 22 24  1  0
 23 17  1  0
 22 23  1  6
 24 25  2  0
 24 26  1  0
M  END
$$$$
