EKV.pdb
     RDKit          3D

 26 25  0  0  1  0  0  0  0  0999 V2000
   22.5284  -15.0593  -18.7426 N   0  0  0  0  0  0  0  0  0  0  0  0
   22.4414  -15.3805  -17.3512 C   0  0  1  0  0  0  0  0  0  0  0  0
   21.3490  -14.7222  -16.5921 C   0  0  0  0  0  0  0  0  0  0  0  0
   21.3524  -13.2396  -16.5231 C   0  0  0  0  0  0  0  0  0  0  0  0
   20.5820  -12.5211  -17.5450 C   0  0  0  0  0  0  0  0  0  0  0  0
   19.8435  -13.0943  -18.3636 O   0  0  0  0  0  0  0  0  0  0  0  0
   22.5071  -16.8494  -17.1199 C   0  0  0  0  0  0  0  0  0  0  0  0
   21.5564  -17.5897  -17.5070 O   0  0  0  0  0  0  0  0  0  0  0  0
   20.6329  -11.1183  -17.6623 O   0  0  0  0  0  0  0  0  0  0  0  0
   23.5916  -17.4892  -16.4799 N   0  0  0  0  0  0  0  0  0  0  0  0
   23.6283  -18.9300  -16.1945 C   0  0  1  0  0  0  0  0  0  0  0  0
   25.0211  -19.4499  -16.3120 C   0  0  0  0  0  0  0  0  0  0  0  0
   25.0609  -20.9349  -16.1201 C   0  0  0  0  0  0  0  0  0  0  0  0
   26.4907  -21.4649  -16.2067 C   0  0  0  0  0  0  0  0  0  0  0  0
   26.5306  -22.9644  -16.1858 C   0  0  0  0  0  0  0  0  0  0  0  0
   27.9217  -23.3805  -16.1628 N   0  0  0  0  0  0  0  0  0  0  0  0
   22.9288  -19.2431  -14.9497 C   0  0  0  0  0  0  0  0  0  0  0  0
   23.3321  -18.8603  -13.8441 O   0  0  0  0  0  0  0  0  0  0  0  0
   19.3308  -18.4421  -14.1208 C   0  0  0  0  0  0  0  0  0  0  0  0
   19.5527  -19.9080  -13.8536 C   0  0  1  0  0  0  0  0  0  0  0  0
   18.9463  -20.6832  -15.0023 C   0  0  0  0  0  0  0  0  0  0  0  0
   21.0094  -20.2585  -13.7814 C   0  0  2  0  0  0  0  0  0  0  0  0
   21.7406  -20.0118  -14.9856 N   0  0  0  0  0  0  0  0  0  0  0  0
   21.1152  -21.7045  -13.4644 C   0  0  0  0  0  0  0  0  0  0  0  0
   21.5270  -22.5696  -14.2828 O   0  0  0  0  0  0  0  0  0  0  0  0
   20.7538  -22.2060  -12.2012 O   0  0  0  0  0  0  0  0  0  0  0  0
  2  1  1  6
  2  7  1  0
  3  4  1  0
  3  2  1  0
  4  5  1  0
  5  6  2  0
  5  9  1  0
  7  8  2  0
 10  7  1  0
 10 11  1  0
 11 17  1  0
 12 13  1  0
 11 12  1  1
 13 14  1  0
 14 15  1  0
 15 16  1  0
 17 18  2  0
 20 19  1  6
 20 22  1  0
 21 20  1  0
 22 24  1  0
 23 17  1  0
 22 23  1  6
 24 25  2  0
 24 26  1  0
M  END
$$$$
