EKV.pdb
     RDKit          3D

 26 25  0  0  1  0  0  0  0  0999 V2000
   19.0008  -15.0914  -17.3466 N   0  0  0  0  0  0  0  0  0  0  0  0
   18.4897  -13.8854  -17.9218 C   0  0  1  0  0  0  0  0  0  0  0  0
   17.0627  -13.5811  -17.6498 C   0  0  0  0  0  0  0  0  0  0  0  0
   16.7015  -13.1293  -16.2830 C   0  0  0  0  0  0  0  0  0  0  0  0
   15.2752  -12.9315  -15.9994 C   0  0  0  0  0  0  0  0  0  0  0  0
   14.5162  -13.8575  -15.6673 O   0  0  0  0  0  0  0  0  0  0  0  0
   19.3901  -12.7282  -17.6655 C   0  0  0  0  0  0  0  0  0  0  0  0
   20.0328  -12.6609  -16.5773 O   0  0  0  0  0  0  0  0  0  0  0  0
   14.6706  -11.6623  -16.0875 O   0  0  0  0  0  0  0  0  0  0  0  0
   19.5806  -11.6715  -18.5831 N   0  0  0  0  0  0  0  0  0  0  0  0
   20.5986  -10.6255  -18.4144 C   0  0  1  0  0  0  0  0  0  0  0  0
   20.7877   -9.8714  -19.6870 C   0  0  0  0  0  0  0  0  0  0  0  0
   21.9608   -8.9444  -19.5957 C   0  0  0  0  0  0  0  0  0  0  0  0
   22.2189   -8.2471  -20.9298 C   0  0  0  0  0  0  0  0  0  0  0  0
   23.4380   -7.3745  -20.8751 C   0  0  0  0  0  0  0  0  0  0  0  0
   23.6209   -6.7691  -22.1823 N   0  0  0  0  0  0  0  0  0  0  0  0
   20.3399   -9.8197  -17.2226 C   0  0  0  0  0  0  0  0  0  0  0  0
   19.2078   -9.4220  -16.9198 O   0  0  0  0  0  0  0  0  0  0  0  0
   23.2823   -9.4485  -14.0570 C   0  0  0  0  0  0  0  0  0  0  0  0
   21.7853   -9.3355  -13.9321 C   0  0  1  0  0  0  0  0  0  0  0  0
   21.4876   -8.4146  -12.7696 C   0  0  0  0  0  0  0  0  0  0  0  0
   21.1555   -8.7449  -15.1587 C   0  0  2  0  0  0  0  0  0  0  0  0
   21.4105   -9.4690  -16.3654 N   0  0  0  0  0  0  0  0  0  0  0  0
   21.6847   -7.3683  -15.3251 C   0  0  0  0  0  0  0  0  0  0  0  0
   22.5312   -7.0479  -16.2017 O   0  0  0  0  0  0  0  0  0  0  0  0
   21.2617   -6.3154  -14.4944 O   0  0  0  0  0  0  0  0  0  0  0  0
  2  1  1  1
  2  7  1  0
  3  4  1  0
  3  2  1  0
  4  5  1  0
  5  6  2  0
  5  9  1  0
  7  8  2  0
 10  7  1  0
 10 11  1  0
 11 17  1  0
 12 13  1  0
 11 12  1  6
 13 14  1  0
 14 15  1  0
 15 16  1  0
 17 18  2  0
 20 19  1  6
 20 22  1  0
 21 20  1  0
 22 24  1  0
 23 17  1  0
 22 23  1  6
 24 25  2  0
 24 26  1  0
M  END
$$$$
