EKV.pdb
     RDKit          3D

 26 25  0  0  1  0  0  0  0  0999 V2000
   17.9446  -10.6862  -18.8171 N   0  0  0  0  0  0  0  0  0  0  0  0
   18.5408  -10.6833  -17.5167 C   0  0  1  0  0  0  0  0  0  0  0  0
   19.8004  -11.4544  -17.3697 C   0  0  0  0  0  0  0  0  0  0  0  0
   21.0341  -10.8811  -17.9634 C   0  0  0  0  0  0  0  0  0  0  0  0
   22.2920  -11.5926  -17.7078 C   0  0  0  0  0  0  0  0  0  0  0  0
   22.3662  -12.5960  -16.9786 O   0  0  0  0  0  0  0  0  0  0  0  0
   18.6323   -9.3077  -16.9558 C   0  0  0  0  0  0  0  0  0  0  0  0
   19.1919   -8.3916  -17.6261 O   0  0  0  0  0  0  0  0  0  0  0  0
   23.5093  -11.1762  -18.2813 O   0  0  0  0  0  0  0  0  0  0  0  0
   18.1202   -8.9472  -15.6897 N   0  0  0  0  0  0  0  0  0  0  0  0
   18.1380   -7.5731  -15.1699 C   0  0  1  0  0  0  0  0  0  0  0  0
   16.8625   -7.2670  -14.4605 C   0  0  0  0  0  0  0  0  0  0  0  0
   15.6807   -7.4963  -15.3520 C   0  0  0  0  0  0  0  0  0  0  0  0
   14.3791   -7.1053  -14.6552 C   0  0  0  0  0  0  0  0  0  0  0  0
   13.2039   -7.1884  -15.5840 C   0  0  0  0  0  0  0  0  0  0  0  0
   12.0196   -6.7708  -14.8548 N   0  0  0  0  0  0  0  0  0  0  0  0
   19.3673   -7.3022  -14.4266 C   0  0  0  0  0  0  0  0  0  0  0  0
   19.6909   -7.9417  -13.4178 O   0  0  0  0  0  0  0  0  0  0  0  0
   22.8779   -7.5244  -15.5823 C   0  0  0  0  0  0  0  0  0  0  0  0
   22.6950   -6.1404  -15.0163 C   0  0  1  0  0  0  0  0  0  0  0  0
   22.5398   -5.1838  -16.1778 C   0  0  0  0  0  0  0  0  0  0  0  0
   21.4647   -6.0324  -14.1650 C   0  0  2  0  0  0  0  0  0  0  0  0
   20.2380   -6.2735  -14.8597 N   0  0  0  0  0  0  0  0  0  0  0  0
   21.4167   -4.6587  -13.6052 C   0  0  0  0  0  0  0  0  0  0  0  0
   22.2775   -4.2004  -12.8072 O   0  0  0  0  0  0  0  0  0  0  0  0
   20.3830   -3.7664  -13.9411 O   0  0  0  0  0  0  0  0  0  0  0  0
  2  1  1  6
  2  7  1  0
  3  4  1  0
  3  2  1  0
  4  5  1  0
  5  6  2  0
  5  9  1  0
  7  8  2  0
 10  7  1  0
 10 11  1  0
 11 17  1  0
 12 13  1  0
 11 12  1  1
 13 14  1  0
 14 15  1  0
 15 16  1  0
 17 18  2  0
 20 19  1  6
 20 22  1  0
 21 20  1  0
 22 24  1  0
 23 17  1  0
 22 23  1  6
 24 25  2  0
 24 26  1  0
M  END
$$$$
