EKV.pdb
     RDKit          3D

 26 25  0  0  1  0  0  0  0  0999 V2000
   14.9301   -9.9167  -15.2554 N   0  0  0  0  0  0  0  0  0  0  0  0
   16.0201  -10.4495  -14.4974 C   0  0  1  0  0  0  0  0  0  0  0  0
   16.1414  -11.9285  -14.4718 C   0  0  0  0  0  0  0  0  0  0  0  0
   15.5313  -12.6908  -15.5896 C   0  0  0  0  0  0  0  0  0  0  0  0
   15.8115  -14.1302  -15.6486 C   0  0  0  0  0  0  0  0  0  0  0  0
   16.9568  -14.5919  -15.7872 O   0  0  0  0  0  0  0  0  0  0  0  0
   17.3022   -9.7665  -14.8216 C   0  0  0  0  0  0  0  0  0  0  0  0
   18.3608  -10.0935  -14.2098 O   0  0  0  0  0  0  0  0  0  0  0  0
   14.7854  -15.0902  -15.5503 O   0  0  0  0  0  0  0  0  0  0  0  0
   17.4185   -8.7498  -15.7952 N   0  0  0  0  0  0  0  0  0  0  0  0
   18.6893   -8.0957  -16.1358 C   0  0  1  0  0  0  0  0  0  0  0  0
   18.5329   -7.2563  -17.3584 C   0  0  0  0  0  0  0  0  0  0  0  0
   17.1029   -7.2100  -17.8019 C   0  0  0  0  0  0  0  0  0  0  0  0
   16.9219   -6.2614  -18.9851 C   0  0  0  0  0  0  0  0  0  0  0  0
   15.4877   -6.1775  -19.4170 C   0  0  0  0  0  0  0  0  0  0  0  0
   15.3897   -5.1855  -20.4729 N   0  0  0  0  0  0  0  0  0  0  0  0
   19.2742   -7.4325  -14.9718 C   0  0  0  0  0  0  0  0  0  0  0  0
   18.6037   -6.7499  -14.1869 O   0  0  0  0  0  0  0  0  0  0  0  0
   21.4079   -9.1260  -12.2053 C   0  0  0  0  0  0  0  0  0  0  0  0
   22.1360   -7.9351  -12.7719 C   0  0  1  0  0  0  0  0  0  0  0  0
   23.1699   -8.4487  -13.7494 C   0  0  0  0  0  0  0  0  0  0  0  0
   21.2195   -7.0102  -13.5167 C   0  0  2  0  0  0  0  0  0  0  0  0
   20.6594   -7.5628  -14.7110 N   0  0  0  0  0  0  0  0  0  0  0  0
   21.9952   -5.8002  -13.8868 C   0  0  0  0  0  0  0  0  0  0  0  0
   22.2605   -5.4786  -15.0759 O   0  0  0  0  0  0  0  0  0  0  0  0
   22.4912   -4.9203  -12.9084 O   0  0  0  0  0  0  0  0  0  0  0  0
  2  1  1  6
  2  7  1  0
  3  4  1  0
  3  2  1  0
  4  5  1  0
  5  6  2  0
  5  9  1  0
  7  8  2  0
 10  7  1  0
 10 11  1  0
 11 17  1  0
 12 13  1  0
 11 12  1  6
 13 14  1  0
 14 15  1  0
 15 16  1  0
 17 18  2  0
 20 19  1  6
 20 22  1  0
 21 20  1  0
 22 24  1  0
 23 17  1  0
 22 23  1  6
 24 25  2  0
 24 26  1  0
M  END
$$$$
