EKV.pdb
     RDKit          3D

 26 25  0  0  1  0  0  0  0  0999 V2000
   24.2218  -17.8515  -17.5124 N   0  0  0  0  0  0  0  0  0  0  0  0
   23.2843  -18.7456  -16.9056 C   0  0  1  0  0  0  0  0  0  0  0  0
   22.3382  -19.4277  -17.8235 C   0  0  0  0  0  0  0  0  0  0  0  0
   21.4256  -18.5792  -18.6297 C   0  0  0  0  0  0  0  0  0  0  0  0
   21.3675  -18.8430  -20.0723 C   0  0  0  0  0  0  0  0  0  0  0  0
   20.6335  -18.2075  -20.8478 O   0  0  0  0  0  0  0  0  0  0  0  0
   23.9492  -19.6798  -15.9565 C   0  0  0  0  0  0  0  0  0  0  0  0
   23.3027  -20.6587  -15.4815 O   0  0  0  0  0  0  0  0  0  0  0  0
   22.1509  -19.8467  -20.6748 O   0  0  0  0  0  0  0  0  0  0  0  0
   25.2920  -19.5423  -15.5406 N   0  0  0  0  0  0  0  0  0  0  0  0
   25.9404  -20.4487  -14.5831 C   0  0  1  0  0  0  0  0  0  0  0  0
   27.3156  -20.7968  -15.0432 C   0  0  0  0  0  0  0  0  0  0  0  0
   27.2788  -21.5228  -16.3529 C   0  0  0  0  0  0  0  0  0  0  0  0
   28.6885  -21.8331  -16.8522 C   0  0  0  0  0  0  0  0  0  0  0  0
   28.6701  -22.4718  -18.2095 C   0  0  0  0  0  0  0  0  0  0  0  0
   30.0417  -22.7470  -18.5994 N   0  0  0  0  0  0  0  0  0  0  0  0
   25.8290  -19.9448  -13.2154 C   0  0  0  0  0  0  0  0  0  0  0  0
   26.2295  -18.8217  -12.8842 O   0  0  0  0  0  0  0  0  0  0  0  0
   22.7601  -19.6417  -11.1088 C   0  0  0  0  0  0  0  0  0  0  0  0
   23.7880  -20.3489  -10.2646 C   0  0  1  0  0  0  0  0  0  0  0  0
   23.3904  -21.8058  -10.1777 C   0  0  0  0  0  0  0  0  0  0  0  0
   25.1606  -20.2827  -10.8662 C   0  0  2  0  0  0  0  0  0  0  0  0
   25.2425  -20.7550  -12.2136 N   0  0  0  0  0  0  0  0  0  0  0  0
   26.0651  -21.1108  -10.0303 C   0  0  0  0  0  0  0  0  0  0  0  0
   26.3523  -20.8392   -8.8338 O   0  0  0  0  0  0  0  0  0  0  0  0
   26.6689  -22.2756  -10.5366 O   0  0  0  0  0  0  0  0  0  0  0  0
  2  1  1  6
  2  7  1  0
  3  4  1  0
  3  2  1  0
  4  5  1  0
  5  6  2  0
  5  9  1  0
  7  8  2  0
 10  7  1  0
 10 11  1  0
 11 17  1  0
 12 13  1  0
 11 12  1  6
 13 14  1  0
 14 15  1  0
 15 16  1  0
 17 18  2  0
 20 19  1  6
 20 22  1  0
 21 20  1  0
 22 24  1  0
 23 17  1  0
 22 23  1  6
 24 25  2  0
 24 26  1  0
M  END
$$$$
