EKV.pdb
     RDKit          3D

 26 25  0  0  1  0  0  0  0  0999 V2000
   26.7342  -19.9032  -18.7681 N   0  0  0  0  0  0  0  0  0  0  0  0
   26.8613  -18.7951  -17.8722 C   0  0  1  0  0  0  0  0  0  0  0  0
   26.8143  -17.4449  -18.4866 C   0  0  0  0  0  0  0  0  0  0  0  0
   26.7876  -17.3611  -19.9683 C   0  0  0  0  0  0  0  0  0  0  0  0
   27.7330  -16.4349  -20.6026 C   0  0  0  0  0  0  0  0  0  0  0  0
   27.9053  -15.2688  -20.2097 O   0  0  0  0  0  0  0  0  0  0  0  0
   25.9585  -18.9308  -16.6967 C   0  0  0  0  0  0  0  0  0  0  0  0
   25.9558  -18.0377  -15.7999 O   0  0  0  0  0  0  0  0  0  0  0  0
   28.5140  -16.8162  -21.7112 O   0  0  0  0  0  0  0  0  0  0  0  0
   25.0792  -20.0206  -16.5118 N   0  0  0  0  0  0  0  0  0  0  0  0
   24.2225  -20.1787  -15.3286 C   0  0  1  0  0  0  0  0  0  0  0  0
   22.8773  -20.6876  -15.7227 C   0  0  0  0  0  0  0  0  0  0  0  0
   22.0324  -20.9684  -14.5181 C   0  0  0  0  0  0  0  0  0  0  0  0
   20.5919  -20.5089  -14.7344 C   0  0  0  0  0  0  0  0  0  0  0  0
   19.7329  -20.7879  -13.5366 C   0  0  0  0  0  0  0  0  0  0  0  0
   18.4179  -20.2222  -13.7804 N   0  0  0  0  0  0  0  0  0  0  0  0
   24.9069  -20.9231  -14.2729 C   0  0  0  0  0  0  0  0  0  0  0  0
   25.1922  -22.1225  -14.3807 O   0  0  0  0  0  0  0  0  0  0  0  0
   27.1260  -18.9655  -11.1535 C   0  0  0  0  0  0  0  0  0  0  0  0
   27.2699  -20.3850  -11.6366 C   0  0  1  0  0  0  0  0  0  0  0  0
   27.8202  -21.2081  -10.4930 C   0  0  0  0  0  0  0  0  0  0  0  0
   25.9556  -20.9835  -12.0421 C   0  0  2  0  0  0  0  0  0  0  0  0
   25.2685  -20.2671  -13.0717 N   0  0  0  0  0  0  0  0  0  0  0  0
   25.0821  -21.0205  -10.8428 C   0  0  0  0  0  0  0  0  0  0  0  0
   24.0710  -20.2834  -10.6935 O   0  0  0  0  0  0  0  0  0  0  0  0
   25.3375  -21.9019   -9.7772 O   0  0  0  0  0  0  0  0  0  0  0  0
  2  1  1  6
  2  7  1  0
  3  4  1  0
  3  2  1  0
  4  5  1  0
  5  6  2  0
  5  9  1  0
  7  8  2  0
 10  7  1  0
 10 11  1  0
 11 17  1  0
 12 13  1  0
 11 12  1  6
 13 14  1  0
 14 15  1  0
 15 16  1  0
 17 18  2  0
 20 19  1  1
 20 22  1  0
 21 20  1  0
 22 24  1  0
 23 17  1  0
 22 23  1  6
 24 25  2  0
 24 26  1  0
M  END
$$$$
