EKV.pdb
     RDKit          3D

 26 25  0  0  1  0  0  0  0  0999 V2000
   20.5170  -12.0406  -15.1946 N   0  0  0  0  0  0  0  0  0  0  0  0
   20.1298  -11.6129  -16.5036 C   0  0  1  0  0  0  0  0  0  0  0  0
   19.3869  -12.6012  -17.3247 C   0  0  0  0  0  0  0  0  0  0  0  0
   18.0955  -13.1068  -16.7957 C   0  0  0  0  0  0  0  0  0  0  0  0
   17.3120  -13.9853  -17.6723 C   0  0  0  0  0  0  0  0  0  0  0  0
   17.6954  -14.3303  -18.8028 O   0  0  0  0  0  0  0  0  0  0  0  0
   19.4797  -10.2742  -16.4759 C   0  0  0  0  0  0  0  0  0  0  0  0
   19.4548   -9.5657  -17.5243 O   0  0  0  0  0  0  0  0  0  0  0  0
   16.0600  -14.4984  -17.2807 O   0  0  0  0  0  0  0  0  0  0  0  0
   18.8708   -9.7279  -15.3244 N   0  0  0  0  0  0  0  0  0  0  0  0
   18.2505   -8.3964  -15.2903 C   0  0  1  0  0  0  0  0  0  0  0  0
   16.7965   -8.5060  -14.9778 C   0  0  0  0  0  0  0  0  0  0  0  0
   16.1438   -7.1578  -14.9660 C   0  0  0  0  0  0  0  0  0  0  0  0
   14.6337   -7.2769  -14.7709 C   0  0  0  0  0  0  0  0  0  0  0  0
   13.9724   -5.9316  -14.7117 C   0  0  0  0  0  0  0  0  0  0  0  0
   12.5353   -6.1347  -14.6663 N   0  0  0  0  0  0  0  0  0  0  0  0
   19.0188   -7.4735  -14.4567 C   0  0  0  0  0  0  0  0  0  0  0  0
   19.1559   -7.6335  -13.2372 O   0  0  0  0  0  0  0  0  0  0  0  0
   22.1769   -5.5808  -16.1092 C   0  0  0  0  0  0  0  0  0  0  0  0
   21.9518   -5.6006  -14.6199 C   0  0  1  0  0  0  0  0  0  0  0  0
   22.6487   -4.3936  -14.0319 C   0  0  0  0  0  0  0  0  0  0  0  0
   20.4975   -5.5099  -14.2635 C   0  0  2  0  0  0  0  0  0  0  0  0
   19.6405   -6.3462  -15.0454 N   0  0  0  0  0  0  0  0  0  0  0  0
   20.0685   -4.1019  -14.4537 C   0  0  0  0  0  0  0  0  0  0  0  0
   19.3447   -3.7167  -15.4106 O   0  0  0  0  0  0  0  0  0  0  0  0
   20.4535   -3.0909  -13.5553 O   0  0  0  0  0  0  0  0  0  0  0  0
  2  1  1  1
  2  7  1  0
  3  4  1  0
  3  2  1  0
  4  5  1  0
  5  6  2  0
  5  9  1  0
  7  8  2  0
 10  7  1  0
 10 11  1  0
 11 17  1  0
 12 13  1  0
 11 12  1  1
 13 14  1  0
 14 15  1  0
 15 16  1  0
 17 18  2  0
 20 19  1  6
 20 22  1  0
 21 20  1  0
 22 24  1  0
 23 17  1  0
 22 23  1  6
 24 25  2  0
 24 26  1  0
M  END
$$$$
