IMG.pdb
     RDKit          3D

 21 20  0  0  1  0  0  0  0  0999 V2000
   27.8784  -19.3288   -3.6779 C   0  0  0  0  0  0  0  0  0  0  0  0
   28.2869  -19.9238   -4.9856 C   0  0  0  0  0  0  0  0  0  0  0  0
   27.2429  -19.7178   -6.0735 C   0  0  2  0  0  0  0  0  0  0  0  0
   25.9258  -20.3067   -5.6962 C   0  0  0  0  0  0  0  0  0  0  0  0
   27.7941  -20.3764   -7.3138 C   0  0  2  0  0  0  0  0  0  0  0  0
   29.1636  -19.8525   -7.5582 N   0  0  0  0  0  0  0  0  0  0  0  0
   27.0046  -20.0208   -8.5090 C   0  0  0  0  0  0  0  0  0  0  0  0
   26.8704  -18.7931   -8.8421 O   0  0  0  0  0  0  0  0  0  0  0  0
   28.4070  -21.6714  -13.9026 C   0  0  0  0  0  0  0  0  0  0  0  0
   26.6568  -21.8894  -14.2641 S   0  0  0  0  0  0  0  0  0  0  0  0
   25.6695  -20.9585  -13.0375 C   0  0  0  0  0  0  0  0  0  0  0  0
   26.3043  -21.2192  -11.7066 C   0  0  0  0  0  0  0  0  0  0  0  0
   25.6442  -20.4987  -10.5698 C   0  0  2  0  0  0  0  0  0  0  0  0
   26.3655  -20.9430   -9.3494 N   0  0  0  0  0  0  0  0  0  0  0  0
   24.2351  -20.6870  -10.3685 C   0  0  0  0  0  0  0  0  0  0  0  0
   23.8421  -21.6498   -9.6189 O   0  0  0  0  0  0  0  0  0  0  0  0
   23.1805  -19.8965  -10.9228 N   0  0  0  0  0  0  0  0  0  0  0  0
   21.7931  -20.1411  -10.6049 C   0  0  0  0  0  0  0  0  0  0  0  0
   21.1821  -20.9740  -11.6462 C   0  0  0  0  0  0  0  0  0  0  0  0
   19.9513  -21.2155  -11.6096 O   0  0  0  0  0  0  0  0  0  0  0  0
   21.9640  -21.5071  -12.6899 O   0  0  0  0  0  0  0  0  0  0  0  0
  2  1  1  0
  3  2  1  0
  3  5  1  0
  3  4  1  1
  5  7  1  0
  5  6  1  6
  7  8  2  0
  9 10  1  0
 10 11  1  0
 11 12  1  0
 13 12  1  6
 14 13  1  0
 14  7  1  0
 15 17  1  0
 15 13  1  0
 16 15  2  0
 18 17  1  0
 19 18  1  0
 19 21  1  0
 20 19  2  0
M  END
$$$$
