IMG.pdb
     RDKit          3D

 21 20  0  0  1  0  0  0  0  0999 V2000
   15.1740  -12.7956  -12.8083 C   0  0  0  0  0  0  0  0  0  0  0  0
   15.0949  -12.2881  -11.4057 C   0  0  0  0  0  0  0  0  0  0  0  0
   14.9762  -10.7724  -11.3380 C   0  0  2  0  0  0  0  0  0  0  0  0
   16.1938  -10.0969  -11.8720 C   0  0  0  0  0  0  0  0  0  0  0  0
   14.7637  -10.4330   -9.8834 C   0  0  2  0  0  0  0  0  0  0  0  0
   13.5247  -11.1087   -9.4166 N   0  0  0  0  0  0  0  0  0  0  0  0
   14.5329   -8.9874   -9.6955 C   0  0  0  0  0  0  0  0  0  0  0  0
   13.3377   -8.5353   -9.6374 O   0  0  0  0  0  0  0  0  0  0  0  0
   11.2647   -5.6150   -7.8803 C   0  0  0  0  0  0  0  0  0  0  0  0
   12.5890   -5.1725   -6.7437 S   0  0  0  0  0  0  0  0  0  0  0  0
   14.1697   -5.1016   -7.6615 C   0  0  0  0  0  0  0  0  0  0  0  0
   14.4591   -6.5030   -8.1027 C   0  0  0  0  0  0  0  0  0  0  0  0
   15.2185   -6.5867   -9.3925 C   0  0  2  0  0  0  0  0  0  0  0  0
   15.5444   -8.0257   -9.5655 N   0  0  0  0  0  0  0  0  0  0  0  0
   16.4252   -5.8200   -9.5251 C   0  0  0  0  0  0  0  0  0  0  0  0
   17.4221   -6.1029   -8.7705 O   0  0  0  0  0  0  0  0  0  0  0  0
   16.6556   -4.7413  -10.4349 N   0  0  0  0  0  0  0  0  0  0  0  0
   17.8910   -3.9934  -10.4373 C   0  0  0  0  0  0  0  0  0  0  0  0
   17.8580   -2.9790  -11.4963 C   0  0  0  0  0  0  0  0  0  0  0  0
   16.9171   -2.9742  -12.3265 O   0  0  0  0  0  0  0  0  0  0  0  0
   18.8738   -2.0074  -11.5916 O   0  0  0  0  0  0  0  0  0  0  0  0
  2  1  1  0
  3  2  1  0
  3  5  1  0
  3  4  1  1
  5  7  1  0
  5  6  1  6
  7  8  2  0
  9 10  1  0
 10 11  1  0
 11 12  1  0
 13 12  1  1
 14 13  1  0
 14  7  1  0
 15 17  1  0
 15 13  1  0
 16 15  2  0
 18 17  1  0
 19 18  1  0
 19 21  1  0
 20 19  2  0
M  END
$$$$
