IMG.pdb
     RDKit          3D

 21 20  0  0  1  0  0  0  0  0999 V2000
   19.1762  -20.5805  -17.9447 C   0  0  0  0  0  0  0  0  0  0  0  0
   19.6183  -20.0087  -16.6377 C   0  0  0  0  0  0  0  0  0  0  0  0
   21.1020  -20.2245  -16.3767 C   0  0  2  0  0  0  0  0  0  0  0  0
   21.4570  -21.6729  -16.3616 C   0  0  0  0  0  0  0  0  0  0  0  0
   21.3907  -19.5832  -15.0421 C   0  0  2  0  0  0  0  0  0  0  0  0
   21.1866  -18.1163  -15.1686 N   0  0  0  0  0  0  0  0  0  0  0  0
   22.8025  -19.7641  -14.6514 C   0  0  0  0  0  0  0  0  0  0  0  0
   23.7248  -19.1538  -15.2942 O   0  0  0  0  0  0  0  0  0  0  0  0
   24.9569  -19.9094   -9.3572 C   0  0  0  0  0  0  0  0  0  0  0  0
   26.2665  -21.0919   -9.7153 S   0  0  0  0  0  0  0  0  0  0  0  0
   26.1803  -21.5678  -11.4794 C   0  0  0  0  0  0  0  0  0  0  0  0
   24.7835  -21.2640  -11.9256 C   0  0  0  0  0  0  0  0  0  0  0  0
   24.6915  -20.7878  -13.3441 C   0  0  2  0  0  0  0  0  0  0  0  0
   23.2431  -20.5730  -13.5947 N   0  0  0  0  0  0  0  0  0  0  0  0
   25.2209  -21.6274  -14.3817 C   0  0  0  0  0  0  0  0  0  0  0  0
   24.9339  -22.8767  -14.3710 O   0  0  0  0  0  0  0  0  0  0  0  0
   26.0577  -21.2188  -15.4666 N   0  0  0  0  0  0  0  0  0  0  0  0
   26.6226  -22.1685  -16.3965 C   0  0  0  0  0  0  0  0  0  0  0  0
   28.0829  -22.1918  -16.2605 C   0  0  0  0  0  0  0  0  0  0  0  0
   28.6022  -22.5014  -15.1610 O   0  0  0  0  0  0  0  0  0  0  0  0
   28.9109  -21.8695  -17.3539 O   0  0  0  0  0  0  0  0  0  0  0  0
  2  1  1  0
  3  2  1  0
  3  5  1  0
  3  4  1  1
  5  7  1  0
  5  6  1  6
  7  8  2  0
  9 10  1  0
 10 11  1  0
 11 12  1  0
 13 12  1  1
 14 13  1  0
 14  7  1  0
 15 17  1  0
 15 13  1  0
 16 15  2  0
 18 17  1  0
 19 18  1  0
 19 21  1  0
 20 19  2  0
M  END
$$$$
