IMG.pdb
     RDKit          3D

 21 20  0  0  1  0  0  0  0  0999 V2000
   28.7450  -25.1117  -19.9295 C   0  0  0  0  0  0  0  0  0  0  0  0
   27.8405  -25.7632  -18.9354 C   0  0  0  0  0  0  0  0  0  0  0  0
   28.5526  -26.8160  -18.0985 C   0  0  2  0  0  0  0  0  0  0  0  0
   29.2236  -27.8400  -18.9500 C   0  0  0  0  0  0  0  0  0  0  0  0
   27.4939  -27.4463  -17.2279 C   0  0  2  0  0  0  0  0  0  0  0  0
   27.0975  -26.4672  -16.1821 N   0  0  0  0  0  0  0  0  0  0  0  0
   28.0195  -28.6211  -16.5055 C   0  0  0  0  0  0  0  0  0  0  0  0
   28.6606  -28.4612  -15.4101 O   0  0  0  0  0  0  0  0  0  0  0  0
   23.3080  -32.4771  -14.9988 C   0  0  0  0  0  0  0  0  0  0  0  0
   24.9007  -33.0243  -15.6354 S   0  0  0  0  0  0  0  0  0  0  0  0
   26.1488  -31.7222  -15.3308 C   0  0  0  0  0  0  0  0  0  0  0  0
   27.3659  -32.1213  -16.1064 C   0  0  0  0  0  0  0  0  0  0  0  0
   28.4373  -31.0731  -16.1330 C   0  0  2  0  0  0  0  0  0  0  0  0
   27.8709  -29.9505  -16.9243 N   0  0  0  0  0  0  0  0  0  0  0  0
   29.7197  -31.4214  -16.6766 C   0  0  0  0  0  0  0  0  0  0  0  0
   29.9873  -31.0920  -17.8862 O   0  0  0  0  0  0  0  0  0  0  0  0
   30.7730  -32.1143  -16.0023 N   0  0  0  0  0  0  0  0  0  0  0  0
   32.0941  -32.2391  -16.5722 C   0  0  0  0  0  0  0  0  0  0  0  0
   32.1845  -33.4755  -17.3562 C   0  0  0  0  0  0  0  0  0  0  0  0
   31.1737  -34.2077  -17.4852 O   0  0  0  0  0  0  0  0  0  0  0  0
   33.3970  -33.8508  -17.9676 O   0  0  0  0  0  0  0  0  0  0  0  0
  2  1  1  0
  3  2  1  0
  3  5  1  0
  3  4  1  6
  5  7  1  0
  5  6  1  1
  7  8  2  0
  9 10  1  0
 10 11  1  0
 11 12  1  0
 13 12  1  6
 14 13  1  0
 14  7  1  0
 15 17  1  0
 15 13  1  0
 16 15  2  0
 18 17  1  0
 19 18  1  0
 19 21  1  0
 20 19  2  0
M  END
$$$$
