IMG.pdb
     RDKit          3D

 21 20  0  0  1  0  0  0  0  0999 V2000
   30.6441  -11.7373  -20.4937 C   0  0  0  0  0  0  0  0  0  0  0  0
   30.6973  -10.3001  -20.0904 C   0  0  0  0  0  0  0  0  0  0  0  0
   31.3141  -10.1014  -18.7135 C   0  0  2  0  0  0  0  0  0  0  0  0
   30.5720  -10.8523  -17.6602 C   0  0  0  0  0  0  0  0  0  0  0  0
   31.2763   -8.6169  -18.4472 C   0  0  2  0  0  0  0  0  0  0  0  0
   32.1106   -7.9321  -19.4691 N   0  0  0  0  0  0  0  0  0  0  0  0
   31.8819   -8.2879  -17.1421 C   0  0  0  0  0  0  0  0  0  0  0  0
   31.3299   -8.6956  -16.0625 O   0  0  0  0  0  0  0  0  0  0  0  0
   37.8067   -8.5053  -16.4188 C   0  0  0  0  0  0  0  0  0  0  0  0
   37.0440   -9.0502  -14.8817 S   0  0  0  0  0  0  0  0  0  0  0  0
   35.2275   -8.8864  -15.0213 C   0  0  0  0  0  0  0  0  0  0  0  0
   34.9731   -7.5162  -15.5691 C   0  0  0  0  0  0  0  0  0  0  0  0
   33.5219   -7.1435  -15.6169 C   0  0  2  0  0  0  0  0  0  0  0  0
   33.0567   -7.5427  -16.9701 N   0  0  0  0  0  0  0  0  0  0  0  0
   33.1614   -5.7723  -15.3897 C   0  0  0  0  0  0  0  0  0  0  0  0
   33.5443   -5.2052  -14.3057 O   0  0  0  0  0  0  0  0  0  0  0  0
   32.4014   -4.9335  -16.2632 N   0  0  0  0  0  0  0  0  0  0  0  0
   32.0350   -3.5844  -15.9007 C   0  0  0  0  0  0  0  0  0  0  0  0
   33.0211   -2.6390  -16.4349 C   0  0  0  0  0  0  0  0  0  0  0  0
   34.0229   -3.0676  -17.0571 O   0  0  0  0  0  0  0  0  0  0  0  0
   32.8552   -1.2513  -16.2564 O   0  0  0  0  0  0  0  0  0  0  0  0
  2  1  1  0
  3  2  1  0
  3  5  1  0
  3  4  1  1
  5  7  1  0
  5  6  1  6
  7  8  2  0
  9 10  1  0
 10 11  1  0
 11 12  1  0
 13 12  1  6
 14 13  1  0
 14  7  1  0
 15 17  1  0
 15 13  1  0
 16 15  2  0
 18 17  1  0
 19 18  1  0
 19 21  1  0
 20 19  2  0
M  END
$$$$
