IMG.pdb
     RDKit          3D

 21 20  0  0  1  0  0  0  0  0999 V2000
   23.3584  -31.9527   -8.3479 C   0  0  0  0  0  0  0  0  0  0  0  0
   24.8357  -31.9946   -8.5641 C   0  0  0  0  0  0  0  0  0  0  0  0
   25.5324  -32.9927   -7.6507 C   0  0  2  0  0  0  0  0  0  0  0  0
   25.3259  -32.6640   -6.2108 C   0  0  0  0  0  0  0  0  0  0  0  0
   26.9962  -32.9413   -8.0124 C   0  0  2  0  0  0  0  0  0  0  0  0
   27.1549  -33.4223   -9.4099 N   0  0  0  0  0  0  0  0  0  0  0  0
   27.7909  -33.8603   -7.1744 C   0  0  0  0  0  0  0  0  0  0  0  0
   27.6839  -35.1245   -7.3370 O   0  0  0  0  0  0  0  0  0  0  0  0
   34.2209  -34.2619   -5.4098 C   0  0  0  0  0  0  0  0  0  0  0  0
   33.2034  -33.4186   -6.6325 S   0  0  0  0  0  0  0  0  0  0  0  0
   31.5334  -33.1445   -5.9383 C   0  0  0  0  0  0  0  0  0  0  0  0
   30.8339  -34.4671   -5.9997 C   0  0  0  0  0  0  0  0  0  0  0  0
   29.4632  -34.4554   -5.3926 C   0  0  2  0  0  0  0  0  0  0  0  0
   28.6922  -33.4583   -6.1788 N   0  0  0  0  0  0  0  0  0  0  0  0
   29.3375  -34.1416   -3.9972 C   0  0  0  0  0  0  0  0  0  0  0  0
   29.2350  -32.9124   -3.6480 O   0  0  0  0  0  0  0  0  0  0  0  0
   29.3084  -35.0722   -2.9121 N   0  0  0  0  0  0  0  0  0  0  0  0
   29.2421  -34.6403   -1.5356 C   0  0  0  0  0  0  0  0  0  0  0  0
   29.1543  -35.8067   -0.6505 C   0  0  0  0  0  0  0  0  0  0  0  0
   29.2296  -35.6535    0.5926 O   0  0  0  0  0  0  0  0  0  0  0  0
   28.9858  -37.1004   -1.1823 O   0  0  0  0  0  0  0  0  0  0  0  0
  2  1  1  0
  3  2  1  0
  3  5  1  0
  3  4  1  1
  5  7  1  0
  5  6  1  6
  7  8  2  0
  9 10  1  0
 10 11  1  0
 11 12  1  0
 13 12  1  6
 14 13  1  0
 14  7  1  0
 15 17  1  0
 15 13  1  0
 16 15  2  0
 18 17  1  0
 19 18  1  0
 19 21  1  0
 20 19  2  0
M  END
$$$$
