IMG.pdb
     RDKit          3D

 21 20  0  0  1  0  0  0  0  0999 V2000
   17.8244  -14.9849  -17.7401 C   0  0  0  0  0  0  0  0  0  0  0  0
   19.2760  -14.7206  -17.9720 C   0  0  0  0  0  0  0  0  0  0  0  0
   19.8603  -13.7405  -16.9651 C   0  0  2  0  0  0  0  0  0  0  0  0
   19.1469  -12.4311  -16.9883 C   0  0  0  0  0  0  0  0  0  0  0  0
   21.3123  -13.5717  -17.3382 C   0  0  2  0  0  0  0  0  0  0  0  0
   21.9831  -14.8943  -17.2373 N   0  0  0  0  0  0  0  0  0  0  0  0
   22.0138  -12.6875  -16.3872 C   0  0  0  0  0  0  0  0  0  0  0  0
   22.3260  -13.1215  -15.2250 O   0  0  0  0  0  0  0  0  0  0  0  0
   27.2503  -11.3646  -17.1684 C   0  0  0  0  0  0  0  0  0  0  0  0
   27.1353   -9.7939  -16.2960 S   0  0  0  0  0  0  0  0  0  0  0  0
   25.5248   -9.7023  -15.4336 C   0  0  0  0  0  0  0  0  0  0  0  0
   24.5756  -10.5410  -16.2323 C   0  0  0  0  0  0  0  0  0  0  0  0
   23.1848  -10.5789  -15.6741 C   0  0  2  0  0  0  0  0  0  0  0  0
   22.3884  -11.3630  -16.6528 N   0  0  0  0  0  0  0  0  0  0  0  0
   22.5151   -9.3335  -15.4248 C   0  0  0  0  0  0  0  0  0  0  0  0
   22.0515   -8.6722  -16.4203 O   0  0  0  0  0  0  0  0  0  0  0  0
   22.2933   -8.7236  -14.1508 N   0  0  0  0  0  0  0  0  0  0  0  0
   21.5204   -7.5121  -14.0070 C   0  0  0  0  0  0  0  0  0  0  0  0
   22.3242   -6.3560  -14.4178 C   0  0  0  0  0  0  0  0  0  0  0  0
   23.4505   -6.5336  -14.9416 O   0  0  0  0  0  0  0  0  0  0  0  0
   21.8441   -5.0448  -14.2301 O   0  0  0  0  0  0  0  0  0  0  0  0
  2  1  1  0
  3  2  1  0
  3  5  1  0
  3  4  1  6
  5  7  1  0
  5  6  1  1
  7  8  2  0
  9 10  1  0
 10 11  1  0
 11 12  1  0
 13 12  1  6
 14 13  1  0
 14  7  1  0
 15 17  1  0
 15 13  1  0
 16 15  2  0
 18 17  1  0
 19 18  1  0
 19 21  1  0
 20 19  2  0
M  END
$$$$
