IMG.pdb
     RDKit          3D

 21 20  0  0  1  0  0  0  0  0999 V2000
   24.2563  -17.9015  -18.0954 C   0  0  0  0  0  0  0  0  0  0  0  0
   25.4236  -18.7301  -17.6689 C   0  0  0  0  0  0  0  0  0  0  0  0
   25.2102  -19.3871  -16.3129 C   0  0  2  0  0  0  0  0  0  0  0  0
   24.9992  -18.3780  -15.2353 C   0  0  0  0  0  0  0  0  0  0  0  0
   26.4455  -20.2115  -16.0472 C   0  0  2  0  0  0  0  0  0  0  0  0
   26.5412  -21.2683  -17.0881 N   0  0  0  0  0  0  0  0  0  0  0  0
   26.3527  -20.9207  -14.7562 C   0  0  0  0  0  0  0  0  0  0  0  0
   25.6267  -21.9692  -14.6560 O   0  0  0  0  0  0  0  0  0  0  0  0
   30.9328  -20.7864  -10.7599 C   0  0  0  0  0  0  0  0  0  0  0  0
   30.0590  -22.1223   -9.9272 S   0  0  0  0  0  0  0  0  0  0  0  0
   28.2941  -22.0756  -10.4056 C   0  0  0  0  0  0  0  0  0  0  0  0
   28.2356  -21.3503  -11.7143 C   0  0  0  0  0  0  0  0  0  0  0  0
   26.8676  -21.3156  -12.3263 C   0  0  2  0  0  0  0  0  0  0  0  0
   27.0175  -20.5377  -13.5831 N   0  0  0  0  0  0  0  0  0  0  0  0
   25.7911  -20.7535  -11.5602 C   0  0  0  0  0  0  0  0  0  0  0  0
   25.6207  -19.4831  -11.5752 O   0  0  0  0  0  0  0  0  0  0  0  0
   24.8507  -21.4700  -10.7561 N   0  0  0  0  0  0  0  0  0  0  0  0
   23.8006  -20.7990  -10.0263 C   0  0  0  0  0  0  0  0  0  0  0  0
   22.5982  -20.6995  -10.8605 C   0  0  0  0  0  0  0  0  0  0  0  0
   22.6174  -21.1353  -12.0371 O   0  0  0  0  0  0  0  0  0  0  0  0
   21.4190  -20.1184  -10.3539 O   0  0  0  0  0  0  0  0  0  0  0  0
  2  1  1  0
  3  2  1  0
  3  5  1  0
  3  4  1  1
  5  7  1  0
  5  6  1  6
  7  8  2  0
  9 10  1  0
 10 11  1  0
 11 12  1  0
 13 12  1  1
 14 13  1  0
 14  7  1  0
 15 17  1  0
 15 13  1  0
 16 15  2  0
 18 17  1  0
 19 18  1  0
 19 21  1  0
 20 19  2  0
M  END
$$$$
