NAT.pdb
     RDKit          3D

 21 20  0  0  1  0  0  0  0  0999 V2000
    9.0029  -16.0723   13.2591 N   0  0  0  0  0  0  0  0  0  0  0  0
    8.0354  -15.8573   14.2812 C   0  0  0  0  0  0  0  0  0  0  0  0
    6.8543  -16.2477   14.0293 O   0  0  0  0  0  0  0  0  0  0  0  0
    8.3697  -15.2139   15.5768 C   0  0  0  0  0  0  0  0  0  0  0  0
    8.2320  -16.2305   16.6692 C   0  0  2  0  0  0  0  0  0  0  0  0
    6.8712  -16.6634   16.8006 N   0  0  0  0  0  0  0  0  0  0  0  0
    8.7748  -15.6800   17.9421 C   0  0  0  0  0  0  0  0  0  0  0  0
    9.9834  -15.8585   18.2362 O   0  0  0  0  0  0  0  0  0  0  0  0
    7.4781  -13.5483   20.8300 C   0  0  0  0  0  0  0  0  0  0  0  0
    8.4477  -14.4758   20.1413 C   0  0  2  0  0  0  0  0  0  0  0  0
    7.9938  -14.9454   18.8722 N   0  0  0  0  0  0  0  0  0  0  0  0
    8.8410  -15.5387   21.0762 C   0  0  0  0  0  0  0  0  0  0  0  0
    8.0053  -16.4432   21.3325 O   0  0  0  0  0  0  0  0  0  0  0  0
   12.0755  -18.6275   22.9196 C   0  0  0  0  0  0  0  0  0  0  0  0
   11.6724  -17.4936   22.0267 C   0  0  1  0  0  0  0  0  0  0  0  0
   11.3003  -18.0342   20.7969 O   0  0  0  0  0  0  0  0  0  0  0  0
   10.5305  -16.6819   22.5726 C   0  0  2  0  0  0  0  0  0  0  0  0
   10.1044  -15.6243   21.7191 N   0  0  0  0  0  0  0  0  0  0  0  0
   10.9448  -16.1819   23.9321 C   0  0  0  0  0  0  0  0  0  0  0  0
   10.6536  -16.8877   25.0719 O   0  0  0  0  0  0  0  0  0  0  0  0
   11.5747  -15.0913   24.0451 O   0  0  0  0  0  0  0  0  0  0  0  0
  2  1  1  0
  2  4  1  0
  3  2  2  0
  5  4  1  0
  5  6  1  1
  7 11  1  0
  7  5  1  0
  8  7  2  0
 10  9  1  1
 10 11  1  0
 12 10  1  0
 12 18  1  0
 13 12  2  0
 15 14  1  1
 16 15  1  0
 17 18  1  6
 17 15  1  0
 19 17  1  0
 20 19  1  0
 21 19  2  0
M  END
$$$$
