NAT.pdb
     RDKit          3D

 21 20  0  0  1  0  0  0  0  0999 V2000
   11.1970  -19.6042   18.8838 N   0  0  0  0  0  0  0  0  0  0  0  0
   11.7148  -18.3265   18.5284 C   0  0  0  0  0  0  0  0  0  0  0  0
   12.6109  -18.3126   17.6296 O   0  0  0  0  0  0  0  0  0  0  0  0
   11.2458  -17.0686   19.1623 C   0  0  0  0  0  0  0  0  0  0  0  0
   10.2960  -17.4121   20.2694 C   0  0  2  0  0  0  0  0  0  0  0  0
    9.1511  -18.1137   19.7659 N   0  0  0  0  0  0  0  0  0  0  0  0
    9.9198  -16.1775   21.0126 C   0  0  0  0  0  0  0  0  0  0  0  0
   10.8057  -15.5035   21.5956 O   0  0  0  0  0  0  0  0  0  0  0  0
    6.8303  -14.0283   21.5278 C   0  0  0  0  0  0  0  0  0  0  0  0
    8.1566  -14.6186   21.9369 C   0  0  2  0  0  0  0  0  0  0  0  0
    8.5873  -15.6982   21.1085 N   0  0  0  0  0  0  0  0  0  0  0  0
    8.1197  -14.9321   23.3716 C   0  0  0  0  0  0  0  0  0  0  0  0
    7.7480  -14.0313   24.1669 O   0  0  0  0  0  0  0  0  0  0  0  0
    6.0696  -17.4260   25.3241 C   0  0  0  0  0  0  0  0  0  0  0  0
    7.5132  -17.6890   25.6279 C   0  0  1  0  0  0  0  0  0  0  0  0
    7.9134  -18.7861   24.8667 O   0  0  0  0  0  0  0  0  0  0  0  0
    8.4098  -16.5223   25.3179 C   0  0  2  0  0  0  0  0  0  0  0  0
    8.4750  -16.1863   23.9354 N   0  0  0  0  0  0  0  0  0  0  0  0
    9.7677  -16.8354   25.8903 C   0  0  0  0  0  0  0  0  0  0  0  0
    9.9359  -17.1008   27.2258 O   0  0  0  0  0  0  0  0  0  0  0  0
   10.7854  -16.8588   25.1402 O   0  0  0  0  0  0  0  0  0  0  0  0
  2  1  1  0
  2  4  1  0
  3  2  2  0
  5  4  1  0
  5  6  1  6
  7 11  1  0
  7  5  1  0
  8  7  2  0
 10  9  1  6
 10 11  1  0
 12 10  1  0
 12 18  1  0
 13 12  2  0
 15 14  1  6
 16 15  1  0
 17 18  1  6
 17 15  1  0
 19 17  1  0
 20 19  1  0
 21 19  2  0
M  END
$$$$
