NAT.pdb
     RDKit          3D

 21 20  0  0  1  0  0  0  0  0999 V2000
   10.1102  -17.8211   17.3477 N   0  0  0  0  0  0  0  0  0  0  0  0
   10.6129  -17.1599   18.5041 C   0  0  0  0  0  0  0  0  0  0  0  0
   11.8729  -17.1721   18.6562 O   0  0  0  0  0  0  0  0  0  0  0  0
    9.7287  -16.4876   19.4892 C   0  0  0  0  0  0  0  0  0  0  0  0
   10.0713  -16.9836   20.8612 C   0  0  2  0  0  0  0  0  0  0  0  0
   10.0127  -18.4152   20.9203 N   0  0  0  0  0  0  0  0  0  0  0  0
    9.1813  -16.3400   21.8671 C   0  0  0  0  0  0  0  0  0  0  0  0
    9.1240  -15.0869   21.9413 O   0  0  0  0  0  0  0  0  0  0  0  0
    6.6255  -17.5170   24.4500 C   0  0  0  0  0  0  0  0  0  0  0  0
    7.4464  -16.4982   23.6997 C   0  0  2  0  0  0  0  0  0  0  0  0
    8.3699  -17.0705   22.7740 N   0  0  0  0  0  0  0  0  0  0  0  0
    8.0504  -15.5665   24.6617 C   0  0  0  0  0  0  0  0  0  0  0  0
    9.2834  -15.6653   24.8900 O   0  0  0  0  0  0  0  0  0  0  0  0
    6.8702  -11.5109   25.6187 C   0  0  0  0  0  0  0  0  0  0  0  0
    7.0080  -12.5260   26.7123 C   0  0  1  0  0  0  0  0  0  0  0  0
    5.7330  -13.0056   27.0085 O   0  0  0  0  0  0  0  0  0  0  0  0
    7.8949  -13.6829   26.3435 C   0  0  2  0  0  0  0  0  0  0  0  0
    7.3424  -14.5529   25.3605 N   0  0  0  0  0  0  0  0  0  0  0  0
    8.2364  -14.4106   27.6177 C   0  0  0  0  0  0  0  0  0  0  0  0
    8.9184  -13.7902   28.6336 O   0  0  0  0  0  0  0  0  0  0  0  0
    7.8958  -15.6185   27.7725 O   0  0  0  0  0  0  0  0  0  0  0  0
  2  1  1  0
  2  4  1  0
  3  2  2  0
  5  4  1  0
  5  6  1  6
  7 11  1  0
  7  5  1  0
  8  7  2  0
 10  9  1  1
 10 11  1  0
 12 10  1  0
 12 18  1  0
 13 12  2  0
 15 14  1  6
 16 15  1  0
 17 18  1  6
 17 15  1  0
 19 17  1  0
 20 19  1  0
 21 19  2  0
M  END
$$$$
