NAT.pdb
     RDKit          3D

 21 20  0  0  1  0  0  0  0  0999 V2000
   12.5686  -14.3596   19.1812 N   0  0  0  0  0  0  0  0  0  0  0  0
   11.4145  -14.1834   19.9961 C   0  0  0  0  0  0  0  0  0  0  0  0
   11.3883  -14.8372   21.0837 O   0  0  0  0  0  0  0  0  0  0  0  0
   10.2933  -13.2889   19.6126 C   0  0  0  0  0  0  0  0  0  0  0  0
    9.0406  -14.1047   19.5075 C   0  0  2  0  0  0  0  0  0  0  0  0
    8.1388  -13.5412   18.5453 N   0  0  0  0  0  0  0  0  0  0  0  0
    8.4159  -14.2453   20.8521 C   0  0  0  0  0  0  0  0  0  0  0  0
    7.9190  -13.2402   21.4196 O   0  0  0  0  0  0  0  0  0  0  0  0
    7.3006  -17.1640   23.0099 C   0  0  0  0  0  0  0  0  0  0  0  0
    7.5763  -15.7065   22.7371 C   0  0  2  0  0  0  0  0  0  0  0  0
    8.3427  -15.4760   21.5554 N   0  0  0  0  0  0  0  0  0  0  0  0
    8.1298  -15.0882   23.9494 C   0  0  0  0  0  0  0  0  0  0  0  0
    9.3802  -14.9995   24.0528 O   0  0  0  0  0  0  0  0  0  0  0  0
    6.8254  -11.6561   25.9164 C   0  0  0  0  0  0  0  0  0  0  0  0
    6.9467  -12.8869   26.7625 C   0  0  1  0  0  0  0  0  0  0  0  0
    5.6723  -13.4352   26.8982 O   0  0  0  0  0  0  0  0  0  0  0  0
    7.8679  -13.9225   26.1795 C   0  0  2  0  0  0  0  0  0  0  0  0
    7.3541  -14.5779   25.0241 N   0  0  0  0  0  0  0  0  0  0  0  0
    8.2045  -14.8944   27.2804 C   0  0  0  0  0  0  0  0  0  0  0  0
    8.8924  -14.4964   28.3987 O   0  0  0  0  0  0  0  0  0  0  0  0
    7.8543  -16.1060   27.1899 O   0  0  0  0  0  0  0  0  0  0  0  0
  2  1  1  0
  2  4  1  0
  3  2  2  0
  5  4  1  0
  5  6  1  6
  7 11  1  0
  7  5  1  0
  8  7  2  0
 10  9  1  1
 10 11  1  0
 12 10  1  0
 12 18  1  0
 13 12  2  0
 15 14  1  6
 16 15  1  0
 17 18  1  6
 17 15  1  0
 19 17  1  0
 20 19  1  0
 21 19  2  0
M  END
$$$$
