NAT.pdb
     RDKit          3D

 21 20  0  0  1  0  0  0  0  0999 V2000
    7.3481  -13.3298   16.6445 N   0  0  0  0  0  0  0  0  0  0  0  0
    8.1304  -13.5545   17.8126 C   0  0  0  0  0  0  0  0  0  0  0  0
    9.3871  -13.6148   17.6453 O   0  0  0  0  0  0  0  0  0  0  0  0
    7.5285  -13.7119   19.1607 C   0  0  0  0  0  0  0  0  0  0  0  0
    8.4984  -14.4425   20.0389 C   0  0  2  0  0  0  0  0  0  0  0  0
    8.9250  -15.6672   19.4270 N   0  0  0  0  0  0  0  0  0  0  0  0
    7.8952  -14.6630   21.3826 C   0  0  0  0  0  0  0  0  0  0  0  0
    7.3132  -13.7168   21.9703 O   0  0  0  0  0  0  0  0  0  0  0  0
    7.7128  -17.5430   23.8873 C   0  0  0  0  0  0  0  0  0  0  0  0
    7.5166  -16.1258   23.4099 C   0  0  2  0  0  0  0  0  0  0  0  0
    7.9356  -15.9079   22.0630 N   0  0  0  0  0  0  0  0  0  0  0  0
    8.1115  -15.2040   24.3870 C   0  0  0  0  0  0  0  0  0  0  0  0
    9.3286  -14.9116   24.2629 O   0  0  0  0  0  0  0  0  0  0  0  0
    6.6734  -11.6236   25.8252 C   0  0  0  0  0  0  0  0  0  0  0  0
    6.9995  -12.6377   26.8790 C   0  0  1  0  0  0  0  0  0  0  0  0
    5.8064  -13.2464   27.2652 O   0  0  0  0  0  0  0  0  0  0  0  0
    7.9618  -13.6946   26.4119 C   0  0  2  0  0  0  0  0  0  0  0  0
    7.4113  -14.6117   25.4715 N   0  0  0  0  0  0  0  0  0  0  0  0
    8.4944  -14.3900   27.6376 C   0  0  0  0  0  0  0  0  0  0  0  0
    8.3791  -15.7479   27.7950 O   0  0  0  0  0  0  0  0  0  0  0  0
    9.0626  -13.7253   28.5510 O   0  0  0  0  0  0  0  0  0  0  0  0
  2  1  1  0
  2  4  1  0
  3  2  2  0
  5  4  1  0
  5  6  1  6
  7 11  1  0
  7  5  1  0
  8  7  2  0
 10  9  1  1
 10 11  1  0
 12 10  1  0
 12 18  1  0
 13 12  2  0
 15 14  1  6
 16 15  1  0
 17 18  1  6
 17 15  1  0
 19 17  1  0
 20 19  1  0
 21 19  2  0
M  END
$$$$
