NAT.pdb
     RDKit          3D

 21 20  0  0  1  0  0  0  0  0999 V2000
   11.5035  -18.9846   19.7108 N   0  0  0  0  0  0  0  0  0  0  0  0
   12.1425  -17.7167   19.8177 C   0  0  0  0  0  0  0  0  0  0  0  0
   13.1310  -17.5179   19.0468 O   0  0  0  0  0  0  0  0  0  0  0  0
   11.6926  -16.6720   20.7718 C   0  0  0  0  0  0  0  0  0  0  0  0
   10.6304  -17.2519   21.6556 C   0  0  2  0  0  0  0  0  0  0  0  0
    9.4835  -17.6466   20.8905 N   0  0  0  0  0  0  0  0  0  0  0  0
   10.2846  -16.2822   22.7318 C   0  0  0  0  0  0  0  0  0  0  0  0
   11.1841  -15.8443   23.4924 O   0  0  0  0  0  0  0  0  0  0  0  0
    7.3296  -14.1267   23.7017 C   0  0  0  0  0  0  0  0  0  0  0  0
    8.5852  -14.9065   24.0017 C   0  0  2  0  0  0  0  0  0  0  0  0
    8.9674  -15.8062   22.9617 N   0  0  0  0  0  0  0  0  0  0  0  0
    8.4580  -15.5292   25.3262 C   0  0  0  0  0  0  0  0  0  0  0  0
    8.0996  -14.8055   26.2906 O   0  0  0  0  0  0  0  0  0  0  0  0
    6.5763  -18.9913   26.0057 C   0  0  0  0  0  0  0  0  0  0  0  0
    7.9029  -18.9461   26.7011 C   0  0  1  0  0  0  0  0  0  0  0  0
    8.7965  -19.7176   25.9598 O   0  0  0  0  0  0  0  0  0  0  0  0
    8.4547  -17.5545   26.8424 C   0  0  2  0  0  0  0  0  0  0  0  0
    8.7111  -16.8987   25.6044 N   0  0  0  0  0  0  0  0  0  0  0  0
    9.6887  -17.6462   27.7020 C   0  0  0  0  0  0  0  0  0  0  0  0
    9.6253  -18.0955   28.9967 O   0  0  0  0  0  0  0  0  0  0  0  0
   10.8149  -17.3067   27.2382 O   0  0  0  0  0  0  0  0  0  0  0  0
  2  1  1  0
  2  4  1  0
  3  2  2  0
  5  4  1  0
  5  6  1  6
  7 11  1  0
  7  5  1  0
  8  7  2  0
 10  9  1  6
 10 11  1  0
 12 10  1  0
 12 18  1  0
 13 12  2  0
 15 14  1  6
 16 15  1  0
 17 18  1  6
 17 15  1  0
 19 17  1  0
 20 19  1  0
 21 19  2  0
M  END
$$$$
