NAT.pdb
     RDKit          3D

 21 20  0  0  1  0  0  0  0  0999 V2000
    9.2704  -13.5708   16.7621 N   0  0  0  0  0  0  0  0  0  0  0  0
    7.9749  -14.1222   16.9736 C   0  0  0  0  0  0  0  0  0  0  0  0
    7.2330  -14.2253   15.9489 O   0  0  0  0  0  0  0  0  0  0  0  0
    7.4995  -14.5583   18.3108 C   0  0  0  0  0  0  0  0  0  0  0  0
    8.5319  -14.1902   19.3327 C   0  0  2  0  0  0  0  0  0  0  0  0
    9.8227  -14.6952   18.9651 N   0  0  0  0  0  0  0  0  0  0  0  0
    8.1021  -14.6643   20.6775 C   0  0  0  0  0  0  0  0  0  0  0  0
    7.0330  -14.2359   21.1801 O   0  0  0  0  0  0  0  0  0  0  0  0
    9.2615  -17.2508   23.2224 C   0  0  0  0  0  0  0  0  0  0  0  0
    8.5014  -16.0300   22.7677 C   0  0  2  0  0  0  0  0  0  0  0  0
    8.8424  -15.5956   21.4516 N   0  0  0  0  0  0  0  0  0  0  0  0
    8.6082  -14.9876   23.7973 C   0  0  0  0  0  0  0  0  0  0  0  0
    9.5983  -14.2127   23.7573 O   0  0  0  0  0  0  0  0  0  0  0  0
    6.5488  -11.9207   27.0480 C   0  0  0  0  0  0  0  0  0  0  0  0
    6.4253  -13.1014   26.1336 C   0  0  1  0  0  0  0  0  0  0  0  0
    5.8590  -12.6558   24.9403 O   0  0  0  0  0  0  0  0  0  0  0  0
    7.7414  -13.7647   25.8355 C   0  0  2  0  0  0  0  0  0  0  0  0
    7.6705  -14.7854   24.8446 N   0  0  0  0  0  0  0  0  0  0  0  0
    8.2908  -14.2785   27.1409 C   0  0  0  0  0  0  0  0  0  0  0  0
    8.7142  -13.4210   28.1244 O   0  0  0  0  0  0  0  0  0  0  0  0
    8.3712  -15.5225   27.3528 O   0  0  0  0  0  0  0  0  0  0  0  0
  2  1  1  0
  2  4  1  0
  3  2  2  0
  5  4  1  0
  5  6  1  6
  7 11  1  0
  7  5  1  0
  8  7  2  0
 10  9  1  1
 10 11  1  0
 12 10  1  0
 12 18  1  0
 13 12  2  0
 15 14  1  1
 16 15  1  0
 17 18  1  6
 17 15  1  0
 19 17  1  0
 20 19  1  0
 21 19  2  0
M  END
$$$$
