NAT.pdb
     RDKit          3D

 21 20  0  0  1  0  0  0  0  0999 V2000
    7.5600  -13.0094   17.2668 N   0  0  0  0  0  0  0  0  0  0  0  0
    8.4589  -13.5552   18.2266 C   0  0  0  0  0  0  0  0  0  0  0  0
    9.6502  -13.7505   17.8346 O   0  0  0  0  0  0  0  0  0  0  0  0
    8.0451  -13.8842   19.6139 C   0  0  0  0  0  0  0  0  0  0  0  0
    8.1291  -15.3685   19.8025 C   0  0  2  0  0  0  0  0  0  0  0  0
    7.1910  -16.0484   18.9575 N   0  0  0  0  0  0  0  0  0  0  0  0
    7.9411  -15.7058   21.2408 C   0  0  0  0  0  0  0  0  0  0  0  0
    6.8274  -15.5106   21.7891 O   0  0  0  0  0  0  0  0  0  0  0  0
    9.8415  -17.5513   23.9521 C   0  0  0  0  0  0  0  0  0  0  0  0
    8.8500  -16.5312   23.4513 C   0  0  2  0  0  0  0  0  0  0  0  0
    8.9673  -16.2493   22.0570 N   0  0  0  0  0  0  0  0  0  0  0  0
    8.9037  -15.3452   24.3166 C   0  0  0  0  0  0  0  0  0  0  0  0
    9.8113  -14.4994   24.1091 O   0  0  0  0  0  0  0  0  0  0  0  0
    6.5507  -11.9524   26.9366 C   0  0  0  0  0  0  0  0  0  0  0  0
    6.5658  -13.3278   26.3422 C   0  0  1  0  0  0  0  0  0  0  0  0
    5.9197  -13.2635   25.1086 O   0  0  0  0  0  0  0  0  0  0  0  0
    7.9517  -13.8761   26.1431 C   0  0  2  0  0  0  0  0  0  0  0  0
    8.0010  -15.0776   25.3799 N   0  0  0  0  0  0  0  0  0  0  0  0
    8.5677  -14.0451   27.5076 C   0  0  0  0  0  0  0  0  0  0  0  0
    8.8541  -12.9630   28.3008 O   0  0  0  0  0  0  0  0  0  0  0  0
    8.8333  -15.2002   27.9481 O   0  0  0  0  0  0  0  0  0  0  0  0
  2  1  1  0
  2  4  1  0
  3  2  2  0
  5  4  1  0
  5  6  1  6
  7 11  1  0
  7  5  1  0
  8  7  2  0
 10  9  1  1
 10 11  1  0
 12 10  1  0
 12 18  1  0
 13 12  2  0
 15 14  1  6
 16 15  1  0
 17 18  1  1
 17 15  1  0
 19 17  1  0
 20 19  1  0
 21 19  2  0
M  END
$$$$
