NAT.pdb
     RDKit          3D

 21 20  0  0  1  0  0  0  0  0999 V2000
    7.4208  -14.1828   15.2132 N   0  0  0  0  0  0  0  0  0  0  0  0
    8.7113  -14.0876   15.8071 C   0  0  0  0  0  0  0  0  0  0  0  0
    9.6901  -14.4576   15.0887 O   0  0  0  0  0  0  0  0  0  0  0  0
    8.9213  -13.5859   17.1885 C   0  0  0  0  0  0  0  0  0  0  0  0
    9.0819  -14.7586   18.1077 C   0  0  2  0  0  0  0  0  0  0  0  0
    8.0034  -15.6900   17.9466 N   0  0  0  0  0  0  0  0  0  0  0  0
    9.2126  -14.2838   19.5132 C   0  0  0  0  0  0  0  0  0  0  0  0
   10.2586  -13.6909   19.8788 O   0  0  0  0  0  0  0  0  0  0  0  0
    6.9602  -13.7717   22.5025 C   0  0  0  0  0  0  0  0  0  0  0  0
    8.2960  -14.0448   21.8575 C   0  0  2  0  0  0  0  0  0  0  0  0
    8.2041  -14.4622   20.4957 N   0  0  0  0  0  0  0  0  0  0  0  0
    9.0681  -14.9504   22.7189 C   0  0  0  0  0  0  0  0  0  0  0  0
    9.1839  -14.6568   23.9365 O   0  0  0  0  0  0  0  0  0  0  0  0
    9.0221  -19.0828   22.6141 C   0  0  0  0  0  0  0  0  0  0  0  0
   10.3933  -18.4785   22.6174 C   0  0  1  0  0  0  0  0  0  0  0  0
   10.8783  -18.5209   21.3112 O   0  0  0  0  0  0  0  0  0  0  0  0
   10.4166  -17.0560   23.1044 C   0  0  2  0  0  0  0  0  0  0  0  0
    9.7001  -16.1435   22.2783 N   0  0  0  0  0  0  0  0  0  0  0  0
   11.8613  -16.6607   23.2663 C   0  0  0  0  0  0  0  0  0  0  0  0
   12.4498  -15.7471   22.4290 O   0  0  0  0  0  0  0  0  0  0  0  0
   12.5622  -17.1708   24.1869 O   0  0  0  0  0  0  0  0  0  0  0  0
  2  1  1  0
  2  4  1  0
  3  2  2  0
  5  4  1  0
  5  6  1  1
  7 11  1  0
  7  5  1  0
  8  7  2  0
 10  9  1  1
 10 11  1  0
 12 10  1  0
 12 18  1  0
 13 12  2  0
 15 14  1  6
 16 15  1  0
 17 18  1  6
 17 15  1  0
 19 17  1  0
 20 19  1  0
 21 19  2  0
M  END
$$$$
