NAT.pdb
     RDKit          3D

 21 20  0  0  1  0  0  0  0  0999 V2000
    8.7511  -14.1629   17.9798 N   0  0  0  0  0  0  0  0  0  0  0  0
    7.6708  -13.5585   18.6832 C   0  0  0  0  0  0  0  0  0  0  0  0
    6.7100  -13.1263   17.9754 O   0  0  0  0  0  0  0  0  0  0  0  0
    7.6505  -13.4315   20.1623 C   0  0  0  0  0  0  0  0  0  0  0  0
    8.8588  -14.1193   20.7215 C   0  0  2  0  0  0  0  0  0  0  0  0
    9.3472  -15.1185   19.8162 N   0  0  0  0  0  0  0  0  0  0  0  0
    8.5438  -14.6799   22.0648 C   0  0  0  0  0  0  0  0  0  0  0  0
    8.0793  -13.9324   22.9618 O   0  0  0  0  0  0  0  0  0  0  0  0
    8.6579  -18.1077   23.7433 C   0  0  0  0  0  0  0  0  0  0  0  0
    8.5308  -16.6053   23.7037 C   0  0  2  0  0  0  0  0  0  0  0  0
    8.7393  -16.0431   22.4085 N   0  0  0  0  0  0  0  0  0  0  0  0
    9.3713  -16.0249   24.7596 C   0  0  0  0  0  0  0  0  0  0  0  0
   10.5475  -15.6901   24.4653 O   0  0  0  0  0  0  0  0  0  0  0  0
    9.9639  -13.2830   28.7278 C   0  0  0  0  0  0  0  0  0  0  0  0
    9.0626  -14.0284   27.7911 C   0  0  1  0  0  0  0  0  0  0  0  0
    8.6306  -13.1316   26.8151 O   0  0  0  0  0  0  0  0  0  0  0  0
    9.7324  -15.1971   27.1228 C   0  0  2  0  0  0  0  0  0  0  0  0
    8.9540  -15.8106   26.1000 N   0  0  0  0  0  0  0  0  0  0  0  0
   10.1177  -16.1723   28.2047 C   0  0  0  0  0  0  0  0  0  0  0  0
   11.1176  -15.8876   29.0997 O   0  0  0  0  0  0  0  0  0  0  0  0
    9.5184  -17.2812   28.3057 O   0  0  0  0  0  0  0  0  0  0  0  0
  2  1  1  0
  2  4  1  0
  3  2  2  0
  5  4  1  0
  5  6  1  6
  7 11  1  0
  7  5  1  0
  8  7  2  0
 10  9  1  6
 10 11  1  0
 12 10  1  0
 12 18  1  0
 13 12  2  0
 15 14  1  1
 16 15  1  0
 17 18  1  6
 17 15  1  0
 19 17  1  0
 20 19  1  0
 21 19  2  0
M  END
$$$$
