NAT.pdb
     RDKit          3D

 21 20  0  0  1  0  0  0  0  0999 V2000
    5.8280  -18.4931   18.5787 N   0  0  0  0  0  0  0  0  0  0  0  0
    5.7112  -19.1577   19.8324 C   0  0  0  0  0  0  0  0  0  0  0  0
    4.6793  -19.8791   19.9929 O   0  0  0  0  0  0  0  0  0  0  0  0
    6.7291  -19.0270   20.9051 C   0  0  0  0  0  0  0  0  0  0  0  0
    7.8220  -18.1213   20.4244 C   0  0  2  0  0  0  0  0  0  0  0  0
    8.4800  -18.6734   19.2761 N   0  0  0  0  0  0  0  0  0  0  0  0
    8.7704  -17.8400   21.5376 C   0  0  0  0  0  0  0  0  0  0  0  0
    9.7765  -18.5745   21.7035 O   0  0  0  0  0  0  0  0  0  0  0  0
    9.2349  -15.1285   24.1764 C   0  0  0  0  0  0  0  0  0  0  0  0
    9.4699  -16.4812   23.5520 C   0  0  2  0  0  0  0  0  0  0  0  0
    8.6080  -16.7653   22.4504 N   0  0  0  0  0  0  0  0  0  0  0  0
    9.4635  -17.5038   24.6067 C   0  0  0  0  0  0  0  0  0  0  0  0
    8.3955  -17.6934   25.2435 O   0  0  0  0  0  0  0  0  0  0  0  0
   10.6264  -21.2903   24.3209 C   0  0  0  0  0  0  0  0  0  0  0  0
   11.2916  -20.6017   25.4736 C   0  0  1  0  0  0  0  0  0  0  0  0
   12.5838  -20.2622   25.0760 O   0  0  0  0  0  0  0  0  0  0  0  0
   10.5726  -19.3593   25.9212 C   0  0  2  0  0  0  0  0  0  0  0  0
   10.5814  -18.3027   24.9662 N   0  0  0  0  0  0  0  0  0  0  0  0
   11.1767  -18.9404   27.2363 C   0  0  0  0  0  0  0  0  0  0  0  0
   11.0586  -19.7220   28.3576 O   0  0  0  0  0  0  0  0  0  0  0  0
   11.8092  -17.8494   27.3282 O   0  0  0  0  0  0  0  0  0  0  0  0
  2  1  1  0
  2  4  1  0
  3  2  2  0
  5  4  1  0
  5  6  1  6
  7 11  1  0
  7  5  1  0
  8  7  2  0
 10  9  1  1
 10 11  1  0
 12 10  1  0
 12 18  1  0
 13 12  2  0
 15 14  1  6
 16 15  1  0
 17 18  1  6
 17 15  1  0
 19 17  1  0
 20 19  1  0
 21 19  2  0
M  END
$$$$
