NAT.pdb
     RDKit          3D

 21 20  0  0  1  0  0  0  0  0999 V2000
   10.1852  -17.2316   14.6242 N   0  0  0  0  0  0  0  0  0  0  0  0
    9.9653  -15.8431   14.3987 C   0  0  0  0  0  0  0  0  0  0  0  0
   10.1598  -15.4273   13.2154 O   0  0  0  0  0  0  0  0  0  0  0  0
    9.5323  -14.9165   15.4749 C   0  0  0  0  0  0  0  0  0  0  0  0
    9.5271  -15.6590   16.7767 C   0  0  2  0  0  0  0  0  0  0  0  0
    8.4691  -16.6263   16.8130 N   0  0  0  0  0  0  0  0  0  0  0  0
    9.4486  -14.6935   17.9078 C   0  0  0  0  0  0  0  0  0  0  0  0
   10.4699  -14.0464   18.2506 O   0  0  0  0  0  0  0  0  0  0  0  0
    6.7560  -13.2403   20.1707 C   0  0  0  0  0  0  0  0  0  0  0  0
    8.1680  -13.6294   19.8109 C   0  0  2  0  0  0  0  0  0  0  0  0
    8.2612  -14.4489   18.6460 N   0  0  0  0  0  0  0  0  0  0  0  0
    8.8295  -14.1860   20.9987 C   0  0  0  0  0  0  0  0  0  0  0  0
    8.8546  -13.4892   22.0456 O   0  0  0  0  0  0  0  0  0  0  0  0
    8.4129  -17.9883   22.4221 C   0  0  0  0  0  0  0  0  0  0  0  0
    9.8410  -17.5546   22.2885 C   0  0  1  0  0  0  0  0  0  0  0  0
   10.3487  -18.1220   21.1208 O   0  0  0  0  0  0  0  0  0  0  0  0
   10.0069  -16.0617   22.2220 C   0  0  2  0  0  0  0  0  0  0  0  0
    9.4489  -15.4628   21.0565 N   0  0  0  0  0  0  0  0  0  0  0  0
   11.4777  -15.7669   22.3626 C   0  0  0  0  0  0  0  0  0  0  0  0
   12.1450  -16.0065   23.5371 O   0  0  0  0  0  0  0  0  0  0  0  0
   12.1275  -15.2885   21.3890 O   0  0  0  0  0  0  0  0  0  0  0  0
  2  1  1  0
  2  4  1  0
  3  2  2  0
  5  4  1  0
  5  6  1  6
  7 11  1  0
  7  5  1  0
  8  7  2  0
 10  9  1  1
 10 11  1  0
 12 10  1  0
 12 18  1  0
 13 12  2  0
 15 14  1  6
 16 15  1  0
 17 18  1  6
 17 15  1  0
 19 17  1  0
 20 19  1  0
 21 19  2  0
M  END
$$$$
