FIK.pdb
     RDKit          3D

 29 29  0  0  1  0  0  0  0  0999 V2000
    5.0658  -17.6294   24.8691 N   0  0  0  0  0  0  0  0  0  0  0  0
    5.7361  -16.3684   24.8590 C   0  0  1  0  0  0  0  0  0  0  0  0
    6.1641  -16.0020   26.2858 C   0  0  0  0  0  0  0  0  0  0  0  0
    6.5850  -14.5795   26.3464 C   0  0  0  0  0  0  0  0  0  0  0  0
    5.7600  -13.6240   26.8883 C   0  0  0  0  0  0  0  0  0  0  0  0
    6.1342  -12.3057   26.9516 C   0  0  0  0  0  0  0  0  0  0  0  0
    7.3584  -11.9014   26.4690 C   0  0  0  0  0  0  0  0  0  0  0  0
    8.1915  -12.8565   25.9236 C   0  0  0  0  0  0  0  0  0  0  0  0
    7.8109  -14.1708   25.8639 C   0  0  0  0  0  0  0  0  0  0  0  0
    6.9545  -16.3629   24.0088 C   0  0  0  0  0  0  0  0  0  0  0  0
    7.7644  -17.3044   24.0498 O   0  0  0  0  0  0  0  0  0  0  0  0
    7.1285  -12.6802   19.6756 C   0  0  0  0  0  0  0  0  0  0  0  0
    7.1267  -13.9450   20.4649 C   0  0  0  0  0  0  0  0  0  0  0  0
    8.4303  -14.1455   21.2453 C   0  0  2  0  0  0  0  0  0  0  0  0
    9.6378  -14.1153   20.3778 C   0  0  0  0  0  0  0  0  0  0  0  0
    8.3466  -15.2831   22.1942 C   0  0  2  0  0  0  0  0  0  0  0  0
    7.2829  -15.3288   23.1176 N   0  0  0  0  0  0  0  0  0  0  0  0
    9.6582  -15.3656   22.9135 C   0  0  0  0  0  0  0  0  0  0  0  0
    9.8786  -14.5550   23.8461 O   0  0  0  0  0  0  0  0  0  0  0  0
   10.6423  -16.3074   22.5868 N   0  0  0  0  0  0  0  0  0  0  0  0
   11.8520  -16.4693   23.4906 C   0  0  1  0  0  0  0  0  0  0  0  0
   11.5728  -17.6244   24.3481 C   0  0  0  0  0  0  0  0  0  0  0  0
   12.5247  -18.0324   25.3567 C   0  0  0  0  0  0  0  0  0  0  0  0
   12.3820  -19.2078   26.2248 C   0  0  0  0  0  0  0  0  0  0  0  0
   13.5417  -19.5015   27.1438 C   0  0  0  0  0  0  0  0  0  0  0  0
   13.3814  -20.6236   28.0063 N   0  0  0  0  0  0  0  0  0  0  0  0
   12.9447  -16.5897   22.5166 C   0  0  0  0  0  0  0  0  0  0  0  0
   12.7020  -16.9791   21.3202 O   0  0  0  0  0  0  0  0  0  0  0  0
   14.2524  -16.2903   22.8322 O   0  0  0  0  0  0  0  0  0  0  0  0
  2  1  1  1
  2  3  1  0
  4  9  2  0
  4  3  1  0
  5  4  1  0
  6  7  1  0
  6  5  2  0
  7  8  2  0
  8  9  1  0
 10  2  1  0
 11 10  2  0
 13 12  1  0
 13 14  1  0
 14 15  1  6
 16 14  1  0
 16 17  1  1
 17 10  1  0
 18 16  1  0
 19 18  2  0
 20 18  1  0
 21 22  1  6
 21 20  1  0
 23 22  1  0
 24 25  1  0
 24 23  1  0
 25 26  1  0
 27 21  1  0
 27 29  1  0
 28 27  2  0
M  END
$$$$
