FIK.pdb
     RDKit          3D

 29 29  0  0  1  0  0  0  0  0999 V2000
    5.7726  -18.0528   25.5152 N   0  0  0  0  0  0  0  0  0  0  0  0
    6.1381  -16.6838   25.3372 C   0  0  1  0  0  0  0  0  0  0  0  0
    6.7235  -16.1336   26.6440 C   0  0  0  0  0  0  0  0  0  0  0  0
    6.6162  -14.6531   26.6716 C   0  0  0  0  0  0  0  0  0  0  0  0
    7.7332  -13.8694   26.8313 C   0  0  0  0  0  0  0  0  0  0  0  0
    7.6507  -12.5003   26.8590 C   0  0  0  0  0  0  0  0  0  0  0  0
    6.4345  -11.8693   26.7261 C   0  0  0  0  0  0  0  0  0  0  0  0
    5.3090  -12.6511   26.5654 C   0  0  0  0  0  0  0  0  0  0  0  0
    5.3992  -14.0174   26.5388 C   0  0  0  0  0  0  0  0  0  0  0  0
    7.1538  -16.4857   24.2711 C   0  0  0  0  0  0  0  0  0  0  0  0
    8.1060  -17.2738   24.1437 O   0  0  0  0  0  0  0  0  0  0  0  0
    8.4539  -12.7864   19.3233 C   0  0  0  0  0  0  0  0  0  0  0  0
    8.5945  -14.0401   20.1178 C   0  0  0  0  0  0  0  0  0  0  0  0
    7.8208  -13.9812   21.4393 C   0  0  2  0  0  0  0  0  0  0  0  0
    8.0604  -12.7247   22.1978 C   0  0  0  0  0  0  0  0  0  0  0  0
    7.9446  -15.2379   22.2182 C   0  0  2  0  0  0  0  0  0  0  0  0
    7.1249  -15.4273   23.3489 N   0  0  0  0  0  0  0  0  0  0  0  0
    9.3865  -15.3931   22.5944 C   0  0  0  0  0  0  0  0  0  0  0  0
    9.8376  -14.6885   23.5300 O   0  0  0  0  0  0  0  0  0  0  0  0
   10.2455  -16.2894   21.9456 N   0  0  0  0  0  0  0  0  0  0  0  0
   11.6392  -16.5247   22.5009 C   0  0  1  0  0  0  0  0  0  0  0  0
   11.7415  -17.9637   22.7589 C   0  0  0  0  0  0  0  0  0  0  0  0
   12.4320  -18.4480   23.9330 C   0  0  0  0  0  0  0  0  0  0  0  0
   11.9095  -19.4573   24.8623 C   0  0  0  0  0  0  0  0  0  0  0  0
   12.7540  -19.7423   26.0793 C   0  0  0  0  0  0  0  0  0  0  0  0
   12.1713  -20.6057   27.0508 N   0  0  0  0  0  0  0  0  0  0  0  0
   12.4869  -15.9581   21.4438 C   0  0  0  0  0  0  0  0  0  0  0  0
   12.0535  -15.8840   20.2402 O   0  0  0  0  0  0  0  0  0  0  0  0
   13.7571  -15.4835   21.6900 O   0  0  0  0  0  0  0  0  0  0  0  0
  2  1  1  1
  2  3  1  0
  4  9  2  0
  4  3  1  0
  5  4  1  0
  6  7  1  0
  6  5  2  0
  7  8  2  0
  8  9  1  0
 10  2  1  0
 11 10  2  0
 13 12  1  0
 13 14  1  0
 14 15  1  1
 16 14  1  0
 16 17  1  1
 17 10  1  0
 18 16  1  0
 19 18  2  0
 20 18  1  0
 21 22  1  6
 21 20  1  0
 23 22  1  0
 24 25  1  0
 24 23  1  0
 25 26  1  0
 27 21  1  0
 27 29  1  0
 28 27  2  0
M  END
$$$$
