FIK.pdb
     RDKit          3D

 29 29  0  0  1  0  0  0  0  0999 V2000
    7.9313  -15.5482   26.3313 N   0  0  0  0  0  0  0  0  0  0  0  0
    6.8465  -16.0156   25.5287 C   0  0  1  0  0  0  0  0  0  0  0  0
    5.6642  -15.0454   25.6467 C   0  0  0  0  0  0  0  0  0  0  0  0
    6.1365  -13.7130   26.1004 C   0  0  0  0  0  0  0  0  0  0  0  0
    6.5648  -12.7724   25.1953 C   0  0  0  0  0  0  0  0  0  0  0  0
    7.0042  -11.5370   25.5985 C   0  0  0  0  0  0  0  0  0  0  0  0
    7.0277  -11.2037   26.9340 C   0  0  0  0  0  0  0  0  0  0  0  0
    6.5987  -12.1442   27.8479 C   0  0  0  0  0  0  0  0  0  0  0  0
    6.1614  -13.3756   27.4377 C   0  0  0  0  0  0  0  0  0  0  0  0
    7.1935  -16.1281   24.0884 C   0  0  0  0  0  0  0  0  0  0  0  0
    6.6202  -16.9534   23.3574 O   0  0  0  0  0  0  0  0  0  0  0  0
    7.5875  -12.3742   20.4087 C   0  0  0  0  0  0  0  0  0  0  0  0
    7.4646  -13.6906   21.0976 C   0  0  0  0  0  0  0  0  0  0  0  0
    8.8139  -14.4046   21.2328 C   0  0  2  0  0  0  0  0  0  0  0  0
    9.4505  -14.6979   19.9212 C   0  0  0  0  0  0  0  0  0  0  0  0
    8.7555  -15.5378   22.1887 C   0  0  2  0  0  0  0  0  0  0  0  0
    8.1653  -15.3386   23.4530 N   0  0  0  0  0  0  0  0  0  0  0  0
   10.1491  -16.0644   22.3471 C   0  0  0  0  0  0  0  0  0  0  0  0
   10.9191  -15.4813   23.1487 O   0  0  0  0  0  0  0  0  0  0  0  0
   10.6229  -17.1762   21.6389 N   0  0  0  0  0  0  0  0  0  0  0  0
   11.9649  -17.7827   22.0095 C   0  0  1  0  0  0  0  0  0  0  0  0
   11.6901  -19.1553   22.4430 C   0  0  0  0  0  0  0  0  0  0  0  0
   12.6900  -19.9063   23.1684 C   0  0  0  0  0  0  0  0  0  0  0  0
   12.5149  -21.2727   23.6759 C   0  0  0  0  0  0  0  0  0  0  0  0
   13.7199  -21.8982   24.3334 C   0  0  0  0  0  0  0  0  0  0  0  0
   13.4449  -22.8886   25.3194 N   0  0  0  0  0  0  0  0  0  0  0  0
   12.7337  -17.5981   20.7717 C   0  0  0  0  0  0  0  0  0  0  0  0
   12.1374  -17.5898   19.6375 O   0  0  0  0  0  0  0  0  0  0  0  0
   14.1005  -17.4223   20.7698 O   0  0  0  0  0  0  0  0  0  0  0  0
  2  1  1  1
  2  3  1  0
  4  9  2  0
  4  3  1  0
  5  4  1  0
  6  7  1  0
  6  5  2  0
  7  8  2  0
  8  9  1  0
 10  2  1  0
 11 10  2  0
 13 12  1  0
 13 14  1  0
 14 15  1  6
 16 14  1  0
 16 17  1  1
 17 10  1  0
 18 16  1  0
 19 18  2  0
 20 18  1  0
 21 22  1  6
 21 20  1  0
 23 22  1  0
 24 25  1  0
 24 23  1  0
 25 26  1  0
 27 21  1  0
 27 29  1  0
 28 27  2  0
M  END
$$$$
