FIK.pdb
     RDKit          3D

 29 29  0  0  1  0  0  0  0  0999 V2000
    5.5036  -15.1923   21.9774 N   0  0  0  0  0  0  0  0  0  0  0  0
    6.7503  -15.7954   22.3259 C   0  0  1  0  0  0  0  0  0  0  0  0
    7.6514  -15.8668   21.0866 C   0  0  0  0  0  0  0  0  0  0  0  0
    7.7695  -14.5262   20.4596 C   0  0  0  0  0  0  0  0  0  0  0  0
    8.4382  -14.3616   19.2709 C   0  0  0  0  0  0  0  0  0  0  0  0
    8.5561  -13.1297   18.6790 C   0  0  0  0  0  0  0  0  0  0  0  0
    8.0020  -12.0147   19.2662 C   0  0  0  0  0  0  0  0  0  0  0  0
    7.3291  -12.1736   20.4602 C   0  0  0  0  0  0  0  0  0  0  0  0
    7.2156  -13.4068   21.0452 C   0  0  0  0  0  0  0  0  0  0  0  0
    7.4875  -15.0450   23.3751 C   0  0  0  0  0  0  0  0  0  0  0  0
    8.1661  -14.0452   23.0856 O   0  0  0  0  0  0  0  0  0  0  0  0
    6.3953  -12.1552   27.2430 C   0  0  0  0  0  0  0  0  0  0  0  0
    7.2518  -12.8354   26.2299 C   0  0  0  0  0  0  0  0  0  0  0  0
    7.9560  -14.0716   26.7994 C   0  0  2  0  0  0  0  0  0  0  0  0
    8.9756  -13.7372   27.8290 C   0  0  0  0  0  0  0  0  0  0  0  0
    8.3976  -15.0059   25.7346 C   0  0  2  0  0  0  0  0  0  0  0  0
    7.4802  -15.3903   24.7361 N   0  0  0  0  0  0  0  0  0  0  0  0
    8.9657  -16.2179   26.4075 C   0  0  0  0  0  0  0  0  0  0  0  0
    8.2102  -16.9021   27.1401 O   0  0  0  0  0  0  0  0  0  0  0  0
   10.3001  -16.6144   26.2513 N   0  0  0  0  0  0  0  0  0  0  0  0
   10.7622  -17.9344   26.8430 C   0  0  1  0  0  0  0  0  0  0  0  0
   11.7294  -18.4938   25.8947 C   0  0  0  0  0  0  0  0  0  0  0  0
   12.4575  -19.6997   26.2198 C   0  0  0  0  0  0  0  0  0  0  0  0
   13.5259  -20.2863   25.4014 C   0  0  0  0  0  0  0  0  0  0  0  0
   14.1865  -21.5236   25.9565 C   0  0  0  0  0  0  0  0  0  0  0  0
   15.3227  -21.9957   25.2388 N   0  0  0  0  0  0  0  0  0  0  0  0
   11.2596  -17.5188   28.1610 C   0  0  0  0  0  0  0  0  0  0  0  0
   11.6989  -16.3282   28.3383 O   0  0  0  0  0  0  0  0  0  0  0  0
   11.2717  -18.3666   29.2474 O   0  0  0  0  0  0  0  0  0  0  0  0
  2  1  1  6
  2  3  1  0
  4  9  2  0
  4  3  1  0
  5  4  1  0
  6  7  1  0
  6  5  2  0
  7  8  2  0
  8  9  1  0
 10  2  1  0
 11 10  2  0
 13 12  1  0
 13 14  1  0
 14 15  1  6
 16 14  1  0
 16 17  1  6
 17 10  1  0
 18 16  1  0
 19 18  2  0
 20 18  1  0
 21 22  1  6
 21 20  1  0
 23 22  1  0
 24 25  1  0
 24 23  1  0
 25 26  1  0
 27 21  1  0
 27 29  1  0
 28 27  2  0
M  END
$$$$
