FIK.pdb
     RDKit          3D

 29 29  0  0  1  0  0  0  0  0999 V2000
    5.4389  -17.8544   25.1247 N   0  0  0  0  0  0  0  0  0  0  0  0
    5.9290  -16.5170   25.0215 C   0  0  1  0  0  0  0  0  0  0  0  0
    6.2662  -15.9836   26.4197 C   0  0  0  0  0  0  0  0  0  0  0  0
    6.3545  -14.5017   26.3965 C   0  0  0  0  0  0  0  0  0  0  0  0
    5.2392  -13.7337   26.1653 C   0  0  0  0  0  0  0  0  0  0  0  0
    5.3043  -12.3637   26.1406 C   0  0  0  0  0  0  0  0  0  0  0  0
    6.5008  -11.7157   26.3489 C   0  0  0  0  0  0  0  0  0  0  0  0
    7.6246  -12.4816   26.5816 C   0  0  0  0  0  0  0  0  0  0  0  0
    7.5518  -13.8491   26.6048 C   0  0  0  0  0  0  0  0  0  0  0  0
    7.1562  -16.4085   24.1911 C   0  0  0  0  0  0  0  0  0  0  0  0
    8.0832  -17.2269   24.3139 O   0  0  0  0  0  0  0  0  0  0  0  0
    7.1657  -12.5100   20.0076 C   0  0  0  0  0  0  0  0  0  0  0  0
    7.1546  -13.8154   20.7276 C   0  0  0  0  0  0  0  0  0  0  0  0
    8.4896  -14.1088   21.4206 C   0  0  2  0  0  0  0  0  0  0  0  0
    9.6501  -14.0586   20.4920 C   0  0  0  0  0  0  0  0  0  0  0  0
    8.4161  -15.3041   22.2964 C   0  0  2  0  0  0  0  0  0  0  0  0
    7.3654  -15.4064   23.2301 N   0  0  0  0  0  0  0  0  0  0  0  0
    9.7375  -15.4347   22.9903 C   0  0  0  0  0  0  0  0  0  0  0  0
    9.9696  -14.6917   23.9750 O   0  0  0  0  0  0  0  0  0  0  0  0
   10.7181  -16.3489   22.5845 N   0  0  0  0  0  0  0  0  0  0  0  0
   11.9581  -16.5443   23.4393 C   0  0  1  0  0  0  0  0  0  0  0  0
   11.7085  -17.7324   24.2601 C   0  0  0  0  0  0  0  0  0  0  0  0
   12.7173  -18.2109   25.1784 C   0  0  0  0  0  0  0  0  0  0  0  0
   12.6093  -19.4296   25.9898 C   0  0  0  0  0  0  0  0  0  0  0  0
   13.7032  -19.6532   27.0042 C   0  0  0  0  0  0  0  0  0  0  0  0
   13.5582  -20.8049   27.8296 N   0  0  0  0  0  0  0  0  0  0  0  0
   13.0168  -16.6250   22.4245 C   0  0  0  0  0  0  0  0  0  0  0  0
   12.7369  -16.9894   21.2283 O   0  0  0  0  0  0  0  0  0  0  0  0
   14.3306  -16.3138   22.7007 O   0  0  0  0  0  0  0  0  0  0  0  0
  2  1  1  1
  2  3  1  0
  4  9  2  0
  4  3  1  0
  5  4  1  0
  6  7  1  0
  6  5  2  0
  7  8  2  0
  8  9  1  0
 10  2  1  0
 11 10  2  0
 13 12  1  0
 13 14  1  0
 14 15  1  6
 16 14  1  0
 16 17  1  1
 17 10  1  0
 18 16  1  0
 19 18  2  0
 20 18  1  0
 21 22  1  6
 21 20  1  0
 23 22  1  0
 24 25  1  0
 24 23  1  0
 25 26  1  0
 27 21  1  0
 27 29  1  0
 28 27  2  0
M  END
$$$$
