FIK.pdb
     RDKit          3D

 29 29  0  0  1  0  0  0  0  0999 V2000
    6.8426  -16.3719   21.5731 N   0  0  0  0  0  0  0  0  0  0  0  0
    8.2496  -16.5707   21.7151 C   0  0  1  0  0  0  0  0  0  0  0  0
    8.9849  -15.8915   20.5528 C   0  0  0  0  0  0  0  0  0  0  0  0
    8.3822  -14.5647   20.2691 C   0  0  0  0  0  0  0  0  0  0  0  0
    8.9666  -13.4121   20.7352 C   0  0  0  0  0  0  0  0  0  0  0  0
    8.4222  -12.1787   20.4817 C   0  0  0  0  0  0  0  0  0  0  0  0
    7.2644  -12.0622   19.7463 C   0  0  0  0  0  0  0  0  0  0  0  0
    6.6727  -13.2162   19.2754 C   0  0  0  0  0  0  0  0  0  0  0  0
    7.2222  -14.4441   19.5325 C   0  0  0  0  0  0  0  0  0  0  0  0
    8.7927  -16.0102   22.9794 C   0  0  0  0  0  0  0  0  0  0  0  0
   10.0052  -16.0851   23.2407 O   0  0  0  0  0  0  0  0  0  0  0  0
    5.9554  -12.0183   25.7495 C   0  0  0  0  0  0  0  0  0  0  0  0
    6.9991  -12.8371   25.0693 C   0  0  0  0  0  0  0  0  0  0  0  0
    7.5205  -13.9708   25.9590 C   0  0  2  0  0  0  0  0  0  0  0  0
    8.0335  -13.4919   27.2701 C   0  0  0  0  0  0  0  0  0  0  0  0
    8.4095  -14.9004   25.2196 C   0  0  2  0  0  0  0  0  0  0  0  0
    8.0087  -15.3703   23.9527 N   0  0  0  0  0  0  0  0  0  0  0  0
    8.7077  -16.0544   26.1273 C   0  0  0  0  0  0  0  0  0  0  0  0
    7.7555  -16.7846   26.4956 O   0  0  0  0  0  0  0  0  0  0  0  0
   10.0011  -16.3479   26.5781 N   0  0  0  0  0  0  0  0  0  0  0  0
   10.2727  -17.6796   27.2555 C   0  0  1  0  0  0  0  0  0  0  0  0
   11.1243  -18.4415   26.3379 C   0  0  0  0  0  0  0  0  0  0  0  0
   11.7608  -19.6632   26.7763 C   0  0  0  0  0  0  0  0  0  0  0  0
   12.7254  -20.4411   25.9892 C   0  0  0  0  0  0  0  0  0  0  0  0
   13.2401  -21.7066   26.6288 C   0  0  0  0  0  0  0  0  0  0  0  0
   14.4349  -21.5744   27.3929 N   0  0  0  0  0  0  0  0  0  0  0  0
   10.8553  -17.2559   28.5355 C   0  0  0  0  0  0  0  0  0  0  0  0
   10.9112  -18.0736   29.5206 O   0  0  0  0  0  0  0  0  0  0  0  0
   11.3644  -15.9906   28.7331 O   0  0  0  0  0  0  0  0  0  0  0  0
  2  1  1  6
  2  3  1  0
  4  9  2  0
  4  3  1  0
  5  4  1  0
  6  7  1  0
  6  5  2  0
  7  8  2  0
  8  9  1  0
 10  2  1  0
 11 10  2  0
 13 12  1  0
 13 14  1  0
 14 15  1  1
 16 14  1  0
 16 17  1  6
 17 10  1  0
 18 16  1  0
 19 18  2  0
 20 18  1  0
 21 22  1  6
 21 20  1  0
 23 22  1  0
 24 25  1  0
 24 23  1  0
 25 26  1  0
 27 21  1  0
 27 29  1  0
 28 27  2  0
M  END
$$$$
