FIK.pdb
     RDKit          3D

 29 29  0  0  1  0  0  0  0  0999 V2000
    5.7276  -17.9186   25.6817 N   0  0  0  0  0  0  0  0  0  0  0  0
    6.1885  -16.5892   25.4372 C   0  0  1  0  0  0  0  0  0  0  0  0
    6.9099  -16.0578   26.6824 C   0  0  0  0  0  0  0  0  0  0  0  0
    6.9255  -14.5733   26.6725 C   0  0  0  0  0  0  0  0  0  0  0  0
    5.7535  -13.8574   26.6388 C   0  0  0  0  0  0  0  0  0  0  0  0
    5.7511  -12.4856   26.6292 C   0  0  0  0  0  0  0  0  0  0  0  0
    6.9347  -11.7832   26.6532 C   0  0  0  0  0  0  0  0  0  0  0  0
    8.1152  -12.4966   26.6871 C   0  0  0  0  0  0  0  0  0  0  0  0
    8.1096  -13.8662   26.6965 C   0  0  0  0  0  0  0  0  0  0  0  0
    7.1367  -16.5017   24.2968 C   0  0  0  0  0  0  0  0  0  0  0  0
    7.9157  -17.4359   24.0426 O   0  0  0  0  0  0  0  0  0  0  0  0
    8.4158  -12.9821   19.2282 C   0  0  0  0  0  0  0  0  0  0  0  0
    8.6507  -14.1502   20.1244 C   0  0  0  0  0  0  0  0  0  0  0  0
    7.8426  -14.0585   21.4233 C   0  0  2  0  0  0  0  0  0  0  0  0
    7.9910  -12.7474   22.1091 C   0  0  0  0  0  0  0  0  0  0  0  0
    8.0191  -15.2574   22.2794 C   0  0  2  0  0  0  0  0  0  0  0  0
    7.2298  -15.3941   23.4389 N   0  0  0  0  0  0  0  0  0  0  0  0
    9.4727  -15.3482   22.6311 C   0  0  0  0  0  0  0  0  0  0  0  0
    9.9585  -14.4732   23.3885 O   0  0  0  0  0  0  0  0  0  0  0  0
   10.3053  -16.3665   22.1496 N   0  0  0  0  0  0  0  0  0  0  0  0
   11.7440  -16.4458   22.6294 C   0  0  1  0  0  0  0  0  0  0  0  0
   12.0015  -17.8580   22.9249 C   0  0  0  0  0  0  0  0  0  0  0  0
   11.5623  -18.4344   24.1758 C   0  0  0  0  0  0  0  0  0  0  0  0
   11.6853  -19.8511   24.5408 C   0  0  0  0  0  0  0  0  0  0  0  0
   11.0966  -20.2493   25.8714 C   0  0  0  0  0  0  0  0  0  0  0  0
   11.2678  -21.6138   26.2424 N   0  0  0  0  0  0  0  0  0  0  0  0
   12.4722  -15.8387   21.5077 C   0  0  0  0  0  0  0  0  0  0  0  0
   13.5817  -15.2313   21.7126 O   0  0  0  0  0  0  0  0  0  0  0  0
   12.0122  -15.8969   20.2099 O   0  0  0  0  0  0  0  0  0  0  0  0
  2  1  1  1
  2  3  1  0
  4  9  2  0
  4  3  1  0
  5  4  1  0
  6  7  1  0
  6  5  2  0
  7  8  2  0
  8  9  1  0
 10  2  1  0
 11 10  2  0
 13 12  1  0
 13 14  1  0
 14 15  1  1
 16 14  1  0
 16 17  1  1
 17 10  1  0
 18 16  1  0
 19 18  2  0
 20 18  1  0
 21 22  1  6
 21 20  1  0
 23 22  1  0
 24 25  1  0
 24 23  1  0
 25 26  1  0
 27 21  1  0
 27 29  1  0
 28 27  2  0
M  END
$$$$
