FIK.pdb
     RDKit          3D

 29 29  0  0  1  0  0  0  0  0999 V2000
    6.6753  -16.9823   25.4390 N   0  0  0  0  0  0  0  0  0  0  0  0
    7.0241  -15.8141   24.6953 C   0  0  1  0  0  0  0  0  0  0  0  0
    8.0895  -15.0173   25.4589 C   0  0  0  0  0  0  0  0  0  0  0  0
    7.4753  -13.8346   26.1133 C   0  0  0  0  0  0  0  0  0  0  0  0
    6.4531  -13.1461   25.5063 C   0  0  0  0  0  0  0  0  0  0  0  0
    5.8753  -12.0515   26.0978 C   0  0  0  0  0  0  0  0  0  0  0  0
    6.3086  -11.6097   27.3275 C   0  0  0  0  0  0  0  0  0  0  0  0
    7.3349  -12.2971   27.9422 C   0  0  0  0  0  0  0  0  0  0  0  0
    7.9069  -13.3891   27.3454 C   0  0  0  0  0  0  0  0  0  0  0  0
    7.5724  -16.1225   23.3492 C   0  0  0  0  0  0  0  0  0  0  0  0
    7.7287  -17.2982   22.9788 O   0  0  0  0  0  0  0  0  0  0  0  0
    7.8999  -11.7107   20.0896 C   0  0  0  0  0  0  0  0  0  0  0  0
    7.4471  -13.0701   20.5014 C   0  0  0  0  0  0  0  0  0  0  0  0
    8.4903  -14.1492   20.1920 C   0  0  2  0  0  0  0  0  0  0  0  0
    8.6124  -14.4403   18.7388 C   0  0  0  0  0  0  0  0  0  0  0  0
    8.3530  -15.3321   21.0770 C   0  0  2  0  0  0  0  0  0  0  0  0
    7.9477  -15.1449   22.4138 N   0  0  0  0  0  0  0  0  0  0  0  0
    9.6500  -16.0807   21.0311 C   0  0  0  0  0  0  0  0  0  0  0  0
    9.8653  -16.8406   20.0556 O   0  0  0  0  0  0  0  0  0  0  0  0
   10.6258  -15.9654   22.0294 N   0  0  0  0  0  0  0  0  0  0  0  0
   11.9442  -16.7031   21.8753 C   0  0  1  0  0  0  0  0  0  0  0  0
   12.9596  -15.6797   21.6122 C   0  0  0  0  0  0  0  0  0  0  0  0
   13.4139  -15.4314   20.2624 C   0  0  0  0  0  0  0  0  0  0  0  0
   14.5294  -14.5498   19.8967 C   0  0  0  0  0  0  0  0  0  0  0  0
   14.8389  -14.4436   18.4241 C   0  0  0  0  0  0  0  0  0  0  0  0
   15.9541  -13.6264   18.0816 N   0  0  0  0  0  0  0  0  0  0  0  0
   12.0296  -17.4404   23.1427 C   0  0  0  0  0  0  0  0  0  0  0  0
   11.1332  -17.2792   24.0440 O   0  0  0  0  0  0  0  0  0  0  0  0
   13.0500  -18.3256   23.4154 O   0  0  0  0  0  0  0  0  0  0  0  0
  2  1  1  1
  2  3  1  0
  4  9  2  0
  4  3  1  0
  5  4  1  0
  6  7  1  0
  6  5  2  0
  7  8  2  0
  8  9  1  0
 10  2  1  0
 11 10  2  0
 13 12  1  0
 13 14  1  0
 14 15  1  6
 16 14  1  0
 16 17  1  1
 17 10  1  0
 18 16  1  0
 19 18  2  0
 20 18  1  0
 21 22  1  1
 21 20  1  0
 23 22  1  0
 24 25  1  0
 24 23  1  0
 25 26  1  0
 27 21  1  0
 27 29  1  0
 28 27  2  0
M  END
$$$$
