FIK.pdb
     RDKit          3D

 29 29  0  0  1  0  0  0  0  0999 V2000
    7.0037  -19.1117   27.6275 N   0  0  0  0  0  0  0  0  0  0  0  0
    7.5611  -17.7982   27.6865 C   0  0  1  0  0  0  0  0  0  0  0  0
    8.8928  -17.8383   28.4470 C   0  0  0  0  0  0  0  0  0  0  0  0
    9.2931  -16.4678   28.8540 C   0  0  0  0  0  0  0  0  0  0  0  0
    8.4738  -15.3929   28.6079 C   0  0  0  0  0  0  0  0  0  0  0  0
    8.8293  -14.1206   28.9777 C   0  0  0  0  0  0  0  0  0  0  0  0
   10.0283  -13.8850   29.6115 C   0  0  0  0  0  0  0  0  0  0  0  0
   10.8556  -14.9605   29.8615 C   0  0  0  0  0  0  0  0  0  0  0  0
   10.4938  -16.2279   29.4893 C   0  0  0  0  0  0  0  0  0  0  0  0
    7.8269  -17.2172   26.3451 C   0  0  0  0  0  0  0  0  0  0  0  0
    8.0813  -17.9481   25.3730 O   0  0  0  0  0  0  0  0  0  0  0  0
    6.2855  -11.9933   25.9171 C   0  0  0  0  0  0  0  0  0  0  0  0
    6.2741  -13.3458   25.2899 C   0  0  0  0  0  0  0  0  0  0  0  0
    7.6467  -13.7409   24.7345 C   0  0  2  0  0  0  0  0  0  0  0  0
    7.9463  -13.1101   23.4216 C   0  0  0  0  0  0  0  0  0  0  0  0
    7.8852  -15.2030   24.8165 C   0  0  2  0  0  0  0  0  0  0  0  0
    7.8135  -15.8400   26.0717 N   0  0  0  0  0  0  0  0  0  0  0  0
    9.2095  -15.4791   24.1726 C   0  0  0  0  0  0  0  0  0  0  0  0
   10.2442  -15.0257   24.7194 O   0  0  0  0  0  0  0  0  0  0  0  0
    9.3361  -16.2197   22.9904 N   0  0  0  0  0  0  0  0  0  0  0  0
   10.6522  -16.9099   22.6776 C   0  0  1  0  0  0  0  0  0  0  0  0
   10.3296  -18.0230   21.7806 C   0  0  0  0  0  0  0  0  0  0  0  0
   11.0571  -19.2690   21.8717 C   0  0  0  0  0  0  0  0  0  0  0  0
   11.2947  -20.0181   23.1117 C   0  0  0  0  0  0  0  0  0  0  0  0
   11.9412  -21.3724   22.9578 C   0  0  0  0  0  0  0  0  0  0  0  0
   13.0492  -21.6322   23.8144 N   0  0  0  0  0  0  0  0  0  0  0  0
   11.4531  -15.8049   22.1346 C   0  0  0  0  0  0  0  0  0  0  0  0
   10.9126  -14.9344   21.3652 O   0  0  0  0  0  0  0  0  0  0  0  0
   12.7914  -15.6501   22.4246 O   0  0  0  0  0  0  0  0  0  0  0  0
  2  1  1  6
  2  3  1  0
  4  9  2  0
  4  3  1  0
  5  4  1  0
  6  7  1  0
  6  5  2  0
  7  8  2  0
  8  9  1  0
 10  2  1  0
 11 10  2  0
 13 12  1  0
 13 14  1  0
 14 15  1  6
 16 14  1  0
 16 17  1  1
 17 10  1  0
 18 16  1  0
 19 18  2  0
 20 18  1  0
 21 22  1  6
 21 20  1  0
 23 22  1  0
 24 25  1  0
 24 23  1  0
 25 26  1  0
 27 21  1  0
 27 29  1  0
 28 27  2  0
M  END
$$$$
