FIK.pdb
     RDKit          3D

 29 29  0  0  1  0  0  0  0  0999 V2000
    5.4831  -17.7836   25.4113 N   0  0  0  0  0  0  0  0  0  0  0  0
    6.0912  -16.4989   25.2727 C   0  0  1  0  0  0  0  0  0  0  0  0
    6.6197  -16.0304   26.6344 C   0  0  0  0  0  0  0  0  0  0  0  0
    6.7403  -14.5508   26.6571 C   0  0  0  0  0  0  0  0  0  0  0  0
    7.9571  -13.9470   26.8626 C   0  0  0  0  0  0  0  0  0  0  0  0
    8.0851  -12.5813   26.8864 C   0  0  0  0  0  0  0  0  0  0  0  0
    6.9868  -11.7719   26.7032 C   0  0  0  0  0  0  0  0  0  0  0  0
    5.7620  -12.3724   26.4964 C   0  0  0  0  0  0  0  0  0  0  0  0
    5.6420  -13.7366   26.4740 C   0  0  0  0  0  0  0  0  0  0  0  0
    7.2327  -16.4940   24.3217 C   0  0  0  0  0  0  0  0  0  0  0  0
    8.0077  -17.4627   24.2514 O   0  0  0  0  0  0  0  0  0  0  0  0
    7.3045  -12.4275   20.3412 C   0  0  0  0  0  0  0  0  0  0  0  0
    7.2600  -13.7619   21.0046 C   0  0  0  0  0  0  0  0  0  0  0  0
    8.6135  -14.1591   21.6037 C   0  0  2  0  0  0  0  0  0  0  0  0
    9.7146  -14.1577   20.6042 C   0  0  0  0  0  0  0  0  0  0  0  0
    8.5164  -15.3710   22.4541 C   0  0  2  0  0  0  0  0  0  0  0  0
    7.5225  -15.4308   23.4515 N   0  0  0  0  0  0  0  0  0  0  0  0
    9.8676  -15.6060   23.0573 C   0  0  0  0  0  0  0  0  0  0  0  0
   10.2547  -14.8365   23.9703 O   0  0  0  0  0  0  0  0  0  0  0  0
   10.7103  -16.6455   22.6437 N   0  0  0  0  0  0  0  0  0  0  0  0
   12.0406  -16.8542   23.3460 C   0  0  1  0  0  0  0  0  0  0  0  0
   12.0966  -18.2735   23.7071 C   0  0  0  0  0  0  0  0  0  0  0  0
   13.2723  -18.8182   24.3480 C   0  0  0  0  0  0  0  0  0  0  0  0
   13.4739  -20.2349   24.6764 C   0  0  0  0  0  0  0  0  0  0  0  0
   14.7092  -20.5634   25.4775 C   0  0  0  0  0  0  0  0  0  0  0  0
   14.8171  -21.9105   25.9274 N   0  0  0  0  0  0  0  0  0  0  0  0
   12.9943  -16.3668   22.3410 C   0  0  0  0  0  0  0  0  0  0  0  0
   12.7366  -16.4946   21.0923 O   0  0  0  0  0  0  0  0  0  0  0  0
   14.1815  -15.7565   22.6835 O   0  0  0  0  0  0  0  0  0  0  0  0
  2  1  1  1
  2  3  1  0
  4  9  2  0
  4  3  1  0
  5  4  1  0
  6  7  1  0
  6  5  2  0
  7  8  2  0
  8  9  1  0
 10  2  1  0
 11 10  2  0
 13 12  1  0
 13 14  1  0
 14 15  1  6
 16 14  1  0
 16 17  1  1
 17 10  1  0
 18 16  1  0
 19 18  2  0
 20 18  1  0
 21 22  1  6
 21 20  1  0
 23 22  1  0
 24 25  1  0
 24 23  1  0
 25 26  1  0
 27 21  1  0
 27 29  1  0
 28 27  2  0
M  END
$$$$
