FIK.pdb
     RDKit          3D

 29 29  0  0  1  0  0  0  0  0999 V2000
    5.8786  -17.5752   25.3989 N   0  0  0  0  0  0  0  0  0  0  0  0
    6.4886  -16.3374   25.0311 C   0  0  1  0  0  0  0  0  0  0  0  0
    7.3030  -15.7944   26.2122 C   0  0  0  0  0  0  0  0  0  0  0  0
    7.1626  -14.3189   26.2976 C   0  0  0  0  0  0  0  0  0  0  0  0
    8.2486  -13.5233   26.5716 C   0  0  0  0  0  0  0  0  0  0  0  0
    8.1353  -12.1586   26.6540 C   0  0  0  0  0  0  0  0  0  0  0  0
    6.9185  -11.5442   26.4623 C   0  0  0  0  0  0  0  0  0  0  0  0
    5.8240  -12.3380   26.1868 C   0  0  0  0  0  0  0  0  0  0  0  0
    5.9449  -13.6998   26.1062 C   0  0  0  0  0  0  0  0  0  0  0  0
    7.4084  -16.4631   23.8710 C   0  0  0  0  0  0  0  0  0  0  0  0
    7.7670  -17.5796   23.4601 O   0  0  0  0  0  0  0  0  0  0  0  0
    7.4090  -12.0859   20.4720 C   0  0  0  0  0  0  0  0  0  0  0  0
    7.3233  -13.4398   21.0902 C   0  0  0  0  0  0  0  0  0  0  0  0
    8.6794  -14.1531   21.1186 C   0  0  2  0  0  0  0  0  0  0  0  0
    9.2859  -14.3030   19.7691 C   0  0  0  0  0  0  0  0  0  0  0  0
    8.6502  -15.3803   21.9521 C   0  0  2  0  0  0  0  0  0  0  0  0
    7.9323  -15.3684   23.1649 N   0  0  0  0  0  0  0  0  0  0  0  0
   10.0701  -15.7910   22.1969 C   0  0  0  0  0  0  0  0  0  0  0  0
   10.7968  -15.0391   22.8912 O   0  0  0  0  0  0  0  0  0  0  0  0
   10.6144  -16.9752   21.6836 N   0  0  0  0  0  0  0  0  0  0  0  0
   12.0813  -17.0161   21.2927 C   0  0  1  0  0  0  0  0  0  0  0  0
   12.2841  -15.9196   20.3418 C   0  0  0  0  0  0  0  0  0  0  0  0
   13.6190  -15.5464   19.9311 C   0  0  0  0  0  0  0  0  0  0  0  0
   13.9366  -14.6043   18.8508 C   0  0  0  0  0  0  0  0  0  0  0  0
   15.4005  -14.3183   18.6258 C   0  0  0  0  0  0  0  0  0  0  0  0
   15.6995  -13.3956   17.5827 N   0  0  0  0  0  0  0  0  0  0  0  0
   12.7464  -16.9198   22.5986 C   0  0  0  0  0  0  0  0  0  0  0  0
   14.0247  -16.8642   22.6686 O   0  0  0  0  0  0  0  0  0  0  0  0
   12.0449  -16.8786   23.7841 O   0  0  0  0  0  0  0  0  0  0  0  0
  2  1  1  1
  2  3  1  0
  4  9  2  0
  4  3  1  0
  5  4  1  0
  6  7  1  0
  6  5  2  0
  7  8  2  0
  8  9  1  0
 10  2  1  0
 11 10  2  0
 13 12  1  0
 13 14  1  0
 14 15  1  6
 16 14  1  0
 16 17  1  1
 17 10  1  0
 18 16  1  0
 19 18  2  0
 20 18  1  0
 21 22  1  6
 21 20  1  0
 23 22  1  0
 24 25  1  0
 24 23  1  0
 25 26  1  0
 27 21  1  0
 27 29  1  0
 28 27  2  0
M  END
$$$$
