FIK.pdb
     RDKit          3D

 29 29  0  0  1  0  0  0  0  0999 V2000
    7.3081  -18.9709   27.5035 N   0  0  0  0  0  0  0  0  0  0  0  0
    7.8762  -17.6610   27.5346 C   0  0  1  0  0  0  0  0  0  0  0  0
    9.3006  -17.7316   28.0998 C   0  0  0  0  0  0  0  0  0  0  0  0
    9.7623  -16.3782   28.4991 C   0  0  0  0  0  0  0  0  0  0  0  0
    9.6837  -15.9653   29.8070 C   0  0  0  0  0  0  0  0  0  0  0  0
   10.1059  -14.7182   30.1919 C   0  0  0  0  0  0  0  0  0  0  0  0
   10.6248  -13.8387   29.2687 C   0  0  0  0  0  0  0  0  0  0  0  0
   10.7063  -14.2477   27.9535 C   0  0  0  0  0  0  0  0  0  0  0  0
   10.2827  -15.4944   27.5767 C   0  0  0  0  0  0  0  0  0  0  0  0
    7.9559  -17.0283   26.1927 C   0  0  0  0  0  0  0  0  0  0  0  0
    8.2122  -17.7057   25.1830 O   0  0  0  0  0  0  0  0  0  0  0  0
    6.1335  -11.8457   25.9902 C   0  0  0  0  0  0  0  0  0  0  0  0
    6.1399  -13.1852   25.3357 C   0  0  0  0  0  0  0  0  0  0  0  0
    7.4965  -13.5179   24.7052 C   0  0  2  0  0  0  0  0  0  0  0  0
    7.7142  -12.8371   23.4011 C   0  0  0  0  0  0  0  0  0  0  0  0
    7.7838  -14.9733   24.7284 C   0  0  2  0  0  0  0  0  0  0  0  0
    7.7553  -15.6583   25.9597 N   0  0  0  0  0  0  0  0  0  0  0  0
    9.1047  -15.1814   24.0527 C   0  0  0  0  0  0  0  0  0  0  0  0
   10.1384  -14.7497   24.6189 O   0  0  0  0  0  0  0  0  0  0  0  0
    9.2294  -15.8355   22.8203 N   0  0  0  0  0  0  0  0  0  0  0  0
   10.6045  -16.2579   22.3336 C   0  0  1  0  0  0  0  0  0  0  0  0
   10.7893  -17.6431   22.7751 C   0  0  0  0  0  0  0  0  0  0  0  0
   11.9235  -18.4116   22.3137 C   0  0  0  0  0  0  0  0  0  0  0  0
   12.1585  -19.8299   22.6115 C   0  0  0  0  0  0  0  0  0  0  0  0
   13.3649  -20.4565   21.9575 C   0  0  0  0  0  0  0  0  0  0  0  0
   13.6890  -21.7752   22.3872 N   0  0  0  0  0  0  0  0  0  0  0  0
   10.5054  -16.0085   20.8896 C   0  0  0  0  0  0  0  0  0  0  0  0
   11.5532  -15.7156   20.2125 O   0  0  0  0  0  0  0  0  0  0  0  0
    9.3104  -16.0821   20.2071 O   0  0  0  0  0  0  0  0  0  0  0  0
  2  1  1  6
  2  3  1  0
  4  9  2  0
  4  3  1  0
  5  4  1  0
  6  7  1  0
  6  5  2  0
  7  8  2  0
  8  9  1  0
 10  2  1  0
 11 10  2  0
 13 12  1  0
 13 14  1  0
 14 15  1  6
 16 14  1  0
 16 17  1  1
 17 10  1  0
 18 16  1  0
 19 18  2  0
 20 18  1  0
 21 22  1  6
 21 20  1  0
 23 22  1  0
 24 25  1  0
 24 23  1  0
 25 26  1  0
 27 21  1  0
 27 29  1  0
 28 27  2  0
M  END
$$$$
