FIK.pdb
     RDKit          3D

 29 29  0  0  1  0  0  0  0  0999 V2000
    5.3730  -17.7799   25.3567 N   0  0  0  0  0  0  0  0  0  0  0  0
    5.9610  -16.4909   25.1774 C   0  0  1  0  0  0  0  0  0  0  0  0
    6.4409  -15.9516   26.5309 C   0  0  0  0  0  0  0  0  0  0  0  0
    6.5719  -14.4737   26.4778 C   0  0  0  0  0  0  0  0  0  0  0  0
    7.7983  -13.8704   26.6166 C   0  0  0  0  0  0  0  0  0  0  0  0
    7.9359  -12.5063   26.5699 C   0  0  0  0  0  0  0  0  0  0  0  0
    6.8379  -11.6979   26.3807 C   0  0  0  0  0  0  0  0  0  0  0  0
    5.6034  -12.2980   26.2406 C   0  0  0  0  0  0  0  0  0  0  0  0
    5.4739  -13.6606   26.2884 C   0  0  0  0  0  0  0  0  0  0  0  0
    7.1295  -16.5060   24.2598 C   0  0  0  0  0  0  0  0  0  0  0  0
    7.9016  -17.4790   24.2272 O   0  0  0  0  0  0  0  0  0  0  0  0
    7.3089  -12.4719   20.2642 C   0  0  0  0  0  0  0  0  0  0  0  0
    7.2365  -13.8058   20.9262 C   0  0  0  0  0  0  0  0  0  0  0  0
    8.5803  -14.2299   21.5284 C   0  0  2  0  0  0  0  0  0  0  0  0
    9.6796  -14.2687   20.5277 C   0  0  0  0  0  0  0  0  0  0  0  0
    8.4538  -15.4286   22.3937 C   0  0  2  0  0  0  0  0  0  0  0  0
    7.4492  -15.4580   23.3818 N   0  0  0  0  0  0  0  0  0  0  0  0
    9.7946  -15.6789   23.0135 C   0  0  0  0  0  0  0  0  0  0  0  0
   10.1689  -14.9287   23.9476 O   0  0  0  0  0  0  0  0  0  0  0  0
   10.6416  -16.7122   22.5927 N   0  0  0  0  0  0  0  0  0  0  0  0
   11.9199  -16.9920   23.3633 C   0  0  1  0  0  0  0  0  0  0  0  0
   11.9254  -18.4307   23.6421 C   0  0  0  0  0  0  0  0  0  0  0  0
   13.0628  -19.0452   24.2891 C   0  0  0  0  0  0  0  0  0  0  0  0
   13.1229  -19.4267   25.7055 C   0  0  0  0  0  0  0  0  0  0  0  0
   14.4024  -20.0803   26.1652 C   0  0  0  0  0  0  0  0  0  0  0  0
   14.7143  -21.3300   25.5573 N   0  0  0  0  0  0  0  0  0  0  0  0
   12.9452  -16.4690   22.4509 C   0  0  0  0  0  0  0  0  0  0  0  0
   12.7509  -16.4870   21.1844 O   0  0  0  0  0  0  0  0  0  0  0  0
   14.1351  -15.9396   22.9017 O   0  0  0  0  0  0  0  0  0  0  0  0
  2  1  1  1
  2  3  1  0
  4  9  2  0
  4  3  1  0
  5  4  1  0
  6  7  1  0
  6  5  2  0
  7  8  2  0
  8  9  1  0
 10  2  1  0
 11 10  2  0
 13 12  1  0
 13 14  1  0
 14 15  1  6
 16 14  1  0
 16 17  1  1
 17 10  1  0
 18 16  1  0
 19 18  2  0
 20 18  1  0
 21 22  1  6
 21 20  1  0
 23 22  1  0
 24 25  1  0
 24 23  1  0
 25 26  1  0
 27 21  1  0
 27 29  1  0
 28 27  2  0
M  END
$$$$
