NVY.pdb
     RDKit          3D

 28 28  0  0  1  0  0  0  0  0999 V2000
   18.1065  -14.2017  -19.6335 N   0  0  0  0  0  0  0  0  0  0  0  0
   19.4486  -13.7606  -19.5412 C   0  0  0  0  0  0  0  0  0  0  0  0
   20.2147  -14.1285  -20.4980 O   0  0  0  0  0  0  0  0  0  0  0  0
   20.0390  -12.9465  -18.4899 C   0  0  0  0  0  0  0  0  0  0  0  0
   21.0940  -13.5916  -17.6637 C   0  0  2  0  0  0  0  0  0  0  0  0
   20.6770  -14.8050  -16.9935 N   0  0  0  0  0  0  0  0  0  0  0  0
   21.7359  -12.6181  -16.7451 C   0  0  0  0  0  0  0  0  0  0  0  0
   21.1570  -12.3206  -15.6459 O   0  0  0  0  0  0  0  0  0  0  0  0
   25.6222  -10.1255  -15.1189 C   0  0  0  0  0  0  0  0  0  0  0  0
   25.0278  -11.1734  -16.0273 C   0  0  1  0  0  0  0  0  0  0  0  0
   25.4551  -12.5514  -15.5704 C   0  0  0  0  0  0  0  0  0  0  0  0
   23.5481  -11.0098  -16.0600 C   0  0  2  0  0  0  0  0  0  0  0  0
   22.9647  -11.9687  -16.9854 N   0  0  0  0  0  0  0  0  0  0  0  0
   23.1795   -9.6217  -16.4705 C   0  0  0  0  0  0  0  0  0  0  0  0
   23.4576   -9.2448  -17.6280 O   0  0  0  0  0  0  0  0  0  0  0  0
   19.6016   -2.3533  -18.9561 O   0  0  0  0  0  0  0  0  0  0  0  0
   20.0308   -3.6092  -18.5484 C   0  0  0  0  0  0  0  0  0  0  0  0
   21.3187   -4.0684  -18.7879 C   0  0  0  0  0  0  0  0  0  0  0  0
   21.7497   -5.3042  -18.3894 C   0  0  0  0  0  0  0  0  0  0  0  0
   20.9018   -6.1588  -17.7200 C   0  0  0  0  0  0  0  0  0  0  0  0
   21.3097   -7.5076  -17.2775 C   0  0  0  0  0  0  0  0  0  0  0  0
   22.1078   -7.4403  -16.0122 C   0  0  2  0  0  0  0  0  0  0  0  0
   22.5317   -8.7566  -15.5699 N   0  0  0  0  0  0  0  0  0  0  0  0
   21.4797   -6.7362  -14.8992 C   0  0  0  0  0  0  0  0  0  0  0  0
   21.0482   -7.4527  -13.7765 O   0  0  0  0  0  0  0  0  0  0  0  0
   19.6122   -5.7221  -17.4701 C   0  0  0  0  0  0  0  0  0  0  0  0
   19.1898   -4.4758  -17.8761 C   0  0  0  0  0  0  0  0  0  0  0  0
   21.2808   -5.4981  -14.8495 O   0  0  0  0  0  0  0  0  0  0  0  0
  1  2  1  0
  2  3  2  0
  4  2  1  0
  5  4  1  0
  5  6  1  1
  7  5  1  0
  7  8  2  0
 10 12  1  0
 10  9  1  1
 11 10  1  0
 12 13  1  6
 13  7  1  0
 14 15  2  0
 14 12  1  0
 16 17  1  0
 17 18  2  0
 18 19  1  0
 20 21  1  0
 20 19  2  0
 22 21  1  6
 22 23  1  0
 23 14  1  0
 24 22  1  0
 25 24  1  0
 26 20  1  0
 27 26  2  0
 27 17  1  0
 28 24  2  0
M  END
$$$$
