NVY.pdb
     RDKit          3D

 28 28  0  0  1  0  0  0  0  0999 V2000
   25.2894  -25.8831  -18.5283 N   0  0  0  0  0  0  0  0  0  0  0  0
   25.3735  -24.4988  -18.2436 C   0  0  0  0  0  0  0  0  0  0  0  0
   24.8371  -23.7260  -19.1112 O   0  0  0  0  0  0  0  0  0  0  0  0
   25.9957  -23.8725  -17.0872 C   0  0  0  0  0  0  0  0  0  0  0  0
   27.1846  -23.0195  -17.3533 C   0  0  2  0  0  0  0  0  0  0  0  0
   28.3486  -23.7384  -17.8264 N   0  0  0  0  0  0  0  0  0  0  0  0
   27.4848  -22.1317  -16.2022 C   0  0  0  0  0  0  0  0  0  0  0  0
   28.5236  -22.3567  -15.4936 O   0  0  0  0  0  0  0  0  0  0  0  0
   27.0765  -18.0841  -13.5432 C   0  0  0  0  0  0  0  0  0  0  0  0
   26.9714  -18.8341  -14.8483 C   0  0  1  0  0  0  0  0  0  0  0  0
   28.1148  -18.4427  -15.7590 C   0  0  0  0  0  0  0  0  0  0  0  0
   26.9304  -20.2964  -14.5699 C   0  0  2  0  0  0  0  0  0  0  0  0
   26.7000  -21.0288  -15.8056 N   0  0  0  0  0  0  0  0  0  0  0  0
   25.8546  -20.6160  -13.5841 C   0  0  0  0  0  0  0  0  0  0  0  0
   24.6635  -20.5452  -13.9522 O   0  0  0  0  0  0  0  0  0  0  0  0
   28.2196  -18.6205   -6.4733 O   0  0  0  0  0  0  0  0  0  0  0  0
   27.5996  -19.4744   -7.3756 C   0  0  0  0  0  0  0  0  0  0  0  0
   28.3151  -20.2443   -8.2824 C   0  0  0  0  0  0  0  0  0  0  0  0
   27.7120  -21.0882   -9.1744 C   0  0  0  0  0  0  0  0  0  0  0  0
   26.3402  -21.2081   -9.2068 C   0  0  0  0  0  0  0  0  0  0  0  0
   25.6360  -22.0939  -10.1560 C   0  0  0  0  0  0  0  0  0  0  0  0
   25.1194  -21.3217  -11.3306 C   0  0  2  0  0  0  0  0  0  0  0  0
   26.1780  -20.9895  -12.2669 N   0  0  0  0  0  0  0  0  0  0  0  0
   24.3576  -20.1176  -11.0164 C   0  0  0  0  0  0  0  0  0  0  0  0
   23.0065  -20.2204  -10.6639 O   0  0  0  0  0  0  0  0  0  0  0  0
   25.6058  -20.4496   -8.3116 C   0  0  0  0  0  0  0  0  0  0  0  0
   26.2240  -19.6036   -7.4181 C   0  0  0  0  0  0  0  0  0  0  0  0
   24.8162  -18.9495  -11.0324 O   0  0  0  0  0  0  0  0  0  0  0  0
  1  2  1  0
  2  3  2  0
  4  2  1  0
  5  4  1  0
  5  6  1  1
  7  5  1  0
  7  8  2  0
 10 12  1  0
 10  9  1  1
 11 10  1  0
 12 13  1  6
 13  7  1  0
 14 15  2  0
 14 12  1  0
 16 17  1  0
 17 18  2  0
 18 19  1  0
 20 21  1  0
 20 19  2  0
 22 21  1  1
 22 23  1  0
 23 14  1  0
 24 22  1  0
 25 24  1  0
 26 20  1  0
 27 26  2  0
 27 17  1  0
 28 24  2  0
M  END
$$$$
