NVY.pdb
     RDKit          3D

 28 28  0  0  1  0  0  0  0  0999 V2000
   24.5100  -11.9341  -23.2477 N   0  0  0  0  0  0  0  0  0  0  0  0
   23.4712  -11.1744  -22.6575 C   0  0  0  0  0  0  0  0  0  0  0  0
   22.7090  -10.5554  -23.4781 O   0  0  0  0  0  0  0  0  0  0  0  0
   23.1841  -11.0256  -21.2390 C   0  0  0  0  0  0  0  0  0  0  0  0
   24.1069  -11.7154  -20.2986 C   0  0  2  0  0  0  0  0  0  0  0  0
   24.1048  -13.1592  -20.4022 N   0  0  0  0  0  0  0  0  0  0  0  0
   23.9199  -11.2378  -18.9056 C   0  0  0  0  0  0  0  0  0  0  0  0
   22.9287  -11.6692  -18.2249 O   0  0  0  0  0  0  0  0  0  0  0  0
   25.7293   -9.7181  -14.6897 C   0  0  0  0  0  0  0  0  0  0  0  0
   25.8886  -10.1695  -16.1206 C   0  0  1  0  0  0  0  0  0  0  0  0
   26.3576  -11.6078  -16.1562 C   0  0  0  0  0  0  0  0  0  0  0  0
   24.6035   -9.9639  -16.8441 C   0  0  2  0  0  0  0  0  0  0  0  0
   24.7626  -10.3192  -18.2458 N   0  0  0  0  0  0  0  0  0  0  0  0
   24.1547   -8.5437  -16.7298 C   0  0  0  0  0  0  0  0  0  0  0  0
   24.8621   -7.6486  -17.2373 O   0  0  0  0  0  0  0  0  0  0  0  0
   19.5735   -1.1903  -16.3640 O   0  0  0  0  0  0  0  0  0  0  0  0
   20.0608   -2.4801  -16.5265 C   0  0  0  0  0  0  0  0  0  0  0  0
   21.2572   -2.7461  -17.1783 C   0  0  0  0  0  0  0  0  0  0  0  0
   21.7446   -4.0138  -17.3425 C   0  0  0  0  0  0  0  0  0  0  0  0
   21.0499   -5.0991  -16.8558 C   0  0  0  0  0  0  0  0  0  0  0  0
   21.5224   -6.4893  -17.0149 C   0  0  0  0  0  0  0  0  0  0  0  0
   22.5357   -6.8363  -15.9681 C   0  0  2  0  0  0  0  0  0  0  0  0
   22.9583   -8.2220  -16.0634 N   0  0  0  0  0  0  0  0  0  0  0  0
   22.1556   -6.5412  -14.5907 C   0  0  0  0  0  0  0  0  0  0  0  0
   21.5594   -7.5346  -13.8046 O   0  0  0  0  0  0  0  0  0  0  0  0
   19.8537   -4.8580  -16.2021 C   0  0  0  0  0  0  0  0  0  0  0  0
   19.3732   -3.5773  -16.0428 C   0  0  0  0  0  0  0  0  0  0  0  0
   22.3186   -5.4361  -14.0187 O   0  0  0  0  0  0  0  0  0  0  0  0
  1  2  1  0
  2  3  2  0
  4  2  1  0
  5  4  1  0
  5  6  1  1
  7  5  1  0
  7  8  2  0
 10 12  1  0
 10  9  1  1
 11 10  1  0
 12 13  1  6
 13  7  1  0
 14 15  2  0
 14 12  1  0
 16 17  1  0
 17 18  2  0
 18 19  1  0
 20 21  1  0
 20 19  2  0
 22 21  1  6
 22 23  1  0
 23 14  1  0
 24 22  1  0
 25 24  1  0
 26 20  1  0
 27 26  2  0
 27 17  1  0
 28 24  2  0
M  END
$$$$
