NVY.pdb
     RDKit          3D

 28 28  0  0  1  0  0  0  0  0999 V2000
   25.9719  -22.2843  -21.7835 N   0  0  0  0  0  0  0  0  0  0  0  0
   26.2716  -21.5640  -20.6020 C   0  0  0  0  0  0  0  0  0  0  0  0
   26.8375  -20.4299  -20.7788 O   0  0  0  0  0  0  0  0  0  0  0  0
   26.0085  -21.9710  -19.2303 C   0  0  0  0  0  0  0  0  0  0  0  0
   27.1612  -21.9271  -18.2917 C   0  0  2  0  0  0  0  0  0  0  0  0
   28.2578  -22.8046  -18.6422 N   0  0  0  0  0  0  0  0  0  0  0  0
   26.7215  -22.0895  -16.8832 C   0  0  0  0  0  0  0  0  0  0  0  0
   26.4063  -23.2518  -16.4570 O   0  0  0  0  0  0  0  0  0  0  0  0
   26.0666  -20.3920  -12.3074 C   0  0  0  0  0  0  0  0  0  0  0  0
   26.6428  -20.1963  -13.6881 C   0  0  1  0  0  0  0  0  0  0  0  0
   28.1545  -20.2195  -13.6217 C   0  0  0  0  0  0  0  0  0  0  0  0
   26.0896  -21.2348  -14.6006 C   0  0  2  0  0  0  0  0  0  0  0  0
   26.6137  -21.0427  -15.9440 N   0  0  0  0  0  0  0  0  0  0  0  0
   24.5973  -21.1743  -14.6261 C   0  0  0  0  0  0  0  0  0  0  0  0
   24.0455  -20.2319  -15.2316 O   0  0  0  0  0  0  0  0  0  0  0  0
   17.6655  -24.7335  -10.6652 O   0  0  0  0  0  0  0  0  0  0  0  0
   18.6623  -24.4142  -11.5774 C   0  0  0  0  0  0  0  0  0  0  0  0
   18.4080  -24.2625  -12.9335 C   0  0  0  0  0  0  0  0  0  0  0  0
   19.3842  -23.9478  -13.8389 C   0  0  0  0  0  0  0  0  0  0  0  0
   20.6865  -23.7657  -13.4288 C   0  0  0  0  0  0  0  0  0  0  0  0
   21.7819  -23.4371  -14.3634 C   0  0  0  0  0  0  0  0  0  0  0  0
   22.3800  -22.1020  -14.0432 C   0  0  2  0  0  0  0  0  0  0  0  0
   23.8293  -22.1602  -13.9802 N   0  0  0  0  0  0  0  0  0  0  0  0
   21.8706  -21.4468  -12.8431 C   0  0  0  0  0  0  0  0  0  0  0  0
   22.6645  -21.3884  -11.6914 O   0  0  0  0  0  0  0  0  0  0  0  0
   20.9639  -23.9122  -12.0805 C   0  0  0  0  0  0  0  0  0  0  0  0
   19.9727  -24.2290  -11.1785 C   0  0  0  0  0  0  0  0  0  0  0  0
   20.7420  -20.9079  -12.7398 O   0  0  0  0  0  0  0  0  0  0  0  0
  1  2  1  0
  2  3  2  0
  4  2  1  0
  5  4  1  0
  5  6  1  6
  7  5  1  0
  7  8  2  0
 10 12  1  0
 10  9  1  1
 11 10  1  0
 12 13  1  6
 13  7  1  0
 14 15  2  0
 14 12  1  0
 16 17  1  0
 17 18  2  0
 18 19  1  0
 20 21  1  0
 20 19  2  0
 22 21  1  1
 22 23  1  0
 23 14  1  0
 24 22  1  0
 25 24  1  0
 26 20  1  0
 27 26  2  0
 27 17  1  0
 28 24  2  0
M  END
$$$$
