NVY.pdb
     RDKit          3D

 28 28  0  0  1  0  0  0  0  0999 V2000
   27.1215   -8.5982  -23.4804 N   0  0  0  0  0  0  0  0  0  0  0  0
   26.2438   -8.8394  -22.3959 C   0  0  0  0  0  0  0  0  0  0  0  0
   25.1786   -9.4871  -22.6850 O   0  0  0  0  0  0  0  0  0  0  0  0
   26.4225   -8.4348  -21.0100 C   0  0  0  0  0  0  0  0  0  0  0  0
   27.6668   -7.6849  -20.6921 C   0  0  2  0  0  0  0  0  0  0  0  0
   28.8716   -8.4873  -20.6949 N   0  0  0  0  0  0  0  0  0  0  0  0
   27.5146   -6.8792  -19.4547 C   0  0  0  0  0  0  0  0  0  0  0  0
   27.8619   -7.3838  -18.3338 O   0  0  0  0  0  0  0  0  0  0  0  0
   29.2768   -4.1350  -18.3577 C   0  0  0  0  0  0  0  0  0  0  0  0
   27.8588   -3.6301  -18.2524 C   0  0  1  0  0  0  0  0  0  0  0  0
   27.5524   -2.7132  -19.4167 C   0  0  0  0  0  0  0  0  0  0  0  0
   26.9307   -4.7918  -18.1734 C   0  0  2  0  0  0  0  0  0  0  0  0
   27.0018   -5.5663  -19.4028 N   0  0  0  0  0  0  0  0  0  0  0  0
   25.5279   -4.3321  -17.9452 C   0  0  0  0  0  0  0  0  0  0  0  0
   24.8617   -3.9314  -18.9224 O   0  0  0  0  0  0  0  0  0  0  0  0
   21.5303   -9.9328  -15.3340 O   0  0  0  0  0  0  0  0  0  0  0  0
   21.8021   -8.6629  -15.8249 C   0  0  0  0  0  0  0  0  0  0  0  0
   21.0974   -7.5402  -15.4128 C   0  0  0  0  0  0  0  0  0  0  0  0
   21.3589   -6.2854  -15.8913 C   0  0  0  0  0  0  0  0  0  0  0  0
   22.3546   -6.0848  -16.8217 C   0  0  0  0  0  0  0  0  0  0  0  0
   22.6717   -4.7551  -17.3811 C   0  0  0  0  0  0  0  0  0  0  0  0
   23.5758   -3.9882  -16.4661 C   0  0  2  0  0  0  0  0  0  0  0  0
   24.9690   -4.3505  -16.6543 N   0  0  0  0  0  0  0  0  0  0  0  0
   23.2481   -4.0522  -15.0457 C   0  0  0  0  0  0  0  0  0  0  0  0
   22.0622   -3.4735  -14.5778 O   0  0  0  0  0  0  0  0  0  0  0  0
   23.0707   -7.1902  -17.2476 C   0  0  0  0  0  0  0  0  0  0  0  0
   22.7984   -8.4484  -16.7587 C   0  0  0  0  0  0  0  0  0  0  0  0
   23.9568   -4.5991  -14.1661 O   0  0  0  0  0  0  0  0  0  0  0  0
  1  2  1  0
  2  3  2  0
  4  2  1  0
  5  4  1  0
  5  6  1  1
  7  5  1  0
  7  8  2  0
 10 12  1  0
 10  9  1  6
 11 10  1  0
 12 13  1  6
 13  7  1  0
 14 15  2  0
 14 12  1  0
 16 17  1  0
 17 18  2  0
 18 19  1  0
 20 21  1  0
 20 19  2  0
 22 21  1  6
 22 23  1  0
 23 14  1  0
 24 22  1  0
 25 24  1  0
 26 20  1  0
 27 26  2  0
 27 17  1  0
 28 24  2  0
M  END
$$$$
