NVY.pdb
     RDKit          3D

 28 28  0  0  1  0  0  0  0  0999 V2000
   19.4982  -12.9511  -22.3827 N   0  0  0  0  0  0  0  0  0  0  0  0
   20.6142  -12.6998  -21.5486 C   0  0  0  0  0  0  0  0  0  0  0  0
   21.7553  -12.9674  -22.0624 O   0  0  0  0  0  0  0  0  0  0  0  0
   20.6005  -12.1781  -20.1905 C   0  0  0  0  0  0  0  0  0  0  0  0
   21.1966  -13.0454  -19.1398 C   0  0  2  0  0  0  0  0  0  0  0  0
   20.5811  -14.3495  -19.0138 N   0  0  0  0  0  0  0  0  0  0  0  0
   21.3039  -12.3317  -17.8426 C   0  0  0  0  0  0  0  0  0  0  0  0
   20.2638  -12.2029  -17.1122 O   0  0  0  0  0  0  0  0  0  0  0  0
   23.8150  -10.6341  -14.0271 C   0  0  0  0  0  0  0  0  0  0  0  0
   23.7143  -11.4772  -15.2744 C   0  0  1  0  0  0  0  0  0  0  0  0
   23.6538  -12.9423  -14.9003 C   0  0  0  0  0  0  0  0  0  0  0  0
   22.5349  -11.0358  -16.0691 C   0  0  2  0  0  0  0  0  0  0  0  0
   22.4875  -11.7619  -17.3288 N   0  0  0  0  0  0  0  0  0  0  0  0
   22.5965   -9.5670  -16.3336 C   0  0  0  0  0  0  0  0  0  0  0  0
   23.4951   -9.1296  -17.0824 O   0  0  0  0  0  0  0  0  0  0  0  0
   16.1913   -7.7732  -19.3428 O   0  0  0  0  0  0  0  0  0  0  0  0
   17.5015   -7.6161  -18.9110 C   0  0  0  0  0  0  0  0  0  0  0  0
   18.2211   -8.6503  -18.3284 C   0  0  0  0  0  0  0  0  0  0  0  0
   19.5124   -8.5040  -17.9005 C   0  0  0  0  0  0  0  0  0  0  0  0
   20.1615   -7.2967  -18.0349 C   0  0  0  0  0  0  0  0  0  0  0  0
   21.5497   -7.0789  -17.5800 C   0  0  0  0  0  0  0  0  0  0  0  0
   21.6702   -7.2855  -16.1017 C   0  0  2  0  0  0  0  0  0  0  0  0
   21.6601   -8.6941  -15.7503 N   0  0  0  0  0  0  0  0  0  0  0  0
   20.6977   -6.5755  -15.2776 C   0  0  0  0  0  0  0  0  0  0  0  0
   20.6124   -5.1798  -15.3477 O   0  0  0  0  0  0  0  0  0  0  0  0
   19.4633   -6.2505  -18.6131 C   0  0  0  0  0  0  0  0  0  0  0  0
   18.1639   -6.4098  -19.0401 C   0  0  0  0  0  0  0  0  0  0  0  0
   19.8967   -7.1184  -14.4785 O   0  0  0  0  0  0  0  0  0  0  0  0
  1  2  1  0
  2  3  2  0
  4  2  1  0
  5  4  1  0
  5  6  1  1
  7  5  1  0
  7  8  2  0
 10 12  1  0
 10  9  1  1
 11 10  1  0
 12 13  1  6
 13  7  1  0
 14 15  2  0
 14 12  1  0
 16 17  1  0
 17 18  2  0
 18 19  1  0
 20 21  1  0
 20 19  2  0
 22 21  1  6
 22 23  1  0
 23 14  1  0
 24 22  1  0
 25 24  1  0
 26 20  1  0
 27 26  2  0
 27 17  1  0
 28 24  2  0
M  END
$$$$
