NVY.pdb
     RDKit          3D

 28 28  0  0  1  0  0  0  0  0999 V2000
   26.4495  -15.1212  -15.3313 N   0  0  0  0  0  0  0  0  0  0  0  0
   26.6619  -13.7306  -15.4911 C   0  0  0  0  0  0  0  0  0  0  0  0
   27.7921  -13.2964  -15.0767 O   0  0  0  0  0  0  0  0  0  0  0  0
   25.7451  -12.7589  -16.0672 C   0  0  0  0  0  0  0  0  0  0  0  0
   24.4426  -13.2837  -16.5569 C   0  0  2  0  0  0  0  0  0  0  0  0
   24.5497  -14.3582  -17.5210 N   0  0  0  0  0  0  0  0  0  0  0  0
   23.5521  -12.1873  -17.0134 C   0  0  0  0  0  0  0  0  0  0  0  0
   23.8413  -11.5516  -18.0829 O   0  0  0  0  0  0  0  0  0  0  0  0
   19.1397  -10.1520  -17.2081 C   0  0  0  0  0  0  0  0  0  0  0  0
   20.0987  -11.2907  -16.9621 C   0  0  1  0  0  0  0  0  0  0  0  0
   19.9349  -12.3417  -18.0385 C   0  0  0  0  0  0  0  0  0  0  0  0
   21.4857  -10.7542  -16.8863 C   0  0  2  0  0  0  0  0  0  0  0  0
   22.3798  -11.7687  -16.3500 N   0  0  0  0  0  0  0  0  0  0  0  0
   21.5330   -9.5329  -16.0276 C   0  0  0  0  0  0  0  0  0  0  0  0
   21.2775   -9.6453  -14.8104 O   0  0  0  0  0  0  0  0  0  0  0  0
   21.4314   -0.8655  -14.3162 O   0  0  0  0  0  0  0  0  0  0  0  0
   21.7675   -2.1432  -14.7431 C   0  0  0  0  0  0  0  0  0  0  0  0
   22.1665   -3.1399  -13.8633 C   0  0  0  0  0  0  0  0  0  0  0  0
   22.4990   -4.4013  -14.2755 C   0  0  0  0  0  0  0  0  0  0  0  0
   22.4492   -4.7371  -15.6104 C   0  0  0  0  0  0  0  0  0  0  0  0
   22.8085   -6.0788  -16.1127 C   0  0  0  0  0  0  0  0  0  0  0  0
   21.7534   -7.0834  -15.7661 C   0  0  2  0  0  0  0  0  0  0  0  0
   21.8591   -8.2809  -16.5801 N   0  0  0  0  0  0  0  0  0  0  0  0
   20.3775   -6.5988  -15.7967 C   0  0  0  0  0  0  0  0  0  0  0  0
   19.7465   -6.2183  -14.6063 O   0  0  0  0  0  0  0  0  0  0  0  0
   22.0541   -3.7589  -16.5066 C   0  0  0  0  0  0  0  0  0  0  0  0
   21.7216   -2.4925  -16.0797 C   0  0  0  0  0  0  0  0  0  0  0  0
   19.6758   -6.4855  -16.8310 O   0  0  0  0  0  0  0  0  0  0  0  0
  1  2  1  0
  2  3  2  0
  4  2  1  0
  5  4  1  0
  5  6  1  6
  7  5  1  0
  7  8  2  0
 10 12  1  0
 10  9  1  6
 11 10  1  0
 12 13  1  1
 13  7  1  0
 14 15  2  0
 14 12  1  0
 16 17  1  0
 17 18  2  0
 18 19  1  0
 20 21  1  0
 20 19  2  0
 22 21  1  6
 22 23  1  0
 23 14  1  0
 24 22  1  0
 25 24  1  0
 26 20  1  0
 27 26  2  0
 27 17  1  0
 28 24  2  0
M  END
$$$$
