NVY.pdb
     RDKit          3D

 28 28  0  0  1  0  0  0  0  0999 V2000
   30.6465  -26.7669  -19.0766 N   0  0  0  0  0  0  0  0  0  0  0  0
   29.3727  -26.6680  -18.4664 C   0  0  0  0  0  0  0  0  0  0  0  0
   28.5678  -27.6311  -18.7160 O   0  0  0  0  0  0  0  0  0  0  0  0
   28.8903  -25.6037  -17.5998 C   0  0  0  0  0  0  0  0  0  0  0  0
   29.8665  -24.5375  -17.2507 C   0  0  2  0  0  0  0  0  0  0  0  0
   31.0436  -25.0040  -16.5490 N   0  0  0  0  0  0  0  0  0  0  0  0
   29.2047  -23.3966  -16.5696 C   0  0  0  0  0  0  0  0  0  0  0  0
   29.3110  -23.2785  -15.3021 O   0  0  0  0  0  0  0  0  0  0  0  0
   27.4516  -18.8496  -16.6408 C   0  0  0  0  0  0  0  0  0  0  0  0
   28.1584  -20.0098  -17.2973 C   0  0  1  0  0  0  0  0  0  0  0  0
   29.6355  -19.7063  -17.4238 C   0  0  0  0  0  0  0  0  0  0  0  0
   27.8891  -21.2503  -16.5189 C   0  0  2  0  0  0  0  0  0  0  0  0
   28.4420  -22.4014  -17.2157 N   0  0  0  0  0  0  0  0  0  0  0  0
   26.4211  -21.4383  -16.3166 C   0  0  0  0  0  0  0  0  0  0  0  0
   25.6938  -21.6023  -17.3184 O   0  0  0  0  0  0  0  0  0  0  0  0
   18.6749  -23.4518  -12.8016 O   0  0  0  0  0  0  0  0  0  0  0  0
   20.0090  -23.0944  -12.9430 C   0  0  0  0  0  0  0  0  0  0  0  0
   20.4408  -21.7791  -12.8418 C   0  0  0  0  0  0  0  0  0  0  0  0
   21.7534  -21.4185  -12.9795 C   0  0  0  0  0  0  0  0  0  0  0  0
   22.7178  -22.3695  -13.2298 C   0  0  0  0  0  0  0  0  0  0  0  0
   24.1466  -22.0358  -13.3994 C   0  0  0  0  0  0  0  0  0  0  0  0
   24.4660  -21.7514  -14.8345 C   0  0  2  0  0  0  0  0  0  0  0  0
   25.8694  -21.4307  -15.0225 N   0  0  0  0  0  0  0  0  0  0  0  0
   23.6470  -20.7306  -15.4796 C   0  0  0  0  0  0  0  0  0  0  0  0
   22.6125  -21.1107  -16.3430 O   0  0  0  0  0  0  0  0  0  0  0  0
   22.3103  -23.6882  -13.3350 C   0  0  0  0  0  0  0  0  0  0  0  0
   20.9862  -24.0392  -13.1944 C   0  0  0  0  0  0  0  0  0  0  0  0
   23.7865  -19.4926  -15.3284 O   0  0  0  0  0  0  0  0  0  0  0  0
  1  2  1  0
  2  3  2  0
  4  2  1  0
  5  4  1  0
  5  6  1  1
  7  5  1  0
  7  8  2  0
 10 12  1  0
 10  9  1  1
 11 10  1  0
 12 13  1  6
 13  7  1  0
 14 15  2  0
 14 12  1  0
 16 17  1  0
 17 18  2  0
 18 19  1  0
 20 21  1  0
 20 19  2  0
 22 21  1  1
 22 23  1  0
 23 14  1  0
 24 22  1  0
 25 24  1  0
 26 20  1  0
 27 26  2  0
 27 17  1  0
 28 24  2  0
M  END
$$$$
