NVY.pdb
     RDKit          3D

 28 28  0  0  1  0  0  0  0  0999 V2000
   29.5387  -19.8580  -17.4714 N   0  0  0  0  0  0  0  0  0  0  0  0
   28.1528  -19.5685  -17.4790 C   0  0  0  0  0  0  0  0  0  0  0  0
   27.7642  -18.7665  -18.3974 O   0  0  0  0  0  0  0  0  0  0  0  0
   27.1404  -20.0783  -16.5670 C   0  0  0  0  0  0  0  0  0  0  0  0
   27.6068  -21.0243  -15.5185 C   0  0  2  0  0  0  0  0  0  0  0  0
   28.2651  -22.2096  -16.0257 N   0  0  0  0  0  0  0  0  0  0  0  0
   26.5270  -21.3359  -14.5487 C   0  0  0  0  0  0  0  0  0  0  0  0
   25.6264  -22.1840  -14.8672 O   0  0  0  0  0  0  0  0  0  0  0  0
   24.4797  -20.9290  -10.0688 C   0  0  0  0  0  0  0  0  0  0  0  0
   25.6349  -20.6149  -10.9872 C   0  0  1  0  0  0  0  0  0  0  0  0
   26.9021  -21.2466  -10.4530 C   0  0  0  0  0  0  0  0  0  0  0  0
   25.3011  -21.0686  -12.3656 C   0  0  2  0  0  0  0  0  0  0  0  0
   26.3997  -20.7593  -13.2678 N   0  0  0  0  0  0  0  0  0  0  0  0
   24.0494  -20.4121  -12.8487 C   0  0  0  0  0  0  0  0  0  0  0  0
   24.0499  -19.1759  -13.0247 O   0  0  0  0  0  0  0  0  0  0  0  0
   16.9292  -17.9392  -16.9474 O   0  0  0  0  0  0  0  0  0  0  0  0
   18.0945  -18.5437  -16.4956 C   0  0  0  0  0  0  0  0  0  0  0  0
   18.1883  -19.9126  -16.2852 C   0  0  0  0  0  0  0  0  0  0  0  0
   19.3327  -20.5162  -15.8405 C   0  0  0  0  0  0  0  0  0  0  0  0
   20.4609  -19.7706  -15.5788 C   0  0  0  0  0  0  0  0  0  0  0  0
   21.7188  -20.3675  -15.0860 C   0  0  0  0  0  0  0  0  0  0  0  0
   21.6944  -20.5204  -13.5965 C   0  0  2  0  0  0  0  0  0  0  0  0
   22.8929  -21.1726  -13.1004 N   0  0  0  0  0  0  0  0  0  0  0  0
   20.5191  -21.1850  -13.0433 C   0  0  0  0  0  0  0  0  0  0  0  0
   19.4454  -20.4214  -12.5698 O   0  0  0  0  0  0  0  0  0  0  0  0
   20.3907  -18.4030  -15.7814 C   0  0  0  0  0  0  0  0  0  0  0  0
   19.2331  -17.8066  -16.2294 C   0  0  0  0  0  0  0  0  0  0  0  0
   20.3719  -22.4277  -12.9471 O   0  0  0  0  0  0  0  0  0  0  0  0
  1  2  1  0
  2  3  2  0
  4  2  1  0
  5  4  1  0
  5  6  1  6
  7  5  1  0
  7  8  2  0
 10 12  1  0
 10  9  1  1
 11 10  1  0
 12 13  1  6
 13  7  1  0
 14 15  2  0
 14 12  1  0
 16 17  1  0
 17 18  2  0
 18 19  1  0
 20 21  1  0
 20 19  2  0
 22 21  1  6
 22 23  1  0
 23 14  1  0
 24 22  1  0
 25 24  1  0
 26 20  1  0
 27 26  2  0
 27 17  1  0
 28 24  2  0
M  END
$$$$
