NVY.pdb
     RDKit          3D

 28 28  0  0  1  0  0  0  0  0999 V2000
   23.0020  -13.8948  -22.1076 N   0  0  0  0  0  0  0  0  0  0  0  0
   22.3165  -12.7698  -21.5889 C   0  0  0  0  0  0  0  0  0  0  0  0
   21.5111  -12.1951  -22.4005 O   0  0  0  0  0  0  0  0  0  0  0  0
   22.4297  -12.2074  -20.2519 C   0  0  0  0  0  0  0  0  0  0  0  0
   23.3786  -12.8813  -19.3260 C   0  0  2  0  0  0  0  0  0  0  0  0
   23.0739  -14.2706  -19.0566 N   0  0  0  0  0  0  0  0  0  0  0  0
   23.5872  -12.0873  -18.0893 C   0  0  0  0  0  0  0  0  0  0  0  0
   22.7237  -12.1547  -17.1503 O   0  0  0  0  0  0  0  0  0  0  0  0
   26.5185   -9.6749  -14.9961 C   0  0  0  0  0  0  0  0  0  0  0  0
   26.3298  -10.4734  -16.2624 C   0  0  1  0  0  0  0  0  0  0  0  0
   26.9428  -11.8474  -16.0993 C   0  0  0  0  0  0  0  0  0  0  0  0
   24.8797  -10.5249  -16.5966 C   0  0  2  0  0  0  0  0  0  0  0  0
   24.6860  -11.2357  -17.8509 N   0  0  0  0  0  0  0  0  0  0  0  0
   24.3134   -9.1467  -16.7032 C   0  0  0  0  0  0  0  0  0  0  0  0
   24.7037   -8.4082  -17.6314 O   0  0  0  0  0  0  0  0  0  0  0  0
   19.6125   -2.2250  -17.9746 O   0  0  0  0  0  0  0  0  0  0  0  0
   20.2157   -3.4664  -17.8236 C   0  0  0  0  0  0  0  0  0  0  0  0
   19.4827   -4.6380  -17.6936 C   0  0  0  0  0  0  0  0  0  0  0  0
   20.0691   -5.8651  -17.5447 C   0  0  0  0  0  0  0  0  0  0  0  0
   21.4408   -5.9865  -17.5176 C   0  0  0  0  0  0  0  0  0  0  0  0
   22.1268   -7.2834  -17.3474 C   0  0  0  0  0  0  0  0  0  0  0  0
   22.7156   -7.4047  -15.9758 C   0  0  2  0  0  0  0  0  0  0  0  0
   23.3591   -8.6906  -15.7757 N   0  0  0  0  0  0  0  0  0  0  0  0
   21.8052   -7.1426  -14.8661 C   0  0  0  0  0  0  0  0  0  0  0  0
   21.7449   -5.8626  -14.3022 O   0  0  0  0  0  0  0  0  0  0  0  0
   22.1926   -4.8312  -17.6455 C   0  0  0  0  0  0  0  0  0  0  0  0
   21.5910   -3.6015  -17.7949 C   0  0  0  0  0  0  0  0  0  0  0  0
   21.0389   -7.9899  -14.3466 O   0  0  0  0  0  0  0  0  0  0  0  0
  1  2  1  0
  2  3  2  0
  4  2  1  0
  5  4  1  0
  5  6  1  1
  7  5  1  0
  7  8  2  0
 10 12  1  0
 10  9  1  1
 11 10  1  0
 12 13  1  6
 13  7  1  0
 14 15  2  0
 14 12  1  0
 16 17  1  0
 17 18  2  0
 18 19  1  0
 20 21  1  0
 20 19  2  0
 22 21  1  6
 22 23  1  0
 23 14  1  0
 24 22  1  0
 25 24  1  0
 26 20  1  0
 27 26  2  0
 27 17  1  0
 28 24  2  0
M  END
$$$$
