NVY.pdb
     RDKit          3D

 28 28  0  0  1  0  0  0  0  0999 V2000
   30.9209  -11.0642  -17.3609 N   0  0  0  0  0  0  0  0  0  0  0  0
   30.9422   -9.7795  -17.9555 C   0  0  0  0  0  0  0  0  0  0  0  0
   32.1062   -9.2919  -18.1679 O   0  0  0  0  0  0  0  0  0  0  0  0
   29.7986   -8.9684  -18.3438 C   0  0  0  0  0  0  0  0  0  0  0  0
   28.4549   -9.5143  -18.0151 C   0  0  2  0  0  0  0  0  0  0  0  0
   28.0175  -10.5958  -18.8720 N   0  0  0  0  0  0  0  0  0  0  0  0
   27.4449   -8.4335  -17.8911 C   0  0  0  0  0  0  0  0  0  0  0  0
   27.6437   -7.4848  -17.0591 O   0  0  0  0  0  0  0  0  0  0  0  0
   24.0450   -5.4666  -19.4798 C   0  0  0  0  0  0  0  0  0  0  0  0
   25.1681   -6.4599  -19.6496 C   0  0  1  0  0  0  0  0  0  0  0  0
   26.4590   -5.7293  -19.9494 C   0  0  0  0  0  0  0  0  0  0  0  0
   25.2567   -7.3109  -18.4309 C   0  0  2  0  0  0  0  0  0  0  0  0
   26.2458   -8.3588  -18.6301 N   0  0  0  0  0  0  0  0  0  0  0  0
   23.9300   -7.9205  -18.1152 C   0  0  0  0  0  0  0  0  0  0  0  0
   23.3665   -8.6149  -18.9868 O   0  0  0  0  0  0  0  0  0  0  0  0
   16.8724  -11.4491  -14.5806 O   0  0  0  0  0  0  0  0  0  0  0  0
   18.1419  -10.9408  -14.8207 C   0  0  0  0  0  0  0  0  0  0  0  0
   18.6643   -9.8753  -14.1006 C   0  0  0  0  0  0  0  0  0  0  0  0
   19.9141   -9.3686  -14.3306 C   0  0  0  0  0  0  0  0  0  0  0  0
   20.7195   -9.9096  -15.3083 C   0  0  0  0  0  0  0  0  0  0  0  0
   22.0713   -9.3953  -15.6076 C   0  0  0  0  0  0  0  0  0  0  0  0
   22.0126   -8.2687  -16.5924 C   0  0  2  0  0  0  0  0  0  0  0  0
   23.3280   -7.7159  -16.8603 N   0  0  0  0  0  0  0  0  0  0  0  0
   21.0908   -7.1854  -16.2672 C   0  0  0  0  0  0  0  0  0  0  0  0
   21.5260   -6.1141  -15.4780 O   0  0  0  0  0  0  0  0  0  0  0  0
   20.2193  -10.9733  -16.0395 C   0  0  0  0  0  0  0  0  0  0  0  0
   18.9596  -11.4748  -15.7989 C   0  0  0  0  0  0  0  0  0  0  0  0
   19.8952   -7.1188  -16.6428 O   0  0  0  0  0  0  0  0  0  0  0  0
  1  2  1  0
  2  3  2  0
  4  2  1  0
  5  4  1  0
  5  6  1  6
  7  5  1  0
  7  8  2  0
 10 12  1  0
 10  9  1  1
 11 10  1  0
 12 13  1  6
 13  7  1  0
 14 15  2  0
 14 12  1  0
 16 17  1  0
 17 18  2  0
 18 19  1  0
 20 21  1  0
 20 19  2  0
 22 21  1  1
 22 23  1  0
 23 14  1  0
 24 22  1  0
 25 24  1  0
 26 20  1  0
 27 26  2  0
 27 17  1  0
 28 24  2  0
M  END
$$$$
