NFV.pdb
     RDKit          3D

 27 27  0  0  1  0  0  0  0  0999 V2000
    9.6761  -18.3471   16.7616 N   0  0  0  0  0  0  0  0  0  0  0  0
    9.1587  -18.5727   18.0578 C   0  0  0  0  0  0  0  0  0  0  0  0
    8.2413  -19.4355   18.1803 O   0  0  0  0  0  0  0  0  0  0  0  0
    9.6485  -17.8428   19.2562 C   0  0  0  0  0  0  0  0  0  0  0  0
    8.5376  -16.9313   19.7451 C   0  0  2  0  0  0  0  0  0  0  0  0
    8.1402  -16.0122   18.7201 N   0  0  0  0  0  0  0  0  0  0  0  0
    8.9159  -16.2135   20.9892 C   0  0  0  0  0  0  0  0  0  0  0  0
   10.1232  -15.8434   21.1009 O   0  0  0  0  0  0  0  0  0  0  0  0
    7.9382  -15.9837   21.9631 N   0  0  0  0  0  0  0  0  0  0  0  0
    8.2505  -15.1866   23.1433 C   0  0  1  0  0  0  0  0  0  0  0  0
    7.0335  -14.3863   23.5441 C   0  0  0  0  0  0  0  0  0  0  0  0
    7.1449  -13.6586   24.8096 C   0  0  0  0  0  0  0  0  0  0  0  0
    7.6394  -12.3494   24.7962 C   0  0  0  0  0  0  0  0  0  0  0  0
    7.7497  -11.5858   25.9246 C   0  0  0  0  0  0  0  0  0  0  0  0
    7.3720  -12.0839   27.1386 C   0  0  0  0  0  0  0  0  0  0  0  0
    6.8818  -13.3730   27.1735 C   0  0  0  0  0  0  0  0  0  0  0  0
    6.7658  -14.1502   26.0485 C   0  0  0  0  0  0  0  0  0  0  0  0
    8.7518  -16.1200   24.1508 C   0  0  0  0  0  0  0  0  0  0  0  0
    8.1036  -17.1931   24.4401 O   0  0  0  0  0  0  0  0  0  0  0  0
   12.1098  -17.7102   24.2190 C   0  0  0  0  0  0  0  0  0  0  0  0
   11.8827  -17.1750   25.6162 C   0  0  2  0  0  0  0  0  0  0  0  0
   12.4345  -18.0655   26.6889 C   0  0  0  0  0  0  0  0  0  0  0  0
   10.3816  -16.9706   25.8754 C   0  0  2  0  0  0  0  0  0  0  0  0
    9.9547  -15.9868   24.9049 N   0  0  0  0  0  0  0  0  0  0  0  0
   10.1234  -16.6189   27.2684 C   0  0  0  0  0  0  0  0  0  0  0  0
   10.1647  -15.3735   27.5559 O   0  0  0  0  0  0  0  0  0  0  0  0
    9.8419  -17.4587   28.3086 O   0  0  0  0  0  0  0  0  0  0  0  0
  2  1  1  0
  3  2  2  0
  4  2  1  0
  5  4  1  0
  5  6  1  6
  7  8  2  0
  7  5  1  0
  9  7  1  0
 10  9  1  0
 10 11  1  1
 11 12  1  0
 12 13  2  0
 12 17  1  0
 13 14  1  0
 14 15  2  0
 16 15  1  0
 17 16  2  0
 18 10  1  0
 19 18  2  0
 21 23  1  0
 21 20  1  6
 22 21  1  0
 23 24  1  6
 24 18  1  0
 25 27  1  0
 25 23  1  0
 26 25  2  0
M  END
$$$$
