NFV.pdb
     RDKit          3D

 27 27  0  0  1  0  0  0  0  0999 V2000
   12.6476  -18.8074   19.5340 N   0  0  0  0  0  0  0  0  0  0  0  0
   12.7338  -17.4209   19.2709 C   0  0  0  0  0  0  0  0  0  0  0  0
   13.4707  -17.0516   18.3109 O   0  0  0  0  0  0  0  0  0  0  0  0
   12.0012  -16.4048   20.0706 C   0  0  0  0  0  0  0  0  0  0  0  0
   11.3269  -17.1101   21.2332 C   0  0  2  0  0  0  0  0  0  0  0  0
   10.2255  -17.9071   20.7802 N   0  0  0  0  0  0  0  0  0  0  0  0
   10.8980  -16.1560   22.2877 C   0  0  0  0  0  0  0  0  0  0  0  0
   11.7421  -15.2875   22.6621 O   0  0  0  0  0  0  0  0  0  0  0  0
    9.6040  -16.2592   22.8095 N   0  0  0  0  0  0  0  0  0  0  0  0
    9.1616  -15.3507   23.8606 C   0  0  1  0  0  0  0  0  0  0  0  0
    7.6792  -15.0989   23.7142 C   0  0  0  0  0  0  0  0  0  0  0  0
    7.0998  -14.1615   24.6780 C   0  0  0  0  0  0  0  0  0  0  0  0
    7.4140  -12.8017   24.5725 C   0  0  0  0  0  0  0  0  0  0  0  0
    6.8960  -11.8529   25.4092 C   0  0  0  0  0  0  0  0  0  0  0  0
    6.0304  -12.2046   26.4049 C   0  0  0  0  0  0  0  0  0  0  0  0
    5.7077  -13.5404   26.5260 C   0  0  0  0  0  0  0  0  0  0  0  0
    6.2203  -14.5029   25.6930 C   0  0  0  0  0  0  0  0  0  0  0  0
    9.5775  -15.9513   25.1271 C   0  0  0  0  0  0  0  0  0  0  0  0
    9.8989  -17.1952   25.1961 O   0  0  0  0  0  0  0  0  0  0  0  0
    9.0100  -14.4072   29.0868 C   0  0  0  0  0  0  0  0  0  0  0  0
   10.3905  -14.7839   28.5943 C   0  0  2  0  0  0  0  0  0  0  0  0
   11.1434  -13.6307   28.0014 C   0  0  0  0  0  0  0  0  0  0  0  0
   10.2989  -15.9002   27.5418 C   0  0  2  0  0  0  0  0  0  0  0  0
    9.6847  -15.2875   26.3845 N   0  0  0  0  0  0  0  0  0  0  0  0
    9.6025  -17.0715   28.0652 C   0  0  0  0  0  0  0  0  0  0  0  0
    8.4231  -17.2779   27.6157 O   0  0  0  0  0  0  0  0  0  0  0  0
   10.0558  -17.9793   28.9800 O   0  0  0  0  0  0  0  0  0  0  0  0
  2  1  1  0
  3  2  2  0
  4  2  1  0
  5  4  1  0
  5  6  1  6
  7  8  2  0
  7  5  1  0
  9  7  1  0
 10  9  1  0
 10 11  1  1
 11 12  1  0
 12 13  2  0
 12 17  1  0
 13 14  1  0
 14 15  2  0
 16 15  1  0
 17 16  2  0
 18 10  1  0
 19 18  2  0
 21 23  1  0
 21 20  1  6
 22 21  1  0
 23 24  1  6
 24 18  1  0
 25 27  1  0
 25 23  1  0
 26 25  2  0
M  END
$$$$
