NFV.pdb
     RDKit          3D

 27 27  0  0  1  0  0  0  0  0999 V2000
   13.7447  -17.6101   18.6544 N   0  0  0  0  0  0  0  0  0  0  0  0
   12.3842  -17.5511   19.0344 C   0  0  0  0  0  0  0  0  0  0  0  0
   11.6095  -18.4416   18.5785 O   0  0  0  0  0  0  0  0  0  0  0  0
   11.8466  -16.4971   19.9339 C   0  0  0  0  0  0  0  0  0  0  0  0
   11.4339  -17.1513   21.2399 C   0  0  2  0  0  0  0  0  0  0  0  0
   10.4321  -18.1516   21.0181 N   0  0  0  0  0  0  0  0  0  0  0  0
   10.9797  -16.1529   22.2413 C   0  0  0  0  0  0  0  0  0  0  0  0
   11.7824  -15.2154   22.5309 O   0  0  0  0  0  0  0  0  0  0  0  0
    9.7084  -16.2919   22.8087 N   0  0  0  0  0  0  0  0  0  0  0  0
    9.2594  -15.3648   23.8405 C   0  0  1  0  0  0  0  0  0  0  0  0
    7.7748  -15.1289   23.6908 C   0  0  0  0  0  0  0  0  0  0  0  0
    7.2035  -14.1160   24.5801 C   0  0  0  0  0  0  0  0  0  0  0  0
    7.4883  -12.7668   24.3405 C   0  0  0  0  0  0  0  0  0  0  0  0
    6.9748  -11.7532   25.1005 C   0  0  0  0  0  0  0  0  0  0  0  0
    6.1433  -12.0254   26.1488 C   0  0  0  0  0  0  0  0  0  0  0  0
    5.8499  -13.3494   26.4019 C   0  0  0  0  0  0  0  0  0  0  0  0
    6.3585  -14.3764   25.6470 C   0  0  0  0  0  0  0  0  0  0  0  0
    9.6821  -15.9342   25.1191 C   0  0  0  0  0  0  0  0  0  0  0  0
    9.9174  -17.1936   25.2376 O   0  0  0  0  0  0  0  0  0  0  0  0
    9.2137  -14.2572   29.0556 C   0  0  0  0  0  0  0  0  0  0  0  0
   10.5666  -14.7133   28.5539 C   0  0  2  0  0  0  0  0  0  0  0  0
   11.3654  -13.6137   27.9206 C   0  0  0  0  0  0  0  0  0  0  0  0
   10.4051  -15.8502   27.5324 C   0  0  2  0  0  0  0  0  0  0  0  0
    9.8859  -15.2220   26.3375 N   0  0  0  0  0  0  0  0  0  0  0  0
    9.5880  -16.9356   28.0664 C   0  0  0  0  0  0  0  0  0  0  0  0
    8.3985  -17.0292   27.6063 O   0  0  0  0  0  0  0  0  0  0  0  0
    9.9375  -17.8687   29.0012 O   0  0  0  0  0  0  0  0  0  0  0  0
  2  1  1  0
  3  2  2  0
  4  2  1  0
  5  4  1  0
  5  6  1  6
  7  8  2  0
  7  5  1  0
  9  7  1  0
 10  9  1  0
 10 11  1  1
 11 12  1  0
 12 13  2  0
 12 17  1  0
 13 14  1  0
 14 15  2  0
 16 15  1  0
 17 16  2  0
 18 10  1  0
 19 18  2  0
 21 23  1  0
 21 20  1  6
 22 21  1  0
 23 24  1  6
 24 18  1  0
 25 27  1  0
 25 23  1  0
 26 25  2  0
M  END
$$$$
