NFV.pdb
     RDKit          3D

 27 27  0  0  1  0  0  0  0  0999 V2000
   12.2785  -18.9261   19.3596 N   0  0  0  0  0  0  0  0  0  0  0  0
   12.2219  -17.5567   19.0127 C   0  0  0  0  0  0  0  0  0  0  0  0
   12.7909  -17.2002   17.9402 O   0  0  0  0  0  0  0  0  0  0  0  0
   11.5293  -16.5438   19.8512 C   0  0  0  0  0  0  0  0  0  0  0  0
   11.0826  -17.2156   21.1369 C   0  0  2  0  0  0  0  0  0  0  0  0
    9.9995  -18.1215   20.8924 N   0  0  0  0  0  0  0  0  0  0  0  0
   10.7251  -16.2257   22.1850 C   0  0  0  0  0  0  0  0  0  0  0  0
   11.5395  -15.2757   22.3874 O   0  0  0  0  0  0  0  0  0  0  0  0
    9.5261  -16.3861   22.8880 N   0  0  0  0  0  0  0  0  0  0  0  0
    9.1665  -15.4527   23.9489 C   0  0  1  0  0  0  0  0  0  0  0  0
    7.6704  -15.2435   23.9465 C   0  0  0  0  0  0  0  0  0  0  0  0
    7.1774  -14.1994   24.8466 C   0  0  0  0  0  0  0  0  0  0  0  0
    7.4162  -12.8588   24.5232 C   0  0  0  0  0  0  0  0  0  0  0  0
    6.9676  -11.8190   25.2888 C   0  0  0  0  0  0  0  0  0  0  0  0
    6.2511  -12.0547   26.4271 C   0  0  0  0  0  0  0  0  0  0  0  0
    6.0048  -13.3697   26.7637 C   0  0  0  0  0  0  0  0  0  0  0  0
    6.4493  -14.4226   26.0042 C   0  0  0  0  0  0  0  0  0  0  0  0
    9.7255  -15.9979   25.1850 C   0  0  0  0  0  0  0  0  0  0  0  0
   10.0108  -17.2482   25.2877 O   0  0  0  0  0  0  0  0  0  0  0  0
    9.3757  -14.6112   29.2925 C   0  0  0  0  0  0  0  0  0  0  0  0
   10.7074  -14.7671   28.5908 C   0  0  2  0  0  0  0  0  0  0  0  0
   11.1763  -13.5092   27.9230 C   0  0  0  0  0  0  0  0  0  0  0  0
   10.6305  -15.8811   27.5347 C   0  0  2  0  0  0  0  0  0  0  0  0
   10.0202  -15.2694   26.3749 N   0  0  0  0  0  0  0  0  0  0  0  0
    9.9384  -17.0585   28.0502 C   0  0  0  0  0  0  0  0  0  0  0  0
    8.7358  -17.2298   27.6503 O   0  0  0  0  0  0  0  0  0  0  0  0
   10.4177  -18.0050   28.9109 O   0  0  0  0  0  0  0  0  0  0  0  0
  2  1  1  0
  3  2  2  0
  4  2  1  0
  5  4  1  0
  5  6  1  6
  7  8  2  0
  7  5  1  0
  9  7  1  0
 10  9  1  0
 10 11  1  1
 11 12  1  0
 12 13  2  0
 12 17  1  0
 13 14  1  0
 14 15  2  0
 16 15  1  0
 17 16  2  0
 18 10  1  0
 19 18  2  0
 21 23  1  0
 21 20  1  6
 22 21  1  0
 23 24  1  6
 24 18  1  0
 25 27  1  0
 25 23  1  0
 26 25  2  0
M  END
$$$$
