NFV.pdb
     RDKit          3D

 27 27  0  0  1  0  0  0  0  0999 V2000
   11.8808  -19.0751   19.2627 N   0  0  0  0  0  0  0  0  0  0  0  0
   12.0006  -17.7124   18.9056 C   0  0  0  0  0  0  0  0  0  0  0  0
   12.5663  -17.4425   17.8064 O   0  0  0  0  0  0  0  0  0  0  0  0
   11.4935  -16.6098   19.7635 C   0  0  0  0  0  0  0  0  0  0  0  0
   10.9244  -17.2177   21.0326 C   0  0  2  0  0  0  0  0  0  0  0  0
    9.7702  -18.0169   20.7453 N   0  0  0  0  0  0  0  0  0  0  0  0
   10.6179  -16.1839   22.0540 C   0  0  0  0  0  0  0  0  0  0  0  0
   11.5173  -15.3243   22.2971 O   0  0  0  0  0  0  0  0  0  0  0  0
    9.3716  -16.2073   22.6893 N   0  0  0  0  0  0  0  0  0  0  0  0
    9.0540  -15.2254   23.7194 C   0  0  1  0  0  0  0  0  0  0  0  0
    7.5654  -14.9686   23.7250 C   0  0  0  0  0  0  0  0  0  0  0  0
    7.1070  -13.9312   24.6507 C   0  0  0  0  0  0  0  0  0  0  0  0
    6.3208  -14.3022   25.7476 C   0  0  0  0  0  0  0  0  0  0  0  0
    5.8742  -13.4058   26.6780 C   0  0  0  0  0  0  0  0  0  0  0  0
    6.1859  -12.0808   26.5699 C   0  0  0  0  0  0  0  0  0  0  0  0
    6.9602  -11.6943   25.4955 C   0  0  0  0  0  0  0  0  0  0  0  0
    7.4150  -12.5836   24.5546 C   0  0  0  0  0  0  0  0  0  0  0  0
    9.6097  -15.7436   24.9685 C   0  0  0  0  0  0  0  0  0  0  0  0
    9.7712  -17.0075   25.1474 O   0  0  0  0  0  0  0  0  0  0  0  0
   11.3136  -14.9254   29.5935 C   0  0  0  0  0  0  0  0  0  0  0  0
   10.6707  -14.4356   28.3140 C   0  0  2  0  0  0  0  0  0  0  0  0
    9.2895  -13.8885   28.5165 C   0  0  0  0  0  0  0  0  0  0  0  0
   10.5997  -15.5706   27.2802 C   0  0  2  0  0  0  0  0  0  0  0  0
   10.0296  -14.9734   26.0927 N   0  0  0  0  0  0  0  0  0  0  0  0
    9.8736  -16.7240   27.8028 C   0  0  0  0  0  0  0  0  0  0  0  0
   10.5020  -17.4574   28.6412 O   0  0  0  0  0  0  0  0  0  0  0  0
    8.6000  -17.1199   27.5065 O   0  0  0  0  0  0  0  0  0  0  0  0
  2  1  1  0
  3  2  2  0
  4  2  1  0
  5  4  1  0
  5  6  1  6
  7  8  2  0
  7  5  1  0
  9  7  1  0
 10  9  1  0
 10 11  1  1
 11 12  1  0
 12 13  2  0
 12 17  1  0
 13 14  1  0
 14 15  2  0
 16 15  1  0
 17 16  2  0
 18 10  1  0
 19 18  2  0
 21 23  1  0
 21 20  1  1
 22 21  1  0
 23 24  1  6
 24 18  1  0
 25 27  1  0
 25 23  1  0
 26 25  2  0
M  END
$$$$
