NFV.pdb
     RDKit          3D

 27 27  0  0  1  0  0  0  0  0999 V2000
   12.1930  -20.3941   20.6702 N   0  0  0  0  0  0  0  0  0  0  0  0
   12.5924  -19.1058   20.2463 C   0  0  0  0  0  0  0  0  0  0  0  0
   13.1251  -19.0043   19.1030 O   0  0  0  0  0  0  0  0  0  0  0  0
   12.4101  -17.8922   21.0846 C   0  0  0  0  0  0  0  0  0  0  0  0
   10.9682  -17.4361   20.9541 C   0  0  2  0  0  0  0  0  0  0  0  0
   10.6875  -16.9993   19.6185 N   0  0  0  0  0  0  0  0  0  0  0  0
   10.6281  -16.3820   21.9437 C   0  0  0  0  0  0  0  0  0  0  0  0
   11.2707  -15.2916   21.8736 O   0  0  0  0  0  0  0  0  0  0  0  0
    9.6309  -16.6381   22.8910 N   0  0  0  0  0  0  0  0  0  0  0  0
    9.2586  -15.6144   23.8602 C   0  0  1  0  0  0  0  0  0  0  0  0
    7.7654  -15.3921   23.8060 C   0  0  0  0  0  0  0  0  0  0  0  0
    7.2544  -14.3229   24.6656 C   0  0  0  0  0  0  0  0  0  0  0  0
    7.6175  -12.9999   24.3886 C   0  0  0  0  0  0  0  0  0  0  0  0
    7.1643  -11.9371   25.1190 C   0  0  0  0  0  0  0  0  0  0  0  0
    6.3186  -12.1306   26.1735 C   0  0  0  0  0  0  0  0  0  0  0  0
    5.9485  -13.4276   26.4633 C   0  0  0  0  0  0  0  0  0  0  0  0
    6.3960  -14.5033   25.7383 C   0  0  0  0  0  0  0  0  0  0  0  0
    9.7841  -16.0575   25.1507 C   0  0  0  0  0  0  0  0  0  0  0  0
    9.8632  -17.3089   25.4390 O   0  0  0  0  0  0  0  0  0  0  0  0
    9.4544  -14.0570   28.8083 C   0  0  0  0  0  0  0  0  0  0  0  0
   10.8326  -14.5315   28.4016 C   0  0  2  0  0  0  0  0  0  0  0  0
   11.6457  -13.4735   27.7176 C   0  0  0  0  0  0  0  0  0  0  0  0
   10.7279  -15.7473   27.4673 C   0  0  2  0  0  0  0  0  0  0  0  0
   10.2580  -15.2218   26.2044 N   0  0  0  0  0  0  0  0  0  0  0  0
    9.8972  -16.7973   28.0487 C   0  0  0  0  0  0  0  0  0  0  0  0
   10.4314  -17.4931   28.9793 O   0  0  0  0  0  0  0  0  0  0  0  0
    8.6136  -17.1312   27.7209 O   0  0  0  0  0  0  0  0  0  0  0  0
  2  1  1  0
  3  2  2  0
  4  2  1  0
  5  4  1  0
  5  6  1  6
  7  8  2  0
  7  5  1  0
  9  7  1  0
 10  9  1  0
 10 11  1  1
 11 12  1  0
 12 13  2  0
 12 17  1  0
 13 14  1  0
 14 15  2  0
 16 15  1  0
 17 16  2  0
 18 10  1  0
 19 18  2  0
 21 23  1  0
 21 20  1  6
 22 21  1  0
 23 24  1  6
 24 18  1  0
 25 27  1  0
 25 23  1  0
 26 25  2  0
M  END
$$$$
