NFV.pdb
     RDKit          3D

 27 27  0  0  1  0  0  0  0  0999 V2000
   12.1967  -18.8989   19.3773 N   0  0  0  0  0  0  0  0  0  0  0  0
   12.2733  -17.5095   19.1269 C   0  0  0  0  0  0  0  0  0  0  0  0
   12.8877  -17.1349   18.0861 O   0  0  0  0  0  0  0  0  0  0  0  0
   11.6674  -16.4962   20.0297 C   0  0  0  0  0  0  0  0  0  0  0  0
   11.0352  -17.2221   21.2033 C   0  0  2  0  0  0  0  0  0  0  0  0
    9.8967  -17.9835   20.7820 N   0  0  0  0  0  0  0  0  0  0  0  0
   10.6779  -16.2913   22.3042 C   0  0  0  0  0  0  0  0  0  0  0  0
   11.5495  -15.4373   22.6474 O   0  0  0  0  0  0  0  0  0  0  0  0
    9.4170  -16.3993   22.9008 N   0  0  0  0  0  0  0  0  0  0  0  0
    9.0235  -15.4758   23.9582 C   0  0  1  0  0  0  0  0  0  0  0  0
    7.5256  -15.2832   23.9237 C   0  0  0  0  0  0  0  0  0  0  0  0
    7.0025  -14.2396   24.8073 C   0  0  0  0  0  0  0  0  0  0  0  0
    7.3409  -12.9055   24.5533 C   0  0  0  0  0  0  0  0  0  0  0  0
    6.8747  -11.8648   25.3072 C   0  0  0  0  0  0  0  0  0  0  0  0
    6.0401  -12.0931   26.3635 C   0  0  0  0  0  0  0  0  0  0  0  0
    5.6944  -13.4016   26.6308 C   0  0  0  0  0  0  0  0  0  0  0  0
    6.1550  -14.4554   25.8822 C   0  0  0  0  0  0  0  0  0  0  0  0
    9.5610  -16.0215   25.2036 C   0  0  0  0  0  0  0  0  0  0  0  0
    9.7584  -17.2854   25.3419 O   0  0  0  0  0  0  0  0  0  0  0  0
    9.3822  -14.3927   29.2027 C   0  0  0  0  0  0  0  0  0  0  0  0
   10.6974  -14.7567   28.5486 C   0  0  2  0  0  0  0  0  0  0  0  0
   11.3459  -13.6050   27.8406 C   0  0  0  0  0  0  0  0  0  0  0  0
   10.4974  -15.8996   27.5407 C   0  0  2  0  0  0  0  0  0  0  0  0
    9.9244  -15.2800   26.3661 N   0  0  0  0  0  0  0  0  0  0  0  0
    9.7092  -16.9858   28.1148 C   0  0  0  0  0  0  0  0  0  0  0  0
    8.4884  -17.0595   27.7412 O   0  0  0  0  0  0  0  0  0  0  0  0
   10.1151  -17.9384   29.0060 O   0  0  0  0  0  0  0  0  0  0  0  0
  2  1  1  0
  3  2  2  0
  4  2  1  0
  5  4  1  0
  5  6  1  6
  7  8  2  0
  7  5  1  0
  9  7  1  0
 10  9  1  0
 10 11  1  1
 11 12  1  0
 12 13  2  0
 12 17  1  0
 13 14  1  0
 14 15  2  0
 16 15  1  0
 17 16  2  0
 18 10  1  0
 19 18  2  0
 21 23  1  0
 21 20  1  6
 22 21  1  0
 23 24  1  6
 24 18  1  0
 25 27  1  0
 25 23  1  0
 26 25  2  0
M  END
$$$$
