NFV.pdb
     RDKit          3D

 27 27  0  0  1  0  0  0  0  0999 V2000
    8.9271  -20.2002   19.3831 N   0  0  0  0  0  0  0  0  0  0  0  0
    9.7737  -19.0770   19.2400 C   0  0  0  0  0  0  0  0  0  0  0  0
   10.2103  -18.8164   18.0813 O   0  0  0  0  0  0  0  0  0  0  0  0
   10.1592  -18.2108   20.3846 C   0  0  0  0  0  0  0  0  0  0  0  0
    9.1828  -17.0507   20.4533 C   0  0  2  0  0  0  0  0  0  0  0  0
    9.2686  -16.2381   19.2761 N   0  0  0  0  0  0  0  0  0  0  0  0
    9.3746  -16.2360   21.6802 C   0  0  0  0  0  0  0  0  0  0  0  0
   10.5649  -15.9383   21.9985 O   0  0  0  0  0  0  0  0  0  0  0  0
    8.2509  -15.8422   22.4148 N   0  0  0  0  0  0  0  0  0  0  0  0
    8.4086  -15.0587   23.6343 C   0  0  1  0  0  0  0  0  0  0  0  0
    7.1614  -14.2390   23.8682 C   0  0  0  0  0  0  0  0  0  0  0  0
    7.1059  -13.5236   25.1444 C   0  0  0  0  0  0  0  0  0  0  0  0
    7.7789  -12.3024   25.2655 C   0  0  0  0  0  0  0  0  0  0  0  0
    7.7570  -11.5528   26.4084 C   0  0  0  0  0  0  0  0  0  0  0  0
    7.0600  -11.9776   27.5030 C   0  0  0  0  0  0  0  0  0  0  0  0
    6.3895  -13.1792   27.4042 C   0  0  0  0  0  0  0  0  0  0  0  0
    6.4033  -13.9415   26.2632 C   0  0  0  0  0  0  0  0  0  0  0  0
    8.7476  -16.0079   24.6935 C   0  0  0  0  0  0  0  0  0  0  0  0
    7.9573  -16.9787   24.9905 O   0  0  0  0  0  0  0  0  0  0  0  0
   12.6337  -16.6207   26.2033 C   0  0  0  0  0  0  0  0  0  0  0  0
   11.5114  -17.6350   26.1619 C   0  0  2  0  0  0  0  0  0  0  0  0
   11.3598  -18.2969   24.8251 C   0  0  0  0  0  0  0  0  0  0  0  0
   10.1752  -16.9727   26.5333 C   0  0  2  0  0  0  0  0  0  0  0  0
    9.9277  -15.9979   25.4939 N   0  0  0  0  0  0  0  0  0  0  0  0
   10.2042  -16.4367   27.8908 C   0  0  0  0  0  0  0  0  0  0  0  0
   10.1868  -15.1625   27.9979 O   0  0  0  0  0  0  0  0  0  0  0  0
   10.2478  -17.1302   29.0671 O   0  0  0  0  0  0  0  0  0  0  0  0
  2  1  1  0
  3  2  2  0
  4  2  1  0
  5  4  1  0
  5  6  1  6
  7  8  2  0
  7  5  1  0
  9  7  1  0
 10  9  1  0
 10 11  1  1
 11 12  1  0
 12 13  2  0
 12 17  1  0
 13 14  1  0
 14 15  2  0
 16 15  1  0
 17 16  2  0
 18 10  1  0
 19 18  2  0
 21 23  1  0
 21 20  1  6
 22 21  1  0
 23 24  1  6
 24 18  1  0
 25 27  1  0
 25 23  1  0
 26 25  2  0
M  END
$$$$
