NFV.pdb
     RDKit          3D

 27 27  0  0  1  0  0  0  0  0999 V2000
   11.9742  -18.3030   18.2664 N   0  0  0  0  0  0  0  0  0  0  0  0
   10.8288  -17.5326   18.5717 C   0  0  0  0  0  0  0  0  0  0  0  0
    9.7916  -17.7225   17.8722 O   0  0  0  0  0  0  0  0  0  0  0  0
   10.8056  -16.5271   19.6660 C   0  0  0  0  0  0  0  0  0  0  0  0
   10.0542  -17.1221   20.8429 C   0  0  2  0  0  0  0  0  0  0  0  0
    8.7251  -17.5008   20.4641 N   0  0  0  0  0  0  0  0  0  0  0  0
   10.0360  -16.2045   22.0107 C   0  0  0  0  0  0  0  0  0  0  0  0
   11.1410  -15.6935   22.3640 O   0  0  0  0  0  0  0  0  0  0  0  0
    8.8203  -15.9518   22.6553 N   0  0  0  0  0  0  0  0  0  0  0  0
    8.7857  -15.1386   23.8651 C   0  0  1  0  0  0  0  0  0  0  0  0
    7.5047  -14.3384   23.8947 C   0  0  0  0  0  0  0  0  0  0  0  0
    7.3000  -13.5181   25.0899 C   0  0  0  0  0  0  0  0  0  0  0  0
    8.0497  -12.3462   25.2430 C   0  0  0  0  0  0  0  0  0  0  0  0
    7.9033  -11.5054   26.3108 C   0  0  0  0  0  0  0  0  0  0  0  0
    6.9972  -11.7839   27.2936 C   0  0  0  0  0  0  0  0  0  0  0  0
    6.2480  -12.9348   27.1616 C   0  0  0  0  0  0  0  0  0  0  0  0
    6.3849  -13.7873   26.0950 C   0  0  0  0  0  0  0  0  0  0  0  0
    8.9819  -16.0573   24.9854 C   0  0  0  0  0  0  0  0  0  0  0  0
    8.1031  -16.9534   25.2686 O   0  0  0  0  0  0  0  0  0  0  0  0
   12.7035  -16.8766   26.7838 C   0  0  0  0  0  0  0  0  0  0  0  0
   11.5129  -17.8076   26.7079 C   0  0  2  0  0  0  0  0  0  0  0  0
   11.3993  -18.5182   25.3924 C   0  0  0  0  0  0  0  0  0  0  0  0
   10.2092  -17.0334   26.9589 C   0  0  2  0  0  0  0  0  0  0  0  0
   10.1038  -16.0934   25.8648 N   0  0  0  0  0  0  0  0  0  0  0  0
   10.1904  -16.4374   28.2913 C   0  0  0  0  0  0  0  0  0  0  0  0
   10.2027  -15.1596   28.3412 O   0  0  0  0  0  0  0  0  0  0  0  0
   10.1612  -17.0778   29.4978 O   0  0  0  0  0  0  0  0  0  0  0  0
  2  1  1  0
  3  2  2  0
  4  2  1  0
  5  4  1  0
  5  6  1  6
  7  8  2  0
  7  5  1  0
  9  7  1  0
 10  9  1  0
 10 11  1  1
 11 12  1  0
 12 13  2  0
 12 17  1  0
 13 14  1  0
 14 15  2  0
 16 15  1  0
 17 16  2  0
 18 10  1  0
 19 18  2  0
 21 23  1  0
 21 20  1  6
 22 21  1  0
 23 24  1  6
 24 18  1  0
 25 27  1  0
 25 23  1  0
 26 25  2  0
M  END
$$$$
