KQE.pdb
     RDKit          3D

 28 27  0  0  1  0  0  0  0  0999 V2000
    6.5074  -17.4854   21.3024 N   0  0  0  0  0  0  0  0  0  0  0  0
    7.7160  -16.8746   21.7476 C   0  0  1  0  0  0  0  0  0  0  0  0
    7.7953  -15.3901   21.5845 C   0  0  0  0  0  0  0  0  0  0  0  0
    8.0934  -14.9137   20.1989 C   0  0  0  0  0  0  0  0  0  0  0  0
    8.1515  -13.4345   20.1126 C   0  0  0  0  0  0  0  0  0  0  0  0
    8.4765  -13.0848   18.6420 C   0  0  0  0  0  0  0  0  0  0  0  0
    8.5663  -11.6410   18.5091 N   0  0  0  0  0  0  0  0  0  0  0  0
    8.0576  -17.2400   23.1521 C   0  0  0  0  0  0  0  0  0  0  0  0
    7.1587  -17.1547   24.0212 O   0  0  0  0  0  0  0  0  0  0  0  0
   12.7883  -20.7861   25.0055 N   0  0  0  0  0  0  0  0  0  0  0  0
   12.3646  -20.2813   26.2793 C   0  0  0  0  0  0  0  0  0  0  0  0
   12.8770  -20.6936   27.3414 O   0  0  0  0  0  0  0  0  0  0  0  0
   11.3016  -19.2543   26.3299 C   0  0  0  0  0  0  0  0  0  0  0  0
   10.8283  -18.9755   24.9310 C   0  0  0  0  0  0  0  0  0  0  0  0
    9.7134  -17.9521   24.9098 C   0  0  2  0  0  0  0  0  0  0  0  0
    9.3481  -17.6713   23.5132 N   0  0  0  0  0  0  0  0  0  0  0  0
   10.1156  -16.6878   25.5581 C   0  0  0  0  0  0  0  0  0  0  0  0
   10.6487  -15.7777   24.8904 O   0  0  0  0  0  0  0  0  0  0  0  0
    9.8898  -16.5222   26.9414 N   0  0  0  0  0  0  0  0  0  0  0  0
   10.3028  -15.3398   27.6300 C   0  0  1  0  0  0  0  0  0  0  0  0
    9.7738  -14.1644   26.8742 C   0  0  0  0  0  0  0  0  0  0  0  0
    8.3258  -13.8918   26.9260 C   0  0  0  0  0  0  0  0  0  0  0  0
    7.8118  -12.7322   26.2159 C   0  0  0  0  0  0  0  0  0  0  0  0
    7.3870  -11.7142   26.7809 O   0  0  0  0  0  0  0  0  0  0  0  0
   10.1431  -15.3423   29.0765 C   0  0  0  0  0  0  0  0  0  0  0  0
    9.5431  -16.2231   29.7510 O   0  0  0  0  0  0  0  0  0  0  0  0
    7.7728  -12.7140   24.7957 O   0  0  0  0  0  0  0  0  0  0  0  0
   10.7202  -14.2602   29.7771 O   0  0  0  0  0  0  0  0  0  0  0  0
  2  1  1  1
  3  2  1  0
  4  5  1  0
  4  3  1  0
  6  5  1  0
  7  6  1  0
  8  9  2  0
  8  2  1  0
 10 11  1  0
 11 12  2  0
 13 14  1  0
 13 11  1  0
 15 14  1  6
 15 16  1  0
 16  8  1  0
 17 15  1  0
 18 17  2  0
 19 17  1  0
 20 19  1  0
 21 22  1  0
 20 21  1  6
 23 22  1  0
 23 24  2  0
 25 20  1  0
 25 28  1  0
 26 25  2  0
 27 23  1  0
M  END
$$$$
