KQE.pdb
     RDKit          3D

 28 27  0  0  1  0  0  0  0  0999 V2000
    8.5888  -14.8378   18.1634 N   0  0  0  0  0  0  0  0  0  0  0  0
    9.6415  -14.0066   18.6463 C   0  0  1  0  0  0  0  0  0  0  0  0
    9.3540  -13.2564   19.9077 C   0  0  0  0  0  0  0  0  0  0  0  0
    8.0016  -13.4943   20.4996 C   0  0  0  0  0  0  0  0  0  0  0  0
    7.7746  -12.6912   21.7253 C   0  0  0  0  0  0  0  0  0  0  0  0
    6.3387  -13.0048   22.2056 C   0  0  0  0  0  0  0  0  0  0  0  0
    6.0492  -12.2036   23.3823 N   0  0  0  0  0  0  0  0  0  0  0  0
   10.9312  -14.7412   18.7869 C   0  0  0  0  0  0  0  0  0  0  0  0
   10.8903  -15.9547   19.0973 O   0  0  0  0  0  0  0  0  0  0  0  0
   16.4094  -13.0646   16.4160 N   0  0  0  0  0  0  0  0  0  0  0  0
   16.8441  -14.1296   17.2724 C   0  0  0  0  0  0  0  0  0  0  0  0
   18.0414  -14.4845   17.3065 O   0  0  0  0  0  0  0  0  0  0  0  0
   15.8526  -14.8163   18.1282 C   0  0  0  0  0  0  0  0  0  0  0  0
   14.5308  -14.1126   18.0011 C   0  0  0  0  0  0  0  0  0  0  0  0
   13.4479  -14.8045   18.8009 C   0  0  2  0  0  0  0  0  0  0  0  0
   12.1715  -14.1080   18.5811 N   0  0  0  0  0  0  0  0  0  0  0  0
   13.7465  -14.8022   20.2470 C   0  0  0  0  0  0  0  0  0  0  0  0
   13.9103  -13.7250   20.8561 O   0  0  0  0  0  0  0  0  0  0  0  0
   13.8444  -16.0330   20.9310 N   0  0  0  0  0  0  0  0  0  0  0  0
   14.1325  -16.0901   22.3297 C   0  0  1  0  0  0  0  0  0  0  0  0
   13.3915  -17.2555   22.9001 C   0  0  0  0  0  0  0  0  0  0  0  0
   11.9315  -17.3212   22.7051 C   0  0  0  0  0  0  0  0  0  0  0  0
   11.2180  -18.4902   23.1922 C   0  0  0  0  0  0  0  0  0  0  0  0
   10.1220  -18.4346   23.7683 O   0  0  0  0  0  0  0  0  0  0  0  0
   15.5264  -15.9210   22.7123 C   0  0  0  0  0  0  0  0  0  0  0  0
   15.9492  -15.6989   23.8797 O   0  0  0  0  0  0  0  0  0  0  0  0
   11.7635  -19.7913   23.0236 O   0  0  0  0  0  0  0  0  0  0  0  0
   16.4819  -16.0220   21.6772 O   0  0  0  0  0  0  0  0  0  0  0  0
  2  1  1  1
  3  2  1  0
  4  5  1  0
  4  3  1  0
  6  5  1  0
  7  6  1  0
  8  9  2  0
  8  2  1  0
 10 11  1  0
 11 12  2  0
 13 14  1  0
 13 11  1  0
 15 14  1  6
 15 16  1  0
 16  8  1  0
 17 15  1  0
 18 17  2  0
 19 17  1  0
 20 19  1  0
 21 22  1  0
 20 21  1  6
 23 22  1  0
 23 24  2  0
 25 20  1  0
 25 28  1  0
 26 25  2  0
 27 23  1  0
M  END
$$$$
