KQE.pdb
     RDKit          3D

 28 27  0  0  1  0  0  0  0  0999 V2000
   10.1908  -16.0103   17.3040 N   0  0  0  0  0  0  0  0  0  0  0  0
   10.6153  -16.9323   18.3049 C   0  0  1  0  0  0  0  0  0  0  0  0
   11.4771  -18.0589   17.8307 C   0  0  0  0  0  0  0  0  0  0  0  0
   10.9236  -18.8518   16.6902 C   0  0  0  0  0  0  0  0  0  0  0  0
   11.7660  -20.0267   16.3603 C   0  0  0  0  0  0  0  0  0  0  0  0
   11.1198  -20.7095   15.1327 C   0  0  0  0  0  0  0  0  0  0  0  0
   11.9458  -21.8344   14.7294 N   0  0  0  0  0  0  0  0  0  0  0  0
   11.2696  -16.2582   19.4626 C   0  0  0  0  0  0  0  0  0  0  0  0
   12.3664  -15.6833   19.2702 O   0  0  0  0  0  0  0  0  0  0  0  0
    9.5965  -16.4926   26.3611 N   0  0  0  0  0  0  0  0  0  0  0  0
    9.2591  -16.3057   24.9798 C   0  0  0  0  0  0  0  0  0  0  0  0
    8.1185  -15.9280   24.6379 O   0  0  0  0  0  0  0  0  0  0  0  0
   10.2841  -16.5666   23.9462 C   0  0  0  0  0  0  0  0  0  0  0  0
   10.3167  -15.4072   22.9906 C   0  0  0  0  0  0  0  0  0  0  0  0
   11.3406  -15.6122   21.8948 C   0  0  2  0  0  0  0  0  0  0  0  0
   10.6883  -16.2560   20.7447 N   0  0  0  0  0  0  0  0  0  0  0  0
   12.4611  -16.4635   22.3421 C   0  0  0  0  0  0  0  0  0  0  0  0
   12.2745  -17.6717   22.5942 O   0  0  0  0  0  0  0  0  0  0  0  0
   13.7449  -15.8935   22.4810 N   0  0  0  0  0  0  0  0  0  0  0  0
   14.8715  -16.6771   22.8804 C   0  0  1  0  0  0  0  0  0  0  0  0
   16.0429  -16.2406   22.0619 C   0  0  0  0  0  0  0  0  0  0  0  0
   17.0333  -15.3401   22.6800 C   0  0  0  0  0  0  0  0  0  0  0  0
   18.0132  -14.6931   21.8231 C   0  0  0  0  0  0  0  0  0  0  0  0
   19.0942  -14.2463   22.2326 O   0  0  0  0  0  0  0  0  0  0  0  0
   15.0706  -16.8443   24.3123 C   0  0  0  0  0  0  0  0  0  0  0  0
   14.5370  -16.1468   25.2177 O   0  0  0  0  0  0  0  0  0  0  0  0
   17.7666  -14.5394   20.4323 O   0  0  0  0  0  0  0  0  0  0  0  0
   15.9358  -17.8866   24.7119 O   0  0  0  0  0  0  0  0  0  0  0  0
  2  1  1  6
  3  2  1  0
  4  5  1  0
  4  3  1  0
  6  5  1  0
  7  6  1  0
  8  9  2  0
  8  2  1  0
 10 11  1  0
 11 12  2  0
 13 14  1  0
 13 11  1  0
 15 14  1  1
 15 16  1  0
 16  8  1  0
 17 15  1  0
 18 17  2  0
 19 17  1  0
 20 19  1  0
 21 22  1  0
 20 21  1  1
 23 22  1  0
 23 24  2  0
 25 20  1  0
 25 28  1  0
 26 25  2  0
 27 23  1  0
M  END
$$$$
