KQE.pdb
     RDKit          3D

 28 27  0  0  1  0  0  0  0  0999 V2000
    8.0184  -14.0118   19.3095 N   0  0  0  0  0  0  0  0  0  0  0  0
    7.2541  -14.6363   20.3381 C   0  0  1  0  0  0  0  0  0  0  0  0
    6.8572  -16.0559   20.0854 C   0  0  0  0  0  0  0  0  0  0  0  0
    7.8598  -16.8776   19.3402 C   0  0  0  0  0  0  0  0  0  0  0  0
    7.3379  -18.2207   18.9899 C   0  0  0  0  0  0  0  0  0  0  0  0
    8.4908  -18.9808   18.2943 C   0  0  0  0  0  0  0  0  0  0  0  0
    8.0182  -20.2967   17.9003 N   0  0  0  0  0  0  0  0  0  0  0  0
    7.9030  -14.5313   21.6763 C   0  0  0  0  0  0  0  0  0  0  0  0
    9.1550  -14.5475   21.7298 O   0  0  0  0  0  0  0  0  0  0  0  0
    5.7434  -11.5143   26.3872 N   0  0  0  0  0  0  0  0  0  0  0  0
    6.7470  -12.2415   27.1089 C   0  0  0  0  0  0  0  0  0  0  0  0
    7.1421  -11.8588   28.2305 O   0  0  0  0  0  0  0  0  0  0  0  0
    7.3207  -13.4655   26.5092 C   0  0  0  0  0  0  0  0  0  0  0  0
    6.7557  -13.6407   25.1277 C   0  0  0  0  0  0  0  0  0  0  0  0
    7.7817  -14.2072   24.1699 C   0  0  2  0  0  0  0  0  0  0  0  0
    7.1486  -14.4166   22.8592 N   0  0  0  0  0  0  0  0  0  0  0  0
    8.3249  -15.4953   24.6454 C   0  0  0  0  0  0  0  0  0  0  0  0
    7.5906  -16.5021   24.7172 O   0  0  0  0  0  0  0  0  0  0  0  0
    9.6842  -15.5731   25.0174 N   0  0  0  0  0  0  0  0  0  0  0  0
   10.2601  -16.7908   25.4951 C   0  0  1  0  0  0  0  0  0  0  0  0
   11.4787  -17.0701   24.6767 C   0  0  0  0  0  0  0  0  0  0  0  0
   12.7911  -16.6661   25.2134 C   0  0  0  0  0  0  0  0  0  0  0  0
   13.9200  -16.5875   24.3010 C   0  0  0  0  0  0  0  0  0  0  0  0
   14.3231  -15.5292   23.7976 O   0  0  0  0  0  0  0  0  0  0  0  0
   10.3665  -16.9354   26.9392 C   0  0  0  0  0  0  0  0  0  0  0  0
   10.1073  -16.0422   27.7911 O   0  0  0  0  0  0  0  0  0  0  0  0
   14.6347  -17.7594   23.9340 O   0  0  0  0  0  0  0  0  0  0  0  0
   10.7938  -18.1936   27.4179 O   0  0  0  0  0  0  0  0  0  0  0  0
  2  1  1  6
  3  2  1  0
  4  5  1  0
  4  3  1  0
  6  5  1  0
  7  6  1  0
  8  9  2  0
  8  2  1  0
 10 11  1  0
 11 12  2  0
 13 14  1  0
 13 11  1  0
 15 14  1  1
 15 16  1  0
 16  8  1  0
 17 15  1  0
 18 17  2  0
 19 17  1  0
 20 19  1  0
 21 22  1  0
 20 21  1  6
 23 22  1  0
 23 24  2  0
 25 20  1  0
 25 28  1  0
 26 25  2  0
 27 23  1  0
M  END
$$$$
