KQE.pdb
     RDKit          3D

 28 27  0  0  1  0  0  0  0  0999 V2000
   10.0188  -19.6036   17.4268 N   0  0  0  0  0  0  0  0  0  0  0  0
    9.0555  -19.2961   18.4315 C   0  0  1  0  0  0  0  0  0  0  0  0
    8.7861  -20.3768   19.4296 C   0  0  0  0  0  0  0  0  0  0  0  0
    8.6193  -21.7485   18.8582 C   0  0  0  0  0  0  0  0  0  0  0  0
    8.2977  -22.7559   19.8976 C   0  0  0  0  0  0  0  0  0  0  0  0
    8.1657  -24.1169   19.1756 C   0  0  0  0  0  0  0  0  0  0  0  0
    6.7650  -24.3578   18.8755 N   0  0  0  0  0  0  0  0  0  0  0  0
    9.3607  -18.0236   19.1458 C   0  0  0  0  0  0  0  0  0  0  0  0
   10.5509  -17.7946   19.4647 O   0  0  0  0  0  0  0  0  0  0  0  0
    8.9027  -11.4655   20.5010 N   0  0  0  0  0  0  0  0  0  0  0  0
    8.4225  -12.7063   19.9656 C   0  0  0  0  0  0  0  0  0  0  0  0
    8.6046  -13.0072   18.7669 O   0  0  0  0  0  0  0  0  0  0  0  0
    7.6993  -13.6422   20.8534 C   0  0  0  0  0  0  0  0  0  0  0  0
    7.4606  -14.9280   20.1130 C   0  0  0  0  0  0  0  0  0  0  0  0
    8.6373  -15.8722   20.2350 C   0  0  2  0  0  0  0  0  0  0  0  0
    8.3545  -17.0915   19.4630 N   0  0  0  0  0  0  0  0  0  0  0  0
    8.8960  -16.2492   21.6390 C   0  0  0  0  0  0  0  0  0  0  0  0
    8.2768  -17.1984   22.1621 O   0  0  0  0  0  0  0  0  0  0  0  0
    9.8518  -15.5227   22.3812 N   0  0  0  0  0  0  0  0  0  0  0  0
   10.3442  -15.9994   23.6354 C   0  0  1  0  0  0  0  0  0  0  0  0
   11.7543  -16.4488   23.4299 C   0  0  0  0  0  0  0  0  0  0  0  0
   12.4620  -17.0759   24.5612 C   0  0  0  0  0  0  0  0  0  0  0  0
   13.8314  -17.5210   24.3625 C   0  0  0  0  0  0  0  0  0  0  0  0
   14.4822  -18.1409   25.2159 O   0  0  0  0  0  0  0  0  0  0  0  0
   10.0593  -15.1745   24.8000 C   0  0  0  0  0  0  0  0  0  0  0  0
    9.5415  -14.0245   24.7807 O   0  0  0  0  0  0  0  0  0  0  0  0
   14.5066  -17.2565   23.1406 O   0  0  0  0  0  0  0  0  0  0  0  0
   10.3914  -15.7230   26.0585 O   0  0  0  0  0  0  0  0  0  0  0  0
  2  1  1  1
  3  2  1  0
  4  5  1  0
  4  3  1  0
  6  5  1  0
  7  6  1  0
  8  9  2  0
  8  2  1  0
 10 11  1  0
 11 12  2  0
 13 14  1  0
 13 11  1  0
 15 14  1  1
 15 16  1  0
 16  8  1  0
 17 15  1  0
 18 17  2  0
 19 17  1  0
 20 19  1  0
 21 22  1  0
 20 21  1  6
 23 22  1  0
 23 24  2  0
 25 20  1  0
 25 28  1  0
 26 25  2  0
 27 23  1  0
M  END
$$$$
