KQE.pdb
     RDKit          3D

 28 27  0  0  1  0  0  0  0  0999 V2000
   11.4433  -16.3276   14.9824 N   0  0  0  0  0  0  0  0  0  0  0  0
   11.2879  -17.0923   16.1753 C   0  0  1  0  0  0  0  0  0  0  0  0
   12.0587  -18.3725   16.2347 C   0  0  0  0  0  0  0  0  0  0  0  0
   11.7291  -19.3678   15.1686 C   0  0  0  0  0  0  0  0  0  0  0  0
   12.4041  -20.6701   15.3865 C   0  0  0  0  0  0  0  0  0  0  0  0
   12.0133  -21.5803   14.1992 C   0  0  0  0  0  0  0  0  0  0  0  0
   12.6169  -22.8880   14.3886 N   0  0  0  0  0  0  0  0  0  0  0  0
   11.5545  -16.2932   17.4055 C   0  0  0  0  0  0  0  0  0  0  0  0
   12.7345  -15.9410   17.6382 O   0  0  0  0  0  0  0  0  0  0  0  0
    7.2388  -12.0044   20.0064 N   0  0  0  0  0  0  0  0  0  0  0  0
    7.3996  -13.3303   19.4840 C   0  0  0  0  0  0  0  0  0  0  0  0
    6.4518  -14.1440   19.4819 O   0  0  0  0  0  0  0  0  0  0  0  0
    8.7135  -13.7357   18.9397 C   0  0  0  0  0  0  0  0  0  0  0  0
    9.4358  -14.5544   19.9724 C   0  0  0  0  0  0  0  0  0  0  0  0
   10.7640  -15.0641   19.4555 C   0  0  2  0  0  0  0  0  0  0  0  0
   10.5236  -15.9338   18.2941 N   0  0  0  0  0  0  0  0  0  0  0  0
   11.4939  -15.8347   20.4819 C   0  0  0  0  0  0  0  0  0  0  0  0
   11.3667  -17.0746   20.5497 O   0  0  0  0  0  0  0  0  0  0  0  0
   12.3366  -15.1514   21.3849 N   0  0  0  0  0  0  0  0  0  0  0  0
   13.0914  -15.8497   22.3775 C   0  0  1  0  0  0  0  0  0  0  0  0
   14.4268  -15.1878   22.4834 C   0  0  0  0  0  0  0  0  0  0  0  0
   15.6248  -15.9637   22.1140 C   0  0  0  0  0  0  0  0  0  0  0  0
   16.9315  -15.3563   22.3055 C   0  0  0  0  0  0  0  0  0  0  0  0
   17.0968  -14.2012   22.7231 O   0  0  0  0  0  0  0  0  0  0  0  0
   12.3953  -16.1717   23.6143 C   0  0  0  0  0  0  0  0  0  0  0  0
   11.2486  -15.7624   23.9436 O   0  0  0  0  0  0  0  0  0  0  0  0
   18.1161  -16.0844   22.0129 O   0  0  0  0  0  0  0  0  0  0  0  0
   13.0712  -17.0233   24.5158 O   0  0  0  0  0  0  0  0  0  0  0  0
  2  1  1  6
  3  2  1  0
  4  5  1  0
  4  3  1  0
  6  5  1  0
  7  6  1  0
  8  9  2  0
  8  2  1  0
 10 11  1  0
 11 12  2  0
 13 14  1  0
 13 11  1  0
 15 14  1  1
 15 16  1  0
 16  8  1  0
 17 15  1  0
 18 17  2  0
 19 17  1  0
 20 19  1  0
 21 22  1  0
 20 21  1  1
 23 22  1  0
 23 24  2  0
 25 20  1  0
 25 28  1  0
 26 25  2  0
 27 23  1  0
M  END
$$$$
