KQE.pdb
     RDKit          3D

 28 27  0  0  1  0  0  0  0  0999 V2000
   12.1578  -17.0789   15.1721 N   0  0  0  0  0  0  0  0  0  0  0  0
   11.2106  -16.8733   16.2175 C   0  0  1  0  0  0  0  0  0  0  0  0
   10.7872  -18.0978   16.9643 C   0  0  0  0  0  0  0  0  0  0  0  0
   11.6140  -19.3182   16.7135 C   0  0  0  0  0  0  0  0  0  0  0  0
   11.1030  -20.5038   17.4429 C   0  0  0  0  0  0  0  0  0  0  0  0
   12.0532  -21.6773   17.1098 C   0  0  0  0  0  0  0  0  0  0  0  0
   13.0862  -21.7516   18.1285 N   0  0  0  0  0  0  0  0  0  0  0  0
   11.6454  -15.8255   17.1850 C   0  0  0  0  0  0  0  0  0  0  0  0
   12.8234  -15.4042   17.1114 O   0  0  0  0  0  0  0  0  0  0  0  0
    8.2479  -11.4116   19.6516 N   0  0  0  0  0  0  0  0  0  0  0  0
    7.8021  -12.7740   19.6984 C   0  0  0  0  0  0  0  0  0  0  0  0
    6.6080  -13.0561   19.9326 O   0  0  0  0  0  0  0  0  0  0  0  0
    8.7785  -13.8598   19.4644 C   0  0  0  0  0  0  0  0  0  0  0  0
   10.1453  -13.2572   19.2994 C   0  0  0  0  0  0  0  0  0  0  0  0
   11.2132  -14.3202   19.1560 C   0  0  2  0  0  0  0  0  0  0  0  0
   10.7726  -15.3102   18.1618 N   0  0  0  0  0  0  0  0  0  0  0  0
   11.4728  -15.0140   20.4333 C   0  0  0  0  0  0  0  0  0  0  0  0
   10.5592  -15.6407   21.0084 O   0  0  0  0  0  0  0  0  0  0  0  0
   12.7665  -14.9593   20.9951 N   0  0  0  0  0  0  0  0  0  0  0  0
   13.1285  -15.7653   22.1185 C   0  0  1  0  0  0  0  0  0  0  0  0
   12.7861  -17.1825   21.7914 C   0  0  0  0  0  0  0  0  0  0  0  0
   13.6261  -17.8989   20.8143 C   0  0  0  0  0  0  0  0  0  0  0  0
   13.3763  -19.3130   20.5888 C   0  0  0  0  0  0  0  0  0  0  0  0
   12.5383  -19.9713   21.2217 O   0  0  0  0  0  0  0  0  0  0  0  0
   14.4310  -15.5031   22.7123 C   0  0  0  0  0  0  0  0  0  0  0  0
   15.3054  -14.7174   22.2552 O   0  0  0  0  0  0  0  0  0  0  0  0
   14.1059  -20.0265   19.6002 O   0  0  0  0  0  0  0  0  0  0  0  0
   14.7291  -16.1910   23.9092 O   0  0  0  0  0  0  0  0  0  0  0  0
  2  1  1  6
  3  2  1  0
  4  5  1  0
  4  3  1  0
  6  5  1  0
  7  6  1  0
  8  9  2  0
  8  2  1  0
 10 11  1  0
 11 12  2  0
 13 14  1  0
 13 11  1  0
 15 14  1  1
 15 16  1  0
 16  8  1  0
 17 15  1  0
 18 17  2  0
 19 17  1  0
 20 19  1  0
 21 22  1  0
 20 21  1  6
 23 22  1  0
 23 24  2  0
 25 20  1  0
 25 28  1  0
 26 25  2  0
 27 23  1  0
M  END
$$$$
