KQE.pdb
     RDKit          3D

 28 27  0  0  1  0  0  0  0  0999 V2000
    9.8423  -16.8072   16.9112 N   0  0  0  0  0  0  0  0  0  0  0  0
   10.4582  -15.7171   17.5929 C   0  0  1  0  0  0  0  0  0  0  0  0
    9.5464  -14.8627   18.4146 C   0  0  0  0  0  0  0  0  0  0  0  0
    8.3469  -14.3321   17.6966 C   0  0  0  0  0  0  0  0  0  0  0  0
    7.5147  -13.4596   18.5597 C   0  0  0  0  0  0  0  0  0  0  0  0
    6.3075  -13.0069   17.7061 C   0  0  0  0  0  0  0  0  0  0  0  0
    5.4070  -12.2278   18.5381 N   0  0  0  0  0  0  0  0  0  0  0  0
   11.6211  -16.1449   18.4220 C   0  0  0  0  0  0  0  0  0  0  0  0
   11.6421  -17.3231   18.8488 O   0  0  0  0  0  0  0  0  0  0  0  0
   16.5686  -12.6314   17.3399 N   0  0  0  0  0  0  0  0  0  0  0  0
   16.7498  -13.8694   18.0410 C   0  0  0  0  0  0  0  0  0  0  0  0
   17.8351  -14.1469   18.5937 O   0  0  0  0  0  0  0  0  0  0  0  0
   15.6279  -14.8306   18.1072 C   0  0  0  0  0  0  0  0  0  0  0  0
   14.9259  -14.6682   19.4260 C   0  0  0  0  0  0  0  0  0  0  0  0
   13.8000  -15.6666   19.5888 C   0  0  2  0  0  0  0  0  0  0  0  0
   12.6767  -15.2655   18.7286 N   0  0  0  0  0  0  0  0  0  0  0  0
   13.3261  -15.7375   20.9854 C   0  0  0  0  0  0  0  0  0  0  0  0
   12.6619  -14.8009   21.4750 O   0  0  0  0  0  0  0  0  0  0  0  0
   13.6339  -16.8772   21.7591 N   0  0  0  0  0  0  0  0  0  0  0  0
   13.2182  -16.9903   23.1218 C   0  0  1  0  0  0  0  0  0  0  0  0
   12.3576  -18.2064   23.2360 C   0  0  0  0  0  0  0  0  0  0  0  0
   11.8464  -18.5808   24.5673 C   0  0  0  0  0  0  0  0  0  0  0  0
   11.1198  -19.8322   24.7051 C   0  0  0  0  0  0  0  0  0  0  0  0
   11.5424  -20.9206   24.2893 O   0  0  0  0  0  0  0  0  0  0  0  0
   14.2463  -16.7910   24.1324 C   0  0  0  0  0  0  0  0  0  0  0  0
   15.4910  -16.7893   23.9282 O   0  0  0  0  0  0  0  0  0  0  0  0
    9.8510  -19.8639   25.3439 O   0  0  0  0  0  0  0  0  0  0  0  0
   13.7986  -16.5759   25.4545 O   0  0  0  0  0  0  0  0  0  0  0  0
  2  1  1  1
  3  2  1  0
  4  5  1  0
  4  3  1  0
  6  5  1  0
  7  6  1  0
  8  9  2  0
  8  2  1  0
 10 11  1  0
 11 12  2  0
 13 14  1  0
 13 11  1  0
 15 14  1  1
 15 16  1  0
 16  8  1  0
 17 15  1  0
 18 17  2  0
 19 17  1  0
 20 19  1  0
 21 22  1  0
 20 21  1  6
 23 22  1  0
 23 24  2  0
 25 20  1  0
 25 28  1  0
 26 25  2  0
 27 23  1  0
M  END
$$$$
