KQE.pdb
     RDKit          3D

 28 27  0  0  1  0  0  0  0  0999 V2000
    7.8815  -16.8909   18.9980 N   0  0  0  0  0  0  0  0  0  0  0  0
    9.2604  -16.6435   18.7341 C   0  0  1  0  0  0  0  0  0  0  0  0
    9.5507  -15.7059   17.6057 C   0  0  0  0  0  0  0  0  0  0  0  0
    8.3574  -15.0223   17.0187 C   0  0  0  0  0  0  0  0  0  0  0  0
    8.4186  -14.9555   15.5386 C   0  0  0  0  0  0  0  0  0  0  0  0
    7.9715  -13.5310   15.1365 C   0  0  0  0  0  0  0  0  0  0  0  0
    8.0496  -13.4022   13.6917 N   0  0  0  0  0  0  0  0  0  0  0  0
   10.0055  -16.2060   19.9491 C   0  0  0  0  0  0  0  0  0  0  0  0
   11.2385  -16.0061   19.8472 O   0  0  0  0  0  0  0  0  0  0  0  0
    7.2671  -14.6761   25.3239 N   0  0  0  0  0  0  0  0  0  0  0  0
    6.9059  -14.3418   23.9768 C   0  0  0  0  0  0  0  0  0  0  0  0
    5.8036  -13.8159   23.7143 O   0  0  0  0  0  0  0  0  0  0  0  0
    7.8596  -14.6273   22.8832 C   0  0  0  0  0  0  0  0  0  0  0  0
    9.1060  -15.2279   23.4698 C   0  0  0  0  0  0  0  0  0  0  0  0
   10.0975  -15.6221   22.3963 C   0  0  2  0  0  0  0  0  0  0  0  0
    9.3609  -16.0170   21.1862 N   0  0  0  0  0  0  0  0  0  0  0  0
   10.9491  -16.7507   22.8224 C   0  0  0  0  0  0  0  0  0  0  0  0
   10.9115  -17.8368   22.2086 O   0  0  0  0  0  0  0  0  0  0  0  0
   11.8053  -16.5852   23.9323 N   0  0  0  0  0  0  0  0  0  0  0  0
   12.8217  -17.5413   24.2415 C   0  0  1  0  0  0  0  0  0  0  0  0
   13.7855  -17.5667   23.0999 C   0  0  0  0  0  0  0  0  0  0  0  0
   15.2236  -17.6915   23.3996 C   0  0  0  0  0  0  0  0  0  0  0  0
   16.1689  -17.6490   22.2960 C   0  0  0  0  0  0  0  0  0  0  0  0
   17.3367  -18.0561   22.3767 O   0  0  0  0  0  0  0  0  0  0  0  0
   13.3691  -17.4934   25.5890 C   0  0  0  0  0  0  0  0  0  0  0  0
   14.0316  -18.4089   26.1491 O   0  0  0  0  0  0  0  0  0  0  0  0
   15.7828  -17.1215   21.0345 O   0  0  0  0  0  0  0  0  0  0  0  0
   13.1363  -16.3095   26.3231 O   0  0  0  0  0  0  0  0  0  0  0  0
  2  1  1  1
  3  2  1  0
  4  5  1  0
  4  3  1  0
  6  5  1  0
  7  6  1  0
  8  9  2  0
  8  2  1  0
 10 11  1  0
 11 12  2  0
 13 14  1  0
 13 11  1  0
 15 14  1  1
 15 16  1  0
 16  8  1  0
 17 15  1  0
 18 17  2  0
 19 17  1  0
 20 19  1  0
 21 22  1  0
 20 21  1  6
 23 22  1  0
 23 24  2  0
 25 20  1  0
 25 28  1  0
 26 25  2  0
 27 23  1  0
M  END
$$$$
