KQE.pdb
     RDKit          3D

 28 27  0  0  1  0  0  0  0  0999 V2000
   12.6975  -14.9297   16.3921 N   0  0  0  0  0  0  0  0  0  0  0  0
   11.7683  -15.8117   17.0172 C   0  0  1  0  0  0  0  0  0  0  0  0
   12.0952  -17.2688   16.9350 C   0  0  0  0  0  0  0  0  0  0  0  0
   13.4185  -17.6611   17.5099 C   0  0  0  0  0  0  0  0  0  0  0  0
   13.7399  -19.0871   17.2606 C   0  0  0  0  0  0  0  0  0  0  0  0
   15.1251  -19.3507   17.8951 C   0  0  0  0  0  0  0  0  0  0  0  0
   15.5069  -20.7287   17.6389 N   0  0  0  0  0  0  0  0  0  0  0  0
   11.4946  -15.4422   18.4355 C   0  0  0  0  0  0  0  0  0  0  0  0
   12.4464  -15.0152   19.1300 O   0  0  0  0  0  0  0  0  0  0  0  0
    5.7636  -14.9521   20.8923 N   0  0  0  0  0  0  0  0  0  0  0  0
    6.5526  -14.5754   22.0291 C   0  0  0  0  0  0  0  0  0  0  0  0
    6.0163  -14.1967   23.0918 O   0  0  0  0  0  0  0  0  0  0  0  0
    8.0272  -14.6385   21.9353 C   0  0  0  0  0  0  0  0  0  0  0  0
    8.4102  -14.9789   20.5226 C   0  0  0  0  0  0  0  0  0  0  0  0
    9.9104  -15.0995   20.3618 C   0  0  2  0  0  0  0  0  0  0  0  0
   10.2100  -15.5621   18.9983 N   0  0  0  0  0  0  0  0  0  0  0  0
   10.4912  -16.0558   21.3253 C   0  0  0  0  0  0  0  0  0  0  0  0
   10.8876  -17.1757   20.9423 O   0  0  0  0  0  0  0  0  0  0  0  0
   10.5920  -15.6873   22.6841 N   0  0  0  0  0  0  0  0  0  0  0  0
   11.5634  -16.2794   23.5492 C   0  0  1  0  0  0  0  0  0  0  0  0
   12.8992  -16.1458   22.8930 C   0  0  0  0  0  0  0  0  0  0  0  0
   14.0837  -16.6621   23.6031 C   0  0  0  0  0  0  0  0  0  0  0  0
   15.3870  -16.5168   22.9760 C   0  0  0  0  0  0  0  0  0  0  0  0
   16.4513  -16.8402   23.5224 O   0  0  0  0  0  0  0  0  0  0  0  0
   11.4660  -15.9419   24.9615 C   0  0  0  0  0  0  0  0  0  0  0  0
   10.8303  -14.9653   25.4444 O   0  0  0  0  0  0  0  0  0  0  0  0
   15.5019  -15.9799   21.6655 O   0  0  0  0  0  0  0  0  0  0  0  0
   12.1428  -16.7935   25.8622 O   0  0  0  0  0  0  0  0  0  0  0  0
  2  1  1  1
  3  2  1  0
  4  5  1  0
  4  3  1  0
  6  5  1  0
  7  6  1  0
  8  9  2  0
  8  2  1  0
 10 11  1  0
 11 12  2  0
 13 14  1  0
 13 11  1  0
 15 14  1  6
 15 16  1  0
 16  8  1  0
 17 15  1  0
 18 17  2  0
 19 17  1  0
 20 19  1  0
 21 22  1  0
 20 21  1  6
 23 22  1  0
 23 24  2  0
 25 20  1  0
 25 28  1  0
 26 25  2  0
 27 23  1  0
M  END
$$$$
