KQE.pdb
     RDKit          3D

 28 27  0  0  1  0  0  0  0  0999 V2000
    6.2787  -15.8736   20.0498 N   0  0  0  0  0  0  0  0  0  0  0  0
    7.6249  -16.3410   20.0883 C   0  0  1  0  0  0  0  0  0  0  0  0
    8.3423  -16.3725   18.7764 C   0  0  0  0  0  0  0  0  0  0  0  0
    7.4643  -16.3473   17.5663 C   0  0  0  0  0  0  0  0  0  0  0  0
    8.2444  -16.3320   16.3053 C   0  0  0  0  0  0  0  0  0  0  0  0
    8.2688  -17.7850   15.7770 C   0  0  0  0  0  0  0  0  0  0  0  0
    9.0122  -17.8211   14.5295 N   0  0  0  0  0  0  0  0  0  0  0  0
    8.4541  -15.6142   21.0918 C   0  0  0  0  0  0  0  0  0  0  0  0
    9.4994  -15.0470   20.6965 O   0  0  0  0  0  0  0  0  0  0  0  0
    6.7550  -12.3205   25.8409 N   0  0  0  0  0  0  0  0  0  0  0  0
    6.2793  -13.6728   25.7990 C   0  0  0  0  0  0  0  0  0  0  0  0
    5.2814  -14.0283   26.4610 O   0  0  0  0  0  0  0  0  0  0  0  0
    6.9871  -14.6596   24.9550 C   0  0  0  0  0  0  0  0  0  0  0  0
    8.1648  -13.9883   24.3062 C   0  0  0  0  0  0  0  0  0  0  0  0
    8.9699  -14.9567   23.4665 C   0  0  2  0  0  0  0  0  0  0  0  0
    8.0907  -15.5545   22.4504 N   0  0  0  0  0  0  0  0  0  0  0  0
    9.5540  -16.0387   24.2840 C   0  0  0  0  0  0  0  0  0  0  0  0
    8.9268  -17.1028   24.4641 O   0  0  0  0  0  0  0  0  0  0  0  0
   10.8299  -15.8541   24.8588 N   0  0  0  0  0  0  0  0  0  0  0  0
   11.4613  -16.8832   25.6236 C   0  0  1  0  0  0  0  0  0  0  0  0
   12.9323  -16.7972   25.3758 C   0  0  0  0  0  0  0  0  0  0  0  0
   13.4265  -17.0226   24.0051 C   0  0  0  0  0  0  0  0  0  0  0  0
   14.8478  -16.8640   23.7447 C   0  0  0  0  0  0  0  0  0  0  0  0
   15.5442  -17.7261   23.1899 O   0  0  0  0  0  0  0  0  0  0  0  0
   11.0143  -17.0354   27.0002 C   0  0  0  0  0  0  0  0  0  0  0  0
   10.1991  -16.2817   27.5987 O   0  0  0  0  0  0  0  0  0  0  0  0
   15.5236  -15.6742   24.1274 O   0  0  0  0  0  0  0  0  0  0  0  0
   11.5428  -18.1310   27.7179 O   0  0  0  0  0  0  0  0  0  0  0  0
  2  1  1  6
  3  2  1  0
  4  5  1  0
  4  3  1  0
  6  5  1  0
  7  6  1  0
  8  9  2  0
  8  2  1  0
 10 11  1  0
 11 12  2  0
 13 14  1  0
 13 11  1  0
 15 14  1  1
 15 16  1  0
 16  8  1  0
 17 15  1  0
 18 17  2  0
 19 17  1  0
 20 19  1  0
 21 22  1  0
 20 21  1  1
 23 22  1  0
 23 24  2  0
 25 20  1  0
 25 28  1  0
 26 25  2  0
 27 23  1  0
M  END
$$$$
