KQE.pdb
     RDKit          3D

 28 27  0  0  1  0  0  0  0  0999 V2000
    9.0568  -17.2072   18.3551 N   0  0  0  0  0  0  0  0  0  0  0  0
   10.1074  -16.2641   18.5523 C   0  0  1  0  0  0  0  0  0  0  0  0
    9.7363  -15.0195   19.2939 C   0  0  0  0  0  0  0  0  0  0  0  0
    8.6307  -14.2176   18.6852 C   0  0  0  0  0  0  0  0  0  0  0  0
    8.2334  -13.0701   19.5362 C   0  0  0  0  0  0  0  0  0  0  0  0
    7.2019  -12.2499   18.7275 C   0  0  0  0  0  0  0  0  0  0  0  0
    6.7867  -11.1037   19.5175 N   0  0  0  0  0  0  0  0  0  0  0  0
   11.3145  -16.8755   19.1785 C   0  0  0  0  0  0  0  0  0  0  0  0
   11.1451  -17.7416   20.0683 O   0  0  0  0  0  0  0  0  0  0  0  0
   17.9521  -18.8458   17.6098 N   0  0  0  0  0  0  0  0  0  0  0  0
   17.2595  -17.6344   17.9411 C   0  0  0  0  0  0  0  0  0  0  0  0
   17.5322  -16.5568   17.3710 O   0  0  0  0  0  0  0  0  0  0  0  0
   16.2048  -17.6679   18.9772 C   0  0  0  0  0  0  0  0  0  0  0  0
   14.9334  -17.1181   18.3944 C   0  0  0  0  0  0  0  0  0  0  0  0
   13.8109  -17.1048   19.4096 C   0  0  2  0  0  0  0  0  0  0  0  0
   12.6172  -16.5043   18.7954 N   0  0  0  0  0  0  0  0  0  0  0  0
   14.1674  -16.3267   20.6128 C   0  0  0  0  0  0  0  0  0  0  0  0
   14.2892  -15.0860   20.5491 O   0  0  0  0  0  0  0  0  0  0  0  0
   14.3687  -17.0036   21.8349 N   0  0  0  0  0  0  0  0  0  0  0  0
   14.7035  -16.3000   23.0330 C   0  0  1  0  0  0  0  0  0  0  0  0
   13.7982  -16.7892   24.1164 C   0  0  0  0  0  0  0  0  0  0  0  0
   14.0853  -18.0978   24.7319 C   0  0  0  0  0  0  0  0  0  0  0  0
   13.2168  -18.5689   25.7982 C   0  0  0  0  0  0  0  0  0  0  0  0
   12.8914  -17.8777   26.7741 O   0  0  0  0  0  0  0  0  0  0  0  0
   16.1209  -16.1773   23.3389 C   0  0  0  0  0  0  0  0  0  0  0  0
   16.6229  -15.4317   24.2237 O   0  0  0  0  0  0  0  0  0  0  0  0
   12.6851  -19.8862   25.7675 O   0  0  0  0  0  0  0  0  0  0  0  0
   17.0028  -16.9726   22.5743 O   0  0  0  0  0  0  0  0  0  0  0  0
  2  1  1  1
  3  2  1  0
  4  5  1  0
  4  3  1  0
  6  5  1  0
  7  6  1  0
  8  9  2  0
  8  2  1  0
 10 11  1  0
 11 12  2  0
 13 14  1  0
 13 11  1  0
 15 14  1  6
 15 16  1  0
 16  8  1  0
 17 15  1  0
 18 17  2  0
 19 17  1  0
 20 19  1  0
 21 22  1  0
 20 21  1  1
 23 22  1  0
 23 24  2  0
 25 20  1  0
 25 28  1  0
 26 25  2  0
 27 23  1  0
M  END
$$$$
