KQE.pdb
     RDKit          3D

 28 27  0  0  1  0  0  0  0  0999 V2000
    8.1032  -15.1621   18.7592 N   0  0  0  0  0  0  0  0  0  0  0  0
    7.5930  -15.7377   19.9595 C   0  0  1  0  0  0  0  0  0  0  0  0
    7.6720  -17.2282   20.0531 C   0  0  0  0  0  0  0  0  0  0  0  0
    6.9596  -17.9758   18.9717 C   0  0  0  0  0  0  0  0  0  0  0  0
    6.9129  -19.4347   19.2329 C   0  0  0  0  0  0  0  0  0  0  0  0
    6.0650  -20.0643   18.1035 C   0  0  0  0  0  0  0  0  0  0  0  0
    6.0033  -21.5015   18.3050 N   0  0  0  0  0  0  0  0  0  0  0  0
    8.1892  -15.1298   21.1834 C   0  0  0  0  0  0  0  0  0  0  0  0
    9.4335  -14.9875   21.2276 O   0  0  0  0  0  0  0  0  0  0  0  0
    6.5630  -11.5356   27.4188 N   0  0  0  0  0  0  0  0  0  0  0  0
    6.2757  -12.5715   26.4695 C   0  0  0  0  0  0  0  0  0  0  0  0
    5.1053  -12.9602   26.2706 O   0  0  0  0  0  0  0  0  0  0  0  0
    7.3893  -13.1866   25.7155 C   0  0  0  0  0  0  0  0  0  0  0  0
    6.9068  -13.5381   24.3363 C   0  0  0  0  0  0  0  0  0  0  0  0
    7.9832  -14.2252   23.5237 C   0  0  2  0  0  0  0  0  0  0  0  0
    7.3941  -14.7202   22.2705 N   0  0  0  0  0  0  0  0  0  0  0  0
    8.5775  -15.3646   24.2509 C   0  0  0  0  0  0  0  0  0  0  0  0
    7.9708  -16.4531   24.3230 O   0  0  0  0  0  0  0  0  0  0  0  0
    9.8396  -15.2070   24.8629 N   0  0  0  0  0  0  0  0  0  0  0  0
   10.6145  -16.3334   25.2792 C   0  0  1  0  0  0  0  0  0  0  0  0
   12.0062  -16.1419   24.7702 C   0  0  0  0  0  0  0  0  0  0  0  0
   13.0487  -17.0887   25.2067 C   0  0  0  0  0  0  0  0  0  0  0  0
   14.4198  -16.8549   24.7844 C   0  0  0  0  0  0  0  0  0  0  0  0
   14.7323  -16.0902   23.8604 O   0  0  0  0  0  0  0  0  0  0  0  0
   10.4515  -16.7578   26.6616 C   0  0  0  0  0  0  0  0  0  0  0  0
   10.8291  -17.8602   27.1443 O   0  0  0  0  0  0  0  0  0  0  0  0
   15.4978  -17.5143   25.4339 O   0  0  0  0  0  0  0  0  0  0  0  0
    9.8178  -15.8437   27.5320 O   0  0  0  0  0  0  0  0  0  0  0  0
  2  1  1  6
  3  2  1  0
  4  5  1  0
  4  3  1  0
  6  5  1  0
  7  6  1  0
  8  9  2  0
  8  2  1  0
 10 11  1  0
 11 12  2  0
 13 14  1  0
 13 11  1  0
 15 14  1  1
 15 16  1  0
 16  8  1  0
 17 15  1  0
 18 17  2  0
 19 17  1  0
 20 19  1  0
 21 22  1  0
 20 21  1  1
 23 22  1  0
 23 24  2  0
 25 20  1  0
 25 28  1  0
 26 25  2  0
 27 23  1  0
M  END
$$$$
