KQE.pdb
     RDKit          3D

 28 27  0  0  1  0  0  0  0  0999 V2000
    7.9653  -17.9806   17.8446 N   0  0  0  0  0  0  0  0  0  0  0  0
    8.1364  -18.0710   19.2569 C   0  0  1  0  0  0  0  0  0  0  0  0
    8.7892  -19.3204   19.7563 C   0  0  0  0  0  0  0  0  0  0  0  0
    8.3249  -20.5868   19.1112 C   0  0  0  0  0  0  0  0  0  0  0  0
    9.0134  -21.7816   19.6565 C   0  0  0  0  0  0  0  0  0  0  0  0
    8.3999  -23.0125   18.9500 C   0  0  0  0  0  0  0  0  0  0  0  0
    9.0872  -24.2088   19.4048 N   0  0  0  0  0  0  0  0  0  0  0  0
    8.8350  -16.8828   19.8254 C   0  0  0  0  0  0  0  0  0  0  0  0
    9.9747  -16.6006   19.3872 O   0  0  0  0  0  0  0  0  0  0  0  0
    7.2236  -13.2977   18.3318 N   0  0  0  0  0  0  0  0  0  0  0  0
    7.6553  -12.9761   19.6611 C   0  0  0  0  0  0  0  0  0  0  0  0
    8.6743  -12.2814   19.8600 O   0  0  0  0  0  0  0  0  0  0  0  0
    6.8760  -13.4790   20.8130 C   0  0  0  0  0  0  0  0  0  0  0  0
    7.8286  -13.9382   21.8809 C   0  0  0  0  0  0  0  0  0  0  0  0
    8.8914  -14.8614   21.3250 C   0  0  2  0  0  0  0  0  0  0  0  0
    8.2483  -16.0868   20.8272 N   0  0  0  0  0  0  0  0  0  0  0  0
    9.8882  -15.2316   22.3495 C   0  0  0  0  0  0  0  0  0  0  0  0
   10.5429  -14.3489   22.9413 O   0  0  0  0  0  0  0  0  0  0  0  0
   10.0909  -16.5956   22.6506 N   0  0  0  0  0  0  0  0  0  0  0  0
   11.1169  -17.0179   23.5515 C   0  0  1  0  0  0  0  0  0  0  0  0
   10.4531  -17.5683   24.7718 C   0  0  0  0  0  0  0  0  0  0  0  0
   11.3024  -18.1203   25.8431 C   0  0  0  0  0  0  0  0  0  0  0  0
   10.6590  -18.7543   26.9820 C   0  0  0  0  0  0  0  0  0  0  0  0
    9.4300  -18.8163   27.1290 O   0  0  0  0  0  0  0  0  0  0  0  0
   12.2131  -17.7814   22.9744 C   0  0  0  0  0  0  0  0  0  0  0  0
   12.1791  -18.4106   21.8818 O   0  0  0  0  0  0  0  0  0  0  0  0
   11.4366  -19.3506   28.0109 O   0  0  0  0  0  0  0  0  0  0  0  0
   13.4190  -17.8087   23.7093 O   0  0  0  0  0  0  0  0  0  0  0  0
  2  1  1  6
  3  2  1  0
  4  5  1  0
  4  3  1  0
  6  5  1  0
  7  6  1  0
  8  9  2  0
  8  2  1  0
 10 11  1  0
 11 12  2  0
 13 14  1  0
 13 11  1  0
 15 14  1  1
 15 16  1  0
 16  8  1  0
 17 15  1  0
 18 17  2  0
 19 17  1  0
 20 19  1  0
 21 22  1  0
 20 21  1  1
 23 22  1  0
 23 24  2  0
 25 20  1  0
 25 28  1  0
 26 25  2  0
 27 23  1  0
M  END
$$$$
