KQE.pdb
     RDKit          3D

 28 27  0  0  1  0  0  0  0  0999 V2000
    8.7429  -17.1138   20.9323 N   0  0  0  0  0  0  0  0  0  0  0  0
    8.6599  -15.9570   21.7612 C   0  0  1  0  0  0  0  0  0  0  0  0
    7.7717  -14.8611   21.2647 C   0  0  0  0  0  0  0  0  0  0  0  0
    8.0440  -14.3995   19.8688 C   0  0  0  0  0  0  0  0  0  0  0  0
    7.0688  -13.3798   19.4129 C   0  0  0  0  0  0  0  0  0  0  0  0
    7.4436  -13.0226   17.9559 C   0  0  0  0  0  0  0  0  0  0  0  0
    6.5058  -12.0318   17.4568 N   0  0  0  0  0  0  0  0  0  0  0  0
    8.3024  -16.2878   23.1703 C   0  0  0  0  0  0  0  0  0  0  0  0
    8.2185  -15.3485   23.9957 O   0  0  0  0  0  0  0  0  0  0  0  0
    6.1522  -21.8257   24.6929 N   0  0  0  0  0  0  0  0  0  0  0  0
    5.7078  -20.9226   23.6713 C   0  0  0  0  0  0  0  0  0  0  0  0
    4.9190  -21.2951   22.7772 O   0  0  0  0  0  0  0  0  0  0  0  0
    6.1958  -19.5266   23.6817 C   0  0  0  0  0  0  0  0  0  0  0  0
    6.9601  -19.2884   24.9536 C   0  0  0  0  0  0  0  0  0  0  0  0
    7.6405  -17.9364   24.9542 C   0  0  2  0  0  0  0  0  0  0  0  0
    8.0617  -17.6119   23.5830 N   0  0  0  0  0  0  0  0  0  0  0  0
    8.8280  -17.9192   25.8316 C   0  0  0  0  0  0  0  0  0  0  0  0
    9.9505  -18.2271   25.3808 O   0  0  0  0  0  0  0  0  0  0  0  0
    8.6772  -17.5505   27.1857 N   0  0  0  0  0  0  0  0  0  0  0  0
    9.7938  -17.5043   28.0767 C   0  0  1  0  0  0  0  0  0  0  0  0
    9.9236  -16.1005   28.5717 C   0  0  0  0  0  0  0  0  0  0  0  0
    9.8752  -15.0032   27.5882 C   0  0  0  0  0  0  0  0  0  0  0  0
   10.0283  -13.6379   28.0633 C   0  0  0  0  0  0  0  0  0  0  0  0
   10.1972  -13.3407   29.2545 O   0  0  0  0  0  0  0  0  0  0  0  0
    9.8888  -18.5785   29.0539 C   0  0  0  0  0  0  0  0  0  0  0  0
    9.0137  -19.4615   29.2670 O   0  0  0  0  0  0  0  0  0  0  0  0
    9.9900  -12.5479   27.1526 O   0  0  0  0  0  0  0  0  0  0  0  0
   11.0728  -18.6299   29.8223 O   0  0  0  0  0  0  0  0  0  0  0  0
  2  1  1  6
  3  2  1  0
  4  5  1  0
  4  3  1  0
  6  5  1  0
  7  6  1  0
  8  9  2  0
  8  2  1  0
 10 11  1  0
 11 12  2  0
 13 14  1  0
 13 11  1  0
 15 14  1  6
 15 16  1  0
 16  8  1  0
 17 15  1  0
 18 17  2  0
 19 17  1  0
 20 19  1  0
 21 22  1  0
 20 21  1  1
 23 22  1  0
 23 24  2  0
 25 20  1  0
 25 28  1  0
 26 25  2  0
 27 23  1  0
M  END
$$$$
