KQE.pdb
     RDKit          3D

 28 27  0  0  1  0  0  0  0  0999 V2000
    4.8459  -16.7886   20.9205 N   0  0  0  0  0  0  0  0  0  0  0  0
    6.1405  -16.6791   21.5070 C   0  0  1  0  0  0  0  0  0  0  0  0
    6.7751  -15.3265   21.4393 C   0  0  0  0  0  0  0  0  0  0  0  0
    7.1291  -14.8539   20.0656 C   0  0  0  0  0  0  0  0  0  0  0  0
    7.7294  -13.4980   20.0742 C   0  0  0  0  0  0  0  0  0  0  0  0
    8.1152  -13.1706   18.6131 C   0  0  0  0  0  0  0  0  0  0  0  0
    8.5598  -11.7895   18.5407 N   0  0  0  0  0  0  0  0  0  0  0  0
    6.1753  -17.1755   22.9125 C   0  0  0  0  0  0  0  0  0  0  0  0
    5.6909  -16.4468   23.8097 O   0  0  0  0  0  0  0  0  0  0  0  0
    5.6844  -23.0965   22.9745 N   0  0  0  0  0  0  0  0  0  0  0  0
    5.4295  -22.3753   24.1876 C   0  0  0  0  0  0  0  0  0  0  0  0
    5.2098  -22.9737   25.2619 O   0  0  0  0  0  0  0  0  0  0  0  0
    5.4280  -20.8967   24.1599 C   0  0  0  0  0  0  0  0  0  0  0  0
    6.7556  -20.3999   24.6589 C   0  0  0  0  0  0  0  0  0  0  0  0
    6.8335  -18.8885   24.6360 C   0  0  2  0  0  0  0  0  0  0  0  0
    6.7323  -18.4251   23.2440 N   0  0  0  0  0  0  0  0  0  0  0  0
    8.1016  -18.3948   25.2092 C   0  0  0  0  0  0  0  0  0  0  0  0
    9.1310  -18.3344   24.5058 O   0  0  0  0  0  0  0  0  0  0  0  0
    8.1344  -17.9927   26.5617 N   0  0  0  0  0  0  0  0  0  0  0  0
    9.3254  -17.4756   27.1592 C   0  0  1  0  0  0  0  0  0  0  0  0
    9.0037  -16.1311   27.7261 C   0  0  0  0  0  0  0  0  0  0  0  0
   10.0699  -15.3927   28.4274 C   0  0  0  0  0  0  0  0  0  0  0  0
    9.7509  -14.1002   29.0111 C   0  0  0  0  0  0  0  0  0  0  0  0
    9.9803  -13.8055   30.1928 O   0  0  0  0  0  0  0  0  0  0  0  0
   10.0868  -18.3963   27.9902 C   0  0  0  0  0  0  0  0  0  0  0  0
    9.6094  -19.3518   28.6610 O   0  0  0  0  0  0  0  0  0  0  0  0
    9.1420  -13.0841   28.2264 O   0  0  0  0  0  0  0  0  0  0  0  0
   11.4840  -18.1956   28.0378 O   0  0  0  0  0  0  0  0  0  0  0  0
  2  1  1  1
  3  2  1  0
  4  5  1  0
  4  3  1  0
  6  5  1  0
  7  6  1  0
  8  9  2  0
  8  2  1  0
 10 11  1  0
 11 12  2  0
 13 14  1  0
 13 11  1  0
 15 14  1  6
 15 16  1  0
 16  8  1  0
 17 15  1  0
 18 17  2  0
 19 17  1  0
 20 19  1  0
 21 22  1  0
 20 21  1  1
 23 22  1  0
 23 24  2  0
 25 20  1  0
 25 28  1  0
 26 25  2  0
 27 23  1  0
M  END
$$$$
