KQE.pdb
     RDKit          3D

 28 27  0  0  1  0  0  0  0  0999 V2000
   10.2987  -17.4606   16.0934 N   0  0  0  0  0  0  0  0  0  0  0  0
   11.2507  -16.5413   15.5635 C   0  0  1  0  0  0  0  0  0  0  0  0
   11.0423  -16.1348   14.1395 C   0  0  0  0  0  0  0  0  0  0  0  0
   11.9427  -16.7974   13.1465 C   0  0  0  0  0  0  0  0  0  0  0  0
   11.6434  -16.3866   11.7535 C   0  0  0  0  0  0  0  0  0  0  0  0
   12.5777  -17.2076   10.8348 C   0  0  0  0  0  0  0  0  0  0  0  0
   12.3291  -16.8332    9.4534 N   0  0  0  0  0  0  0  0  0  0  0  0
   11.4037  -15.3245   16.4113 C   0  0  0  0  0  0  0  0  0  0  0  0
   12.2493  -14.4659   16.0670 O   0  0  0  0  0  0  0  0  0  0  0  0
    8.4956  -12.4114   20.8490 N   0  0  0  0  0  0  0  0  0  0  0  0
    7.8516  -13.5132   20.1947 C   0  0  0  0  0  0  0  0  0  0  0  0
    6.8509  -14.0679   20.6960 O   0  0  0  0  0  0  0  0  0  0  0  0
    8.3866  -13.9968   18.9035 C   0  0  0  0  0  0  0  0  0  0  0  0
    9.5738  -13.1571   18.5243 C   0  0  0  0  0  0  0  0  0  0  0  0
   10.8443  -13.9774   18.4632 C   0  0  2  0  0  0  0  0  0  0  0  0
   10.6299  -15.1261   17.5704 N   0  0  0  0  0  0  0  0  0  0  0  0
   11.2391  -14.4789   19.7948 C   0  0  0  0  0  0  0  0  0  0  0  0
   10.6957  -15.4959   20.2729 O   0  0  0  0  0  0  0  0  0  0  0  0
   12.2380  -13.7937   20.5193 N   0  0  0  0  0  0  0  0  0  0  0  0
   12.9617  -14.4269   21.5767 C   0  0  1  0  0  0  0  0  0  0  0  0
   12.1355  -15.5682   22.0742 C   0  0  0  0  0  0  0  0  0  0  0  0
   12.7056  -16.4456   23.1130 C   0  0  0  0  0  0  0  0  0  0  0  0
   11.9497  -17.6176   23.5231 C   0  0  0  0  0  0  0  0  0  0  0  0
   11.6281  -17.8505   24.6971 O   0  0  0  0  0  0  0  0  0  0  0  0
   14.3772  -14.6680   21.3405 C   0  0  0  0  0  0  0  0  0  0  0  0
   15.2077  -15.0820   22.1947 O   0  0  0  0  0  0  0  0  0  0  0  0
   11.5326  -18.5796   22.5643 O   0  0  0  0  0  0  0  0  0  0  0  0
   14.8506  -14.4179   20.0335 O   0  0  0  0  0  0  0  0  0  0  0  0
  2  1  1  1
  3  2  1  0
  4  5  1  0
  4  3  1  0
  6  5  1  0
  7  6  1  0
  8  9  2  0
  8  2  1  0
 10 11  1  0
 11 12  2  0
 13 14  1  0
 13 11  1  0
 15 14  1  1
 15 16  1  0
 16  8  1  0
 17 15  1  0
 18 17  2  0
 19 17  1  0
 20 19  1  0
 21 22  1  0
 20 21  1  6
 23 22  1  0
 23 24  2  0
 25 20  1  0
 25 28  1  0
 26 25  2  0
 27 23  1  0
M  END
$$$$
