LWK.pdb
     RDKit          3D

 32 33  0  0  1  0  0  0  0  0999 V2000
   26.9961  -21.4190  -19.5670 C   0  0  0  0  0  0  0  0  0  0  0  0
   27.9250  -21.8566  -18.4375 C   0  0  1  0  0  0  0  0  0  0  0  0
   29.0323  -20.7954  -18.3923 C   0  0  0  0  0  0  0  0  0  0  0  0
   27.2347  -21.8098  -17.1094 C   0  0  0  0  0  0  0  0  0  0  0  0
   28.1438  -22.1571  -15.9556 C   0  0  2  0  0  0  0  0  0  0  0  0
   28.7263  -23.4519  -16.0591 N   0  0  0  0  0  0  0  0  0  0  0  0
   27.3308  -22.0589  -14.7178 C   0  0  0  0  0  0  0  0  0  0  0  0
   26.1174  -22.3856  -14.7778 O   0  0  0  0  0  0  0  0  0  0  0  0
   27.9042  -21.6048  -13.4813 N   0  0  0  0  0  0  0  0  0  0  0  0
   27.1165  -21.4650  -12.3024 C   0  0  1  0  0  0  0  0  0  0  0  0
   27.8967  -20.8966  -11.1342 C   0  0  0  0  0  0  0  0  0  0  0  0
   27.0820  -20.6315   -9.9522 C   0  0  0  0  0  0  0  0  0  0  0  0
   25.7226  -20.6706   -9.8374 C   0  0  0  0  0  0  0  0  0  0  0  0
   25.3989  -20.3588   -8.5704 N   0  0  0  0  0  0  0  0  0  0  0  0
   26.5203  -20.1173   -7.8576 C   0  0  0  0  0  0  0  0  0  0  0  0
   26.7821  -19.7660   -6.5521 C   0  0  0  0  0  0  0  0  0  0  0  0
   28.0614  -19.5765   -6.0702 C   0  0  0  0  0  0  0  0  0  0  0  0
   29.1250  -19.7462   -6.9334 C   0  0  0  0  0  0  0  0  0  0  0  0
   28.8719  -20.0967   -8.2378 C   0  0  0  0  0  0  0  0  0  0  0  0
   27.5762  -20.2852   -8.7125 C   0  0  0  0  0  0  0  0  0  0  0  0
   25.9377  -20.5750  -12.4968 C   0  0  0  0  0  0  0  0  0  0  0  0
   26.1633  -19.3508  -12.6544 O   0  0  0  0  0  0  0  0  0  0  0  0
   24.6020  -21.0594  -12.5087 N   0  0  0  0  0  0  0  0  0  0  0  0
   23.4390  -20.1918  -12.7074 C   0  0  1  0  0  0  0  0  0  0  0  0
   23.1366  -20.0177  -14.1517 C   0  0  0  0  0  0  0  0  0  0  0  0
   22.0020  -19.0550  -14.3566 C   0  0  0  0  0  0  0  0  0  0  0  0
   21.7524  -18.8137  -15.8448 C   0  0  0  0  0  0  0  0  0  0  0  0
   20.6686  -17.7359  -15.9216 C   0  0  0  0  0  0  0  0  0  0  0  0
   20.3565  -17.4446  -17.3075 N   0  0  0  0  0  0  0  0  0  0  0  0
   22.2777  -20.6631  -11.9591 C   0  0  0  0  0  0  0  0  0  0  0  0
   22.2129  -21.0806  -10.6606 O   0  0  0  0  0  0  0  0  0  0  0  0
   21.1642  -20.6939  -12.6060 O   0  0  0  0  0  0  0  0  0  0  0  0
  2  1  1  6
  2  3  1  0
  4  2  1  0
  5  4  1  0
  5  6  1  6
  7  5  1  0
  7  8  2  0
  9  7  1  0
 10  9  1  0
 10 11  1  1
 11 12  1  0
 12 13  2  0
 12 20  1  0
 13 14  1  0
 14 15  1  0
 15 16  2  0
 16 17  1  0
 18 17  2  0
 19 18  1  0
 20 19  2  0
 20 15  1  0
 21 10  1  0
 22 21  2  0
 23 21  1  0
 24 25  1  6
 24 23  1  0
 25 26  1  0
 26 27  1  0
 27 28  1  0
 28 29  1  0
 30 24  1  0
 31 30  1  0
 32 30  2  0
M  END
$$$$
