LWK.pdb
     RDKit          3D

 32 33  0  0  1  0  0  0  0  0999 V2000
   25.6033  -19.8529  -17.1632 C   0  0  0  0  0  0  0  0  0  0  0  0
   24.5351  -19.3221  -16.2107 C   0  0  1  0  0  0  0  0  0  0  0  0
   23.2033  -19.5248  -16.9453 C   0  0  0  0  0  0  0  0  0  0  0  0
   24.4604  -20.1400  -14.9586 C   0  0  0  0  0  0  0  0  0  0  0  0
   23.3304  -19.7274  -14.0469 C   0  0  2  0  0  0  0  0  0  0  0  0
   23.4001  -18.3672  -13.6329 N   0  0  0  0  0  0  0  0  0  0  0  0
   23.3759  -20.6250  -12.8657 C   0  0  0  0  0  0  0  0  0  0  0  0
   23.4766  -21.8631  -13.0652 O   0  0  0  0  0  0  0  0  0  0  0  0
   23.3075  -20.1044  -11.5285 N   0  0  0  0  0  0  0  0  0  0  0  0
   23.3436  -20.9633  -10.3924 C   0  0  1  0  0  0  0  0  0  0  0  0
   24.1305  -20.3807   -9.2358 C   0  0  0  0  0  0  0  0  0  0  0  0
   25.5450  -20.7415   -9.2418 C   0  0  0  0  0  0  0  0  0  0  0  0
   26.2167  -21.5099  -10.1479 C   0  0  0  0  0  0  0  0  0  0  0  0
   27.5036  -21.5818   -9.7658 N   0  0  0  0  0  0  0  0  0  0  0  0
   27.6836  -20.8755   -8.6290 C   0  0  0  0  0  0  0  0  0  0  0  0
   28.7612  -20.6083   -7.8143 C   0  0  0  0  0  0  0  0  0  0  0  0
   28.6654  -19.8321   -6.6771 C   0  0  0  0  0  0  0  0  0  0  0  0
   27.4369  -19.3002   -6.3410 C   0  0  0  0  0  0  0  0  0  0  0  0
   26.3567  -19.5624   -7.1490 C   0  0  0  0  0  0  0  0  0  0  0  0
   26.4659  -20.3473   -8.2943 C   0  0  0  0  0  0  0  0  0  0  0  0
   21.9872  -21.2804   -9.8640 C   0  0  0  0  0  0  0  0  0  0  0  0
   21.1649  -20.3356   -9.7910 O   0  0  0  0  0  0  0  0  0  0  0  0
   21.6085  -22.5865   -9.4518 N   0  0  0  0  0  0  0  0  0  0  0  0
   20.2964  -22.8946   -8.8789 C   0  0  1  0  0  0  0  0  0  0  0  0
   19.9772  -24.3399   -9.0092 C   0  0  0  0  0  0  0  0  0  0  0  0
   18.6172  -24.6479   -8.4507 C   0  0  0  0  0  0  0  0  0  0  0  0
   18.2912  -26.1339   -8.5951 C   0  0  0  0  0  0  0  0  0  0  0  0
   16.8872  -26.3163   -8.0141 C   0  0  0  0  0  0  0  0  0  0  0  0
   16.4808  -27.7038   -8.1262 N   0  0  0  0  0  0  0  0  0  0  0  0
   20.1864  -22.4332   -7.4985 C   0  0  0  0  0  0  0  0  0  0  0  0
   19.0752  -22.0079   -6.8282 O   0  0  0  0  0  0  0  0  0  0  0  0
   21.2806  -22.4207   -6.8189 O   0  0  0  0  0  0  0  0  0  0  0  0
  2  1  1  6
  2  3  1  0
  4  2  1  0
  5  4  1  0
  5  6  1  1
  7  5  1  0
  7  8  2  0
  9  7  1  0
 10  9  1  0
 10 11  1  1
 11 12  1  0
 12 13  2  0
 12 20  1  0
 13 14  1  0
 14 15  1  0
 15 16  2  0
 16 17  1  0
 18 17  2  0
 19 18  1  0
 20 19  2  0
 20 15  1  0
 21 10  1  0
 22 21  2  0
 23 21  1  0
 24 25  1  1
 24 23  1  0
 25 26  1  0
 26 27  1  0
 27 28  1  0
 28 29  1  0
 30 24  1  0
 31 30  1  0
 32 30  2  0
M  END
$$$$
