LWK.pdb
     RDKit          3D

 32 33  0  0  1  0  0  0  0  0999 V2000
   17.7375  -17.9886   -0.0073 C   0  0  0  0  0  0  0  0  0  0  0  0
   16.9707  -18.3664    1.2574 C   0  0  1  0  0  0  0  0  0  0  0  0
   16.8338  -19.8937    1.2046 C   0  0  0  0  0  0  0  0  0  0  0  0
   17.7579  -18.0510    2.4916 C   0  0  0  0  0  0  0  0  0  0  0  0
   17.0288  -18.4014    3.7660 C   0  0  2  0  0  0  0  0  0  0  0  0
   15.7022  -17.8884    3.8229 N   0  0  0  0  0  0  0  0  0  0  0  0
   17.8348  -17.8620    4.8895 C   0  0  0  0  0  0  0  0  0  0  0  0
   19.0549  -18.1644    4.9428 O   0  0  0  0  0  0  0  0  0  0  0  0
   17.2476  -17.0178    5.8927 N   0  0  0  0  0  0  0  0  0  0  0  0
   18.0226  -16.4809    6.9607 C   0  0  1  0  0  0  0  0  0  0  0  0
   17.5886  -15.0858    7.3627 C   0  0  0  0  0  0  0  0  0  0  0  0
   18.0773  -14.0356    6.4743 C   0  0  0  0  0  0  0  0  0  0  0  0
   17.4905  -13.5447    5.3441 C   0  0  0  0  0  0  0  0  0  0  0  0
   18.2865  -12.5857    4.8400 N   0  0  0  0  0  0  0  0  0  0  0  0
   19.3800  -12.4421    5.6193 C   0  0  0  0  0  0  0  0  0  0  0  0
   20.4950  -11.6347    5.5854 C   0  0  0  0  0  0  0  0  0  0  0  0
   21.4924  -11.6958    6.5374 C   0  0  0  0  0  0  0  0  0  0  0  0
   21.3679  -12.6052    7.5682 C   0  0  0  0  0  0  0  0  0  0  0  0
   20.2581  -13.4144    7.6089 C   0  0  0  0  0  0  0  0  0  0  0  0
   19.2579  -13.3435    6.6423 C   0  0  0  0  0  0  0  0  0  0  0  0
   17.9631  -17.3143    8.1942 C   0  0  0  0  0  0  0  0  0  0  0  0
   16.8487  -17.4209    8.7609 O   0  0  0  0  0  0  0  0  0  0  0  0
   19.1008  -17.9738    8.7323 N   0  0  0  0  0  0  0  0  0  0  0  0
   19.0802  -18.6875   10.0110 C   0  0  1  0  0  0  0  0  0  0  0  0
   18.7335  -20.1201    9.8233 C   0  0  0  0  0  0  0  0  0  0  0  0
   18.9085  -20.5378    8.3911 C   0  0  0  0  0  0  0  0  0  0  0  0
   18.6652  -22.0374    8.2258 C   0  0  0  0  0  0  0  0  0  0  0  0
   18.9517  -22.3519    6.7558 C   0  0  0  0  0  0  0  0  0  0  0  0
   18.8270  -23.7774    6.5204 N   0  0  0  0  0  0  0  0  0  0  0  0
   20.3307  -18.5198   10.7449 C   0  0  0  0  0  0  0  0  0  0  0  0
   20.6776  -19.0270   11.9645 O   0  0  0  0  0  0  0  0  0  0  0  0
   21.2286  -17.7956   10.1717 O   0  0  0  0  0  0  0  0  0  0  0  0
  2  1  1  6
  2  3  1  0
  4  2  1  0
  5  4  1  0
  5  6  1  6
  7  5  1  0
  7  8  2  0
  9  7  1  0
 10  9  1  0
 10 11  1  1
 11 12  1  0
 12 13  2  0
 12 20  1  0
 13 14  1  0
 14 15  1  0
 15 16  2  0
 16 17  1  0
 18 17  2  0
 19 18  1  0
 20 19  2  0
 20 15  1  0
 21 10  1  0
 22 21  2  0
 23 21  1  0
 24 25  1  6
 24 23  1  0
 25 26  1  0
 26 27  1  0
 27 28  1  0
 28 29  1  0
 30 24  1  0
 31 30  1  0
 32 30  2  0
M  END
$$$$
