LWK.pdb
     RDKit          3D

 32 33  0  0  1  0  0  0  0  0999 V2000
   30.4222  -21.0507  -17.3486 C   0  0  0  0  0  0  0  0  0  0  0  0
   29.5003  -20.0495  -16.6574 C   0  0  1  0  0  0  0  0  0  0  0  0
   28.6649  -19.4266  -17.7837 C   0  0  0  0  0  0  0  0  0  0  0  0
   28.5355  -20.7343  -15.7394 C   0  0  0  0  0  0  0  0  0  0  0  0
   27.5966  -19.7781  -15.0450 C   0  0  2  0  0  0  0  0  0  0  0  0
   28.2625  -18.7254  -14.3559 N   0  0  0  0  0  0  0  0  0  0  0  0
   26.7857  -20.5793  -14.0946 C   0  0  0  0  0  0  0  0  0  0  0  0
   26.5179  -21.7699  -14.4008 O   0  0  0  0  0  0  0  0  0  0  0  0
   26.3152  -20.0203  -12.8577 N   0  0  0  0  0  0  0  0  0  0  0  0
   25.4821  -20.7645  -11.9735 C   0  0  1  0  0  0  0  0  0  0  0  0
   25.6342  -20.3456  -10.5252 C   0  0  0  0  0  0  0  0  0  0  0  0
   26.9420  -20.6544   -9.9545 C   0  0  0  0  0  0  0  0  0  0  0  0
   27.9865  -21.3079  -10.5416 C   0  0  0  0  0  0  0  0  0  0  0  0
   28.9945  -21.3712   -9.6543 N   0  0  0  0  0  0  0  0  0  0  0  0
   28.6274  -20.7720   -8.5010 C   0  0  0  0  0  0  0  0  0  0  0  0
   29.2394  -20.5470   -7.2881 C   0  0  0  0  0  0  0  0  0  0  0  0
   28.6178  -19.8880   -6.2470 C   0  0  0  0  0  0  0  0  0  0  0  0
   27.3269  -19.4343   -6.4283 C   0  0  0  0  0  0  0  0  0  0  0  0
   26.7094  -19.6549   -7.6360 C   0  0  0  0  0  0  0  0  0  0  0  0
   27.3471  -20.3214   -8.6794 C   0  0  0  0  0  0  0  0  0  0  0  0
   24.0341  -20.6388  -12.3003 C   0  0  0  0  0  0  0  0  0  0  0  0
   23.6034  -19.4901  -12.5638 O   0  0  0  0  0  0  0  0  0  0  0  0
   23.1511  -21.7518  -12.3218 N   0  0  0  0  0  0  0  0  0  0  0  0
   21.7352  -21.6417  -12.6796 C   0  0  1  0  0  0  0  0  0  0  0  0
   21.1325  -22.9797  -12.9128 C   0  0  0  0  0  0  0  0  0  0  0  0
   19.6986  -22.8613  -13.3445 C   0  0  0  0  0  0  0  0  0  0  0  0
   19.0642  -24.2409  -13.5161 C   0  0  0  0  0  0  0  0  0  0  0  0
   17.6448  -23.9916  -14.0309 C   0  0  0  0  0  0  0  0  0  0  0  0
   16.9591  -25.2545  -14.2256 N   0  0  0  0  0  0  0  0  0  0  0  0
   20.9859  -20.8695  -11.6932 C   0  0  0  0  0  0  0  0  0  0  0  0
   19.9978  -19.9505  -11.9024 O   0  0  0  0  0  0  0  0  0  0  0  0
   21.2962  -21.0767  -10.4603 O   0  0  0  0  0  0  0  0  0  0  0  0
  2  1  1  6
  2  3  1  0
  4  2  1  0
  5  4  1  0
  5  6  1  1
  7  5  1  0
  7  8  2  0
  9  7  1  0
 10  9  1  0
 10 11  1  1
 11 12  1  0
 12 13  2  0
 12 20  1  0
 13 14  1  0
 14 15  1  0
 15 16  2  0
 16 17  1  0
 18 17  2  0
 19 18  1  0
 20 19  2  0
 20 15  1  0
 21 10  1  0
 22 21  2  0
 23 21  1  0
 24 25  1  1
 24 23  1  0
 25 26  1  0
 26 27  1  0
 27 28  1  0
 28 29  1  0
 30 24  1  0
 31 30  1  0
 32 30  2  0
M  END
$$$$
