LWK.pdb
     RDKit          3D

 32 33  0  0  1  0  0  0  0  0999 V2000
   29.5236  -23.0606  -17.1251 C   0  0  0  0  0  0  0  0  0  0  0  0
   29.1331  -21.7385  -16.4695 C   0  0  1  0  0  0  0  0  0  0  0  0
   28.7978  -20.7954  -17.6325 C   0  0  0  0  0  0  0  0  0  0  0  0
   27.8822  -21.8765  -15.6579 C   0  0  0  0  0  0  0  0  0  0  0  0
   27.5363  -20.6276  -14.8839 C   0  0  2  0  0  0  0  0  0  0  0  0
   28.6392  -19.7459  -14.7029 N   0  0  0  0  0  0  0  0  0  0  0  0
   27.0092  -21.0650  -13.5673 C   0  0  0  0  0  0  0  0  0  0  0  0
   26.0722  -21.9044  -13.5527 O   0  0  0  0  0  0  0  0  0  0  0  0
   27.5470  -20.5502  -12.3386 N   0  0  0  0  0  0  0  0  0  0  0  0
   26.9396  -20.8366  -11.0822 C   0  0  1  0  0  0  0  0  0  0  0  0
   27.7957  -20.4204   -9.9031 C   0  0  0  0  0  0  0  0  0  0  0  0
   27.1270  -20.5497   -8.6119 C   0  0  0  0  0  0  0  0  0  0  0  0
   25.8843  -21.0502   -8.3509 C   0  0  0  0  0  0  0  0  0  0  0  0
   25.6730  -20.9795   -7.0251 N   0  0  0  0  0  0  0  0  0  0  0  0
   26.7531  -20.4430   -6.4174 C   0  0  0  0  0  0  0  0  0  0  0  0
   27.0830  -20.1435   -5.1144 C   0  0  0  0  0  0  0  0  0  0  0  0
   28.2927  -19.5824   -4.7587 C   0  0  0  0  0  0  0  0  0  0  0  0
   29.2122  -19.3091   -5.7512 C   0  0  0  0  0  0  0  0  0  0  0  0
   28.8903  -19.6052   -7.0539 C   0  0  0  0  0  0  0  0  0  0  0  0
   27.6660  -20.1715   -7.4006 C   0  0  0  0  0  0  0  0  0  0  0  0
   25.6234  -20.1605  -10.9087 C   0  0  0  0  0  0  0  0  0  0  0  0
   25.6142  -18.9063  -10.9428 O   0  0  0  0  0  0  0  0  0  0  0  0
   24.4116  -20.8757  -10.7114 N   0  0  0  0  0  0  0  0  0  0  0  0
   23.1086  -20.3791  -11.1591 C   0  0  1  0  0  0  0  0  0  0  0  0
   22.8017  -20.8380  -12.5386 C   0  0  0  0  0  0  0  0  0  0  0  0
   21.4607  -20.3357  -12.9921 C   0  0  0  0  0  0  0  0  0  0  0  0
   21.1525  -20.8077  -14.4125 C   0  0  0  0  0  0  0  0  0  0  0  0
   19.8680  -20.0866  -14.8274 C   0  0  0  0  0  0  0  0  0  0  0  0
   19.4111  -20.5862  -16.1097 N   0  0  0  0  0  0  0  0  0  0  0  0
   22.0459  -20.7236  -10.2197 C   0  0  0  0  0  0  0  0  0  0  0  0
   21.0415  -19.9316   -9.7415 O   0  0  0  0  0  0  0  0  0  0  0  0
   22.0538  -21.9336   -9.7778 O   0  0  0  0  0  0  0  0  0  0  0  0
  2  1  1  6
  2  3  1  0
  4  2  1  0
  5  4  1  0
  5  6  1  1
  7  5  1  0
  7  8  2  0
  9  7  1  0
 10  9  1  0
 10 11  1  1
 11 12  1  0
 12 13  2  0
 12 20  1  0
 13 14  1  0
 14 15  1  0
 15 16  2  0
 16 17  1  0
 18 17  2  0
 19 18  1  0
 20 19  2  0
 20 15  1  0
 21 10  1  0
 22 21  2  0
 23 21  1  0
 24 25  1  6
 24 23  1  0
 25 26  1  0
 26 27  1  0
 27 28  1  0
 28 29  1  0
 30 24  1  0
 31 30  1  0
 32 30  2  0
M  END
$$$$
