LWK.pdb
     RDKit          3D

 32 33  0  0  1  0  0  0  0  0999 V2000
   28.8283  -18.3516   -7.2924 C   0  0  0  0  0  0  0  0  0  0  0  0
   28.5735  -19.4439   -8.3278 C   0  0  1  0  0  0  0  0  0  0  0  0
   29.2364  -20.7040   -7.7560 C   0  0  0  0  0  0  0  0  0  0  0  0
   27.1131  -19.7503   -8.4546 C   0  0  0  0  0  0  0  0  0  0  0  0
   26.8091  -20.7497   -9.5441 C   0  0  2  0  0  0  0  0  0  0  0  0
   27.8078  -20.8100  -10.5568 N   0  0  0  0  0  0  0  0  0  0  0  0
   25.5035  -20.3637  -10.1351 C   0  0  0  0  0  0  0  0  0  0  0  0
   24.7668  -19.5785   -9.4842 O   0  0  0  0  0  0  0  0  0  0  0  0
   25.0839  -20.8671  -11.4136 N   0  0  0  0  0  0  0  0  0  0  0  0
   23.8402  -20.4835  -11.9930 C   0  0  1  0  0  0  0  0  0  0  0  0
   23.9415  -20.2041  -13.4790 C   0  0  0  0  0  0  0  0  0  0  0  0
   22.7026  -19.7119  -14.0738 C   0  0  0  0  0  0  0  0  0  0  0  0
   21.7220  -18.9659  -13.4868 C   0  0  0  0  0  0  0  0  0  0  0  0
   20.7634  -18.7377  -14.4013 N   0  0  0  0  0  0  0  0  0  0  0  0
   21.0999  -19.3201  -15.5723 C   0  0  0  0  0  0  0  0  0  0  0  0
   20.5123  -19.4095  -16.8144 C   0  0  0  0  0  0  0  0  0  0  0  0
   21.0901  -20.0873  -17.8687 C   0  0  0  0  0  0  0  0  0  0  0  0
   22.3097  -20.7026  -17.6704 C   0  0  0  0  0  0  0  0  0  0  0  0
   22.9025  -20.6178  -16.4335 C   0  0  0  0  0  0  0  0  0  0  0  0
   22.3095  -19.9308  -15.3772 C   0  0  0  0  0  0  0  0  0  0  0  0
   22.7819  -21.5191  -11.8286 C   0  0  0  0  0  0  0  0  0  0  0  0
   23.0611  -22.6871  -12.1922 O   0  0  0  0  0  0  0  0  0  0  0  0
   21.5006  -21.2300  -11.2865 N   0  0  0  0  0  0  0  0  0  0  0  0
   20.4651  -22.2481  -11.0963 C   0  0  1  0  0  0  0  0  0  0  0  0
   19.6402  -21.9601   -9.8945 C   0  0  0  0  0  0  0  0  0  0  0  0
   18.5581  -22.9872   -9.7200 C   0  0  0  0  0  0  0  0  0  0  0  0
   18.6830  -23.6878   -8.3677 C   0  0  0  0  0  0  0  0  0  0  0  0
   17.5587  -24.7251   -8.3244 C   0  0  0  0  0  0  0  0  0  0  0  0
   17.6163  -25.4669   -7.0796 N   0  0  0  0  0  0  0  0  0  0  0  0
   19.6466  -22.4179  -12.2928 C   0  0  0  0  0  0  0  0  0  0  0  0
   19.2517  -23.5769  -12.8977 O   0  0  0  0  0  0  0  0  0  0  0  0
   19.2428  -21.3336  -12.8589 O   0  0  0  0  0  0  0  0  0  0  0  0
  2  1  1  1
  2  3  1  0
  4  2  1  0
  5  4  1  0
  5  6  1  6
  7  5  1  0
  7  8  2  0
  9  7  1  0
 10  9  1  0
 10 11  1  6
 11 12  1  0
 12 13  2  0
 12 20  1  0
 13 14  1  0
 14 15  1  0
 15 16  2  0
 16 17  1  0
 18 17  2  0
 19 18  1  0
 20 19  2  0
 20 15  1  0
 21 10  1  0
 22 21  2  0
 23 21  1  0
 24 25  1  1
 24 23  1  0
 25 26  1  0
 26 27  1  0
 27 28  1  0
 28 29  1  0
 30 24  1  0
 31 30  1  0
 32 30  2  0
M  END
$$$$
