LWK.pdb
     RDKit          3D

 32 33  0  0  1  0  0  0  0  0999 V2000
   30.1873  -21.9260  -16.8381 C   0  0  0  0  0  0  0  0  0  0  0  0
   29.3652  -20.7975  -16.2210 C   0  0  1  0  0  0  0  0  0  0  0  0
   28.5201  -20.2379  -17.3730 C   0  0  0  0  0  0  0  0  0  0  0  0
   28.4022  -21.3156  -15.1980 C   0  0  0  0  0  0  0  0  0  0  0  0
   27.5923  -20.2252  -14.5397 C   0  0  2  0  0  0  0  0  0  0  0  0
   28.3850  -19.1709  -14.0045 N   0  0  0  0  0  0  0  0  0  0  0  0
   26.7972  -20.8654  -13.4622 C   0  0  0  0  0  0  0  0  0  0  0  0
   26.2567  -21.9755  -13.7038 O   0  0  0  0  0  0  0  0  0  0  0  0
   26.6433  -20.2431  -12.1766 N   0  0  0  0  0  0  0  0  0  0  0  0
   25.8068  -20.8081  -11.1713 C   0  0  1  0  0  0  0  0  0  0  0  0
   26.0798  -20.2462   -9.7907 C   0  0  0  0  0  0  0  0  0  0  0  0
   27.4170  -20.5424   -9.2856 C   0  0  0  0  0  0  0  0  0  0  0  0
   28.3972  -21.2862   -9.8762 C   0  0  0  0  0  0  0  0  0  0  0  0
   29.4657  -21.2967   -9.0604 N   0  0  0  0  0  0  0  0  0  0  0  0
   29.2012  -20.5746   -7.9503 C   0  0  0  0  0  0  0  0  0  0  0  0
   29.9068  -20.2527   -6.8124 C   0  0  0  0  0  0  0  0  0  0  0  0
   29.3819  -19.4733   -5.8016 C   0  0  0  0  0  0  0  0  0  0  0  0
   28.0940  -18.9953   -5.9361 C   0  0  0  0  0  0  0  0  0  0  0  0
   27.3834  -19.3122   -7.0688 C   0  0  0  0  0  0  0  0  0  0  0  0
   27.9240  -20.0998   -8.0822 C   0  0  0  0  0  0  0  0  0  0  0  0
   24.3569  -20.5917  -11.4369 C   0  0  0  0  0  0  0  0  0  0  0  0
   23.9513  -19.4048  -11.4725 O   0  0  0  0  0  0  0  0  0  0  0  0
   23.4452  -21.6614  -11.6453 N   0  0  0  0  0  0  0  0  0  0  0  0
   22.0930  -21.4676  -12.1734 C   0  0  1  0  0  0  0  0  0  0  0  0
   21.6183  -22.6757  -12.8965 C   0  0  0  0  0  0  0  0  0  0  0  0
   20.2494  -22.4588  -13.4757 C   0  0  0  0  0  0  0  0  0  0  0  0
   19.8064  -23.6682  -14.2980 C   0  0  0  0  0  0  0  0  0  0  0  0
   18.6016  -23.2021  -15.1186 C   0  0  0  0  0  0  0  0  0  0  0  0
   18.1183  -24.2875  -15.9500 N   0  0  0  0  0  0  0  0  0  0  0  0
   21.1591  -21.0526  -11.1313 C   0  0  0  0  0  0  0  0  0  0  0  0
   21.3607  -20.9898   -9.7821 O   0  0  0  0  0  0  0  0  0  0  0  0
   19.9865  -20.7006  -11.5320 O   0  0  0  0  0  0  0  0  0  0  0  0
  2  1  1  6
  2  3  1  0
  4  2  1  0
  5  4  1  0
  5  6  1  1
  7  5  1  0
  7  8  2  0
  9  7  1  0
 10  9  1  0
 10 11  1  1
 11 12  1  0
 12 13  2  0
 12 20  1  0
 13 14  1  0
 14 15  1  0
 15 16  2  0
 16 17  1  0
 18 17  2  0
 19 18  1  0
 20 19  2  0
 20 15  1  0
 21 10  1  0
 22 21  2  0
 23 21  1  0
 24 25  1  1
 24 23  1  0
 25 26  1  0
 26 27  1  0
 27 28  1  0
 28 29  1  0
 30 24  1  0
 31 30  1  0
 32 30  2  0
M  END
$$$$
