LWK.pdb
     RDKit          3D

 32 33  0  0  1  0  0  0  0  0999 V2000
   26.8398  -19.8957  -18.9239 C   0  0  0  0  0  0  0  0  0  0  0  0
   27.7235  -20.5352  -17.8560 C   0  0  1  0  0  0  0  0  0  0  0  0
   28.7911  -19.4817  -17.5324 C   0  0  0  0  0  0  0  0  0  0  0  0
   26.9646  -20.7770  -16.5879 C   0  0  0  0  0  0  0  0  0  0  0  0
   27.8148  -21.3728  -15.4921 C   0  0  2  0  0  0  0  0  0  0  0  0
   28.5562  -22.5161  -15.9041 N   0  0  0  0  0  0  0  0  0  0  0  0
   26.9005  -21.7295  -14.3788 C   0  0  0  0  0  0  0  0  0  0  0  0
   26.3339  -22.8523  -14.4133 O   0  0  0  0  0  0  0  0  0  0  0  0
   26.6626  -20.8251  -13.2882 N   0  0  0  0  0  0  0  0  0  0  0  0
   25.7712  -21.1563  -12.2273 C   0  0  1  0  0  0  0  0  0  0  0  0
   26.0937  -20.4313  -10.9363 C   0  0  0  0  0  0  0  0  0  0  0  0
   27.2998  -20.9156  -10.2716 C   0  0  0  0  0  0  0  0  0  0  0  0
   28.2675  -21.7379  -10.7719 C   0  0  0  0  0  0  0  0  0  0  0  0
   29.1954  -21.9242   -9.8171 N   0  0  0  0  0  0  0  0  0  0  0  0
   28.8515  -21.2397   -8.7049 C   0  0  0  0  0  0  0  0  0  0  0  0
   29.4122  -21.0710   -7.4585 C   0  0  0  0  0  0  0  0  0  0  0  0
   28.8335  -20.2925   -6.4767 C   0  0  0  0  0  0  0  0  0  0  0  0
   27.6413  -19.6551   -6.7551 C   0  0  0  0  0  0  0  0  0  0  0  0
   27.0756  -19.8186   -7.9967 C   0  0  0  0  0  0  0  0  0  0  0  0
   27.6691  -20.6069   -8.9795 C   0  0  0  0  0  0  0  0  0  0  0  0
   24.3505  -20.8408  -12.5460 C   0  0  0  0  0  0  0  0  0  0  0  0
   24.1144  -19.7254  -13.0699 O   0  0  0  0  0  0  0  0  0  0  0  0
   23.2845  -21.7421  -12.2812 N   0  0  0  0  0  0  0  0  0  0  0  0
   21.8819  -21.4245  -12.5583 C   0  0  1  0  0  0  0  0  0  0  0  0
   21.0001  -22.5869  -12.2771 C   0  0  0  0  0  0  0  0  0  0  0  0
   19.5864  -22.3116  -12.7037 C   0  0  0  0  0  0  0  0  0  0  0  0
   18.7067  -23.5457  -12.5079 C   0  0  0  0  0  0  0  0  0  0  0  0
   17.3297  -23.1748  -13.0633 C   0  0  0  0  0  0  0  0  0  0  0  0
   16.3795  -24.2330  -12.7802 N   0  0  0  0  0  0  0  0  0  0  0  0
   21.4478  -20.2253  -11.8484 C   0  0  0  0  0  0  0  0  0  0  0  0
   20.7774  -19.1410  -12.3380 O   0  0  0  0  0  0  0  0  0  0  0  0
   21.7356  -20.1771  -10.5937 O   0  0  0  0  0  0  0  0  0  0  0  0
  2  1  1  6
  2  3  1  0
  4  2  1  0
  5  4  1  0
  5  6  1  6
  7  5  1  0
  7  8  2  0
  9  7  1  0
 10  9  1  0
 10 11  1  1
 11 12  1  0
 12 13  2  0
 12 20  1  0
 13 14  1  0
 14 15  1  0
 15 16  2  0
 16 17  1  0
 18 17  2  0
 19 18  1  0
 20 19  2  0
 20 15  1  0
 21 10  1  0
 22 21  2  0
 23 21  1  0
 24 25  1  1
 24 23  1  0
 25 26  1  0
 26 27  1  0
 27 28  1  0
 28 29  1  0
 30 24  1  0
 31 30  1  0
 32 30  2  0
M  END
$$$$
