LWK.pdb
     RDKit          3D

 32 33  0  0  1  0  0  0  0  0999 V2000
   19.8387  -22.5056  -10.0414 C   0  0  0  0  0  0  0  0  0  0  0  0
   20.5074  -22.4518  -11.4125 C   0  0  1  0  0  0  0  0  0  0  0  0
   19.3752  -22.1448  -12.4015 C   0  0  0  0  0  0  0  0  0  0  0  0
   21.4763  -21.3138  -11.5067 C   0  0  0  0  0  0  0  0  0  0  0  0
   22.0486  -21.1349  -12.8919 C   0  0  2  0  0  0  0  0  0  0  0  0
   22.5576  -22.3379  -13.4578 N   0  0  0  0  0  0  0  0  0  0  0  0
   23.1278  -20.1214  -12.7880 C   0  0  0  0  0  0  0  0  0  0  0  0
   22.8599  -19.0245  -12.2331 O   0  0  0  0  0  0  0  0  0  0  0  0
   24.4444  -20.3762  -13.3035 N   0  0  0  0  0  0  0  0  0  0  0  0
   25.4962  -19.4258  -13.1616 C   0  0  1  0  0  0  0  0  0  0  0  0
   26.7617  -20.0267  -12.5838 C   0  0  0  0  0  0  0  0  0  0  0  0
   26.5612  -20.7194  -11.3145 C   0  0  0  0  0  0  0  0  0  0  0  0
   26.2851  -22.0399  -11.1075 C   0  0  0  0  0  0  0  0  0  0  0  0
   26.1805  -22.2446   -9.7829 N   0  0  0  0  0  0  0  0  0  0  0  0
   26.3830  -21.0839   -9.1230 C   0  0  0  0  0  0  0  0  0  0  0  0
   26.3948  -20.7121   -7.7971 C   0  0  0  0  0  0  0  0  0  0  0  0
   26.6364  -19.4172   -7.3851 C   0  0  0  0  0  0  0  0  0  0  0  0
   26.8766  -18.4525   -8.3425 C   0  0  0  0  0  0  0  0  0  0  0  0
   26.8665  -18.8157   -9.6678 C   0  0  0  0  0  0  0  0  0  0  0  0
   26.6215  -20.1260  -10.0714 C   0  0  0  0  0  0  0  0  0  0  0  0
   25.8809  -18.7918  -14.4537 C   0  0  0  0  0  0  0  0  0  0  0  0
   25.6775  -19.4536  -15.5001 O   0  0  0  0  0  0  0  0  0  0  0  0
   26.4554  -17.4946  -14.5328 N   0  0  0  0  0  0  0  0  0  0  0  0
   26.6363  -16.7765  -15.7963 C   0  0  1  0  0  0  0  0  0  0  0  0
   27.0215  -15.3608  -15.5614 C   0  0  0  0  0  0  0  0  0  0  0  0
   27.2118  -14.6276  -16.8586 C   0  0  0  0  0  0  0  0  0  0  0  0
   27.6051  -13.1720  -16.6106 C   0  0  0  0  0  0  0  0  0  0  0  0
   27.7605  -12.5353  -17.9936 C   0  0  0  0  0  0  0  0  0  0  0  0
   28.1842  -11.1550  -17.8591 N   0  0  0  0  0  0  0  0  0  0  0  0
   27.5780  -17.4598  -16.6776 C   0  0  0  0  0  0  0  0  0  0  0  0
   27.6266  -17.4531  -18.0423 O   0  0  0  0  0  0  0  0  0  0  0  0
   28.4839  -18.1670  -16.0956 O   0  0  0  0  0  0  0  0  0  0  0  0
  2  1  1  1
  2  3  1  0
  4  2  1  0
  5  4  1  0
  5  6  1  1
  7  5  1  0
  7  8  2  0
  9  7  1  0
 10  9  1  0
 10 11  1  6
 11 12  1  0
 12 13  2  0
 12 20  1  0
 13 14  1  0
 14 15  1  0
 15 16  2  0
 16 17  1  0
 18 17  2  0
 19 18  1  0
 20 19  2  0
 20 15  1  0
 21 10  1  0
 22 21  2  0
 23 21  1  0
 24 25  1  1
 24 23  1  0
 25 26  1  0
 26 27  1  0
 27 28  1  0
 28 29  1  0
 30 24  1  0
 31 30  1  0
 32 30  2  0
M  END
$$$$
