LWK.pdb
     RDKit          3D

 32 33  0  0  1  0  0  0  0  0999 V2000
   28.2348  -18.9632   -7.4689 C   0  0  0  0  0  0  0  0  0  0  0  0
   27.6076  -20.1827   -8.1394 C   0  0  1  0  0  0  0  0  0  0  0  0
   26.8732  -20.9270   -7.0164 C   0  0  0  0  0  0  0  0  0  0  0  0
   26.5665  -19.7848   -9.1395 C   0  0  0  0  0  0  0  0  0  0  0  0
   25.9107  -20.9648   -9.8146 C   0  0  2  0  0  0  0  0  0  0  0  0
   26.8334  -21.8414  -10.4524 N   0  0  0  0  0  0  0  0  0  0  0  0
   24.9527  -20.4191  -10.8082 C   0  0  0  0  0  0  0  0  0  0  0  0
   24.1541  -19.5227  -10.4318 O   0  0  0  0  0  0  0  0  0  0  0  0
   24.9300  -20.8945  -12.1637 N   0  0  0  0  0  0  0  0  0  0  0  0
   24.0121  -20.3730  -13.1203 C   0  0  1  0  0  0  0  0  0  0  0  0
   24.6420  -20.1417  -14.4790 C   0  0  0  0  0  0  0  0  0  0  0  0
   25.5486  -18.9984  -14.5235 C   0  0  0  0  0  0  0  0  0  0  0  0
   26.7754  -18.8701  -13.9393 C   0  0  0  0  0  0  0  0  0  0  0  0
   27.2584  -17.6520  -14.2397 N   0  0  0  0  0  0  0  0  0  0  0  0
   26.3709  -16.9843  -15.0079 C   0  0  0  0  0  0  0  0  0  0  0  0
   26.3392  -15.7373  -15.5912 C   0  0  0  0  0  0  0  0  0  0  0  0
   25.2756  -15.2929  -16.3503 C   0  0  0  0  0  0  0  0  0  0  0  0
   24.1966  -16.1340  -16.5332 C   0  0  0  0  0  0  0  0  0  0  0  0
   24.2208  -17.3801  -15.9542 C   0  0  0  0  0  0  0  0  0  0  0  0
   25.3000  -17.8173  -15.1902 C   0  0  0  0  0  0  0  0  0  0  0  0
   22.8404  -21.2656  -13.3438 C   0  0  0  0  0  0  0  0  0  0  0  0
   23.0691  -22.4939  -13.4590 O   0  0  0  0  0  0  0  0  0  0  0  0
   21.5080  -20.7792  -13.4278 N   0  0  0  0  0  0  0  0  0  0  0  0
   20.3369  -21.6581  -13.4577 C   0  0  1  0  0  0  0  0  0  0  0  0
   20.3787  -22.6499  -12.3522 C   0  0  0  0  0  0  0  0  0  0  0  0
   20.3583  -21.9707  -11.0125 C   0  0  0  0  0  0  0  0  0  0  0  0
   19.3277  -22.6175  -10.0880 C   0  0  0  0  0  0  0  0  0  0  0  0
   19.9090  -23.9772   -9.6937 C   0  0  0  0  0  0  0  0  0  0  0  0
   19.0312  -24.6355   -8.7455 N   0  0  0  0  0  0  0  0  0  0  0  0
   19.0902  -20.8989  -13.4636 C   0  0  0  0  0  0  0  0  0  0  0  0
   17.8470  -21.3051  -13.8562 O   0  0  0  0  0  0  0  0  0  0  0  0
   19.1683  -19.6826  -13.0466 O   0  0  0  0  0  0  0  0  0  0  0  0
  2  1  1  1
  2  3  1  0
  4  2  1  0
  5  4  1  0
  5  6  1  6
  7  5  1  0
  7  8  2  0
  9  7  1  0
 10  9  1  0
 10 11  1  6
 11 12  1  0
 12 13  2  0
 12 20  1  0
 13 14  1  0
 14 15  1  0
 15 16  2  0
 16 17  1  0
 18 17  2  0
 19 18  1  0
 20 19  2  0
 20 15  1  0
 21 10  1  0
 22 21  2  0
 23 21  1  0
 24 25  1  1
 24 23  1  0
 25 26  1  0
 26 27  1  0
 27 28  1  0
 28 29  1  0
 30 24  1  0
 31 30  1  0
 32 30  2  0
M  END
$$$$
