LWK.pdb
     RDKit          3D

 32 33  0  0  1  0  0  0  0  0999 V2000
   26.4271  -21.3764  -19.3741 C   0  0  0  0  0  0  0  0  0  0  0  0
   27.3738  -21.3685  -18.1767 C   0  0  1  0  0  0  0  0  0  0  0  0
   27.5402  -19.8894  -17.8040 C   0  0  0  0  0  0  0  0  0  0  0  0
   26.7609  -22.0417  -16.9877 C   0  0  0  0  0  0  0  0  0  0  0  0
   27.5802  -21.8855  -15.7297 C   0  0  2  0  0  0  0  0  0  0  0  0
   28.6496  -22.8194  -15.6266 N   0  0  0  0  0  0  0  0  0  0  0  0
   26.6503  -22.0435  -14.5837 C   0  0  0  0  0  0  0  0  0  0  0  0
   25.9836  -23.1074  -14.5034 O   0  0  0  0  0  0  0  0  0  0  0  0
   26.5085  -21.0165  -13.5893 N   0  0  0  0  0  0  0  0  0  0  0  0
   25.6610  -21.1884  -12.4571 C   0  0  1  0  0  0  0  0  0  0  0  0
   26.0203  -20.2716  -11.3052 C   0  0  0  0  0  0  0  0  0  0  0  0
   27.2149  -20.6821  -10.5734 C   0  0  0  0  0  0  0  0  0  0  0  0
   28.3488  -21.2614  -11.0646 C   0  0  0  0  0  0  0  0  0  0  0  0
   29.1924  -21.4697  -10.0388 N   0  0  0  0  0  0  0  0  0  0  0  0
   28.6307  -21.0376   -8.8893 C   0  0  0  0  0  0  0  0  0  0  0  0
   29.0267  -21.0012   -7.5709 C   0  0  0  0  0  0  0  0  0  0  0  0
   28.2326  -20.4894   -6.5648 C   0  0  0  0  0  0  0  0  0  0  0  0
   26.9876  -19.9922   -6.8932 C   0  0  0  0  0  0  0  0  0  0  0  0
   26.5852  -20.0251   -8.2068 C   0  0  0  0  0  0  0  0  0  0  0  0
   27.3957  -20.5442   -9.2134 C   0  0  0  0  0  0  0  0  0  0  0  0
   24.2254  -20.9368  -12.7659 C   0  0  0  0  0  0  0  0  0  0  0  0
   23.9597  -19.9485  -13.4919 O   0  0  0  0  0  0  0  0  0  0  0  0
   23.1773  -21.7614  -12.2755 N   0  0  0  0  0  0  0  0  0  0  0  0
   21.7593  -21.4566  -12.4783 C   0  0  1  0  0  0  0  0  0  0  0  0
   20.8945  -22.5561  -11.9771 C   0  0  0  0  0  0  0  0  0  0  0  0
   19.4588  -22.3344  -12.3589 C   0  0  0  0  0  0  0  0  0  0  0  0
   18.5877  -23.5083  -11.9134 C   0  0  0  0  0  0  0  0  0  0  0  0
   17.1638  -23.1713  -12.3619 C   0  0  0  0  0  0  0  0  0  0  0  0
   16.2611  -24.2449  -11.9942 N   0  0  0  0  0  0  0  0  0  0  0  0
   21.3943  -20.1674  -11.8993 C   0  0  0  0  0  0  0  0  0  0  0  0
   21.8382  -19.5975  -10.7405 O   0  0  0  0  0  0  0  0  0  0  0  0
   20.5378  -19.4723  -12.5645 O   0  0  0  0  0  0  0  0  0  0  0  0
  2  1  1  6
  2  3  1  0
  4  2  1  0
  5  4  1  0
  5  6  1  1
  7  5  1  0
  7  8  2  0
  9  7  1  0
 10  9  1  0
 10 11  1  1
 11 12  1  0
 12 13  2  0
 12 20  1  0
 13 14  1  0
 14 15  1  0
 15 16  2  0
 16 17  1  0
 18 17  2  0
 19 18  1  0
 20 19  2  0
 20 15  1  0
 21 10  1  0
 22 21  2  0
 23 21  1  0
 24 25  1  1
 24 23  1  0
 25 26  1  0
 26 27  1  0
 27 28  1  0
 28 29  1  0
 30 24  1  0
 31 30  1  0
 32 30  2  0
M  END
$$$$
