LWK.pdb
     RDKit          3D

 32 33  0  0  1  0  0  0  0  0999 V2000
   30.3401  -22.0137  -17.2992 C   0  0  0  0  0  0  0  0  0  0  0  0
   28.9449  -22.6094  -17.4683 C   0  0  1  0  0  0  0  0  0  0  0  0
   29.1764  -24.0490  -17.9464 C   0  0  0  0  0  0  0  0  0  0  0  0
   28.2262  -22.7054  -16.1580 C   0  0  0  0  0  0  0  0  0  0  0  0
   27.4307  -21.4666  -15.8255 C   0  0  2  0  0  0  0  0  0  0  0  0
   28.2070  -20.2734  -15.8276 N   0  0  0  0  0  0  0  0  0  0  0  0
   26.8292  -21.6835  -14.4861 C   0  0  0  0  0  0  0  0  0  0  0  0
   26.1612  -22.7331  -14.2989 O   0  0  0  0  0  0  0  0  0  0  0  0
   26.9992  -20.7280  -13.4269 N   0  0  0  0  0  0  0  0  0  0  0  0
   26.3570  -20.8923  -12.1658 C   0  0  1  0  0  0  0  0  0  0  0  0
   26.9469  -20.0115  -11.0829 C   0  0  0  0  0  0  0  0  0  0  0  0
   26.2776  -20.1340   -9.7913 C   0  0  0  0  0  0  0  0  0  0  0  0
   24.9435  -20.2772   -9.5417 C   0  0  0  0  0  0  0  0  0  0  0  0
   24.7708  -20.3523   -8.2106 N   0  0  0  0  0  0  0  0  0  0  0  0
   25.9658  -20.2610   -7.5882 C   0  0  0  0  0  0  0  0  0  0  0  0
   26.3781  -20.2776   -6.2744 C   0  0  0  0  0  0  0  0  0  0  0  0
   27.7026  -20.1625   -5.9041 C   0  0  0  0  0  0  0  0  0  0  0  0
   28.6560  -20.0248   -6.8927 C   0  0  0  0  0  0  0  0  0  0  0  0
   28.2525  -20.0074   -8.2061 C   0  0  0  0  0  0  0  0  0  0  0  0
   26.9125  -20.1244   -8.5674 C   0  0  0  0  0  0  0  0  0  0  0  0
   24.9001  -20.5844  -12.2144 C   0  0  0  0  0  0  0  0  0  0  0  0
   24.5700  -19.4292  -12.5764 O   0  0  0  0  0  0  0  0  0  0  0  0
   23.9013  -21.5353  -11.8722 N   0  0  0  0  0  0  0  0  0  0  0  0
   22.4703  -21.2994  -12.0757 C   0  0  1  0  0  0  0  0  0  0  0  0
   21.6864  -22.5480  -11.8902 C   0  0  0  0  0  0  0  0  0  0  0  0
   20.2257  -22.3159  -12.1525 C   0  0  0  0  0  0  0  0  0  0  0  0
   19.4286  -23.6090  -11.9858 C   0  0  0  0  0  0  0  0  0  0  0  0
   17.9914  -23.2740  -12.3910 C   0  0  0  0  0  0  0  0  0  0  0  0
   17.1647  -24.4629  -12.3137 N   0  0  0  0  0  0  0  0  0  0  0  0
   21.9755  -20.2139  -11.2347 C   0  0  0  0  0  0  0  0  0  0  0  0
   21.1117  -19.2082  -11.5622 O   0  0  0  0  0  0  0  0  0  0  0  0
   22.4108  -20.1959  -10.0225 O   0  0  0  0  0  0  0  0  0  0  0  0
  2  1  1  1
  2  3  1  0
  4  2  1  0
  5  4  1  0
  5  6  1  1
  7  5  1  0
  7  8  2  0
  9  7  1  0
 10  9  1  0
 10 11  1  1
 11 12  1  0
 12 13  2  0
 12 20  1  0
 13 14  1  0
 14 15  1  0
 15 16  2  0
 16 17  1  0
 18 17  2  0
 19 18  1  0
 20 19  2  0
 20 15  1  0
 21 10  1  0
 22 21  2  0
 23 21  1  0
 24 25  1  1
 24 23  1  0
 25 26  1  0
 26 27  1  0
 27 28  1  0
 28 29  1  0
 30 24  1  0
 31 30  1  0
 32 30  2  0
M  END
$$$$
