LWK.pdb
     RDKit          3D

 32 33  0  0  1  0  0  0  0  0999 V2000
   27.0994  -17.8232  -16.3494 C   0  0  0  0  0  0  0  0  0  0  0  0
   27.9747  -18.7170  -15.4748 C   0  0  1  0  0  0  0  0  0  0  0  0
   28.8000  -17.7531  -14.6121 C   0  0  0  0  0  0  0  0  0  0  0  0
   27.1513  -19.5367  -14.5300 C   0  0  0  0  0  0  0  0  0  0  0  0
   27.9842  -20.3444  -13.5645 C   0  0  2  0  0  0  0  0  0  0  0  0
   28.6807  -21.4239  -14.1777 N   0  0  0  0  0  0  0  0  0  0  0  0
   27.0627  -20.8573  -12.5202 C   0  0  0  0  0  0  0  0  0  0  0  0
   26.4181  -21.9102  -12.7631 O   0  0  0  0  0  0  0  0  0  0  0  0
   26.9042  -20.1779  -11.2643 N   0  0  0  0  0  0  0  0  0  0  0  0
   25.9149  -20.5787  -10.3207 C   0  0  1  0  0  0  0  0  0  0  0  0
   26.1886  -20.0630   -8.9223 C   0  0  0  0  0  0  0  0  0  0  0  0
   27.5116  -20.4104   -8.4125 C   0  0  0  0  0  0  0  0  0  0  0  0
   28.4837  -21.1502   -9.0212 C   0  0  0  0  0  0  0  0  0  0  0  0
   29.5399  -21.2194   -8.1922 N   0  0  0  0  0  0  0  0  0  0  0  0
   29.2752  -20.5395   -7.0559 C   0  0  0  0  0  0  0  0  0  0  0  0
   29.9713  -20.2823   -5.8958 C   0  0  0  0  0  0  0  0  0  0  0  0
   29.4490  -19.5351   -4.8596 C   0  0  0  0  0  0  0  0  0  0  0  0
   28.1739  -19.0230   -4.9908 C   0  0  0  0  0  0  0  0  0  0  0  0
   27.4729  -19.2753   -6.1455 C   0  0  0  0  0  0  0  0  0  0  0  0
   28.0108  -20.0309   -7.1845 C   0  0  0  0  0  0  0  0  0  0  0  0
   24.5473  -20.1121  -10.6834 C   0  0  0  0  0  0  0  0  0  0  0  0
   24.4435  -18.9564  -11.1608 O   0  0  0  0  0  0  0  0  0  0  0  0
   23.3889  -20.9163  -10.5090 N   0  0  0  0  0  0  0  0  0  0  0  0
   22.1907  -20.7827  -11.3405 C   0  0  1  0  0  0  0  0  0  0  0  0
   22.4913  -21.0635  -12.7683 C   0  0  0  0  0  0  0  0  0  0  0  0
   23.1209  -22.4171  -12.9345 C   0  0  0  0  0  0  0  0  0  0  0  0
   23.4976  -22.6689  -14.3939 C   0  0  0  0  0  0  0  0  0  0  0  0
   24.1711  -24.0427  -14.4249 C   0  0  0  0  0  0  0  0  0  0  0  0
   24.5484  -24.3793  -15.7841 N   0  0  0  0  0  0  0  0  0  0  0  0
   21.0915  -21.6035  -10.8421 C   0  0  0  0  0  0  0  0  0  0  0  0
   21.1105  -22.5422   -9.8504 O   0  0  0  0  0  0  0  0  0  0  0  0
   19.9502  -21.4246  -11.4120 O   0  0  0  0  0  0  0  0  0  0  0  0
  2  1  1  6
  2  3  1  0
  4  2  1  0
  5  4  1  0
  5  6  1  6
  7  5  1  0
  7  8  2  0
  9  7  1  0
 10  9  1  0
 10 11  1  1
 11 12  1  0
 12 13  2  0
 12 20  1  0
 13 14  1  0
 14 15  1  0
 15 16  2  0
 16 17  1  0
 18 17  2  0
 19 18  1  0
 20 19  2  0
 20 15  1  0
 21 10  1  0
 22 21  2  0
 23 21  1  0
 24 25  1  6
 24 23  1  0
 25 26  1  0
 26 27  1  0
 27 28  1  0
 28 29  1  0
 30 24  1  0
 31 30  1  0
 32 30  2  0
M  END
$$$$
