WRQ.pdb
     RDKit          3D

 35 36  0  0  1  0  0  0  0  0999 V2000
    6.8154  -17.4909   25.7962 N   0  0  0  0  0  0  0  0  0  0  0  0
    7.1807  -16.2435   25.1401 C   0  0  1  0  0  0  0  0  0  0  0  0
    8.4505  -15.6956   25.8180 C   0  0  0  0  0  0  0  0  0  0  0  0
    8.1062  -14.6067   26.7343 C   0  0  0  0  0  0  0  0  0  0  0  0
    8.4319  -14.5326   28.0810 C   0  0  0  0  0  0  0  0  0  0  0  0
    7.9245  -13.4082   28.5872 N   0  0  0  0  0  0  0  0  0  0  0  0
    7.2653  -12.7171   27.6279 C   0  0  0  0  0  0  0  0  0  0  0  0
    6.5900  -11.5345   27.6336 C   0  0  0  0  0  0  0  0  0  0  0  0
    6.0128  -11.0747   26.4744 C   0  0  0  0  0  0  0  0  0  0  0  0
    6.1292  -11.8288   25.3128 C   0  0  0  0  0  0  0  0  0  0  0  0
    6.8022  -13.0097   25.2988 C   0  0  0  0  0  0  0  0  0  0  0  0
    7.3851  -13.4801   26.4598 C   0  0  0  0  0  0  0  0  0  0  0  0
    7.5152  -16.5505   23.7168 C   0  0  0  0  0  0  0  0  0  0  0  0
    7.8636  -17.7108   23.4363 O   0  0  0  0  0  0  0  0  0  0  0  0
    9.5208  -15.0314   15.8428 N   0  0  0  0  0  0  0  0  0  0  0  0
    8.3549  -14.2332   16.0744 C   0  0  0  0  0  0  0  0  0  0  0  0
    8.1649  -13.1450   15.4047 N   0  0  0  0  0  0  0  0  0  0  0  0
    7.3854  -14.6177   17.0325 N   0  0  0  0  0  0  0  0  0  0  0  0
    7.7992  -15.2511   18.2569 C   0  0  0  0  0  0  0  0  0  0  0  0
    8.3174  -14.3216   19.3039 C   0  0  0  0  0  0  0  0  0  0  0  0
    7.5981  -14.3510   20.6185 C   0  0  0  0  0  0  0  0  0  0  0  0
    8.1396  -15.4706   21.5103 C   0  0  2  0  0  0  0  0  0  0  0  0
    7.4326  -15.5511   22.7465 N   0  0  0  0  0  0  0  0  0  0  0  0
    9.6020  -15.4177   21.6497 C   0  0  0  0  0  0  0  0  0  0  0  0
   10.1480  -14.8542   22.6494 O   0  0  0  0  0  0  0  0  0  0  0  0
    7.3219  -12.5349   15.5351 N   0  0  0  0  0  0  0  0  0  0  0  0
   11.4798  -19.4162   24.3961 C   0  0  0  0  0  0  0  0  0  0  0  0
   12.6295  -19.3065   23.5804 O   0  0  0  0  0  0  0  0  0  0  0  0
   13.6505  -20.0507   23.8254 C   0  0  0  0  0  0  0  0  0  0  0  0
   12.7426  -18.3848   22.4409 C   0  0  0  0  0  0  0  0  0  0  0  0
   11.5653  -17.5778   22.0949 C   0  0  1  0  0  0  0  0  0  0  0  0
   11.7315  -16.6047   20.9668 N   0  0  0  0  0  0  0  0  0  0  0  0
   10.4241  -16.0016   20.6626 C   0  0  0  0  0  0  0  0  0  0  0  0
   12.4353  -17.0098   19.7699 O   0  0  0  0  0  0  0  0  0  0  0  0
   13.7738  -16.6045   19.5676 O   0  0  0  0  0  0  0  0  0  0  0  0
  2  1  1  1
  2  3  1  0
  4  5  2  0
  4  3  1  0
  6  5  1  0
  7 12  2  0
  7  6  1  0
  8  7  1  0
  9 10  1  0
  9  8  2  0
 10 11  2  0
 11 12  1  0
 12  4  1  0
 13  2  1  0
 14 13  2  0
 16 18  1  0
 16 15  1  0
 17 16  2  0
 19 18  1  0
 20 19  1  0
 20 21  1  0
 22 21  1  1
 22 23  1  0
 23 13  1  0
 24 22  1  0
 24 25  2  0
 26 27  1  0
 27 28  2  0
 27 29  1  0
 29 30  1  0
 31 30  1  1
 31 32  1  0
 32 24  1  0
 33 34  1  0
 33 31  1  0
 35 33  2  0
M  END
$$$$
