WRQ.pdb
     RDKit          3D

 35 36  0  0  1  0  0  0  0  0999 V2000
    6.8015  -18.4017   25.1672 N   0  0  0  0  0  0  0  0  0  0  0  0
    6.8782  -17.0275   24.6924 C   0  0  1  0  0  0  0  0  0  0  0  0
    7.6907  -16.2089   25.7131 C   0  0  0  0  0  0  0  0  0  0  0  0
    6.8698  -15.1300   26.2662 C   0  0  0  0  0  0  0  0  0  0  0  0
    5.8455  -15.2694   27.1918 C   0  0  0  0  0  0  0  0  0  0  0  0
    5.3146  -14.0701   27.4328 N   0  0  0  0  0  0  0  0  0  0  0  0
    5.9454  -13.1219   26.7010 C   0  0  0  0  0  0  0  0  0  0  0  0
    5.7848  -11.7740   26.5915 C   0  0  0  0  0  0  0  0  0  0  0  0
    6.5986  -11.0579   25.7469 C   0  0  0  0  0  0  0  0  0  0  0  0
    7.5742  -11.7259   25.0165 C   0  0  0  0  0  0  0  0  0  0  0  0
    7.7412  -13.0709   25.1208 C   0  0  0  0  0  0  0  0  0  0  0  0
    6.9271  -13.7989   25.9671 C   0  0  0  0  0  0  0  0  0  0  0  0
    7.6281  -17.0260   23.4003 C   0  0  0  0  0  0  0  0  0  0  0  0
    8.2671  -18.0482   23.0951 O   0  0  0  0  0  0  0  0  0  0  0  0
    9.5933  -14.5825   16.6513 N   0  0  0  0  0  0  0  0  0  0  0  0
    8.3661  -14.0073   16.1898 C   0  0  0  0  0  0  0  0  0  0  0  0
    8.0188  -14.1170   14.9504 N   0  0  0  0  0  0  0  0  0  0  0  0
    7.5060  -13.3140   17.0761 N   0  0  0  0  0  0  0  0  0  0  0  0
    7.8919  -13.1271   18.4501 C   0  0  0  0  0  0  0  0  0  0  0  0
    8.2176  -14.3821   19.1900 C   0  0  0  0  0  0  0  0  0  0  0  0
    7.6528  -14.4908   20.5740 C   0  0  0  0  0  0  0  0  0  0  0  0
    8.1512  -15.7608   21.2672 C   0  0  2  0  0  0  0  0  0  0  0  0
    7.5992  -15.9013   22.5749 N   0  0  0  0  0  0  0  0  0  0  0  0
    9.6140  -15.8938   21.2081 C   0  0  0  0  0  0  0  0  0  0  0  0
   10.2262  -15.9413   20.0954 O   0  0  0  0  0  0  0  0  0  0  0  0
    7.1670  -13.6516   14.5535 N   0  0  0  0  0  0  0  0  0  0  0  0
   12.9165  -19.1076   25.6815 C   0  0  0  0  0  0  0  0  0  0  0  0
   13.7149  -18.8562   24.5420 O   0  0  0  0  0  0  0  0  0  0  0  0
   14.7385  -19.6014   24.3116 C   0  0  0  0  0  0  0  0  0  0  0  0
   13.4493  -17.7819   23.5744 C   0  0  0  0  0  0  0  0  0  0  0  0
   12.0932  -17.2197   23.5322 C   0  0  1  0  0  0  0  0  0  0  0  0
   11.8059  -16.2529   22.4232 N   0  0  0  0  0  0  0  0  0  0  0  0
   10.3621  -15.9688   22.4021 C   0  0  0  0  0  0  0  0  0  0  0  0
   12.3296  -16.5065   21.0990 O   0  0  0  0  0  0  0  0  0  0  0  0
   13.4628  -15.7972   20.6410 O   0  0  0  0  0  0  0  0  0  0  0  0
  2  1  1  1
  2  3  1  0
  4  5  2  0
  4  3  1  0
  6  5  1  0
  7 12  2  0
  7  6  1  0
  8  7  1  0
  9 10  1  0
  9  8  2  0
 10 11  2  0
 11 12  1  0
 12  4  1  0
 13  2  1  0
 14 13  2  0
 16 18  1  0
 16 15  1  0
 17 16  2  0
 19 18  1  0
 20 19  1  0
 20 21  1  0
 22 21  1  1
 22 23  1  0
 23 13  1  0
 24 22  1  0
 24 25  2  0
 26 27  1  0
 27 28  2  0
 27 29  1  0
 29 30  1  0
 31 30  1  1
 31 32  1  0
 32 24  1  0
 33 34  1  0
 33 31  1  0
 35 33  2  0
M  END
$$$$
