WRQ.pdb
     RDKit          3D

 35 36  0  0  1  0  0  0  0  0999 V2000
    6.5272  -17.2848   24.8761 N   0  0  0  0  0  0  0  0  0  0  0  0
    7.1228  -16.3064   23.9774 C   0  0  1  0  0  0  0  0  0  0  0  0
    8.2142  -15.5427   24.7505 C   0  0  0  0  0  0  0  0  0  0  0  0
    7.6160  -14.7678   25.8393 C   0  0  0  0  0  0  0  0  0  0  0  0
    7.3519  -15.2236   27.1229 C   0  0  0  0  0  0  0  0  0  0  0  0
    6.7814  -14.2413   27.8215 N   0  0  0  0  0  0  0  0  0  0  0  0
    6.6501  -13.1342   27.0537 C   0  0  0  0  0  0  0  0  0  0  0  0
    6.1431  -11.8931   27.2929 C   0  0  0  0  0  0  0  0  0  0  0  0
    6.1490  -10.9510   26.2925 C   0  0  0  0  0  0  0  0  0  0  0  0
    6.6741  -11.2842   25.0496 C   0  0  0  0  0  0  0  0  0  0  0  0
    7.1826  -12.5205   24.8032 C   0  0  0  0  0  0  0  0  0  0  0  0
    7.1802  -13.4742   25.8029 C   0  0  0  0  0  0  0  0  0  0  0  0
    7.7830  -17.0466   22.8602 C   0  0  0  0  0  0  0  0  0  0  0  0
    8.5466  -17.9837   23.1519 O   0  0  0  0  0  0  0  0  0  0  0  0
    7.2845  -13.2736   15.2921 N   0  0  0  0  0  0  0  0  0  0  0  0
    7.6052  -14.5603   15.8318 C   0  0  0  0  0  0  0  0  0  0  0  0
    7.5318  -15.6161   15.0910 N   0  0  0  0  0  0  0  0  0  0  0  0
    8.0140  -14.7052   17.1800 N   0  0  0  0  0  0  0  0  0  0  0  0
    8.2067  -13.5382   18.0001 C   0  0  0  0  0  0  0  0  0  0  0  0
    8.6813  -13.8143   19.3884 C   0  0  0  0  0  0  0  0  0  0  0  0
    7.7483  -14.6068   20.2530 C   0  0  0  0  0  0  0  0  0  0  0  0
    8.3829  -15.9382   20.6610 C   0  0  2  0  0  0  0  0  0  0  0  0
    7.5367  -16.6817   21.5361 N   0  0  0  0  0  0  0  0  0  0  0  0
    9.7624  -15.7768   21.1426 C   0  0  0  0  0  0  0  0  0  0  0  0
   10.6366  -15.1729   20.4453 O   0  0  0  0  0  0  0  0  0  0  0  0
    7.8768  -16.5563   15.4022 N   0  0  0  0  0  0  0  0  0  0  0  0
   10.7591  -18.7052   26.2895 C   0  0  0  0  0  0  0  0  0  0  0  0
   12.0614  -18.5983   25.7493 O   0  0  0  0  0  0  0  0  0  0  0  0
   12.9526  -19.4683   26.0736 C   0  0  0  0  0  0  0  0  0  0  0  0
   12.4789  -17.5420   24.8161 C   0  0  0  0  0  0  0  0  0  0  0  0
   11.4688  -16.5616   24.3972 C   0  0  1  0  0  0  0  0  0  0  0  0
   11.4899  -16.1570   22.9539 N   0  0  0  0  0  0  0  0  0  0  0  0
   10.1332  -16.2959   22.4013 C   0  0  0  0  0  0  0  0  0  0  0  0
   12.4955  -16.7064   22.0713 O   0  0  0  0  0  0  0  0  0  0  0  0
   12.2752  -17.9509   21.4392 O   0  0  0  0  0  0  0  0  0  0  0  0
  2  1  1  1
  2  3  1  0
  4  5  2  0
  4  3  1  0
  6  5  1  0
  7 12  2  0
  7  6  1  0
  8  7  1  0
  9 10  1  0
  9  8  2  0
 10 11  2  0
 11 12  1  0
 12  4  1  0
 13  2  1  0
 14 13  2  0
 16 18  1  0
 16 15  1  0
 17 16  2  0
 19 18  1  0
 20 19  1  0
 20 21  1  0
 22 21  1  1
 22 23  1  0
 23 13  1  0
 24 22  1  0
 24 25  2  0
 26 27  1  0
 27 28  2  0
 27 29  1  0
 29 30  1  0
 31 30  1  1
 31 32  1  0
 32 24  1  0
 33 34  1  0
 33 31  1  0
 35 33  2  0
M  END
$$$$
