WRQ.pdb
     RDKit          3D

 35 36  0  0  1  0  0  0  0  0999 V2000
    6.3221  -17.3649   23.6526 N   0  0  0  0  0  0  0  0  0  0  0  0
    7.3747  -16.4197   23.3085 C   0  0  1  0  0  0  0  0  0  0  0  0
    8.1117  -16.0261   24.6024 C   0  0  0  0  0  0  0  0  0  0  0  0
    7.2571  -15.1764   25.4340 C   0  0  0  0  0  0  0  0  0  0  0  0
    6.3561  -15.6093   26.3963 C   0  0  0  0  0  0  0  0  0  0  0  0
    5.7437  -14.5485   26.9233 N   0  0  0  0  0  0  0  0  0  0  0  0
    6.2000  -13.4102   26.3500 C   0  0  0  0  0  0  0  0  0  0  0  0
    5.9024  -12.0941   26.5338 C   0  0  0  0  0  0  0  0  0  0  0  0
    6.5495  -11.1391   25.7870 C   0  0  0  0  0  0  0  0  0  0  0  0
    7.4994  -11.5363   24.8535 C   0  0  0  0  0  0  0  0  0  0  0  0
    7.8025  -12.8479   24.6646 C   0  0  0  0  0  0  0  0  0  0  0  0
    7.1564  -13.8149   25.4106 C   0  0  0  0  0  0  0  0  0  0  0  0
    8.3500  -17.1180   22.4180 C   0  0  0  0  0  0  0  0  0  0  0  0
    8.0202  -18.2174   21.9397 O   0  0  0  0  0  0  0  0  0  0  0  0
    7.1741  -15.0846   15.8434 N   0  0  0  0  0  0  0  0  0  0  0  0
    8.0071  -14.0186   16.3122 C   0  0  0  0  0  0  0  0  0  0  0  0
    7.8511  -12.8195   15.8576 N   0  0  0  0  0  0  0  0  0  0  0  0
    9.0115  -14.2501   17.2835 N   0  0  0  0  0  0  0  0  0  0  0  0
    9.2172  -15.5778   17.7997 C   0  0  0  0  0  0  0  0  0  0  0  0
    9.7026  -15.6379   19.2102 C   0  0  0  0  0  0  0  0  0  0  0  0
    9.9304  -17.0112   19.7656 C   0  0  0  0  0  0  0  0  0  0  0  0
   10.5458  -16.9373   21.1648 C   0  0  2  0  0  0  0  0  0  0  0  0
    9.5885  -16.5367   22.1434 N   0  0  0  0  0  0  0  0  0  0  0  0
   11.7961  -16.1645   21.1866 C   0  0  0  0  0  0  0  0  0  0  0  0
   11.7923  -14.9021   21.0400 O   0  0  0  0  0  0  0  0  0  0  0  0
    8.4231  -12.0052   16.1885 N   0  0  0  0  0  0  0  0  0  0  0  0
   10.8576  -18.9308   25.6111 C   0  0  0  0  0  0  0  0  0  0  0  0
   12.1835  -18.4415   25.5682 O   0  0  0  0  0  0  0  0  0  0  0  0
   12.7912  -18.1679   26.6691 C   0  0  0  0  0  0  0  0  0  0  0  0
   12.9382  -18.2234   24.3257 C   0  0  0  0  0  0  0  0  0  0  0  0
   12.9938  -16.8568   23.7906 C   0  0  1  0  0  0  0  0  0  0  0  0
   13.8535  -16.6486   22.5804 N   0  0  0  0  0  0  0  0  0  0  0  0
   13.0284  -16.8257   21.3748 C   0  0  0  0  0  0  0  0  0  0  0  0
   15.1221  -17.3355   22.4768 O   0  0  0  0  0  0  0  0  0  0  0  0
   15.3048  -18.3350   21.4947 O   0  0  0  0  0  0  0  0  0  0  0  0
  2  1  1  1
  2  3  1  0
  4  5  2  0
  4  3  1  0
  6  5  1  0
  7 12  2  0
  7  6  1  0
  8  7  1  0
  9 10  1  0
  9  8  2  0
 10 11  2  0
 11 12  1  0
 12  4  1  0
 13  2  1  0
 14 13  2  0
 16 18  1  0
 16 15  1  0
 17 16  2  0
 19 18  1  0
 20 19  1  0
 20 21  1  0
 22 21  1  6
 22 23  1  0
 23 13  1  0
 24 22  1  0
 24 25  2  0
 26 27  1  0
 27 28  2  0
 27 29  1  0
 29 30  1  0
 31 30  1  1
 31 32  1  0
 32 24  1  0
 33 34  1  0
 33 31  1  0
 35 33  2  0
M  END
$$$$
