WRQ.pdb
     RDKit          3D

 35 36  0  0  1  0  0  0  0  0999 V2000
    6.4725  -16.8989   25.2716 N   0  0  0  0  0  0  0  0  0  0  0  0
    6.9108  -15.7556   24.4839 C   0  0  1  0  0  0  0  0  0  0  0  0
    8.2056  -15.2056   25.1108 C   0  0  0  0  0  0  0  0  0  0  0  0
    7.9020  -14.4772   26.3441 C   0  0  0  0  0  0  0  0  0  0  0  0
    7.9264  -14.9952   27.6311 C   0  0  0  0  0  0  0  0  0  0  0  0
    7.5667  -14.0394   28.4886 N   0  0  0  0  0  0  0  0  0  0  0  0
    7.2993  -12.8900   27.8253 C   0  0  0  0  0  0  0  0  0  0  0  0
    6.9040  -11.6525   28.2339 C   0  0  0  0  0  0  0  0  0  0  0  0
    6.7106  -10.6584   27.3050 C   0  0  0  0  0  0  0  0  0  0  0  0
    6.9226  -10.9361   25.9599 C   0  0  0  0  0  0  0  0  0  0  0  0
    7.3179  -12.1684   25.5441 C   0  0  0  0  0  0  0  0  0  0  0  0
    7.5141  -13.1741   26.4710 C   0  0  0  0  0  0  0  0  0  0  0  0
    7.2351  -16.2391   23.1081 C   0  0  0  0  0  0  0  0  0  0  0  0
    7.6580  -17.4017   22.9826 O   0  0  0  0  0  0  0  0  0  0  0  0
    7.4600  -15.8749   15.1085 N   0  0  0  0  0  0  0  0  0  0  0  0
    7.8186  -14.4904   15.1760 C   0  0  0  0  0  0  0  0  0  0  0  0
    7.9585  -13.7984   14.0941 N   0  0  0  0  0  0  0  0  0  0  0  0
    8.0211  -13.8487   16.4222 N   0  0  0  0  0  0  0  0  0  0  0  0
    8.0993  -14.6316   17.6274 C   0  0  0  0  0  0  0  0  0  0  0  0
    8.4293  -13.8586   18.8612 C   0  0  0  0  0  0  0  0  0  0  0  0
    7.4923  -14.0401   20.0168 C   0  0  0  0  0  0  0  0  0  0  0  0
    7.9488  -15.1947   20.9116 C   0  0  2  0  0  0  0  0  0  0  0  0
    7.0614  -15.3956   22.0101 N   0  0  0  0  0  0  0  0  0  0  0  0
    9.3656  -15.0850   21.2879 C   0  0  0  0  0  0  0  0  0  0  0  0
    9.7184  -14.5044   22.3620 O   0  0  0  0  0  0  0  0  0  0  0  0
    8.2123  -12.7809   14.0967 N   0  0  0  0  0  0  0  0  0  0  0  0
   12.7350  -18.7579   24.9715 C   0  0  0  0  0  0  0  0  0  0  0  0
   12.2361  -18.8764   23.6538 O   0  0  0  0  0  0  0  0  0  0  0  0
   11.5087  -19.8916   23.3432 C   0  0  0  0  0  0  0  0  0  0  0  0
   12.4901  -17.8957   22.5886 C   0  0  0  0  0  0  0  0  0  0  0  0
   11.3347  -17.1908   22.0185 C   0  0  1  0  0  0  0  0  0  0  0  0
   11.6311  -16.1678   20.9636 N   0  0  0  0  0  0  0  0  0  0  0  0
   10.3602  -15.6325   20.4500 C   0  0  0  0  0  0  0  0  0  0  0  0
   12.5574  -16.4851   19.8991 O   0  0  0  0  0  0  0  0  0  0  0  0
   13.9485  -16.3612   20.1145 O   0  0  0  0  0  0  0  0  0  0  0  0
  2  1  1  1
  2  3  1  0
  4  5  2  0
  4  3  1  0
  6  5  1  0
  7 12  2  0
  7  6  1  0
  8  7  1  0
  9 10  1  0
  9  8  2  0
 10 11  2  0
 11 12  1  0
 12  4  1  0
 13  2  1  0
 14 13  2  0
 16 18  1  0
 16 15  1  0
 17 16  2  0
 19 18  1  0
 20 19  1  0
 20 21  1  0
 22 21  1  1
 22 23  1  0
 23 13  1  0
 24 22  1  0
 24 25  2  0
 26 27  1  0
 27 28  2  0
 27 29  1  0
 29 30  1  0
 31 30  1  1
 31 32  1  0
 32 24  1  0
 33 34  1  0
 33 31  1  0
 35 33  2  0
M  END
$$$$
