WRQ.pdb
     RDKit          3D

 35 36  0  0  1  0  0  0  0  0999 V2000
    7.1460  -17.2399   26.3164 N   0  0  0  0  0  0  0  0  0  0  0  0
    7.5005  -16.4365   25.1551 C   0  0  1  0  0  0  0  0  0  0  0  0
    8.7247  -15.5758   25.5195 C   0  0  0  0  0  0  0  0  0  0  0  0
    8.3554  -14.5629   26.5102 C   0  0  0  0  0  0  0  0  0  0  0  0
    8.5372  -14.6520   27.8829 C   0  0  0  0  0  0  0  0  0  0  0  0
    8.0529  -13.5495   28.4555 N   0  0  0  0  0  0  0  0  0  0  0  0
    7.5485  -12.7154   27.5162 C   0  0  0  0  0  0  0  0  0  0  0  0
    6.9557  -11.4911   27.5833 C   0  0  0  0  0  0  0  0  0  0  0  0
    6.5392  -10.8723   26.4292 C   0  0  0  0  0  0  0  0  0  0  0  0
    6.7311  -11.5106   25.2097 C   0  0  0  0  0  0  0  0  0  0  0  0
    7.3226  -12.7321   25.1343 C   0  0  0  0  0  0  0  0  0  0  0  0
    7.7439  -13.3621   26.2896 C   0  0  0  0  0  0  0  0  0  0  0  0
    7.9019  -17.3649   24.0557 C   0  0  0  0  0  0  0  0  0  0  0  0
    8.1408  -18.5492   24.3500 O   0  0  0  0  0  0  0  0  0  0  0  0
    9.1492  -13.3828   17.1919 N   0  0  0  0  0  0  0  0  0  0  0  0
    8.5852  -12.8567   18.3982 C   0  0  0  0  0  0  0  0  0  0  0  0
    9.0821  -11.7960   18.9431 N   0  0  0  0  0  0  0  0  0  0  0  0
    7.4727  -13.4785   19.0157 N   0  0  0  0  0  0  0  0  0  0  0  0
    7.3758  -14.9143   19.0396 C   0  0  0  0  0  0  0  0  0  0  0  0
    7.9588  -15.5658   20.2497 C   0  0  0  0  0  0  0  0  0  0  0  0
    7.8477  -17.0593   20.3060 C   0  0  0  0  0  0  0  0  0  0  0  0
    8.4659  -17.6029   21.5961 C   0  0  2  0  0  0  0  0  0  0  0  0
    7.9995  -16.8973   22.7446 N   0  0  0  0  0  0  0  0  0  0  0  0
    9.9285  -17.7220   21.5092 C   0  0  0  0  0  0  0  0  0  0  0  0
   10.4833  -18.3237   20.5369 O   0  0  0  0  0  0  0  0  0  0  0  0
    8.7269  -11.3991   19.8464 N   0  0  0  0  0  0  0  0  0  0  0  0
   13.3662  -20.3789   25.5648 C   0  0  0  0  0  0  0  0  0  0  0  0
   14.2035  -20.0108   24.4865 O   0  0  0  0  0  0  0  0  0  0  0  0
   15.3458  -20.5874   24.3490 C   0  0  0  0  0  0  0  0  0  0  0  0
   13.8514  -18.9957   23.4832 C   0  0  0  0  0  0  0  0  0  0  0  0
   12.5496  -18.3284   23.6136 C   0  0  1  0  0  0  0  0  0  0  0  0
   12.2024  -17.3297   22.5510 N   0  0  0  0  0  0  0  0  0  0  0  0
   10.7410  -17.1603   22.5169 C   0  0  0  0  0  0  0  0  0  0  0  0
   12.7647  -17.4699   21.2258 O   0  0  0  0  0  0  0  0  0  0  0  0
   12.3544  -18.5367   20.3948 O   0  0  0  0  0  0  0  0  0  0  0  0
  2  1  1  1
  2  3  1  0
  4  5  2  0
  4  3  1  0
  6  5  1  0
  7 12  2  0
  7  6  1  0
  8  7  1  0
  9 10  1  0
  9  8  2  0
 10 11  2  0
 11 12  1  0
 12  4  1  0
 13  2  1  0
 14 13  2  0
 16 18  1  0
 16 15  1  0
 17 16  2  0
 19 18  1  0
 20 19  1  0
 20 21  1  0
 22 21  1  6
 22 23  1  0
 23 13  1  0
 24 22  1  0
 24 25  2  0
 26 27  1  0
 27 28  2  0
 27 29  1  0
 29 30  1  0
 31 30  1  1
 31 32  1  0
 32 24  1  0
 33 34  1  0
 33 31  1  0
 35 33  2  0
M  END
$$$$
