WRQ.pdb
     RDKit          3D

 35 36  0  0  1  0  0  0  0  0999 V2000
    6.3553  -17.4899   23.9344 N   0  0  0  0  0  0  0  0  0  0  0  0
    7.0918  -16.2763   23.6110 C   0  0  1  0  0  0  0  0  0  0  0  0
    7.9298  -15.8784   24.8404 C   0  0  0  0  0  0  0  0  0  0  0  0
    7.1586  -14.9922   25.7143 C   0  0  0  0  0  0  0  0  0  0  0  0
    6.1095  -15.3650   26.5424 C   0  0  0  0  0  0  0  0  0  0  0  0
    5.6408  -14.2807   27.1610 N   0  0  0  0  0  0  0  0  0  0  0  0
    6.3377  -13.1846   26.7796 C   0  0  0  0  0  0  0  0  0  0  0  0
    6.2541  -11.8676   27.1160 C   0  0  0  0  0  0  0  0  0  0  0  0
    7.1232  -10.9646   26.5524 C   0  0  0  0  0  0  0  0  0  0  0  0
    8.0752  -11.4144   25.6452 C   0  0  0  0  0  0  0  0  0  0  0  0
    8.1655  -12.7273   25.3049 C   0  0  0  0  0  0  0  0  0  0  0  0
    7.2954  -13.6421   25.8661 C   0  0  0  0  0  0  0  0  0  0  0  0
    8.0334  -16.5906   22.4946 C   0  0  0  0  0  0  0  0  0  0  0  0
    8.4054  -17.7694   22.3591 O   0  0  0  0  0  0  0  0  0  0  0  0
    9.5527  -14.5997   16.9064 N   0  0  0  0  0  0  0  0  0  0  0  0
    8.4547  -13.9055   16.3044 C   0  0  0  0  0  0  0  0  0  0  0  0
    8.1895  -14.0654   15.0503 N   0  0  0  0  0  0  0  0  0  0  0  0
    7.6344  -13.0373   17.0654 N   0  0  0  0  0  0  0  0  0  0  0  0
    7.8915  -12.8560   18.4700 C   0  0  0  0  0  0  0  0  0  0  0  0
    8.0544  -14.1188   19.2494 C   0  0  0  0  0  0  0  0  0  0  0  0
    9.4463  -14.4273   19.7115 C   0  0  0  0  0  0  0  0  0  0  0  0
    9.4586  -15.6621   20.6155 C   0  0  2  0  0  0  0  0  0  0  0  0
    8.4703  -15.5773   21.6405 N   0  0  0  0  0  0  0  0  0  0  0  0
   10.8080  -15.9888   21.0987 C   0  0  0  0  0  0  0  0  0  0  0  0
   11.3236  -15.3684   22.0807 O   0  0  0  0  0  0  0  0  0  0  0  0
    7.3854  -13.5913   14.5724 N   0  0  0  0  0  0  0  0  0  0  0  0
   15.7927  -13.0161   19.4765 C   0  0  0  0  0  0  0  0  0  0  0  0
   15.2014  -14.1346   18.8452 O   0  0  0  0  0  0  0  0  0  0  0  0
   14.9861  -14.1027   17.5768 C   0  0  0  0  0  0  0  0  0  0  0  0
   14.8109  -15.3639   19.5504 C   0  0  0  0  0  0  0  0  0  0  0  0
   13.3854  -15.7168   19.5709 C   0  0  1  0  0  0  0  0  0  0  0  0
   13.0160  -16.9575   20.3267 N   0  0  0  0  0  0  0  0  0  0  0  0
   11.5523  -17.0092   20.4696 C   0  0  0  0  0  0  0  0  0  0  0  0
   13.6947  -17.2698   21.5652 O   0  0  0  0  0  0  0  0  0  0  0  0
   14.8739  -18.0482   21.5463 O   0  0  0  0  0  0  0  0  0  0  0  0
  2  1  1  1
  2  3  1  0
  4  5  2  0
  4  3  1  0
  6  5  1  0
  7 12  2  0
  7  6  1  0
  8  7  1  0
  9 10  1  0
  9  8  2  0
 10 11  2  0
 11 12  1  0
 12  4  1  0
 13  2  1  0
 14 13  2  0
 16 18  1  0
 16 15  1  0
 17 16  2  0
 19 18  1  0
 20 19  1  0
 20 21  1  0
 22 21  1  1
 22 23  1  0
 23 13  1  0
 24 22  1  0
 24 25  2  0
 26 27  1  0
 27 28  2  0
 27 29  1  0
 29 30  1  0
 31 30  1  6
 31 32  1  0
 32 24  1  0
 33 34  1  0
 33 31  1  0
 35 33  2  0
M  END
$$$$
