WRQ.pdb
     RDKit          3D

 35 36  0  0  1  0  0  0  0  0999 V2000
    7.8938  -18.3711   25.9026 N   0  0  0  0  0  0  0  0  0  0  0  0
    7.7219  -17.1327   25.1566 C   0  0  1  0  0  0  0  0  0  0  0  0
    8.3258  -15.9828   25.9844 C   0  0  0  0  0  0  0  0  0  0  0  0
    7.3030  -14.9765   26.2759 C   0  0  0  0  0  0  0  0  0  0  0  0
    5.9559  -15.2173   26.5051 C   0  0  0  0  0  0  0  0  0  0  0  0
    5.3372  -14.0535   26.7080 N   0  0  0  0  0  0  0  0  0  0  0  0
    6.2208  -13.0313   26.6241 C   0  0  0  0  0  0  0  0  0  0  0  0
    6.0941  -11.6815   26.7529 C   0  0  0  0  0  0  0  0  0  0  0  0
    7.2000  -10.8777   26.6145 C   0  0  0  0  0  0  0  0  0  0  0  0
    8.4326  -11.4601   26.3440 C   0  0  0  0  0  0  0  0  0  0  0  0
    8.5674  -12.8065   26.2147 C   0  0  0  0  0  0  0  0  0  0  0  0
    7.4607  -13.6223   26.3516 C   0  0  0  0  0  0  0  0  0  0  0  0
    8.5023  -17.2452   23.8877 C   0  0  0  0  0  0  0  0  0  0  0  0
    9.4513  -18.0482   23.8554 O   0  0  0  0  0  0  0  0  0  0  0  0
   10.3751  -13.4056   17.8933 N   0  0  0  0  0  0  0  0  0  0  0  0
    9.1045  -12.7691   18.0681 C   0  0  0  0  0  0  0  0  0  0  0  0
    9.0288  -11.4856   18.1939 N   0  0  0  0  0  0  0  0  0  0  0  0
    7.9075  -13.5253   18.1010 N   0  0  0  0  0  0  0  0  0  0  0  0
    7.9657  -14.9625   18.0467 C   0  0  0  0  0  0  0  0  0  0  0  0
    8.7136  -15.6062   19.1669 C   0  0  0  0  0  0  0  0  0  0  0  0
    8.0444  -15.5678   20.5074 C   0  0  0  0  0  0  0  0  0  0  0  0
    8.8563  -16.3480   21.5437 C   0  0  2  0  0  0  0  0  0  0  0  0
    8.1602  -16.4640   22.7832 N   0  0  0  0  0  0  0  0  0  0  0  0
   10.2343  -15.8507   21.6654 C   0  0  0  0  0  0  0  0  0  0  0  0
   10.4845  -14.7334   22.2168 O   0  0  0  0  0  0  0  0  0  0  0  0
    8.1224  -10.9797   18.3433 N   0  0  0  0  0  0  0  0  0  0  0  0
   15.1556  -19.6792   22.3235 C   0  0  0  0  0  0  0  0  0  0  0  0
   14.3972  -18.9410   23.2611 O   0  0  0  0  0  0  0  0  0  0  0  0
   14.4252  -19.2798   24.5024 C   0  0  0  0  0  0  0  0  0  0  0  0
   13.5631  -17.7820   22.9118 C   0  0  0  0  0  0  0  0  0  0  0  0
   13.5944  -17.3116   21.5209 C   0  0  2  0  0  0  0  0  0  0  0  0
   12.7020  -16.1541   21.1878 N   0  0  0  0  0  0  0  0  0  0  0  0
   11.3065  -16.6204   21.1663 C   0  0  0  0  0  0  0  0  0  0  0  0
   13.0125  -15.3148   20.0515 O   0  0  0  0  0  0  0  0  0  0  0  0
   14.1180  -14.4361   20.1049 O   0  0  0  0  0  0  0  0  0  0  0  0
  2  1  1  1
  2  3  1  0
  4  5  2  0
  4  3  1  0
  6  5  1  0
  7 12  2  0
  7  6  1  0
  8  7  1  0
  9 10  1  0
  9  8  2  0
 10 11  2  0
 11 12  1  0
 12  4  1  0
 13  2  1  0
 14 13  2  0
 16 18  1  0
 16 15  1  0
 17 16  2  0
 19 18  1  0
 20 19  1  0
 20 21  1  0
 22 21  1  6
 22 23  1  0
 23 13  1  0
 24 22  1  0
 24 25  2  0
 26 27  1  0
 27 28  2  0
 27 29  1  0
 29 30  1  0
 31 30  1  1
 31 32  1  0
 32 24  1  0
 33 34  1  0
 33 31  1  0
 35 33  2  0
M  END
$$$$
