SFR.pdb
     RDKit          3D

 29 29  0  0  1  0  0  0  0  0999 V2000
    8.1706  -15.6708   19.4354 O   0  0  0  0  0  0  0  0  0  0  0  0
    7.1461  -14.7333   19.4981 C   0  0  0  0  0  0  0  0  0  0  0  0
    7.6440  -13.5532   20.2690 C   0  0  2  0  0  0  0  0  0  0  0  0
    8.5099  -12.7235   19.4534 N   0  0  0  0  0  0  0  0  0  0  0  0
    8.3396  -13.9436   21.5366 C   0  0  0  0  0  0  0  0  0  0  0  0
    9.5808  -13.8215   21.6790 O   0  0  0  0  0  0  0  0  0  0  0  0
    7.5761  -14.4688   22.6128 N   0  0  0  0  0  0  0  0  0  0  0  0
    8.2685  -14.9058   23.8313 C   0  0  1  0  0  0  0  0  0  0  0  0
    7.3569  -14.7488   24.9848 C   0  0  0  0  0  0  0  0  0  0  0  0
    7.1156  -13.4266   25.5072 C   0  0  0  0  0  0  0  0  0  0  0  0
    5.8303  -12.9533   25.6555 C   0  0  0  0  0  0  0  0  0  0  0  0
    5.5695  -11.6831   26.1558 C   0  0  0  0  0  0  0  0  0  0  0  0
    6.6094  -10.8489   26.5231 C   0  0  0  0  0  0  0  0  0  0  0  0
    7.8951  -11.2986   26.3842 C   0  0  0  0  0  0  0  0  0  0  0  0
    8.1365  -12.5709   25.8823 C   0  0  0  0  0  0  0  0  0  0  0  0
    8.9489  -16.1720   23.6295 C   0  0  0  0  0  0  0  0  0  0  0  0
    8.5458  -16.9022   22.6491 O   0  0  0  0  0  0  0  0  0  0  0  0
   15.2001  -14.7189   20.8295 N   0  0  0  0  0  0  0  0  0  0  0  0
   14.4970  -14.8691   19.5980 C   0  0  0  0  0  0  0  0  0  0  0  0
   15.0046  -14.4891   18.4876 N   0  0  0  0  0  0  0  0  0  0  0  0
   13.2033  -15.4560   19.6158 N   0  0  0  0  0  0  0  0  0  0  0  0
   12.2539  -15.2319   20.6796 C   0  0  0  0  0  0  0  0  0  0  0  0
   12.7173  -16.0042   21.9206 C   0  0  0  0  0  0  0  0  0  0  0  0
   11.7949  -15.7057   23.0647 C   0  0  0  0  0  0  0  0  0  0  0  0
   11.3453  -16.9600   23.7332 C   0  0  2  0  0  0  0  0  0  0  0  0
   10.0175  -16.7278   24.3668 N   0  0  0  0  0  0  0  0  0  0  0  0
   12.3040  -17.4340   24.7409 C   0  0  0  0  0  0  0  0  0  0  0  0
   13.1769  -18.2900   24.4102 O   0  0  0  0  0  0  0  0  0  0  0  0
   12.3205  -17.0000   26.0476 O   0  0  0  0  0  0  0  0  0  0  0  0
  2  1  1  0
  3  2  1  0
  3  5  1  0
  3  4  1  6
  5  6  2  0
  7  5  1  0
  7  8  1  0
  8  9  1  1
 10  9  1  0
 11 10  2  0
 12 11  1  0
 13 14  1  0
 13 12  2  0
 14 15  2  0
 15 10  1  0
 16  8  1  0
 16 17  2  0
 19 21  1  0
 19 18  1  0
 20 19  2  0
 22 23  1  0
 22 21  1  0
 23 24  1  0
 25 24  1  1
 25 26  1  0
 25 27  1  0
 26 16  1  0
 27 29  1  0
 28 27  2  0
M  END
$$$$
