SFR.pdb
     RDKit          3D

 29 29  0  0  1  0  0  0  0  0999 V2000
    8.0078  -18.4653   21.8225 O   0  0  0  0  0  0  0  0  0  0  0  0
    7.8371  -17.7285   20.6561 C   0  0  0  0  0  0  0  0  0  0  0  0
    8.8134  -16.5967   20.6755 C   0  0  2  0  0  0  0  0  0  0  0  0
   10.1167  -17.0224   20.2026 N   0  0  0  0  0  0  0  0  0  0  0  0
    8.9317  -15.9596   22.0257 C   0  0  0  0  0  0  0  0  0  0  0  0
    9.9019  -16.1913   22.7879 O   0  0  0  0  0  0  0  0  0  0  0  0
    7.9178  -15.0658   22.4616 N   0  0  0  0  0  0  0  0  0  0  0  0
    8.0362  -14.4455   23.7869 C   0  0  1  0  0  0  0  0  0  0  0  0
    7.0074  -13.3917   23.9180 C   0  0  0  0  0  0  0  0  0  0  0  0
    6.9580  -12.6133   25.1309 C   0  0  0  0  0  0  0  0  0  0  0  0
    5.9916  -12.8557   26.0826 C   0  0  0  0  0  0  0  0  0  0  0  0
    5.9209  -12.1203   27.2599 C   0  0  0  0  0  0  0  0  0  0  0  0
    6.8325  -11.1110   27.5100 C   0  0  0  0  0  0  0  0  0  0  0  0
    7.8016  -10.8528   26.5780 C   0  0  0  0  0  0  0  0  0  0  0  0
    7.8568  -11.5980   25.4072 C   0  0  0  0  0  0  0  0  0  0  0  0
    8.1671  -15.4456   24.8308 C   0  0  0  0  0  0  0  0  0  0  0  0
    8.9715  -15.1776   25.7993 O   0  0  0  0  0  0  0  0  0  0  0  0
    6.7863  -21.3485   21.4364 N   0  0  0  0  0  0  0  0  0  0  0  0
    6.5396  -21.6505   22.8080 C   0  0  0  0  0  0  0  0  0  0  0  0
    5.7590  -22.6027   23.1530 N   0  0  0  0  0  0  0  0  0  0  0  0
    7.1809  -20.8697   23.8067 N   0  0  0  0  0  0  0  0  0  0  0  0
    6.9951  -21.0959   25.2200 C   0  0  0  0  0  0  0  0  0  0  0  0
    7.7124  -19.9826   25.9928 C   0  0  0  0  0  0  0  0  0  0  0  0
    6.8428  -18.7612   26.0261 C   0  0  0  0  0  0  0  0  0  0  0  0
    7.6608  -17.5236   26.1724 C   0  0  2  0  0  0  0  0  0  0  0  0
    7.5199  -16.6958   24.9422 N   0  0  0  0  0  0  0  0  0  0  0  0
    9.0798  -17.8144   26.4195 C   0  0  0  0  0  0  0  0  0  0  0  0
    9.8319  -18.1017   25.4419 O   0  0  0  0  0  0  0  0  0  0  0  0
    9.6610  -17.7930   27.6676 O   0  0  0  0  0  0  0  0  0  0  0  0
  2  1  1  0
  3  2  1  0
  3  5  1  0
  3  4  1  1
  5  6  2  0
  7  5  1  0
  7  8  1  0
  8  9  1  1
 10  9  1  0
 11 10  2  0
 12 11  1  0
 13 14  1  0
 13 12  2  0
 14 15  2  0
 15 10  1  0
 16  8  1  0
 16 17  2  0
 19 21  1  0
 19 18  1  0
 20 19  2  0
 22 23  1  0
 22 21  1  0
 23 24  1  0
 25 24  1  6
 25 26  1  0
 25 27  1  0
 26 16  1  0
 27 29  1  0
 28 27  2  0
M  END
$$$$
