SFR.pdb
     RDKit          3D

 29 29  0  0  1  0  0  0  0  0999 V2000
    7.4071  -20.4425   22.6579 O   0  0  0  0  0  0  0  0  0  0  0  0
    6.2277  -20.6178   23.3727 C   0  0  0  0  0  0  0  0  0  0  0  0
    5.2854  -19.5229   22.9882 C   0  0  2  0  0  0  0  0  0  0  0  0
    4.8038  -19.7001   21.6317 N   0  0  0  0  0  0  0  0  0  0  0  0
    5.8849  -18.1605   23.1544 C   0  0  0  0  0  0  0  0  0  0  0  0
    6.1511  -17.4266   22.1714 O   0  0  0  0  0  0  0  0  0  0  0  0
    6.1627  -17.6803   24.4617 N   0  0  0  0  0  0  0  0  0  0  0  0
    6.8327  -16.3833   24.6170 C   0  0  1  0  0  0  0  0  0  0  0  0
    6.3621  -15.7455   25.8652 C   0  0  0  0  0  0  0  0  0  0  0  0
    6.8689  -14.4418   26.2154 C   0  0  0  0  0  0  0  0  0  0  0  0
    6.2281  -13.3001   25.7862 C   0  0  0  0  0  0  0  0  0  0  0  0
    6.6953  -12.0314   26.1088 C   0  0  0  0  0  0  0  0  0  0  0  0
    7.8328  -11.8803   26.8805 C   0  0  0  0  0  0  0  0  0  0  0  0
    8.4858  -13.0013   27.3181 C   0  0  0  0  0  0  0  0  0  0  0  0
    8.0042  -14.2609   26.9857 C   0  0  0  0  0  0  0  0  0  0  0  0
    8.2585  -16.4895   24.3662 C   0  0  0  0  0  0  0  0  0  0  0  0
    8.8742  -17.4831   24.9052 O   0  0  0  0  0  0  0  0  0  0  0  0
    8.0825  -14.7118   18.7587 N   0  0  0  0  0  0  0  0  0  0  0  0
    8.6583  -13.4398   19.0486 C   0  0  0  0  0  0  0  0  0  0  0  0
    8.0214  -12.3525   18.8314 N   0  0  0  0  0  0  0  0  0  0  0  0
    9.9702  -13.3902   19.5914 N   0  0  0  0  0  0  0  0  0  0  0  0
   10.7841  -14.5661   19.7873 C   0  0  0  0  0  0  0  0  0  0  0  0
   10.1870  -15.3894   20.9348 C   0  0  0  0  0  0  0  0  0  0  0  0
   11.0003  -15.1739   22.1763 C   0  0  0  0  0  0  0  0  0  0  0  0
   10.4973  -16.0144   23.3001 C   0  0  2  0  0  0  0  0  0  0  0  0
    9.0847  -15.6441   23.5936 N   0  0  0  0  0  0  0  0  0  0  0  0
   11.3132  -15.8752   24.5143 C   0  0  0  0  0  0  0  0  0  0  0  0
   12.5526  -16.1295   24.4594 O   0  0  0  0  0  0  0  0  0  0  0  0
   10.8123  -15.4761   25.7333 O   0  0  0  0  0  0  0  0  0  0  0  0
  2  1  1  0
  3  2  1  0
  3  5  1  0
  3  4  1  6
  5  6  2  0
  7  5  1  0
  7  8  1  0
  8  9  1  1
 10  9  1  0
 11 10  2  0
 12 11  1  0
 13 14  1  0
 13 12  2  0
 14 15  2  0
 15 10  1  0
 16  8  1  0
 16 17  2  0
 19 21  1  0
 19 18  1  0
 20 19  2  0
 22 23  1  0
 22 21  1  0
 23 24  1  0
 25 24  1  6
 25 26  1  0
 25 27  1  0
 26 16  1  0
 27 29  1  0
 28 27  2  0
M  END
$$$$
