SFR.pdb
     RDKit          3D

 29 29  0  0  1  0  0  0  0  0999 V2000
    8.5177  -15.8396   19.4997 O   0  0  0  0  0  0  0  0  0  0  0  0
    7.3089  -15.1826   19.6986 C   0  0  0  0  0  0  0  0  0  0  0  0
    7.5830  -13.9303   20.4677 C   0  0  2  0  0  0  0  0  0  0  0  0
    8.3661  -12.9955   19.6826 N   0  0  0  0  0  0  0  0  0  0  0  0
    8.2510  -14.1945   21.7818 C   0  0  0  0  0  0  0  0  0  0  0  0
    9.4654  -13.9409   21.9735 O   0  0  0  0  0  0  0  0  0  0  0  0
    7.4918  -14.7491   22.8462 N   0  0  0  0  0  0  0  0  0  0  0  0
    8.1701  -15.0924   24.1021 C   0  0  1  0  0  0  0  0  0  0  0  0
    7.2368  -14.8739   25.2278 C   0  0  0  0  0  0  0  0  0  0  0  0
    7.0700  -13.5383   25.7453 C   0  0  0  0  0  0  0  0  0  0  0  0
    5.8436  -12.9128   25.6937 C   0  0  0  0  0  0  0  0  0  0  0  0
    5.6552  -11.6261   26.1846 C   0  0  0  0  0  0  0  0  0  0  0  0
    6.7102  -10.9302   26.7459 C   0  0  0  0  0  0  0  0  0  0  0  0
    7.9382  -11.5326   26.8076 C   0  0  0  0  0  0  0  0  0  0  0  0
    8.1075  -12.8189   26.3119 C   0  0  0  0  0  0  0  0  0  0  0  0
    8.8732  -16.3579   23.9963 C   0  0  0  0  0  0  0  0  0  0  0  0
    8.3868  -17.2307   23.1848 O   0  0  0  0  0  0  0  0  0  0  0  0
   11.4827  -15.4995   18.5789 N   0  0  0  0  0  0  0  0  0  0  0  0
   12.3517  -15.0851   19.6309 C   0  0  0  0  0  0  0  0  0  0  0  0
   13.2320  -14.1752   19.4515 N   0  0  0  0  0  0  0  0  0  0  0  0
   12.2283  -15.7033   20.9040 N   0  0  0  0  0  0  0  0  0  0  0  0
   12.2826  -17.1335   21.0911 C   0  0  0  0  0  0  0  0  0  0  0  0
   12.2388  -17.4329   22.5942 C   0  0  0  0  0  0  0  0  0  0  0  0
   10.9776  -18.1779   22.9158 C   0  0  0  0  0  0  0  0  0  0  0  0
   10.6634  -18.0984   24.3709 C   0  0  2  0  0  0  0  0  0  0  0  0
   10.0439  -16.7764   24.6661 N   0  0  0  0  0  0  0  0  0  0  0  0
   11.8515  -18.2930   25.2134 C   0  0  0  0  0  0  0  0  0  0  0  0
   12.2405  -17.3487   25.9623 O   0  0  0  0  0  0  0  0  0  0  0  0
   12.5854  -19.4577   25.2471 O   0  0  0  0  0  0  0  0  0  0  0  0
  2  1  1  0
  3  2  1  0
  3  5  1  0
  3  4  1  6
  5  6  2  0
  7  5  1  0
  7  8  1  0
  8  9  1  1
 10  9  1  0
 11 10  2  0
 12 11  1  0
 13 14  1  0
 13 12  2  0
 14 15  2  0
 15 10  1  0
 16  8  1  0
 16 17  2  0
 19 21  1  0
 19 18  1  0
 20 19  2  0
 22 23  1  0
 22 21  1  0
 23 24  1  0
 25 24  1  6
 25 26  1  0
 25 27  1  0
 26 16  1  0
 27 29  1  0
 28 27  2  0
M  END
$$$$
