SFR.pdb
     RDKit          3D

 29 29  0  0  1  0  0  0  0  0999 V2000
    8.8210  -18.5354   20.5396 O   0  0  0  0  0  0  0  0  0  0  0  0
    7.8380  -17.8479   19.8371 C   0  0  0  0  0  0  0  0  0  0  0  0
    8.3286  -16.4568   19.5945 C   0  0  2  0  0  0  0  0  0  0  0  0
    9.4451  -16.4502   18.6688 N   0  0  0  0  0  0  0  0  0  0  0  0
    8.6969  -15.7457   20.8601 C   0  0  0  0  0  0  0  0  0  0  0  0
    9.8924  -15.5496   21.1891 O   0  0  0  0  0  0  0  0  0  0  0  0
    7.6660  -15.2778   21.7175 N   0  0  0  0  0  0  0  0  0  0  0  0
    8.0289  -14.6839   23.0101 C   0  0  1  0  0  0  0  0  0  0  0  0
    6.9489  -13.7697   23.4391 C   0  0  0  0  0  0  0  0  0  0  0  0
    7.0105  -13.1890   24.7576 C   0  0  0  0  0  0  0  0  0  0  0  0
    7.8489  -12.1275   25.0196 C   0  0  0  0  0  0  0  0  0  0  0  0
    7.9281  -11.5494   26.2811 C   0  0  0  0  0  0  0  0  0  0  0  0
    7.1557  -12.0323   27.3215 C   0  0  0  0  0  0  0  0  0  0  0  0
    6.3153  -13.0866   27.0838 C   0  0  0  0  0  0  0  0  0  0  0  0
    6.2494  -13.6516   25.8167 C   0  0  0  0  0  0  0  0  0  0  0  0
    8.5205  -15.6881   23.9358 C   0  0  0  0  0  0  0  0  0  0  0  0
    7.8387  -16.7754   24.0347 O   0  0  0  0  0  0  0  0  0  0  0  0
   15.9379  -20.0087   24.3805 N   0  0  0  0  0  0  0  0  0  0  0  0
   14.9876  -20.7341   25.1577 C   0  0  0  0  0  0  0  0  0  0  0  0
   15.1892  -21.9509   25.4951 N   0  0  0  0  0  0  0  0  0  0  0  0
   13.7924  -20.0809   25.5616 N   0  0  0  0  0  0  0  0  0  0  0  0
   13.4484  -18.7432   25.1425 C   0  0  0  0  0  0  0  0  0  0  0  0
   12.0702  -18.3900   25.7142 C   0  0  0  0  0  0  0  0  0  0  0  0
   11.5128  -17.2106   24.9743 C   0  0  0  0  0  0  0  0  0  0  0  0
   10.1484  -16.8647   25.4654 C   0  0  2  0  0  0  0  0  0  0  0  0
    9.6682  -15.6454   24.7575 N   0  0  0  0  0  0  0  0  0  0  0  0
   10.1133  -16.6458   26.9181 C   0  0  0  0  0  0  0  0  0  0  0  0
    9.9764  -15.4681   27.3632 O   0  0  0  0  0  0  0  0  0  0  0  0
   10.2187  -17.6553   27.8486 O   0  0  0  0  0  0  0  0  0  0  0  0
  2  1  1  0
  3  2  1  0
  3  5  1  0
  3  4  1  6
  5  6  2  0
  7  5  1  0
  7  8  1  0
  8  9  1  1
 10  9  1  0
 11 10  2  0
 12 11  1  0
 13 14  1  0
 13 12  2  0
 14 15  2  0
 15 10  1  0
 16  8  1  0
 16 17  2  0
 19 21  1  0
 19 18  1  0
 20 19  2  0
 22 23  1  0
 22 21  1  0
 23 24  1  0
 25 24  1  6
 25 26  1  0
 25 27  1  0
 26 16  1  0
 27 29  1  0
 28 27  2  0
M  END
$$$$
