SFR.pdb
     RDKit          3D

 29 29  0  0  1  0  0  0  0  0999 V2000
    7.6396  -18.2706   20.9188 O   0  0  0  0  0  0  0  0  0  0  0  0
    8.7203  -17.9792   20.0944 C   0  0  0  0  0  0  0  0  0  0  0  0
    8.8770  -16.4934   20.0433 C   0  0  2  0  0  0  0  0  0  0  0  0
    9.9687  -16.1128   19.1676 N   0  0  0  0  0  0  0  0  0  0  0  0
    9.0608  -15.8854   21.3996 C   0  0  0  0  0  0  0  0  0  0  0  0
   10.1640  -15.9154   21.9980 O   0  0  0  0  0  0  0  0  0  0  0  0
    7.9565  -15.2552   22.0321 N   0  0  0  0  0  0  0  0  0  0  0  0
    8.1308  -14.6941   23.3776 C   0  0  1  0  0  0  0  0  0  0  0  0
    7.0608  -13.7050   23.6282 C   0  0  0  0  0  0  0  0  0  0  0  0
    6.9704  -13.0912   24.9299 C   0  0  0  0  0  0  0  0  0  0  0  0
    6.0111  -13.4955   25.8324 C   0  0  0  0  0  0  0  0  0  0  0  0
    5.9014  -12.9207   27.0931 C   0  0  0  0  0  0  0  0  0  0  0  0
    6.7656  -11.9127   27.4798 C   0  0  0  0  0  0  0  0  0  0  0  0
    7.7269  -11.4952   26.5988 C   0  0  0  0  0  0  0  0  0  0  0  0
    7.8213  -12.0812   25.3432 C   0  0  0  0  0  0  0  0  0  0  0  0
    8.3812  -15.7350   24.3578 C   0  0  0  0  0  0  0  0  0  0  0  0
    7.5358  -16.7042   24.4100 O   0  0  0  0  0  0  0  0  0  0  0  0
   14.1028  -20.4212   23.2571 N   0  0  0  0  0  0  0  0  0  0  0  0
   12.7428  -20.5540   23.6649 C   0  0  0  0  0  0  0  0  0  0  0  0
   12.0666  -21.6076   23.4046 N   0  0  0  0  0  0  0  0  0  0  0  0
   12.1344  -19.4855   24.3766 N   0  0  0  0  0  0  0  0  0  0  0  0
   12.8439  -18.2849   24.7484 C   0  0  0  0  0  0  0  0  0  0  0  0
   11.9333  -17.4347   25.6422 C   0  0  0  0  0  0  0  0  0  0  0  0
   10.5398  -17.9875   25.6006 C   0  0  0  0  0  0  0  0  0  0  0  0
    9.5621  -17.0230   26.1802 C   0  0  2  0  0  0  0  0  0  0  0  0
    9.4462  -15.8428   25.2790 N   0  0  0  0  0  0  0  0  0  0  0  0
    9.9388  -16.5851   27.5314 C   0  0  0  0  0  0  0  0  0  0  0  0
   10.2431  -15.3713   27.7261 O   0  0  0  0  0  0  0  0  0  0  0  0
    9.9822  -17.4216   28.6244 O   0  0  0  0  0  0  0  0  0  0  0  0
  2  1  1  0
  3  2  1  0
  3  5  1  0
  3  4  1  6
  5  6  2  0
  7  5  1  0
  7  8  1  0
  8  9  1  1
 10  9  1  0
 11 10  2  0
 12 11  1  0
 13 14  1  0
 13 12  2  0
 14 15  2  0
 15 10  1  0
 16  8  1  0
 16 17  2  0
 19 21  1  0
 19 18  1  0
 20 19  2  0
 22 23  1  0
 22 21  1  0
 23 24  1  0
 25 24  1  6
 25 26  1  0
 25 27  1  0
 26 16  1  0
 27 29  1  0
 28 27  2  0
M  END
$$$$
