SFR.pdb
     RDKit          3D

 29 29  0  0  1  0  0  0  0  0999 V2000
    9.0425  -19.4085   20.3865 O   0  0  0  0  0  0  0  0  0  0  0  0
    9.1311  -18.5977   21.5122 C   0  0  0  0  0  0  0  0  0  0  0  0
    9.5254  -17.2265   21.0662 C   0  0  2  0  0  0  0  0  0  0  0  0
   10.7973  -17.2489   20.3697 N   0  0  0  0  0  0  0  0  0  0  0  0
    9.5663  -16.2421   22.1942 C   0  0  0  0  0  0  0  0  0  0  0  0
   10.6062  -16.0478   22.8700 O   0  0  0  0  0  0  0  0  0  0  0  0
    8.3955  -15.5042   22.5130 N   0  0  0  0  0  0  0  0  0  0  0  0
    8.3678  -14.7097   23.7472 C   0  0  1  0  0  0  0  0  0  0  0  0
    7.2446  -13.7508   23.6765 C   0  0  0  0  0  0  0  0  0  0  0  0
    6.9809  -12.9017   24.8118 C   0  0  0  0  0  0  0  0  0  0  0  0
    7.7981  -11.8284   25.0915 C   0  0  0  0  0  0  0  0  0  0  0  0
    7.5672  -10.9946   26.1793 C   0  0  0  0  0  0  0  0  0  0  0  0
    6.4948  -11.2245   27.0216 C   0  0  0  0  0  0  0  0  0  0  0  0
    5.6694  -12.2856   26.7625 C   0  0  0  0  0  0  0  0  0  0  0  0
    5.9159  -13.1082   25.6709 C   0  0  0  0  0  0  0  0  0  0  0  0
    8.5132  -15.5497   24.9220 C   0  0  0  0  0  0  0  0  0  0  0  0
    8.9462  -14.9847   25.9945 O   0  0  0  0  0  0  0  0  0  0  0  0
    5.5989  -22.2391   26.9358 N   0  0  0  0  0  0  0  0  0  0  0  0
    6.3047  -22.5171   28.1433 C   0  0  0  0  0  0  0  0  0  0  0  0
    5.8043  -23.2625   29.0537 N   0  0  0  0  0  0  0  0  0  0  0  0
    7.5931  -21.9481   28.3293 N   0  0  0  0  0  0  0  0  0  0  0  0
    8.2028  -21.0552   27.3731 C   0  0  0  0  0  0  0  0  0  0  0  0
    7.6810  -19.6359   27.6264 C   0  0  0  0  0  0  0  0  0  0  0  0
    7.5891  -18.9003   26.3227 C   0  0  0  0  0  0  0  0  0  0  0  0
    8.2898  -17.5866   26.3970 C   0  0  2  0  0  0  0  0  0  0  0  0
    8.2358  -16.9273   25.0625 N   0  0  0  0  0  0  0  0  0  0  0  0
    9.6869  -17.7192   26.8329 C   0  0  0  0  0  0  0  0  0  0  0  0
    9.9332  -18.0126   28.0400 O   0  0  0  0  0  0  0  0  0  0  0  0
   10.7698  -17.5451   26.0004 O   0  0  0  0  0  0  0  0  0  0  0  0
  2  1  1  0
  3  2  1  0
  3  5  1  0
  3  4  1  1
  5  6  2  0
  7  5  1  0
  7  8  1  0
  8  9  1  1
 10  9  1  0
 11 10  2  0
 12 11  1  0
 13 14  1  0
 13 12  2  0
 14 15  2  0
 15 10  1  0
 16  8  1  0
 16 17  2  0
 19 21  1  0
 19 18  1  0
 20 19  2  0
 22 23  1  0
 22 21  1  0
 23 24  1  0
 25 24  1  6
 25 26  1  0
 25 27  1  0
 26 16  1  0
 27 29  1  0
 28 27  2  0
M  END
$$$$
