SFR.pdb
     RDKit          3D

 29 29  0  0  1  0  0  0  0  0999 V2000
    6.2679  -22.3482   25.6709 O   0  0  0  0  0  0  0  0  0  0  0  0
    6.7569  -21.3153   24.8794 C   0  0  0  0  0  0  0  0  0  0  0  0
    5.6555  -20.3251   24.6769 C   0  0  2  0  0  0  0  0  0  0  0  0
    4.7879  -20.7241   23.5854 N   0  0  0  0  0  0  0  0  0  0  0  0
    6.1637  -18.9336   24.4564 C   0  0  0  0  0  0  0  0  0  0  0  0
    6.1678  -18.3991   23.3205 O   0  0  0  0  0  0  0  0  0  0  0  0
    6.6574  -18.1926   25.5627 N   0  0  0  0  0  0  0  0  0  0  0  0
    7.1805  -16.8394   25.3378 C   0  0  1  0  0  0  0  0  0  0  0  0
    6.6359  -15.9353   26.3732 C   0  0  0  0  0  0  0  0  0  0  0  0
    6.9033  -14.5217   26.2745 C   0  0  0  0  0  0  0  0  0  0  0  0
    8.0946  -13.9986   26.7277 C   0  0  0  0  0  0  0  0  0  0  0  0
    8.3778  -12.6403   26.6451 C   0  0  0  0  0  0  0  0  0  0  0  0
    7.4569  -11.7658   26.0978 C   0  0  0  0  0  0  0  0  0  0  0  0
    6.2662  -12.2639   25.6410 C   0  0  0  0  0  0  0  0  0  0  0  0
    6.0006  -13.6242   25.7318 C   0  0  0  0  0  0  0  0  0  0  0  0
    8.6107  -16.8580   25.0904 C   0  0  0  0  0  0  0  0  0  0  0  0
    9.3502  -16.1660   25.8848 O   0  0  0  0  0  0  0  0  0  0  0  0
    7.3891  -13.3764   18.2237 N   0  0  0  0  0  0  0  0  0  0  0  0
    8.5663  -12.7823   18.7666 C   0  0  0  0  0  0  0  0  0  0  0  0
    8.8503  -11.5526   18.5612 N   0  0  0  0  0  0  0  0  0  0  0  0
    9.4371  -13.5836   19.5527 N   0  0  0  0  0  0  0  0  0  0  0  0
    9.0463  -14.8583   20.1056 C   0  0  0  0  0  0  0  0  0  0  0  0
    9.2223  -14.8067   21.6279 C   0  0  0  0  0  0  0  0  0  0  0  0
    8.7402  -16.0939   22.2277 C   0  0  0  0  0  0  0  0  0  0  0  0
    9.8547  -16.8264   22.8937 C   0  0  2  0  0  0  0  0  0  0  0  0
    9.3241  -17.5464   24.0847 N   0  0  0  0  0  0  0  0  0  0  0  0
   10.9514  -15.9350   23.2959 C   0  0  0  0  0  0  0  0  0  0  0  0
   11.8656  -15.6636   22.4626 O   0  0  0  0  0  0  0  0  0  0  0  0
   11.0541  -15.3599   24.5429 O   0  0  0  0  0  0  0  0  0  0  0  0
  2  1  1  0
  3  2  1  0
  3  5  1  0
  3  4  1  6
  5  6  2  0
  7  5  1  0
  7  8  1  0
  8  9  1  1
 10  9  1  0
 11 10  2  0
 12 11  1  0
 13 14  1  0
 13 12  2  0
 14 15  2  0
 15 10  1  0
 16  8  1  0
 16 17  2  0
 19 21  1  0
 19 18  1  0
 20 19  2  0
 22 23  1  0
 22 21  1  0
 23 24  1  0
 25 24  1  1
 25 26  1  0
 25 27  1  0
 26 16  1  0
 27 29  1  0
 28 27  2  0
M  END
$$$$
