SFR.pdb
     RDKit          3D

 29 29  0  0  1  0  0  0  0  0999 V2000
    7.8452  -15.9102   19.2669 O   0  0  0  0  0  0  0  0  0  0  0  0
    8.2246  -14.6290   18.8834 C   0  0  0  0  0  0  0  0  0  0  0  0
    7.8183  -13.6815   19.9659 C   0  0  2  0  0  0  0  0  0  0  0  0
    8.1225  -12.3109   19.6022 N   0  0  0  0  0  0  0  0  0  0  0  0
    8.4338  -14.0185   21.2889 C   0  0  0  0  0  0  0  0  0  0  0  0
    9.6150  -13.7020   21.5729 O   0  0  0  0  0  0  0  0  0  0  0  0
    7.6620  -14.7174   22.2547 N   0  0  0  0  0  0  0  0  0  0  0  0
    8.2046  -14.8962   23.6070 C   0  0  1  0  0  0  0  0  0  0  0  0
    7.0951  -14.8338   24.5823 C   0  0  0  0  0  0  0  0  0  0  0  0
    6.9682  -13.6665   25.4194 C   0  0  0  0  0  0  0  0  0  0  0  0
    8.0009  -13.2777   26.2444 C   0  0  0  0  0  0  0  0  0  0  0  0
    7.9049  -12.1575   27.0615 C   0  0  0  0  0  0  0  0  0  0  0  0
    6.7527  -11.3928   27.0676 C   0  0  0  0  0  0  0  0  0  0  0  0
    5.7136  -11.7607   26.2555 C   0  0  0  0  0  0  0  0  0  0  0  0
    5.8276  -12.8833   25.4457 C   0  0  0  0  0  0  0  0  0  0  0  0
    9.1380  -16.0066   23.6614 C   0  0  0  0  0  0  0  0  0  0  0  0
    8.6710  -17.1761   23.3950 O   0  0  0  0  0  0  0  0  0  0  0  0
   12.7248  -14.2978   19.4316 N   0  0  0  0  0  0  0  0  0  0  0  0
   13.8483  -15.1753   19.3958 C   0  0  0  0  0  0  0  0  0  0  0  0
   14.9571  -14.8206   18.8668 N   0  0  0  0  0  0  0  0  0  0  0  0
   13.7227  -16.4714   19.9639 N   0  0  0  0  0  0  0  0  0  0  0  0
   13.8746  -16.7279   21.3762 C   0  0  0  0  0  0  0  0  0  0  0  0
   12.4822  -16.8919   21.9968 C   0  0  0  0  0  0  0  0  0  0  0  0
   12.6188  -17.1012   23.4755 C   0  0  0  0  0  0  0  0  0  0  0  0
   11.2841  -17.2542   24.1216 C   0  0  2  0  0  0  0  0  0  0  0  0
   10.5169  -15.9871   23.9654 N   0  0  0  0  0  0  0  0  0  0  0  0
   11.3862  -17.6046   25.5451 C   0  0  0  0  0  0  0  0  0  0  0  0
   10.9699  -16.7844   26.4156 O   0  0  0  0  0  0  0  0  0  0  0  0
   11.9125  -18.7902   26.0072 O   0  0  0  0  0  0  0  0  0  0  0  0
  2  1  1  0
  3  2  1  0
  3  5  1  0
  3  4  1  6
  5  6  2  0
  7  5  1  0
  7  8  1  0
  8  9  1  1
 10  9  1  0
 11 10  2  0
 12 11  1  0
 13 14  1  0
 13 12  2  0
 14 15  2  0
 15 10  1  0
 16  8  1  0
 16 17  2  0
 19 21  1  0
 19 18  1  0
 20 19  2  0
 22 23  1  0
 22 21  1  0
 23 24  1  0
 25 24  1  1
 25 26  1  0
 25 27  1  0
 26 16  1  0
 27 29  1  0
 28 27  2  0
M  END
$$$$
