SFR.pdb
     RDKit          3D

 29 29  0  0  1  0  0  0  0  0999 V2000
    7.8094  -18.3198   21.0179 O   0  0  0  0  0  0  0  0  0  0  0  0
    8.9307  -18.0407   20.2450 C   0  0  0  0  0  0  0  0  0  0  0  0
    9.1317  -16.5594   20.2376 C   0  0  2  0  0  0  0  0  0  0  0  0
   10.3244  -16.1974   19.4961 N   0  0  0  0  0  0  0  0  0  0  0  0
    9.1785  -15.9765   21.6164 C   0  0  0  0  0  0  0  0  0  0  0  0
   10.2165  -16.0179   22.3213 O   0  0  0  0  0  0  0  0  0  0  0  0
    8.0157  -15.3574   22.1471 N   0  0  0  0  0  0  0  0  0  0  0  0
    8.0583  -14.8092   23.5083 C   0  0  1  0  0  0  0  0  0  0  0  0
    7.1388  -13.6543   23.5904 C   0  0  0  0  0  0  0  0  0  0  0  0
    6.9839  -12.9754   24.8532 C   0  0  0  0  0  0  0  0  0  0  0  0
    7.8421  -11.9602   25.2151 C   0  0  0  0  0  0  0  0  0  0  0  0
    7.7158  -11.2898   26.4260 C   0  0  0  0  0  0  0  0  0  0  0  0
    6.7102  -11.6299   27.3123 C   0  0  0  0  0  0  0  0  0  0  0  0
    5.8458  -12.6360   26.9731 C   0  0  0  0  0  0  0  0  0  0  0  0
    5.9875  -13.2948   25.7587 C   0  0  0  0  0  0  0  0  0  0  0  0
    7.9717  -15.8599   24.5061 C   0  0  0  0  0  0  0  0  0  0  0  0
    7.2755  -16.8989   24.2017 O   0  0  0  0  0  0  0  0  0  0  0  0
    7.1921  -22.2479   29.2846 N   0  0  0  0  0  0  0  0  0  0  0  0
    6.9374  -21.8427   27.9413 C   0  0  0  0  0  0  0  0  0  0  0  0
    7.0763  -22.6521   26.9612 N   0  0  0  0  0  0  0  0  0  0  0  0
    6.5199  -20.5070   27.6969 N   0  0  0  0  0  0  0  0  0  0  0  0
    7.4426  -19.4017   27.5966 C   0  0  0  0  0  0  0  0  0  0  0  0
    8.3169  -19.6047   26.3535 C   0  0  0  0  0  0  0  0  0  0  0  0
    8.3823  -18.3231   25.5774 C   0  0  0  0  0  0  0  0  0  0  0  0
    8.9135  -17.2128   26.4184 C   0  0  2  0  0  0  0  0  0  0  0  0
    8.5596  -15.9100   25.7891 N   0  0  0  0  0  0  0  0  0  0  0  0
   10.3683  -17.2979   26.6073 C   0  0  0  0  0  0  0  0  0  0  0  0
   10.8451  -17.2331   27.7787 O   0  0  0  0  0  0  0  0  0  0  0  0
   11.2680  -17.4490   25.5758 O   0  0  0  0  0  0  0  0  0  0  0  0
  2  1  1  0
  3  2  1  0
  3  5  1  0
  3  4  1  1
  5  6  2  0
  7  5  1  0
  7  8  1  0
  8  9  1  6
 10  9  1  0
 11 10  2  0
 12 11  1  0
 13 14  1  0
 13 12  2  0
 14 15  2  0
 15 10  1  0
 16  8  1  0
 16 17  2  0
 19 21  1  0
 19 18  1  0
 20 19  2  0
 22 23  1  0
 22 21  1  0
 23 24  1  0
 25 24  1  6
 25 26  1  0
 25 27  1  0
 26 16  1  0
 27 29  1  0
 28 27  2  0
M  END
$$$$
