SFR.pdb
     RDKit          3D

 29 29  0  0  1  0  0  0  0  0999 V2000
    8.3962  -18.6442   21.2310 O   0  0  0  0  0  0  0  0  0  0  0  0
    7.7932  -17.9201   20.2089 C   0  0  0  0  0  0  0  0  0  0  0  0
    8.5171  -16.6192   20.0729 C   0  0  2  0  0  0  0  0  0  0  0  0
    9.7460  -16.7810   19.3200 N   0  0  0  0  0  0  0  0  0  0  0  0
    8.7972  -15.9736   21.3949 C   0  0  0  0  0  0  0  0  0  0  0  0
    9.9127  -16.0752   21.9617 O   0  0  0  0  0  0  0  0  0  0  0  0
    7.7728  -15.2230   22.0307 N   0  0  0  0  0  0  0  0  0  0  0  0
    8.0281  -14.6505   23.3582 C   0  0  1  0  0  0  0  0  0  0  0  0
    7.0921  -13.5288   23.5861 C   0  0  0  0  0  0  0  0  0  0  0  0
    7.0910  -12.8722   24.8699 C   0  0  0  0  0  0  0  0  0  0  0  0
    6.0574  -13.0693   25.7591 C   0  0  0  0  0  0  0  0  0  0  0  0
    6.0310  -12.4486   27.0025 C   0  0  0  0  0  0  0  0  0  0  0  0
    7.0573  -11.6043   27.3846 C   0  0  0  0  0  0  0  0  0  0  0  0
    8.0949  -11.3938   26.5165 C   0  0  0  0  0  0  0  0  0  0  0  0
    8.1042  -12.0226   25.2782 C   0  0  0  0  0  0  0  0  0  0  0  0
    8.1559  -15.6865   24.3669 C   0  0  0  0  0  0  0  0  0  0  0  0
    7.4029  -16.7226   24.2391 O   0  0  0  0  0  0  0  0  0  0  0  0
   12.8501  -21.2108   26.6478 N   0  0  0  0  0  0  0  0  0  0  0  0
   11.9978  -22.0449   25.8659 C   0  0  0  0  0  0  0  0  0  0  0  0
   12.0585  -23.3200   25.9405 N   0  0  0  0  0  0  0  0  0  0  0  0
   11.0629  -21.4355   24.9868 N   0  0  0  0  0  0  0  0  0  0  0  0
   11.1416  -20.0484   24.5955 C   0  0  0  0  0  0  0  0  0  0  0  0
   10.4766  -19.1946   25.6817 C   0  0  0  0  0  0  0  0  0  0  0  0
   10.0770  -17.8719   25.0986 C   0  0  0  0  0  0  0  0  0  0  0  0
    9.3956  -17.0209   26.1153 C   0  0  2  0  0  0  0  0  0  0  0  0
    9.0111  -15.7248   25.4900 N   0  0  0  0  0  0  0  0  0  0  0  0
   10.2348  -16.7765   27.2966 C   0  0  0  0  0  0  0  0  0  0  0  0
   10.6493  -17.7618   27.9757 O   0  0  0  0  0  0  0  0  0  0  0  0
   10.6117  -15.5228   27.7235 O   0  0  0  0  0  0  0  0  0  0  0  0
  2  1  1  0
  3  2  1  0
  3  5  1  0
  3  4  1  1
  5  6  2  0
  7  5  1  0
  7  8  1  0
  8  9  1  1
 10  9  1  0
 11 10  2  0
 12 11  1  0
 13 14  1  0
 13 12  2  0
 14 15  2  0
 15 10  1  0
 16  8  1  0
 16 17  2  0
 19 21  1  0
 19 18  1  0
 20 19  2  0
 22 23  1  0
 22 21  1  0
 23 24  1  0
 25 24  1  6
 25 26  1  0
 25 27  1  0
 26 16  1  0
 27 29  1  0
 28 27  2  0
M  END
$$$$
