SFR.pdb
     RDKit          3D

 29 29  0  0  1  0  0  0  0  0999 V2000
    7.9232  -19.8479   22.0031 O   0  0  0  0  0  0  0  0  0  0  0  0
    6.5381  -19.8174   21.8890 C   0  0  0  0  0  0  0  0  0  0  0  0
    6.1428  -18.4603   21.4022 C   0  0  2  0  0  0  0  0  0  0  0  0
    6.3264  -18.3454   19.9681 N   0  0  0  0  0  0  0  0  0  0  0  0
    6.8695  -17.3588   22.1104 C   0  0  0  0  0  0  0  0  0  0  0  0
    7.6735  -16.6014   21.5139 O   0  0  0  0  0  0  0  0  0  0  0  0
    6.6459  -17.1615   23.4989 N   0  0  0  0  0  0  0  0  0  0  0  0
    7.2786  -16.0177   24.1672 C   0  0  1  0  0  0  0  0  0  0  0  0
    6.3557  -15.4910   25.1953 C   0  0  0  0  0  0  0  0  0  0  0  0
    6.6811  -14.2501   25.8537 C   0  0  0  0  0  0  0  0  0  0  0  0
    6.3323  -13.0426   25.2895 C   0  0  0  0  0  0  0  0  0  0  0  0
    6.6341  -11.8321   25.9023 C   0  0  0  0  0  0  0  0  0  0  0  0
    7.3027  -11.8084   27.1126 C   0  0  0  0  0  0  0  0  0  0  0  0
    7.6592  -12.9968   27.6916 C   0  0  0  0  0  0  0  0  0  0  0  0
    7.3492  -14.1966   27.0645 C   0  0  0  0  0  0  0  0  0  0  0  0
    8.6541  -16.3086   24.5280 C   0  0  0  0  0  0  0  0  0  0  0  0
    9.3046  -15.3846   25.1444 O   0  0  0  0  0  0  0  0  0  0  0  0
   17.5716  -15.8822   23.6067 N   0  0  0  0  0  0  0  0  0  0  0  0
   16.2179  -15.8585   23.1591 C   0  0  0  0  0  0  0  0  0  0  0  0
   15.9074  -16.1471   21.9527 N   0  0  0  0  0  0  0  0  0  0  0  0
   15.1979  -15.5049   24.0826 N   0  0  0  0  0  0  0  0  0  0  0  0
   13.8031  -15.4257   23.7198 C   0  0  0  0  0  0  0  0  0  0  0  0
   13.0460  -16.5501   24.4365 C   0  0  0  0  0  0  0  0  0  0  0  0
   11.5870  -16.4588   24.1015 C   0  0  0  0  0  0  0  0  0  0  0  0
   10.8246  -17.5853   24.7113 C   0  0  2  0  0  0  0  0  0  0  0  0
    9.3962  -17.4884   24.3004 N   0  0  0  0  0  0  0  0  0  0  0  0
   10.9230  -17.6013   26.1774 C   0  0  0  0  0  0  0  0  0  0  0  0
   11.7265  -18.4060   26.7349 O   0  0  0  0  0  0  0  0  0  0  0  0
   10.1876  -16.7818   27.0044 O   0  0  0  0  0  0  0  0  0  0  0  0
  2  1  1  0
  3  2  1  0
  3  5  1  0
  3  4  1  6
  5  6  2  0
  7  5  1  0
  7  8  1  0
  8  9  1  1
 10  9  1  0
 11 10  2  0
 12 11  1  0
 13 14  1  0
 13 12  2  0
 14 15  2  0
 15 10  1  0
 16  8  1  0
 16 17  2  0
 19 21  1  0
 19 18  1  0
 20 19  2  0
 22 23  1  0
 22 21  1  0
 23 24  1  0
 25 24  1  1
 25 26  1  0
 25 27  1  0
 26 16  1  0
 27 29  1  0
 28 27  2  0
M  END
$$$$
