SFR.pdb
     RDKit          3D

 29 29  0  0  1  0  0  0  0  0999 V2000
    9.6242  -18.7605   21.0015 O   0  0  0  0  0  0  0  0  0  0  0  0
    8.6884  -18.0105   20.2985 C   0  0  0  0  0  0  0  0  0  0  0  0
    9.2056  -16.6126   20.1845 C   0  0  2  0  0  0  0  0  0  0  0  0
   10.4748  -16.5803   19.4836 N   0  0  0  0  0  0  0  0  0  0  0  0
    9.3266  -15.9318   21.5130 C   0  0  0  0  0  0  0  0  0  0  0  0
   10.4289  -15.8146   22.1023 O   0  0  0  0  0  0  0  0  0  0  0  0
    8.1620  -15.4017   22.1289 N   0  0  0  0  0  0  0  0  0  0  0  0
    8.2760  -14.7829   23.4554 C   0  0  1  0  0  0  0  0  0  0  0  0
    7.1214  -13.8841   23.6674 C   0  0  0  0  0  0  0  0  0  0  0  0
    6.9981  -13.1937   24.9273 C   0  0  0  0  0  0  0  0  0  0  0  0
    6.0624  -13.5904   25.8575 C   0  0  0  0  0  0  0  0  0  0  0  0
    5.9220  -12.9425   27.0791 C   0  0  0  0  0  0  0  0  0  0  0  0
    6.7302  -11.8664   27.3970 C   0  0  0  0  0  0  0  0  0  0  0  0
    7.6671  -11.4549   26.4874 C   0  0  0  0  0  0  0  0  0  0  0  0
    7.7930  -12.1145   25.2717 C   0  0  0  0  0  0  0  0  0  0  0  0
    8.6095  -15.7644   24.4715 C   0  0  0  0  0  0  0  0  0  0  0  0
    8.2264  -16.9754   24.2624 O   0  0  0  0  0  0  0  0  0  0  0  0
   14.6796  -16.6937   22.4183 N   0  0  0  0  0  0  0  0  0  0  0  0
   15.0895  -16.3765   23.7468 C   0  0  0  0  0  0  0  0  0  0  0  0
   16.2793  -15.9847   24.0037 N   0  0  0  0  0  0  0  0  0  0  0  0
   14.1468  -16.5016   24.8021 N   0  0  0  0  0  0  0  0  0  0  0  0
   12.7730  -16.8881   24.5862 C   0  0  0  0  0  0  0  0  0  0  0  0
   12.1025  -17.0958   25.9495 C   0  0  0  0  0  0  0  0  0  0  0  0
   10.6966  -17.5756   25.7437 C   0  0  0  0  0  0  0  0  0  0  0  0
    9.7275  -16.7436   26.5125 C   0  0  2  0  0  0  0  0  0  0  0  0
    9.3151  -15.5790   25.6807 N   0  0  0  0  0  0  0  0  0  0  0  0
   10.2805  -16.2744   27.7905 C   0  0  0  0  0  0  0  0  0  0  0  0
   10.4362  -15.0316   27.9783 O   0  0  0  0  0  0  0  0  0  0  0  0
   10.6465  -17.1110   28.8211 O   0  0  0  0  0  0  0  0  0  0  0  0
  2  1  1  0
  3  2  1  0
  3  5  1  0
  3  4  1  1
  5  6  2  0
  7  5  1  0
  7  8  1  0
  8  9  1  1
 10  9  1  0
 11 10  2  0
 12 11  1  0
 13 14  1  0
 13 12  2  0
 14 15  2  0
 15 10  1  0
 16  8  1  0
 16 17  2  0
 19 21  1  0
 19 18  1  0
 20 19  2  0
 22 23  1  0
 22 21  1  0
 23 24  1  0
 25 24  1  6
 25 26  1  0
 25 27  1  0
 26 16  1  0
 27 29  1  0
 28 27  2  0
M  END
$$$$
