SFR.pdb
     RDKit          3D

 29 29  0  0  1  0  0  0  0  0999 V2000
    7.6350  -15.4897   17.4597 O   0  0  0  0  0  0  0  0  0  0  0  0
    8.5576  -15.1047   18.4257 C   0  0  0  0  0  0  0  0  0  0  0  0
    8.0816  -13.8268   19.0382 C   0  0  2  0  0  0  0  0  0  0  0  0
    8.5602  -12.6792   18.2915 N   0  0  0  0  0  0  0  0  0  0  0  0
    8.4590  -13.7030   20.4822 C   0  0  0  0  0  0  0  0  0  0  0  0
    9.6177  -13.3805   20.8416 O   0  0  0  0  0  0  0  0  0  0  0  0
    7.4798  -13.9578   21.4788 N   0  0  0  0  0  0  0  0  0  0  0  0
    7.8585  -13.8527   22.8933 C   0  0  1  0  0  0  0  0  0  0  0  0
    6.8158  -13.0923   23.6148 C   0  0  0  0  0  0  0  0  0  0  0  0
    6.8824  -13.0108   25.0530 C   0  0  0  0  0  0  0  0  0  0  0  0
    5.9775  -13.6912   25.8381 C   0  0  0  0  0  0  0  0  0  0  0  0
    6.0187  -13.6296   27.2260 C   0  0  0  0  0  0  0  0  0  0  0  0
    6.9838  -12.8722   27.8643 C   0  0  0  0  0  0  0  0  0  0  0  0
    7.8934  -12.1876   27.1037 C   0  0  0  0  0  0  0  0  0  0  0  0
    7.8367  -12.2610   25.7179 C   0  0  0  0  0  0  0  0  0  0  0  0
    8.2999  -15.1310   23.4206 C   0  0  0  0  0  0  0  0  0  0  0  0
    7.4936  -16.1261   23.2916 O   0  0  0  0  0  0  0  0  0  0  0  0
   11.1406  -15.3157   19.7322 N   0  0  0  0  0  0  0  0  0  0  0  0
   12.5196  -15.3120   20.0953 C   0  0  0  0  0  0  0  0  0  0  0  0
   13.3168  -14.4005   19.6844 N   0  0  0  0  0  0  0  0  0  0  0  0
   13.0093  -16.3493   20.9335 N   0  0  0  0  0  0  0  0  0  0  0  0
   12.1438  -17.2724   21.6279 C   0  0  0  0  0  0  0  0  0  0  0  0
   11.3445  -16.4962   22.6814 C   0  0  0  0  0  0  0  0  0  0  0  0
   10.8589  -17.4459   23.7356 C   0  0  0  0  0  0  0  0  0  0  0  0
    9.7822  -16.8273   24.5606 C   0  0  2  0  0  0  0  0  0  0  0  0
    9.5164  -15.4486   24.0637 N   0  0  0  0  0  0  0  0  0  0  0  0
   10.1229  -16.7867   25.9895 C   0  0  0  0  0  0  0  0  0  0  0  0
   10.2446  -15.6652   26.5650 O   0  0  0  0  0  0  0  0  0  0  0  0
   10.3207  -17.9088   26.7628 O   0  0  0  0  0  0  0  0  0  0  0  0
  2  1  1  0
  3  2  1  0
  3  5  1  0
  3  4  1  6
  5  6  2  0
  7  5  1  0
  7  8  1  0
  8  9  1  1
 10  9  1  0
 11 10  2  0
 12 11  1  0
 13 14  1  0
 13 12  2  0
 14 15  2  0
 15 10  1  0
 16  8  1  0
 16 17  2  0
 19 21  1  0
 19 18  1  0
 20 19  2  0
 22 23  1  0
 22 21  1  0
 23 24  1  0
 25 24  1  6
 25 26  1  0
 25 27  1  0
 26 16  1  0
 27 29  1  0
 28 27  2  0
M  END
$$$$
