RKA.pdb
     RDKit          3D

 26 25  0  0  1  0  0  0  0  0999 V2000
   28.7116  -21.3419  -11.3979 N   0  0  0  0  0  0  0  0  0  0  0  0
   28.8914  -21.1292   -9.9985 C   0  0  0  0  0  0  0  0  0  0  0  0
   30.0729  -21.0997   -9.5256 N   0  0  0  0  0  0  0  0  0  0  0  0
   27.7861  -20.9510   -9.1371 N   0  0  0  0  0  0  0  0  0  0  0  0
   26.4442  -21.2673   -9.6131 C   0  0  0  0  0  0  0  0  0  0  0  0
   25.8267  -20.1278  -10.3367 C   0  0  0  0  0  0  0  0  0  0  0  0
   24.9775  -20.5296  -11.4689 C   0  0  0  0  0  0  0  0  0  0  0  0
   25.6676  -20.8687  -12.7234 C   0  0  2  0  0  0  0  0  0  0  0  0
   26.5623  -19.8531  -13.2192 N   0  0  0  0  0  0  0  0  0  0  0  0
   24.6777  -21.2527  -13.8009 C   0  0  0  0  0  0  0  0  0  0  0  0
   24.1873  -20.3814  -14.5630 O   0  0  0  0  0  0  0  0  0  0  0  0
   30.2432  -20.9734   -8.5163 N   0  0  0  0  0  0  0  0  0  0  0  0
   24.2691  -22.5891  -13.9921 C   0  0  1  0  0  0  0  0  0  0  0  0
   23.2953  -22.9350  -15.0320 C   0  0  0  0  0  0  0  0  0  0  0  0
   23.5719  -24.2824  -15.5989 C   0  0  0  0  0  0  0  0  0  0  0  0
   24.9609  -24.4262  -16.1456 C   0  0  0  0  0  0  0  0  0  0  0  0
   25.1925  -25.8776  -16.6112 C   0  0  0  0  0  0  0  0  0  0  0  0
   26.6268  -25.9600  -17.1314 N   0  0  0  0  0  0  0  0  0  0  0  0
   26.9294  -27.2987  -17.5753 C   0  0  0  0  0  0  0  0  0  0  0  0
   21.9226  -22.7984  -14.5339 O   0  0  0  0  0  0  0  0  0  0  0  0
   21.6746  -22.8074  -13.3162 C   0  0  0  0  0  0  0  0  0  0  0  0
   19.3217  -23.5099  -13.6827 C   0  0  1  0  0  0  0  0  0  0  0  0
   19.4616  -22.6471  -14.9141 N   0  0  0  0  0  0  0  0  0  0  0  0
   20.8149  -22.6496  -15.4202 C   0  0  0  0  0  0  0  0  0  0  0  0
   18.9754  -21.2932  -14.6019 O   0  0  0  0  0  0  0  0  0  0  0  0
   19.7365  -20.2878  -14.6453 O   0  0  0  0  0  0  0  0  0  0  0  0
  2  1  1  0
  2  3  2  0
  4  2  1  0
  5  4  1  0
  6  5  1  0
  7  6  1  0
  8  7  1  0
  8  9  1  6
 10  8  1  0
 11 10  2  0
 12 10  1  0
 13 14  1  6
 13 12  1  0
 15 16  1  0
 15 14  1  0
 17 16  1  0
 18 17  1  0
 19 13  1  0
 19 23  1  0
 20 19  2  0
 22 24  1  0
 22 23  1  0
 22 21  1  6
 24 26  1  0
 25 24  2  0
M  END
$$$$
