RKA.pdb
     RDKit          3D

 26 25  0  0  1  0  0  0  0  0999 V2000
   26.5599  -25.0278  -16.4314 N   0  0  0  0  0  0  0  0  0  0  0  0
   27.1066  -24.0025  -17.2595 C   0  0  0  0  0  0  0  0  0  0  0  0
   27.3187  -24.2506  -18.4899 N   0  0  0  0  0  0  0  0  0  0  0  0
   27.4123  -22.7257  -16.7382 N   0  0  0  0  0  0  0  0  0  0  0  0
   27.0443  -22.4020  -15.3646 C   0  0  0  0  0  0  0  0  0  0  0  0
   25.5940  -22.1158  -15.2291 C   0  0  0  0  0  0  0  0  0  0  0  0
   25.2299  -20.7229  -15.5314 C   0  0  0  0  0  0  0  0  0  0  0  0
   24.6530  -19.9376  -14.4289 C   0  0  2  0  0  0  0  0  0  0  0  0
   23.6415  -20.6192  -13.6607 N   0  0  0  0  0  0  0  0  0  0  0  0
   24.1155  -18.6146  -14.9279 C   0  0  0  0  0  0  0  0  0  0  0  0
   22.9565  -18.5317  -15.4078 O   0  0  0  0  0  0  0  0  0  0  0  0
   27.7417  -23.5464  -19.1135 N   0  0  0  0  0  0  0  0  0  0  0  0
   24.8845  -17.4332  -14.8758 C   0  0  1  0  0  0  0  0  0  0  0  0
   24.4265  -16.2094  -15.5404 C   0  0  0  0  0  0  0  0  0  0  0  0
   25.1661  -15.0191  -15.0413 C   0  0  0  0  0  0  0  0  0  0  0  0
   24.8780  -13.7687  -15.8174 C   0  0  0  0  0  0  0  0  0  0  0  0
   23.5583  -13.1404  -15.3269 C   0  0  0  0  0  0  0  0  0  0  0  0
   23.3020  -11.9033  -16.1862 N   0  0  0  0  0  0  0  0  0  0  0  0
   22.0821  -11.2483  -15.7815 C   0  0  0  0  0  0  0  0  0  0  0  0
   24.4895  -16.3477  -16.9992 O   0  0  0  0  0  0  0  0  0  0  0  0
   25.5151  -16.7651  -17.5637 C   0  0  0  0  0  0  0  0  0  0  0  0
   22.2011  -16.5336  -19.9114 C   0  0  2  0  0  0  0  0  0  0  0  0
   23.4932  -16.0853  -19.2713 N   0  0  0  0  0  0  0  0  0  0  0  0
   23.3820  -16.0110  -17.8327 C   0  0  0  0  0  0  0  0  0  0  0  0
   23.9027  -14.8068  -19.8752 O   0  0  0  0  0  0  0  0  0  0  0  0
   24.0227  -13.7558  -19.1874 O   0  0  0  0  0  0  0  0  0  0  0  0
  2  1  1  0
  2  3  2  0
  4  2  1  0
  5  4  1  0
  6  5  1  0
  7  6  1  0
  8  7  1  0
  8  9  1  6
 10  8  1  0
 11 10  2  0
 12 10  1  0
 13 14  1  1
 13 12  1  0
 15 16  1  0
 15 14  1  0
 17 16  1  0
 18 17  1  0
 19 13  1  0
 19 23  1  0
 20 19  2  0
 22 24  1  0
 22 23  1  0
 22 21  1  1
 24 26  1  0
 25 24  2  0
M  END
$$$$
