RKA.pdb
     RDKit          3D

 26 25  0  0  1  0  0  0  0  0999 V2000
   21.4403  -10.5377    8.3744 N   0  0  0  0  0  0  0  0  0  0  0  0
   21.4295  -10.7378    6.9616 C   0  0  0  0  0  0  0  0  0  0  0  0
   22.4579  -10.4142    6.2847 N   0  0  0  0  0  0  0  0  0  0  0  0
   20.3037  -11.2866    6.3084 N   0  0  0  0  0  0  0  0  0  0  0  0
   19.5471  -12.3541    6.9528 C   0  0  0  0  0  0  0  0  0  0  0  0
   18.4439  -12.8522    6.0934 C   0  0  0  0  0  0  0  0  0  0  0  0
   17.5355  -13.7896    6.7721 C   0  0  0  0  0  0  0  0  0  0  0  0
   16.4776  -14.3960    5.9486 C   0  0  2  0  0  0  0  0  0  0  0  0
   15.2418  -13.6553    5.9038 N   0  0  0  0  0  0  0  0  0  0  0  0
   16.2074  -15.8218    6.3755 C   0  0  0  0  0  0  0  0  0  0  0  0
   15.4563  -16.0687    7.3529 O   0  0  0  0  0  0  0  0  0  0  0  0
   22.4712  -10.4980    5.2569 N   0  0  0  0  0  0  0  0  0  0  0  0
   16.7813  -16.9203    5.7018 C   0  0  2  0  0  0  0  0  0  0  0  0
   16.4786  -18.2945    6.1129 C   0  0  0  0  0  0  0  0  0  0  0  0
   16.6095  -19.2374    4.9696 C   0  0  0  0  0  0  0  0  0  0  0  0
   15.3118  -19.5101    4.2693 C   0  0  0  0  0  0  0  0  0  0  0  0
   15.5761  -20.2713    2.9549 C   0  0  0  0  0  0  0  0  0  0  0  0
   14.2173  -20.5437    2.3115 N   0  0  0  0  0  0  0  0  0  0  0  0
   14.3793  -21.2452    1.0614 C   0  0  0  0  0  0  0  0  0  0  0  0
   17.2888  -18.6882    7.2703 O   0  0  0  0  0  0  0  0  0  0  0  0
   18.4869  -18.3693    7.3573 C   0  0  0  0  0  0  0  0  0  0  0  0
   16.9275  -19.4333   10.7839 C   0  0  2  0  0  0  0  0  0  0  0  0
   17.5612  -19.8296    9.4719 N   0  0  0  0  0  0  0  0  0  0  0  0
   16.7414  -19.4513    8.3439 C   0  0  0  0  0  0  0  0  0  0  0  0
   17.8522  -21.2723    9.5028 O   0  0  0  0  0  0  0  0  0  0  0  0
   17.3954  -22.0608    8.6300 O   0  0  0  0  0  0  0  0  0  0  0  0
  2  1  1  0
  2  3  2  0
  4  2  1  0
  5  4  1  0
  6  5  1  0
  7  6  1  0
  8  7  1  0
  8  9  1  1
 10  8  1  0
 11 10  2  0
 12 10  1  0
 13 14  1  6
 13 12  1  0
 15 16  1  0
 15 14  1  0
 17 16  1  0
 18 17  1  0
 19 13  1  0
 19 23  1  0
 20 19  2  0
 22 24  1  0
 22 23  1  0
 22 21  1  6
 24 26  1  0
 25 24  2  0
M  END
$$$$
