RKA.pdb
     RDKit          3D

 26 25  0  0  1  0  0  0  0  0999 V2000
   24.6426  -25.1972  -14.7081 N   0  0  0  0  0  0  0  0  0  0  0  0
   24.2027  -24.3958  -15.8037 C   0  0  0  0  0  0  0  0  0  0  0  0
   24.9017  -24.3674  -16.8672 N   0  0  0  0  0  0  0  0  0  0  0  0
   23.0115  -23.6405  -15.7264 N   0  0  0  0  0  0  0  0  0  0  0  0
   21.9831  -24.0149  -14.7625 C   0  0  0  0  0  0  0  0  0  0  0  0
   21.5086  -25.4067  -14.9663 C   0  0  0  0  0  0  0  0  0  0  0  0
   20.3485  -25.7690  -14.1373 C   0  0  0  0  0  0  0  0  0  0  0  0
   20.6117  -26.6339  -12.9763 C   0  0  2  0  0  0  0  0  0  0  0  0
   21.0116  -27.9806  -13.2991 N   0  0  0  0  0  0  0  0  0  0  0  0
   19.4247  -26.6605  -12.0390 C   0  0  0  0  0  0  0  0  0  0  0  0
   18.4424  -27.4112  -12.2672 O   0  0  0  0  0  0  0  0  0  0  0  0
   24.6311  -23.7804  -17.6708 N   0  0  0  0  0  0  0  0  0  0  0  0
   19.3721  -25.8528  -10.8837 C   0  0  2  0  0  0  0  0  0  0  0  0
   18.2152  -25.9028   -9.9848 C   0  0  0  0  0  0  0  0  0  0  0  0
   18.6294  -25.7238   -8.5671 C   0  0  0  0  0  0  0  0  0  0  0  0
   17.4743  -25.5993   -7.6190 C   0  0  0  0  0  0  0  0  0  0  0  0
   17.9884  -25.5933   -6.1655 C   0  0  0  0  0  0  0  0  0  0  0  0
   16.7753  -25.3864   -5.2599 N   0  0  0  0  0  0  0  0  0  0  0  0
   17.1613  -25.4531   -3.8715 C   0  0  0  0  0  0  0  0  0  0  0  0
   17.1837  -24.9469  -10.4009 O   0  0  0  0  0  0  0  0  0  0  0  0
   17.4303  -23.7325  -10.4955 C   0  0  0  0  0  0  0  0  0  0  0  0
   13.5941  -25.0793  -11.6024 C   0  0  2  0  0  0  0  0  0  0  0  0
   14.8603  -24.4052  -11.1306 N   0  0  0  0  0  0  0  0  0  0  0  0
   15.8566  -25.3653  -10.7146 C   0  0  0  0  0  0  0  0  0  0  0  0
   14.5186  -23.4458  -10.0676 O   0  0  0  0  0  0  0  0  0  0  0  0
   13.9313  -22.3577  -10.3187 O   0  0  0  0  0  0  0  0  0  0  0  0
  2  1  1  0
  2  3  2  0
  4  2  1  0
  5  4  1  0
  6  5  1  0
  7  6  1  0
  8  7  1  0
  8  9  1  6
 10  8  1  0
 11 10  2  0
 12 10  1  0
 13 14  1  1
 13 12  1  0
 15 16  1  0
 15 14  1  0
 17 16  1  0
 18 17  1  0
 19 13  1  0
 19 23  1  0
 20 19  2  0
 22 24  1  0
 22 23  1  0
 22 21  1  6
 24 26  1  0
 25 24  2  0
M  END
$$$$
