RKA.pdb
     RDKit          3D

 26 25  0  0  1  0  0  0  0  0999 V2000
   17.8744  -16.5096  -18.2302 N   0  0  0  0  0  0  0  0  0  0  0  0
   17.2249  -15.3007  -17.8393 C   0  0  0  0  0  0  0  0  0  0  0  0
   16.1353  -15.3695  -17.1847 N   0  0  0  0  0  0  0  0  0  0  0  0
   17.7697  -14.0386  -18.1645 N   0  0  0  0  0  0  0  0  0  0  0  0
   17.8724  -13.0117  -17.1339 C   0  0  0  0  0  0  0  0  0  0  0  0
   16.7159  -12.0813  -17.1573 C   0  0  0  0  0  0  0  0  0  0  0  0
   17.0416  -10.7138  -16.7236 C   0  0  0  0  0  0  0  0  0  0  0  0
   18.0416  -10.5820  -15.6523 C   0  0  2  0  0  0  0  0  0  0  0  0
   18.1017  -11.6931  -14.7361 N   0  0  0  0  0  0  0  0  0  0  0  0
   17.8486   -9.2926  -14.8851 C   0  0  0  0  0  0  0  0  0  0  0  0
   17.7225   -8.1977  -15.4898 O   0  0  0  0  0  0  0  0  0  0  0  0
   15.6204  -16.2584  -17.0930 N   0  0  0  0  0  0  0  0  0  0  0  0
   17.8031   -9.2667  -13.4755 C   0  0  1  0  0  0  0  0  0  0  0  0
   17.7439   -7.9945  -12.7495 C   0  0  0  0  0  0  0  0  0  0  0  0
   16.8780   -8.1042  -11.5448 C   0  0  0  0  0  0  0  0  0  0  0  0
   16.7906   -6.8326  -10.7548 C   0  0  0  0  0  0  0  0  0  0  0  0
   15.8411   -7.0255   -9.5555 C   0  0  0  0  0  0  0  0  0  0  0  0
   15.7637   -5.6869   -8.8228 N   0  0  0  0  0  0  0  0  0  0  0  0
   14.7408   -5.7233   -7.8064 C   0  0  0  0  0  0  0  0  0  0  0  0
   19.0903   -7.5024  -12.4393 O   0  0  0  0  0  0  0  0  0  0  0  0
   19.6230   -7.7311  -11.3400 C   0  0  0  0  0  0  0  0  0  0  0  0
   22.2388   -6.8025  -13.8907 C   0  0  2  0  0  0  0  0  0  0  0  0
   21.1453   -6.2169  -13.0294 N   0  0  0  0  0  0  0  0  0  0  0  0
   19.8461   -6.7426  -13.3806 C   0  0  0  0  0  0  0  0  0  0  0  0
   21.2063   -4.7489  -13.1192 O   0  0  0  0  0  0  0  0  0  0  0  0
   22.2312   -4.1038  -12.7651 O   0  0  0  0  0  0  0  0  0  0  0  0
  2  1  1  0
  2  3  2  0
  4  2  1  0
  5  4  1  0
  6  5  1  0
  7  6  1  0
  8  7  1  0
  8  9  1  1
 10  8  1  0
 11 10  2  0
 12 10  1  0
 13 14  1  6
 13 12  1  0
 15 16  1  0
 15 14  1  0
 17 16  1  0
 18 17  1  0
 19 13  1  0
 19 23  1  0
 20 19  2  0
 22 24  1  0
 22 23  1  0
 22 21  1  1
 24 26  1  0
 25 24  2  0
M  END
$$$$
