RKA.pdb
     RDKit          3D

 26 25  0  0  1  0  0  0  0  0999 V2000
   25.4860  -21.2288   -9.5442 N   0  0  0  0  0  0  0  0  0  0  0  0
   24.5368  -20.9007  -10.5578 C   0  0  0  0  0  0  0  0  0  0  0  0
   23.3357  -20.6482  -10.2199 N   0  0  0  0  0  0  0  0  0  0  0  0
   24.9078  -20.8512  -11.9199 N   0  0  0  0  0  0  0  0  0  0  0  0
   26.1287  -21.5181  -12.3581 C   0  0  0  0  0  0  0  0  0  0  0  0
   27.2562  -20.5661  -12.5197 C   0  0  0  0  0  0  0  0  0  0  0  0
   27.6273  -20.3130  -13.9206 C   0  0  0  0  0  0  0  0  0  0  0  0
   27.4798  -21.4393  -14.8559 C   0  0  2  0  0  0  0  0  0  0  0  0
   28.3906  -22.5350  -14.6373 N   0  0  0  0  0  0  0  0  0  0  0  0
   27.5752  -20.9697  -16.2907 C   0  0  0  0  0  0  0  0  0  0  0  0
   28.6901  -20.8797  -16.8646 O   0  0  0  0  0  0  0  0  0  0  0  0
   22.6205  -20.4075  -10.9229 N   0  0  0  0  0  0  0  0  0  0  0  0
   26.4298  -20.6171  -17.0346 C   0  0  2  0  0  0  0  0  0  0  0  0
   26.5316  -20.2915  -18.4604 C   0  0  0  0  0  0  0  0  0  0  0  0
   25.9455  -21.3708  -19.3000 C   0  0  0  0  0  0  0  0  0  0  0  0
   25.9731  -21.0663  -20.7681 C   0  0  0  0  0  0  0  0  0  0  0  0
   25.3663  -22.2430  -21.5583 C   0  0  0  0  0  0  0  0  0  0  0  0
   26.1427  -22.3525  -22.8697 N   0  0  0  0  0  0  0  0  0  0  0  0
   26.4641  -21.0420  -23.3799 C   0  0  0  0  0  0  0  0  0  0  0  0
   25.9522  -18.9739  -18.7419 O   0  0  0  0  0  0  0  0  0  0  0  0
   24.8052  -18.6797  -18.3646 C   0  0  0  0  0  0  0  0  0  0  0  0
   27.0196  -15.7828  -20.4908 C   0  0  2  0  0  0  0  0  0  0  0  0
   26.0708  -16.6954  -19.7511 N   0  0  0  0  0  0  0  0  0  0  0  0
   26.6753  -17.9746  -19.4584 C   0  0  0  0  0  0  0  0  0  0  0  0
   24.8286  -16.8204  -20.5311 O   0  0  0  0  0  0  0  0  0  0  0  0
   24.6828  -17.7151  -21.4089 O   0  0  0  0  0  0  0  0  0  0  0  0
  2  1  1  0
  2  3  2  0
  4  2  1  0
  5  4  1  0
  6  5  1  0
  7  6  1  0
  8  7  1  0
  8  9  1  1
 10  8  1  0
 11 10  2  0
 12 10  1  0
 13 14  1  1
 13 12  1  0
 15 16  1  0
 15 14  1  0
 17 16  1  0
 18 17  1  0
 19 13  1  0
 19 23  1  0
 20 19  2  0
 22 24  1  0
 22 23  1  0
 22 21  1  1
 24 26  1  0
 25 24  2  0
M  END
$$$$
