RKA.pdb
     RDKit          3D

 26 25  0  0  1  0  0  0  0  0999 V2000
   29.6377  -21.1059  -11.0450 N   0  0  0  0  0  0  0  0  0  0  0  0
   29.6320  -21.3344   -9.6365 C   0  0  0  0  0  0  0  0  0  0  0  0
   30.7354  -21.5615   -9.0438 N   0  0  0  0  0  0  0  0  0  0  0  0
   28.4293  -21.3113   -8.8959 N   0  0  0  0  0  0  0  0  0  0  0  0
   27.1656  -21.5953   -9.5663 C   0  0  0  0  0  0  0  0  0  0  0  0
   26.5153  -20.3616  -10.0752 C   0  0  0  0  0  0  0  0  0  0  0  0
   25.2860  -20.6090  -10.8446 C   0  0  0  0  0  0  0  0  0  0  0  0
   25.4573  -21.0457  -12.2393 C   0  0  2  0  0  0  0  0  0  0  0  0
   26.5178  -20.3847  -12.9578 N   0  0  0  0  0  0  0  0  0  0  0  0
   24.1609  -20.9243  -13.0093 C   0  0  0  0  0  0  0  0  0  0  0  0
   23.7119  -19.7970  -13.3382 O   0  0  0  0  0  0  0  0  0  0  0  0
   30.7757  -21.7068   -8.0236 N   0  0  0  0  0  0  0  0  0  0  0  0
   23.4113  -22.0585  -13.3852 C   0  0  1  0  0  0  0  0  0  0  0  0
   22.1640  -21.9168  -14.1425 C   0  0  0  0  0  0  0  0  0  0  0  0
   22.2855  -22.5252  -15.4947 C   0  0  0  0  0  0  0  0  0  0  0  0
   22.8719  -23.9053  -15.4777 C   0  0  0  0  0  0  0  0  0  0  0  0
   22.8472  -24.5021  -16.8990 C   0  0  0  0  0  0  0  0  0  0  0  0
   23.4045  -25.9214  -16.8009 N   0  0  0  0  0  0  0  0  0  0  0  0
   23.3710  -26.5698  -18.0891 C   0  0  0  0  0  0  0  0  0  0  0  0
   21.0246  -22.4419  -13.3829 O   0  0  0  0  0  0  0  0  0  0  0  0
   21.1920  -23.1069  -12.3464 C   0  0  0  0  0  0  0  0  0  0  0  0
   18.7293  -24.2652  -12.8583 C   0  0  1  0  0  0  0  0  0  0  0  0
   18.5743  -22.7759  -13.0538 N   0  0  0  0  0  0  0  0  0  0  0  0
   19.6787  -22.2143  -13.7970 C   0  0  0  0  0  0  0  0  0  0  0  0
   18.3954  -22.1412  -11.7377 O   0  0  0  0  0  0  0  0  0  0  0  0
   19.0716  -22.4943  -10.7327 O   0  0  0  0  0  0  0  0  0  0  0  0
  2  1  1  0
  2  3  2  0
  4  2  1  0
  5  4  1  0
  6  5  1  0
  7  6  1  0
  8  7  1  0
  8  9  1  6
 10  8  1  0
 11 10  2  0
 12 10  1  0
 13 14  1  6
 13 12  1  0
 15 16  1  0
 15 14  1  0
 17 16  1  0
 18 17  1  0
 19 13  1  0
 19 23  1  0
 20 19  2  0
 22 24  1  0
 22 23  1  0
 22 21  1  6
 24 26  1  0
 25 24  2  0
M  END
$$$$
