RKA.pdb
     RDKit          3D

 26 25  0  0  1  0  0  0  0  0999 V2000
   30.9068  -25.0399  -15.8918 N   0  0  0  0  0  0  0  0  0  0  0  0
   30.6960  -25.1378  -17.2996 C   0  0  0  0  0  0  0  0  0  0  0  0
   30.7558  -26.2819  -17.8545 N   0  0  0  0  0  0  0  0  0  0  0  0
   30.4229  -23.9927  -18.0804 N   0  0  0  0  0  0  0  0  0  0  0  0
   29.6251  -22.9101  -17.5158 C   0  0  0  0  0  0  0  0  0  0  0  0
   28.1970  -23.0068  -17.9091 C   0  0  0  0  0  0  0  0  0  0  0  0
   27.2685  -22.4101  -16.9364 C   0  0  0  0  0  0  0  0  0  0  0  0
   27.0608  -23.1513  -15.6823 C   0  0  2  0  0  0  0  0  0  0  0  0
   27.2188  -24.5803  -15.7869 N   0  0  0  0  0  0  0  0  0  0  0  0
   25.7137  -22.8258  -15.0760 C   0  0  0  0  0  0  0  0  0  0  0  0
   24.6665  -23.3727  -15.5058 O   0  0  0  0  0  0  0  0  0  0  0  0
   30.9347  -27.1357  -17.3043 N   0  0  0  0  0  0  0  0  0  0  0  0
   25.5792  -21.9053  -14.0156 C   0  0  1  0  0  0  0  0  0  0  0  0
   24.3155  -21.7841  -13.2825 C   0  0  0  0  0  0  0  0  0  0  0  0
   24.5519  -21.3862  -11.8685 C   0  0  0  0  0  0  0  0  0  0  0  0
   23.2900  -21.2316  -11.0731 C   0  0  0  0  0  0  0  0  0  0  0  0
   23.6261  -20.7577   -9.6451 C   0  0  0  0  0  0  0  0  0  0  0  0
   22.3146  -20.7228   -8.8620 N   0  0  0  0  0  0  0  0  0  0  0  0
   22.5394  -20.2546   -7.5163 C   0  0  0  0  0  0  0  0  0  0  0  0
   23.3874  -20.8867  -13.9783 O   0  0  0  0  0  0  0  0  0  0  0  0
   23.7289  -19.7398  -14.3138 C   0  0  0  0  0  0  0  0  0  0  0  0
   20.4080  -21.2324  -16.1077 C   0  0  2  0  0  0  0  0  0  0  0  0
   21.2049  -20.4380  -15.1006 N   0  0  0  0  0  0  0  0  0  0  0  0
   22.0567  -21.2872  -14.3001 C   0  0  0  0  0  0  0  0  0  0  0  0
   20.2760  -19.6374  -14.2863 O   0  0  0  0  0  0  0  0  0  0  0  0
   20.0789  -19.8869  -13.0652 O   0  0  0  0  0  0  0  0  0  0  0  0
  2  1  1  0
  2  3  2  0
  4  2  1  0
  5  4  1  0
  6  5  1  0
  7  6  1  0
  8  7  1  0
  8  9  1  6
 10  8  1  0
 11 10  2  0
 12 10  1  0
 13 14  1  6
 13 12  1  0
 15 16  1  0
 15 14  1  0
 17 16  1  0
 18 17  1  0
 19 13  1  0
 19 23  1  0
 20 19  2  0
 22 24  1  0
 22 23  1  0
 22 21  1  6
 24 26  1  0
 25 24  2  0
M  END
$$$$
