RKA.pdb
     RDKit          3D

 26 25  0  0  1  0  0  0  0  0999 V2000
   17.2096  -24.6700  -11.6719 N   0  0  0  0  0  0  0  0  0  0  0  0
   16.4681  -24.2687  -12.8231 C   0  0  0  0  0  0  0  0  0  0  0  0
   15.5315  -25.0197  -13.2465 N   0  0  0  0  0  0  0  0  0  0  0  0
   16.7552  -23.0590  -13.4937 N   0  0  0  0  0  0  0  0  0  0  0  0
   17.7799  -22.1673  -12.9628 C   0  0  0  0  0  0  0  0  0  0  0  0
   18.8212  -22.9045  -12.2039 C   0  0  0  0  0  0  0  0  0  0  0  0
   20.1589  -22.8437  -12.8133 C   0  0  0  0  0  0  0  0  0  0  0  0
   20.8736  -21.5617  -12.7091 C   0  0  2  0  0  0  0  0  0  0  0  0
   20.0483  -20.3905  -12.8674 N   0  0  0  0  0  0  0  0  0  0  0  0
   22.0348  -21.5073  -13.6772 C   0  0  0  0  0  0  0  0  0  0  0  0
   22.9167  -22.4032  -13.6738 O   0  0  0  0  0  0  0  0  0  0  0  0
   14.9586  -24.7539  -14.0618 N   0  0  0  0  0  0  0  0  0  0  0  0
   22.1737  -20.4604  -14.6123 C   0  0  1  0  0  0  0  0  0  0  0  0
   23.3073  -20.4294  -15.5415 C   0  0  0  0  0  0  0  0  0  0  0  0
   22.9111  -19.8464  -16.8516 C   0  0  0  0  0  0  0  0  0  0  0  0
   24.0475  -19.7356  -17.8237 C   0  0  0  0  0  0  0  0  0  0  0  0
   23.5369  -19.1687  -19.1635 C   0  0  0  0  0  0  0  0  0  0  0  0
   24.7402  -19.0755  -20.1005 N   0  0  0  0  0  0  0  0  0  0  0  0
   24.3741  -18.4211  -21.3329 C   0  0  0  0  0  0  0  0  0  0  0  0
   24.4606  -19.7500  -14.9421 O   0  0  0  0  0  0  0  0  0  0  0  0
   24.3801  -18.5773  -14.5385 C   0  0  0  0  0  0  0  0  0  0  0  0
   28.0013  -20.5878  -13.9266 C   0  0  2  0  0  0  0  0  0  0  0  0
   26.8826  -19.6660  -14.3497 N   0  0  0  0  0  0  0  0  0  0  0  0
   25.7214  -20.4009  -14.7957 C   0  0  0  0  0  0  0  0  0  0  0  0
   27.3938  -18.7384  -15.3721 O   0  0  0  0  0  0  0  0  0  0  0  0
   27.8939  -17.6214  -15.0648 O   0  0  0  0  0  0  0  0  0  0  0  0
  2  1  1  0
  2  3  2  0
  4  2  1  0
  5  4  1  0
  6  5  1  0
  7  6  1  0
  8  7  1  0
  8  9  1  6
 10  8  1  0
 11 10  2  0
 12 10  1  0
 13 14  1  6
 13 12  1  0
 15 16  1  0
 15 14  1  0
 17 16  1  0
 18 17  1  0
 19 13  1  0
 19 23  1  0
 20 19  2  0
 22 24  1  0
 22 23  1  0
 22 21  1  1
 24 26  1  0
 25 24  2  0
M  END
$$$$
