RKA.pdb
     RDKit          3D

 26 25  0  0  1  0  0  0  0  0999 V2000
   38.8259  -30.7029  -17.6666 N   0  0  0  0  0  0  0  0  0  0  0  0
   38.7338  -29.4115  -17.0668 C   0  0  0  0  0  0  0  0  0  0  0  0
   39.7745  -28.6803  -17.0135 N   0  0  0  0  0  0  0  0  0  0  0  0
   37.5140  -28.9359  -16.5364 N   0  0  0  0  0  0  0  0  0  0  0  0
   36.2846  -29.6826  -16.7773 C   0  0  0  0  0  0  0  0  0  0  0  0
   35.9907  -29.8197  -18.2260 C   0  0  0  0  0  0  0  0  0  0  0  0
   34.5549  -29.8845  -18.5400 C   0  0  0  0  0  0  0  0  0  0  0  0
   34.1973  -30.2469  -19.9205 C   0  0  2  0  0  0  0  0  0  0  0  0
   34.5609  -29.2729  -20.9189 N   0  0  0  0  0  0  0  0  0  0  0  0
   32.7242  -30.5725  -20.0321 C   0  0  0  0  0  0  0  0  0  0  0  0
   31.9266  -29.7644  -20.5719 O   0  0  0  0  0  0  0  0  0  0  0  0
   39.7388  -27.7247  -16.6272 N   0  0  0  0  0  0  0  0  0  0  0  0
   32.1916  -31.7824  -19.5402 C   0  0  2  0  0  0  0  0  0  0  0  0
   30.7811  -32.1223  -19.7508 C   0  0  0  0  0  0  0  0  0  0  0  0
   30.6060  -33.5864  -19.9482 C   0  0  0  0  0  0  0  0  0  0  0  0
   29.1783  -33.9936  -20.1600 C   0  0  0  0  0  0  0  0  0  0  0  0
   29.0900  -35.5233  -20.3305 C   0  0  0  0  0  0  0  0  0  0  0  0
   27.6299  -35.8591  -20.6305 N   0  0  0  0  0  0  0  0  0  0  0  0
   27.4883  -37.2561  -20.9612 C   0  0  0  0  0  0  0  0  0  0  0  0
   29.9445  -31.5900  -18.6702 O   0  0  0  0  0  0  0  0  0  0  0  0
   30.2545  -31.7482  -17.4771 C   0  0  0  0  0  0  0  0  0  0  0  0
   26.8243  -29.4584  -18.3756 C   0  0  2  0  0  0  0  0  0  0  0  0
   27.9804  -30.2821  -17.8605 N   0  0  0  0  0  0  0  0  0  0  0  0
   28.7426  -30.8700  -18.9379 C   0  0  0  0  0  0  0  0  0  0  0  0
   27.4632  -31.2873  -16.9176 O   0  0  0  0  0  0  0  0  0  0  0  0
   27.6110  -32.5242  -17.1183 O   0  0  0  0  0  0  0  0  0  0  0  0
  2  1  1  0
  2  3  2  0
  4  2  1  0
  5  4  1  0
  6  5  1  0
  7  6  1  0
  8  7  1  0
  8  9  1  6
 10  8  1  0
 11 10  2  0
 12 10  1  0
 13 14  1  6
 13 12  1  0
 15 16  1  0
 15 14  1  0
 17 16  1  0
 18 17  1  0
 19 13  1  0
 19 23  1  0
 20 19  2  0
 22 24  1  0
 22 23  1  0
 22 21  1  6
 24 26  1  0
 25 24  2  0
M  END
$$$$
