RKA.pdb
     RDKit          3D

 26 25  0  0  1  0  0  0  0  0999 V2000
   28.7079  -16.0999  -18.6505 N   0  0  0  0  0  0  0  0  0  0  0  0
   27.5595  -15.6796  -17.9152 C   0  0  0  0  0  0  0  0  0  0  0  0
   26.8773  -14.6950  -18.3460 N   0  0  0  0  0  0  0  0  0  0  0  0
   27.1710  -16.3358  -16.7262 N   0  0  0  0  0  0  0  0  0  0  0  0
   27.9883  -17.4258  -16.2055 C   0  0  0  0  0  0  0  0  0  0  0  0
   27.6200  -18.7334  -16.8040 C   0  0  0  0  0  0  0  0  0  0  0  0
   26.5982  -19.4706  -16.0444 C   0  0  0  0  0  0  0  0  0  0  0  0
   27.0854  -20.4789  -15.0900 C   0  0  2  0  0  0  0  0  0  0  0  0
   27.8747  -21.5357  -15.6713 N   0  0  0  0  0  0  0  0  0  0  0  0
   25.9428  -21.0691  -14.2933 C   0  0  0  0  0  0  0  0  0  0  0  0
   25.4751  -22.1998  -14.5816 O   0  0  0  0  0  0  0  0  0  0  0  0
   26.0662  -14.3344  -17.8210 N   0  0  0  0  0  0  0  0  0  0  0  0
   25.3620  -20.3820  -13.2069 C   0  0  2  0  0  0  0  0  0  0  0  0
   24.2114  -20.9432  -12.4925 C   0  0  0  0  0  0  0  0  0  0  0  0
   24.3381  -20.7355  -11.0248 C   0  0  0  0  0  0  0  0  0  0  0  0
   23.1514  -21.2229  -10.2484 C   0  0  0  0  0  0  0  0  0  0  0  0
   23.4188  -21.0773   -8.7370 C   0  0  0  0  0  0  0  0  0  0  0  0
   22.1237  -21.4430   -8.0134 N   0  0  0  0  0  0  0  0  0  0  0  0
   22.2805  -21.2957   -6.5870 C   0  0  0  0  0  0  0  0  0  0  0  0
   22.9513  -20.4233  -13.0337 O   0  0  0  0  0  0  0  0  0  0  0  0
   22.7455  -19.2013  -13.1283 C   0  0  0  0  0  0  0  0  0  0  0  0
   20.0369  -21.7390  -14.9850 C   0  0  2  0  0  0  0  0  0  0  0  0
   20.6958  -20.7565  -14.0465 N   0  0  0  0  0  0  0  0  0  0  0  0
   21.9093  -21.2923  -13.4740 C   0  0  0  0  0  0  0  0  0  0  0  0
   19.7182  -20.3490  -13.0241 O   0  0  0  0  0  0  0  0  0  0  0  0
   19.7959  -20.7547  -11.8319 O   0  0  0  0  0  0  0  0  0  0  0  0
  2  1  1  0
  2  3  2  0
  4  2  1  0
  5  4  1  0
  6  5  1  0
  7  6  1  0
  8  7  1  0
  8  9  1  6
 10  8  1  0
 11 10  2  0
 12 10  1  0
 13 14  1  1
 13 12  1  0
 15 16  1  0
 15 14  1  0
 17 16  1  0
 18 17  1  0
 19 13  1  0
 19 23  1  0
 20 19  2  0
 22 24  1  0
 22 23  1  0
 22 21  1  6
 24 26  1  0
 25 24  2  0
M  END
$$$$
