RKA.pdb
     RDKit          3D

 26 25  0  0  1  0  0  0  0  0999 V2000
   16.9203  -18.1798  -15.8858 N   0  0  0  0  0  0  0  0  0  0  0  0
   17.2694  -19.4763  -16.3687 C   0  0  0  0  0  0  0  0  0  0  0  0
   16.4026  -20.4073  -16.3190 N   0  0  0  0  0  0  0  0  0  0  0  0
   18.5523  -19.7396  -16.8980 N   0  0  0  0  0  0  0  0  0  0  0  0
   19.5185  -18.6535  -17.0171 C   0  0  0  0  0  0  0  0  0  0  0  0
   19.4369  -17.9773  -18.3361 C   0  0  0  0  0  0  0  0  0  0  0  0
   20.4081  -16.8857  -18.5082 C   0  0  0  0  0  0  0  0  0  0  0  0
   21.8193  -17.2114  -18.2484 C   0  0  2  0  0  0  0  0  0  0  0  0
   22.0747  -17.8392  -16.9762 N   0  0  0  0  0  0  0  0  0  0  0  0
   22.6961  -15.9884  -18.4036 C   0  0  0  0  0  0  0  0  0  0  0  0
   22.8858  -15.2069  -17.4373 O   0  0  0  0  0  0  0  0  0  0  0  0
   16.6301  -21.3679  -16.6175 N   0  0  0  0  0  0  0  0  0  0  0  0
   23.3292  -15.6786  -19.6255 C   0  0  1  0  0  0  0  0  0  0  0  0
   24.2368  -14.5322  -19.7311 C   0  0  0  0  0  0  0  0  0  0  0  0
   25.4277  -14.8654  -20.5582 C   0  0  0  0  0  0  0  0  0  0  0  0
   26.4516  -13.7705  -20.5987 C   0  0  0  0  0  0  0  0  0  0  0  0
   27.6255  -14.1849  -21.5082 C   0  0  0  0  0  0  0  0  0  0  0  0
   28.7111  -13.1207  -21.3549 N   0  0  0  0  0  0  0  0  0  0  0  0
   29.8579  -13.4450  -22.1676 C   0  0  0  0  0  0  0  0  0  0  0  0
   23.5270  -13.3414  -20.2099 O   0  0  0  0  0  0  0  0  0  0  0  0
   22.6562  -13.4212  -21.0929 C   0  0  0  0  0  0  0  0  0  0  0  0
   22.0156  -11.2679  -21.1677 C   0  0  2  0  0  0  0  0  0  0  0  0
   23.0439  -10.8952  -20.1265 N   0  0  0  0  0  0  0  0  0  0  0  0
   23.8025  -12.0434  -19.6864 C   0  0  0  0  0  0  0  0  0  0  0  0
   22.3663  -10.2042  -19.0173 O   0  0  0  0  0  0  0  0  0  0  0  0
   21.5921   -9.2280  -19.2171 O   0  0  0  0  0  0  0  0  0  0  0  0
  2  1  1  0
  2  3  2  0
  4  2  1  0
  5  4  1  0
  6  5  1  0
  7  6  1  0
  8  7  1  0
  8  9  1  1
 10  8  1  0
 11 10  2  0
 12 10  1  0
 13 14  1  1
 13 12  1  0
 15 16  1  0
 15 14  1  0
 17 16  1  0
 18 17  1  0
 19 13  1  0
 19 23  1  0
 20 19  2  0
 22 24  1  0
 22 23  1  0
 22 21  1  6
 24 26  1  0
 25 24  2  0
M  END
$$$$
