CSV.pdb
     RDKit          3D

 20 19  0  0  1  0  0  0  0  0999 V2000
   18.7575  -20.2453  -15.1888 N   0  0  0  0  0  0  0  0  0  0  0  0
   20.0340  -19.6889  -15.5137 C   0  0  1  0  0  0  0  0  0  0  0  0
   20.1111  -18.2009  -15.2602 C   0  0  0  0  0  0  0  0  0  0  0  0
   19.2206  -17.3549  -16.6025 S   0  0  0  0  0  0  0  0  0  0  0  0
   21.1131  -20.3683  -14.7636 C   0  0  0  0  0  0  0  0  0  0  0  0
   20.9925  -20.5493  -13.5532 O   0  0  0  0  0  0  0  0  0  0  0  0
   25.0696  -23.0994  -15.3852 O   0  0  0  0  0  0  0  0  0  0  0  0
   24.0163  -22.3288  -15.8772 C   0  0  0  0  0  0  0  0  0  0  0  0
   23.3504  -21.5259  -14.7905 C   0  0  2  0  0  0  0  0  0  0  0  0
   22.2639  -20.8027  -15.4245 N   0  0  0  0  0  0  0  0  0  0  0  0
   24.2510  -20.6721  -14.0271 C   0  0  0  0  0  0  0  0  0  0  0  0
   24.4276  -19.4675  -14.3405 O   0  0  0  0  0  0  0  0  0  0  0  0
   24.5971  -20.4099  -10.0769 C   0  0  0  0  0  0  0  0  0  0  0  0
   25.9309  -20.5743  -10.7433 C   0  0  1  0  0  0  0  0  0  0  0  0
   26.3966  -21.9908  -10.5149 C   0  0  0  0  0  0  0  0  0  0  0  0
   25.8508  -20.2311  -12.2120 C   0  0  2  0  0  0  0  0  0  0  0  0
   24.9774  -21.1251  -12.9013 N   0  0  0  0  0  0  0  0  0  0  0  0
   27.2339  -20.4405  -12.7664 C   0  0  0  0  0  0  0  0  0  0  0  0
   27.5251  -21.4377  -13.4749 O   0  0  0  0  0  0  0  0  0  0  0  0
   28.2579  -19.5342  -12.5180 O   0  0  0  0  0  0  0  0  0  0  0  0
  2  3  1  0
  2  1  1  1
  4  3  1  0
  5  2  1  0
  5  6  2  0
  7  8  1  0
  9  8  1  6
  9 10  1  0
 10  5  1  0
 11  9  1  0
 11 17  1  0
 12 11  2  0
 14 13  1  6
 14 15  1  0
 14 16  1  0
 16 17  1  6
 16 18  1  0
 18 19  2  0
 18 20  1  0
M  END
$$$$
