CSV.pdb
     RDKit          3D

 20 19  0  0  1  0  0  0  0  0999 V2000
   14.8002  -12.5642  -13.4631 N   0  0  0  0  0  0  0  0  0  0  0  0
   15.1991  -11.2207  -13.7475 C   0  0  1  0  0  0  0  0  0  0  0  0
   14.1227  -10.4205  -14.4444 C   0  0  0  0  0  0  0  0  0  0  0  0
   14.1393  -10.8709  -16.2071 S   0  0  0  0  0  0  0  0  0  0  0  0
   15.6070  -10.5175  -12.5116 C   0  0  0  0  0  0  0  0  0  0  0  0
   14.9803  -10.7039  -11.4700 O   0  0  0  0  0  0  0  0  0  0  0  0
   18.5425   -7.4915  -12.7489 O   0  0  0  0  0  0  0  0  0  0  0  0
   18.5575   -8.4262  -11.7137 C   0  0  0  0  0  0  0  0  0  0  0  0
   17.1724   -8.9076  -11.3696 C   0  0  2  0  0  0  0  0  0  0  0  0
   16.6978   -9.6458  -12.5251 N   0  0  0  0  0  0  0  0  0  0  0  0
   16.2573   -7.8623  -10.9303 C   0  0  0  0  0  0  0  0  0  0  0  0
   15.4400   -7.3358  -11.7272 O   0  0  0  0  0  0  0  0  0  0  0  0
   14.9956   -7.2826   -7.0337 C   0  0  0  0  0  0  0  0  0  0  0  0
   14.3410   -6.6810   -8.2419 C   0  0  1  0  0  0  0  0  0  0  0  0
   13.5030   -5.5122   -7.7868 C   0  0  0  0  0  0  0  0  0  0  0  0
   15.3685   -6.2777   -9.2727 C   0  0  2  0  0  0  0  0  0  0  0  0
   16.2214   -7.3733   -9.6037 N   0  0  0  0  0  0  0  0  0  0  0  0
   16.2243   -5.2256   -8.6208 C   0  0  0  0  0  0  0  0  0  0  0  0
   17.3084   -5.5070   -8.0493 O   0  0  0  0  0  0  0  0  0  0  0  0
   15.8513   -3.8867   -8.6217 O   0  0  0  0  0  0  0  0  0  0  0  0
  2  3  1  0
  2  1  1  1
  4  3  1  0
  5  2  1  0
  5  6  2  0
  7  8  1  0
  9  8  1  6
  9 10  1  0
 10  5  1  0
 11  9  1  0
 11 17  1  0
 12 11  2  0
 14 13  1  1
 14 15  1  0
 14 16  1  0
 16 17  1  1
 16 18  1  0
 18 19  2  0
 18 20  1  0
M  END
$$$$
