CSV.pdb
     RDKit          3D

 20 19  0  0  1  0  0  0  0  0999 V2000
   20.2858  -12.9121  -17.1308 N   0  0  0  0  0  0  0  0  0  0  0  0
   20.5610  -11.5821  -17.5782 C   0  0  1  0  0  0  0  0  0  0  0  0
   19.7607  -11.1930  -18.8000 C   0  0  0  0  0  0  0  0  0  0  0  0
   20.2619  -12.2799  -20.1703 S   0  0  0  0  0  0  0  0  0  0  0  0
   20.3139  -10.5999  -16.4998 C   0  0  0  0  0  0  0  0  0  0  0  0
   19.6255  -10.9188  -15.5320 O   0  0  0  0  0  0  0  0  0  0  0  0
   21.3803   -8.1389  -13.1943 O   0  0  0  0  0  0  0  0  0  0  0  0
   21.2248   -9.0285  -14.2572 C   0  0  0  0  0  0  0  0  0  0  0  0
   20.7878   -8.3291  -15.5176 C   0  0  2  0  0  0  0  0  0  0  0  0
   20.8587   -9.3167  -16.5783 N   0  0  0  0  0  0  0  0  0  0  0  0
   21.5150   -7.1020  -15.8150 C   0  0  0  0  0  0  0  0  0  0  0  0
   22.7073   -7.1320  -16.2122 O   0  0  0  0  0  0  0  0  0  0  0  0
   21.0061   -4.9560  -18.5538 C   0  0  0  0  0  0  0  0  0  0  0  0
   20.9315   -4.0601  -17.3530 C   0  0  1  0  0  0  0  0  0  0  0  0
   19.4764   -3.7923  -17.0588 C   0  0  0  0  0  0  0  0  0  0  0  0
   21.6477   -4.6723  -16.1726 C   0  0  2  0  0  0  0  0  0  0  0  0
   20.9457   -5.8141  -15.6818 N   0  0  0  0  0  0  0  0  0  0  0  0
   21.6263   -3.6325  -15.0852 C   0  0  0  0  0  0  0  0  0  0  0  0
   22.3562   -2.6093  -15.1256 O   0  0  0  0  0  0  0  0  0  0  0  0
   20.7927   -3.7580  -13.9802 O   0  0  0  0  0  0  0  0  0  0  0  0
  2  3  1  0
  2  1  1  1
  4  3  1  0
  5  2  1  0
  5  6  2  0
  7  8  1  0
  9  8  1  1
  9 10  1  0
 10  5  1  0
 11  9  1  0
 11 17  1  0
 12 11  2  0
 14 13  1  6
 14 15  1  0
 14 16  1  0
 16 17  1  1
 16 18  1  0
 18 19  2  0
 18 20  1  0
M  END
$$$$
