CSV.pdb
     RDKit          3D

 20 19  0  0  1  0  0  0  0  0999 V2000
   18.1792  -15.6424  -16.7102 N   0  0  0  0  0  0  0  0  0  0  0  0
   18.3099  -14.4629  -17.5080 C   0  0  1  0  0  0  0  0  0  0  0  0
   17.0430  -14.1113  -18.2536 C   0  0  0  0  0  0  0  0  0  0  0  0
   16.8757  -15.2626  -19.6525 S   0  0  0  0  0  0  0  0  0  0  0  0
   18.7257  -13.3089  -16.6810 C   0  0  0  0  0  0  0  0  0  0  0  0
   18.1762  -13.1052  -15.5998 O   0  0  0  0  0  0  0  0  0  0  0  0
   22.3919  -11.8895  -15.7280 O   0  0  0  0  0  0  0  0  0  0  0  0
   21.6566  -11.1504  -16.6546 C   0  0  0  0  0  0  0  0  0  0  0  0
   20.1737  -11.2645  -16.4164 C   0  0  2  0  0  0  0  0  0  0  0  0
   19.7368  -12.4537  -17.1239 N   0  0  0  0  0  0  0  0  0  0  0  0
   19.4100  -10.0711  -16.7564 C   0  0  0  0  0  0  0  0  0  0  0  0
   19.0800   -9.8261  -17.9444 O   0  0  0  0  0  0  0  0  0  0  0  0
   16.2152   -6.6150  -15.8404 C   0  0  0  0  0  0  0  0  0  0  0  0
   16.8977   -7.9236  -15.5725 C   0  0  1  0  0  0  0  0  0  0  0  0
   16.0036   -9.0293  -16.0759 C   0  0  0  0  0  0  0  0  0  0  0  0
   18.2664   -7.9635  -16.2100 C   0  0  2  0  0  0  0  0  0  0  0  0
   18.9922   -9.1207  -15.7960 N   0  0  0  0  0  0  0  0  0  0  0  0
   19.0058   -6.7613  -15.6883 C   0  0  0  0  0  0  0  0  0  0  0  0
   19.7502   -6.8226  -14.6767 O   0  0  0  0  0  0  0  0  0  0  0  0
   18.8979   -5.5211  -16.3063 O   0  0  0  0  0  0  0  0  0  0  0  0
  2  3  1  0
  2  1  1  1
  4  3  1  0
  5  2  1  0
  5  6  2  0
  7  8  1  0
  9  8  1  6
  9 10  1  0
 10  5  1  0
 11  9  1  0
 11 17  1  0
 12 11  2  0
 14 13  1  6
 14 15  1  0
 14 16  1  0
 16 17  1  1
 16 18  1  0
 18 19  2  0
 18 20  1  0
M  END
$$$$
