CSV.pdb
     RDKit          3D

 20 19  0  0  1  0  0  0  0  0999 V2000
   14.3965  -11.1814  -17.4251 N   0  0  0  0  0  0  0  0  0  0  0  0
   15.5786  -11.3964  -16.6497 C   0  0  1  0  0  0  0  0  0  0  0  0
   16.0920  -12.8153  -16.7373 C   0  0  0  0  0  0  0  0  0  0  0  0
   14.9835  -13.8759  -15.7592 S   0  0  0  0  0  0  0  0  0  0  0  0
   16.6528  -10.4629  -17.0536 C   0  0  0  0  0  0  0  0  0  0  0  0
   16.7661  -10.1395  -18.2347 O   0  0  0  0  0  0  0  0  0  0  0  0
   17.1596   -7.1138  -15.8516 O   0  0  0  0  0  0  0  0  0  0  0  0
   17.8806   -7.7380  -16.8695 C   0  0  0  0  0  0  0  0  0  0  0  0
   18.5777   -8.9820  -16.3845 C   0  0  2  0  0  0  0  0  0  0  0  0
   17.5350   -9.9501  -16.1004 N   0  0  0  0  0  0  0  0  0  0  0  0
   19.4945   -8.7703  -15.2720 C   0  0  0  0  0  0  0  0  0  0  0  0
   19.1345   -8.9719  -14.0845 O   0  0  0  0  0  0  0  0  0  0  0  0
   23.7123   -8.6920  -15.7034 C   0  0  0  0  0  0  0  0  0  0  0  0
   22.9170   -9.1316  -14.5099 C   0  0  1  0  0  0  0  0  0  0  0  0
   23.8285   -9.1145  -13.3081 C   0  0  0  0  0  0  0  0  0  0  0  0
   21.7011   -8.2571  -14.3148 C   0  0  2  0  0  0  0  0  0  0  0  0
   20.8285   -8.3320  -15.4418 N   0  0  0  0  0  0  0  0  0  0  0  0
   22.2108   -6.8435  -14.2368 C   0  0  0  0  0  0  0  0  0  0  0  0
   22.8236   -6.4096  -13.2281 O   0  0  0  0  0  0  0  0  0  0  0  0
   22.0253   -5.9486  -15.2839 O   0  0  0  0  0  0  0  0  0  0  0  0
  2  3  1  0
  2  1  1  6
  4  3  1  0
  5  2  1  0
  5  6  2  0
  7  8  1  0
  9  8  1  1
  9 10  1  0
 10  5  1  0
 11  9  1  0
 11 17  1  0
 12 11  2  0
 14 13  1  6
 14 15  1  0
 14 16  1  0
 16 17  1  6
 16 18  1  0
 18 19  2  0
 18 20  1  0
M  END
$$$$
