CSV.pdb
     RDKit          3D

 20 19  0  0  1  0  0  0  0  0999 V2000
   19.5191  -13.7014  -17.6753 N   0  0  0  0  0  0  0  0  0  0  0  0
   20.5114  -12.6831  -17.8276 C   0  0  1  0  0  0  0  0  0  0  0  0
   21.2317  -12.7546  -19.1545 C   0  0  0  0  0  0  0  0  0  0  0  0
   22.2452  -14.2656  -19.1635 S   0  0  0  0  0  0  0  0  0  0  0  0
   19.9173  -11.3378  -17.6667 C   0  0  0  0  0  0  0  0  0  0  0  0
   18.8540  -11.0713  -18.2241 O   0  0  0  0  0  0  0  0  0  0  0  0
   18.7947   -9.7153  -14.5997 O   0  0  0  0  0  0  0  0  0  0  0  0
   18.6669   -9.3191  -15.9310 C   0  0  0  0  0  0  0  0  0  0  0  0
   20.0054   -9.0692  -16.5751 C   0  0  2  0  0  0  0  0  0  0  0  0
   20.5588  -10.3739  -16.8863 N   0  0  0  0  0  0  0  0  0  0  0  0
   20.9048   -8.2250  -15.7996 C   0  0  0  0  0  0  0  0  0  0  0  0
   21.7954   -8.7243  -15.0661 O   0  0  0  0  0  0  0  0  0  0  0  0
   23.3299   -4.0129  -15.7495 C   0  0  0  0  0  0  0  0  0  0  0  0
   22.2352   -4.8858  -16.2878 C   0  0  1  0  0  0  0  0  0  0  0  0
   22.6361   -5.3409  -17.6690 C   0  0  0  0  0  0  0  0  0  0  0  0
   21.9618   -6.0478  -15.3625 C   0  0  2  0  0  0  0  0  0  0  0  0
   20.8442   -6.8121  -15.8143 N   0  0  0  0  0  0  0  0  0  0  0  0
   21.5853   -5.4462  -14.0356 C   0  0  0  0  0  0  0  0  0  0  0  0
   22.4416   -4.9451  -13.2630 O   0  0  0  0  0  0  0  0  0  0  0  0
   20.2650   -5.4177  -13.6025 O   0  0  0  0  0  0  0  0  0  0  0  0
  2  3  1  0
  2  1  1  6
  4  3  1  0
  5  2  1  0
  5  6  2  0
  7  8  1  0
  9  8  1  1
  9 10  1  0
 10  5  1  0
 11  9  1  0
 11 17  1  0
 12 11  2  0
 14 13  1  1
 14 15  1  0
 14 16  1  0
 16 17  1  6
 16 18  1  0
 18 19  2  0
 18 20  1  0
M  END
$$$$
