CSV.pdb
     RDKit          3D

 20 19  0  0  1  0  0  0  0  0999 V2000
   15.8037  -11.5375  -15.4589 N   0  0  0  0  0  0  0  0  0  0  0  0
   17.1731  -11.9153  -15.6220 C   0  0  1  0  0  0  0  0  0  0  0  0
   17.3714  -12.9713  -16.6851 C   0  0  0  0  0  0  0  0  0  0  0  0
   16.5267  -14.4867  -16.1370 S   0  0  0  0  0  0  0  0  0  0  0  0
   18.0118  -10.7389  -15.9403 C   0  0  0  0  0  0  0  0  0  0  0  0
   19.0655  -10.8911  -16.5559 O   0  0  0  0  0  0  0  0  0  0  0  0
   16.5092   -7.5660  -17.2231 O   0  0  0  0  0  0  0  0  0  0  0  0
   17.3217   -7.1916  -16.1529 C   0  0  0  0  0  0  0  0  0  0  0  0
   18.3490   -8.2449  -15.8304 C   0  0  2  0  0  0  0  0  0  0  0  0
   17.6111   -9.4612  -15.5447 N   0  0  0  0  0  0  0  0  0  0  0  0
   19.2901   -7.8748  -14.7815 C   0  0  0  0  0  0  0  0  0  0  0  0
   18.9852   -7.9806  -13.5665 O   0  0  0  0  0  0  0  0  0  0  0  0
   22.3167   -9.3496  -13.6373 C   0  0  0  0  0  0  0  0  0  0  0  0
   22.6799   -7.9291  -13.9540 C   0  0  1  0  0  0  0  0  0  0  0  0
   23.4026   -7.9149  -15.2780 C   0  0  0  0  0  0  0  0  0  0  0  0
   21.4559   -7.0442  -13.9641 C   0  0  2  0  0  0  0  0  0  0  0  0
   20.5883   -7.3801  -15.0466 N   0  0  0  0  0  0  0  0  0  0  0  0
   21.9534   -5.6450  -14.2070 C   0  0  0  0  0  0  0  0  0  0  0  0
   22.6461   -5.0263  -13.3593 O   0  0  0  0  0  0  0  0  0  0  0  0
   21.6669   -4.9699  -15.3876 O   0  0  0  0  0  0  0  0  0  0  0  0
  2  3  1  0
  2  1  1  6
  4  3  1  0
  5  2  1  0
  5  6  2  0
  7  8  1  0
  9  8  1  1
  9 10  1  0
 10  5  1  0
 11  9  1  0
 11 17  1  0
 12 11  2  0
 14 13  1  6
 14 15  1  0
 14 16  1  0
 16 17  1  6
 16 18  1  0
 18 19  2  0
 18 20  1  0
M  END
$$$$
