CSV.pdb
     RDKit          3D

 20 19  0  0  1  0  0  0  0  0999 V2000
   18.0337  -13.8125  -18.4665 N   0  0  0  0  0  0  0  0  0  0  0  0
   17.8142  -12.4096  -18.6347 C   0  0  1  0  0  0  0  0  0  0  0  0
   16.5378  -11.9294  -17.9829 C   0  0  0  0  0  0  0  0  0  0  0  0
   15.1462  -12.8133  -18.7527 S   0  0  0  0  0  0  0  0  0  0  0  0
   18.9550  -11.6291  -18.1073 C   0  0  0  0  0  0  0  0  0  0  0  0
   19.4757  -11.9560  -17.0423 O   0  0  0  0  0  0  0  0  0  0  0  0
   20.0255   -7.8535  -19.8185 O   0  0  0  0  0  0  0  0  0  0  0  0
   20.9486   -8.8723  -19.5831 C   0  0  0  0  0  0  0  0  0  0  0  0
   20.5668   -9.7144  -18.3940 C   0  0  2  0  0  0  0  0  0  0  0  0
   19.4398  -10.5264  -18.8136 N   0  0  0  0  0  0  0  0  0  0  0  0
   20.3191   -8.9621  -17.1711 C   0  0  0  0  0  0  0  0  0  0  0  0
   19.1558   -8.6153  -16.8445 O   0  0  0  0  0  0  0  0  0  0  0  0
   21.2174   -7.7809  -12.6213 C   0  0  0  0  0  0  0  0  0  0  0  0
   21.5817   -8.5297  -13.8689 C   0  0  1  0  0  0  0  0  0  0  0  0
   21.0800   -9.9453  -13.7283 C   0  0  0  0  0  0  0  0  0  0  0  0
   21.0237   -7.8471  -15.0952 C   0  0  2  0  0  0  0  0  0  0  0  0
   21.3468   -8.5748  -16.2798 N   0  0  0  0  0  0  0  0  0  0  0  0
   21.7182   -6.5152  -15.1849 C   0  0  0  0  0  0  0  0  0  0  0  0
   22.8512   -6.3876  -15.7153 O   0  0  0  0  0  0  0  0  0  0  0  0
   21.1337   -5.3590  -14.6818 O   0  0  0  0  0  0  0  0  0  0  0  0
  2  3  1  0
  2  1  1  1
  4  3  1  0
  5  2  1  0
  5  6  2  0
  7  8  1  0
  9  8  1  6
  9 10  1  0
 10  5  1  0
 11  9  1  0
 11 17  1  0
 12 11  2  0
 14 13  1  1
 14 15  1  0
 14 16  1  0
 16 17  1  6
 16 18  1  0
 18 19  2  0
 18 20  1  0
M  END
$$$$
