CSV.pdb
     RDKit          3D

 20 19  0  0  1  0  0  0  0  0999 V2000
   13.9029  -11.0102  -14.3897 N   0  0  0  0  0  0  0  0  0  0  0  0
   15.3170  -10.9479  -14.1867 C   0  0  1  0  0  0  0  0  0  0  0  0
   16.0588  -12.0872  -14.8473 C   0  0  0  0  0  0  0  0  0  0  0  0
   15.7544  -13.5950  -13.8758 S   0  0  0  0  0  0  0  0  0  0  0  0
   15.8646   -9.6623  -14.6723 C   0  0  0  0  0  0  0  0  0  0  0  0
   15.6254   -9.2937  -15.8209 O   0  0  0  0  0  0  0  0  0  0  0  0
   16.9020   -5.2587  -14.0401 O   0  0  0  0  0  0  0  0  0  0  0  0
   16.3693   -6.5195  -13.7714 C   0  0  0  0  0  0  0  0  0  0  0  0
   17.2812   -7.6261  -14.2327 C   0  0  2  0  0  0  0  0  0  0  0  0
   16.6494   -8.8695  -13.8325 N   0  0  0  0  0  0  0  0  0  0  0  0
   18.6616   -7.5032  -13.7830 C   0  0  0  0  0  0  0  0  0  0  0  0
   19.0021   -7.8516  -12.6241 O   0  0  0  0  0  0  0  0  0  0  0  0
   23.4260   -7.3467  -14.5860 C   0  0  0  0  0  0  0  0  0  0  0  0
   22.0153   -7.5312  -15.0614 C   0  0  1  0  0  0  0  0  0  0  0  0
   21.7773   -9.0076  -15.2585 C   0  0  0  0  0  0  0  0  0  0  0  0
   21.0308   -6.9202  -14.0925 C   0  0  2  0  0  0  0  0  0  0  0  0
   19.6985   -6.9941  -14.5992 N   0  0  0  0  0  0  0  0  0  0  0  0
   21.3915   -5.4627  -13.9932 C   0  0  0  0  0  0  0  0  0  0  0  0
   20.8861   -4.5968  -14.7523 O   0  0  0  0  0  0  0  0  0  0  0  0
   22.3057   -5.0060  -13.0513 O   0  0  0  0  0  0  0  0  0  0  0  0
  2  3  1  0
  2  1  1  6
  4  3  1  0
  5  2  1  0
  5  6  2  0
  7  8  1  0
  9  8  1  1
  9 10  1  0
 10  5  1  0
 11  9  1  0
 11 17  1  0
 12 11  2  0
 14 13  1  1
 14 15  1  0
 14 16  1  0
 16 17  1  6
 16 18  1  0
 18 19  2  0
 18 20  1  0
M  END
$$$$
