CSV.pdb
     RDKit          3D

 20 19  0  0  1  0  0  0  0  0999 V2000
   18.5690  -12.2914  -16.2242 N   0  0  0  0  0  0  0  0  0  0  0  0
   19.4707  -11.1960  -16.4022 C   0  0  1  0  0  0  0  0  0  0  0  0
   19.5745  -10.7446  -17.8410 C   0  0  0  0  0  0  0  0  0  0  0  0
   17.9067  -10.2923  -18.4102 S   0  0  0  0  0  0  0  0  0  0  0  0
   19.0793  -10.0465  -15.5571 C   0  0  0  0  0  0  0  0  0  0  0  0
   17.9077   -9.9208  -15.2051 O   0  0  0  0  0  0  0  0  0  0  0  0
   19.2762   -7.6543  -11.9306 O   0  0  0  0  0  0  0  0  0  0  0  0
   19.3845   -8.6133  -12.9377 C   0  0  0  0  0  0  0  0  0  0  0  0
   19.7705   -8.0013  -14.2588 C   0  0  2  0  0  0  0  0  0  0  0  0
   20.0336   -9.1076  -15.1600 N   0  0  0  0  0  0  0  0  0  0  0  0
   20.8604   -7.0371  -14.1866 C   0  0  0  0  0  0  0  0  0  0  0  0
   22.0345   -7.4006  -13.9224 O   0  0  0  0  0  0  0  0  0  0  0  0
   22.3660   -5.2798  -16.8590 C   0  0  0  0  0  0  0  0  0  0  0  0
   21.9675   -4.2189  -15.8763 C   0  0  1  0  0  0  0  0  0  0  0  0
   20.6911   -3.5821  -16.3671 C   0  0  0  0  0  0  0  0  0  0  0  0
   21.8198   -4.7926  -14.4870 C   0  0  2  0  0  0  0  0  0  0  0  0
   20.6825   -5.6510  -14.4040 N   0  0  0  0  0  0  0  0  0  0  0  0
   21.5644   -3.6223  -13.5762 C   0  0  0  0  0  0  0  0  0  0  0  0
   20.4139   -3.3465  -13.1505 O   0  0  0  0  0  0  0  0  0  0  0  0
   22.5967   -2.7886  -13.1625 O   0  0  0  0  0  0  0  0  0  0  0  0
  2  3  1  0
  2  1  1  6
  4  3  1  0
  5  2  1  0
  5  6  2  0
  7  8  1  0
  9  8  1  1
  9 10  1  0
 10  5  1  0
 11  9  1  0
 11 17  1  0
 12 11  2  0
 14 13  1  6
 14 15  1  0
 14 16  1  0
 16 17  1  6
 16 18  1  0
 18 19  2  0
 18 20  1  0
M  END
$$$$
