QTM.pdb
     RDKit          3D

 25 24  0  0  1  0  0  0  0  0999 V2000
    9.0621  -12.1904   18.4553 N   0  0  0  0  0  0  0  0  0  0  0  0
    8.4639  -12.9822   17.4376 C   0  0  0  0  0  0  0  0  0  0  0  0
    9.0122  -12.9786   16.3117 O   0  0  0  0  0  0  0  0  0  0  0  0
    7.2195  -13.7886   17.7175 C   0  0  0  0  0  0  0  0  0  0  0  0
    7.1995  -14.0454   19.1762 C   0  0  0  0  0  0  0  0  0  0  0  0
    8.3636  -14.8387   19.7202 C   0  0  2  0  0  0  0  0  0  0  0  0
    8.7468  -15.8110   18.6697 N   0  0  0  0  0  0  0  0  0  0  0  0
    8.0773  -15.6053   20.9330 C   0  0  0  0  0  0  0  0  0  0  0  0
    7.0613  -15.3195   21.6213 O   0  0  0  0  0  0  0  0  0  0  0  0
    9.0049  -19.5785   23.7877 C   0  0  0  0  0  0  0  0  0  0  0  0
    9.2515  -18.7203   22.5902 C   0  0  1  0  0  0  0  0  0  0  0  0
    8.6557  -19.3837   21.4915 O   0  0  0  0  0  0  0  0  0  0  0  0
    8.5452  -17.3846   22.6770 C   0  0  2  0  0  0  0  0  0  0  0  0
    8.8553  -16.6839   21.4361 N   0  0  0  0  0  0  0  0  0  0  0  0
    9.0400  -16.6425   23.8594 C   0  0  0  0  0  0  0  0  0  0  0  0
   10.2271  -16.2779   24.0034 O   0  0  0  0  0  0  0  0  0  0  0  0
    6.8483  -10.9026   26.5217 C   0  0  0  0  0  0  0  0  0  0  0  0
    6.7750  -12.6188   25.9102 S   0  0  0  0  0  0  0  0  0  0  0  0
    7.4592  -13.7123   27.1946 C   0  0  0  0  0  0  0  0  0  0  0  0
    7.3908  -15.1487   26.8036 C   0  0  0  0  0  0  0  0  0  0  0  0
    8.6173  -15.6750   26.1026 C   0  0  2  0  0  0  0  0  0  0  0  0
    8.1235  -16.3237   24.8891 N   0  0  0  0  0  0  0  0  0  0  0  0
    9.3124  -16.6171   26.9820 C   0  0  0  0  0  0  0  0  0  0  0  0
   10.3678  -16.1311   27.7563 O   0  0  0  0  0  0  0  0  0  0  0  0
    8.9539  -17.8199   27.0228 O   0  0  0  0  0  0  0  0  0  0  0  0
  1  2  1  0
  2  4  1  0
  3  2  2  0
  4  5  1  0
  6  8  1  0
  6  7  1  6
  6  5  1  0
  8  9  2  0
 11 10  1  1
 11 12  1  0
 11 13  1  0
 13 15  1  0
 13 14  1  6
 14  8  1  0
 15 22  1  0
 15 16  2  0
 17 18  1  0
 19 18  1  0
 20 19  1  0
 21 20  1  1
 21 23  1  0
 22 21  1  0
 23 25  2  0
 23 24  1  0
M  END
$$$$
