QTM.pdb
     RDKit          3D

 25 24  0  0  1  0  0  0  0  0999 V2000
    8.1678  -12.9652   16.1969 N   0  0  0  0  0  0  0  0  0  0  0  0
    7.8853  -14.3437   15.9950 C   0  0  0  0  0  0  0  0  0  0  0  0
    7.2147  -14.6492   14.9825 O   0  0  0  0  0  0  0  0  0  0  0  0
    8.3799  -15.3843   16.9695 C   0  0  0  0  0  0  0  0  0  0  0  0
    9.0757  -14.6535   18.0539 C   0  0  0  0  0  0  0  0  0  0  0  0
    9.5749  -15.4987   19.2014 C   0  0  2  0  0  0  0  0  0  0  0  0
    9.6732  -16.8888   18.6977 N   0  0  0  0  0  0  0  0  0  0  0  0
    8.7017  -15.5265   20.3751 C   0  0  0  0  0  0  0  0  0  0  0  0
    8.3000  -14.4416   20.8745 O   0  0  0  0  0  0  0  0  0  0  0  0
    5.9456  -18.4345   21.2128 C   0  0  0  0  0  0  0  0  0  0  0  0
    6.8154  -18.0545   22.3663 C   0  0  1  0  0  0  0  0  0  0  0  0
    7.9313  -18.9239   22.3309 O   0  0  0  0  0  0  0  0  0  0  0  0
    7.3928  -16.6627   22.2250 C   0  0  2  0  0  0  0  0  0  0  0  0
    8.2383  -16.6964   21.0372 N   0  0  0  0  0  0  0  0  0  0  0  0
    8.1724  -16.3281   23.4389 C   0  0  0  0  0  0  0  0  0  0  0  0
    9.4045  -16.5114   23.5451 O   0  0  0  0  0  0  0  0  0  0  0  0
    5.8417  -11.5802   27.0119 C   0  0  0  0  0  0  0  0  0  0  0  0
    7.6144  -11.5706   27.4383 S   0  0  0  0  0  0  0  0  0  0  0  0
    8.2675  -13.2534   27.2031 C   0  0  0  0  0  0  0  0  0  0  0  0
    7.6754  -13.9237   26.0110 C   0  0  0  0  0  0  0  0  0  0  0  0
    8.2700  -15.2685   25.6783 C   0  0  2  0  0  0  0  0  0  0  0  0
    7.4919  -15.7683   24.5460 N   0  0  0  0  0  0  0  0  0  0  0  0
    8.1650  -16.1477   26.8445 C   0  0  0  0  0  0  0  0  0  0  0  0
    9.1272  -16.0194   27.8481 O   0  0  0  0  0  0  0  0  0  0  0  0
    7.2308  -16.9836   26.9189 O   0  0  0  0  0  0  0  0  0  0  0  0
  1  2  1  0
  2  4  1  0
  3  2  2  0
  4  5  1  0
  6  8  1  0
  6  7  1  6
  6  5  1  0
  8  9  2  0
 11 10  1  6
 11 12  1  0
 11 13  1  0
 13 15  1  0
 13 14  1  6
 14  8  1  0
 15 22  1  0
 15 16  2  0
 17 18  1  0
 19 18  1  0
 20 19  1  0
 21 20  1  1
 21 23  1  0
 22 21  1  0
 23 25  2  0
 23 24  1  0
M  END
$$$$
