QTM.pdb
     RDKit          3D

 25 24  0  0  1  0  0  0  0  0999 V2000
    7.6896  -12.6643   15.4374 N   0  0  0  0  0  0  0  0  0  0  0  0
    7.6821  -14.0726   15.2437 C   0  0  0  0  0  0  0  0  0  0  0  0
    7.3766  -14.4928   14.1043 O   0  0  0  0  0  0  0  0  0  0  0  0
    8.0299  -15.0097   16.3741 C   0  0  0  0  0  0  0  0  0  0  0  0
    8.2348  -14.1678   17.5755 C   0  0  0  0  0  0  0  0  0  0  0  0
    9.2395  -14.6850   18.5773 C   0  0  2  0  0  0  0  0  0  0  0  0
    9.8843  -15.8697   17.9639 N   0  0  0  0  0  0  0  0  0  0  0  0
    8.6731  -15.1162   19.8555 C   0  0  0  0  0  0  0  0  0  0  0  0
    7.9206  -14.3339   20.4953 O   0  0  0  0  0  0  0  0  0  0  0  0
    7.7536  -19.0372   20.6863 C   0  0  0  0  0  0  0  0  0  0  0  0
    8.4171  -18.2916   21.7978 C   0  0  1  0  0  0  0  0  0  0  0  0
    9.8094  -18.4862   21.6364 O   0  0  0  0  0  0  0  0  0  0  0  0
    8.2119  -16.7955   21.6977 C   0  0  2  0  0  0  0  0  0  0  0  0
    8.8897  -16.3771   20.4760 N   0  0  0  0  0  0  0  0  0  0  0  0
    8.7896  -16.1388   22.8929 C   0  0  0  0  0  0  0  0  0  0  0  0
   10.0008  -15.8519   23.0102 O   0  0  0  0  0  0  0  0  0  0  0  0
    6.6374  -10.7420   28.0494 C   0  0  0  0  0  0  0  0  0  0  0  0
    6.1841  -11.8804   26.6991 S   0  0  0  0  0  0  0  0  0  0  0  0
    7.5428  -13.0710   26.4756 C   0  0  0  0  0  0  0  0  0  0  0  0
    7.3270  -13.9536   25.2944 C   0  0  0  0  0  0  0  0  0  0  0  0
    8.4261  -14.9537   25.0400 C   0  0  2  0  0  0  0  0  0  0  0  0
    7.9287  -15.8139   23.9677 N   0  0  0  0  0  0  0  0  0  0  0  0
    8.6903  -15.7073   26.2674 C   0  0  0  0  0  0  0  0  0  0  0  0
    9.4775  -15.1020   27.2490 O   0  0  0  0  0  0  0  0  0  0  0  0
    8.2139  -16.8601   26.4115 O   0  0  0  0  0  0  0  0  0  0  0  0
  1  2  1  0
  2  4  1  0
  3  2  2  0
  4  5  1  0
  6  8  1  0
  6  7  1  6
  6  5  1  0
  8  9  2  0
 11 10  1  6
 11 12  1  0
 11 13  1  0
 13 15  1  0
 13 14  1  6
 14  8  1  0
 15 22  1  0
 15 16  2  0
 17 18  1  0
 19 18  1  0
 20 19  1  0
 21 20  1  1
 21 23  1  0
 22 21  1  0
 23 25  2  0
 23 24  1  0
M  END
$$$$
