QTM.pdb
     RDKit          3D

 25 24  0  0  1  0  0  0  0  0999 V2000
   10.4951  -13.0629   19.4515 N   0  0  0  0  0  0  0  0  0  0  0  0
    9.8404  -12.6756   18.2507 C   0  0  0  0  0  0  0  0  0  0  0  0
   10.4758  -11.9372   17.4638 O   0  0  0  0  0  0  0  0  0  0  0  0
    8.4373  -13.1429   17.9505 C   0  0  0  0  0  0  0  0  0  0  0  0
    8.0561  -14.0695   19.0416 C   0  0  0  0  0  0  0  0  0  0  0  0
    8.5667  -15.4846   18.9109 C   0  0  2  0  0  0  0  0  0  0  0  0
    7.8063  -16.1135   17.8055 N   0  0  0  0  0  0  0  0  0  0  0  0
    8.3776  -16.3225   20.0952 C   0  0  0  0  0  0  0  0  0  0  0  0
    7.2238  -16.7408   20.3806 O   0  0  0  0  0  0  0  0  0  0  0  0
   11.4820  -18.1426   22.3302 C   0  0  0  0  0  0  0  0  0  0  0  0
   10.0353  -18.4935   22.4541 C   0  0  1  0  0  0  0  0  0  0  0  0
    9.8449  -18.9483   23.7804 O   0  0  0  0  0  0  0  0  0  0  0  0
    9.1310  -17.2879   22.3149 C   0  0  2  0  0  0  0  0  0  0  0  0
    9.4007  -16.7329   20.9935 N   0  0  0  0  0  0  0  0  0  0  0  0
    9.4402  -16.3147   23.3876 C   0  0  0  0  0  0  0  0  0  0  0  0
   10.4774  -15.6171   23.4142 O   0  0  0  0  0  0  0  0  0  0  0  0
    6.4498  -10.7785   27.7275 C   0  0  0  0  0  0  0  0  0  0  0  0
    6.1710  -12.1622   26.5733 S   0  0  0  0  0  0  0  0  0  0  0  0
    7.6248  -13.2561   26.6313 C   0  0  0  0  0  0  0  0  0  0  0  0
    7.5689  -14.3198   25.5891 C   0  0  0  0  0  0  0  0  0  0  0  0
    8.7989  -15.1869   25.5004 C   0  0  2  0  0  0  0  0  0  0  0  0
    8.5143  -16.1589   24.4460 N   0  0  0  0  0  0  0  0  0  0  0  0
    9.0305  -15.8346   26.7930 C   0  0  0  0  0  0  0  0  0  0  0  0
    9.5984  -15.0702   27.8142 O   0  0  0  0  0  0  0  0  0  0  0  0
    8.7206  -17.0405   26.9560 O   0  0  0  0  0  0  0  0  0  0  0  0
  1  2  1  0
  2  4  1  0
  3  2  2  0
  4  5  1  0
  6  8  1  0
  6  7  1  6
  6  5  1  0
  8  9  2  0
 11 10  1  1
 11 12  1  0
 11 13  1  0
 13 15  1  0
 13 14  1  6
 14  8  1  0
 15 22  1  0
 15 16  2  0
 17 18  1  0
 19 18  1  0
 20 19  1  0
 21 20  1  1
 21 23  1  0
 22 21  1  0
 23 25  2  0
 23 24  1  0
M  END
$$$$
