QTM.pdb
     RDKit          3D

 25 24  0  0  1  0  0  0  0  0999 V2000
    8.4210  -12.5879   17.5847 N   0  0  0  0  0  0  0  0  0  0  0  0
    8.3197  -13.5351   16.5296 C   0  0  0  0  0  0  0  0  0  0  0  0
    7.9986  -13.1021   15.3993 O   0  0  0  0  0  0  0  0  0  0  0  0
    8.5909  -14.9988   16.7769 C   0  0  0  0  0  0  0  0  0  0  0  0
    8.9639  -15.1259   18.2048 C   0  0  0  0  0  0  0  0  0  0  0  0
    9.3735  -16.5073   18.6569 C   0  0  2  0  0  0  0  0  0  0  0  0
    8.7552  -17.4674   17.7127 N   0  0  0  0  0  0  0  0  0  0  0  0
    8.9272  -16.8764   20.0005 C   0  0  0  0  0  0  0  0  0  0  0  0
    7.7036  -17.0932   20.2093 O   0  0  0  0  0  0  0  0  0  0  0  0
    9.7274  -19.8161   21.9046 C   0  0  0  0  0  0  0  0  0  0  0  0
   10.0202  -18.6771   22.8257 C   0  0  1  0  0  0  0  0  0  0  0  0
   11.3863  -18.3557   22.6447 O   0  0  0  0  0  0  0  0  0  0  0  0
    9.2645  -17.4197   22.4536 C   0  0  2  0  0  0  0  0  0  0  0  0
    9.7630  -17.0242   21.1413 N   0  0  0  0  0  0  0  0  0  0  0  0
    9.5192  -16.3737   23.4706 C   0  0  0  0  0  0  0  0  0  0  0  0
   10.4709  -15.5651   23.4117 O   0  0  0  0  0  0  0  0  0  0  0  0
    6.6918  -10.9487   26.0595 C   0  0  0  0  0  0  0  0  0  0  0  0
    6.1916  -12.4728   26.9264 S   0  0  0  0  0  0  0  0  0  0  0  0
    7.6216  -13.5981   26.9741 C   0  0  0  0  0  0  0  0  0  0  0  0
    7.6186  -14.5581   25.8343 C   0  0  0  0  0  0  0  0  0  0  0  0
    8.9179  -15.2917   25.6188 C   0  0  2  0  0  0  0  0  0  0  0  0
    8.6399  -16.2767   24.5749 N   0  0  0  0  0  0  0  0  0  0  0  0
    9.3313  -15.9254   26.8724 C   0  0  0  0  0  0  0  0  0  0  0  0
    9.8403  -15.1060   27.8819 O   0  0  0  0  0  0  0  0  0  0  0  0
    9.2227  -17.1685   27.0136 O   0  0  0  0  0  0  0  0  0  0  0  0
  1  2  1  0
  2  4  1  0
  3  2  2  0
  4  5  1  0
  6  8  1  0
  6  7  1  6
  6  5  1  0
  8  9  2  0
 11 10  1  6
 11 12  1  0
 11 13  1  0
 13 15  1  0
 13 14  1  6
 14  8  1  0
 15 22  1  0
 15 16  2  0
 17 18  1  0
 19 18  1  0
 20 19  1  0
 21 20  1  1
 21 23  1  0
 22 21  1  0
 23 25  2  0
 23 24  1  0
M  END
$$$$
