QTM.pdb
     RDKit          3D

 25 24  0  0  1  0  0  0  0  0999 V2000
    8.3861  -12.1712   18.2614 N   0  0  0  0  0  0  0  0  0  0  0  0
    8.0361  -13.3793   17.5991 C   0  0  0  0  0  0  0  0  0  0  0  0
    8.1239  -13.3946   16.3501 O   0  0  0  0  0  0  0  0  0  0  0  0
    7.5791  -14.5853   18.3826 C   0  0  0  0  0  0  0  0  0  0  0  0
    8.6327  -14.8636   19.3860 C   0  0  0  0  0  0  0  0  0  0  0  0
    8.8274  -16.3165   19.7492 C   0  0  2  0  0  0  0  0  0  0  0  0
    7.8667  -17.0942   18.9320 N   0  0  0  0  0  0  0  0  0  0  0  0
    8.5652  -16.6444   21.1507 C   0  0  0  0  0  0  0  0  0  0  0  0
    7.3748  -16.7439   21.5517 O   0  0  0  0  0  0  0  0  0  0  0  0
    9.3057  -19.5675   23.0822 C   0  0  0  0  0  0  0  0  0  0  0  0
    9.8556  -18.4457   23.9011 C   0  0  1  0  0  0  0  0  0  0  0  0
   11.2201  -18.3222   23.5476 O   0  0  0  0  0  0  0  0  0  0  0  0
    9.2331  -17.1113   23.5512 C   0  0  2  0  0  0  0  0  0  0  0  0
    9.5523  -16.8740   22.1481 N   0  0  0  0  0  0  0  0  0  0  0  0
    9.8022  -16.0591   24.4244 C   0  0  0  0  0  0  0  0  0  0  0  0
   10.9092  -15.5140   24.2237 O   0  0  0  0  0  0  0  0  0  0  0  0
    7.0544  -11.0507   25.5748 C   0  0  0  0  0  0  0  0  0  0  0  0
    6.4716  -12.1084   26.9409 S   0  0  0  0  0  0  0  0  0  0  0  0
    7.3984  -13.6742   26.8861 C   0  0  0  0  0  0  0  0  0  0  0  0
    8.8134  -13.4745   26.4634 C   0  0  0  0  0  0  0  0  0  0  0  0
    9.6690  -14.7150   26.5035 C   0  0  2  0  0  0  0  0  0  0  0  0
    9.0568  -15.6408   25.5519 N   0  0  0  0  0  0  0  0  0  0  0  0
    9.6769  -15.2556   27.8643 C   0  0  0  0  0  0  0  0  0  0  0  0
   10.4247  -14.5805   28.8311 O   0  0  0  0  0  0  0  0  0  0  0  0
    9.0244  -16.2948   28.1312 O   0  0  0  0  0  0  0  0  0  0  0  0
  1  2  1  0
  2  4  1  0
  3  2  2  0
  4  5  1  0
  6  8  1  0
  6  7  1  6
  6  5  1  0
  8  9  2  0
 11 10  1  6
 11 12  1  0
 11 13  1  0
 13 15  1  0
 13 14  1  6
 14  8  1  0
 15 22  1  0
 15 16  2  0
 17 18  1  0
 19 18  1  0
 20 19  1  0
 21 20  1  1
 21 23  1  0
 22 21  1  0
 23 25  2  0
 23 24  1  0
M  END
$$$$
