QTM.pdb
     RDKit          3D

 25 24  0  0  1  0  0  0  0  0999 V2000
   14.4301  -15.0264   20.4302 N   0  0  0  0  0  0  0  0  0  0  0  0
   13.9715  -14.2414   19.3374 C   0  0  0  0  0  0  0  0  0  0  0  0
   14.8106  -13.5079   18.7664 O   0  0  0  0  0  0  0  0  0  0  0  0
   12.5299  -14.3001   18.8954 C   0  0  0  0  0  0  0  0  0  0  0  0
   12.1826  -15.7347   18.7699 C   0  0  0  0  0  0  0  0  0  0  0  0
   10.7387  -16.0358   18.4459 C   0  0  2  0  0  0  0  0  0  0  0  0
   10.3733  -15.1844   17.2895 N   0  0  0  0  0  0  0  0  0  0  0  0
    9.7888  -15.7374   19.5178 C   0  0  0  0  0  0  0  0  0  0  0  0
    9.2207  -14.6130   19.5472 O   0  0  0  0  0  0  0  0  0  0  0  0
    6.8266  -17.9431   20.5798 C   0  0  0  0  0  0  0  0  0  0  0  0
    7.6124  -17.5546   21.7894 C   0  0  1  0  0  0  0  0  0  0  0  0
    8.5703  -18.5764   21.9907 O   0  0  0  0  0  0  0  0  0  0  0  0
    8.4188  -16.2916   21.5776 C   0  0  2  0  0  0  0  0  0  0  0  0
    9.4227  -16.6190   20.5717 N   0  0  0  0  0  0  0  0  0  0  0  0
    9.0432  -15.8862   22.8579 C   0  0  0  0  0  0  0  0  0  0  0  0
   10.2194  -16.1659   23.1760 O   0  0  0  0  0  0  0  0  0  0  0  0
    5.9936  -11.4308   26.2356 C   0  0  0  0  0  0  0  0  0  0  0  0
    7.4822  -11.5212   27.2847 S   0  0  0  0  0  0  0  0  0  0  0  0
    8.3722  -13.0572   26.8820 C   0  0  0  0  0  0  0  0  0  0  0  0
    8.0071  -13.5810   25.5354 C   0  0  0  0  0  0  0  0  0  0  0  0
    8.8928  -14.6881   25.0233 C   0  0  2  0  0  0  0  0  0  0  0  0
    8.2716  -15.1392   23.7792 N   0  0  0  0  0  0  0  0  0  0  0  0
    8.9585  -15.7580   26.0209 C   0  0  0  0  0  0  0  0  0  0  0  0
    9.9041  -15.6423   27.0417 O   0  0  0  0  0  0  0  0  0  0  0  0
    8.1792  -16.7395   25.9416 O   0  0  0  0  0  0  0  0  0  0  0  0
  1  2  1  0
  2  4  1  0
  3  2  2  0
  4  5  1  0
  6  8  1  0
  6  7  1  6
  6  5  1  0
  8  9  2  0
 11 10  1  6
 11 12  1  0
 11 13  1  0
 13 15  1  0
 13 14  1  6
 14  8  1  0
 15 22  1  0
 15 16  2  0
 17 18  1  0
 19 18  1  0
 20 19  1  0
 21 20  1  1
 21 23  1  0
 22 21  1  0
 23 25  2  0
 23 24  1  0
M  END
$$$$
