QTM.pdb
     RDKit          3D

 25 24  0  0  1  0  0  0  0  0999 V2000
   12.1919  -14.6085   20.1872 N   0  0  0  0  0  0  0  0  0  0  0  0
   11.6993  -13.8830   19.0684 C   0  0  0  0  0  0  0  0  0  0  0  0
   12.4737  -13.7339   18.0957 O   0  0  0  0  0  0  0  0  0  0  0  0
   10.2987  -13.3215   19.0677 C   0  0  0  0  0  0  0  0  0  0  0  0
    9.5401  -14.0747   18.0423 C   0  0  0  0  0  0  0  0  0  0  0  0
    9.4503  -15.5671   18.2551 C   0  0  2  0  0  0  0  0  0  0  0  0
    8.6469  -16.1113   17.1353 N   0  0  0  0  0  0  0  0  0  0  0  0
    8.7925  -15.9767   19.4961 C   0  0  0  0  0  0  0  0  0  0  0  0
    7.5717  -15.7149   19.6661 O   0  0  0  0  0  0  0  0  0  0  0  0
    8.7638  -19.4295   20.9959 C   0  0  0  0  0  0  0  0  0  0  0  0
    9.1317  -18.4771   22.0863 C   0  0  1  0  0  0  0  0  0  0  0  0
   10.5457  -18.4359   22.1229 O   0  0  0  0  0  0  0  0  0  0  0  0
    8.7015  -17.0572   21.7875 C   0  0  2  0  0  0  0  0  0  0  0  0
    9.4103  -16.6689   20.5736 N   0  0  0  0  0  0  0  0  0  0  0  0
    9.0589  -16.1844   22.9294 C   0  0  0  0  0  0  0  0  0  0  0  0
   10.1830  -15.6570   23.0749 O   0  0  0  0  0  0  0  0  0  0  0  0
    6.5898  -11.1854   28.2047 C   0  0  0  0  0  0  0  0  0  0  0  0
    6.3185  -12.1113   26.6575 S   0  0  0  0  0  0  0  0  0  0  0  0
    7.1888  -13.7049   26.7857 C   0  0  0  0  0  0  0  0  0  0  0  0
    7.1078  -14.4919   25.5227 C   0  0  0  0  0  0  0  0  0  0  0  0
    8.4183  -15.0657   25.0472 C   0  0  2  0  0  0  0  0  0  0  0  0
    8.0780  -15.9273   23.9162 N   0  0  0  0  0  0  0  0  0  0  0  0
    9.0438  -15.8164   26.1377 C   0  0  0  0  0  0  0  0  0  0  0  0
    9.7511  -15.0980   27.1037 O   0  0  0  0  0  0  0  0  0  0  0  0
    8.9347  -17.0666   26.1831 O   0  0  0  0  0  0  0  0  0  0  0  0
  1  2  1  0
  2  4  1  0
  3  2  2  0
  4  5  1  0
  6  8  1  0
  6  7  1  6
  6  5  1  0
  8  9  2  0
 11 10  1  6
 11 12  1  0
 11 13  1  0
 13 15  1  0
 13 14  1  6
 14  8  1  0
 15 22  1  0
 15 16  2  0
 17 18  1  0
 19 18  1  0
 20 19  1  0
 21 20  1  1
 21 23  1  0
 22 21  1  0
 23 25  2  0
 23 24  1  0
M  END
$$$$
