QTM.pdb
     RDKit          3D

 25 24  0  0  1  0  0  0  0  0999 V2000
   16.1665  -18.5295   18.9084 N   0  0  0  0  0  0  0  0  0  0  0  0
   15.3737  -18.5299   17.7284 C   0  0  0  0  0  0  0  0  0  0  0  0
   15.8677  -19.0579   16.7060 O   0  0  0  0  0  0  0  0  0  0  0  0
   13.9956  -17.9152   17.7235 C   0  0  0  0  0  0  0  0  0  0  0  0
   13.7610  -17.3885   19.0880 C   0  0  0  0  0  0  0  0  0  0  0  0
   12.6079  -18.0065   19.8422 C   0  0  2  0  0  0  0  0  0  0  0  0
   11.6541  -18.5114   18.8268 N   0  0  0  0  0  0  0  0  0  0  0  0
   11.8694  -17.0858   20.7067 C   0  0  0  0  0  0  0  0  0  0  0  0
   12.4468  -16.0598   21.1560 O   0  0  0  0  0  0  0  0  0  0  0  0
    7.9091  -16.0919   20.4758 C   0  0  0  0  0  0  0  0  0  0  0  0
    8.3648  -16.5256   21.8306 C   0  0  1  0  0  0  0  0  0  0  0  0
    8.1702  -17.9259   21.8902 O   0  0  0  0  0  0  0  0  0  0  0  0
    9.8505  -16.3229   22.0365 C   0  0  2  0  0  0  0  0  0  0  0  0
   10.5131  -17.2316   21.1081 N   0  0  0  0  0  0  0  0  0  0  0  0
   10.1988  -16.6317   23.4424 C   0  0  0  0  0  0  0  0  0  0  0  0
   10.7595  -17.6896   23.8025 O   0  0  0  0  0  0  0  0  0  0  0  0
   10.1432  -13.3759   30.6620 C   0  0  0  0  0  0  0  0  0  0  0  0
    9.7614  -13.1955   28.8882 S   0  0  0  0  0  0  0  0  0  0  0  0
   10.2305  -14.7382   28.0434 C   0  0  0  0  0  0  0  0  0  0  0  0
    9.9856  -14.6708   26.5749 C   0  0  0  0  0  0  0  0  0  0  0  0
   10.2842  -15.9426   25.8225 C   0  0  2  0  0  0  0  0  0  0  0  0
    9.8830  -15.6807   24.4413 N   0  0  0  0  0  0  0  0  0  0  0  0
    9.5237  -17.0458   26.4129 C   0  0  0  0  0  0  0  0  0  0  0  0
    8.2651  -17.3307   25.8796 O   0  0  0  0  0  0  0  0  0  0  0  0
   10.0074  -17.7018   27.3682 O   0  0  0  0  0  0  0  0  0  0  0  0
  1  2  1  0
  2  4  1  0
  3  2  2  0
  4  5  1  0
  6  8  1  0
  6  7  1  6
  6  5  1  0
  8  9  2  0
 11 10  1  6
 11 12  1  0
 11 13  1  0
 13 15  1  0
 13 14  1  6
 14  8  1  0
 15 22  1  0
 15 16  2  0
 17 18  1  0
 19 18  1  0
 20 19  1  0
 21 20  1  1
 21 23  1  0
 22 21  1  0
 23 25  2  0
 23 24  1  0
M  END
$$$$
