QTM.pdb
     RDKit          3D

 25 24  0  0  1  0  0  0  0  0999 V2000
   15.3442  -15.6306   20.0449 N   0  0  0  0  0  0  0  0  0  0  0  0
   15.1612  -14.7970   18.9081 C   0  0  0  0  0  0  0  0  0  0  0  0
   16.1470  -14.6317   18.1537 O   0  0  0  0  0  0  0  0  0  0  0  0
   13.8281  -14.1448   18.6350 C   0  0  0  0  0  0  0  0  0  0  0  0
   12.9118  -14.5849   19.7124 C   0  0  0  0  0  0  0  0  0  0  0  0
   11.8054  -15.5231   19.2923 C   0  0  2  0  0  0  0  0  0  0  0  0
   11.3647  -15.0890   17.9458 N   0  0  0  0  0  0  0  0  0  0  0  0
   10.6245  -15.5133   20.1560 C   0  0  0  0  0  0  0  0  0  0  0  0
    9.8912  -14.4892   20.1917 O   0  0  0  0  0  0  0  0  0  0  0  0
    7.9956  -18.4168   20.6573 C   0  0  0  0  0  0  0  0  0  0  0  0
    8.4850  -17.9010   21.9710 C   0  0  1  0  0  0  0  0  0  0  0  0
    9.5872  -18.7107   22.3345 O   0  0  0  0  0  0  0  0  0  0  0  0
    9.0402  -16.4965   21.8735 C   0  0  2  0  0  0  0  0  0  0  0  0
   10.1988  -16.5820   20.9918 N   0  0  0  0  0  0  0  0  0  0  0  0
    9.4183  -16.0222   23.2247 C   0  0  0  0  0  0  0  0  0  0  0  0
   10.5776  -16.0948   23.6868 O   0  0  0  0  0  0  0  0  0  0  0  0
    6.5042  -10.9935   25.6261 C   0  0  0  0  0  0  0  0  0  0  0  0
    6.7341  -11.8388   27.2252 S   0  0  0  0  0  0  0  0  0  0  0  0
    7.9230  -13.1966   26.9877 C   0  0  0  0  0  0  0  0  0  0  0  0
    7.7741  -13.8463   25.6548 C   0  0  0  0  0  0  0  0  0  0  0  0
    8.7903  -14.9184   25.3541 C   0  0  2  0  0  0  0  0  0  0  0  0
    8.4164  -15.4528   24.0457 N   0  0  0  0  0  0  0  0  0  0  0  0
    8.7383  -15.9434   26.3985 C   0  0  0  0  0  0  0  0  0  0  0  0
    9.4981  -15.7398   27.5521 O   0  0  0  0  0  0  0  0  0  0  0  0
    8.0259  -16.9654   26.2407 O   0  0  0  0  0  0  0  0  0  0  0  0
  1  2  1  0
  2  4  1  0
  3  2  2  0
  4  5  1  0
  6  8  1  0
  6  7  1  6
  6  5  1  0
  8  9  2  0
 11 10  1  6
 11 12  1  0
 11 13  1  0
 13 15  1  0
 13 14  1  6
 14  8  1  0
 15 22  1  0
 15 16  2  0
 17 18  1  0
 19 18  1  0
 20 19  1  0
 21 20  1  1
 21 23  1  0
 22 21  1  0
 23 25  2  0
 23 24  1  0
M  END
$$$$
