QTM.pdb
     RDKit          3D

 25 24  0  0  1  0  0  0  0  0999 V2000
    8.1584  -12.8037   17.3352 N   0  0  0  0  0  0  0  0  0  0  0  0
    8.2372  -13.9678   16.5231 C   0  0  0  0  0  0  0  0  0  0  0  0
    7.3463  -14.1239   15.6570 O   0  0  0  0  0  0  0  0  0  0  0  0
    9.3540  -14.9654   16.7091 C   0  0  0  0  0  0  0  0  0  0  0  0
   10.2375  -14.4209   17.7662 C   0  0  0  0  0  0  0  0  0  0  0  0
   10.5150  -15.3422   18.9301 C   0  0  2  0  0  0  0  0  0  0  0  0
   10.4543  -16.7262   18.4042 N   0  0  0  0  0  0  0  0  0  0  0  0
    9.5538  -15.2568   20.0299 C   0  0  0  0  0  0  0  0  0  0  0  0
    9.2648  -14.1299   20.5141 O   0  0  0  0  0  0  0  0  0  0  0  0
    6.3930  -17.8317   20.6341 C   0  0  0  0  0  0  0  0  0  0  0  0
    7.2155  -17.5335   21.8449 C   0  0  1  0  0  0  0  0  0  0  0  0
    8.2330  -18.5158   21.8907 O   0  0  0  0  0  0  0  0  0  0  0  0
    7.9452  -16.2117   21.7407 C   0  0  2  0  0  0  0  0  0  0  0  0
    8.8827  -16.3558   20.6329 N   0  0  0  0  0  0  0  0  0  0  0  0
    8.6470  -15.9355   23.0153 C   0  0  0  0  0  0  0  0  0  0  0  0
    9.8709  -16.1226   23.1887 O   0  0  0  0  0  0  0  0  0  0  0  0
    5.6496  -11.9397   26.7602 C   0  0  0  0  0  0  0  0  0  0  0  0
    7.1178  -12.0445   27.8363 S   0  0  0  0  0  0  0  0  0  0  0  0
    8.1796  -13.3904   27.2241 C   0  0  0  0  0  0  0  0  0  0  0  0
    7.7115  -13.9225   25.9131 C   0  0  0  0  0  0  0  0  0  0  0  0
    8.6026  -14.9722   25.2994 C   0  0  2  0  0  0  0  0  0  0  0  0
    7.8972  -15.4307   24.1038 N   0  0  0  0  0  0  0  0  0  0  0  0
    8.8095  -16.0564   26.2617 C   0  0  0  0  0  0  0  0  0  0  0  0
    8.1180  -17.2521   26.0572 O   0  0  0  0  0  0  0  0  0  0  0  0
    9.5888  -15.8941   27.2328 O   0  0  0  0  0  0  0  0  0  0  0  0
  1  2  1  0
  2  4  1  0
  3  2  2  0
  4  5  1  0
  6  8  1  0
  6  7  1  6
  6  5  1  0
  8  9  2  0
 11 10  1  6
 11 12  1  0
 11 13  1  0
 13 15  1  0
 13 14  1  6
 14  8  1  0
 15 22  1  0
 15 16  2  0
 17 18  1  0
 19 18  1  0
 20 19  1  0
 21 20  1  1
 21 23  1  0
 22 21  1  0
 23 25  2  0
 23 24  1  0
M  END
$$$$
