QTM.pdb
     RDKit          3D

 25 24  0  0  1  0  0  0  0  0999 V2000
   14.3750  -16.2451   18.1270 N   0  0  0  0  0  0  0  0  0  0  0  0
   13.9626  -15.1012   18.8634 C   0  0  0  0  0  0  0  0  0  0  0  0
   14.4116  -14.9750   20.0256 O   0  0  0  0  0  0  0  0  0  0  0  0
   13.0221  -14.0893   18.2561 C   0  0  0  0  0  0  0  0  0  0  0  0
   11.8124  -14.0681   19.1107 C   0  0  0  0  0  0  0  0  0  0  0  0
   10.8292  -15.1921   18.8865 C   0  0  2  0  0  0  0  0  0  0  0  0
   10.0602  -14.8509   17.6667 N   0  0  0  0  0  0  0  0  0  0  0  0
    9.8606  -15.3913   19.9648 C   0  0  0  0  0  0  0  0  0  0  0  0
    8.7717  -14.7575   19.9446 O   0  0  0  0  0  0  0  0  0  0  0  0
    8.1381  -18.4362   20.8951 C   0  0  0  0  0  0  0  0  0  0  0  0
    8.7218  -17.9189   22.1691 C   0  0  1  0  0  0  0  0  0  0  0  0
    9.9851  -18.5399   22.3130 O   0  0  0  0  0  0  0  0  0  0  0  0
    9.0136  -16.4349   22.1142 C   0  0  2  0  0  0  0  0  0  0  0  0
   10.0244  -16.2616   21.0773 N   0  0  0  0  0  0  0  0  0  0  0  0
    9.5057  -15.9812   23.4353 C   0  0  0  0  0  0  0  0  0  0  0  0
   10.7170  -15.8927   23.7321 O   0  0  0  0  0  0  0  0  0  0  0  0
    5.7589  -12.0098   26.3850 C   0  0  0  0  0  0  0  0  0  0  0  0
    7.1358  -11.8738   27.5725 S   0  0  0  0  0  0  0  0  0  0  0  0
    8.2391  -13.3019   27.3336 C   0  0  0  0  0  0  0  0  0  0  0  0
    8.0464  -13.9436   26.0025 C   0  0  0  0  0  0  0  0  0  0  0  0
    9.0270  -15.0421   25.6794 C   0  0  2  0  0  0  0  0  0  0  0  0
    8.5578  -15.6253   24.4237 N   0  0  0  0  0  0  0  0  0  0  0  0
    9.0349  -16.0215   26.7679 C   0  0  0  0  0  0  0  0  0  0  0  0
    9.7735  -15.7189   27.9136 O   0  0  0  0  0  0  0  0  0  0  0  0
    8.3906  -17.0932   26.6533 O   0  0  0  0  0  0  0  0  0  0  0  0
  1  2  1  0
  2  4  1  0
  3  2  2  0
  4  5  1  0
  6  8  1  0
  6  7  1  6
  6  5  1  0
  8  9  2  0
 11 10  1  6
 11 12  1  0
 11 13  1  0
 13 15  1  0
 13 14  1  6
 14  8  1  0
 15 22  1  0
 15 16  2  0
 17 18  1  0
 19 18  1  0
 20 19  1  0
 21 20  1  1
 21 23  1  0
 22 21  1  0
 23 25  2  0
 23 24  1  0
M  END
$$$$
