QTM.pdb
     RDKit          3D

 25 24  0  0  1  0  0  0  0  0999 V2000
    8.8863  -15.6508   15.7478 N   0  0  0  0  0  0  0  0  0  0  0  0
    8.0913  -14.4724   15.7566 C   0  0  0  0  0  0  0  0  0  0  0  0
    7.0566  -14.4735   15.0512 O   0  0  0  0  0  0  0  0  0  0  0  0
    8.4908  -13.2772   16.5868 C   0  0  0  0  0  0  0  0  0  0  0  0
    7.8670  -13.4578   17.9182 C   0  0  0  0  0  0  0  0  0  0  0  0
    8.8124  -13.4363   19.0956 C   0  0  2  0  0  0  0  0  0  0  0  0
   10.1349  -13.8737   18.5903 N   0  0  0  0  0  0  0  0  0  0  0  0
    8.4528  -14.3330   20.1943 C   0  0  0  0  0  0  0  0  0  0  0  0
    7.3473  -14.1831   20.7801 O   0  0  0  0  0  0  0  0  0  0  0  0
    9.2771  -18.2353   20.3362 C   0  0  0  0  0  0  0  0  0  0  0  0
    9.6015  -17.5538   21.6253 C   0  0  1  0  0  0  0  0  0  0  0  0
   10.9653  -17.1838   21.5515 O   0  0  0  0  0  0  0  0  0  0  0  0
    8.8471  -16.2536   21.8012 C   0  0  2  0  0  0  0  0  0  0  0  0
    9.2511  -15.4004   20.6895 N   0  0  0  0  0  0  0  0  0  0  0  0
    9.2026  -15.6515   23.1067 C   0  0  0  0  0  0  0  0  0  0  0  0
   10.2523  -15.0034   23.3095 O   0  0  0  0  0  0  0  0  0  0  0  0
    6.8242  -10.6598   27.0513 C   0  0  0  0  0  0  0  0  0  0  0  0
    6.1663  -12.3478   27.2569 S   0  0  0  0  0  0  0  0  0  0  0  0
    7.5388  -13.5251   27.0478 C   0  0  0  0  0  0  0  0  0  0  0  0
    7.4648  -14.2482   25.7468 C   0  0  0  0  0  0  0  0  0  0  0  0
    8.6205  -15.1755   25.4692 C   0  0  2  0  0  0  0  0  0  0  0  0
    8.3088  -15.8138   24.1914 N   0  0  0  0  0  0  0  0  0  0  0  0
    8.7315  -16.1514   26.5552 C   0  0  0  0  0  0  0  0  0  0  0  0
    9.2545  -15.7155   27.7743 O   0  0  0  0  0  0  0  0  0  0  0  0
    8.3620  -17.3377   26.3739 O   0  0  0  0  0  0  0  0  0  0  0  0
  1  2  1  0
  2  4  1  0
  3  2  2  0
  4  5  1  0
  6  8  1  0
  6  7  1  6
  6  5  1  0
  8  9  2  0
 11 10  1  6
 11 12  1  0
 11 13  1  0
 13 15  1  0
 13 14  1  6
 14  8  1  0
 15 22  1  0
 15 16  2  0
 17 18  1  0
 19 18  1  0
 20 19  1  0
 21 20  1  1
 21 23  1  0
 22 21  1  0
 23 25  2  0
 23 24  1  0
M  END
$$$$
