FFY.pdb
     RDKit          3D

 35 37  0  0  1  0  0  0  0  0999 V2000
   34.6766  -32.4362  -17.0553 N   0  0  0  0  0  0  0  0  0  0  0  0
   33.7461  -32.7551  -18.1171 C   0  0  1  0  0  0  0  0  0  0  0  0
   33.7504  -34.2572  -18.2968 C   0  0  0  0  0  0  0  0  0  0  0  0
   33.6637  -34.5373  -19.7524 C   0  0  0  0  0  0  0  0  0  0  0  0
   34.7859  -34.4397  -20.5468 C   0  0  0  0  0  0  0  0  0  0  0  0
   34.6924  -34.7038  -21.9067 C   0  0  0  0  0  0  0  0  0  0  0  0
   33.4680  -35.0651  -22.4594 C   0  0  0  0  0  0  0  0  0  0  0  0
   32.3407  -35.1659  -21.6764 C   0  0  0  0  0  0  0  0  0  0  0  0
   32.4521  -34.9012  -20.3346 C   0  0  0  0  0  0  0  0  0  0  0  0
   32.3746  -32.3172  -17.7675 C   0  0  0  0  0  0  0  0  0  0  0  0
   31.9899  -32.2828  -16.5898 O   0  0  0  0  0  0  0  0  0  0  0  0
   31.4830  -31.9281  -18.8139 N   0  0  0  0  0  0  0  0  0  0  0  0
   30.1447  -31.3914  -18.5153 C   0  0  1  0  0  0  0  0  0  0  0  0
   29.8193  -30.2586  -19.4416 C   0  0  0  0  0  0  0  0  0  0  0  0
   30.5877  -29.0485  -19.1626 C   0  0  0  0  0  0  0  0  0  0  0  0
   30.1288  -28.2003  -18.1518 C   0  0  0  0  0  0  0  0  0  0  0  0
   30.8290  -27.0569  -17.8436 C   0  0  0  0  0  0  0  0  0  0  0  0
   31.9842  -26.7365  -18.5239 C   0  0  0  0  0  0  0  0  0  0  0  0
   32.4313  -27.5737  -19.5165 C   0  0  0  0  0  0  0  0  0  0  0  0
   31.7289  -28.7183  -19.8236 C   0  0  0  0  0  0  0  0  0  0  0  0
   29.1776  -32.4857  -18.7082 C   0  0  0  0  0  0  0  0  0  0  0  0
   27.9567  -32.3781  -18.4253 O   0  0  0  0  0  0  0  0  0  0  0  0
   25.3374  -30.7364  -23.1588 O   0  0  0  0  0  0  0  0  0  0  0  0
   26.0868  -31.7663  -22.6073 C   0  0  0  0  0  0  0  0  0  0  0  0
   27.4404  -31.8101  -22.8678 C   0  0  0  0  0  0  0  0  0  0  0  0
   28.1974  -32.8207  -22.3312 C   0  0  0  0  0  0  0  0  0  0  0  0
   27.6351  -33.8037  -21.5304 C   0  0  0  0  0  0  0  0  0  0  0  0
   28.4339  -34.8862  -20.9594 C   0  0  0  0  0  0  0  0  0  0  0  0
   28.6350  -34.7679  -19.4636 C   0  0  2  0  0  0  0  0  0  0  0  0
   29.6160  -33.7243  -19.2339 N   0  0  0  0  0  0  0  0  0  0  0  0
   29.1079  -35.9980  -18.8220 C   0  0  0  0  0  0  0  0  0  0  0  0
   28.4013  -37.1705  -18.9681 O   0  0  0  0  0  0  0  0  0  0  0  0
   26.2826  -33.7409  -21.2835 C   0  0  0  0  0  0  0  0  0  0  0  0
   25.4886  -32.7244  -21.8161 C   0  0  0  0  0  0  0  0  0  0  0  0
   30.1531  -36.0018  -18.1367 O   0  0  0  0  0  0  0  0  0  0  0  0
  2  1  1  1
  2  3  1  0
  3  4  1  0
  4  9  1  0
  4  5  2  0
  5  6  1  0
  6  7  2  0
  8  7  1  0
  9  8  2  0
 10 12  1  0
 10  2  1  0
 11 10  2  0
 13 12  1  0
 13 21  1  0
 13 14  1  6
 15 20  1  0
 15 14  1  0
 16 15  2  0
 17 18  2  0
 17 16  1  0
 18 19  1  0
 19 20  2  0
 21 22  2  0
 23 24  1  0
 24 25  2  0
 24 34  1  0
 25 26  1  0
 26 27  2  0
 27 28  1  0
 29 31  1  0
 29 28  1  6
 30 21  1  0
 30 29  1  0
 31 32  1  0
 33 27  1  0
 34 33  2  0
 35 31  2  0
M  END
$$$$
