FFY.pdb
     RDKit          3D

 35 37  0  0  1  0  0  0  0  0999 V2000
   25.8622  -18.9341  -20.1448 N   0  0  0  0  0  0  0  0  0  0  0  0
   24.9619  -18.1124  -19.3642 C   0  0  1  0  0  0  0  0  0  0  0  0
   23.6983  -17.9182  -20.1729 C   0  0  0  0  0  0  0  0  0  0  0  0
   23.9523  -16.8310  -21.1519 C   0  0  0  0  0  0  0  0  0  0  0  0
   24.3812  -17.1304  -22.4271 C   0  0  0  0  0  0  0  0  0  0  0  0
   24.6156  -16.1053  -23.3336 C   0  0  0  0  0  0  0  0  0  0  0  0
   24.4165  -14.7828  -22.9503 C   0  0  0  0  0  0  0  0  0  0  0  0
   23.9884  -14.4715  -21.6799 C   0  0  0  0  0  0  0  0  0  0  0  0
   23.7619  -15.4977  -20.7976 C   0  0  0  0  0  0  0  0  0  0  0  0
   24.6163  -18.7750  -18.0850 C   0  0  0  0  0  0  0  0  0  0  0  0
   24.6281  -20.0095  -17.9751 O   0  0  0  0  0  0  0  0  0  0  0  0
   24.2633  -17.9687  -16.9595 N   0  0  0  0  0  0  0  0  0  0  0  0
   23.9902  -18.5723  -15.6445 C   0  0  1  0  0  0  0  0  0  0  0  0
   24.9387  -18.0329  -14.6167 C   0  0  0  0  0  0  0  0  0  0  0  0
   26.2647  -18.6410  -14.6822 C   0  0  0  0  0  0  0  0  0  0  0  0
   26.5512  -19.6833  -13.7973 C   0  0  0  0  0  0  0  0  0  0  0  0
   27.7822  -20.2966  -13.8333 C   0  0  0  0  0  0  0  0  0  0  0  0
   28.7413  -19.8928  -14.7371 C   0  0  0  0  0  0  0  0  0  0  0  0
   28.4547  -18.8679  -15.6050 C   0  0  0  0  0  0  0  0  0  0  0  0
   27.2215  -18.2550  -15.5676 C   0  0  0  0  0  0  0  0  0  0  0  0
   22.6070  -18.2229  -15.2776 C   0  0  0  0  0  0  0  0  0  0  0  0
   22.0741  -17.1253  -15.5836 O   0  0  0  0  0  0  0  0  0  0  0  0
   19.2312  -23.6820  -18.4494 O   0  0  0  0  0  0  0  0  0  0  0  0
   19.3895  -22.4653  -17.8006 C   0  0  0  0  0  0  0  0  0  0  0  0
   18.4570  -22.0960  -16.8540 C   0  0  0  0  0  0  0  0  0  0  0  0
   18.5970  -20.8969  -16.2022 C   0  0  0  0  0  0  0  0  0  0  0  0
   19.6559  -20.0425  -16.4713 C   0  0  0  0  0  0  0  0  0  0  0  0
   19.8091  -18.7613  -15.7849 C   0  0  0  0  0  0  0  0  0  0  0  0
   20.4019  -18.8835  -14.3973 C   0  0  2  0  0  0  0  0  0  0  0  0
   21.8207  -19.1458  -14.5477 N   0  0  0  0  0  0  0  0  0  0  0  0
   19.8160  -19.9544  -13.5861 C   0  0  0  0  0  0  0  0  0  0  0  0
   18.4989  -19.8825  -13.1918 O   0  0  0  0  0  0  0  0  0  0  0  0
   20.5747  -20.4305  -17.4195 C   0  0  0  0  0  0  0  0  0  0  0  0
   20.4572  -21.6445  -18.0977 C   0  0  0  0  0  0  0  0  0  0  0  0
   20.4984  -20.9434  -13.2416 O   0  0  0  0  0  0  0  0  0  0  0  0
  2  1  1  6
  2  3  1  0
  3  4  1  0
  4  9  1  0
  4  5  2  0
  5  6  1  0
  6  7  2  0
  8  7  1  0
  9  8  2  0
 10 12  1  0
 10  2  1  0
 11 10  2  0
 13 12  1  0
 13 21  1  0
 13 14  1  1
 15 20  1  0
 15 14  1  0
 16 15  2  0
 17 18  2  0
 17 16  1  0
 18 19  1  0
 19 20  2  0
 21 22  2  0
 23 24  1  0
 24 25  2  0
 24 34  1  0
 25 26  1  0
 26 27  2  0
 27 28  1  0
 29 31  1  0
 29 28  1  6
 30 21  1  0
 30 29  1  0
 31 32  1  0
 33 27  1  0
 34 33  2  0
 35 31  2  0
M  END
$$$$
