FFY.pdb
     RDKit          3D

 35 37  0  0  1  0  0  0  0  0999 V2000
   31.6288  -25.0774  -16.5013 N   0  0  0  0  0  0  0  0  0  0  0  0
   30.6547  -24.9008  -17.5572 C   0  0  1  0  0  0  0  0  0  0  0  0
   30.2944  -26.2721  -18.0848 C   0  0  0  0  0  0  0  0  0  0  0  0
   31.4439  -26.7630  -18.8863 C   0  0  0  0  0  0  0  0  0  0  0  0
   31.6997  -26.2317  -20.1321 C   0  0  0  0  0  0  0  0  0  0  0  0
   32.7774  -26.6990  -20.8724 C   0  0  0  0  0  0  0  0  0  0  0  0
   33.5923  -27.6999  -20.3531 C   0  0  0  0  0  0  0  0  0  0  0  0
   33.3468  -28.2381  -19.1105 C   0  0  0  0  0  0  0  0  0  0  0  0
   32.2774  -27.7639  -18.3934 C   0  0  0  0  0  0  0  0  0  0  0  0
   29.4290  -24.2473  -17.0418 C   0  0  0  0  0  0  0  0  0  0  0  0
   29.1955  -24.1833  -15.8263 O   0  0  0  0  0  0  0  0  0  0  0  0
   28.5020  -23.6815  -17.9704 N   0  0  0  0  0  0  0  0  0  0  0  0
   27.2859  -22.9912  -17.5092 C   0  0  1  0  0  0  0  0  0  0  0  0
   27.0170  -21.7861  -18.3592 C   0  0  0  0  0  0  0  0  0  0  0  0
   27.8783  -20.6515  -18.0376 C   0  0  0  0  0  0  0  0  0  0  0  0
   29.1269  -20.5806  -18.6603 C   0  0  0  0  0  0  0  0  0  0  0  0
   29.9655  -19.5215  -18.3998 C   0  0  0  0  0  0  0  0  0  0  0  0
   29.5865  -18.5242  -17.5270 C   0  0  0  0  0  0  0  0  0  0  0  0
   28.3580  -18.5985  -16.9176 C   0  0  0  0  0  0  0  0  0  0  0  0
   27.5195  -19.6597  -17.1799 C   0  0  0  0  0  0  0  0  0  0  0  0
   26.1674  -23.9426  -17.6262 C   0  0  0  0  0  0  0  0  0  0  0  0
   25.8931  -24.5486  -18.6938 O   0  0  0  0  0  0  0  0  0  0  0  0
   19.6313  -29.3173  -15.2517 O   0  0  0  0  0  0  0  0  0  0  0  0
   20.7390  -28.4818  -15.2863 C   0  0  0  0  0  0  0  0  0  0  0  0
   21.8457  -28.8825  -16.0050 C   0  0  0  0  0  0  0  0  0  0  0  0
   22.9500  -28.0696  -16.0507 C   0  0  0  0  0  0  0  0  0  0  0  0
   22.9830  -26.8504  -15.3905 C   0  0  0  0  0  0  0  0  0  0  0  0
   24.1574  -25.9813  -15.4303 C   0  0  0  0  0  0  0  0  0  0  0  0
   24.2178  -25.0989  -16.6589 C   0  0  2  0  0  0  0  0  0  0  0  0
   25.3491  -24.2045  -16.5018 N   0  0  0  0  0  0  0  0  0  0  0  0
   23.0148  -24.2907  -16.8776 C   0  0  0  0  0  0  0  0  0  0  0  0
   21.9731  -24.7888  -17.6274 O   0  0  0  0  0  0  0  0  0  0  0  0
   21.8680  -26.4700  -14.6792 C   0  0  0  0  0  0  0  0  0  0  0  0
   20.7311  -27.2767  -14.6155 C   0  0  0  0  0  0  0  0  0  0  0  0
   22.9163  -23.1440  -16.3901 O   0  0  0  0  0  0  0  0  0  0  0  0
  2  1  1  1
  2  3  1  0
  3  4  1  0
  4  9  1  0
  4  5  2  0
  5  6  1  0
  6  7  2  0
  8  7  1  0
  9  8  2  0
 10 12  1  0
 10  2  1  0
 11 10  2  0
 13 12  1  0
 13 21  1  0
 13 14  1  6
 15 20  1  0
 15 14  1  0
 16 15  2  0
 17 18  2  0
 17 16  1  0
 18 19  1  0
 19 20  2  0
 21 22  2  0
 23 24  1  0
 24 25  2  0
 24 34  1  0
 25 26  1  0
 26 27  2  0
 27 28  1  0
 29 31  1  0
 29 28  1  1
 30 21  1  0
 30 29  1  0
 31 32  1  0
 33 27  1  0
 34 33  2  0
 35 31  2  0
M  END
$$$$
