FFY.pdb
     RDKit          3D

 35 37  0  0  1  0  0  0  0  0999 V2000
   28.5462  -30.1466  -22.7892 N   0  0  0  0  0  0  0  0  0  0  0  0
   27.3821  -29.2872  -22.7544 C   0  0  1  0  0  0  0  0  0  0  0  0
   26.3550  -29.9400  -21.8559 C   0  0  0  0  0  0  0  0  0  0  0  0
   25.6016  -30.9245  -22.6734 C   0  0  0  0  0  0  0  0  0  0  0  0
   24.4941  -30.5283  -23.3918 C   0  0  0  0  0  0  0  0  0  0  0  0
   23.7976  -31.4579  -24.1524 C   0  0  0  0  0  0  0  0  0  0  0  0
   24.2210  -32.7827  -24.1852 C   0  0  0  0  0  0  0  0  0  0  0  0
   25.3254  -33.1901  -23.4721 C   0  0  0  0  0  0  0  0  0  0  0  0
   26.0011  -32.2575  -22.7261 C   0  0  0  0  0  0  0  0  0  0  0  0
   27.7246  -27.9552  -22.2036 C   0  0  0  0  0  0  0  0  0  0  0  0
   28.6378  -27.8151  -21.3774 O   0  0  0  0  0  0  0  0  0  0  0  0
   26.9832  -26.8136  -22.6380 N   0  0  0  0  0  0  0  0  0  0  0  0
   27.2634  -25.4721  -22.0993 C   0  0  1  0  0  0  0  0  0  0  0  0
   27.3045  -24.4639  -23.2078 C   0  0  0  0  0  0  0  0  0  0  0  0
   27.4802  -23.0940  -22.7334 C   0  0  0  0  0  0  0  0  0  0  0  0
   28.7841  -22.6160  -22.5823 C   0  0  0  0  0  0  0  0  0  0  0  0
   28.9979  -21.3265  -22.1530 C   0  0  0  0  0  0  0  0  0  0  0  0
   27.9351  -20.4962  -21.8685 C   0  0  0  0  0  0  0  0  0  0  0  0
   26.6552  -20.9709  -22.0187 C   0  0  0  0  0  0  0  0  0  0  0  0
   26.4431  -22.2623  -22.4489 C   0  0  0  0  0  0  0  0  0  0  0  0
   26.1773  -25.1376  -21.1621 C   0  0  0  0  0  0  0  0  0  0  0  0
   24.9669  -25.3826  -21.4013 O   0  0  0  0  0  0  0  0  0  0  0  0
   28.2369  -29.1251  -16.1297 O   0  0  0  0  0  0  0  0  0  0  0  0
   27.3749  -28.2204  -16.7336 C   0  0  0  0  0  0  0  0  0  0  0  0
   26.7421  -28.5907  -17.9017 C   0  0  0  0  0  0  0  0  0  0  0  0
   25.8864  -27.7095  -18.5130 C   0  0  0  0  0  0  0  0  0  0  0  0
   25.6399  -26.4508  -17.9853 C   0  0  0  0  0  0  0  0  0  0  0  0
   24.7337  -25.5048  -18.6333 C   0  0  0  0  0  0  0  0  0  0  0  0
   25.3954  -24.1996  -19.0214 C   0  0  2  0  0  0  0  0  0  0  0  0
   26.4823  -24.5118  -19.9299 N   0  0  0  0  0  0  0  0  0  0  0  0
   25.9395  -23.4426  -17.8904 C   0  0  0  0  0  0  0  0  0  0  0  0
   25.0989  -22.9551  -16.9152 O   0  0  0  0  0  0  0  0  0  0  0  0
   26.2820  -26.1018  -16.8191 C   0  0  0  0  0  0  0  0  0  0  0  0
   27.1573  -26.9779  -16.1760 C   0  0  0  0  0  0  0  0  0  0  0  0
   27.1673  -23.2289  -17.7942 O   0  0  0  0  0  0  0  0  0  0  0  0
  2  1  1  1
  2  3  1  0
  3  4  1  0
  4  9  1  0
  4  5  2  0
  5  6  1  0
  6  7  2  0
  8  7  1  0
  9  8  2  0
 10 12  1  0
 10  2  1  0
 11 10  2  0
 13 12  1  0
 13 21  1  0
 13 14  1  6
 15 20  1  0
 15 14  1  0
 16 15  2  0
 17 18  2  0
 17 16  1  0
 18 19  1  0
 19 20  2  0
 21 22  2  0
 23 24  1  0
 24 25  2  0
 24 34  1  0
 25 26  1  0
 26 27  2  0
 27 28  1  0
 29 31  1  0
 29 28  1  1
 30 21  1  0
 30 29  1  0
 31 32  1  0
 33 27  1  0
 34 33  2  0
 35 31  2  0
M  END
$$$$
