FFY.pdb
     RDKit          3D

 35 37  0  0  1  0  0  0  0  0999 V2000
   29.1822  -25.1879  -18.6071 N   0  0  0  0  0  0  0  0  0  0  0  0
   27.8728  -24.5988  -18.4250 C   0  0  1  0  0  0  0  0  0  0  0  0
   26.8819  -25.7272  -18.2430 C   0  0  0  0  0  0  0  0  0  0  0  0
   26.5322  -26.2420  -19.5912 C   0  0  0  0  0  0  0  0  0  0  0  0
   25.6320  -25.5617  -20.3827 C   0  0  0  0  0  0  0  0  0  0  0  0
   25.3128  -26.0529  -21.6416 C   0  0  0  0  0  0  0  0  0  0  0  0
   25.9027  -27.2278  -22.0965 C   0  0  0  0  0  0  0  0  0  0  0  0
   26.8030  -27.9158  -21.3153 C   0  0  0  0  0  0  0  0  0  0  0  0
   27.1063  -27.4153  -20.0742 C   0  0  0  0  0  0  0  0  0  0  0  0
   27.8442  -23.7357  -17.2211 C   0  0  0  0  0  0  0  0  0  0  0  0
   28.5738  -23.9658  -16.2460 O   0  0  0  0  0  0  0  0  0  0  0  0
   26.9552  -22.6175  -17.1904 N   0  0  0  0  0  0  0  0  0  0  0  0
   27.0898  -21.5640  -16.1705 C   0  0  1  0  0  0  0  0  0  0  0  0
   26.9539  -20.2101  -16.7993 C   0  0  0  0  0  0  0  0  0  0  0  0
   26.8975  -19.1255  -15.8231 C   0  0  0  0  0  0  0  0  0  0  0  0
   28.1056  -18.5994  -15.3588 C   0  0  0  0  0  0  0  0  0  0  0  0
   28.1012  -17.5662  -14.4504 C   0  0  0  0  0  0  0  0  0  0  0  0
   26.9128  -17.0410  -13.9904 C   0  0  0  0  0  0  0  0  0  0  0  0
   25.7279  -17.5616  -14.4499 C   0  0  0  0  0  0  0  0  0  0  0  0
   25.7342  -18.5961  -15.3597 C   0  0  0  0  0  0  0  0  0  0  0  0
   26.0143  -21.7652  -15.1842 C   0  0  0  0  0  0  0  0  0  0  0  0
   24.8210  -21.9944  -15.5096 O   0  0  0  0  0  0  0  0  0  0  0  0
   26.7631  -17.7368   -8.2001 O   0  0  0  0  0  0  0  0  0  0  0  0
   26.5143  -18.8368   -9.0091 C   0  0  0  0  0  0  0  0  0  0  0  0
   27.5121  -19.2724   -9.8556 C   0  0  0  0  0  0  0  0  0  0  0  0
   27.2845  -20.3583  -10.6627 C   0  0  0  0  0  0  0  0  0  0  0  0
   26.0725  -21.0325  -10.6498 C   0  0  0  0  0  0  0  0  0  0  0  0
   25.8207  -22.1868  -11.5102 C   0  0  0  0  0  0  0  0  0  0  0  0
   25.2205  -21.8240  -12.8518 C   0  0  2  0  0  0  0  0  0  0  0  0
   26.3101  -21.7026  -13.8017 N   0  0  0  0  0  0  0  0  0  0  0  0
   24.4638  -20.5688  -12.8515 C   0  0  0  0  0  0  0  0  0  0  0  0
   23.1012  -20.5820  -12.6549 O   0  0  0  0  0  0  0  0  0  0  0  0
   25.0907  -20.5809   -9.7976 C   0  0  0  0  0  0  0  0  0  0  0  0
   25.2947  -19.4792   -8.9657 C   0  0  0  0  0  0  0  0  0  0  0  0
   25.0398  -19.4737  -13.0286 O   0  0  0  0  0  0  0  0  0  0  0  0
  2  1  1  1
  2  3  1  0
  3  4  1  0
  4  9  1  0
  4  5  2  0
  5  6  1  0
  6  7  2  0
  8  7  1  0
  9  8  2  0
 10 12  1  0
 10  2  1  0
 11 10  2  0
 13 12  1  0
 13 21  1  0
 13 14  1  6
 15 20  1  0
 15 14  1  0
 16 15  2  0
 17 18  2  0
 17 16  1  0
 18 19  1  0
 19 20  2  0
 21 22  2  0
 23 24  1  0
 24 25  2  0
 24 34  1  0
 25 26  1  0
 26 27  2  0
 27 28  1  0
 29 31  1  0
 29 28  1  1
 30 21  1  0
 30 29  1  0
 31 32  1  0
 33 27  1  0
 34 33  2  0
 35 31  2  0
M  END
$$$$
