FFY.pdb
     RDKit          3D

 35 37  0  0  1  0  0  0  0  0999 V2000
   26.6706  -14.6452  -21.2148 N   0  0  0  0  0  0  0  0  0  0  0  0
   25.7138  -14.7690  -20.1359 C   0  0  1  0  0  0  0  0  0  0  0  0
   24.3297  -14.7709  -20.7463 C   0  0  0  0  0  0  0  0  0  0  0  0
   24.0765  -13.4140  -21.2936 C   0  0  0  0  0  0  0  0  0  0  0  0
   24.1219  -13.1936  -22.6534 C   0  0  0  0  0  0  0  0  0  0  0  0
   23.8837  -11.9204  -23.1533 C   0  0  0  0  0  0  0  0  0  0  0  0
   23.6007  -10.8752  -22.2799 C   0  0  0  0  0  0  0  0  0  0  0  0
   23.5526  -11.0830  -20.9203 C   0  0  0  0  0  0  0  0  0  0  0  0
   23.7907  -12.3478  -20.4444 C   0  0  0  0  0  0  0  0  0  0  0  0
   25.9136  -16.0362  -19.3948 C   0  0  0  0  0  0  0  0  0  0  0  0
   26.3897  -17.0379  -19.9481 O   0  0  0  0  0  0  0  0  0  0  0  0
   25.5480  -16.0977  -18.0149 N   0  0  0  0  0  0  0  0  0  0  0  0
   25.7643  -17.3197  -17.2224 C   0  0  1  0  0  0  0  0  0  0  0  0
   26.7647  -17.0653  -16.1355 C   0  0  0  0  0  0  0  0  0  0  0  0
   28.1364  -16.9694  -16.6271 C   0  0  0  0  0  0  0  0  0  0  0  0
   28.9301  -18.1182  -16.5807 C   0  0  0  0  0  0  0  0  0  0  0  0
   30.2237  -18.0790  -17.0473 C   0  0  0  0  0  0  0  0  0  0  0  0
   30.7489  -16.9136  -17.5629 C   0  0  0  0  0  0  0  0  0  0  0  0
   29.9646  -15.7871  -17.6065 C   0  0  0  0  0  0  0  0  0  0  0  0
   28.6694  -15.8283  -17.1389 C   0  0  0  0  0  0  0  0  0  0  0  0
   24.4694  -17.6956  -16.6292 C   0  0  0  0  0  0  0  0  0  0  0  0
   23.6768  -16.8571  -16.1281 O   0  0  0  0  0  0  0  0  0  0  0  0
   16.3834  -20.0060  -16.1108 O   0  0  0  0  0  0  0  0  0  0  0  0
   17.7077  -19.6576  -16.3364 C   0  0  0  0  0  0  0  0  0  0  0  0
   18.4729  -20.4652  -17.1514 C   0  0  0  0  0  0  0  0  0  0  0  0
   19.7842  -20.1367  -17.3860 C   0  0  0  0  0  0  0  0  0  0  0  0
   20.3631  -19.0091  -16.8230 C   0  0  0  0  0  0  0  0  0  0  0  0
   21.7605  -18.6552  -17.0641 C   0  0  0  0  0  0  0  0  0  0  0  0
   22.7348  -19.3829  -16.1625 C   0  0  2  0  0  0  0  0  0  0  0  0
   24.0753  -19.0546  -16.6092 N   0  0  0  0  0  0  0  0  0  0  0  0
   22.5873  -20.8412  -16.1716 C   0  0  0  0  0  0  0  0  0  0  0  0
   21.7013  -21.4526  -15.3133 O   0  0  0  0  0  0  0  0  0  0  0  0
   19.5815  -18.2173  -16.0129 C   0  0  0  0  0  0  0  0  0  0  0  0
   18.2452  -18.5273  -15.7570 C   0  0  0  0  0  0  0  0  0  0  0  0
   23.2591  -21.5480  -16.9535 O   0  0  0  0  0  0  0  0  0  0  0  0
  2  1  1  6
  2  3  1  0
  3  4  1  0
  4  9  1  0
  4  5  2  0
  5  6  1  0
  6  7  2  0
  8  7  1  0
  9  8  2  0
 10 12  1  0
 10  2  1  0
 11 10  2  0
 13 12  1  0
 13 21  1  0
 13 14  1  1
 15 20  1  0
 15 14  1  0
 16 15  2  0
 17 18  2  0
 17 16  1  0
 18 19  1  0
 19 20  2  0
 21 22  2  0
 23 24  1  0
 24 25  2  0
 24 34  1  0
 25 26  1  0
 26 27  2  0
 27 28  1  0
 29 31  1  0
 29 28  1  6
 30 21  1  0
 30 29  1  0
 31 32  1  0
 33 27  1  0
 34 33  2  0
 35 31  2  0
M  END
$$$$
