FFY.pdb
     RDKit          3D

 35 37  0  0  1  0  0  0  0  0999 V2000
   25.5565  -40.2468   -9.3990 N   0  0  0  0  0  0  0  0  0  0  0  0
   25.1226  -38.8662   -9.3708 C   0  0  1  0  0  0  0  0  0  0  0  0
   23.6111  -38.8578   -9.4309 C   0  0  0  0  0  0  0  0  0  0  0  0
   23.2113  -39.3064  -10.7888 C   0  0  0  0  0  0  0  0  0  0  0  0
   23.2378  -38.4246  -11.8477 C   0  0  0  0  0  0  0  0  0  0  0  0
   22.8615  -38.8556  -13.1128 C   0  0  0  0  0  0  0  0  0  0  0  0
   22.4603  -40.1739  -13.3044 C   0  0  0  0  0  0  0  0  0  0  0  0
   22.4299  -41.0635  -12.2548 C   0  0  0  0  0  0  0  0  0  0  0  0
   22.8051  -40.6197  -11.0118 C   0  0  0  0  0  0  0  0  0  0  0  0
   25.5573  -38.2007   -8.1206 C   0  0  0  0  0  0  0  0  0  0  0  0
   25.9448  -38.8565   -7.1429 O   0  0  0  0  0  0  0  0  0  0  0  0
   25.5267  -36.7741   -8.0475 N   0  0  0  0  0  0  0  0  0  0  0  0
   25.9917  -36.0619   -6.8456 C   0  0  1  0  0  0  0  0  0  0  0  0
   26.5496  -34.7213   -7.2179 C   0  0  0  0  0  0  0  0  0  0  0  0
   26.7838  -33.8554   -6.0655 C   0  0  0  0  0  0  0  0  0  0  0  0
   25.8901  -32.8048   -5.8440 C   0  0  0  0  0  0  0  0  0  0  0  0
   26.0621  -31.9729   -4.7618 C   0  0  0  0  0  0  0  0  0  0  0  0
   27.1115  -32.1646   -3.8889 C   0  0  0  0  0  0  0  0  0  0  0  0
   27.9872  -33.1990   -4.1110 C   0  0  0  0  0  0  0  0  0  0  0  0
   27.8132  -34.0311   -5.1951 C   0  0  0  0  0  0  0  0  0  0  0  0
   24.8288  -35.8882   -5.9583 C   0  0  0  0  0  0  0  0  0  0  0  0
   23.6788  -35.6078   -6.3839 O   0  0  0  0  0  0  0  0  0  0  0  0
   26.3310  -40.8102   -0.4590 O   0  0  0  0  0  0  0  0  0  0  0  0
   25.5546  -39.9433   -1.2152 C   0  0  0  0  0  0  0  0  0  0  0  0
   25.6612  -39.9902   -2.5894 C   0  0  0  0  0  0  0  0  0  0  0  0
   24.9015  -39.1408   -3.3535 C   0  0  0  0  0  0  0  0  0  0  0  0
   24.0255  -38.2325   -2.7781 C   0  0  0  0  0  0  0  0  0  0  0  0
   23.2166  -37.3210   -3.5851 C   0  0  0  0  0  0  0  0  0  0  0  0
   23.8112  -35.9349   -3.7142 C   0  0  2  0  0  0  0  0  0  0  0  0
   24.9854  -36.0380   -4.5598 N   0  0  0  0  0  0  0  0  0  0  0  0
   24.2096  -35.3311   -2.4394 C   0  0  0  0  0  0  0  0  0  0  0  0
   25.5260  -34.9977   -2.2128 O   0  0  0  0  0  0  0  0  0  0  0  0
   23.9349  -38.2025   -1.4052 C   0  0  0  0  0  0  0  0  0  0  0  0
   24.6955  -39.0547   -0.6035 C   0  0  0  0  0  0  0  0  0  0  0  0
   23.3660  -35.1109   -1.5437 O   0  0  0  0  0  0  0  0  0  0  0  0
  2  1  1  1
  2  3  1  0
  3  4  1  0
  4  9  1  0
  4  5  2  0
  5  6  1  0
  6  7  2  0
  8  7  1  0
  9  8  2  0
 10 12  1  0
 10  2  1  0
 11 10  2  0
 13 12  1  0
 13 21  1  0
 13 14  1  6
 15 20  1  0
 15 14  1  0
 16 15  2  0
 17 18  2  0
 17 16  1  0
 18 19  1  0
 19 20  2  0
 21 22  2  0
 23 24  1  0
 24 25  2  0
 24 34  1  0
 25 26  1  0
 26 27  2  0
 27 28  1  0
 29 31  1  0
 29 28  1  1
 30 21  1  0
 30 29  1  0
 31 32  1  0
 33 27  1  0
 34 33  2  0
 35 31  2  0
M  END
$$$$
