FFY.pdb
     RDKit          3D

 35 37  0  0  1  0  0  0  0  0999 V2000
   27.5134  -21.7895  -17.2598 N   0  0  0  0  0  0  0  0  0  0  0  0
   27.3548  -20.6952  -16.3258 C   0  0  1  0  0  0  0  0  0  0  0  0
   26.5471  -19.6168  -17.0136 C   0  0  0  0  0  0  0  0  0  0  0  0
   27.5022  -18.6355  -17.5880 C   0  0  0  0  0  0  0  0  0  0  0  0
   27.8528  -18.7045  -18.9192 C   0  0  0  0  0  0  0  0  0  0  0  0
   28.7470  -17.7816  -19.4448 C   0  0  0  0  0  0  0  0  0  0  0  0
   29.2837  -16.7933  -18.6259 C   0  0  0  0  0  0  0  0  0  0  0  0
   28.9412  -16.7143  -17.2953 C   0  0  0  0  0  0  0  0  0  0  0  0
   28.0561  -17.6349  -16.7933 C   0  0  0  0  0  0  0  0  0  0  0  0
   26.6301  -21.1373  -15.1116 C   0  0  0  0  0  0  0  0  0  0  0  0
   25.7354  -21.9929  -15.1711 O   0  0  0  0  0  0  0  0  0  0  0  0
   26.9746  -20.5614  -13.8502 N   0  0  0  0  0  0  0  0  0  0  0  0
   26.2747  -20.9546  -12.6157 C   0  0  1  0  0  0  0  0  0  0  0  0
   27.1015  -20.6062  -11.4149 C   0  0  0  0  0  0  0  0  0  0  0  0
   26.3381  -20.6102  -10.1700 C   0  0  0  0  0  0  0  0  0  0  0  0
   25.9524  -21.8451   -9.6428 C   0  0  0  0  0  0  0  0  0  0  0  0
   25.2453  -21.8984   -8.4638 C   0  0  0  0  0  0  0  0  0  0  0  0
   24.9113  -20.7416   -7.7929 C   0  0  0  0  0  0  0  0  0  0  0  0
   25.2930  -19.5302   -8.3152 C   0  0  0  0  0  0  0  0  0  0  0  0
   26.0011  -19.4788   -9.4958 C   0  0  0  0  0  0  0  0  0  0  0  0
   25.0019  -20.2143  -12.5756 C   0  0  0  0  0  0  0  0  0  0  0  0
   24.9288  -18.9689  -12.7370 O   0  0  0  0  0  0  0  0  0  0  0  0
   20.3383  -22.4247  -17.8342 O   0  0  0  0  0  0  0  0  0  0  0  0
   20.8390  -21.6699  -16.7826 C   0  0  0  0  0  0  0  0  0  0  0  0
   22.2061  -21.5367  -16.6583 C   0  0  0  0  0  0  0  0  0  0  0  0
   22.7195  -20.7943  -15.6251 C   0  0  0  0  0  0  0  0  0  0  0  0
   21.8968  -20.1717  -14.6983 C   0  0  0  0  0  0  0  0  0  0  0  0
   22.4362  -19.3834  -13.5920 C   0  0  0  0  0  0  0  0  0  0  0  0
   22.5539  -20.1575  -12.2964 C   0  0  2  0  0  0  0  0  0  0  0  0
   23.7920  -20.9118  -12.3466 N   0  0  0  0  0  0  0  0  0  0  0  0
   21.4513  -21.0920  -12.0528 C   0  0  0  0  0  0  0  0  0  0  0  0
   20.1931  -20.6166  -11.7593 O   0  0  0  0  0  0  0  0  0  0  0  0
   20.5358  -20.3179  -14.8409 C   0  0  0  0  0  0  0  0  0  0  0  0
   19.9861  -21.0669  -15.8821 C   0  0  0  0  0  0  0  0  0  0  0  0
   21.6348  -22.3272  -12.1074 O   0  0  0  0  0  0  0  0  0  0  0  0
  2  1  1  6
  2  3  1  0
  3  4  1  0
  4  9  1  0
  4  5  2  0
  5  6  1  0
  6  7  2  0
  8  7  1  0
  9  8  2  0
 10 12  1  0
 10  2  1  0
 11 10  2  0
 13 12  1  0
 13 21  1  0
 13 14  1  1
 15 20  1  0
 15 14  1  0
 16 15  2  0
 17 18  2  0
 17 16  1  0
 18 19  1  0
 19 20  2  0
 21 22  2  0
 23 24  1  0
 24 25  2  0
 24 34  1  0
 25 26  1  0
 26 27  2  0
 27 28  1  0
 29 31  1  0
 29 28  1  6
 30 21  1  0
 30 29  1  0
 31 32  1  0
 33 27  1  0
 34 33  2  0
 35 31  2  0
M  END
$$$$
