FFY.pdb
     RDKit          3D

 35 37  0  0  1  0  0  0  0  0999 V2000
   23.7639  -16.1220  -23.5512 N   0  0  0  0  0  0  0  0  0  0  0  0
   22.7020  -15.7354  -22.6469 C   0  0  1  0  0  0  0  0  0  0  0  0
   21.3854  -16.0549  -23.3200 C   0  0  0  0  0  0  0  0  0  0  0  0
   21.2143  -15.1055  -24.4489 C   0  0  0  0  0  0  0  0  0  0  0  0
   20.9344  -13.7783  -24.2042 C   0  0  0  0  0  0  0  0  0  0  0  0
   20.7763  -12.9000  -25.2679 C   0  0  0  0  0  0  0  0  0  0  0  0
   20.9011  -13.3640  -26.5735 C   0  0  0  0  0  0  0  0  0  0  0  0
   21.1803  -14.6869  -26.8303 C   0  0  0  0  0  0  0  0  0  0  0  0
   21.3333  -15.5402  -25.7666 C   0  0  0  0  0  0  0  0  0  0  0  0
   22.7878  -16.4924  -21.3762 C   0  0  0  0  0  0  0  0  0  0  0  0
   23.1404  -17.6804  -21.3567 O   0  0  0  0  0  0  0  0  0  0  0  0
   22.4559  -15.8334  -20.1526 N   0  0  0  0  0  0  0  0  0  0  0  0
   22.5784  -16.5230  -18.8574 C   0  0  1  0  0  0  0  0  0  0  0  0
   23.5621  -15.8105  -17.9791 C   0  0  0  0  0  0  0  0  0  0  0  0
   24.9492  -16.0066  -18.3916 C   0  0  0  0  0  0  0  0  0  0  0  0
   25.5044  -15.0829  -19.2805 C   0  0  0  0  0  0  0  0  0  0  0  0
   26.8125  -15.2187  -19.6846 C   0  0  0  0  0  0  0  0  0  0  0  0
   27.5859  -16.2610  -19.2205 C   0  0  0  0  0  0  0  0  0  0  0  0
   27.0354  -17.1663  -18.3467 C   0  0  0  0  0  0  0  0  0  0  0  0
   25.7254  -17.0285  -17.9430 C   0  0  0  0  0  0  0  0  0  0  0  0
   21.2480  -16.5132  -18.2251 C   0  0  0  0  0  0  0  0  0  0  0  0
   20.5680  -15.4654  -18.0772 O   0  0  0  0  0  0  0  0  0  0  0  0
   19.7398  -24.0107  -17.8375 O   0  0  0  0  0  0  0  0  0  0  0  0
   19.4300  -22.6580  -17.8565 C   0  0  0  0  0  0  0  0  0  0  0  0
   18.6031  -22.1565  -16.8733 C   0  0  0  0  0  0  0  0  0  0  0  0
   18.2858  -20.8217  -16.8758 C   0  0  0  0  0  0  0  0  0  0  0  0
   18.7766  -19.9596  -17.8450 C   0  0  0  0  0  0  0  0  0  0  0  0
   18.4391  -18.5376  -17.8574 C   0  0  0  0  0  0  0  0  0  0  0  0
   19.4068  -17.6776  -17.0727 C   0  0  2  0  0  0  0  0  0  0  0  0
   20.6867  -17.7239  -17.7538 N   0  0  0  0  0  0  0  0  0  0  0  0
   19.6040  -18.1079  -15.6855 C   0  0  0  0  0  0  0  0  0  0  0  0
   20.8518  -18.4952  -15.2517 O   0  0  0  0  0  0  0  0  0  0  0  0
   19.5998  -20.4810  -18.8169 C   0  0  0  0  0  0  0  0  0  0  0  0
   19.9392  -21.8345  -18.8386 C   0  0  0  0  0  0  0  0  0  0  0  0
   18.6486  -18.1299  -14.8799 O   0  0  0  0  0  0  0  0  0  0  0  0
  2  1  1  6
  2  3  1  0
  3  4  1  0
  4  9  1  0
  4  5  2  0
  5  6  1  0
  6  7  2  0
  8  7  1  0
  9  8  2  0
 10 12  1  0
 10  2  1  0
 11 10  2  0
 13 12  1  0
 13 21  1  0
 13 14  1  1
 15 20  1  0
 15 14  1  0
 16 15  2  0
 17 18  2  0
 17 16  1  0
 18 19  1  0
 19 20  2  0
 21 22  2  0
 23 24  1  0
 24 25  2  0
 24 34  1  0
 25 26  1  0
 26 27  2  0
 27 28  1  0
 29 31  1  0
 29 28  1  6
 30 21  1  0
 30 29  1  0
 31 32  1  0
 33 27  1  0
 34 33  2  0
 35 31  2  0
M  END
$$$$
