FFY.pdb
     RDKit          3D

 35 37  0  0  1  0  0  0  0  0999 V2000
   27.7183  -21.0713  -16.5276 N   0  0  0  0  0  0  0  0  0  0  0  0
   27.4159  -20.2533  -15.3724 C   0  0  1  0  0  0  0  0  0  0  0  0
   26.6413  -19.0463  -15.8534 C   0  0  0  0  0  0  0  0  0  0  0  0
   27.4688  -18.3578  -16.8762 C   0  0  0  0  0  0  0  0  0  0  0  0
   27.1085  -18.4016  -18.2059 C   0  0  0  0  0  0  0  0  0  0  0  0
   27.8903  -17.7542  -19.1532 C   0  0  0  0  0  0  0  0  0  0  0  0
   29.0318  -17.0655  -18.7555 C   0  0  0  0  0  0  0  0  0  0  0  0
   29.4016  -17.0148  -17.4308 C   0  0  0  0  0  0  0  0  0  0  0  0
   28.6169  -17.6605  -16.5088 C   0  0  0  0  0  0  0  0  0  0  0  0
   26.5858  -20.9999  -14.3986 C   0  0  0  0  0  0  0  0  0  0  0  0
   25.6702  -21.7473  -14.7720 O   0  0  0  0  0  0  0  0  0  0  0  0
   26.8514  -20.8507  -13.0026 N   0  0  0  0  0  0  0  0  0  0  0  0
   26.0273  -21.5347  -11.9921 C   0  0  1  0  0  0  0  0  0  0  0  0
   26.8091  -21.7307  -10.7283 C   0  0  0  0  0  0  0  0  0  0  0  0
   26.2901  -20.9557   -9.6046 C   0  0  0  0  0  0  0  0  0  0  0  0
   25.2051  -21.4771   -8.8957 C   0  0  0  0  0  0  0  0  0  0  0  0
   24.6926  -20.7894   -7.8200 C   0  0  0  0  0  0  0  0  0  0  0  0
   25.2399  -19.5855   -7.4313 C   0  0  0  0  0  0  0  0  0  0  0  0
   26.3065  -19.0773   -8.1313 C   0  0  0  0  0  0  0  0  0  0  0  0
   26.8184  -19.7675   -9.2081 C   0  0  0  0  0  0  0  0  0  0  0  0
   24.8568  -20.6807  -11.7260 C   0  0  0  0  0  0  0  0  0  0  0  0
   24.9535  -19.4898  -11.3327 O   0  0  0  0  0  0  0  0  0  0  0  0
   21.7306  -20.7135  -17.9586 O   0  0  0  0  0  0  0  0  0  0  0  0
   21.9245  -20.3337  -16.6378 C   0  0  0  0  0  0  0  0  0  0  0  0
   20.8791  -20.4765  -15.7498 C   0  0  0  0  0  0  0  0  0  0  0  0
   21.0523  -20.1065  -14.4400 C   0  0  0  0  0  0  0  0  0  0  0  0
   22.2559  -19.5904  -13.9835 C   0  0  0  0  0  0  0  0  0  0  0  0
   22.4465  -19.1892  -12.5910 C   0  0  0  0  0  0  0  0  0  0  0  0
   22.4175  -20.3474  -11.6166 C   0  0  2  0  0  0  0  0  0  0  0  0
   23.5534  -21.1993  -11.9134 N   0  0  0  0  0  0  0  0  0  0  0  0
   21.1990  -21.1592  -11.6848 C   0  0  0  0  0  0  0  0  0  0  0  0
   21.2608  -22.4658  -12.1141 O   0  0  0  0  0  0  0  0  0  0  0  0
   23.2858  -19.4562  -14.8865 C   0  0  0  0  0  0  0  0  0  0  0  0
   23.1377  -19.8245  -16.2243 C   0  0  0  0  0  0  0  0  0  0  0  0
   20.0917  -20.6811  -11.3564 O   0  0  0  0  0  0  0  0  0  0  0  0
  2  1  1  6
  2  3  1  0
  3  4  1  0
  4  9  1  0
  4  5  2  0
  5  6  1  0
  6  7  2  0
  8  7  1  0
  9  8  2  0
 10 12  1  0
 10  2  1  0
 11 10  2  0
 13 12  1  0
 13 21  1  0
 13 14  1  1
 15 20  1  0
 15 14  1  0
 16 15  2  0
 17 18  2  0
 17 16  1  0
 18 19  1  0
 19 20  2  0
 21 22  2  0
 23 24  1  0
 24 25  2  0
 24 34  1  0
 25 26  1  0
 26 27  2  0
 27 28  1  0
 29 31  1  0
 29 28  1  6
 30 21  1  0
 30 29  1  0
 31 32  1  0
 33 27  1  0
 34 33  2  0
 35 31  2  0
M  END
$$$$
