FFY.pdb
     RDKit          3D

 35 37  0  0  1  0  0  0  0  0999 V2000
   31.2105  -10.7814  -23.7043 N   0  0  0  0  0  0  0  0  0  0  0  0
   30.9079  -11.0650  -22.3176 C   0  0  1  0  0  0  0  0  0  0  0  0
   29.4319  -10.8089  -22.1071 C   0  0  0  0  0  0  0  0  0  0  0  0
   29.0926   -9.5369  -22.7942 C   0  0  0  0  0  0  0  0  0  0  0  0
   28.3308   -9.5495  -23.9428 C   0  0  0  0  0  0  0  0  0  0  0  0
   28.0202   -8.3538  -24.5765 C   0  0  0  0  0  0  0  0  0  0  0  0
   28.4791   -7.1510  -24.0493 C   0  0  0  0  0  0  0  0  0  0  0  0
   29.2404   -7.1258  -22.9031 C   0  0  0  0  0  0  0  0  0  0  0  0
   29.5375   -8.3172  -22.2905 C   0  0  0  0  0  0  0  0  0  0  0  0
   31.2012  -12.4800  -21.9911 C   0  0  0  0  0  0  0  0  0  0  0  0
   31.3041  -13.3381  -22.8794 O   0  0  0  0  0  0  0  0  0  0  0  0
   31.3675  -12.8559  -20.6226 N   0  0  0  0  0  0  0  0  0  0  0  0
   31.7466  -14.2289  -20.2496 C   0  0  1  0  0  0  0  0  0  0  0  0
   32.7700  -14.2073  -19.1545 C   0  0  0  0  0  0  0  0  0  0  0  0
   33.1188  -15.5388  -18.6667 C   0  0  0  0  0  0  0  0  0  0  0  0
   34.2627  -16.1480  -19.1883 C   0  0  0  0  0  0  0  0  0  0  0  0
   34.6388  -17.3956  -18.7469 C   0  0  0  0  0  0  0  0  0  0  0  0
   33.8964  -18.0552  -17.7910 C   0  0  0  0  0  0  0  0  0  0  0  0
   32.7729  -17.4519  -17.2812 C   0  0  0  0  0  0  0  0  0  0  0  0
   32.3979  -16.2026  -17.7243 C   0  0  0  0  0  0  0  0  0  0  0  0
   30.5283  -14.9104  -19.7791 C   0  0  0  0  0  0  0  0  0  0  0  0
   29.7108  -14.3797  -18.9839 O   0  0  0  0  0  0  0  0  0  0  0  0
   23.3824  -19.8323  -19.7248 O   0  0  0  0  0  0  0  0  0  0  0  0
   24.5339  -19.1094  -20.0035 C   0  0  0  0  0  0  0  0  0  0  0  0
   24.5062  -17.7392  -19.8495 C   0  0  0  0  0  0  0  0  0  0  0  0
   25.6350  -17.0078  -20.1202 C   0  0  0  0  0  0  0  0  0  0  0  0
   26.8082  -17.6124  -20.5465 C   0  0  0  0  0  0  0  0  0  0  0  0
   28.0131  -16.8397  -20.8417 C   0  0  0  0  0  0  0  0  0  0  0  0
   29.0447  -16.8777  -19.7344 C   0  0  2  0  0  0  0  0  0  0  0  0
   30.2413  -16.2219  -20.2266 N   0  0  0  0  0  0  0  0  0  0  0  0
   29.4041  -18.2289  -19.2946 C   0  0  0  0  0  0  0  0  0  0  0  0
   28.8195  -18.7698  -18.1717 O   0  0  0  0  0  0  0  0  0  0  0  0
   26.8137  -18.9807  -20.6936 C   0  0  0  0  0  0  0  0  0  0  0  0
   25.6803  -19.7495  -20.4254 C   0  0  0  0  0  0  0  0  0  0  0  0
   30.2417  -18.9070  -19.9280 O   0  0  0  0  0  0  0  0  0  0  0  0
  2  1  1  6
  2  3  1  0
  3  4  1  0
  4  9  1  0
  4  5  2  0
  5  6  1  0
  6  7  2  0
  8  7  1  0
  9  8  2  0
 10 12  1  0
 10  2  1  0
 11 10  2  0
 13 12  1  0
 13 21  1  0
 13 14  1  1
 15 20  1  0
 15 14  1  0
 16 15  2  0
 17 18  2  0
 17 16  1  0
 18 19  1  0
 19 20  2  0
 21 22  2  0
 23 24  1  0
 24 25  2  0
 24 34  1  0
 25 26  1  0
 26 27  2  0
 27 28  1  0
 29 31  1  0
 29 28  1  6
 30 21  1  0
 30 29  1  0
 31 32  1  0
 33 27  1  0
 34 33  2  0
 35 31  2  0
M  END
$$$$
