MIC.pdb
     RDKit          3D

 23 22  0  0  1  0  0  0  0  0999 V2000
   10.4912  -15.2183   30.6703 C   0  0  0  0  0  0  0  0  0  0  0  0
   10.9863  -16.8429   30.1202 S   0  0  0  0  0  0  0  0  0  0  0  0
    9.8852  -17.7131   29.0489 C   0  0  0  0  0  0  0  0  0  0  0  0
    8.8281  -16.9909   28.3271 C   0  0  0  0  0  0  0  0  0  0  0  0
    7.8763  -17.7899   27.5215 C   0  0  2  0  0  0  0  0  0  0  0  0
    8.2510  -19.1588   27.3169 N   0  0  0  0  0  0  0  0  0  0  0  0
    7.5757  -17.1167   26.2120 C   0  0  0  0  0  0  0  0  0  0  0  0
    7.2026  -17.7675   25.2084 O   0  0  0  0  0  0  0  0  0  0  0  0
    7.7083  -11.3983   25.9797 C   0  0  0  0  0  0  0  0  0  0  0  0
    8.0537  -12.8313   25.7119 C   0  0  0  0  0  0  0  0  0  0  0  0
    6.9644  -13.6487   25.0942 C   0  0  2  0  0  0  0  0  0  0  0  0
    5.7683  -13.5779   26.0186 C   0  0  0  0  0  0  0  0  0  0  0  0
    7.3918  -15.0528   24.8119 C   0  0  2  0  0  0  0  0  0  0  0  0
    7.7081  -15.7350   26.0811 N   0  0  0  0  0  0  0  0  0  0  0  0
    8.6256  -15.1989   24.0091 C   0  0  0  0  0  0  0  0  0  0  0  0
    8.9398  -14.2836   23.1557 O   0  0  0  0  0  0  0  0  0  0  0  0
    9.5559  -16.2602   24.0585 N   0  0  0  0  0  0  0  0  0  0  0  0
   10.7577  -16.2990   23.2413 C   0  0  1  0  0  0  0  0  0  0  0  0
   11.9552  -16.1201   24.1857 C   0  0  0  0  0  0  0  0  0  0  0  0
   12.3825  -14.3705   24.3686 S   0  0  0  0  0  0  0  0  0  0  0  0
   10.9477  -17.5761   22.5540 C   0  0  0  0  0  0  0  0  0  0  0  0
   12.0576  -17.7850   21.7692 O   0  0  0  0  0  0  0  0  0  0  0  0
   10.1075  -18.4857   22.6729 O   0  0  0  0  0  0  0  0  0  0  0  0
  2  1  1  0
  3  2  1  0
  4  3  1  0
  5  4  1  0
  5  6  1  6
  7 14  1  0
  7  5  1  0
  8  7  2  0
  9 10  1  0
 11 13  1  0
 11 10  1  0
 11 12  1  1
 13 14  1  1
 15 13  1  0
 16 15  2  0
 17 15  1  0
 18 21  1  0
 18 17  1  0
 18 19  1  1
 20 19  1  0
 21 22  1  0
 23 21  2  0
M  END
$$$$
