MIC.pdb
     RDKit          3D

 23 22  0  0  1  0  0  0  0  0999 V2000
    5.5671  -11.3652   26.2037 C   0  0  0  0  0  0  0  0  0  0  0  0
    6.8154  -12.1370   27.2199 S   0  0  0  0  0  0  0  0  0  0  0  0
    6.8425  -13.9014   27.2813 C   0  0  0  0  0  0  0  0  0  0  0  0
    7.5114  -14.6697   26.2221 C   0  0  0  0  0  0  0  0  0  0  0  0
    6.6581  -15.4368   25.2856 C   0  0  2  0  0  0  0  0  0  0  0  0
    5.9308  -16.5229   25.8750 N   0  0  0  0  0  0  0  0  0  0  0  0
    7.4454  -15.9051   24.0942 C   0  0  0  0  0  0  0  0  0  0  0  0
    7.7074  -17.1171   23.9142 O   0  0  0  0  0  0  0  0  0  0  0  0
    7.2359  -12.4645   20.0934 C   0  0  0  0  0  0  0  0  0  0  0  0
    7.3289  -13.8779   20.5814 C   0  0  0  0  0  0  0  0  0  0  0  0
    8.7021  -14.3389   20.9531 C   0  0  2  0  0  0  0  0  0  0  0  0
    9.4015  -14.7476   19.6749 C   0  0  0  0  0  0  0  0  0  0  0  0
    8.6832  -15.4306   21.9738 C   0  0  2  0  0  0  0  0  0  0  0  0
    7.9099  -14.9902   23.1503 N   0  0  0  0  0  0  0  0  0  0  0  0
    9.9995  -15.8105   22.5314 C   0  0  0  0  0  0  0  0  0  0  0  0
   10.6521  -14.9625   23.2525 O   0  0  0  0  0  0  0  0  0  0  0  0
   10.6694  -17.0438   22.3751 N   0  0  0  0  0  0  0  0  0  0  0  0
   12.0167  -17.2816   22.8669 C   0  0  1  0  0  0  0  0  0  0  0  0
   11.9908  -18.6081   23.6396 C   0  0  0  0  0  0  0  0  0  0  0  0
   10.8108  -18.5383   25.0107 S   0  0  0  0  0  0  0  0  0  0  0  0
   13.0032  -17.4337   21.7977 C   0  0  0  0  0  0  0  0  0  0  0  0
   14.3349  -17.5991   22.0987 O   0  0  0  0  0  0  0  0  0  0  0  0
   12.6473  -17.4151   20.6059 O   0  0  0  0  0  0  0  0  0  0  0  0
  2  1  1  0
  3  2  1  0
  4  3  1  0
  5  4  1  0
  5  6  1  1
  7 14  1  0
  7  5  1  0
  8  7  2  0
  9 10  1  0
 11 13  1  0
 11 10  1  0
 11 12  1  6
 13 14  1  1
 15 13  1  0
 16 15  2  0
 17 15  1  0
 18 21  1  0
 18 17  1  0
 18 19  1  6
 20 19  1  0
 21 22  1  0
 23 21  2  0
M  END
$$$$
