MIC.pdb
     RDKit          3D

 23 22  0  0  1  0  0  0  0  0999 V2000
    6.5949  -11.3645   25.9982 C   0  0  0  0  0  0  0  0  0  0  0  0
    6.8543  -12.3180   27.4850 S   0  0  0  0  0  0  0  0  0  0  0  0
    6.8219  -14.0776   27.3426 C   0  0  0  0  0  0  0  0  0  0  0  0
    7.4433  -14.7393   26.1868 C   0  0  0  0  0  0  0  0  0  0  0  0
    6.5898  -15.6228   25.3595 C   0  0  2  0  0  0  0  0  0  0  0  0
    5.9778  -16.7117   26.0636 N   0  0  0  0  0  0  0  0  0  0  0  0
    7.3332  -16.1183   24.1510 C   0  0  0  0  0  0  0  0  0  0  0  0
    7.7211  -17.3061   24.0589 O   0  0  0  0  0  0  0  0  0  0  0  0
    8.1535  -12.4938   19.8181 C   0  0  0  0  0  0  0  0  0  0  0  0
    8.4531  -13.4172   20.9591 C   0  0  0  0  0  0  0  0  0  0  0  0
    8.0685  -14.8464   20.7453 C   0  0  2  0  0  0  0  0  0  0  0  0
    6.5972  -14.8692   20.3919 C   0  0  0  0  0  0  0  0  0  0  0  0
    8.3914  -15.7089   21.9225 C   0  0  2  0  0  0  0  0  0  0  0  0
    7.6134  -15.2566   23.0914 N   0  0  0  0  0  0  0  0  0  0  0  0
    9.7953  -15.6623   22.3862 C   0  0  0  0  0  0  0  0  0  0  0  0
   10.1112  -14.9002   23.3784 O   0  0  0  0  0  0  0  0  0  0  0  0
   10.8918  -16.3820   21.8629 N   0  0  0  0  0  0  0  0  0  0  0  0
   12.1626  -16.5060   22.5581 C   0  0  1  0  0  0  0  0  0  0  0  0
   11.9887  -17.5885   23.6331 C   0  0  0  0  0  0  0  0  0  0  0  0
   11.3311  -16.8829   25.1651 S   0  0  0  0  0  0  0  0  0  0  0  0
   13.2556  -16.9433   21.6899 C   0  0  0  0  0  0  0  0  0  0  0  0
   14.5527  -16.9342   22.1468 O   0  0  0  0  0  0  0  0  0  0  0  0
   13.0224  -17.3278   20.5301 O   0  0  0  0  0  0  0  0  0  0  0  0
  2  1  1  0
  3  2  1  0
  4  3  1  0
  5  4  1  0
  5  6  1  1
  7 14  1  0
  7  5  1  0
  8  7  2  0
  9 10  1  0
 11 13  1  0
 11 10  1  0
 11 12  1  1
 13 14  1  1
 15 13  1  0
 16 15  2  0
 17 15  1  0
 18 21  1  0
 18 17  1  0
 18 19  1  1
 20 19  1  0
 21 22  1  0
 23 21  2  0
M  END
$$$$
