MIC.pdb
     RDKit          3D

 23 22  0  0  1  0  0  0  0  0999 V2000
    8.1292  -11.4056   18.9413 C   0  0  0  0  0  0  0  0  0  0  0  0
    7.4729  -12.9324   18.2894 S   0  0  0  0  0  0  0  0  0  0  0  0
    7.6609  -14.3875   19.2717 C   0  0  0  0  0  0  0  0  0  0  0  0
    8.0428  -14.2821   20.6869 C   0  0  0  0  0  0  0  0  0  0  0  0
    8.1743  -15.5391   21.4590 C   0  0  2  0  0  0  0  0  0  0  0  0
    6.9598  -16.2837   21.6219 N   0  0  0  0  0  0  0  0  0  0  0  0
    8.8326  -15.2932   22.7875 C   0  0  0  0  0  0  0  0  0  0  0  0
   10.0328  -14.9433   22.8718 O   0  0  0  0  0  0  0  0  0  0  0  0
    7.3287  -12.3824   27.7762 C   0  0  0  0  0  0  0  0  0  0  0  0
    8.1447  -13.4988   27.1998 C   0  0  0  0  0  0  0  0  0  0  0  0
    7.6758  -14.0199   25.8788 C   0  0  2  0  0  0  0  0  0  0  0  0
    6.3123  -14.6391   26.0968 C   0  0  0  0  0  0  0  0  0  0  0  0
    8.6484  -14.9716   25.2605 C   0  0  2  0  0  0  0  0  0  0  0  0
    8.1146  -15.4520   23.9720 N   0  0  0  0  0  0  0  0  0  0  0  0
    8.9083  -16.2107   26.0254 C   0  0  0  0  0  0  0  0  0  0  0  0
    7.9156  -16.9420   26.4056 O   0  0  0  0  0  0  0  0  0  0  0  0
   10.1642  -16.7287   26.4109 N   0  0  0  0  0  0  0  0  0  0  0  0
   10.3157  -17.9720   27.1493 C   0  0  1  0  0  0  0  0  0  0  0  0
   11.6392  -18.6083   26.7009 C   0  0  0  0  0  0  0  0  0  0  0  0
   11.8578  -18.4591   24.9100 S   0  0  0  0  0  0  0  0  0  0  0  0
   10.4085  -17.7768   28.5959 C   0  0  0  0  0  0  0  0  0  0  0  0
   10.4527  -18.8599   29.4422 O   0  0  0  0  0  0  0  0  0  0  0  0
   10.4485  -16.6294   29.0747 O   0  0  0  0  0  0  0  0  0  0  0  0
  2  1  1  0
  3  2  1  0
  4  3  1  0
  5  4  1  0
  5  6  1  1
  7 14  1  0
  7  5  1  0
  8  7  2  0
  9 10  1  0
 11 13  1  0
 11 10  1  0
 11 12  1  1
 13 14  1  6
 15 13  1  0
 16 15  2  0
 17 15  1  0
 18 21  1  0
 18 17  1  0
 18 19  1  6
 20 19  1  0
 21 22  1  0
 23 21  2  0
M  END
$$$$
