MIC.pdb
     RDKit          3D

 23 22  0  0  1  0  0  0  0  0999 V2000
    6.7821  -12.0127   26.8270 C   0  0  0  0  0  0  0  0  0  0  0  0
    8.1158  -13.1455   27.1805 S   0  0  0  0  0  0  0  0  0  0  0  0
    7.9815  -14.7882   26.5474 C   0  0  0  0  0  0  0  0  0  0  0  0
    6.8446  -15.1633   25.6949 C   0  0  0  0  0  0  0  0  0  0  0  0
    6.7366  -16.5801   25.2770 C   0  0  2  0  0  0  0  0  0  0  0  0
    7.2728  -17.5316   26.2060 N   0  0  0  0  0  0  0  0  0  0  0  0
    7.3165  -16.7867   23.9059 C   0  0  0  0  0  0  0  0  0  0  0  0
    7.6970  -17.9150   23.5162 O   0  0  0  0  0  0  0  0  0  0  0  0
    8.1232  -12.3117   20.3105 C   0  0  0  0  0  0  0  0  0  0  0  0
    8.3939  -13.5483   21.1118 C   0  0  0  0  0  0  0  0  0  0  0  0
    7.5004  -14.7109   20.8182 C   0  0  2  0  0  0  0  0  0  0  0  0
    6.0760  -14.2535   21.0461 C   0  0  0  0  0  0  0  0  0  0  0  0
    7.8523  -15.9210   21.6219 C   0  0  2  0  0  0  0  0  0  0  0  0
    7.4477  -15.7139   23.0252 N   0  0  0  0  0  0  0  0  0  0  0  0
    9.2947  -16.2374   21.7074 C   0  0  0  0  0  0  0  0  0  0  0  0
    9.8604  -16.8862   20.7462 O   0  0  0  0  0  0  0  0  0  0  0  0
   10.1819  -15.9021   22.7537 N   0  0  0  0  0  0  0  0  0  0  0  0
   11.5498  -16.3900   22.8195 C   0  0  1  0  0  0  0  0  0  0  0  0
   12.4737  -15.1693   22.7011 C   0  0  0  0  0  0  0  0  0  0  0  0
   12.6652  -14.6648   20.9731 S   0  0  0  0  0  0  0  0  0  0  0  0
   11.8701  -17.0417   24.0892 C   0  0  0  0  0  0  0  0  0  0  0  0
   13.1532  -17.4619   24.3509 O   0  0  0  0  0  0  0  0  0  0  0  0
   10.9851  -17.2221   24.9446 O   0  0  0  0  0  0  0  0  0  0  0  0
  2  1  1  0
  3  2  1  0
  4  3  1  0
  5  4  1  0
  5  6  1  1
  7 14  1  0
  7  5  1  0
  8  7  2  0
  9 10  1  0
 11 13  1  0
 11 10  1  0
 11 12  1  1
 13 14  1  1
 15 13  1  0
 16 15  2  0
 17 15  1  0
 18 21  1  0
 18 17  1  0
 18 19  1  1
 20 19  1  0
 21 22  1  0
 23 21  2  0
M  END
$$$$
