MIC.pdb
     RDKit          3D

 23 22  0  0  1  0  0  0  0  0999 V2000
    7.4128  -10.8740   26.8708 C   0  0  0  0  0  0  0  0  0  0  0  0
    6.2738  -12.0191   27.6312 S   0  0  0  0  0  0  0  0  0  0  0  0
    5.7884  -13.4331   26.6918 C   0  0  0  0  0  0  0  0  0  0  0  0
    6.7619  -14.1226   25.8335 C   0  0  0  0  0  0  0  0  0  0  0  0
    6.2716  -15.2467   25.0031 C   0  0  2  0  0  0  0  0  0  0  0  0
    5.7256  -16.3519   25.7356 N   0  0  0  0  0  0  0  0  0  0  0  0
    7.3291  -15.7126   24.0423 C   0  0  0  0  0  0  0  0  0  0  0  0
    7.8731  -16.8355   24.1570 O   0  0  0  0  0  0  0  0  0  0  0  0
    7.3643  -12.6215   19.7414 C   0  0  0  0  0  0  0  0  0  0  0  0
    7.4489  -13.9904   20.3442 C   0  0  0  0  0  0  0  0  0  0  0  0
    8.7944  -14.3776   20.8693 C   0  0  2  0  0  0  0  0  0  0  0  0
    9.6055  -14.8881   19.6981 C   0  0  0  0  0  0  0  0  0  0  0  0
    8.7103  -15.3670   21.9865 C   0  0  2  0  0  0  0  0  0  0  0  0
    7.7358  -14.8954   22.9885 N   0  0  0  0  0  0  0  0  0  0  0  0
    9.9540  -15.5667   22.7619 C   0  0  0  0  0  0  0  0  0  0  0  0
   10.3786  -14.6244   23.5344 O   0  0  0  0  0  0  0  0  0  0  0  0
   10.7787  -16.7130   22.7730 N   0  0  0  0  0  0  0  0  0  0  0  0
   12.0951  -16.7360   23.3897 C   0  0  1  0  0  0  0  0  0  0  0  0
   12.1351  -17.9491   24.3301 C   0  0  0  0  0  0  0  0  0  0  0  0
   10.8358  -17.8407   25.5859 S   0  0  0  0  0  0  0  0  0  0  0  0
   13.1813  -16.9114   22.4259 C   0  0  0  0  0  0  0  0  0  0  0  0
   14.4921  -16.8621   22.8390 O   0  0  0  0  0  0  0  0  0  0  0  0
   12.9300  -17.1071   21.2235 O   0  0  0  0  0  0  0  0  0  0  0  0
  2  1  1  0
  3  2  1  0
  4  3  1  0
  5  4  1  0
  5  6  1  1
  7 14  1  0
  7  5  1  0
  8  7  2  0
  9 10  1  0
 11 13  1  0
 11 10  1  0
 11 12  1  6
 13 14  1  1
 15 13  1  0
 16 15  2  0
 17 15  1  0
 18 21  1  0
 18 17  1  0
 18 19  1  1
 20 19  1  0
 21 22  1  0
 23 21  2  0
M  END
$$$$
