MIC.pdb
     RDKit          3D

 23 22  0  0  1  0  0  0  0  0999 V2000
    9.3485  -19.8618   28.8760 C   0  0  0  0  0  0  0  0  0  0  0  0
    7.7295  -20.6136   28.8580 S   0  0  0  0  0  0  0  0  0  0  0  0
    6.5839  -20.0565   27.6354 C   0  0  0  0  0  0  0  0  0  0  0  0
    7.0073  -19.0980   26.6050 C   0  0  0  0  0  0  0  0  0  0  0  0
    5.9641  -18.5423   25.7126 C   0  0  2  0  0  0  0  0  0  0  0  0
    5.3721  -19.4840   24.8077 N   0  0  0  0  0  0  0  0  0  0  0  0
    6.4698  -17.3357   24.9729 C   0  0  0  0  0  0  0  0  0  0  0  0
    6.5764  -17.3267   23.7245 O   0  0  0  0  0  0  0  0  0  0  0  0
    5.7271  -12.3899   27.0189 C   0  0  0  0  0  0  0  0  0  0  0  0
    6.0098  -13.3426   25.8978 C   0  0  0  0  0  0  0  0  0  0  0  0
    7.4194  -13.8349   25.8148 C   0  0  2  0  0  0  0  0  0  0  0  0
    8.2635  -12.6973   25.2823 C   0  0  0  0  0  0  0  0  0  0  0  0
    7.5447  -15.0779   24.9944 C   0  0  2  0  0  0  0  0  0  0  0  0
    6.8381  -16.1843   25.6674 N   0  0  0  0  0  0  0  0  0  0  0  0
    8.9203  -15.5898   24.8109 C   0  0  0  0  0  0  0  0  0  0  0  0
    9.5669  -16.0511   25.8278 O   0  0  0  0  0  0  0  0  0  0  0  0
    9.6563  -15.6480   23.6071 N   0  0  0  0  0  0  0  0  0  0  0  0
   10.9605  -16.2825   23.5057 C   0  0  1  0  0  0  0  0  0  0  0  0
   11.1800  -16.6361   22.0278 C   0  0  0  0  0  0  0  0  0  0  0  0
    9.7444  -17.5041   21.3473 S   0  0  0  0  0  0  0  0  0  0  0  0
   12.0621  -15.4043   23.8990 C   0  0  0  0  0  0  0  0  0  0  0  0
   13.3536  -15.8764   23.9215 O   0  0  0  0  0  0  0  0  0  0  0  0
   11.8416  -14.2221   24.2168 O   0  0  0  0  0  0  0  0  0  0  0  0
  2  1  1  0
  3  2  1  0
  4  3  1  0
  5  4  1  0
  5  6  1  6
  7 14  1  0
  7  5  1  0
  8  7  2  0
  9 10  1  0
 11 13  1  0
 11 10  1  0
 11 12  1  6
 13 14  1  1
 15 13  1  0
 16 15  2  0
 17 15  1  0
 18 21  1  0
 18 17  1  0
 18 19  1  6
 20 19  1  0
 21 22  1  0
 23 21  2  0
M  END
$$$$
