MIC.pdb
     RDKit          3D

 23 22  0  0  1  0  0  0  0  0999 V2000
    7.9793  -12.7341   18.1191 C   0  0  0  0  0  0  0  0  0  0  0  0
    7.1412  -14.2919   17.8789 S   0  0  0  0  0  0  0  0  0  0  0  0
    6.8958  -15.3144   19.2973 C   0  0  0  0  0  0  0  0  0  0  0  0
    7.6505  -15.0617   20.5327 C   0  0  0  0  0  0  0  0  0  0  0  0
    7.3831  -15.9413   21.6939 C   0  0  2  0  0  0  0  0  0  0  0  0
    5.9997  -16.0872   22.0415 N   0  0  0  0  0  0  0  0  0  0  0  0
    8.1932  -15.5233   22.8887 C   0  0  0  0  0  0  0  0  0  0  0  0
    9.4271  -15.3209   22.8084 O   0  0  0  0  0  0  0  0  0  0  0  0
    6.2386  -11.9292   26.2060 C   0  0  0  0  0  0  0  0  0  0  0  0
    7.2173  -12.8062   25.4867 C   0  0  0  0  0  0  0  0  0  0  0  0
    7.5813  -14.0737   26.1919 C   0  0  2  0  0  0  0  0  0  0  0  0
    8.3147  -13.6899   27.4588 C   0  0  0  0  0  0  0  0  0  0  0  0
    8.3713  -15.0032   25.3282 C   0  0  2  0  0  0  0  0  0  0  0  0
    7.5833  -15.3502   24.1304 N   0  0  0  0  0  0  0  0  0  0  0  0
    8.7035  -16.3126   25.9308 C   0  0  0  0  0  0  0  0  0  0  0  0
    7.7518  -17.0902   26.3240 O   0  0  0  0  0  0  0  0  0  0  0  0
    9.9907  -16.8546   26.1395 N   0  0  0  0  0  0  0  0  0  0  0  0
   10.2148  -18.1386   26.7837 C   0  0  1  0  0  0  0  0  0  0  0  0
   10.6048  -19.1366   25.6839 C   0  0  0  0  0  0  0  0  0  0  0  0
   11.0412  -20.7449   26.3912 S   0  0  0  0  0  0  0  0  0  0  0  0
   11.3161  -18.1175   27.7461 C   0  0  0  0  0  0  0  0  0  0  0  0
   11.3922  -19.0684   28.7366 O   0  0  0  0  0  0  0  0  0  0  0  0
   12.1945  -17.2394   27.6778 O   0  0  0  0  0  0  0  0  0  0  0  0
  2  1  1  0
  3  2  1  0
  4  3  1  0
  5  4  1  0
  5  6  1  1
  7 14  1  0
  7  5  1  0
  8  7  2  0
  9 10  1  0
 11 13  1  0
 11 10  1  0
 11 12  1  1
 13 14  1  6
 15 13  1  0
 16 15  2  0
 17 15  1  0
 18 21  1  0
 18 17  1  0
 18 19  1  6
 20 19  1  0
 21 22  1  0
 23 21  2  0
M  END
$$$$
