MIC.pdb
     RDKit          3D

 23 22  0  0  1  0  0  0  0  0999 V2000
    8.7762  -20.2812   28.6899 C   0  0  0  0  0  0  0  0  0  0  0  0
    7.2716  -21.0971   28.1823 S   0  0  0  0  0  0  0  0  0  0  0  0
    6.2303  -20.2500   27.0353 C   0  0  0  0  0  0  0  0  0  0  0  0
    6.7434  -19.0999   26.2779 C   0  0  0  0  0  0  0  0  0  0  0  0
    5.8135  -18.4188   25.3479 C   0  0  2  0  0  0  0  0  0  0  0  0
    5.2189  -19.2640   24.3538 N   0  0  0  0  0  0  0  0  0  0  0  0
    6.4622  -17.2213   24.7126 C   0  0  0  0  0  0  0  0  0  0  0  0
    6.7059  -17.1798   23.4843 O   0  0  0  0  0  0  0  0  0  0  0  0
    5.7160  -12.1428   26.6056 C   0  0  0  0  0  0  0  0  0  0  0  0
    6.0569  -13.2266   25.6290 C   0  0  0  0  0  0  0  0  0  0  0  0
    7.4380  -13.7872   25.7496 C   0  0  2  0  0  0  0  0  0  0  0  0
    8.4059  -12.6839   25.3810 C   0  0  0  0  0  0  0  0  0  0  0  0
    7.6296  -15.0202   24.9269 C   0  0  2  0  0  0  0  0  0  0  0  0
    6.8139  -16.1153   25.4851 N   0  0  0  0  0  0  0  0  0  0  0  0
    9.0024  -15.5705   24.9056 C   0  0  0  0  0  0  0  0  0  0  0  0
    9.4965  -16.0859   25.9804 O   0  0  0  0  0  0  0  0  0  0  0  0
    9.8884  -15.6130   23.8067 N   0  0  0  0  0  0  0  0  0  0  0  0
   11.1794  -16.2799   23.8552 C   0  0  1  0  0  0  0  0  0  0  0  0
   11.6589  -16.4472   22.4062 C   0  0  0  0  0  0  0  0  0  0  0  0
   10.3835  -17.2277   21.3858 S   0  0  0  0  0  0  0  0  0  0  0  0
   12.2042  -15.5042   24.5534 C   0  0  0  0  0  0  0  0  0  0  0  0
   13.4651  -16.0223   24.7349 O   0  0  0  0  0  0  0  0  0  0  0  0
   11.9453  -14.3683   24.9895 O   0  0  0  0  0  0  0  0  0  0  0  0
  2  1  1  0
  3  2  1  0
  4  3  1  0
  5  4  1  0
  5  6  1  6
  7 14  1  0
  7  5  1  0
  8  7  2  0
  9 10  1  0
 11 13  1  0
 11 10  1  0
 11 12  1  6
 13 14  1  1
 15 13  1  0
 16 15  2  0
 17 15  1  0
 18 21  1  0
 18 17  1  0
 18 19  1  6
 20 19  1  0
 21 22  1  0
 23 21  2  0
M  END
$$$$
