MIC.pdb
     RDKit          3D

 23 22  0  0  1  0  0  0  0  0999 V2000
    7.5921  -11.4323   26.8450 C   0  0  0  0  0  0  0  0  0  0  0  0
    6.2451  -12.4033   27.5005 S   0  0  0  0  0  0  0  0  0  0  0  0
    5.7629  -13.8436   26.6001 C   0  0  0  0  0  0  0  0  0  0  0  0
    6.6492  -14.4058   25.5713 C   0  0  0  0  0  0  0  0  0  0  0  0
    6.1862  -15.6138   24.8504 C   0  0  2  0  0  0  0  0  0  0  0  0
    5.9098  -16.7498   25.6806 N   0  0  0  0  0  0  0  0  0  0  0  0
    7.1326  -15.9798   23.7418 C   0  0  0  0  0  0  0  0  0  0  0  0
    7.4090  -17.1736   23.4805 O   0  0  0  0  0  0  0  0  0  0  0  0
    7.0966  -12.5076   19.6419 C   0  0  0  0  0  0  0  0  0  0  0  0
    7.1970  -13.8056   20.3833 C   0  0  0  0  0  0  0  0  0  0  0  0
    8.5708  -14.1769   20.8428 C   0  0  2  0  0  0  0  0  0  0  0  0
    9.4006  -14.4505   19.6073 C   0  0  0  0  0  0  0  0  0  0  0  0
    8.5641  -15.3262   21.7983 C   0  0  2  0  0  0  0  0  0  0  0  0
    7.7340  -14.9869   22.9696 N   0  0  0  0  0  0  0  0  0  0  0  0
    9.8759  -15.6846   22.3801 C   0  0  0  0  0  0  0  0  0  0  0  0
   10.8145  -16.1204   21.6094 O   0  0  0  0  0  0  0  0  0  0  0  0
   10.2588  -15.6047   23.7371 N   0  0  0  0  0  0  0  0  0  0  0  0
   11.5834  -15.9732   24.2096 C   0  0  1  0  0  0  0  0  0  0  0  0
   11.6701  -15.5609   25.6861 C   0  0  0  0  0  0  0  0  0  0  0  0
   10.0199  -15.3341   26.3951 S   0  0  0  0  0  0  0  0  0  0  0  0
   11.8356  -17.4130   24.1567 C   0  0  0  0  0  0  0  0  0  0  0  0
   13.0689  -17.9160   24.4991 O   0  0  0  0  0  0  0  0  0  0  0  0
   10.9369  -18.1965   23.8016 O   0  0  0  0  0  0  0  0  0  0  0  0
  2  1  1  0
  3  2  1  0
  4  3  1  0
  5  4  1  0
  5  6  1  1
  7 14  1  0
  7  5  1  0
  8  7  2  0
  9 10  1  0
 11 13  1  0
 11 10  1  0
 11 12  1  6
 13 14  1  1
 15 13  1  0
 16 15  2  0
 17 15  1  0
 18 21  1  0
 18 17  1  0
 18 19  1  1
 20 19  1  0
 21 22  1  0
 23 21  2  0
M  END
$$$$
