MIC.pdb
     RDKit          3D

 23 22  0  0  1  0  0  0  0  0999 V2000
    5.0463  -21.1017   24.0357 C   0  0  0  0  0  0  0  0  0  0  0  0
    4.9684  -20.6996   22.2981 S   0  0  0  0  0  0  0  0  0  0  0  0
    5.4711  -19.0784   21.8117 C   0  0  0  0  0  0  0  0  0  0  0  0
    6.1707  -18.2029   22.7625 C   0  0  0  0  0  0  0  0  0  0  0  0
    6.4947  -16.8271   22.3200 C   0  0  2  0  0  0  0  0  0  0  0  0
    6.9268  -16.7115   20.9577 N   0  0  0  0  0  0  0  0  0  0  0  0
    7.4794  -16.1761   23.2501 C   0  0  0  0  0  0  0  0  0  0  0  0
    8.6992  -16.1064   22.9724 O   0  0  0  0  0  0  0  0  0  0  0  0
    5.8634  -11.9362   26.1321 C   0  0  0  0  0  0  0  0  0  0  0  0
    6.8013  -12.8636   25.4217 C   0  0  0  0  0  0  0  0  0  0  0  0
    7.3176  -14.0039   26.2399 C   0  0  2  0  0  0  0  0  0  0  0  0
    8.2105  -13.4205   27.3134 C   0  0  0  0  0  0  0  0  0  0  0  0
    8.0123  -15.0355   25.4108 C   0  0  2  0  0  0  0  0  0  0  0  0
    7.0535  -15.6289   24.4597 N   0  0  0  0  0  0  0  0  0  0  0  0
    8.5497  -16.1980   26.1507 C   0  0  0  0  0  0  0  0  0  0  0  0
    7.7349  -17.0129   26.7313 O   0  0  0  0  0  0  0  0  0  0  0  0
    9.9065  -16.5556   26.3105 N   0  0  0  0  0  0  0  0  0  0  0  0
   10.3334  -17.7396   27.0383 C   0  0  1  0  0  0  0  0  0  0  0  0
   11.5925  -18.2728   26.3398 C   0  0  0  0  0  0  0  0  0  0  0  0
   11.3680  -18.3215   24.5442 S   0  0  0  0  0  0  0  0  0  0  0  0
   10.7044  -17.4620   28.4257 C   0  0  0  0  0  0  0  0  0  0  0  0
   11.0705  -18.4873   29.2660 O   0  0  0  0  0  0  0  0  0  0  0  0
   10.6924  -16.2961   28.8590 O   0  0  0  0  0  0  0  0  0  0  0  0
  2  1  1  0
  3  2  1  0
  4  3  1  0
  5  4  1  0
  5  6  1  6
  7 14  1  0
  7  5  1  0
  8  7  2  0
  9 10  1  0
 11 13  1  0
 11 10  1  0
 11 12  1  1
 13 14  1  6
 15 13  1  0
 16 15  2  0
 17 15  1  0
 18 21  1  0
 18 17  1  0
 18 19  1  6
 20 19  1  0
 21 22  1  0
 23 21  2  0
M  END
$$$$
