MIC.pdb
     RDKit          3D

 23 22  0  0  1  0  0  0  0  0999 V2000
   11.3600  -14.8217   29.8295 C   0  0  0  0  0  0  0  0  0  0  0  0
   11.0774  -16.5428   30.2104 S   0  0  0  0  0  0  0  0  0  0  0  0
    9.7647  -17.3625   29.3603 C   0  0  0  0  0  0  0  0  0  0  0  0
    9.3649  -16.9242   28.0157 C   0  0  0  0  0  0  0  0  0  0  0  0
    8.0675  -17.4097   27.4917 C   0  0  2  0  0  0  0  0  0  0  0  0
    7.9300  -18.8358   27.4324 N   0  0  0  0  0  0  0  0  0  0  0  0
    7.7529  -16.7867   26.1607 C   0  0  0  0  0  0  0  0  0  0  0  0
    7.4340  -17.4818   25.1683 O   0  0  0  0  0  0  0  0  0  0  0  0
    5.8405  -12.0376   26.3725 C   0  0  0  0  0  0  0  0  0  0  0  0
    5.9765  -13.2118   25.4520 C   0  0  0  0  0  0  0  0  0  0  0  0
    7.3108  -13.3587   24.7931 C   0  0  2  0  0  0  0  0  0  0  0  0
    7.2364  -12.6453   23.4606 C   0  0  0  0  0  0  0  0  0  0  0  0
    7.7292  -14.7873   24.6589 C   0  0  2  0  0  0  0  0  0  0  0  0
    7.8108  -15.4034   25.9968 N   0  0  0  0  0  0  0  0  0  0  0  0
    9.0713  -15.0111   24.0785 C   0  0  0  0  0  0  0  0  0  0  0  0
   10.1178  -14.6496   24.7411 O   0  0  0  0  0  0  0  0  0  0  0  0
    9.3751  -15.6029   22.8328 N   0  0  0  0  0  0  0  0  0  0  0  0
   10.7026  -16.0843   22.4871 C   0  0  1  0  0  0  0  0  0  0  0  0
   11.0316  -17.2376   23.4458 C   0  0  0  0  0  0  0  0  0  0  0  0
   12.3255  -16.7591   24.6180 S   0  0  0  0  0  0  0  0  0  0  0  0
   10.7858  -16.6248   21.1304 C   0  0  0  0  0  0  0  0  0  0  0  0
    9.7784  -17.4196   20.6357 O   0  0  0  0  0  0  0  0  0  0  0  0
   11.7682  -16.3706   20.4110 O   0  0  0  0  0  0  0  0  0  0  0  0
  2  1  1  0
  3  2  1  0
  4  3  1  0
  5  4  1  0
  5  6  1  6
  7 14  1  0
  7  5  1  0
  8  7  2  0
  9 10  1  0
 11 13  1  0
 11 10  1  0
 11 12  1  6
 13 14  1  1
 15 13  1  0
 16 15  2  0
 17 15  1  0
 18 21  1  0
 18 17  1  0
 18 19  1  1
 20 19  1  0
 21 22  1  0
 23 21  2  0
M  END
$$$$
