MIC.pdb
     RDKit          3D

 23 22  0  0  1  0  0  0  0  0999 V2000
    6.5761  -20.3875   28.2983 C   0  0  0  0  0  0  0  0  0  0  0  0
    7.0800  -21.1293   26.7547 S   0  0  0  0  0  0  0  0  0  0  0  0
    7.2134  -20.0729   25.3462 C   0  0  0  0  0  0  0  0  0  0  0  0
    6.2070  -19.0295   25.1042 C   0  0  0  0  0  0  0  0  0  0  0  0
    6.3373  -18.2217   23.8698 C   0  0  2  0  0  0  0  0  0  0  0  0
    6.7697  -18.9464   22.7106 N   0  0  0  0  0  0  0  0  0  0  0  0
    7.2038  -17.0155   24.1000 C   0  0  0  0  0  0  0  0  0  0  0  0
    8.3183  -16.8903   23.5413 O   0  0  0  0  0  0  0  0  0  0  0  0
    6.7380  -11.2547   26.3826 C   0  0  0  0  0  0  0  0  0  0  0  0
    7.5462  -12.4412   25.9544 C   0  0  0  0  0  0  0  0  0  0  0  0
    6.7555  -13.6520   25.5736 C   0  0  2  0  0  0  0  0  0  0  0  0
    5.8297  -13.9672   26.7284 C   0  0  0  0  0  0  0  0  0  0  0  0
    7.6242  -14.8092   25.1995 C   0  0  2  0  0  0  0  0  0  0  0  0
    6.7832  -15.9957   24.9525 N   0  0  0  0  0  0  0  0  0  0  0  0
    8.5794  -15.2562   26.2367 C   0  0  0  0  0  0  0  0  0  0  0  0
    8.1647  -16.0079   27.2000 O   0  0  0  0  0  0  0  0  0  0  0  0
    9.9576  -14.9577   26.3140 N   0  0  0  0  0  0  0  0  0  0  0  0
   10.8219  -15.4721   27.3638 C   0  0  1  0  0  0  0  0  0  0  0  0
   12.2669  -15.3652   26.8556 C   0  0  0  0  0  0  0  0  0  0  0  0
   12.4118  -16.0084   25.1696 S   0  0  0  0  0  0  0  0  0  0  0  0
   10.7503  -14.6971   28.6022 C   0  0  0  0  0  0  0  0  0  0  0  0
   11.3606  -15.1562   29.7460 O   0  0  0  0  0  0  0  0  0  0  0  0
   10.1370  -13.6153   28.6329 O   0  0  0  0  0  0  0  0  0  0  0  0
  2  1  1  0
  3  2  1  0
  4  3  1  0
  5  4  1  0
  5  6  1  6
  7 14  1  0
  7  5  1  0
  8  7  2  0
  9 10  1  0
 11 13  1  0
 11 10  1  0
 11 12  1  1
 13 14  1  1
 15 13  1  0
 16 15  2  0
 17 15  1  0
 18 21  1  0
 18 17  1  0
 18 19  1  6
 20 19  1  0
 21 22  1  0
 23 21  2  0
M  END
$$$$
