MIC.pdb
     RDKit          3D

 23 22  0  0  1  0  0  0  0  0999 V2000
   10.1650  -15.1364   30.5061 C   0  0  0  0  0  0  0  0  0  0  0  0
   10.2420  -16.9191   30.5616 S   0  0  0  0  0  0  0  0  0  0  0  0
    9.2521  -17.8156   29.4066 C   0  0  0  0  0  0  0  0  0  0  0  0
    8.9149  -17.2247   28.1039 C   0  0  0  0  0  0  0  0  0  0  0  0
    7.7990  -17.8313   27.3420 C   0  0  2  0  0  0  0  0  0  0  0  0
    7.9366  -19.2329   27.0726 N   0  0  0  0  0  0  0  0  0  0  0  0
    7.5287  -17.0678   26.0760 C   0  0  0  0  0  0  0  0  0  0  0  0
    7.1625  -17.6446   25.0258 O   0  0  0  0  0  0  0  0  0  0  0  0
    6.3914  -11.9349   26.9298 C   0  0  0  0  0  0  0  0  0  0  0  0
    6.1738  -13.0867   25.9970 C   0  0  0  0  0  0  0  0  0  0  0  0
    7.3476  -13.4535   25.1462 C   0  0  2  0  0  0  0  0  0  0  0  0
    7.3004  -12.5791   23.9120 C   0  0  0  0  0  0  0  0  0  0  0  0
    7.3842  -14.9113   24.8183 C   0  0  2  0  0  0  0  0  0  0  0  0
    7.6826  -15.6826   26.0398 N   0  0  0  0  0  0  0  0  0  0  0  0
    8.4355  -15.3283   23.8650 C   0  0  0  0  0  0  0  0  0  0  0  0
    8.5183  -14.7461   22.7165 O   0  0  0  0  0  0  0  0  0  0  0  0
    9.4144  -16.3280   24.0568 N   0  0  0  0  0  0  0  0  0  0  0  0
   10.6756  -16.3510   23.3340 C   0  0  1  0  0  0  0  0  0  0  0  0
   11.5823  -15.2865   23.9683 C   0  0  0  0  0  0  0  0  0  0  0  0
   13.2750  -15.4167   23.3398 S   0  0  0  0  0  0  0  0  0  0  0  0
   11.3809  -17.6278   23.4437 C   0  0  0  0  0  0  0  0  0  0  0  0
   11.0145  -18.5445   24.4012 O   0  0  0  0  0  0  0  0  0  0  0  0
   12.3187  -17.8968   22.6720 O   0  0  0  0  0  0  0  0  0  0  0  0
  2  1  1  0
  3  2  1  0
  4  3  1  0
  5  4  1  0
  5  6  1  6
  7 14  1  0
  7  5  1  0
  8  7  2  0
  9 10  1  0
 11 13  1  0
 11 10  1  0
 11 12  1  6
 13 14  1  1
 15 13  1  0
 16 15  2  0
 17 15  1  0
 18 21  1  0
 18 17  1  0
 18 19  1  1
 20 19  1  0
 21 22  1  0
 23 21  2  0
M  END
$$$$
