MIC.pdb
     RDKit          3D

 23 22  0  0  1  0  0  0  0  0999 V2000
    9.9043  -14.4484   28.9984 C   0  0  0  0  0  0  0  0  0  0  0  0
   10.1349  -16.1860   29.3367 S   0  0  0  0  0  0  0  0  0  0  0  0
    8.7604  -17.2604   29.0644 C   0  0  0  0  0  0  0  0  0  0  0  0
    8.6509  -18.0209   27.8116 C   0  0  0  0  0  0  0  0  0  0  0  0
    7.3803  -17.9231   27.0569 C   0  0  2  0  0  0  0  0  0  0  0  0
    6.8162  -19.1768   26.6492 N   0  0  0  0  0  0  0  0  0  0  0  0
    7.5159  -16.9919   25.8851 C   0  0  0  0  0  0  0  0  0  0  0  0
    7.5970  -17.4205   24.7106 O   0  0  0  0  0  0  0  0  0  0  0  0
    5.6878  -12.1411   26.8568 C   0  0  0  0  0  0  0  0  0  0  0  0
    5.9579  -13.1838   25.8156 C   0  0  0  0  0  0  0  0  0  0  0  0
    7.3830  -13.2979   25.3771 C   0  0  2  0  0  0  0  0  0  0  0  0
    7.6015  -12.2747   24.2838 C   0  0  0  0  0  0  0  0  0  0  0  0
    7.7411  -14.6843   24.9483 C   0  0  2  0  0  0  0  0  0  0  0  0
    7.5566  -15.6120   26.0803 N   0  0  0  0  0  0  0  0  0  0  0  0
    9.1494  -14.8873   24.5440 C   0  0  0  0  0  0  0  0  0  0  0  0
   10.0945  -14.3693   25.2534 O   0  0  0  0  0  0  0  0  0  0  0  0
    9.6215  -15.6145   23.4293 N   0  0  0  0  0  0  0  0  0  0  0  0
   11.0225  -15.6506   23.0424 C   0  0  1  0  0  0  0  0  0  0  0  0
   11.7703  -16.4515   24.1181 C   0  0  0  0  0  0  0  0  0  0  0  0
   10.9440  -18.0285   24.4457 S   0  0  0  0  0  0  0  0  0  0  0  0
   11.2527  -16.3336   21.7696 C   0  0  0  0  0  0  0  0  0  0  0  0
   10.2114  -16.9422   21.1088 O   0  0  0  0  0  0  0  0  0  0  0  0
   12.3924  -16.3704   21.2725 O   0  0  0  0  0  0  0  0  0  0  0  0
  2  1  1  0
  3  2  1  0
  4  3  1  0
  5  4  1  0
  5  6  1  6
  7 14  1  0
  7  5  1  0
  8  7  2  0
  9 10  1  0
 11 13  1  0
 11 10  1  0
 11 12  1  6
 13 14  1  1
 15 13  1  0
 16 15  2  0
 17 15  1  0
 18 21  1  0
 18 17  1  0
 18 19  1  1
 20 19  1  0
 21 22  1  0
 23 21  2  0
M  END
$$$$
