MIC.pdb
     RDKit          3D

 23 22  0  0  1  0  0  0  0  0999 V2000
    4.8307  -20.1995   22.8207 C   0  0  0  0  0  0  0  0  0  0  0  0
    5.3775  -19.7419   21.1840 S   0  0  0  0  0  0  0  0  0  0  0  0
    5.9591  -18.0915   20.9490 C   0  0  0  0  0  0  0  0  0  0  0  0
    6.7105  -17.4118   22.0135 C   0  0  0  0  0  0  0  0  0  0  0  0
    7.1274  -16.0109   21.7740 C   0  0  2  0  0  0  0  0  0  0  0  0
    7.7745  -15.7747   20.5164 N   0  0  0  0  0  0  0  0  0  0  0  0
    7.9625  -15.4919   22.9106 C   0  0  0  0  0  0  0  0  0  0  0  0
    9.1990  -15.3250   22.7953 O   0  0  0  0  0  0  0  0  0  0  0  0
    5.8589  -11.6732   25.9085 C   0  0  0  0  0  0  0  0  0  0  0  0
    6.8905  -12.5390   25.2523 C   0  0  0  0  0  0  0  0  0  0  0  0
    7.3552  -13.7078   26.0611 C   0  0  2  0  0  0  0  0  0  0  0  0
    8.1004  -13.1594   27.2586 C   0  0  0  0  0  0  0  0  0  0  0  0
    8.1762  -14.6674   25.2617 C   0  0  2  0  0  0  0  0  0  0  0  0
    7.3739  -15.1815   24.1356 N   0  0  0  0  0  0  0  0  0  0  0  0
    8.6147  -15.8864   25.9757 C   0  0  0  0  0  0  0  0  0  0  0  0
    7.7307  -16.7172   26.4153 O   0  0  0  0  0  0  0  0  0  0  0  0
    9.9415  -16.2847   26.2502 N   0  0  0  0  0  0  0  0  0  0  0  0
   10.2712  -17.5250   26.9332 C   0  0  1  0  0  0  0  0  0  0  0  0
   11.5851  -18.0410   26.3289 C   0  0  0  0  0  0  0  0  0  0  0  0
   11.4811  -18.1244   24.5235 S   0  0  0  0  0  0  0  0  0  0  0  0
   10.5042  -17.3505   28.3666 C   0  0  0  0  0  0  0  0  0  0  0  0
   10.7456  -18.4407   29.1696 O   0  0  0  0  0  0  0  0  0  0  0  0
   10.4865  -16.2146   28.8733 O   0  0  0  0  0  0  0  0  0  0  0  0
  2  1  1  0
  3  2  1  0
  4  3  1  0
  5  4  1  0
  5  6  1  6
  7 14  1  0
  7  5  1  0
  8  7  2  0
  9 10  1  0
 11 13  1  0
 11 10  1  0
 11 12  1  1
 13 14  1  6
 15 13  1  0
 16 15  2  0
 17 15  1  0
 18 21  1  0
 18 17  1  0
 18 19  1  6
 20 19  1  0
 21 22  1  0
 23 21  2  0
M  END
$$$$
