QNC.pdb
     RDKit          3D

 24 23  0  0  1  0  0  0  0  0999 V2000
    8.6616  -12.4579   17.8567 N   0  0  0  0  0  0  0  0  0  0  0  0
    8.2215  -13.7763   17.6112 C   0  0  0  0  0  0  0  0  0  0  0  0
    8.8897  -14.5165   16.8672 O   0  0  0  0  0  0  0  0  0  0  0  0
    6.9810  -14.2683   18.2322 C   0  0  0  0  0  0  0  0  0  0  0  0
    7.0412  -14.0451   19.7069 C   0  0  0  0  0  0  0  0  0  0  0  0
    8.2504  -14.7162   20.3418 C   0  0  2  0  0  0  0  0  0  0  0  0
    8.5808  -15.9410   19.6460 N   0  0  0  0  0  0  0  0  0  0  0  0
    7.8904  -15.0339   21.7261 C   0  0  0  0  0  0  0  0  0  0  0  0
    7.3240  -14.1714   22.4316 O   0  0  0  0  0  0  0  0  0  0  0  0
    5.5641  -18.3436   23.0483 N   0  0  0  0  0  0  0  0  0  0  0  0
    6.8730  -18.8631   23.2497 C   0  0  0  0  0  0  0  0  0  0  0  0
    7.1669  -19.9973   22.7998 O   0  0  0  0  0  0  0  0  0  0  0  0
    7.9177  -18.1034   23.9815 C   0  0  0  0  0  0  0  0  0  0  0  0
    7.7805  -16.6053   23.6801 C   0  0  2  0  0  0  0  0  0  0  0  0
    8.1684  -16.3234   22.3161 N   0  0  0  0  0  0  0  0  0  0  0  0
    8.6612  -15.9056   24.6556 C   0  0  0  0  0  0  0  0  0  0  0  0
    9.9120  -15.9078   24.5312 O   0  0  0  0  0  0  0  0  0  0  0  0
    8.1523  -15.2002   25.7742 N   0  0  0  0  0  0  0  0  0  0  0  0
    8.9062  -14.4659   26.7268 C   0  0  1  0  0  0  0  0  0  0  0  0
    8.2031  -13.2980   27.3416 C   0  0  0  0  0  0  0  0  0  0  0  0
    9.2085  -12.4415   28.5700 S   0  0  0  0  0  0  0  0  0  0  0  0
    9.4466  -15.3051   27.8157 C   0  0  0  0  0  0  0  0  0  0  0  0
   10.5705  -14.9143   28.5114 O   0  0  0  0  0  0  0  0  0  0  0  0
    8.8879  -16.3807   28.1173 O   0  0  0  0  0  0  0  0  0  0  0  0
  2  1  1  0
  2  3  2  0
  4  2  1  0
  5  4  1  0
  6  5  1  0
  6  7  1  6
  8  6  1  0
  8  9  2  0
 10 11  1  0
 11 13  1  0
 11 12  2  0
 14 13  1  1
 14 15  1  0
 14 16  1  0
 15  8  1  0
 16 17  2  0
 16 18  1  0
 18 19  1  0
 19 22  1  0
 19 20  1  1
 21 20  1  0
 22 24  2  0
 22 23  1  0
M  END
$$$$
