QNC.pdb
     RDKit          3D

 24 23  0  0  1  0  0  0  0  0999 V2000
    6.9690  -12.6436   18.2339 N   0  0  0  0  0  0  0  0  0  0  0  0
    7.5726  -13.7590   17.6145 C   0  0  0  0  0  0  0  0  0  0  0  0
    7.4619  -13.9109   16.3846 O   0  0  0  0  0  0  0  0  0  0  0  0
    8.3265  -14.7330   18.4205 C   0  0  0  0  0  0  0  0  0  0  0  0
    8.1634  -14.4115   19.8689 C   0  0  0  0  0  0  0  0  0  0  0  0
    9.4546  -14.6053   20.6506 C   0  0  2  0  0  0  0  0  0  0  0  0
   10.2940  -15.5978   20.0152 N   0  0  0  0  0  0  0  0  0  0  0  0
    9.0832  -15.0769   21.9872 C   0  0  0  0  0  0  0  0  0  0  0  0
    8.1935  -14.4783   22.6294 O   0  0  0  0  0  0  0  0  0  0  0  0
   10.5443  -19.5779   22.3529 N   0  0  0  0  0  0  0  0  0  0  0  0
   10.6427  -18.6654   23.4398 C   0  0  0  0  0  0  0  0  0  0  0  0
   11.7735  -18.2991   23.8426 O   0  0  0  0  0  0  0  0  0  0  0  0
    9.4418  -18.1233   24.1239 C   0  0  0  0  0  0  0  0  0  0  0  0
    9.3915  -16.5986   23.9592 C   0  0  2  0  0  0  0  0  0  0  0  0
    9.7141  -16.2231   22.6008 N   0  0  0  0  0  0  0  0  0  0  0  0
   10.3767  -16.0458   24.9289 C   0  0  0  0  0  0  0  0  0  0  0  0
   11.2788  -16.7631   25.4306 O   0  0  0  0  0  0  0  0  0  0  0  0
   10.3613  -14.6912   25.3444 N   0  0  0  0  0  0  0  0  0  0  0  0
   10.1135  -14.2108   26.6569 C   0  0  1  0  0  0  0  0  0  0  0  0
    8.7995  -13.5241   26.8533 C   0  0  0  0  0  0  0  0  0  0  0  0
    8.5774  -12.9019   28.5316 S   0  0  0  0  0  0  0  0  0  0  0  0
   10.2497  -15.2526   27.6952 C   0  0  0  0  0  0  0  0  0  0  0  0
    9.5432  -16.4325   27.6028 O   0  0  0  0  0  0  0  0  0  0  0  0
   11.0094  -15.0733   28.6703 O   0  0  0  0  0  0  0  0  0  0  0  0
  2  1  1  0
  2  3  2  0
  4  2  1  0
  5  4  1  0
  6  5  1  0
  6  7  1  6
  8  6  1  0
  8  9  2  0
 10 11  1  0
 11 13  1  0
 11 12  2  0
 14 13  1  6
 14 15  1  0
 14 16  1  0
 15  8  1  0
 16 17  2  0
 16 18  1  0
 18 19  1  0
 19 22  1  0
 19 20  1  6
 21 20  1  0
 22 24  2  0
 22 23  1  0
M  END
$$$$
