QNC.pdb
     RDKit          3D

 24 23  0  0  1  0  0  0  0  0999 V2000
    8.2892  -20.0032   15.3709 N   0  0  0  0  0  0  0  0  0  0  0  0
    7.1570  -19.8296   16.1956 C   0  0  0  0  0  0  0  0  0  0  0  0
    6.0542  -20.2683   15.8223 O   0  0  0  0  0  0  0  0  0  0  0  0
    7.2837  -19.1343   17.4868 C   0  0  0  0  0  0  0  0  0  0  0  0
    8.6679  -18.5936   17.6263 C   0  0  0  0  0  0  0  0  0  0  0  0
    9.1800  -18.6840   19.0564 C   0  0  2  0  0  0  0  0  0  0  0  0
    8.1042  -19.0141   19.9659 N   0  0  0  0  0  0  0  0  0  0  0  0
    9.7162  -17.3663   19.4069 C   0  0  0  0  0  0  0  0  0  0  0  0
   10.7864  -16.9768   18.8918 O   0  0  0  0  0  0  0  0  0  0  0  0
    6.5342  -13.0302   20.9104 N   0  0  0  0  0  0  0  0  0  0  0  0
    7.3668  -14.1694   20.7285 C   0  0  0  0  0  0  0  0  0  0  0  0
    6.9537  -15.3023   21.0765 O   0  0  0  0  0  0  0  0  0  0  0  0
    8.7233  -14.0664   20.1343 C   0  0  0  0  0  0  0  0  0  0  0  0
    9.6130  -15.1976   20.6661 C   0  0  2  0  0  0  0  0  0  0  0  0
    9.0468  -16.4868   20.3380 N   0  0  0  0  0  0  0  0  0  0  0  0
    9.7002  -14.9966   22.1388 C   0  0  0  0  0  0  0  0  0  0  0  0
   10.1313  -13.9235   22.6314 O   0  0  0  0  0  0  0  0  0  0  0  0
    9.3077  -15.9903   23.0695 N   0  0  0  0  0  0  0  0  0  0  0  0
    9.3847  -15.9032   24.4842 C   0  0  1  0  0  0  0  0  0  0  0  0
    8.5921  -14.7973   25.1048 C   0  0  0  0  0  0  0  0  0  0  0  0
    6.8170  -15.1169   25.0972 S   0  0  0  0  0  0  0  0  0  0  0  0
    9.0306  -17.1645   25.1668 C   0  0  0  0  0  0  0  0  0  0  0  0
    9.2211  -17.3053   26.5246 O   0  0  0  0  0  0  0  0  0  0  0  0
    8.5533  -18.1186   24.5173 O   0  0  0  0  0  0  0  0  0  0  0  0
  2  1  1  0
  2  3  2  0
  4  2  1  0
  5  4  1  0
  6  5  1  0
  6  7  1  1
  8  6  1  0
  8  9  2  0
 10 11  1  0
 11 13  1  0
 11 12  2  0
 14 13  1  6
 14 15  1  0
 14 16  1  0
 15  8  1  0
 16 17  2  0
 16 18  1  0
 18 19  1  0
 19 22  1  0
 19 20  1  1
 21 20  1  0
 22 24  2  0
 22 23  1  0
M  END
$$$$
