QNC.pdb
     RDKit          3D

 24 23  0  0  1  0  0  0  0  0999 V2000
    6.7512  -12.7336   18.8723 N   0  0  0  0  0  0  0  0  0  0  0  0
    7.4939  -13.5513   17.9937 C   0  0  0  0  0  0  0  0  0  0  0  0
    7.5629  -13.2508   16.7884 O   0  0  0  0  0  0  0  0  0  0  0  0
    8.1801  -14.7497   18.5031 C   0  0  0  0  0  0  0  0  0  0  0  0
    7.8751  -14.9177   19.9545 C   0  0  0  0  0  0  0  0  0  0  0  0
    8.5156  -16.1696   20.5362 C   0  0  2  0  0  0  0  0  0  0  0  0
    8.0938  -17.3466   19.8081 N   0  0  0  0  0  0  0  0  0  0  0  0
    8.0647  -16.2790   21.9260 C   0  0  0  0  0  0  0  0  0  0  0  0
    6.8459  -16.1931   22.1897 O   0  0  0  0  0  0  0  0  0  0  0  0
    6.5811  -19.7942   25.8540 N   0  0  0  0  0  0  0  0  0  0  0  0
    7.3203  -18.6010   25.6221 C   0  0  0  0  0  0  0  0  0  0  0  0
    7.6825  -17.8959   26.5951 O   0  0  0  0  0  0  0  0  0  0  0  0
    7.6838  -18.1534   24.2541 C   0  0  0  0  0  0  0  0  0  0  0  0
    8.5006  -16.8567   24.3293 C   0  0  2  0  0  0  0  0  0  0  0  0
    8.9868  -16.4854   23.0194 N   0  0  0  0  0  0  0  0  0  0  0  0
    9.6202  -17.1282   25.2725 C   0  0  0  0  0  0  0  0  0  0  0  0
   10.6709  -17.7068   24.8964 O   0  0  0  0  0  0  0  0  0  0  0  0
    9.5744  -16.7563   26.6390 N   0  0  0  0  0  0  0  0  0  0  0  0
    9.7890  -15.4579   27.1709 C   0  0  1  0  0  0  0  0  0  0  0  0
    8.8116  -14.4138   26.7337 C   0  0  0  0  0  0  0  0  0  0  0  0
    9.2232  -12.7678   27.3455 S   0  0  0  0  0  0  0  0  0  0  0  0
    9.8592  -15.4358   28.6463 C   0  0  0  0  0  0  0  0  0  0  0  0
    9.5428  -16.5582   29.3810 O   0  0  0  0  0  0  0  0  0  0  0  0
   10.2074  -14.3957   29.2438 O   0  0  0  0  0  0  0  0  0  0  0  0
  2  1  1  0
  2  3  2  0
  4  2  1  0
  5  4  1  0
  6  5  1  0
  6  7  1  6
  8  6  1  0
  8  9  2  0
 10 11  1  0
 11 13  1  0
 11 12  2  0
 14 13  1  6
 14 15  1  0
 14 16  1  0
 15  8  1  0
 16 17  2  0
 16 18  1  0
 18 19  1  0
 19 22  1  0
 19 20  1  1
 21 20  1  0
 22 24  2  0
 22 23  1  0
M  END
$$$$
