QNC.pdb
     RDKit          3D

 24 23  0  0  1  0  0  0  0  0999 V2000
    8.3586  -12.3215   18.1202 N   0  0  0  0  0  0  0  0  0  0  0  0
    8.0631  -13.5446   17.4806 C   0  0  0  0  0  0  0  0  0  0  0  0
    8.2794  -13.6661   16.2614 O   0  0  0  0  0  0  0  0  0  0  0  0
    7.5034  -14.6655   18.2532 C   0  0  0  0  0  0  0  0  0  0  0  0
    7.3940  -14.2735   19.6893 C   0  0  0  0  0  0  0  0  0  0  0  0
    8.4800  -14.9103   20.5442 C   0  0  2  0  0  0  0  0  0  0  0  0
    8.9934  -16.1066   19.9128 N   0  0  0  0  0  0  0  0  0  0  0  0
    7.8655  -15.2704   21.8246 C   0  0  0  0  0  0  0  0  0  0  0  0
    6.6392  -15.5066   21.8777 O   0  0  0  0  0  0  0  0  0  0  0  0
    6.8939  -17.0221   26.5079 N   0  0  0  0  0  0  0  0  0  0  0  0
    6.9479  -17.8149   25.3278 C   0  0  0  0  0  0  0  0  0  0  0  0
    6.4816  -18.9800   25.3406 O   0  0  0  0  0  0  0  0  0  0  0  0
    7.5430  -17.3083   24.0656 C   0  0  0  0  0  0  0  0  0  0  0  0
    8.0232  -15.8638   24.2582 C   0  0  2  0  0  0  0  0  0  0  0  0
    8.6324  -15.3646   23.0458 N   0  0  0  0  0  0  0  0  0  0  0  0
    8.9953  -15.8988   25.3854 C   0  0  0  0  0  0  0  0  0  0  0  0
   10.0817  -16.5250   25.2974 O   0  0  0  0  0  0  0  0  0  0  0  0
    8.7615  -15.2362   26.6159 N   0  0  0  0  0  0  0  0  0  0  0  0
    9.7389  -14.8593   27.5737 C   0  0  1  0  0  0  0  0  0  0  0  0
    9.4417  -13.6088   28.3384 C   0  0  0  0  0  0  0  0  0  0  0  0
    8.2523  -12.5414   27.5022 S   0  0  0  0  0  0  0  0  0  0  0  0
   10.0501  -15.9300   28.5427 C   0  0  0  0  0  0  0  0  0  0  0  0
   11.0510  -15.7634   29.4756 O   0  0  0  0  0  0  0  0  0  0  0  0
    9.4067  -17.0003   28.5254 O   0  0  0  0  0  0  0  0  0  0  0  0
  2  1  1  0
  2  3  2  0
  4  2  1  0
  5  4  1  0
  6  5  1  0
  6  7  1  6
  8  6  1  0
  8  9  2  0
 10 11  1  0
 11 13  1  0
 11 12  2  0
 14 13  1  6
 14 15  1  0
 14 16  1  0
 15  8  1  0
 16 17  2  0
 16 18  1  0
 18 19  1  0
 19 22  1  0
 19 20  1  1
 21 20  1  0
 22 24  2  0
 22 23  1  0
M  END
$$$$
