QNC.pdb
     RDKit          3D

 24 23  0  0  1  0  0  0  0  0999 V2000
   14.8946  -15.3186   19.3810 N   0  0  0  0  0  0  0  0  0  0  0  0
   14.1800  -14.2611   19.9837 C   0  0  0  0  0  0  0  0  0  0  0  0
   14.8037  -13.3158   20.4989 O   0  0  0  0  0  0  0  0  0  0  0  0
   12.7083  -14.2799   20.0008 C   0  0  0  0  0  0  0  0  0  0  0  0
   12.2304  -15.6914   20.0859 C   0  0  0  0  0  0  0  0  0  0  0  0
   10.7119  -15.7876   20.0613 C   0  0  2  0  0  0  0  0  0  0  0  0
   10.1249  -14.5251   19.6676 N   0  0  0  0  0  0  0  0  0  0  0  0
   10.2780  -16.1138   21.4222 C   0  0  0  0  0  0  0  0  0  0  0  0
    9.4389  -15.3860   21.9953 O   0  0  0  0  0  0  0  0  0  0  0  0
   10.9297  -19.9006   26.2218 N   0  0  0  0  0  0  0  0  0  0  0  0
   10.1378  -19.3751   25.1631 C   0  0  0  0  0  0  0  0  0  0  0  0
    8.9062  -19.2052   25.3343 O   0  0  0  0  0  0  0  0  0  0  0  0
   10.7221  -19.0156   23.8466 C   0  0  0  0  0  0  0  0  0  0  0  0
   10.2578  -17.6121   23.4357 C   0  0  2  0  0  0  0  0  0  0  0  0
   10.7894  -17.2603   22.1380 N   0  0  0  0  0  0  0  0  0  0  0  0
   10.7465  -16.6885   24.4963 C   0  0  0  0  0  0  0  0  0  0  0  0
   11.9409  -16.2981   24.5289 O   0  0  0  0  0  0  0  0  0  0  0  0
    9.9068  -16.1958   25.5258 N   0  0  0  0  0  0  0  0  0  0  0  0
   10.2781  -15.3080   26.5692 C   0  0  1  0  0  0  0  0  0  0  0  0
    9.2890  -14.2298   26.8791 C   0  0  0  0  0  0  0  0  0  0  0  0
    9.8121  -13.1685   28.2405 S   0  0  0  0  0  0  0  0  0  0  0  0
   10.6182  -15.9987   27.8300 C   0  0  0  0  0  0  0  0  0  0  0  0
   11.3007  -15.3394   28.8296 O   0  0  0  0  0  0  0  0  0  0  0  0
   10.2891  -17.1911   28.0023 O   0  0  0  0  0  0  0  0  0  0  0  0
  2  1  1  0
  2  3  2  0
  4  2  1  0
  5  4  1  0
  6  5  1  0
  6  7  1  1
  8  6  1  0
  8  9  2  0
 10 11  1  0
 11 13  1  0
 11 12  2  0
 14 13  1  1
 14 15  1  0
 14 16  1  0
 15  8  1  0
 16 17  2  0
 16 18  1  0
 18 19  1  0
 19 22  1  0
 19 20  1  1
 21 20  1  0
 22 24  2  0
 22 23  1  0
M  END
$$$$
