QNC.pdb
     RDKit          3D

 24 23  0  0  1  0  0  0  0  0999 V2000
    8.8048  -12.2376   18.0533 N   0  0  0  0  0  0  0  0  0  0  0  0
    8.5038  -13.4915   17.4796 C   0  0  0  0  0  0  0  0  0  0  0  0
    9.2875  -13.9902   16.6517 O   0  0  0  0  0  0  0  0  0  0  0  0
    7.2716  -14.2010   17.8600 C   0  0  0  0  0  0  0  0  0  0  0  0
    7.1286  -14.1868   19.3457 C   0  0  0  0  0  0  0  0  0  0  0  0
    8.4334  -14.5231   20.0528 C   0  0  2  0  0  0  0  0  0  0  0  0
    9.1225  -15.5982   19.3726 N   0  0  0  0  0  0  0  0  0  0  0  0
    8.0897  -14.9571   21.4094 C   0  0  0  0  0  0  0  0  0  0  0  0
    7.1572  -14.3934   22.0217 O   0  0  0  0  0  0  0  0  0  0  0  0
    9.2248  -19.5591   21.9045 N   0  0  0  0  0  0  0  0  0  0  0  0
    8.4210  -18.8278   22.8226 C   0  0  0  0  0  0  0  0  0  0  0  0
    7.1843  -19.0365   22.8683 O   0  0  0  0  0  0  0  0  0  0  0  0
    8.9985  -17.8140   23.7406 C   0  0  0  0  0  0  0  0  0  0  0  0
    8.4251  -16.4286   23.4148 C   0  0  2  0  0  0  0  0  0  0  0  0
    8.7965  -16.0265   22.0767 N   0  0  0  0  0  0  0  0  0  0  0  0
    8.9794  -15.5011   24.4391 C   0  0  0  0  0  0  0  0  0  0  0  0
   10.2095  -15.2498   24.5015 O   0  0  0  0  0  0  0  0  0  0  0  0
    8.1658  -14.8492   25.3987 N   0  0  0  0  0  0  0  0  0  0  0  0
    8.6026  -13.9609   26.4161 C   0  0  1  0  0  0  0  0  0  0  0  0
    7.5830  -12.9755   26.8913 C   0  0  0  0  0  0  0  0  0  0  0  0
    6.6415  -12.2350   25.5426 S   0  0  0  0  0  0  0  0  0  0  0  0
    9.1602  -14.6535   27.5957 C   0  0  0  0  0  0  0  0  0  0  0  0
    9.7368  -13.9375   28.6227 O   0  0  0  0  0  0  0  0  0  0  0  0
    9.1141  -15.8992   27.6737 O   0  0  0  0  0  0  0  0  0  0  0  0
  2  1  1  0
  2  3  2  0
  4  2  1  0
  5  4  1  0
  6  5  1  0
  6  7  1  6
  8  6  1  0
  8  9  2  0
 10 11  1  0
 11 13  1  0
 11 12  2  0
 14 13  1  1
 14 15  1  0
 14 16  1  0
 15  8  1  0
 16 17  2  0
 16 18  1  0
 18 19  1  0
 19 22  1  0
 19 20  1  1
 21 20  1  0
 22 24  2  0
 22 23  1  0
M  END
$$$$
