QNC.pdb
     RDKit          3D

 24 23  0  0  1  0  0  0  0  0999 V2000
   10.9164  -13.0103   19.3377 N   0  0  0  0  0  0  0  0  0  0  0  0
    9.8087  -13.2620   18.4999 C   0  0  0  0  0  0  0  0  0  0  0  0
    9.9800  -13.8555   17.4199 O   0  0  0  0  0  0  0  0  0  0  0  0
    8.4627  -12.8243   18.9040 C   0  0  0  0  0  0  0  0  0  0  0  0
    8.1279  -13.4117   20.2348 C   0  0  0  0  0  0  0  0  0  0  0  0
    8.1493  -14.9331   20.2144 C   0  0  2  0  0  0  0  0  0  0  0  0
    7.0328  -15.4511   19.4539 N   0  0  0  0  0  0  0  0  0  0  0  0
    8.0336  -15.3850   21.6033 C   0  0  0  0  0  0  0  0  0  0  0  0
    6.9024  -15.5263   22.1158 O   0  0  0  0  0  0  0  0  0  0  0  0
   10.4792  -18.7782   21.9391 N   0  0  0  0  0  0  0  0  0  0  0  0
    9.5927  -18.4481   23.0017 C   0  0  0  0  0  0  0  0  0  0  0  0
    8.4991  -19.0543   23.1090 O   0  0  0  0  0  0  0  0  0  0  0  0
    9.9177  -17.3996   24.0012 C   0  0  0  0  0  0  0  0  0  0  0  0
    9.0367  -16.1653   23.7677 C   0  0  2  0  0  0  0  0  0  0  0  0
    9.1925  -15.6779   22.4155 N   0  0  0  0  0  0  0  0  0  0  0  0
    9.4716  -15.1523   24.7685 C   0  0  0  0  0  0  0  0  0  0  0  0
   10.5938  -14.5912   24.6909 O   0  0  0  0  0  0  0  0  0  0  0  0
    8.6583  -14.7599   25.8604 N   0  0  0  0  0  0  0  0  0  0  0  0
    9.0186  -13.8738   26.9091 C   0  0  1  0  0  0  0  0  0  0  0  0
    7.9430  -12.9364   27.3574 C   0  0  0  0  0  0  0  0  0  0  0  0
    6.6621  -12.6913   26.1114 S   0  0  0  0  0  0  0  0  0  0  0  0
    9.5539  -14.5654   28.0996 C   0  0  0  0  0  0  0  0  0  0  0  0
   10.0980  -13.8477   29.1430 O   0  0  0  0  0  0  0  0  0  0  0  0
    9.5184  -15.8118   28.1719 O   0  0  0  0  0  0  0  0  0  0  0  0
  2  1  1  0
  2  3  2  0
  4  2  1  0
  5  4  1  0
  6  5  1  0
  6  7  1  6
  8  6  1  0
  8  9  2  0
 10 11  1  0
 11 13  1  0
 11 12  2  0
 14 13  1  6
 14 15  1  0
 14 16  1  0
 15  8  1  0
 16 17  2  0
 16 18  1  0
 18 19  1  0
 19 22  1  0
 19 20  1  1
 21 20  1  0
 22 24  2  0
 22 23  1  0
M  END
$$$$
