QNC.pdb
     RDKit          3D

 24 23  0  0  1  0  0  0  0  0999 V2000
    7.3806  -16.0432   16.2801 N   0  0  0  0  0  0  0  0  0  0  0  0
    8.2345  -14.9638   15.9671 C   0  0  0  0  0  0  0  0  0  0  0  0
    8.3313  -14.5817   14.7870 O   0  0  0  0  0  0  0  0  0  0  0  0
    9.0031  -14.2977   17.0311 C   0  0  0  0  0  0  0  0  0  0  0  0
    8.6983  -14.9426   18.3423 C   0  0  0  0  0  0  0  0  0  0  0  0
    8.3554  -13.9235   19.4192 C   0  0  2  0  0  0  0  0  0  0  0  0
    9.5475  -13.2472   19.8828 N   0  0  0  0  0  0  0  0  0  0  0  0
    7.7578  -14.6602   20.5358 C   0  0  0  0  0  0  0  0  0  0  0  0
    6.7862  -15.4184   20.3275 O   0  0  0  0  0  0  0  0  0  0  0  0
    7.2735  -18.6432   24.4732 N   0  0  0  0  0  0  0  0  0  0  0  0
    6.9561  -17.3279   24.0337 C   0  0  0  0  0  0  0  0  0  0  0  0
    6.0755  -16.6674   24.6366 O   0  0  0  0  0  0  0  0  0  0  0  0
    7.6368  -16.6996   22.8736 C   0  0  0  0  0  0  0  0  0  0  0  0
    7.5530  -15.1716   22.9845 C   0  0  2  0  0  0  0  0  0  0  0  0
    8.2546  -14.5430   21.8878 N   0  0  0  0  0  0  0  0  0  0  0  0
    8.1605  -14.8189   24.2973 C   0  0  0  0  0  0  0  0  0  0  0  0
    9.2917  -15.2504   24.6353 O   0  0  0  0  0  0  0  0  0  0  0  0
    7.5104  -13.9840   25.2396 N   0  0  0  0  0  0  0  0  0  0  0  0
    8.0788  -13.4355   26.4190 C   0  0  1  0  0  0  0  0  0  0  0  0
    7.4559  -12.1647   26.9026 C   0  0  0  0  0  0  0  0  0  0  0  0
    5.6784  -12.0972   26.6040 S   0  0  0  0  0  0  0  0  0  0  0  0
    8.1174  -14.3891   27.5465 C   0  0  0  0  0  0  0  0  0  0  0  0
    8.8294  -14.0961   28.6897 O   0  0  0  0  0  0  0  0  0  0  0  0
    7.5027  -15.4739   27.4740 O   0  0  0  0  0  0  0  0  0  0  0  0
  2  1  1  0
  2  3  2  0
  4  2  1  0
  5  4  1  0
  6  5  1  0
  6  7  1  1
  8  6  1  0
  8  9  2  0
 10 11  1  0
 11 13  1  0
 11 12  2  0
 14 13  1  6
 14 15  1  0
 14 16  1  0
 15  8  1  0
 16 17  2  0
 16 18  1  0
 18 19  1  0
 19 22  1  0
 19 20  1  1
 21 20  1  0
 22 24  2  0
 22 23  1  0
M  END
$$$$
