QNC.pdb
     RDKit          3D

 24 23  0  0  1  0  0  0  0  0999 V2000
    4.5056  -16.2472    9.7692 N   0  0  0  0  0  0  0  0  0  0  0  0
    5.3418  -17.3247   10.1326 C   0  0  0  0  0  0  0  0  0  0  0  0
    6.1237  -17.8038    9.2918 O   0  0  0  0  0  0  0  0  0  0  0  0
    5.2866  -17.8747   11.4968 C   0  0  0  0  0  0  0  0  0  0  0  0
    4.2440  -17.1510   12.2825 C   0  0  0  0  0  0  0  0  0  0  0  0
    4.6820  -16.8889   13.7161 C   0  0  2  0  0  0  0  0  0  0  0  0
    6.1249  -16.9057   13.8221 N   0  0  0  0  0  0  0  0  0  0  0  0
    4.1286  -17.9665   14.5402 C   0  0  0  0  0  0  0  0  0  0  0  0
    2.9105  -18.2376   14.4678 O   0  0  0  0  0  0  0  0  0  0  0  0
    3.4557  -23.3717   15.7101 N   0  0  0  0  0  0  0  0  0  0  0  0
    3.2539  -22.0180   16.0983 C   0  0  0  0  0  0  0  0  0  0  0  0
    2.6221  -21.7618   17.1520 O   0  0  0  0  0  0  0  0  0  0  0  0
    3.7698  -20.8827   15.2928 C   0  0  0  0  0  0  0  0  0  0  0  0
    4.3706  -19.8168   16.2187 C   0  0  2  0  0  0  0  0  0  0  0  0
    4.9472  -18.7391   15.4465 N   0  0  0  0  0  0  0  0  0  0  0  0
    5.3992  -20.5144   17.0385 C   0  0  0  0  0  0  0  0  0  0  0  0
    5.0831  -21.3858   17.8876 O   0  0  0  0  0  0  0  0  0  0  0  0
    6.7848  -20.2444   16.9162 N   0  0  0  0  0  0  0  0  0  0  0  0
    7.7447  -20.2527   17.9619 C   0  0  1  0  0  0  0  0  0  0  0  0
    7.9108  -21.5581   18.6725 C   0  0  0  0  0  0  0  0  0  0  0  0
    9.2549  -21.5358   19.8751 S   0  0  0  0  0  0  0  0  0  0  0  0
    9.0794  -19.7875   17.5327 C   0  0  0  0  0  0  0  0  0  0  0  0
    9.6694  -20.2989   16.3968 O   0  0  0  0  0  0  0  0  0  0  0  0
    9.6881  -18.9231   18.1978 O   0  0  0  0  0  0  0  0  0  0  0  0
  2  1  1  0
  2  3  2  0
  4  2  1  0
  5  4  1  0
  6  5  1  0
  6  7  1  6
  8  6  1  0
  8  9  2  0
 10 11  1  0
 11 13  1  0
 11 12  2  0
 14 13  1  6
 14 15  1  0
 14 16  1  0
 15  8  1  0
 16 17  2  0
 16 18  1  0
 18 19  1  0
 19 22  1  0
 19 20  1  6
 21 20  1  0
 22 24  2  0
 22 23  1  0
M  END
$$$$
