QNC.pdb
     RDKit          3D

 24 23  0  0  1  0  0  0  0  0999 V2000
   13.3881  -18.9995   17.5840 N   0  0  0  0  0  0  0  0  0  0  0  0
   13.6285  -19.6197   18.8288 C   0  0  0  0  0  0  0  0  0  0  0  0
   13.3410  -20.8207   18.9804 O   0  0  0  0  0  0  0  0  0  0  0  0
   14.2150  -18.8486   19.9370 C   0  0  0  0  0  0  0  0  0  0  0  0
   13.3866  -17.6328   20.1892 C   0  0  0  0  0  0  0  0  0  0  0  0
   13.2429  -17.3320   21.6740 C   0  0  2  0  0  0  0  0  0  0  0  0
   12.9128  -18.5330   22.4104 N   0  0  0  0  0  0  0  0  0  0  0  0
   12.1488  -16.3678   21.8150 C   0  0  0  0  0  0  0  0  0  0  0  0
   12.1936  -15.2855   21.1913 O   0  0  0  0  0  0  0  0  0  0  0  0
    6.1919  -15.6072   22.8656 N   0  0  0  0  0  0  0  0  0  0  0  0
    7.5059  -15.2992   22.4155 C   0  0  0  0  0  0  0  0  0  0  0  0
    7.7722  -14.1361   22.0263 O   0  0  0  0  0  0  0  0  0  0  0  0
    8.5875  -16.3157   22.3891 C   0  0  0  0  0  0  0  0  0  0  0  0
    9.9280  -15.6603   22.7463 C   0  0  2  0  0  0  0  0  0  0  0  0
   11.0036  -16.6224   22.6590 N   0  0  0  0  0  0  0  0  0  0  0  0
    9.7746  -15.1344   24.1307 C   0  0  0  0  0  0  0  0  0  0  0  0
    9.0783  -14.1165   24.3739 O   0  0  0  0  0  0  0  0  0  0  0  0
   10.3963  -15.7402   25.2507 N   0  0  0  0  0  0  0  0  0  0  0  0
   10.3115  -15.3112   26.6011 C   0  0  1  0  0  0  0  0  0  0  0  0
    9.0187  -14.6692   26.9923 C   0  0  0  0  0  0  0  0  0  0  0  0
    9.2335  -13.3226   28.1729 S   0  0  0  0  0  0  0  0  0  0  0  0
   10.6077  -16.3829   27.5737 C   0  0  0  0  0  0  0  0  0  0  0  0
   11.0448  -16.0765   28.8445 O   0  0  0  0  0  0  0  0  0  0  0  0
   10.4642  -17.5812   27.2522 O   0  0  0  0  0  0  0  0  0  0  0  0
  2  1  1  0
  2  3  2  0
  4  2  1  0
  5  4  1  0
  6  5  1  0
  6  7  1  1
  8  6  1  0
  8  9  2  0
 10 11  1  0
 11 13  1  0
 11 12  2  0
 14 13  1  1
 14 15  1  0
 14 16  1  0
 15  8  1  0
 16 17  2  0
 16 18  1  0
 18 19  1  0
 19 22  1  0
 19 20  1  1
 21 20  1  0
 22 24  2  0
 22 23  1  0
M  END
$$$$
