QNC.pdb
     RDKit          3D

 24 23  0  0  1  0  0  0  0  0999 V2000
    9.0533  -12.5438   18.3496 N   0  0  0  0  0  0  0  0  0  0  0  0
    7.9848  -13.1415   17.6474 C   0  0  0  0  0  0  0  0  0  0  0  0
    7.0971  -12.4223   17.1547 O   0  0  0  0  0  0  0  0  0  0  0  0
    7.9244  -14.6049   17.5010 C   0  0  0  0  0  0  0  0  0  0  0  0
    9.0843  -15.2233   18.2081 C   0  0  0  0  0  0  0  0  0  0  0  0
   10.3337  -15.2618   17.3402 C   0  0  2  0  0  0  0  0  0  0  0  0
   10.1482  -16.1512   16.2142 N   0  0  0  0  0  0  0  0  0  0  0  0
   11.4246  -15.7690   18.1766 C   0  0  0  0  0  0  0  0  0  0  0  0
   11.4779  -16.9869   18.4525 O   0  0  0  0  0  0  0  0  0  0  0  0
   15.4635  -13.3298   17.4615 N   0  0  0  0  0  0  0  0  0  0  0  0
   15.2626  -14.5448   18.1738 C   0  0  0  0  0  0  0  0  0  0  0  0
   15.5428  -15.6389   17.6266 O   0  0  0  0  0  0  0  0  0  0  0  0
   14.7272  -14.5664   19.5583 C   0  0  0  0  0  0  0  0  0  0  0  0
   13.4540  -15.4211   19.6118 C   0  0  2  0  0  0  0  0  0  0  0  0
   12.4560  -14.9040   18.7024 N   0  0  0  0  0  0  0  0  0  0  0  0
   12.9847  -15.3746   21.0240 C   0  0  0  0  0  0  0  0  0  0  0  0
   13.4716  -14.5640   21.8523 O   0  0  0  0  0  0  0  0  0  0  0  0
   11.9707  -16.2311   21.5200 N   0  0  0  0  0  0  0  0  0  0  0  0
   11.3992  -16.2031   22.8190 C   0  0  1  0  0  0  0  0  0  0  0  0
    9.9048  -16.1684   22.8638 C   0  0  0  0  0  0  0  0  0  0  0  0
    9.1979  -14.9422   21.7458 S   0  0  0  0  0  0  0  0  0  0  0  0
   11.8616  -17.3076   23.6841 C   0  0  0  0  0  0  0  0  0  0  0  0
   12.6390  -18.3234   23.1705 O   0  0  0  0  0  0  0  0  0  0  0  0
   11.5511  -17.3314   24.8937 O   0  0  0  0  0  0  0  0  0  0  0  0
  2  1  1  0
  2  3  2  0
  4  2  1  0
  5  4  1  0
  6  5  1  0
  6  7  1  6
  8  6  1  0
  8  9  2  0
 10 11  1  0
 11 13  1  0
 11 12  2  0
 14 13  1  1
 14 15  1  0
 14 16  1  0
 15  8  1  0
 16 17  2  0
 16 18  1  0
 18 19  1  0
 19 22  1  0
 19 20  1  6
 21 20  1  0
 22 24  2  0
 22 23  1  0
M  END
$$$$
