QNC.pdb
     RDKit          3D

 24 23  0  0  1  0  0  0  0  0999 V2000
    8.5323  -12.4542   18.5361 N   0  0  0  0  0  0  0  0  0  0  0  0
    8.1345  -13.5067   17.6839 C   0  0  0  0  0  0  0  0  0  0  0  0
    8.3958  -13.4431   16.4690 O   0  0  0  0  0  0  0  0  0  0  0  0
    7.4163  -14.6689   18.2314 C   0  0  0  0  0  0  0  0  0  0  0  0
    7.2695  -14.5115   19.7085 C   0  0  0  0  0  0  0  0  0  0  0  0
    8.5169  -14.9512   20.4611 C   0  0  2  0  0  0  0  0  0  0  0  0
    9.1353  -16.0853   19.8094 N   0  0  0  0  0  0  0  0  0  0  0  0
    8.0924  -15.3450   21.8070 C   0  0  0  0  0  0  0  0  0  0  0  0
    7.2515  -14.6512   22.4184 O   0  0  0  0  0  0  0  0  0  0  0  0
    6.2561  -19.5102   24.0097 N   0  0  0  0  0  0  0  0  0  0  0  0
    7.5012  -19.1508   23.4226 C   0  0  0  0  0  0  0  0  0  0  0  0
    7.7810  -19.5510   22.2665 O   0  0  0  0  0  0  0  0  0  0  0  0
    8.4941  -18.3088   24.1360 C   0  0  0  0  0  0  0  0  0  0  0  0
    8.2400  -16.8276   23.8269 C   0  0  2  0  0  0  0  0  0  0  0  0
    8.6153  -16.5208   22.4648 N   0  0  0  0  0  0  0  0  0  0  0  0
    9.0538  -16.0559   24.8062 C   0  0  0  0  0  0  0  0  0  0  0  0
   10.3066  -15.9997   24.7203 O   0  0  0  0  0  0  0  0  0  0  0  0
    8.4756  -15.3435   25.8859 N   0  0  0  0  0  0  0  0  0  0  0  0
    9.1688  -14.6156   26.8881 C   0  0  1  0  0  0  0  0  0  0  0  0
    8.4049  -13.4907   27.5108 C   0  0  0  0  0  0  0  0  0  0  0  0
    9.3330  -12.6447   28.8054 S   0  0  0  0  0  0  0  0  0  0  0  0
    9.6963  -15.4707   27.9711 C   0  0  0  0  0  0  0  0  0  0  0  0
    9.0609  -16.6459   28.3102 O   0  0  0  0  0  0  0  0  0  0  0  0
   10.7269  -15.1353   28.5918 O   0  0  0  0  0  0  0  0  0  0  0  0
  2  1  1  0
  2  3  2  0
  4  2  1  0
  5  4  1  0
  6  5  1  0
  6  7  1  6
  8  6  1  0
  8  9  2  0
 10 11  1  0
 11 13  1  0
 11 12  2  0
 14 13  1  1
 14 15  1  0
 14 16  1  0
 15  8  1  0
 16 17  2  0
 16 18  1  0
 18 19  1  0
 19 22  1  0
 19 20  1  1
 21 20  1  0
 22 24  2  0
 22 23  1  0
M  END
$$$$
