QNC.pdb
     RDKit          3D

 24 23  0  0  1  0  0  0  0  0999 V2000
    7.3263  -12.5626   17.7911 N   0  0  0  0  0  0  0  0  0  0  0  0
    7.4799  -13.9122   17.4077 C   0  0  0  0  0  0  0  0  0  0  0  0
    7.1676  -14.2608   16.2549 O   0  0  0  0  0  0  0  0  0  0  0  0
    8.0058  -14.8970   18.3670 C   0  0  0  0  0  0  0  0  0  0  0  0
    8.1607  -14.2536   19.7049 C   0  0  0  0  0  0  0  0  0  0  0  0
    9.1805  -14.9735   20.5753 C   0  0  2  0  0  0  0  0  0  0  0  0
    9.4646  -16.2908   20.0486 N   0  0  0  0  0  0  0  0  0  0  0  0
    8.5906  -15.1081   21.9097 C   0  0  0  0  0  0  0  0  0  0  0  0
    8.0655  -14.1147   22.4572 O   0  0  0  0  0  0  0  0  0  0  0  0
    7.1926  -19.1076   26.4756 N   0  0  0  0  0  0  0  0  0  0  0  0
    6.9807  -18.0288   25.5727 C   0  0  0  0  0  0  0  0  0  0  0  0
    6.1715  -17.1176   25.8730 O   0  0  0  0  0  0  0  0  0  0  0  0
    7.6905  -17.9398   24.2719 C   0  0  0  0  0  0  0  0  0  0  0  0
    7.9492  -16.4694   23.9184 C   0  0  2  0  0  0  0  0  0  0  0  0
    8.5919  -16.3622   22.6278 N   0  0  0  0  0  0  0  0  0  0  0  0
    8.8107  -15.9288   25.0058 C   0  0  0  0  0  0  0  0  0  0  0  0
   10.0221  -16.2494   25.1056 O   0  0  0  0  0  0  0  0  0  0  0  0
    8.3266  -15.0286   25.9872 N   0  0  0  0  0  0  0  0  0  0  0  0
    9.0793  -14.4273   27.0296 C   0  0  1  0  0  0  0  0  0  0  0  0
    8.4629  -13.2149   27.6514 C   0  0  0  0  0  0  0  0  0  0  0  0
    7.9853  -11.9698   26.4370 S   0  0  0  0  0  0  0  0  0  0  0  0
    9.4365  -15.3693   28.1099 C   0  0  0  0  0  0  0  0  0  0  0  0
   10.2293  -14.9632   29.1618 O   0  0  0  0  0  0  0  0  0  0  0  0
    9.0217  -16.5470   28.0801 O   0  0  0  0  0  0  0  0  0  0  0  0
  2  1  1  0
  2  3  2  0
  4  2  1  0
  5  4  1  0
  6  5  1  0
  6  7  1  6
  8  6  1  0
  8  9  2  0
 10 11  1  0
 11 13  1  0
 11 12  2  0
 14 13  1  1
 14 15  1  0
 14 16  1  0
 15  8  1  0
 16 17  2  0
 16 18  1  0
 18 19  1  0
 19 22  1  0
 19 20  1  1
 21 20  1  0
 22 24  2  0
 22 23  1  0
M  END
$$$$
