QNC.pdb
     RDKit          3D

 24 23  0  0  1  0  0  0  0  0999 V2000
    8.5587  -12.9253   19.2048 N   0  0  0  0  0  0  0  0  0  0  0  0
    7.8330  -13.4632   18.1201 C   0  0  0  0  0  0  0  0  0  0  0  0
    7.2653  -12.6956   17.3223 O   0  0  0  0  0  0  0  0  0  0  0  0
    7.7506  -14.9214   17.9374 C   0  0  0  0  0  0  0  0  0  0  0  0
    8.4753  -15.6032   19.0501 C   0  0  0  0  0  0  0  0  0  0  0  0
    9.1144  -16.9106   18.6049 C   0  0  2  0  0  0  0  0  0  0  0  0
    8.1036  -17.8627   18.1986 N   0  0  0  0  0  0  0  0  0  0  0  0
    9.8437  -17.4484   19.7563 C   0  0  0  0  0  0  0  0  0  0  0  0
    9.3161  -18.3325   20.4649 O   0  0  0  0  0  0  0  0  0  0  0  0
   13.6236  -20.1078   20.2563 N   0  0  0  0  0  0  0  0  0  0  0  0
   13.5788  -18.7225   19.9358 C   0  0  0  0  0  0  0  0  0  0  0  0
   13.7312  -18.3554   18.7454 O   0  0  0  0  0  0  0  0  0  0  0  0
   13.3555  -17.6817   20.9706 C   0  0  0  0  0  0  0  0  0  0  0  0
   11.8542  -17.5434   21.2557 C   0  0  2  0  0  0  0  0  0  0  0  0
   11.1679  -16.9902   20.1098 N   0  0  0  0  0  0  0  0  0  0  0  0
   11.7399  -16.6541   22.4444 C   0  0  0  0  0  0  0  0  0  0  0  0
   12.1836  -15.4780   22.4306 O   0  0  0  0  0  0  0  0  0  0  0  0
   11.1309  -17.0709   23.6540 N   0  0  0  0  0  0  0  0  0  0  0  0
   10.9686  -16.2952   24.8315 C   0  0  1  0  0  0  0  0  0  0  0  0
    9.8298  -15.3260   24.8117 C   0  0  0  0  0  0  0  0  0  0  0  0
    8.2444  -16.1139   24.4666 S   0  0  0  0  0  0  0  0  0  0  0  0
   10.8588  -17.1116   26.0578 C   0  0  0  0  0  0  0  0  0  0  0  0
   10.6751  -18.4753   25.9791 O   0  0  0  0  0  0  0  0  0  0  0  0
   10.9318  -16.5714   27.1816 O   0  0  0  0  0  0  0  0  0  0  0  0
  2  1  1  0
  2  3  2  0
  4  2  1  0
  5  4  1  0
  6  5  1  0
  6  7  1  1
  8  6  1  0
  8  9  2  0
 10 11  1  0
 11 13  1  0
 11 12  2  0
 14 13  1  6
 14 15  1  0
 14 16  1  0
 15  8  1  0
 16 17  2  0
 16 18  1  0
 18 19  1  0
 19 22  1  0
 19 20  1  6
 21 20  1  0
 22 24  2  0
 22 23  1  0
M  END
$$$$
