CKT.pdb
     RDKit          3D

 23 22  0  0  1  0  0  0  0  0999 V2000
    8.7409  -16.5149   17.7944 N   0  0  0  0  0  0  0  0  0  0  0  0
    7.8424  -16.7616   18.9185 C   0  0  1  0  0  0  0  0  0  0  0  0
    7.6570  -18.2542   19.1152 C   0  0  0  0  0  0  0  0  0  0  0  0
    6.6059  -18.9964   17.8688 S   0  0  0  0  0  0  0  0  0  0  0  0
    8.4604  -16.1975   20.1405 C   0  0  0  0  0  0  0  0  0  0  0  0
    9.7229  -16.1203   20.1896 O   0  0  0  0  0  0  0  0  0  0  0  0
    7.7443  -15.7377   21.2553 N   0  0  0  0  0  0  0  0  0  0  0  0
    8.4827  -15.1123   22.3693 C   0  0  1  0  0  0  0  0  0  0  0  0
    7.3875  -14.4591   23.1863 C   0  0  0  0  0  0  0  0  0  0  0  0
    7.7996  -13.8288   24.4558 C   0  0  0  0  0  0  0  0  0  0  0  0
    6.5465  -13.2068   25.0971 C   0  0  0  0  0  0  0  0  0  0  0  0
    6.8306  -12.4902   26.3712 C   0  0  0  0  0  0  0  0  0  0  0  0
    5.5310  -11.9582   26.8320 N   0  0  0  0  0  0  0  0  0  0  0  0
    9.1562  -16.1824   23.1300 C   0  0  0  0  0  0  0  0  0  0  0  0
    8.4979  -17.2238   23.4037 O   0  0  0  0  0  0  0  0  0  0  0  0
   12.0549  -18.1383   22.1944 C   0  0  0  0  0  0  0  0  0  0  0  0
   12.3432  -17.6999   23.6151 C   0  0  1  0  0  0  0  0  0  0  0  0
   13.2376  -16.6332   23.5422 O   0  0  0  0  0  0  0  0  0  0  0  0
   11.0539  -17.2919   24.2762 C   0  0  2  0  0  0  0  0  0  0  0  0
   10.4996  -16.1352   23.5797 N   0  0  0  0  0  0  0  0  0  0  0  0
   11.3388  -16.9199   25.6826 C   0  0  0  0  0  0  0  0  0  0  0  0
   11.7917  -17.7588   26.4877 O   0  0  0  0  0  0  0  0  0  0  0  0
   11.1154  -15.6347   26.1572 O   0  0  0  0  0  0  0  0  0  0  0  0
  2  1  1  6
  2  5  1  0
  2  3  1  0
  4  3  1  0
  5  6  2  0
  7  8  1  0
  7  5  1  0
  9 10  1  0
  8  9  1  1
 10 11  1  0
 11 12  1  0
 13 12  1  0
 14 15  2  0
 14  8  1  0
 17 16  1  6
 17 19  1  0
 18 17  1  0
 19 20  1  6
 19 21  1  0
 20 14  1  0
 21 22  2  0
 21 23  1  0
M  END
$$$$
