CKT.pdb
     RDKit          3D

 23 22  0  0  1  0  0  0  0  0999 V2000
    4.8656  -15.5793   26.3233 N   0  0  0  0  0  0  0  0  0  0  0  0
    5.6109  -14.5114   25.6631 C   0  0  1  0  0  0  0  0  0  0  0  0
    6.0970  -13.5074   26.6910 C   0  0  0  0  0  0  0  0  0  0  0  0
    4.8524  -12.2933   27.1225 S   0  0  0  0  0  0  0  0  0  0  0  0
    6.7888  -15.1106   24.9946 C   0  0  0  0  0  0  0  0  0  0  0  0
    7.0627  -16.3217   25.2407 O   0  0  0  0  0  0  0  0  0  0  0  0
    7.6287  -14.4303   24.1009 N   0  0  0  0  0  0  0  0  0  0  0  0
    8.6862  -15.1846   23.4010 C   0  0  1  0  0  0  0  0  0  0  0  0
    9.0673  -14.2664   22.2585 C   0  0  0  0  0  0  0  0  0  0  0  0
    8.1949  -14.2986   21.0683 C   0  0  0  0  0  0  0  0  0  0  0  0
    8.9668  -13.6505   19.9053 C   0  0  0  0  0  0  0  0  0  0  0  0
    8.1841  -13.5898   18.6400 C   0  0  0  0  0  0  0  0  0  0  0  0
    9.0154  -12.8222   17.6891 N   0  0  0  0  0  0  0  0  0  0  0  0
    9.8106  -15.3732   24.3379 C   0  0  0  0  0  0  0  0  0  0  0  0
   10.9341  -15.6970   23.8628 O   0  0  0  0  0  0  0  0  0  0  0  0
   10.7009  -13.2743   27.6661 C   0  0  0  0  0  0  0  0  0  0  0  0
   10.7648  -14.7716   27.8844 C   0  0  1  0  0  0  0  0  0  0  0  0
    9.5790  -15.1455   28.5147 O   0  0  0  0  0  0  0  0  0  0  0  0
   10.9196  -15.4575   26.5534 C   0  0  2  0  0  0  0  0  0  0  0  0
    9.7296  -15.2142   25.7440 N   0  0  0  0  0  0  0  0  0  0  0  0
   11.0589  -16.9152   26.7843 C   0  0  0  0  0  0  0  0  0  0  0  0
   10.2225  -17.7190   26.3248 O   0  0  0  0  0  0  0  0  0  0  0  0
   12.1161  -17.4407   27.5144 O   0  0  0  0  0  0  0  0  0  0  0  0
  2  1  1  1
  2  5  1  0
  2  3  1  0
  4  3  1  0
  5  6  2  0
  7  8  1  0
  7  5  1  0
  9 10  1  0
  8  9  1  6
 10 11  1  0
 11 12  1  0
 13 12  1  0
 14 15  2  0
 14  8  1  0
 17 16  1  6
 17 19  1  0
 18 17  1  0
 19 20  1  6
 19 21  1  0
 20 14  1  0
 21 22  2  0
 21 23  1  0
M  END
$$$$
