CKT.pdb
     RDKit          3D

 23 22  0  0  1  0  0  0  0  0999 V2000
    7.4580  -15.1875   18.7423 N   0  0  0  0  0  0  0  0  0  0  0  0
    8.2137  -14.4324   19.7374 C   0  0  1  0  0  0  0  0  0  0  0  0
    7.7000  -13.0068   19.8053 C   0  0  0  0  0  0  0  0  0  0  0  0
    8.5692  -11.8991   18.6976 S   0  0  0  0  0  0  0  0  0  0  0  0
    8.0110  -15.0707   21.0583 C   0  0  0  0  0  0  0  0  0  0  0  0
    6.8301  -15.3711   21.4010 O   0  0  0  0  0  0  0  0  0  0  0  0
    9.0391  -15.3704   21.9638 N   0  0  0  0  0  0  0  0  0  0  0  0
    8.6922  -15.9876   23.2585 C   0  0  1  0  0  0  0  0  0  0  0  0
    9.7168  -17.0939   23.3997 C   0  0  0  0  0  0  0  0  0  0  0  0
    9.6982  -17.8513   24.6665 C   0  0  0  0  0  0  0  0  0  0  0  0
   10.8064  -18.9163   24.5906 C   0  0  0  0  0  0  0  0  0  0  0  0
   10.9273  -19.7304   25.8316 C   0  0  0  0  0  0  0  0  0  0  0  0
   11.9363  -20.7688   25.5349 N   0  0  0  0  0  0  0  0  0  0  0  0
    8.8547  -14.9660   24.3109 C   0  0  0  0  0  0  0  0  0  0  0  0
    9.8978  -14.2557   24.2957 O   0  0  0  0  0  0  0  0  0  0  0  0
    6.8816  -11.8936   25.5893 C   0  0  0  0  0  0  0  0  0  0  0  0
    7.0699  -12.9015   26.7039 C   0  0  1  0  0  0  0  0  0  0  0  0
    5.9034  -13.6616   26.7714 O   0  0  0  0  0  0  0  0  0  0  0  0
    8.2677  -13.7593   26.3954 C   0  0  2  0  0  0  0  0  0  0  0  0
    7.9207  -14.7133   25.3467 N   0  0  0  0  0  0  0  0  0  0  0  0
    8.6471  -14.5028   27.6205 C   0  0  0  0  0  0  0  0  0  0  0  0
    8.6477  -15.7504   27.6380 O   0  0  0  0  0  0  0  0  0  0  0  0
    9.0138  -13.8472   28.7878 O   0  0  0  0  0  0  0  0  0  0  0  0
  2  1  1  6
  2  5  1  0
  2  3  1  0
  4  3  1  0
  5  6  2  0
  7  8  1  0
  7  5  1  0
  9 10  1  0
  8  9  1  1
 10 11  1  0
 11 12  1  0
 13 12  1  0
 14 15  2  0
 14  8  1  0
 17 16  1  6
 17 19  1  0
 18 17  1  0
 19 20  1  6
 19 21  1  0
 20 14  1  0
 21 22  2  0
 21 23  1  0
M  END
$$$$
