CKT.pdb
     RDKit          3D

 23 22  0  0  1  0  0  0  0  0999 V2000
   10.4300  -18.1900   15.4730 N   0  0  0  0  0  0  0  0  0  0  0  0
   11.1554  -19.0331   16.4188 C   0  0  1  0  0  0  0  0  0  0  0  0
   12.5807  -18.5360   16.5681 C   0  0  0  0  0  0  0  0  0  0  0  0
   13.6986  -19.2531   15.3658 S   0  0  0  0  0  0  0  0  0  0  0  0
   10.4829  -18.9408   17.7351 C   0  0  0  0  0  0  0  0  0  0  0  0
    9.8085  -17.9002   17.9889 O   0  0  0  0  0  0  0  0  0  0  0  0
   10.5374  -19.9298   18.7280 N   0  0  0  0  0  0  0  0  0  0  0  0
    9.7570  -19.7415   19.9661 C   0  0  1  0  0  0  0  0  0  0  0  0
    9.5095  -21.1593   20.4377 C   0  0  0  0  0  0  0  0  0  0  0  0
    8.8306  -21.3115   21.7395 C   0  0  0  0  0  0  0  0  0  0  0  0
    8.6439  -22.8174   21.9959 C   0  0  0  0  0  0  0  0  0  0  0  0
    7.8670  -23.1127   23.2316 C   0  0  0  0  0  0  0  0  0  0  0  0
    7.7581  -24.5853   23.2959 N   0  0  0  0  0  0  0  0  0  0  0  0
   10.5930  -18.9936   20.9250 C   0  0  0  0  0  0  0  0  0  0  0  0
   11.8459  -19.1273   20.8538 O   0  0  0  0  0  0  0  0  0  0  0  0
    9.9633  -15.2255   21.9793 C   0  0  0  0  0  0  0  0  0  0  0  0
   10.3500  -16.0688   23.1764 C   0  0  1  0  0  0  0  0  0  0  0  0
    9.1752  -16.3675   23.8648 O   0  0  0  0  0  0  0  0  0  0  0  0
   11.0389  -17.3184   22.6971 C   0  0  2  0  0  0  0  0  0  0  0  0
   10.0959  -18.1246   21.9283 N   0  0  0  0  0  0  0  0  0  0  0  0
   11.4898  -18.0940   23.8772 C   0  0  0  0  0  0  0  0  0  0  0  0
   10.9562  -19.1834   24.1695 O   0  0  0  0  0  0  0  0  0  0  0  0
   12.5149  -17.6441   24.6979 O   0  0  0  0  0  0  0  0  0  0  0  0
  2  1  1  6
  2  5  1  0
  2  3  1  0
  4  3  1  0
  5  6  2  0
  7  8  1  0
  7  5  1  0
  9 10  1  0
  8  9  1  1
 10 11  1  0
 11 12  1  0
 13 12  1  0
 14 15  2  0
 14  8  1  0
 17 16  1  6
 17 19  1  0
 18 17  1  0
 19 20  1  1
 19 21  1  0
 20 14  1  0
 21 22  2  0
 21 23  1  0
M  END
$$$$
