CKT.pdb
     RDKit          3D

 23 22  0  0  1  0  0  0  0  0999 V2000
    7.9387  -13.3479   17.9341 N   0  0  0  0  0  0  0  0  0  0  0  0
    8.7905  -14.0987   18.8518 C   0  0  1  0  0  0  0  0  0  0  0  0
    9.7930  -13.1676   19.5069 C   0  0  0  0  0  0  0  0  0  0  0  0
   11.2637  -12.9177   18.5150 S   0  0  0  0  0  0  0  0  0  0  0  0
    7.9332  -14.6868   19.9066 C   0  0  0  0  0  0  0  0  0  0  0  0
    6.9379  -14.0165   20.3092 O   0  0  0  0  0  0  0  0  0  0  0  0
    8.1437  -15.9421   20.4957 N   0  0  0  0  0  0  0  0  0  0  0  0
    7.2095  -16.4061   21.5393 C   0  0  1  0  0  0  0  0  0  0  0  0
    7.0654  -17.8841   21.2418 C   0  0  0  0  0  0  0  0  0  0  0  0
    6.3211  -18.6860   22.2326 C   0  0  0  0  0  0  0  0  0  0  0  0
    6.3078  -20.1436   21.7391 C   0  0  0  0  0  0  0  0  0  0  0  0
    5.5645  -21.0649   22.6427 C   0  0  0  0  0  0  0  0  0  0  0  0
    5.7669  -22.4206   22.0900 N   0  0  0  0  0  0  0  0  0  0  0  0
    7.8421  -16.1808   22.8532 C   0  0  0  0  0  0  0  0  0  0  0  0
    9.0891  -16.3494   22.9509 O   0  0  0  0  0  0  0  0  0  0  0  0
    7.7253  -13.1386   25.2289 C   0  0  0  0  0  0  0  0  0  0  0  0
    7.3694  -14.3950   25.9959 C   0  0  1  0  0  0  0  0  0  0  0  0
    5.9792  -14.4400   26.0878 O   0  0  0  0  0  0  0  0  0  0  0  0
    7.9106  -15.5915   25.2603 C   0  0  2  0  0  0  0  0  0  0  0  0
    7.1542  -15.7820   24.0266 N   0  0  0  0  0  0  0  0  0  0  0  0
    7.7479  -16.7895   26.1182 C   0  0  0  0  0  0  0  0  0  0  0  0
    8.3494  -16.8835   27.2073 O   0  0  0  0  0  0  0  0  0  0  0  0
    6.9272  -17.8460   25.7482 O   0  0  0  0  0  0  0  0  0  0  0  0
  2  1  1  6
  2  5  1  0
  2  3  1  0
  4  3  1  0
  5  6  2  0
  7  8  1  0
  7  5  1  0
  9 10  1  0
  8  9  1  6
 10 11  1  0
 11 12  1  0
 13 12  1  0
 14 15  2  0
 14  8  1  0
 17 16  1  6
 17 19  1  0
 18 17  1  0
 19 20  1  6
 19 21  1  0
 20 14  1  0
 21 22  2  0
 21 23  1  0
M  END
$$$$
