CKT.pdb
     RDKit          3D

 23 22  0  0  1  0  0  0  0  0999 V2000
    7.3769  -14.9613   18.5859 N   0  0  0  0  0  0  0  0  0  0  0  0
    8.3695  -14.4182   19.5086 C   0  0  1  0  0  0  0  0  0  0  0  0
    8.2324  -12.9096   19.5873 C   0  0  0  0  0  0  0  0  0  0  0  0
    8.7285  -12.0848   18.0764 S   0  0  0  0  0  0  0  0  0  0  0  0
    8.1152  -14.9861   20.8526 C   0  0  0  0  0  0  0  0  0  0  0  0
    6.9145  -15.1933   21.1954 O   0  0  0  0  0  0  0  0  0  0  0  0
    9.1145  -15.3151   21.7800 N   0  0  0  0  0  0  0  0  0  0  0  0
    8.7362  -16.0355   23.0109 C   0  0  1  0  0  0  0  0  0  0  0  0
    9.7266  -17.1803   23.0597 C   0  0  0  0  0  0  0  0  0  0  0  0
    9.6575  -18.0613   24.2420 C   0  0  0  0  0  0  0  0  0  0  0  0
   10.7663  -19.1193   24.1018 C   0  0  0  0  0  0  0  0  0  0  0  0
   10.8396  -20.0529   25.2597 C   0  0  0  0  0  0  0  0  0  0  0  0
   11.9163  -21.0120   24.9356 N   0  0  0  0  0  0  0  0  0  0  0  0
    8.9174  -15.1181   24.1524 C   0  0  0  0  0  0  0  0  0  0  0  0
   10.0302  -14.5362   24.2782 O   0  0  0  0  0  0  0  0  0  0  0  0
    6.8202  -12.0881   25.6076 C   0  0  0  0  0  0  0  0  0  0  0  0
    7.0642  -13.1617   26.6474 C   0  0  1  0  0  0  0  0  0  0  0  0
    5.9188  -13.9547   26.6954 O   0  0  0  0  0  0  0  0  0  0  0  0
    8.2732  -13.9661   26.2509 C   0  0  2  0  0  0  0  0  0  0  0  0
    7.9293  -14.8322   25.1276 N   0  0  0  0  0  0  0  0  0  0  0  0
    8.6831  -14.8054   27.4020 C   0  0  0  0  0  0  0  0  0  0  0  0
    8.6679  -16.0506   27.3242 O   0  0  0  0  0  0  0  0  0  0  0  0
    9.0969  -14.2453   28.6028 O   0  0  0  0  0  0  0  0  0  0  0  0
  2  1  1  6
  2  5  1  0
  2  3  1  0
  4  3  1  0
  5  6  2  0
  7  8  1  0
  7  5  1  0
  9 10  1  0
  8  9  1  1
 10 11  1  0
 11 12  1  0
 13 12  1  0
 14 15  2  0
 14  8  1  0
 17 16  1  6
 17 19  1  0
 18 17  1  0
 19 20  1  6
 19 21  1  0
 20 14  1  0
 21 22  2  0
 21 23  1  0
M  END
$$$$
