CKT.pdb
     RDKit          3D

 23 22  0  0  1  0  0  0  0  0999 V2000
    7.4398  -14.8874   18.9825 N   0  0  0  0  0  0  0  0  0  0  0  0
    8.2098  -14.1850   20.0049 C   0  0  1  0  0  0  0  0  0  0  0  0
    7.6225  -12.8062   20.2393 C   0  0  0  0  0  0  0  0  0  0  0  0
    8.4051  -11.9367   21.5961 S   0  0  0  0  0  0  0  0  0  0  0  0
    8.1214  -14.9565   21.2660 C   0  0  0  0  0  0  0  0  0  0  0  0
    7.0159  -15.5000   21.5567 O   0  0  0  0  0  0  0  0  0  0  0  0
    9.1809  -15.1317   22.1680 N   0  0  0  0  0  0  0  0  0  0  0  0
    8.9859  -16.0134   23.3351 C   0  0  1  0  0  0  0  0  0  0  0  0
    9.6247  -17.3145   22.8959 C   0  0  0  0  0  0  0  0  0  0  0  0
   11.0751  -17.2776   22.6247 C   0  0  0  0  0  0  0  0  0  0  0  0
   11.4981  -18.6800   22.1526 C   0  0  0  0  0  0  0  0  0  0  0  0
   12.9620  -18.8031   21.9091 C   0  0  0  0  0  0  0  0  0  0  0  0
   13.1806  -20.1966   21.4678 N   0  0  0  0  0  0  0  0  0  0  0  0
    9.7030  -15.4216   24.4809 C   0  0  0  0  0  0  0  0  0  0  0  0
   10.7265  -14.7215   24.2461 O   0  0  0  0  0  0  0  0  0  0  0  0
    8.9283  -12.7386   26.5976 C   0  0  0  0  0  0  0  0  0  0  0  0
    9.2195  -13.8749   27.5555 C   0  0  1  0  0  0  0  0  0  0  0  0
    7.9936  -14.4304   27.9185 O   0  0  0  0  0  0  0  0  0  0  0  0
   10.0988  -14.8854   26.8687 C   0  0  2  0  0  0  0  0  0  0  0  0
    9.3278  -15.5752   25.8391 N   0  0  0  0  0  0  0  0  0  0  0  0
   10.5595  -15.8738   27.8728 C   0  0  0  0  0  0  0  0  0  0  0  0
   10.2651  -17.0814   27.7645 O   0  0  0  0  0  0  0  0  0  0  0  0
   11.3304  -15.4996   28.9648 O   0  0  0  0  0  0  0  0  0  0  0  0
  2  1  1  6
  2  5  1  0
  2  3  1  0
  4  3  1  0
  5  6  2  0
  7  8  1  0
  7  5  1  0
  9 10  1  0
  8  9  1  6
 10 11  1  0
 11 12  1  0
 13 12  1  0
 14 15  2  0
 14  8  1  0
 17 16  1  6
 17 19  1  0
 18 17  1  0
 19 20  1  6
 19 21  1  0
 20 14  1  0
 21 22  2  0
 21 23  1  0
M  END
$$$$
