CKT.pdb
     RDKit          3D

 23 22  0  0  1  0  0  0  0  0999 V2000
    7.2823  -15.1374   18.7663 N   0  0  0  0  0  0  0  0  0  0  0  0
    8.1751  -14.5085   19.7353 C   0  0  1  0  0  0  0  0  0  0  0  0
    7.9926  -13.0030   19.7063 C   0  0  0  0  0  0  0  0  0  0  0  0
    8.7887  -12.2312   18.2992 S   0  0  0  0  0  0  0  0  0  0  0  0
    7.8179  -15.0015   21.0854 C   0  0  0  0  0  0  0  0  0  0  0  0
    6.5912  -15.0747   21.3887 O   0  0  0  0  0  0  0  0  0  0  0  0
    8.7457  -15.3977   22.0596 N   0  0  0  0  0  0  0  0  0  0  0  0
    8.2495  -15.9495   23.3349 C   0  0  1  0  0  0  0  0  0  0  0  0
    9.0387  -17.2332   23.4866 C   0  0  0  0  0  0  0  0  0  0  0  0
    8.9126  -17.9353   24.7787 C   0  0  0  0  0  0  0  0  0  0  0  0
    9.8225  -19.1754   24.7276 C   0  0  0  0  0  0  0  0  0  0  0  0
    9.6717  -20.0661   25.9114 C   0  0  0  0  0  0  0  0  0  0  0  0
   10.6625  -21.1477   25.7298 N   0  0  0  0  0  0  0  0  0  0  0  0
    8.5739  -14.9885   24.4067 C   0  0  0  0  0  0  0  0  0  0  0  0
    9.7398  -14.5067   24.4421 O   0  0  0  0  0  0  0  0  0  0  0  0
    7.1312  -11.5950   25.6916 C   0  0  0  0  0  0  0  0  0  0  0  0
    7.1185  -12.6441   26.7838 C   0  0  1  0  0  0  0  0  0  0  0  0
    5.8376  -13.1934   26.8105 O   0  0  0  0  0  0  0  0  0  0  0  0
    8.1580  -13.6884   26.4761 C   0  0  2  0  0  0  0  0  0  0  0  0
    7.6695  -14.5556   25.4086 N   0  0  0  0  0  0  0  0  0  0  0  0
    8.3883  -14.5017   27.6939 C   0  0  0  0  0  0  0  0  0  0  0  0
    8.1361  -15.7237   27.7049 O   0  0  0  0  0  0  0  0  0  0  0  0
    8.8896  -13.9422   28.8612 O   0  0  0  0  0  0  0  0  0  0  0  0
  2  1  1  6
  2  5  1  0
  2  3  1  0
  4  3  1  0
  5  6  2  0
  7  8  1  0
  7  5  1  0
  9 10  1  0
  8  9  1  1
 10 11  1  0
 11 12  1  0
 13 12  1  0
 14 15  2  0
 14  8  1  0
 17 16  1  6
 17 19  1  0
 18 17  1  0
 19 20  1  6
 19 21  1  0
 20 14  1  0
 21 22  2  0
 21 23  1  0
M  END
$$$$
