CKT.pdb
     RDKit          3D

 23 22  0  0  1  0  0  0  0  0999 V2000
    7.9336  -12.9262   16.4683 N   0  0  0  0  0  0  0  0  0  0  0  0
    8.2095  -14.3598   16.4766 C   0  0  1  0  0  0  0  0  0  0  0  0
    9.0614  -14.7301   15.2773 C   0  0  0  0  0  0  0  0  0  0  0  0
    8.2534  -15.8941   14.1811 S   0  0  0  0  0  0  0  0  0  0  0  0
    8.9648  -14.6812   17.7094 C   0  0  0  0  0  0  0  0  0  0  0  0
    9.7391  -13.7984   18.1820 O   0  0  0  0  0  0  0  0  0  0  0  0
    8.8835  -15.9003   18.3978 N   0  0  0  0  0  0  0  0  0  0  0  0
    9.7444  -16.1124   19.5773 C   0  0  1  0  0  0  0  0  0  0  0  0
    8.9935  -17.1627   20.3690 C   0  0  0  0  0  0  0  0  0  0  0  0
    9.7521  -17.8569   21.4279 C   0  0  0  0  0  0  0  0  0  0  0  0
    9.5865  -17.0494   22.7274 C   0  0  0  0  0  0  0  0  0  0  0  0
   10.3502  -17.6150   23.8739 C   0  0  0  0  0  0  0  0  0  0  0  0
   10.1396  -16.6792   24.9983 N   0  0  0  0  0  0  0  0  0  0  0  0
   11.0472  -16.6218   19.1076 C   0  0  0  0  0  0  0  0  0  0  0  0
   11.0511  -17.5763   18.2820 O   0  0  0  0  0  0  0  0  0  0  0  0
   13.8662  -15.1966   17.2366 C   0  0  0  0  0  0  0  0  0  0  0  0
   14.4757  -15.7944   18.4875 C   0  0  1  0  0  0  0  0  0  0  0  0
   14.7090  -14.7435   19.3731 O   0  0  0  0  0  0  0  0  0  0  0  0
   13.5195  -16.8011   19.0690 C   0  0  2  0  0  0  0  0  0  0  0  0
   12.3085  -16.1167   19.5113 N   0  0  0  0  0  0  0  0  0  0  0  0
   14.1641  -17.4485   20.2364 C   0  0  0  0  0  0  0  0  0  0  0  0
   13.7101  -17.2903   21.3879 O   0  0  0  0  0  0  0  0  0  0  0  0
   15.2889  -18.2499   20.0976 O   0  0  0  0  0  0  0  0  0  0  0  0
  2  1  1  6
  2  5  1  0
  2  3  1  0
  4  3  1  0
  5  6  2  0
  7  8  1  0
  7  5  1  0
  9 10  1  0
  8  9  1  1
 10 11  1  0
 11 12  1  0
 13 12  1  0
 14 15  2  0
 14  8  1  0
 17 16  1  6
 17 19  1  0
 18 17  1  0
 19 20  1  1
 19 21  1  0
 20 14  1  0
 21 22  2  0
 21 23  1  0
M  END
$$$$
