CKT.pdb
     RDKit          3D

 23 22  0  0  1  0  0  0  0  0999 V2000
    7.2624  -15.0193   18.7832 N   0  0  0  0  0  0  0  0  0  0  0  0
    8.1033  -14.3888   19.7966 C   0  0  1  0  0  0  0  0  0  0  0  0
    7.8375  -12.8959   19.8343 C   0  0  0  0  0  0  0  0  0  0  0  0
    8.4858  -12.0361   18.4025 S   0  0  0  0  0  0  0  0  0  0  0  0
    7.7530  -14.9641   21.1156 C   0  0  0  0  0  0  0  0  0  0  0  0
    6.5328  -15.1944   21.3611 O   0  0  0  0  0  0  0  0  0  0  0  0
    8.6809  -15.2763   22.1198 N   0  0  0  0  0  0  0  0  0  0  0  0
    8.1912  -15.8330   23.3956 C   0  0  1  0  0  0  0  0  0  0  0  0
    8.9346  -17.1479   23.5070 C   0  0  0  0  0  0  0  0  0  0  0  0
    8.4581  -18.2489   22.6472 C   0  0  0  0  0  0  0  0  0  0  0  0
    9.4023  -19.4463   22.8550 C   0  0  0  0  0  0  0  0  0  0  0  0
    9.1087  -20.5921   21.9503 C   0  0  0  0  0  0  0  0  0  0  0  0
   10.0864  -21.6432   22.3022 N   0  0  0  0  0  0  0  0  0  0  0  0
    8.5741  -14.9050   24.4771 C   0  0  0  0  0  0  0  0  0  0  0  0
    9.7549  -14.4598   24.4899 O   0  0  0  0  0  0  0  0  0  0  0  0
    7.0315  -11.5874   25.8492 C   0  0  0  0  0  0  0  0  0  0  0  0
    7.1991  -12.6000   26.9629 C   0  0  1  0  0  0  0  0  0  0  0  0
    5.9590  -13.2066   27.1562 O   0  0  0  0  0  0  0  0  0  0  0  0
    8.2459  -13.6047   26.5621 C   0  0  2  0  0  0  0  0  0  0  0  0
    7.7109  -14.4660   25.5122 N   0  0  0  0  0  0  0  0  0  0  0  0
    8.5846  -14.4339   27.7433 C   0  0  0  0  0  0  0  0  0  0  0  0
    8.4030  -15.6683   27.7324 O   0  0  0  0  0  0  0  0  0  0  0  0
    9.1128  -13.8759   28.8993 O   0  0  0  0  0  0  0  0  0  0  0  0
  2  1  1  6
  2  5  1  0
  2  3  1  0
  4  3  1  0
  5  6  2  0
  7  8  1  0
  7  5  1  0
  9 10  1  0
  8  9  1  1
 10 11  1  0
 11 12  1  0
 13 12  1  0
 14 15  2  0
 14  8  1  0
 17 16  1  6
 17 19  1  0
 18 17  1  0
 19 20  1  6
 19 21  1  0
 20 14  1  0
 21 22  2  0
 21 23  1  0
M  END
$$$$
