CKT.pdb
     RDKit          3D

 23 22  0  0  1  0  0  0  0  0999 V2000
    6.9239  -14.9205   18.8853 N   0  0  0  0  0  0  0  0  0  0  0  0
    8.0476  -15.0590   19.8072 C   0  0  1  0  0  0  0  0  0  0  0  0
    8.8666  -13.7823   19.8208 C   0  0  0  0  0  0  0  0  0  0  0  0
    7.8656  -12.3144   20.0496 S   0  0  0  0  0  0  0  0  0  0  0  0
    7.5080  -15.2883   21.1672 C   0  0  0  0  0  0  0  0  0  0  0  0
    6.3352  -14.8846   21.4198 O   0  0  0  0  0  0  0  0  0  0  0  0
    8.2056  -15.9260   22.2034 N   0  0  0  0  0  0  0  0  0  0  0  0
    7.5209  -16.1521   23.4908 C   0  0  1  0  0  0  0  0  0  0  0  0
    7.7782  -17.6189   23.7662 C   0  0  0  0  0  0  0  0  0  0  0  0
    7.3276  -18.1325   25.0746 C   0  0  0  0  0  0  0  0  0  0  0  0
    7.6947  -19.6255   25.1422 C   0  0  0  0  0  0  0  0  0  0  0  0
    7.1907  -20.3011   26.3699 C   0  0  0  0  0  0  0  0  0  0  0  0
    8.2861  -20.2095   27.3579 N   0  0  0  0  0  0  0  0  0  0  0  0
    8.1604  -15.2936   24.5065 C   0  0  0  0  0  0  0  0  0  0  0  0
    9.3971  -15.0652   24.4004 O   0  0  0  0  0  0  0  0  0  0  0  0
    7.2789  -11.7439   25.7869 C   0  0  0  0  0  0  0  0  0  0  0  0
    7.4182  -12.6942   26.9579 C   0  0  1  0  0  0  0  0  0  0  0  0
    6.1313  -13.0841   27.3255 O   0  0  0  0  0  0  0  0  0  0  0  0
    8.2513  -13.8753   26.5377 C   0  0  2  0  0  0  0  0  0  0  0  0
    7.4885  -14.6953   25.6018 N   0  0  0  0  0  0  0  0  0  0  0  0
    8.5710  -14.6820   27.7396 C   0  0  0  0  0  0  0  0  0  0  0  0
    8.1871  -15.8652   27.8372 O   0  0  0  0  0  0  0  0  0  0  0  0
    9.3039  -14.1588   28.7960 O   0  0  0  0  0  0  0  0  0  0  0  0
  2  1  1  6
  2  5  1  0
  2  3  1  0
  4  3  1  0
  5  6  2  0
  7  8  1  0
  7  5  1  0
  9 10  1  0
  8  9  1  1
 10 11  1  0
 11 12  1  0
 13 12  1  0
 14 15  2  0
 14  8  1  0
 17 16  1  6
 17 19  1  0
 18 17  1  0
 19 20  1  6
 19 21  1  0
 20 14  1  0
 21 22  2  0
 21 23  1  0
M  END
$$$$
