CKT.pdb
     RDKit          3D

 23 22  0  0  1  0  0  0  0  0999 V2000
   11.3433  -15.7681   13.6250 N   0  0  0  0  0  0  0  0  0  0  0  0
   12.0995  -16.6316   14.5273 C   0  0  1  0  0  0  0  0  0  0  0  0
   13.3846  -15.9435   14.9467 C   0  0  0  0  0  0  0  0  0  0  0  0
   14.4157  -16.9696   15.9922 S   0  0  0  0  0  0  0  0  0  0  0  0
   11.2783  -16.8749   15.7356 C   0  0  0  0  0  0  0  0  0  0  0  0
   10.5402  -15.9358   16.1545 O   0  0  0  0  0  0  0  0  0  0  0  0
   11.2569  -18.0789   16.4544 N   0  0  0  0  0  0  0  0  0  0  0  0
   10.3779  -18.1899   17.6344 C   0  0  1  0  0  0  0  0  0  0  0  0
    9.8912  -19.6226   17.5695 C   0  0  0  0  0  0  0  0  0  0  0  0
    9.0264  -20.0754   18.6766 C   0  0  0  0  0  0  0  0  0  0  0  0
    8.5625  -21.5064   18.3521 C   0  0  0  0  0  0  0  0  0  0  0  0
    7.7561  -22.1254   19.4402 C   0  0  0  0  0  0  0  0  0  0  0  0
    7.2883  -23.4218   18.9065 N   0  0  0  0  0  0  0  0  0  0  0  0
   11.1967  -17.9537   18.8391 C   0  0  0  0  0  0  0  0  0  0  0  0
   12.4325  -18.2020   18.7776 O   0  0  0  0  0  0  0  0  0  0  0  0
   11.8707  -16.4232   23.4798 C   0  0  0  0  0  0  0  0  0  0  0  0
   10.9029  -16.6246   22.3325 C   0  0  1  0  0  0  0  0  0  0  0  0
   10.4086  -15.3679   21.9868 O   0  0  0  0  0  0  0  0  0  0  0  0
   11.6304  -17.2648   21.1807 C   0  0  2  0  0  0  0  0  0  0  0  0
   10.7012  -17.4612   20.0724 N   0  0  0  0  0  0  0  0  0  0  0  0
   12.1466  -18.5833   21.6196 C   0  0  0  0  0  0  0  0  0  0  0  0
   11.4297  -19.6030   21.5625 O   0  0  0  0  0  0  0  0  0  0  0  0
   13.4371  -18.7362   22.1076 O   0  0  0  0  0  0  0  0  0  0  0  0
  2  1  1  6
  2  5  1  0
  2  3  1  0
  4  3  1  0
  5  6  2  0
  7  8  1  0
  7  5  1  0
  9 10  1  0
  8  9  1  1
 10 11  1  0
 11 12  1  0
 13 12  1  0
 14 15  2  0
 14  8  1  0
 17 16  1  1
 17 19  1  0
 18 17  1  0
 19 20  1  6
 19 21  1  0
 20 14  1  0
 21 22  2  0
 21 23  1  0
M  END
$$$$
