CKT.pdb
     RDKit          3D

 23 22  0  0  1  0  0  0  0  0999 V2000
    6.7346  -15.7439   19.3379 N   0  0  0  0  0  0  0  0  0  0  0  0
    7.6961  -15.0670   20.2034 C   0  0  1  0  0  0  0  0  0  0  0  0
    7.6215  -13.5675   19.9868 C   0  0  0  0  0  0  0  0  0  0  0  0
    8.5169  -13.0279   18.5320 S   0  0  0  0  0  0  0  0  0  0  0  0
    7.3409  -15.3589   21.6112 C   0  0  0  0  0  0  0  0  0  0  0  0
    6.1334  -15.2173   21.9636 O   0  0  0  0  0  0  0  0  0  0  0  0
    8.2505  -15.7852   22.5898 N   0  0  0  0  0  0  0  0  0  0  0  0
    7.7505  -16.0903   23.9442 C   0  0  1  0  0  0  0  0  0  0  0  0
    8.3328  -17.4594   24.2274 C   0  0  0  0  0  0  0  0  0  0  0  0
    8.1572  -17.9794   25.5976 C   0  0  0  0  0  0  0  0  0  0  0  0
    8.7411  -19.4027   25.6357 C   0  0  0  0  0  0  0  0  0  0  0  0
    8.4776  -20.1136   26.9174 C   0  0  0  0  0  0  0  0  0  0  0  0
    9.1549  -21.4218   26.7985 N   0  0  0  0  0  0  0  0  0  0  0  0
    8.2878  -15.0748   24.8702 C   0  0  0  0  0  0  0  0  0  0  0  0
    9.4698  -14.6706   24.6904 O   0  0  0  0  0  0  0  0  0  0  0  0
    7.0801  -11.5680   25.7244 C   0  0  0  0  0  0  0  0  0  0  0  0
    7.2506  -12.3545   27.0072 C   0  0  1  0  0  0  0  0  0  0  0  0
    5.9912  -12.8321   27.3665 O   0  0  0  0  0  0  0  0  0  0  0  0
    8.2186  -13.4824   26.7688 C   0  0  2  0  0  0  0  0  0  0  0  0
    7.5734  -14.5080   25.9552 N   0  0  0  0  0  0  0  0  0  0  0  0
    8.5960  -14.0682   28.0772 C   0  0  0  0  0  0  0  0  0  0  0  0
    8.3513  -15.2636   28.3381 O   0  0  0  0  0  0  0  0  0  0  0  0
    9.2314  -13.3176   29.0569 O   0  0  0  0  0  0  0  0  0  0  0  0
  2  1  1  6
  2  5  1  0
  2  3  1  0
  4  3  1  0
  5  6  2  0
  7  8  1  0
  7  5  1  0
  9 10  1  0
  8  9  1  1
 10 11  1  0
 11 12  1  0
 13 12  1  0
 14 15  2  0
 14  8  1  0
 17 16  1  6
 17 19  1  0
 18 17  1  0
 19 20  1  6
 19 21  1  0
 20 14  1  0
 21 22  2  0
 21 23  1  0
M  END
$$$$
