CKT.pdb
     RDKit          3D

 23 22  0  0  1  0  0  0  0  0999 V2000
    7.4801  -15.2329   18.6799 N   0  0  0  0  0  0  0  0  0  0  0  0
    8.2685  -14.4880   19.6573 C   0  0  1  0  0  0  0  0  0  0  0  0
    7.8549  -13.0287   19.6521 C   0  0  0  0  0  0  0  0  0  0  0  0
    8.3131  -12.1796   18.1427 S   0  0  0  0  0  0  0  0  0  0  0  0
    7.9973  -15.0509   21.0000 C   0  0  0  0  0  0  0  0  0  0  0  0
    6.8212  -15.4425   21.2565 O   0  0  0  0  0  0  0  0  0  0  0  0
    8.9552  -15.1844   22.0156 N   0  0  0  0  0  0  0  0  0  0  0  0
    8.5565  -15.8003   23.2959 C   0  0  1  0  0  0  0  0  0  0  0  0
    9.5252  -16.9555   23.4403 C   0  0  0  0  0  0  0  0  0  0  0  0
    9.4669  -17.7097   24.7077 C   0  0  0  0  0  0  0  0  0  0  0  0
   10.4623  -18.8785   24.6022 C   0  0  0  0  0  0  0  0  0  0  0  0
   10.4053  -19.8077   25.7645 C   0  0  0  0  0  0  0  0  0  0  0  0
   11.2484  -20.9645   25.3965 N   0  0  0  0  0  0  0  0  0  0  0  0
    8.7481  -14.8005   24.3642 C   0  0  0  0  0  0  0  0  0  0  0  0
    9.7956  -14.0970   24.3409 O   0  0  0  0  0  0  0  0  0  0  0  0
    6.7820  -11.7613   25.6361 C   0  0  0  0  0  0  0  0  0  0  0  0
    7.0005  -12.7377   26.7730 C   0  0  1  0  0  0  0  0  0  0  0  0
    5.8395  -13.5007   26.8878 O   0  0  0  0  0  0  0  0  0  0  0  0
    8.1951  -13.5986   26.4607 C   0  0  2  0  0  0  0  0  0  0  0  0
    7.8378  -14.5620   25.4242 N   0  0  0  0  0  0  0  0  0  0  0  0
    8.5863  -14.3309   27.6888 C   0  0  0  0  0  0  0  0  0  0  0  0
    8.5866  -15.5783   27.7178 O   0  0  0  0  0  0  0  0  0  0  0  0
    8.9650  -13.6648   28.8463 O   0  0  0  0  0  0  0  0  0  0  0  0
  2  1  1  6
  2  5  1  0
  2  3  1  0
  4  3  1  0
  5  6  2  0
  7  8  1  0
  7  5  1  0
  9 10  1  0
  8  9  1  1
 10 11  1  0
 11 12  1  0
 13 12  1  0
 14 15  2  0
 14  8  1  0
 17 16  1  6
 17 19  1  0
 18 17  1  0
 19 20  1  6
 19 21  1  0
 20 14  1  0
 21 22  2  0
 21 23  1  0
M  END
$$$$
