RQN.pdb
     RDKit          3D

 29 28  0  0  1  0  0  0  0  0999 V2000
    7.0338  -15.3295   14.0440 N   0  0  0  0  0  0  0  0  0  0  0  0
    7.7103  -14.1449   14.4284 C   0  0  0  0  0  0  0  0  0  0  0  0
    7.5209  -13.0669   13.7187 N   0  0  0  0  0  0  0  0  0  0  0  0
    8.5435  -14.1881   15.5482 N   0  0  0  0  0  0  0  0  0  0  0  0
    9.1244  -15.4694   15.9912 C   0  0  0  0  0  0  0  0  0  0  0  0
    8.5876  -15.7983   17.3545 C   0  0  0  0  0  0  0  0  0  0  0  0
    9.2246  -15.1227   18.5143 C   0  0  0  0  0  0  0  0  0  0  0  0
    8.7081  -15.6282   19.8102 C   0  0  2  0  0  0  0  0  0  0  0  0
    7.4357  -15.0796   20.1553 N   0  0  0  0  0  0  0  0  0  0  0  0
    9.6561  -15.3557   20.9331 C   0  0  0  0  0  0  0  0  0  0  0  0
    9.7969  -14.1929   21.4087 O   0  0  0  0  0  0  0  0  0  0  0  0
    7.9595  -12.1748   13.9763 N   0  0  0  0  0  0  0  0  0  0  0  0
   10.7135  -19.1881   25.7050 C   0  0  0  0  0  0  0  0  0  0  0  0
   11.6958  -18.1797   25.8726 O   0  0  0  0  0  0  0  0  0  0  0  0
   12.3931  -18.2551   26.9501 C   0  0  0  0  0  0  0  0  0  0  0  0
   11.9319  -17.1048   24.8877 C   0  0  0  0  0  0  0  0  0  0  0  0
   11.0907  -17.1299   23.6652 C   0  0  2  0  0  0  0  0  0  0  0  0
   11.4090  -16.1652   22.5597 N   0  0  0  0  0  0  0  0  0  0  0  0
   10.4058  -16.4167   21.4705 C   0  0  0  0  0  0  0  0  0  0  0  0
   12.7489  -16.3326   22.0264 O   0  0  0  0  0  0  0  0  0  0  0  0
   13.1198  -17.3814   21.3867 N   0  0  0  0  0  0  0  0  0  0  0  0
   14.1873  -12.8023   19.5938 C   0  0  0  0  0  0  0  0  0  0  0  0
   14.8770  -14.0423   19.6596 O   0  0  0  0  0  0  0  0  0  0  0  0
   14.7616  -14.8241   18.6735 C   0  0  0  0  0  0  0  0  0  0  0  0
   15.7135  -14.4182   20.8509 C   0  0  2  0  0  0  0  0  0  0  0  0
   15.1071  -15.5398   21.5980 N   0  0  0  0  0  0  0  0  0  0  0  0
   13.8155  -15.3867   22.1310 C   0  0  0  0  0  0  0  0  0  0  0  0
   16.0359  -15.9326   22.6930 O   0  0  0  0  0  0  0  0  0  0  0  0
   15.6018  -16.1145   23.9978 O   0  0  0  0  0  0  0  0  0  0  0  0
  2  1  1  0
  2  3  2  0
  4  5  1  0
  4  2  1  0
  6  5  1  0
  7  6  1  0
  8 10  1  0
  8  7  1  0
  8  9  1  1
 10 11  2  0
 13 14  2  0
 13 12  1  0
 15 13  1  0
 16 15  1  0
 17 16  1  1
 17 19  1  0
 18 10  1  0
 18 17  1  0
 19 20  2  0
 22 21  1  0
 22 24  1  0
 23 22  2  0
 25 24  1  6
 25 27  1  0
 26 19  1  0
 26 25  1  0
 27 28  1  0
 29 27  2  0
M  END
$$$$
