RQN.pdb
     RDKit          3D

 29 28  0  0  1  0  0  0  0  0999 V2000
    8.9109  -12.8166   18.1614 N   0  0  0  0  0  0  0  0  0  0  0  0
    7.9872  -12.5450   19.2015 C   0  0  0  0  0  0  0  0  0  0  0  0
    8.2512  -11.5663   20.0226 N   0  0  0  0  0  0  0  0  0  0  0  0
    6.8396  -13.3350   19.2953 N   0  0  0  0  0  0  0  0  0  0  0  0
    6.4823  -13.9745   20.5755 C   0  0  0  0  0  0  0  0  0  0  0  0
    6.4105  -15.4604   20.3706 C   0  0  0  0  0  0  0  0  0  0  0  0
    7.6163  -16.2522   20.7263 C   0  0  0  0  0  0  0  0  0  0  0  0
    8.2215  -16.9130   19.5437 C   0  0  2  0  0  0  0  0  0  0  0  0
    7.5591  -18.1255   19.1828 N   0  0  0  0  0  0  0  0  0  0  0  0
    9.6702  -17.2150   19.7539 C   0  0  0  0  0  0  0  0  0  0  0  0
   10.0721  -18.3929   19.9746 O   0  0  0  0  0  0  0  0  0  0  0  0
    7.6603  -11.3838   20.8424 N   0  0  0  0  0  0  0  0  0  0  0  0
   15.5040  -14.4204   17.0877 C   0  0  0  0  0  0  0  0  0  0  0  0
   14.9321  -14.2529   18.3741 O   0  0  0  0  0  0  0  0  0  0  0  0
   15.0135  -13.0694   18.8698 C   0  0  0  0  0  0  0  0  0  0  0  0
   14.2719  -15.3449   19.1174 C   0  0  0  0  0  0  0  0  0  0  0  0
   12.7884  -15.3686   19.0814 C   0  0  1  0  0  0  0  0  0  0  0  0
   12.0728  -16.4448   19.8453 N   0  0  0  0  0  0  0  0  0  0  0  0
   10.6037  -16.1649   19.7042 C   0  0  0  0  0  0  0  0  0  0  0  0
   12.4232  -16.4719   21.2539 O   0  0  0  0  0  0  0  0  0  0  0  0
   11.8876  -15.6931   22.1218 N   0  0  0  0  0  0  0  0  0  0  0  0
   14.2621  -17.3925   25.9612 C   0  0  0  0  0  0  0  0  0  0  0  0
   14.1027  -18.6521   25.3245 O   0  0  0  0  0  0  0  0  0  0  0  0
   14.2005  -19.6845   26.0467 C   0  0  0  0  0  0  0  0  0  0  0  0
   13.8281  -18.7625   23.8504 C   0  0  2  0  0  0  0  0  0  0  0  0
   13.6589  -17.4291   23.2364 N   0  0  0  0  0  0  0  0  0  0  0  0
   13.3828  -17.3403   21.8610 C   0  0  0  0  0  0  0  0  0  0  0  0
   14.8686  -16.6154   23.5376 O   0  0  0  0  0  0  0  0  0  0  0  0
   14.9595  -15.8219   24.6717 O   0  0  0  0  0  0  0  0  0  0  0  0
  2  1  1  0
  2  3  2  0
  4  5  1  0
  4  2  1  0
  6  5  1  0
  7  6  1  0
  8 10  1  0
  8  7  1  0
  8  9  1  1
 10 11  2  0
 13 14  2  0
 13 12  1  0
 15 13  1  0
 16 15  1  0
 17 16  1  6
 17 19  1  0
 18 10  1  0
 18 17  1  0
 19 20  2  0
 22 21  1  0
 22 24  1  0
 23 22  2  0
 25 24  1  1
 25 27  1  0
 26 19  1  0
 26 25  1  0
 27 28  1  0
 29 27  2  0
M  END
$$$$
