RQN.pdb
     RDKit          3D

 29 28  0  0  1  0  0  0  0  0999 V2000
    7.8080  -15.9896   14.9225 N   0  0  0  0  0  0  0  0  0  0  0  0
    8.6385  -17.0627   15.3317 C   0  0  0  0  0  0  0  0  0  0  0  0
    8.2302  -18.2810   15.1064 N   0  0  0  0  0  0  0  0  0  0  0  0
    9.8531  -16.7646   15.9527 N   0  0  0  0  0  0  0  0  0  0  0  0
   10.1530  -15.3820   16.3697 C   0  0  0  0  0  0  0  0  0  0  0  0
    9.0501  -14.8970   17.2661 C   0  0  0  0  0  0  0  0  0  0  0  0
    9.4439  -14.0814   18.4438 C   0  0  0  0  0  0  0  0  0  0  0  0
    8.2778  -13.7089   19.2823 C   0  0  2  0  0  0  0  0  0  0  0  0
    7.7818  -12.4004   18.9977 N   0  0  0  0  0  0  0  0  0  0  0  0
    8.5935  -13.7833   20.7414 C   0  0  0  0  0  0  0  0  0  0  0  0
    9.1129  -12.8068   21.3535 O   0  0  0  0  0  0  0  0  0  0  0  0
    8.8413  -19.0884   15.2768 N   0  0  0  0  0  0  0  0  0  0  0  0
    7.1810  -18.2355   25.8949 C   0  0  0  0  0  0  0  0  0  0  0  0
    6.6910  -16.9622   25.5094 O   0  0  0  0  0  0  0  0  0  0  0  0
    5.4158  -16.8126   25.5766 C   0  0  0  0  0  0  0  0  0  0  0  0
    7.5637  -15.8575   25.0633 C   0  0  0  0  0  0  0  0  0  0  0  0
    7.4442  -15.4518   23.6406 C   0  0  1  0  0  0  0  0  0  0  0  0
    8.6971  -15.1063   22.8892 N   0  0  0  0  0  0  0  0  0  0  0  0
    8.3051  -14.9652   21.4460 C   0  0  0  0  0  0  0  0  0  0  0  0
    9.7304  -16.1190   23.0092 O   0  0  0  0  0  0  0  0  0  0  0  0
    9.6499  -17.2690   22.4455 N   0  0  0  0  0  0  0  0  0  0  0  0
   12.8366  -16.7985   21.1856 C   0  0  0  0  0  0  0  0  0  0  0  0
   13.5654  -16.2350   22.2668 O   0  0  0  0  0  0  0  0  0  0  0  0
   14.4191  -15.3451   21.9906 C   0  0  0  0  0  0  0  0  0  0  0  0
   13.3368  -16.6734   23.6866 C   0  0  2  0  0  0  0  0  0  0  0  0
   11.9142  -16.9942   23.9250 N   0  0  0  0  0  0  0  0  0  0  0  0
   10.9479  -15.9889   23.7469 C   0  0  0  0  0  0  0  0  0  0  0  0
   11.7812  -17.5510   25.2992 O   0  0  0  0  0  0  0  0  0  0  0  0
   12.5422  -18.6253   25.7359 O   0  0  0  0  0  0  0  0  0  0  0  0
  2  1  1  0
  2  3  2  0
  4  5  1  0
  4  2  1  0
  6  5  1  0
  7  6  1  0
  8 10  1  0
  8  7  1  0
  8  9  1  6
 10 11  2  0
 13 14  2  0
 13 12  1  0
 15 13  1  0
 16 15  1  0
 17 16  1  1
 17 19  1  0
 18 10  1  0
 18 17  1  0
 19 20  2  0
 22 21  1  0
 22 24  1  0
 23 22  2  0
 25 24  1  6
 25 27  1  0
 26 19  1  0
 26 25  1  0
 27 28  1  0
 29 27  2  0
M  END
$$$$
