RQN.pdb
     RDKit          3D

 29 28  0  0  1  0  0  0  0  0999 V2000
    8.4266  -12.7888   14.9478 N   0  0  0  0  0  0  0  0  0  0  0  0
    8.7731  -14.0437   15.5079 C   0  0  0  0  0  0  0  0  0  0  0  0
    9.0979  -15.0136   14.6982 N   0  0  0  0  0  0  0  0  0  0  0  0
    8.7528  -14.1806   16.8975 N   0  0  0  0  0  0  0  0  0  0  0  0
    7.9887  -15.2758   17.5236 C   0  0  0  0  0  0  0  0  0  0  0  0
    7.2793  -14.7404   18.7341 C   0  0  0  0  0  0  0  0  0  0  0  0
    8.1237  -14.3030   19.8756 C   0  0  0  0  0  0  0  0  0  0  0  0
    8.4781  -15.4294   20.7741 C   0  0  2  0  0  0  0  0  0  0  0  0
    7.3866  -16.3196   21.0093 N   0  0  0  0  0  0  0  0  0  0  0  0
    8.9854  -14.9503   22.0959 C   0  0  0  0  0  0  0  0  0  0  0  0
   10.0835  -14.3320   22.1951 O   0  0  0  0  0  0  0  0  0  0  0  0
    9.2393  -15.9708   15.0421 N   0  0  0  0  0  0  0  0  0  0  0  0
    5.3080  -12.3832   26.3109 C   0  0  0  0  0  0  0  0  0  0  0  0
    6.5485  -12.4756   26.9909 O   0  0  0  0  0  0  0  0  0  0  0  0
    6.6211  -11.8396   28.1059 C   0  0  0  0  0  0  0  0  0  0  0  0
    7.6978  -13.2505   26.4814 C   0  0  0  0  0  0  0  0  0  0  0  0
    7.5231  -13.9033   25.1599 C   0  0  2  0  0  0  0  0  0  0  0  0
    8.6768  -14.6739   24.5863 N   0  0  0  0  0  0  0  0  0  0  0  0
    8.2231  -15.1933   23.2519 C   0  0  0  0  0  0  0  0  0  0  0  0
    9.0879  -15.7886   25.4208 O   0  0  0  0  0  0  0  0  0  0  0  0
    8.7328  -17.0003   25.1919 N   0  0  0  0  0  0  0  0  0  0  0  0
   12.7516  -17.7866   24.4835 C   0  0  0  0  0  0  0  0  0  0  0  0
   11.7287  -17.9390   25.4571 O   0  0  0  0  0  0  0  0  0  0  0  0
   10.7298  -18.6470   25.1442 C   0  0  0  0  0  0  0  0  0  0  0  0
   11.8222  -17.2879   26.8090 C   0  0  2  0  0  0  0  0  0  0  0  0
   10.5045  -16.7895   27.2551 N   0  0  0  0  0  0  0  0  0  0  0  0
    9.9203  -15.7039   26.5798 C   0  0  0  0  0  0  0  0  0  0  0  0
   10.5908  -16.4639   28.7051 O   0  0  0  0  0  0  0  0  0  0  0  0
   10.1969  -15.2329   29.2087 O   0  0  0  0  0  0  0  0  0  0  0  0
  2  1  1  0
  2  3  2  0
  4  5  1  0
  4  2  1  0
  6  5  1  0
  7  6  1  0
  8 10  1  0
  8  7  1  0
  8  9  1  1
 10 11  2  0
 13 14  2  0
 13 12  1  0
 15 13  1  0
 16 15  1  0
 17 16  1  6
 17 19  1  0
 18 10  1  0
 18 17  1  0
 19 20  2  0
 22 21  1  0
 22 24  1  0
 23 22  2  0
 25 24  1  6
 25 27  1  0
 26 19  1  0
 26 25  1  0
 27 28  1  0
 29 27  2  0
M  END
$$$$
