RQN.pdb
     RDKit          3D

 29 28  0  0  1  0  0  0  0  0999 V2000
    8.3975  -12.5734   17.3662 N   0  0  0  0  0  0  0  0  0  0  0  0
    8.1879  -12.8643   18.7374 C   0  0  0  0  0  0  0  0  0  0  0  0
    8.7572  -12.0976   19.6260 N   0  0  0  0  0  0  0  0  0  0  0  0
    7.3812  -13.9544   19.0705 N   0  0  0  0  0  0  0  0  0  0  0  0
    7.7792  -14.8660   20.1595 C   0  0  0  0  0  0  0  0  0  0  0  0
    8.2833  -16.1465   19.5584 C   0  0  0  0  0  0  0  0  0  0  0  0
    9.5553  -16.6931   20.0976 C   0  0  0  0  0  0  0  0  0  0  0  0
    9.3575  -17.4095   21.3818 C   0  0  2  0  0  0  0  0  0  0  0  0
    8.0222  -17.8849   21.5550 N   0  0  0  0  0  0  0  0  0  0  0  0
    9.7068  -16.5545   22.5570 C   0  0  0  0  0  0  0  0  0  0  0  0
   10.8009  -15.9238   22.6106 O   0  0  0  0  0  0  0  0  0  0  0  0
    8.6878  -12.3021   20.6299 N   0  0  0  0  0  0  0  0  0  0  0  0
    5.5759  -13.3580   26.0359 C   0  0  0  0  0  0  0  0  0  0  0  0
    6.8068  -13.1900   26.7189 O   0  0  0  0  0  0  0  0  0  0  0  0
    6.7983  -12.3360   27.6799 C   0  0  0  0  0  0  0  0  0  0  0  0
    8.0333  -13.9385   26.3776 C   0  0  0  0  0  0  0  0  0  0  0  0
    7.9499  -14.8493   25.2087 C   0  0  2  0  0  0  0  0  0  0  0  0
    9.1557  -15.6718   24.8572 N   0  0  0  0  0  0  0  0  0  0  0  0
    8.7973  -16.4510   23.6241 C   0  0  0  0  0  0  0  0  0  0  0  0
    9.5437  -16.5921   25.9108 O   0  0  0  0  0  0  0  0  0  0  0  0
    9.1869  -17.8247   25.9277 N   0  0  0  0  0  0  0  0  0  0  0  0
   11.8514  -20.1246   26.5302 C   0  0  0  0  0  0  0  0  0  0  0  0
   12.0785  -18.7310   26.3762 O   0  0  0  0  0  0  0  0  0  0  0  0
   12.1505  -18.2810   25.1975 C   0  0  0  0  0  0  0  0  0  0  0  0
   12.2284  -17.8196   27.5625 C   0  0  2  0  0  0  0  0  0  0  0  0
   10.9379  -17.1984   27.9263 N   0  0  0  0  0  0  0  0  0  0  0  0
   10.3528  -16.2726   27.0451 C   0  0  0  0  0  0  0  0  0  0  0  0
   11.0821  -16.5634   29.2649 O   0  0  0  0  0  0  0  0  0  0  0  0
   10.8465  -15.2117   29.4687 O   0  0  0  0  0  0  0  0  0  0  0  0
  2  1  1  0
  2  3  2  0
  4  5  1  0
  4  2  1  0
  6  5  1  0
  7  6  1  0
  8 10  1  0
  8  7  1  0
  8  9  1  1
 10 11  2  0
 13 14  2  0
 13 12  1  0
 15 13  1  0
 16 15  1  0
 17 16  1  6
 17 19  1  0
 18 10  1  0
 18 17  1  0
 19 20  2  0
 22 21  1  0
 22 24  1  0
 23 22  2  0
 25 24  1  6
 25 27  1  0
 26 19  1  0
 26 25  1  0
 27 28  1  0
 29 27  2  0
M  END
$$$$
