RQN.pdb
     RDKit          3D

 29 28  0  0  1  0  0  0  0  0999 V2000
    9.6301  -14.3736   15.8220 N   0  0  0  0  0  0  0  0  0  0  0  0
    8.2524  -14.0416   15.7965 C   0  0  0  0  0  0  0  0  0  0  0  0
    7.5573  -14.3680   14.7420 N   0  0  0  0  0  0  0  0  0  0  0  0
    7.7059  -13.3846   16.9009 N   0  0  0  0  0  0  0  0  0  0  0  0
    8.5653  -13.0042   18.0376 C   0  0  0  0  0  0  0  0  0  0  0  0
    8.4992  -14.0858   19.0772 C   0  0  0  0  0  0  0  0  0  0  0  0
    9.3496  -13.9182   20.2839 C   0  0  0  0  0  0  0  0  0  0  0  0
    9.2145  -15.0557   21.2269 C   0  0  2  0  0  0  0  0  0  0  0  0
    8.0676  -15.8647   20.9638 N   0  0  0  0  0  0  0  0  0  0  0  0
    9.1488  -14.5974   22.6481 C   0  0  0  0  0  0  0  0  0  0  0  0
    9.9591  -13.7397   23.1017 O   0  0  0  0  0  0  0  0  0  0  0  0
    6.5613  -14.1302   14.6652 N   0  0  0  0  0  0  0  0  0  0  0  0
    7.4739  -13.3642   27.5147 C   0  0  0  0  0  0  0  0  0  0  0  0
    6.5842  -12.5260   26.7966 O   0  0  0  0  0  0  0  0  0  0  0  0
    6.2440  -11.4372   27.3895 C   0  0  0  0  0  0  0  0  0  0  0  0
    6.0708  -12.8512   25.4506 C   0  0  0  0  0  0  0  0  0  0  0  0
    6.4565  -14.1726   24.8957 C   0  0  2  0  0  0  0  0  0  0  0  0
    7.9140  -14.5295   24.8491 N   0  0  0  0  0  0  0  0  0  0  0  0
    8.1636  -15.1327   23.4963 C   0  0  0  0  0  0  0  0  0  0  0  0
    8.3007  -15.4791   25.8770 O   0  0  0  0  0  0  0  0  0  0  0  0
    8.7708  -15.1218   27.0163 N   0  0  0  0  0  0  0  0  0  0  0  0
   11.1368  -19.9287   23.5983 C   0  0  0  0  0  0  0  0  0  0  0  0
   11.1877  -18.6851   24.2827 O   0  0  0  0  0  0  0  0  0  0  0  0
   12.2560  -18.4030   24.8961 C   0  0  0  0  0  0  0  0  0  0  0  0
   10.0220  -17.7357   24.2828 C   0  0  1  0  0  0  0  0  0  0  0  0
    9.2977  -17.7780   25.5701 N   0  0  0  0  0  0  0  0  0  0  0  0
    8.2173  -16.9024   25.7754 C   0  0  0  0  0  0  0  0  0  0  0  0
   10.2828  -17.5926   26.6707 O   0  0  0  0  0  0  0  0  0  0  0  0
   10.7437  -18.6551   27.4340 O   0  0  0  0  0  0  0  0  0  0  0  0
  2  1  1  0
  2  3  2  0
  4  5  1  0
  4  2  1  0
  6  5  1  0
  7  6  1  0
  8 10  1  0
  8  7  1  0
  8  9  1  6
 10 11  2  0
 13 14  2  0
 13 12  1  0
 15 13  1  0
 16 15  1  0
 17 16  1  6
 17 19  1  0
 18 10  1  0
 18 17  1  0
 19 20  2  0
 22 21  1  0
 22 24  1  0
 23 22  2  0
 25 24  1  6
 25 27  1  0
 26 19  1  0
 26 25  1  0
 27 28  1  0
 29 27  2  0
M  END
$$$$
