RQN.pdb
     RDKit          3D

 29 28  0  0  1  0  0  0  0  0999 V2000
    6.7523  -12.9406   19.8057 N   0  0  0  0  0  0  0  0  0  0  0  0
    8.1558  -12.7477   19.7659 C   0  0  0  0  0  0  0  0  0  0  0  0
    8.6101  -11.5275   19.6849 N   0  0  0  0  0  0  0  0  0  0  0  0
    8.9836  -13.8711   19.8181 N   0  0  0  0  0  0  0  0  0  0  0  0
    8.4956  -15.1749   19.3307 C   0  0  0  0  0  0  0  0  0  0  0  0
    8.6479  -16.1892   20.4276 C   0  0  0  0  0  0  0  0  0  0  0  0
    9.9087  -16.9746   20.4534 C   0  0  0  0  0  0  0  0  0  0  0  0
    9.9307  -17.9626   21.5602 C   0  0  2  0  0  0  0  0  0  0  0  0
    8.6509  -18.5424   21.8153 N   0  0  0  0  0  0  0  0  0  0  0  0
   10.4359  -17.3634   22.8329 C   0  0  0  0  0  0  0  0  0  0  0  0
   11.5371  -16.7443   22.8778 O   0  0  0  0  0  0  0  0  0  0  0  0
    9.6183  -11.3326   19.6850 N   0  0  0  0  0  0  0  0  0  0  0  0
    7.6210  -13.2991   25.9915 C   0  0  0  0  0  0  0  0  0  0  0  0
    8.6001  -13.6953   26.9372 O   0  0  0  0  0  0  0  0  0  0  0  0
    8.7185  -12.9356   27.9676 C   0  0  0  0  0  0  0  0  0  0  0  0
    9.4386  -14.9008   26.7808 C   0  0  0  0  0  0  0  0  0  0  0  0
    9.2164  -15.7081   25.5553 C   0  0  1  0  0  0  0  0  0  0  0  0
   10.1304  -16.8691   25.2898 N   0  0  0  0  0  0  0  0  0  0  0  0
    9.6680  -17.4921   24.0035 C   0  0  0  0  0  0  0  0  0  0  0  0
   10.1035  -17.8673   26.3436 O   0  0  0  0  0  0  0  0  0  0  0  0
    9.0449  -18.5201   26.6602 N   0  0  0  0  0  0  0  0  0  0  0  0
   11.8747  -22.4419   26.9388 C   0  0  0  0  0  0  0  0  0  0  0  0
   12.1402  -21.0471   26.9755 O   0  0  0  0  0  0  0  0  0  0  0  0
   12.3765  -20.4716   25.8755 C   0  0  0  0  0  0  0  0  0  0  0  0
   12.1421  -20.2775   28.2670 C   0  0  2  0  0  0  0  0  0  0  0  0
   11.1705  -19.1648   28.2282 N   0  0  0  0  0  0  0  0  0  0  0  0
   11.2135  -18.2573   27.1555 C   0  0  0  0  0  0  0  0  0  0  0  0
   11.2731  -18.4058   29.5046 O   0  0  0  0  0  0  0  0  0  0  0  0
   11.0816  -19.0097   30.7386 O   0  0  0  0  0  0  0  0  0  0  0  0
  2  1  1  0
  2  3  2  0
  4  5  1  0
  4  2  1  0
  6  5  1  0
  7  6  1  0
  8 10  1  0
  8  7  1  0
  8  9  1  1
 10 11  2  0
 13 14  2  0
 13 12  1  0
 15 13  1  0
 16 15  1  0
 17 16  1  6
 17 19  1  0
 18 10  1  0
 18 17  1  0
 19 20  2  0
 22 21  1  0
 22 24  1  0
 23 22  2  0
 25 24  1  6
 25 27  1  0
 26 19  1  0
 26 25  1  0
 27 28  1  0
 29 27  2  0
M  END
$$$$
