RQN.pdb
     RDKit          3D

 29 28  0  0  1  0  0  0  0  0999 V2000
    7.9625  -11.9921   19.6732 N   0  0  0  0  0  0  0  0  0  0  0  0
    8.5748  -13.0318   18.9295 C   0  0  0  0  0  0  0  0  0  0  0  0
    8.6099  -12.9242   17.6300 N   0  0  0  0  0  0  0  0  0  0  0  0
    9.1124  -14.1181   19.6228 N   0  0  0  0  0  0  0  0  0  0  0  0
    8.3839  -15.3997   19.6731 C   0  0  0  0  0  0  0  0  0  0  0  0
    7.2834  -15.2911   20.6890 C   0  0  0  0  0  0  0  0  0  0  0  0
    7.5559  -15.8372   22.0436 C   0  0  0  0  0  0  0  0  0  0  0  0
    8.1814  -17.1816   21.9902 C   0  0  2  0  0  0  0  0  0  0  0  0
    7.2459  -18.2205   21.6989 N   0  0  0  0  0  0  0  0  0  0  0  0
    8.8789  -17.5236   23.2672 C   0  0  0  0  0  0  0  0  0  0  0  0
    8.2550  -17.5736   24.3654 O   0  0  0  0  0  0  0  0  0  0  0  0
    9.0347  -13.6540   17.0456 N   0  0  0  0  0  0  0  0  0  0  0  0
   15.4533  -17.9629   24.0655 C   0  0  0  0  0  0  0  0  0  0  0  0
   14.7393  -19.0011   24.7153 O   0  0  0  0  0  0  0  0  0  0  0  0
   15.3857  -20.0993   24.8858 C   0  0  0  0  0  0  0  0  0  0  0  0
   13.3464  -18.8580   25.1846 C   0  0  0  0  0  0  0  0  0  0  0  0
   12.3091  -18.6835   24.1375 C   0  0  1  0  0  0  0  0  0  0  0  0
   11.0076  -18.0415   24.5219 N   0  0  0  0  0  0  0  0  0  0  0  0
   10.2580  -17.7954   23.2436 C   0  0  0  0  0  0  0  0  0  0  0  0
   11.1794  -16.7844   25.2274 O   0  0  0  0  0  0  0  0  0  0  0  0
   11.1958  -15.6470   24.6335 N   0  0  0  0  0  0  0  0  0  0  0  0
    7.7907  -13.6423   28.3265 C   0  0  0  0  0  0  0  0  0  0  0  0
    9.1082  -13.8577   27.8414 O   0  0  0  0  0  0  0  0  0  0  0  0
    9.9823  -12.9920   28.1304 C   0  0  0  0  0  0  0  0  0  0  0  0
    9.4583  -15.0648   27.0164 C   0  0  2  0  0  0  0  0  0  0  0  0
   10.7497  -15.6455   27.4391 N   0  0  0  0  0  0  0  0  0  0  0  0
   11.3494  -16.6332   26.6386 C   0  0  0  0  0  0  0  0  0  0  0  0
   10.5975  -16.1745   28.8222 O   0  0  0  0  0  0  0  0  0  0  0  0
   10.7842  -15.3763   29.9412 O   0  0  0  0  0  0  0  0  0  0  0  0
  2  1  1  0
  2  3  2  0
  4  5  1  0
  4  2  1  0
  6  5  1  0
  7  6  1  0
  8 10  1  0
  8  7  1  0
  8  9  1  1
 10 11  2  0
 13 14  2  0
 13 12  1  0
 15 13  1  0
 16 15  1  0
 17 16  1  1
 17 19  1  0
 18 10  1  0
 18 17  1  0
 19 20  2  0
 22 21  1  0
 22 24  1  0
 23 22  2  0
 25 24  1  6
 25 27  1  0
 26 19  1  0
 26 25  1  0
 27 28  1  0
 29 27  2  0
M  END
$$$$
