RQN.pdb
     RDKit          3D

 29 28  0  0  1  0  0  0  0  0999 V2000
    7.8302  -12.9173   20.2596 N   0  0  0  0  0  0  0  0  0  0  0  0
    7.6278  -12.9526   18.8572 C   0  0  0  0  0  0  0  0  0  0  0  0
    6.4315  -13.2214   18.4119 N   0  0  0  0  0  0  0  0  0  0  0  0
    8.7163  -12.6956   18.0212 N   0  0  0  0  0  0  0  0  0  0  0  0
    9.5896  -13.7995   17.5804 C   0  0  0  0  0  0  0  0  0  0  0  0
    8.9806  -15.1014   18.0155 C   0  0  0  0  0  0  0  0  0  0  0  0
    9.8984  -16.2588   18.1742 C   0  0  0  0  0  0  0  0  0  0  0  0
   11.1468  -16.0957   17.3890 C   0  0  2  0  0  0  0  0  0  0  0  0
   11.1714  -16.8980   16.2080 N   0  0  0  0  0  0  0  0  0  0  0  0
   12.3613  -16.4166   18.1990 C   0  0  0  0  0  0  0  0  0  0  0  0
   12.6533  -17.6080   18.5043 O   0  0  0  0  0  0  0  0  0  0  0  0
    6.2211  -13.2087   17.4069 N   0  0  0  0  0  0  0  0  0  0  0  0
   18.0263  -13.1209   18.3715 C   0  0  0  0  0  0  0  0  0  0  0  0
   16.8810  -13.3341   17.5636 O   0  0  0  0  0  0  0  0  0  0  0  0
   16.7283  -12.5128   16.5863 C   0  0  0  0  0  0  0  0  0  0  0  0
   15.9132  -14.4245   17.7988 C   0  0  0  0  0  0  0  0  0  0  0  0
   15.3946  -14.5631   19.1825 C   0  0  2  0  0  0  0  0  0  0  0  0
   14.4070  -15.6570   19.4686 N   0  0  0  0  0  0  0  0  0  0  0  0
   13.1952  -15.3696   18.6288 C   0  0  0  0  0  0  0  0  0  0  0  0
   14.0185  -15.7221   20.8659 O   0  0  0  0  0  0  0  0  0  0  0  0
   14.8686  -15.7988   21.8241 N   0  0  0  0  0  0  0  0  0  0  0  0
   10.7510  -13.9101   21.7160 C   0  0  0  0  0  0  0  0  0  0  0  0
   10.0848  -14.9730   22.3823 O   0  0  0  0  0  0  0  0  0  0  0  0
    8.8242  -14.9165   22.4502 C   0  0  0  0  0  0  0  0  0  0  0  0
   10.8411  -16.1238   22.9857 C   0  0  2  0  0  0  0  0  0  0  0  0
   12.2825  -16.0404   22.6710 N   0  0  0  0  0  0  0  0  0  0  0  0
   12.6784  -15.7101   21.3633 C   0  0  0  0  0  0  0  0  0  0  0  0
   12.9236  -17.3273   23.0571 O   0  0  0  0  0  0  0  0  0  0  0  0
   12.9376  -18.4266   22.2113 O   0  0  0  0  0  0  0  0  0  0  0  0
  2  1  1  0
  2  3  2  0
  4  5  1  0
  4  2  1  0
  6  5  1  0
  7  6  1  0
  8 10  1  0
  8  7  1  0
  8  9  1  6
 10 11  2  0
 13 14  2  0
 13 12  1  0
 15 13  1  0
 16 15  1  0
 17 16  1  6
 17 19  1  0
 18 10  1  0
 18 17  1  0
 19 20  2  0
 22 21  1  0
 22 24  1  0
 23 22  2  0
 25 24  1  1
 25 27  1  0
 26 19  1  0
 26 25  1  0
 27 28  1  0
 29 27  2  0
M  END
$$$$
