LGN.pdb
     RDKit          3D

 21 20  0  0  1  0  0  0  0  0999 V2000
    9.4553  -12.9486   20.2504 C   0  0  0  0  0  0  0  0  0  0  0  0
    8.0920  -13.4504   19.8821 C   0  0  2  0  0  0  0  0  0  0  0  0
    7.2828  -12.4541   19.1074 C   0  0  0  0  0  0  0  0  0  0  0  0
    7.3263  -13.8473   21.1432 C   0  0  0  0  0  0  0  0  0  0  0  0
    8.2155  -14.8821   21.8452 C   0  0  2  0  0  0  0  0  0  0  0  0
    8.4114  -15.9568   20.9270 N   0  0  0  0  0  0  0  0  0  0  0  0
    7.4960  -15.2908   23.0742 C   0  0  0  0  0  0  0  0  0  0  0  0
    7.3954  -14.5437   24.0778 O   0  0  0  0  0  0  0  0  0  0  0  0
    6.8614  -16.5899   23.1876 N   0  0  0  0  0  0  0  0  0  0  0  0
    6.2501  -16.9797   24.4326 C   0  0  0  0  0  0  0  0  0  0  0  0
    7.1329  -17.7286   25.3108 C   0  0  0  0  0  0  0  0  0  0  0  0
    6.6491  -18.1998   26.3887 O   0  0  0  0  0  0  0  0  0  0  0  0
   10.8309  -20.6385   27.3423 N   0  0  0  0  0  0  0  0  0  0  0  0
   10.9529  -20.6666   25.9123 C   0  0  0  0  0  0  0  0  0  0  0  0
   11.7501  -21.4673   25.3643 O   0  0  0  0  0  0  0  0  0  0  0  0
   10.1322  -19.7456   25.0979 C   0  0  0  0  0  0  0  0  0  0  0  0
    9.2336  -18.8702   25.9290 C   0  0  2  0  0  0  0  0  0  0  0  0
    8.4831  -17.9650   25.0467 N   0  0  0  0  0  0  0  0  0  0  0  0
    9.9909  -18.0495   26.8915 C   0  0  0  0  0  0  0  0  0  0  0  0
   10.5496  -16.9619   26.5775 O   0  0  0  0  0  0  0  0  0  0  0  0
   10.1040  -18.4767   28.2036 O   0  0  0  0  0  0  0  0  0  0  0  0
  2  3  1  1
  2  4  1  0
  2  1  1  0
  5  4  1  0
  5  7  1  0
  5  6  1  6
  7  8  2  0
  9 10  1  0
  9  7  1  0
 10 11  1  0
 11 18  1  0
 11 12  2  0
 13 14  1  0
 14 15  2  0
 17 16  1  6
 16 14  1  0
 17 19  1  0
 18 17  1  0
 19 21  1  0
 20 19  2  0
M  END
$$$$
