LGN.pdb
     RDKit          3D

 21 20  0  0  1  0  0  0  0  0999 V2000
    5.3056  -11.9458   26.8728 C   0  0  0  0  0  0  0  0  0  0  0  0
    6.7117  -12.3545   26.5535 C   0  0  2  0  0  0  0  0  0  0  0  0
    7.6948  -11.2273   26.6566 C   0  0  0  0  0  0  0  0  0  0  0  0
    6.7737  -12.9477   25.1470 C   0  0  0  0  0  0  0  0  0  0  0  0
    7.0238  -14.4475   25.3532 C   0  0  2  0  0  0  0  0  0  0  0  0
    8.2015  -14.5696   26.1498 N   0  0  0  0  0  0  0  0  0  0  0  0
    7.1708  -15.0394   24.0029 C   0  0  0  0  0  0  0  0  0  0  0  0
    6.4554  -15.9888   23.6003 O   0  0  0  0  0  0  0  0  0  0  0  0
    8.1594  -14.5499   23.0615 N   0  0  0  0  0  0  0  0  0  0  0  0
    8.4785  -15.3284   21.8920 C   0  0  0  0  0  0  0  0  0  0  0  0
    9.6604  -16.1598   22.0449 C   0  0  0  0  0  0  0  0  0  0  0  0
   10.0995  -16.7732   21.0207 O   0  0  0  0  0  0  0  0  0  0  0  0
   14.1873  -18.1103   23.3308 N   0  0  0  0  0  0  0  0  0  0  0  0
   14.0903  -16.6882   23.1616 C   0  0  0  0  0  0  0  0  0  0  0  0
   15.1318  -15.9936   23.0624 O   0  0  0  0  0  0  0  0  0  0  0  0
   12.7554  -16.0556   23.1059 C   0  0  0  0  0  0  0  0  0  0  0  0
   11.6308  -17.0465   23.2405 C   0  0  2  0  0  0  0  0  0  0  0  0
   10.3476  -16.3293   23.2480 N   0  0  0  0  0  0  0  0  0  0  0  0
   11.7257  -17.8307   24.4853 C   0  0  0  0  0  0  0  0  0  0  0  0
   12.3789  -18.9075   24.5713 O   0  0  0  0  0  0  0  0  0  0  0  0
   11.0747  -17.3795   25.6208 O   0  0  0  0  0  0  0  0  0  0  0  0
  2  3  1  6
  2  4  1  0
  2  1  1  0
  5  4  1  0
  5  7  1  0
  5  6  1  1
  7  8  2  0
  9 10  1  0
  9  7  1  0
 10 11  1  0
 11 18  1  0
 11 12  2  0
 13 14  1  0
 14 15  2  0
 17 16  1  1
 16 14  1  0
 17 19  1  0
 18 17  1  0
 19 21  1  0
 20 19  2  0
M  END
$$$$
