LGN.pdb
     RDKit          3D

 21 20  0  0  1  0  0  0  0  0999 V2000
    5.0577  -12.1572   25.7111 C   0  0  0  0  0  0  0  0  0  0  0  0
    6.1793  -12.9515   26.3087 C   0  0  2  0  0  0  0  0  0  0  0  0
    6.7047  -12.3676   27.5857 C   0  0  0  0  0  0  0  0  0  0  0  0
    7.3236  -13.0721   25.3036 C   0  0  0  0  0  0  0  0  0  0  0  0
    7.0293  -14.3520   24.5101 C   0  0  2  0  0  0  0  0  0  0  0  0
    6.3706  -15.2532   25.3991 N   0  0  0  0  0  0  0  0  0  0  0  0
    8.3359  -14.8594   24.0299 C   0  0  0  0  0  0  0  0  0  0  0  0
    9.2196  -14.1056   23.5543 O   0  0  0  0  0  0  0  0  0  0  0  0
    8.6701  -16.2696   24.0830 N   0  0  0  0  0  0  0  0  0  0  0  0
    9.9874  -16.7063   23.6960 C   0  0  0  0  0  0  0  0  0  0  0  0
   10.8655  -16.9890   24.8187 C   0  0  0  0  0  0  0  0  0  0  0  0
   12.0467  -17.3905   24.5707 O   0  0  0  0  0  0  0  0  0  0  0  0
   10.4867  -14.1534   28.9284 N   0  0  0  0  0  0  0  0  0  0  0  0
   11.3066  -15.0518   28.1661 C   0  0  0  0  0  0  0  0  0  0  0  0
   12.0710  -14.6045   27.2757 O   0  0  0  0  0  0  0  0  0  0  0  0
   11.2396  -16.5027   28.4414 C   0  0  0  0  0  0  0  0  0  0  0  0
   11.4011  -17.3426   27.2033 C   0  0  2  0  0  0  0  0  0  0  0  0
   10.4947  -16.8479   26.1570 N   0  0  0  0  0  0  0  0  0  0  0  0
   11.0875  -18.7621   27.4487 C   0  0  0  0  0  0  0  0  0  0  0  0
   10.0944  -19.3459   26.9324 O   0  0  0  0  0  0  0  0  0  0  0  0
   11.9095  -19.5029   28.2806 O   0  0  0  0  0  0  0  0  0  0  0  0
  2  3  1  1
  2  4  1  0
  2  1  1  0
  5  4  1  0
  5  7  1  0
  5  6  1  1
  7  8  2  0
  9 10  1  0
  9  7  1  0
 10 11  1  0
 11 18  1  0
 11 12  2  0
 13 14  1  0
 14 15  2  0
 17 16  1  1
 16 14  1  0
 17 19  1  0
 18 17  1  0
 19 21  1  0
 20 19  2  0
M  END
$$$$
