LGN.pdb
     RDKit          3D

 21 20  0  0  1  0  0  0  0  0999 V2000
    6.2019  -11.7365   25.0206 C   0  0  0  0  0  0  0  0  0  0  0  0
    6.4749  -12.8080   26.0323 C   0  0  2  0  0  0  0  0  0  0  0  0
    6.5512  -12.2911   27.4375 C   0  0  0  0  0  0  0  0  0  0  0  0
    7.7793  -13.5258   25.6898 C   0  0  0  0  0  0  0  0  0  0  0  0
    7.5038  -14.2518   24.3664 C   0  0  2  0  0  0  0  0  0  0  0  0
    6.4305  -15.1617   24.6039 N   0  0  0  0  0  0  0  0  0  0  0  0
    8.7663  -14.9277   23.9862 C   0  0  0  0  0  0  0  0  0  0  0  0
    9.8746  -14.3386   23.9877 O   0  0  0  0  0  0  0  0  0  0  0  0
    8.7924  -16.3217   23.5872 N   0  0  0  0  0  0  0  0  0  0  0  0
   10.0327  -16.9203   23.1641 C   0  0  0  0  0  0  0  0  0  0  0  0
   10.8035  -17.5029   24.2494 C   0  0  0  0  0  0  0  0  0  0  0  0
   11.8318  -18.1907   23.9537 O   0  0  0  0  0  0  0  0  0  0  0  0
   11.3237  -18.1257   30.3320 N   0  0  0  0  0  0  0  0  0  0  0  0
   11.8467  -18.2207   28.9986 C   0  0  0  0  0  0  0  0  0  0  0  0
   12.8319  -18.9620   28.7601 O   0  0  0  0  0  0  0  0  0  0  0  0
   11.2136  -17.4385   27.9157 C   0  0  0  0  0  0  0  0  0  0  0  0
   11.2141  -18.1589   26.5945 C   0  0  2  0  0  0  0  0  0  0  0  0
   10.4869  -17.3557   25.6010 N   0  0  0  0  0  0  0  0  0  0  0  0
   10.5654  -19.4801   26.6804 C   0  0  0  0  0  0  0  0  0  0  0  0
    9.3514  -19.6308   26.9919 O   0  0  0  0  0  0  0  0  0  0  0  0
   11.3073  -20.6173   26.4102 O   0  0  0  0  0  0  0  0  0  0  0  0
  2  3  1  1
  2  4  1  0
  2  1  1  0
  5  4  1  0
  5  7  1  0
  5  6  1  1
  7  8  2  0
  9 10  1  0
  9  7  1  0
 10 11  1  0
 11 18  1  0
 11 12  2  0
 13 14  1  0
 14 15  2  0
 17 16  1  1
 16 14  1  0
 17 19  1  0
 18 17  1  0
 19 21  1  0
 20 19  2  0
M  END
$$$$
