LGN.pdb
     RDKit          3D

 21 20  0  0  1  0  0  0  0  0999 V2000
    5.0996  -12.4462   25.7923 C   0  0  0  0  0  0  0  0  0  0  0  0
    6.5229  -12.7598   26.1415 C   0  0  2  0  0  0  0  0  0  0  0  0
    7.1402  -11.7577   27.0702 C   0  0  0  0  0  0  0  0  0  0  0  0
    7.3628  -12.8485   24.8684 C   0  0  0  0  0  0  0  0  0  0  0  0
    6.9595  -14.1753   24.2117 C   0  0  2  0  0  0  0  0  0  0  0  0
    6.3575  -14.9783   25.2262 N   0  0  0  0  0  0  0  0  0  0  0  0
    8.2013  -14.7674   23.6616 C   0  0  0  0  0  0  0  0  0  0  0  0
    9.0277  -14.1014   22.9916 O   0  0  0  0  0  0  0  0  0  0  0  0
    8.5349  -16.1634   23.8688 N   0  0  0  0  0  0  0  0  0  0  0  0
    9.7988  -16.6726   23.4010 C   0  0  0  0  0  0  0  0  0  0  0  0
   10.7882  -16.8424   24.4516 C   0  0  0  0  0  0  0  0  0  0  0  0
   11.9557  -17.2240   24.1208 O   0  0  0  0  0  0  0  0  0  0  0  0
   10.5008  -14.8454   29.5795 N   0  0  0  0  0  0  0  0  0  0  0  0
   10.5808  -15.0366   28.1591 C   0  0  0  0  0  0  0  0  0  0  0  0
    9.5953  -14.7627   27.4305 O   0  0  0  0  0  0  0  0  0  0  0  0
   11.8319  -15.5573   27.5685 C   0  0  0  0  0  0  0  0  0  0  0  0
   11.6250  -16.8190   26.7749 C   0  0  2  0  0  0  0  0  0  0  0  0
   10.5391  -16.6127   25.8057 N   0  0  0  0  0  0  0  0  0  0  0  0
   11.2642  -17.9630   27.6319 C   0  0  0  0  0  0  0  0  0  0  0  0
   10.2363  -18.6698   27.4382 O   0  0  0  0  0  0  0  0  0  0  0  0
   12.0791  -18.2906   28.7021 O   0  0  0  0  0  0  0  0  0  0  0  0
  2  3  1  1
  2  4  1  0
  2  1  1  0
  5  4  1  0
  5  7  1  0
  5  6  1  1
  7  8  2  0
  9 10  1  0
  9  7  1  0
 10 11  1  0
 11 18  1  0
 11 12  2  0
 13 14  1  0
 14 15  2  0
 17 16  1  1
 16 14  1  0
 17 19  1  0
 18 17  1  0
 19 21  1  0
 20 19  2  0
M  END
$$$$
