LGN.pdb
     RDKit          3D

 21 20  0  0  1  0  0  0  0  0999 V2000
    5.3861  -12.3436   26.1181 C   0  0  0  0  0  0  0  0  0  0  0  0
    6.6599  -12.8751   26.7022 C   0  0  2  0  0  0  0  0  0  0  0  0
    7.3247  -11.9176   27.6449 C   0  0  0  0  0  0  0  0  0  0  0  0
    7.6345  -13.2353   25.5821 C   0  0  0  0  0  0  0  0  0  0  0  0
    6.9218  -14.3178   24.7609 C   0  0  2  0  0  0  0  0  0  0  0  0
    6.6153  -15.3871   25.6548 N   0  0  0  0  0  0  0  0  0  0  0  0
    7.8574  -14.7118   23.6817 C   0  0  0  0  0  0  0  0  0  0  0  0
    8.3836  -13.8769   22.9061 O   0  0  0  0  0  0  0  0  0  0  0  0
    8.2210  -16.0978   23.4588 N   0  0  0  0  0  0  0  0  0  0  0  0
    9.0817  -16.4417   22.3557 C   0  0  0  0  0  0  0  0  0  0  0  0
   10.4402  -16.7717   22.7520 C   0  0  0  0  0  0  0  0  0  0  0  0
   11.1559  -17.4420   21.9418 O   0  0  0  0  0  0  0  0  0  0  0  0
   13.5915  -16.4656   22.1806 N   0  0  0  0  0  0  0  0  0  0  0  0
   14.0390  -15.8746   23.4098 C   0  0  0  0  0  0  0  0  0  0  0  0
   15.0240  -15.0957   23.4119 O   0  0  0  0  0  0  0  0  0  0  0  0
   13.3288  -16.1934   24.6665 C   0  0  0  0  0  0  0  0  0  0  0  0
   12.1791  -17.1435   24.4656 C   0  0  2  0  0  0  0  0  0  0  0  0
   11.0127  -16.3991   23.9694 N   0  0  0  0  0  0  0  0  0  0  0  0
   11.7926  -17.8222   25.7160 C   0  0  0  0  0  0  0  0  0  0  0  0
   10.6813  -17.6347   26.2847 O   0  0  0  0  0  0  0  0  0  0  0  0
   12.6772  -18.7085   26.3064 O   0  0  0  0  0  0  0  0  0  0  0  0
  2  3  1  1
  2  4  1  0
  2  1  1  0
  5  4  1  0
  5  7  1  0
  5  6  1  1
  7  8  2  0
  9 10  1  0
  9  7  1  0
 10 11  1  0
 11 18  1  0
 11 12  2  0
 13 14  1  0
 14 15  2  0
 17 16  1  1
 16 14  1  0
 17 19  1  0
 18 17  1  0
 19 21  1  0
 20 19  2  0
M  END
$$$$
