LGN.pdb
     RDKit          3D

 21 20  0  0  1  0  0  0  0  0999 V2000
    8.7724  -13.4305   19.5209 C   0  0  0  0  0  0  0  0  0  0  0  0
    7.7516  -13.4224   20.6181 C   0  0  2  0  0  0  0  0  0  0  0  0
    7.4552  -12.0494   21.1421 C   0  0  0  0  0  0  0  0  0  0  0  0
    8.2205  -14.3092   21.7705 C   0  0  0  0  0  0  0  0  0  0  0  0
    8.6731  -15.6191   21.1121 C   0  0  2  0  0  0  0  0  0  0  0  0
    7.6418  -16.5792   21.3384 N   0  0  0  0  0  0  0  0  0  0  0  0
    9.9600  -15.9870   21.7475 C   0  0  0  0  0  0  0  0  0  0  0  0
   11.0114  -15.3230   21.5771 O   0  0  0  0  0  0  0  0  0  0  0  0
   10.0780  -17.1465   22.6106 N   0  0  0  0  0  0  0  0  0  0  0  0
   11.3530  -17.4741   23.1959 C   0  0  0  0  0  0  0  0  0  0  0  0
   11.4897  -17.0516   24.5794 C   0  0  0  0  0  0  0  0  0  0  0  0
   12.6150  -17.2164   25.1491 O   0  0  0  0  0  0  0  0  0  0  0  0
    9.3971  -13.3173   28.9752 N   0  0  0  0  0  0  0  0  0  0  0  0
   10.0992  -14.4714   28.4899 C   0  0  0  0  0  0  0  0  0  0  0  0
   10.8795  -15.0985   29.2482 O   0  0  0  0  0  0  0  0  0  0  0  0
    9.8928  -14.9097   27.0933 C   0  0  0  0  0  0  0  0  0  0  0  0
   10.7150  -16.1165   26.7297 C   0  0  2  0  0  0  0  0  0  0  0  0
   10.4616  -16.4742   25.3266 N   0  0  0  0  0  0  0  0  0  0  0  0
   10.3891  -17.2852   27.5673 C   0  0  0  0  0  0  0  0  0  0  0  0
   11.2315  -17.8469   28.3212 O   0  0  0  0  0  0  0  0  0  0  0  0
    9.1053  -17.8025   27.5374 O   0  0  0  0  0  0  0  0  0  0  0  0
  2  3  1  1
  2  4  1  0
  2  1  1  0
  5  4  1  0
  5  7  1  0
  5  6  1  1
  7  8  2  0
  9 10  1  0
  9  7  1  0
 10 11  1  0
 11 18  1  0
 11 12  2  0
 13 14  1  0
 14 15  2  0
 17 16  1  1
 16 14  1  0
 17 19  1  0
 18 17  1  0
 19 21  1  0
 20 19  2  0
M  END
$$$$
