LGN.pdb
     RDKit          3D

 21 20  0  0  1  0  0  0  0  0999 V2000
    8.5591  -13.4416   25.4706 C   0  0  0  0  0  0  0  0  0  0  0  0
    7.0816  -13.5052   25.2281 C   0  0  2  0  0  0  0  0  0  0  0  0
    6.3214  -12.4057   25.9068 C   0  0  0  0  0  0  0  0  0  0  0  0
    6.5363  -14.8542   25.6938 C   0  0  0  0  0  0  0  0  0  0  0  0
    6.7357  -15.8018   24.5035 C   0  0  2  0  0  0  0  0  0  0  0  0
    5.6855  -16.7666   24.5564 N   0  0  0  0  0  0  0  0  0  0  0  0
    8.0825  -16.3986   24.6615 C   0  0  0  0  0  0  0  0  0  0  0  0
    8.3108  -17.3526   25.4446 O   0  0  0  0  0  0  0  0  0  0  0  0
    9.2239  -15.9091   23.9127 N   0  0  0  0  0  0  0  0  0  0  0  0
   10.4653  -16.6397   23.9444 C   0  0  0  0  0  0  0  0  0  0  0  0
   11.0763  -16.7018   25.2612 C   0  0  0  0  0  0  0  0  0  0  0  0
   12.2870  -17.0832   25.3439 O   0  0  0  0  0  0  0  0  0  0  0  0
    9.4201  -13.4080   29.1064 N   0  0  0  0  0  0  0  0  0  0  0  0
   10.3562  -14.2490   28.4157 C   0  0  0  0  0  0  0  0  0  0  0  0
   11.0905  -13.7683   27.5175 O   0  0  0  0  0  0  0  0  0  0  0  0
   10.4439  -15.6805   28.7738 C   0  0  0  0  0  0  0  0  0  0  0  0
   11.1339  -16.5068   27.7224 C   0  0  2  0  0  0  0  0  0  0  0  0
   10.4177  -16.3686   26.4461 N   0  0  0  0  0  0  0  0  0  0  0  0
   11.1717  -17.9379   28.0749 C   0  0  0  0  0  0  0  0  0  0  0  0
   11.8456  -18.3901   29.0418 O   0  0  0  0  0  0  0  0  0  0  0  0
   10.4405  -18.8402   27.3212 O   0  0  0  0  0  0  0  0  0  0  0  0
  2  3  1  1
  2  4  1  0
  2  1  1  0
  5  4  1  0
  5  7  1  0
  5  6  1  1
  7  8  2  0
  9 10  1  0
  9  7  1  0
 10 11  1  0
 11 18  1  0
 11 12  2  0
 13 14  1  0
 14 15  2  0
 17 16  1  1
 16 14  1  0
 17 19  1  0
 18 17  1  0
 19 21  1  0
 20 19  2  0
M  END
$$$$
