LGN.pdb
     RDKit          3D

 21 20  0  0  1  0  0  0  0  0999 V2000
    9.1306  -14.1143   19.9977 C   0  0  0  0  0  0  0  0  0  0  0  0
    7.7492  -13.5769   20.2191 C   0  0  2  0  0  0  0  0  0  0  0  0
    7.7094  -12.0853   20.3641 C   0  0  0  0  0  0  0  0  0  0  0  0
    7.1351  -14.2188   21.4621 C   0  0  0  0  0  0  0  0  0  0  0  0
    7.0503  -15.7169   21.1415 C   0  0  2  0  0  0  0  0  0  0  0  0
    6.1324  -15.8617   20.0586 N   0  0  0  0  0  0  0  0  0  0  0  0
    6.5969  -16.3880   22.3822 C   0  0  0  0  0  0  0  0  0  0  0  0
    5.7100  -15.9035   23.1266 O   0  0  0  0  0  0  0  0  0  0  0  0
    7.1581  -17.6549   22.8103 N   0  0  0  0  0  0  0  0  0  0  0  0
    6.7406  -18.2344   24.0615 C   0  0  0  0  0  0  0  0  0  0  0  0
    7.8157  -18.3815   25.0279 C   0  0  0  0  0  0  0  0  0  0  0  0
    7.5544  -18.9519   26.1345 O   0  0  0  0  0  0  0  0  0  0  0  0
   12.1097  -17.8821   22.8609 N   0  0  0  0  0  0  0  0  0  0  0  0
   11.8839  -18.5942   24.0866 C   0  0  0  0  0  0  0  0  0  0  0  0
   12.0130  -19.8429   24.1221 O   0  0  0  0  0  0  0  0  0  0  0  0
   11.4995  -17.8423   25.2999 C   0  0  0  0  0  0  0  0  0  0  0  0
   10.1469  -18.2355   25.8295 C   0  0  2  0  0  0  0  0  0  0  0  0
    9.1219  -17.9354   24.8194 N   0  0  0  0  0  0  0  0  0  0  0  0
    9.8002  -17.5096   27.0650 C   0  0  0  0  0  0  0  0  0  0  0  0
    8.9668  -16.5618   27.0945 O   0  0  0  0  0  0  0  0  0  0  0  0
   10.4071  -17.8713   28.2556 O   0  0  0  0  0  0  0  0  0  0  0  0
  2  3  1  1
  2  4  1  0
  2  1  1  0
  5  4  1  0
  5  7  1  0
  5  6  1  6
  7  8  2  0
  9 10  1  0
  9  7  1  0
 10 11  1  0
 11 18  1  0
 11 12  2  0
 13 14  1  0
 14 15  2  0
 17 16  1  6
 16 14  1  0
 17 19  1  0
 18 17  1  0
 19 21  1  0
 20 19  2  0
M  END
$$$$
