LGN.pdb
     RDKit          3D

 21 20  0  0  1  0  0  0  0  0999 V2000
    8.7252  -13.7899   19.4569 C   0  0  0  0  0  0  0  0  0  0  0  0
    7.7603  -13.4263   20.5446 C   0  0  2  0  0  0  0  0  0  0  0  0
    7.6540  -11.9485   20.7733 C   0  0  0  0  0  0  0  0  0  0  0  0
    8.1676  -14.1084   21.8496 C   0  0  0  0  0  0  0  0  0  0  0  0
    8.1625  -15.6106   21.5374 C   0  0  2  0  0  0  0  0  0  0  0  0
    6.8431  -15.9443   21.1082 N   0  0  0  0  0  0  0  0  0  0  0  0
    8.5602  -16.3015   22.7863 C   0  0  0  0  0  0  0  0  0  0  0  0
    9.7196  -16.2245   23.2609 O   0  0  0  0  0  0  0  0  0  0  0  0
    7.6227  -17.1136   23.5378 N   0  0  0  0  0  0  0  0  0  0  0  0
    8.0648  -17.8013   24.7241 C   0  0  0  0  0  0  0  0  0  0  0  0
    9.2743  -17.2464   25.3079 C   0  0  0  0  0  0  0  0  0  0  0  0
   10.3516  -17.3147   24.6350 O   0  0  0  0  0  0  0  0  0  0  0  0
    8.7191  -13.1756   27.3992 N   0  0  0  0  0  0  0  0  0  0  0  0
    9.5649  -14.1725   27.9918 C   0  0  0  0  0  0  0  0  0  0  0  0
    9.3509  -14.5622   29.1663 O   0  0  0  0  0  0  0  0  0  0  0  0
   10.6850  -14.7314   27.2056 C   0  0  0  0  0  0  0  0  0  0  0  0
   10.6365  -16.2318   27.1004 C   0  0  2  0  0  0  0  0  0  0  0  0
    9.3302  -16.6409   26.5643 N   0  0  0  0  0  0  0  0  0  0  0  0
   10.8221  -16.8879   28.4076 C   0  0  0  0  0  0  0  0  0  0  0  0
   11.8793  -16.7770   29.0884 O   0  0  0  0  0  0  0  0  0  0  0  0
    9.8001  -17.6645   28.9263 O   0  0  0  0  0  0  0  0  0  0  0  0
  2  3  1  1
  2  4  1  0
  2  1  1  0
  5  4  1  0
  5  7  1  0
  5  6  1  1
  7  8  2  0
  9 10  1  0
  9  7  1  0
 10 11  1  0
 11 18  1  0
 11 12  2  0
 13 14  1  0
 14 15  2  0
 17 16  1  1
 16 14  1  0
 17 19  1  0
 18 17  1  0
 19 21  1  0
 20 19  2  0
M  END
$$$$
