HCW.pdb
     RDKit          3D

 31 33  0  0  1  0  0  0  0  0999 V2000
   24.4764  -19.6216  -17.1776 N   0  0  0  0  0  0  0  0  0  0  0  0
   24.5385  -19.2363  -15.7929 C   0  0  1  0  0  0  0  0  0  0  0  0
   23.1351  -18.9961  -15.2936 C   0  0  0  0  0  0  0  0  0  0  0  0
   22.4782  -17.8689  -15.9827 C   0  0  0  0  0  0  0  0  0  0  0  0
   22.8874  -16.5602  -15.8546 C   0  0  0  0  0  0  0  0  0  0  0  0
   22.0926  -15.7881  -16.6014 N   0  0  0  0  0  0  0  0  0  0  0  0
   21.2048  -16.5988  -17.1841 C   0  0  0  0  0  0  0  0  0  0  0  0
   21.4324  -17.8608  -16.8139 N   0  0  0  0  0  0  0  0  0  0  0  0
   25.2844  -20.2118  -14.9668 C   0  0  0  0  0  0  0  0  0  0  0  0
   24.8858  -21.4004  -14.8673 O   0  0  0  0  0  0  0  0  0  0  0  0
   26.4717  -19.8690  -14.2516 N   0  0  0  0  0  0  0  0  0  0  0  0
   27.1761  -20.7418  -13.3742 C   0  0  1  0  0  0  0  0  0  0  0  0
   28.6834  -20.5829  -13.4667 C   0  0  0  0  0  0  0  0  0  0  0  0
   29.5338  -21.6257  -12.2661 S   0  0  0  0  0  0  0  0  0  0  0  0
   26.8004  -20.5659  -11.9474 C   0  0  0  0  0  0  0  0  0  0  0  0
   26.6528  -19.4074  -11.4766 O   0  0  0  0  0  0  0  0  0  0  0  0
   26.5955  -21.6597  -11.0712 N   0  0  0  0  0  0  0  0  0  0  0  0
   26.2932  -21.5252   -9.6546 C   0  0  1  0  0  0  0  0  0  0  0  0
   27.3134  -20.6235   -8.9863 C   0  0  0  0  0  0  0  0  0  0  0  0
   27.0074  -20.4984   -7.5396 C   0  0  0  0  0  0  0  0  0  0  0  0
   26.0246  -21.1557   -6.8455 C   0  0  0  0  0  0  0  0  0  0  0  0
   26.0789  -20.7638   -5.5690 N   0  0  0  0  0  0  0  0  0  0  0  0
   27.0721  -19.8572   -5.3746 C   0  0  0  0  0  0  0  0  0  0  0  0
   27.5190  -19.1733   -4.2676 C   0  0  0  0  0  0  0  0  0  0  0  0
   28.5715  -18.3011   -4.3903 C   0  0  0  0  0  0  0  0  0  0  0  0
   29.1416  -18.1488   -5.6407 C   0  0  0  0  0  0  0  0  0  0  0  0
   28.7153  -18.8195   -6.7639 C   0  0  0  0  0  0  0  0  0  0  0  0
   27.6557  -19.6899   -6.6120 C   0  0  0  0  0  0  0  0  0  0  0  0
   24.9683  -20.8739   -9.5407 C   0  0  0  0  0  0  0  0  0  0  0  0
   24.0320  -21.2813   -8.6095 O   0  0  0  0  0  0  0  0  0  0  0  0
   24.6745  -19.9256  -10.3040 O   0  0  0  0  0  0  0  0  0  0  0  0
  2  1  1  6
  2  9  1  0
  2  3  1  0
  3  4  1  0
  4  8  1  0
  5  6  1  0
  5  4  2  0
  6  7  1  0
  7  8  2  0
  9 10  2  0
 11 12  1  0
 11  9  1  0
 12 15  1  0
 12 13  1  1
 14 13  1  0
 15 17  1  0
 16 15  2  0
 17 18  1  0
 18 19  1  1
 19 20  1  0
 20 28  1  0
 20 21  2  0
 21 22  1  0
 23 22  1  0
 23 24  2  0
 25 24  1  0
 26 25  2  0
 27 28  2  0
 27 26  1  0
 28 23  1  0
 29 30  1  0
 29 18  1  0
 31 29  2  0
M  END
$$$$
