HCW.pdb
     RDKit          3D

 31 33  0  0  1  0  0  0  0  0999 V2000
   12.2550  -23.1464   -3.0181 N   0  0  0  0  0  0  0  0  0  0  0  0
   13.5348  -23.3637   -2.3977 C   0  0  1  0  0  0  0  0  0  0  0  0
   14.5974  -22.6900   -3.2306 C   0  0  0  0  0  0  0  0  0  0  0  0
   14.6376  -23.2034   -4.6133 C   0  0  0  0  0  0  0  0  0  0  0  0
   15.3382  -24.3297   -4.9835 C   0  0  0  0  0  0  0  0  0  0  0  0
   15.1719  -24.5257   -6.2947 N   0  0  0  0  0  0  0  0  0  0  0  0
   14.3831  -23.5411   -6.7345 C   0  0  0  0  0  0  0  0  0  0  0  0
   14.0555  -22.7362   -5.7213 N   0  0  0  0  0  0  0  0  0  0  0  0
   13.5570  -22.9364   -0.9810 C   0  0  0  0  0  0  0  0  0  0  0  0
   12.8287  -21.9891   -0.5887 O   0  0  0  0  0  0  0  0  0  0  0  0
   14.3863  -23.5596    0.0001 N   0  0  0  0  0  0  0  0  0  0  0  0
   14.4099  -23.2203    1.3828 C   0  0  1  0  0  0  0  0  0  0  0  0
   13.8901  -24.3345    2.2740 C   0  0  0  0  0  0  0  0  0  0  0  0
   14.6105  -25.9272    1.8309 S   0  0  0  0  0  0  0  0  0  0  0  0
   15.7647  -22.8581    1.8738 C   0  0  0  0  0  0  0  0  0  0  0  0
   16.7809  -23.4028    1.3675 O   0  0  0  0  0  0  0  0  0  0  0  0
   15.9753  -21.9105    2.9052 N   0  0  0  0  0  0  0  0  0  0  0  0
   17.2867  -21.4555    3.3403 C   0  0  1  0  0  0  0  0  0  0  0  0
   17.5956  -20.0990    2.7363 C   0  0  0  0  0  0  0  0  0  0  0  0
   16.7349  -19.0612    3.3563 C   0  0  0  0  0  0  0  0  0  0  0  0
   17.0506  -18.2570    4.4208 C   0  0  0  0  0  0  0  0  0  0  0  0
   16.0059  -17.4620    4.6704 N   0  0  0  0  0  0  0  0  0  0  0  0
   14.9866  -17.7028    3.8047 C   0  0  0  0  0  0  0  0  0  0  0  0
   13.7313  -17.1604    3.6544 C   0  0  0  0  0  0  0  0  0  0  0  0
   12.9078  -17.6257    2.6599 C   0  0  0  0  0  0  0  0  0  0  0  0
   13.3867  -18.6335    1.8435 C   0  0  0  0  0  0  0  0  0  0  0  0
   14.6370  -19.1937    1.9712 C   0  0  0  0  0  0  0  0  0  0  0  0
   15.4439  -18.7073    2.9790 C   0  0  0  0  0  0  0  0  0  0  0  0
   17.2387  -21.2969    4.8116 C   0  0  0  0  0  0  0  0  0  0  0  0
   18.3742  -21.0387    5.5557 O   0  0  0  0  0  0  0  0  0  0  0  0
   16.1443  -21.3972    5.4120 O   0  0  0  0  0  0  0  0  0  0  0  0
  2  1  1  6
  2  9  1  0
  2  3  1  0
  3  4  1  0
  4  8  1  0
  5  6  1  0
  5  4  2  0
  6  7  1  0
  7  8  2  0
  9 10  2  0
 11 12  1  0
 11  9  1  0
 12 15  1  0
 12 13  1  1
 14 13  1  0
 15 17  1  0
 16 15  2  0
 17 18  1  0
 18 19  1  6
 19 20  1  0
 20 28  1  0
 20 21  2  0
 21 22  1  0
 23 22  1  0
 23 24  2  0
 25 24  1  0
 26 25  2  0
 27 28  2  0
 27 26  1  0
 28 23  1  0
 29 30  1  0
 29 18  1  0
 31 29  2  0
M  END
$$$$
