HCW.pdb
     RDKit          3D

 31 33  0  0  1  0  0  0  0  0999 V2000
   13.0077  -22.4672    0.7635 N   0  0  0  0  0  0  0  0  0  0  0  0
   14.1856  -22.0642    1.4848 C   0  0  1  0  0  0  0  0  0  0  0  0
   15.2261  -21.6033    0.4941 C   0  0  0  0  0  0  0  0  0  0  0  0
   15.5764  -22.6523   -0.4826 C   0  0  0  0  0  0  0  0  0  0  0  0
   16.1469  -23.8554   -0.1306 C   0  0  0  0  0  0  0  0  0  0  0  0
   16.3374  -24.5789   -1.2377 N   0  0  0  0  0  0  0  0  0  0  0  0
   15.8948  -23.8420   -2.2605 C   0  0  0  0  0  0  0  0  0  0  0  0
   15.4323  -22.6736   -1.8105 N   0  0  0  0  0  0  0  0  0  0  0  0
   13.8939  -21.0533    2.5256 C   0  0  0  0  0  0  0  0  0  0  0  0
   12.7097  -20.6980    2.7559 O   0  0  0  0  0  0  0  0  0  0  0  0
   14.9151  -20.4370    3.3104 N   0  0  0  0  0  0  0  0  0  0  0  0
   14.7113  -19.8287    4.5817 C   0  0  1  0  0  0  0  0  0  0  0  0
   14.1141  -20.7800    5.6036 C   0  0  0  0  0  0  0  0  0  0  0  0
   13.8766  -19.9737    7.1990 S   0  0  0  0  0  0  0  0  0  0  0  0
   15.9569  -19.2728    5.1711 C   0  0  0  0  0  0  0  0  0  0  0  0
   16.9694  -20.0093    5.3052 O   0  0  0  0  0  0  0  0  0  0  0  0
   16.0649  -17.9270    5.5991 N   0  0  0  0  0  0  0  0  0  0  0  0
   17.2585  -17.3560    6.2035 C   0  0  1  0  0  0  0  0  0  0  0  0
   17.0839  -15.8613    6.3930 C   0  0  0  0  0  0  0  0  0  0  0  0
   17.3156  -15.1577    5.1072 C   0  0  0  0  0  0  0  0  0  0  0  0
   16.7069  -15.4148    3.9059 C   0  0  0  0  0  0  0  0  0  0  0  0
   17.1938  -14.5634    2.9982 N   0  0  0  0  0  0  0  0  0  0  0  0
   18.1178  -13.7330    3.5485 C   0  0  0  0  0  0  0  0  0  0  0  0
   18.8851  -12.7102    3.0409 C   0  0  0  0  0  0  0  0  0  0  0  0
   19.7514  -12.0395    3.8677 C   0  0  0  0  0  0  0  0  0  0  0  0
   19.8124  -12.4301    5.1925 C   0  0  0  0  0  0  0  0  0  0  0  0
   19.0570  -13.4486    5.7266 C   0  0  0  0  0  0  0  0  0  0  0  0
   18.1948  -14.1058    4.8733 C   0  0  0  0  0  0  0  0  0  0  0  0
   17.4173  -17.9678    7.5425 C   0  0  0  0  0  0  0  0  0  0  0  0
   18.6588  -18.1372    8.1254 O   0  0  0  0  0  0  0  0  0  0  0  0
   16.4060  -18.3472    8.1761 O   0  0  0  0  0  0  0  0  0  0  0  0
  2  1  1  6
  2  9  1  0
  2  3  1  0
  3  4  1  0
  4  8  1  0
  5  6  1  0
  5  4  2  0
  6  7  1  0
  7  8  2  0
  9 10  2  0
 11 12  1  0
 11  9  1  0
 12 15  1  0
 12 13  1  1
 14 13  1  0
 15 17  1  0
 16 15  2  0
 17 18  1  0
 18 19  1  1
 19 20  1  0
 20 28  1  0
 20 21  2  0
 21 22  1  0
 23 22  1  0
 23 24  2  0
 25 24  1  0
 26 25  2  0
 27 28  2  0
 27 26  1  0
 28 23  1  0
 29 30  1  0
 29 18  1  0
 31 29  2  0
M  END
$$$$
