HCW.pdb
     RDKit          3D

 31 33  0  0  1  0  0  0  0  0999 V2000
   22.1018  -12.3316  -17.7646 N   0  0  0  0  0  0  0  0  0  0  0  0
   22.0900  -10.9462  -18.1524 C   0  0  1  0  0  0  0  0  0  0  0  0
   21.7248  -10.8555  -19.6136 C   0  0  0  0  0  0  0  0  0  0  0  0
   22.6607  -11.6036  -20.4747 C   0  0  0  0  0  0  0  0  0  0  0  0
   24.0140  -11.3527  -20.5204 C   0  0  0  0  0  0  0  0  0  0  0  0
   24.5766  -12.1961  -21.3907 N   0  0  0  0  0  0  0  0  0  0  0  0
   23.5940  -12.9583  -21.8789 C   0  0  0  0  0  0  0  0  0  0  0  0
   22.4304  -12.6050  -21.3284 N   0  0  0  0  0  0  0  0  0  0  0  0
   21.2145  -10.1237  -17.2881 C   0  0  0  0  0  0  0  0  0  0  0  0
   20.0339  -10.4845  -17.0481 O   0  0  0  0  0  0  0  0  0  0  0  0
   21.6483   -8.9018  -16.6901 N   0  0  0  0  0  0  0  0  0  0  0  0
   20.8451   -8.0705  -15.8586 C   0  0  1  0  0  0  0  0  0  0  0  0
   21.1116   -8.2806  -14.3785 C   0  0  0  0  0  0  0  0  0  0  0  0
   20.6217   -9.9323  -13.8457 S   0  0  0  0  0  0  0  0  0  0  0  0
   21.0190   -6.6213  -16.1370 C   0  0  0  0  0  0  0  0  0  0  0  0
   22.1726   -6.1538  -16.3270 O   0  0  0  0  0  0  0  0  0  0  0  0
   19.9286   -5.7196  -16.2008 N   0  0  0  0  0  0  0  0  0  0  0  0
   20.0407   -4.3318  -16.6221 C   0  0  1  0  0  0  0  0  0  0  0  0
   20.1928   -4.2542  -18.1292 C   0  0  0  0  0  0  0  0  0  0  0  0
   19.0847   -4.9891  -18.7881 C   0  0  0  0  0  0  0  0  0  0  0  0
   17.7806   -5.0604  -18.3712 C   0  0  0  0  0  0  0  0  0  0  0  0
   17.1042   -5.8208  -19.2373 N   0  0  0  0  0  0  0  0  0  0  0  0
   17.9122   -6.2695  -20.2333 C   0  0  0  0  0  0  0  0  0  0  0  0
   17.6956   -7.0642  -21.3352 C   0  0  0  0  0  0  0  0  0  0  0  0
   18.7392   -7.3490  -22.1799 C   0  0  0  0  0  0  0  0  0  0  0  0
   19.9784   -6.8151  -21.8781 C   0  0  0  0  0  0  0  0  0  0  0  0
   20.2231   -6.0178  -20.7838 C   0  0  0  0  0  0  0  0  0  0  0  0
   19.1564   -5.7476  -19.9517 C   0  0  0  0  0  0  0  0  0  0  0  0
   18.7771   -3.6512  -16.2579 C   0  0  0  0  0  0  0  0  0  0  0  0
   18.6210   -2.2841  -16.3852 O   0  0  0  0  0  0  0  0  0  0  0  0
   17.8141   -4.3216  -15.8205 O   0  0  0  0  0  0  0  0  0  0  0  0
  2  1  1  1
  2  9  1  0
  2  3  1  0
  3  4  1  0
  4  8  1  0
  5  6  1  0
  5  4  2  0
  6  7  1  0
  7  8  2  0
  9 10  2  0
 11 12  1  0
 11  9  1  0
 12 15  1  0
 12 13  1  1
 14 13  1  0
 15 17  1  0
 16 15  2  0
 17 18  1  0
 18 19  1  6
 19 20  1  0
 20 28  1  0
 20 21  2  0
 21 22  1  0
 23 22  1  0
 23 24  2  0
 25 24  1  0
 26 25  2  0
 27 28  2  0
 27 26  1  0
 28 23  1  0
 29 30  1  0
 29 18  1  0
 31 29  2  0
M  END
$$$$
