HCW.pdb
     RDKit          3D

 31 33  0  0  1  0  0  0  0  0999 V2000
   17.7893  -12.0950    5.1899 N   0  0  0  0  0  0  0  0  0  0  0  0
   18.6415  -13.2533    5.2337 C   0  0  1  0  0  0  0  0  0  0  0  0
   20.0791  -12.7994    5.1704 C   0  0  0  0  0  0  0  0  0  0  0  0
   20.4920  -12.0682    6.3836 C   0  0  0  0  0  0  0  0  0  0  0  0
   19.6203  -11.7174    7.3905 C   0  0  0  0  0  0  0  0  0  0  0  0
   20.3017  -11.0706    8.3406 N   0  0  0  0  0  0  0  0  0  0  0  0
   21.5735  -11.0185    7.9349 C   0  0  0  0  0  0  0  0  0  0  0  0
   21.6963  -11.6209    6.7501 N   0  0  0  0  0  0  0  0  0  0  0  0
   18.3618  -14.1181    6.4017 C   0  0  0  0  0  0  0  0  0  0  0  0
   17.2551  -14.0503    6.9953 O   0  0  0  0  0  0  0  0  0  0  0  0
   19.3089  -15.0575    6.9107 N   0  0  0  0  0  0  0  0  0  0  0  0
   19.0502  -15.9938    7.9519 C   0  0  1  0  0  0  0  0  0  0  0  0
   17.9698  -16.9975    7.5896 C   0  0  0  0  0  0  0  0  0  0  0  0
   18.0316  -17.4344    5.8411 S   0  0  0  0  0  0  0  0  0  0  0  0
   20.2530  -16.7668    8.3564 C   0  0  0  0  0  0  0  0  0  0  0  0
   21.0832  -17.1354    7.4844 O   0  0  0  0  0  0  0  0  0  0  0  0
   20.5184  -17.1175    9.7026 N   0  0  0  0  0  0  0  0  0  0  0  0
   21.7187  -17.8107   10.1441 C   0  0  1  0  0  0  0  0  0  0  0  0
   22.0844  -17.3775   11.5509 C   0  0  0  0  0  0  0  0  0  0  0  0
   22.6226  -15.9947   11.5307 C   0  0  0  0  0  0  0  0  0  0  0  0
   21.9004  -14.8293   11.5377 C   0  0  0  0  0  0  0  0  0  0  0  0
   22.7577  -13.8044   11.5109 N   0  0  0  0  0  0  0  0  0  0  0  0
   24.0445  -14.2400   11.4859 C   0  0  0  0  0  0  0  0  0  0  0  0
   25.2574  -13.5915   11.4541 C   0  0  0  0  0  0  0  0  0  0  0  0
   26.4169  -14.3255   11.4339 C   0  0  0  0  0  0  0  0  0  0  0  0
   26.3090  -15.7038   11.4466 C   0  0  0  0  0  0  0  0  0  0  0  0
   25.1100  -16.3781   11.4785 C   0  0  0  0  0  0  0  0  0  0  0  0
   23.9603  -15.6157   11.4982 C   0  0  0  0  0  0  0  0  0  0  0  0
   21.4102  -19.2584   10.1809 C   0  0  0  0  0  0  0  0  0  0  0  0
   22.3890  -20.2083   10.4032 O   0  0  0  0  0  0  0  0  0  0  0  0
   20.2325  -19.6473   10.0072 O   0  0  0  0  0  0  0  0  0  0  0  0
  2  1  1  1
  2  9  1  0
  2  3  1  0
  3  4  1  0
  4  8  1  0
  5  6  1  0
  5  4  2  0
  6  7  1  0
  7  8  2  0
  9 10  2  0
 11 12  1  0
 11  9  1  0
 12 15  1  0
 12 13  1  6
 14 13  1  0
 15 17  1  0
 16 15  2  0
 17 18  1  0
 18 19  1  1
 19 20  1  0
 20 28  1  0
 20 21  2  0
 21 22  1  0
 23 22  1  0
 23 24  2  0
 25 24  1  0
 26 25  2  0
 27 28  2  0
 27 26  1  0
 28 23  1  0
 29 30  1  0
 29 18  1  0
 31 29  2  0
M  END
$$$$
