HCW.pdb
     RDKit          3D

 31 33  0  0  1  0  0  0  0  0999 V2000
   28.0799  -35.8467   -1.3140 N   0  0  0  0  0  0  0  0  0  0  0  0
   27.6718  -34.6227   -0.6774 C   0  0  1  0  0  0  0  0  0  0  0  0
   26.2492  -34.3194   -1.0780 C   0  0  0  0  0  0  0  0  0  0  0  0
   26.1049  -34.1199   -2.5328 C   0  0  0  0  0  0  0  0  0  0  0  0
   25.4128  -34.9846   -3.3514 C   0  0  0  0  0  0  0  0  0  0  0  0
   25.4676  -34.5240   -4.6045 N   0  0  0  0  0  0  0  0  0  0  0  0
   26.1799  -33.3943   -4.5690 C   0  0  0  0  0  0  0  0  0  0  0  0
   26.5692  -33.1432   -3.3171 N   0  0  0  0  0  0  0  0  0  0  0  0
   27.8619  -34.6570    0.7899 C   0  0  0  0  0  0  0  0  0  0  0  0
   27.7434  -35.7368    1.4236 O   0  0  0  0  0  0  0  0  0  0  0  0
   28.1833  -33.4943    1.5537 N   0  0  0  0  0  0  0  0  0  0  0  0
   28.4022  -33.4775    2.9607 C   0  0  1  0  0  0  0  0  0  0  0  0
   29.8746  -33.5119    3.3304 C   0  0  0  0  0  0  0  0  0  0  0  0
   30.1089  -33.4860    5.1183 S   0  0  0  0  0  0  0  0  0  0  0  0
   27.8061  -32.2934    3.6318 C   0  0  0  0  0  0  0  0  0  0  0  0
   28.1811  -31.1355    3.3091 O   0  0  0  0  0  0  0  0  0  0  0  0
   26.8157  -32.4040    4.6382 N   0  0  0  0  0  0  0  0  0  0  0  0
   26.2979  -31.2788    5.4010 C   0  0  1  0  0  0  0  0  0  0  0  0
   24.8839  -31.5698    5.8662 C   0  0  0  0  0  0  0  0  0  0  0  0
   23.9842  -30.4550    5.4790 C   0  0  0  0  0  0  0  0  0  0  0  0
   23.6836  -30.0428    4.2065 C   0  0  0  0  0  0  0  0  0  0  0  0
   22.8403  -29.0094    4.2884 N   0  0  0  0  0  0  0  0  0  0  0  0
   22.5582  -28.7062    5.5826 C   0  0  0  0  0  0  0  0  0  0  0  0
   21.7645  -27.7507    6.1740 C   0  0  0  0  0  0  0  0  0  0  0  0
   21.6807  -27.6932    7.5428 C   0  0  0  0  0  0  0  0  0  0  0  0
   22.4096  -28.6131    8.2735 C   0  0  0  0  0  0  0  0  0  0  0  0
   23.2106  -29.5787    7.7086 C   0  0  0  0  0  0  0  0  0  0  0  0
   23.2765  -29.6138    6.3309 C   0  0  0  0  0  0  0  0  0  0  0  0
   27.1485  -31.1251    6.6032 C   0  0  0  0  0  0  0  0  0  0  0  0
   27.3647  -29.8938    7.1922 O   0  0  0  0  0  0  0  0  0  0  0  0
   27.6940  -32.1314    7.1111 O   0  0  0  0  0  0  0  0  0  0  0  0
  2  1  1  1
  2  9  1  0
  2  3  1  0
  3  4  1  0
  4  8  1  0
  5  6  1  0
  5  4  2  0
  6  7  1  0
  7  8  2  0
  9 10  2  0
 11 12  1  0
 11  9  1  0
 12 15  1  0
 12 13  1  6
 14 13  1  0
 15 17  1  0
 16 15  2  0
 17 18  1  0
 18 19  1  1
 19 20  1  0
 20 28  1  0
 20 21  2  0
 21 22  1  0
 23 22  1  0
 23 24  2  0
 25 24  1  0
 26 25  2  0
 27 28  2  0
 27 26  1  0
 28 23  1  0
 29 30  1  0
 29 18  1  0
 31 29  2  0
M  END
$$$$
