HCW.pdb
     RDKit          3D

 31 33  0  0  1  0  0  0  0  0999 V2000
   23.3443  -16.9705  -15.3958 N   0  0  0  0  0  0  0  0  0  0  0  0
   24.4960  -17.8072  -15.1875 C   0  0  1  0  0  0  0  0  0  0  0  0
   25.6966  -16.9266  -14.9432 C   0  0  0  0  0  0  0  0  0  0  0  0
   26.4245  -16.6104  -16.1871 C   0  0  0  0  0  0  0  0  0  0  0  0
   26.4366  -15.3583  -16.7606 C   0  0  0  0  0  0  0  0  0  0  0  0
   27.1819  -15.4023  -17.8687 N   0  0  0  0  0  0  0  0  0  0  0  0
   27.6261  -16.6569  -17.9848 C   0  0  0  0  0  0  0  0  0  0  0  0
   27.1713  -17.3944  -16.9695 N   0  0  0  0  0  0  0  0  0  0  0  0
   24.2850  -18.8038  -14.1139 C   0  0  0  0  0  0  0  0  0  0  0  0
   23.4732  -18.5745  -13.1811 O   0  0  0  0  0  0  0  0  0  0  0  0
   24.9739  -20.0537  -14.0750 N   0  0  0  0  0  0  0  0  0  0  0  0
   24.9505  -20.9643  -12.9804 C   0  0  1  0  0  0  0  0  0  0  0  0
   25.1251  -22.4102  -13.4103 C   0  0  0  0  0  0  0  0  0  0  0  0
   25.3913  -23.4943  -11.9940 S   0  0  0  0  0  0  0  0  0  0  0  0
   25.9911  -20.6788  -11.9589 C   0  0  0  0  0  0  0  0  0  0  0  0
   27.2006  -20.6027  -12.3010 O   0  0  0  0  0  0  0  0  0  0  0  0
   25.6844  -20.4836  -10.5901 N   0  0  0  0  0  0  0  0  0  0  0  0
   26.6639  -20.1199   -9.5779 C   0  0  1  0  0  0  0  0  0  0  0  0
   26.0014  -20.0372   -8.2160 C   0  0  0  0  0  0  0  0  0  0  0  0
   26.9325  -19.4236   -7.2368 C   0  0  0  0  0  0  0  0  0  0  0  0
   27.3864  -18.1300   -7.2303 C   0  0  0  0  0  0  0  0  0  0  0  0
   28.2073  -17.9787   -6.1867 N   0  0  0  0  0  0  0  0  0  0  0  0
   28.3251  -19.1344   -5.4819 C   0  0  0  0  0  0  0  0  0  0  0  0
   29.0341  -19.4818   -4.3553 C   0  0  0  0  0  0  0  0  0  0  0  0
   28.9476  -20.7625   -3.8695 C   0  0  0  0  0  0  0  0  0  0  0  0
   28.1390  -21.6567   -4.5463 C   0  0  0  0  0  0  0  0  0  0  0  0
   27.4192  -21.3365   -5.6744 C   0  0  0  0  0  0  0  0  0  0  0  0
   27.5246  -20.0425   -6.1411 C   0  0  0  0  0  0  0  0  0  0  0  0
   27.6747  -21.2006   -9.5260 C   0  0  0  0  0  0  0  0  0  0  0  0
   29.0206  -20.9514   -9.7158 O   0  0  0  0  0  0  0  0  0  0  0  0
   27.3134  -22.3790   -9.3047 O   0  0  0  0  0  0  0  0  0  0  0  0
  2  1  1  1
  2  9  1  0
  2  3  1  0
  3  4  1  0
  4  8  1  0
  5  6  1  0
  5  4  2  0
  6  7  1  0
  7  8  2  0
  9 10  2  0
 11 12  1  0
 11  9  1  0
 12 15  1  0
 12 13  1  6
 14 13  1  0
 15 17  1  0
 16 15  2  0
 17 18  1  0
 18 19  1  1
 19 20  1  0
 20 28  1  0
 20 21  2  0
 21 22  1  0
 23 22  1  0
 23 24  2  0
 25 24  1  0
 26 25  2  0
 27 28  2  0
 27 26  1  0
 28 23  1  0
 29 30  1  0
 29 18  1  0
 31 29  2  0
M  END
$$$$
