HCW.pdb
     RDKit          3D

 31 33  0  0  1  0  0  0  0  0999 V2000
   15.8925   -8.5825  -21.6248 N   0  0  0  0  0  0  0  0  0  0  0  0
   16.3103   -8.9387  -20.2950 C   0  0  1  0  0  0  0  0  0  0  0  0
   16.9781  -10.2909  -20.3432 C   0  0  0  0  0  0  0  0  0  0  0  0
   16.0399  -11.3687  -20.7107 C   0  0  0  0  0  0  0  0  0  0  0  0
   16.3535  -12.3779  -21.5938 C   0  0  0  0  0  0  0  0  0  0  0  0
   15.2975  -13.1884  -21.7100 N   0  0  0  0  0  0  0  0  0  0  0  0
   14.3437  -12.6949  -20.9153 C   0  0  0  0  0  0  0  0  0  0  0  0
   14.7864  -11.5926  -20.3067 N   0  0  0  0  0  0  0  0  0  0  0  0
   17.1590   -7.8994  -19.6707 C   0  0  0  0  0  0  0  0  0  0  0  0
   17.3793   -6.8134  -20.2655 O   0  0  0  0  0  0  0  0  0  0  0  0
   17.7629   -8.0645  -18.3874 N   0  0  0  0  0  0  0  0  0  0  0  0
   18.4655   -7.0481  -17.6798 C   0  0  1  0  0  0  0  0  0  0  0  0
   17.6053   -5.8330  -17.3810 C   0  0  0  0  0  0  0  0  0  0  0  0
   16.1592   -6.2715  -16.3968 S   0  0  0  0  0  0  0  0  0  0  0  0
   19.0301   -7.5176  -16.3880 C   0  0  0  0  0  0  0  0  0  0  0  0
   18.3090   -8.1727  -15.5903 O   0  0  0  0  0  0  0  0  0  0  0  0
   20.3678   -7.2597  -16.0003 N   0  0  0  0  0  0  0  0  0  0  0  0
   21.2165   -8.2180  -15.3094 C   0  0  1  0  0  0  0  0  0  0  0  0
   22.2392   -8.7965  -16.2685 C   0  0  0  0  0  0  0  0  0  0  0  0
   23.1219   -9.7503  -15.5522 C   0  0  0  0  0  0  0  0  0  0  0  0
   22.7312  -10.8009  -14.7627 C   0  0  0  0  0  0  0  0  0  0  0  0
   23.8278  -11.4103  -14.3024 N   0  0  0  0  0  0  0  0  0  0  0  0
   24.9553  -10.8033  -14.7569 C   0  0  0  0  0  0  0  0  0  0  0  0
   26.2963  -11.0475  -14.5705 C   0  0  0  0  0  0  0  0  0  0  0  0
   27.2225  -10.2371  -15.1781 C   0  0  0  0  0  0  0  0  0  0  0  0
   26.7562   -9.1973  -15.9608 C   0  0  0  0  0  0  0  0  0  0  0  0
   25.4219   -8.9303  -16.1644 C   0  0  0  0  0  0  0  0  0  0  0  0
   24.5126   -9.7605  -15.5420 C   0  0  0  0  0  0  0  0  0  0  0  0
   21.9496   -7.4844  -14.2526 C   0  0  0  0  0  0  0  0  0  0  0  0
   22.1900   -8.0401  -13.0104 O   0  0  0  0  0  0  0  0  0  0  0  0
   22.3696   -6.3262  -14.4774 O   0  0  0  0  0  0  0  0  0  0  0  0
  2  1  1  6
  2  9  1  0
  2  3  1  0
  3  4  1  0
  4  8  1  0
  5  6  1  0
  5  4  2  0
  6  7  1  0
  7  8  2  0
  9 10  2  0
 11 12  1  0
 11  9  1  0
 12 15  1  0
 12 13  1  1
 14 13  1  0
 15 17  1  0
 16 15  2  0
 17 18  1  0
 18 19  1  6
 19 20  1  0
 20 28  1  0
 20 21  2  0
 21 22  1  0
 23 22  1  0
 23 24  2  0
 25 24  1  0
 26 25  2  0
 27 28  2  0
 27 26  1  0
 28 23  1  0
 29 30  1  0
 29 18  1  0
 31 29  2  0
M  END
$$$$
