HCW.pdb
     RDKit          3D

 31 33  0  0  1  0  0  0  0  0999 V2000
   30.9455  -24.6797  -18.8419 N   0  0  0  0  0  0  0  0  0  0  0  0
   30.9901  -24.1121  -17.5206 C   0  0  1  0  0  0  0  0  0  0  0  0
   32.3960  -23.6395  -17.2437 C   0  0  0  0  0  0  0  0  0  0  0  0
   33.3327  -24.7584  -17.0256 C   0  0  0  0  0  0  0  0  0  0  0  0
   32.9626  -26.0826  -17.1027 C   0  0  0  0  0  0  0  0  0  0  0  0
   34.0345  -26.8417  -16.8571 N   0  0  0  0  0  0  0  0  0  0  0  0
   35.0535  -26.0079  -16.6311 C   0  0  0  0  0  0  0  0  0  0  0  0
   34.6358  -24.7441  -16.7315 N   0  0  0  0  0  0  0  0  0  0  0  0
   29.9771  -23.0509  -17.3258 C   0  0  0  0  0  0  0  0  0  0  0  0
   30.0941  -21.9424  -17.9083 O   0  0  0  0  0  0  0  0  0  0  0  0
   28.8350  -23.2191  -16.4856 N   0  0  0  0  0  0  0  0  0  0  0  0
   27.7989  -22.2573  -16.3153 C   0  0  1  0  0  0  0  0  0  0  0  0
   26.7005  -22.3807  -17.3565 C   0  0  0  0  0  0  0  0  0  0  0  0
   27.2039  -21.6731  -18.9370 S   0  0  0  0  0  0  0  0  0  0  0  0
   27.1509  -22.3250  -14.9799 C   0  0  0  0  0  0  0  0  0  0  0  0
   26.6295  -23.4030  -14.5905 O   0  0  0  0  0  0  0  0  0  0  0  0
   27.0887  -21.2138  -14.1039 N   0  0  0  0  0  0  0  0  0  0  0  0
   26.5237  -21.2612  -12.7643 C   0  0  1  0  0  0  0  0  0  0  0  0
   26.8742  -19.9960  -12.0047 C   0  0  0  0  0  0  0  0  0  0  0  0
   26.5078  -20.1464  -10.5746 C   0  0  0  0  0  0  0  0  0  0  0  0
   25.2828  -19.9052  -10.0081 C   0  0  0  0  0  0  0  0  0  0  0  0
   25.3691  -20.1579   -8.6986 N   0  0  0  0  0  0  0  0  0  0  0  0
   26.6198  -20.5649   -8.3576 C   0  0  0  0  0  0  0  0  0  0  0  0
   27.1971  -20.9335   -7.1645 C   0  0  0  0  0  0  0  0  0  0  0  0
   28.5182  -21.3048   -7.1382 C   0  0  0  0  0  0  0  0  0  0  0  0
   29.2170  -21.2903   -8.3311 C   0  0  0  0  0  0  0  0  0  0  0  0
   28.6651  -20.9265   -9.5378 C   0  0  0  0  0  0  0  0  0  0  0  0
   27.3356  -20.5578   -9.5355 C   0  0  0  0  0  0  0  0  0  0  0  0
   25.0505  -21.3140  -12.9026 C   0  0  0  0  0  0  0  0  0  0  0  0
   24.2565  -21.9978  -12.0016 O   0  0  0  0  0  0  0  0  0  0  0  0
   24.4948  -20.7267  -13.8589 O   0  0  0  0  0  0  0  0  0  0  0  0
  2  1  1  6
  2  9  1  0
  2  3  1  0
  3  4  1  0
  4  8  1  0
  5  6  1  0
  5  4  2  0
  6  7  1  0
  7  8  2  0
  9 10  2  0
 11 12  1  0
 11  9  1  0
 12 15  1  0
 12 13  1  6
 14 13  1  0
 15 17  1  0
 16 15  2  0
 17 18  1  0
 18 19  1  1
 19 20  1  0
 20 28  1  0
 20 21  2  0
 21 22  1  0
 23 22  1  0
 23 24  2  0
 25 24  1  0
 26 25  2  0
 27 28  2  0
 27 26  1  0
 28 23  1  0
 29 30  1  0
 29 18  1  0
 31 29  2  0
M  END
$$$$
