HCW.pdb
     RDKit          3D

 31 33  0  0  1  0  0  0  0  0999 V2000
   29.4962  -18.2438  -18.7629 N   0  0  0  0  0  0  0  0  0  0  0  0
   28.9224  -19.3728  -18.0803 C   0  0  1  0  0  0  0  0  0  0  0  0
   29.7037  -20.6098  -18.4489 C   0  0  0  0  0  0  0  0  0  0  0  0
   29.5641  -20.9588  -19.8757 C   0  0  0  0  0  0  0  0  0  0  0  0
   28.4857  -20.5837  -20.6456 C   0  0  0  0  0  0  0  0  0  0  0  0
   28.6609  -21.0518  -21.8848 N   0  0  0  0  0  0  0  0  0  0  0  0
   29.8255  -21.7064  -21.8883 C   0  0  0  0  0  0  0  0  0  0  0  0
   30.3783  -21.6542  -20.6746 N   0  0  0  0  0  0  0  0  0  0  0  0
   28.8313  -19.1639  -16.6180 C   0  0  0  0  0  0  0  0  0  0  0  0
   29.7462  -18.5601  -16.0015 O   0  0  0  0  0  0  0  0  0  0  0  0
   27.7261  -19.6243  -15.8401 N   0  0  0  0  0  0  0  0  0  0  0  0
   27.4928  -19.2891  -14.4759 C   0  0  1  0  0  0  0  0  0  0  0  0
   27.2691  -17.8025  -14.2622 C   0  0  0  0  0  0  0  0  0  0  0  0
   25.7300  -17.2489  -15.0216 S   0  0  0  0  0  0  0  0  0  0  0  0
   26.3271  -19.9998  -13.8894 C   0  0  0  0  0  0  0  0  0  0  0  0
   25.2840  -20.1646  -14.5752 O   0  0  0  0  0  0  0  0  0  0  0  0
   26.3303  -20.5123  -12.5691 N   0  0  0  0  0  0  0  0  0  0  0  0
   25.2609  -21.3211  -12.0049 C   0  0  1  0  0  0  0  0  0  0  0  0
   25.7316  -21.9924  -10.7289 C   0  0  0  0  0  0  0  0  0  0  0  0
   26.1674  -20.9670   -9.7487 C   0  0  0  0  0  0  0  0  0  0  0  0
   25.3716  -20.0641   -9.0921 C   0  0  0  0  0  0  0  0  0  0  0  0
   26.1484  -19.3176   -8.3013 N   0  0  0  0  0  0  0  0  0  0  0  0
   27.4520  -19.6876   -8.4014 C   0  0  0  0  0  0  0  0  0  0  0  0
   28.6069  -19.2365   -7.8052 C   0  0  0  0  0  0  0  0  0  0  0  0
   29.8054  -19.8276   -8.1182 C   0  0  0  0  0  0  0  0  0  0  0  0
   29.7947  -20.8647   -9.0324 C   0  0  0  0  0  0  0  0  0  0  0  0
   28.6553  -21.3357   -9.6433 C   0  0  0  0  0  0  0  0  0  0  0  0
   27.4646  -20.7236   -9.3104 C   0  0  0  0  0  0  0  0  0  0  0  0
   24.1486  -20.4089  -11.6541 C   0  0  0  0  0  0  0  0  0  0  0  0
   22.8726  -20.8761  -11.4028 O   0  0  0  0  0  0  0  0  0  0  0  0
   24.3561  -19.1762  -11.5796 O   0  0  0  0  0  0  0  0  0  0  0  0
  2  1  1  6
  2  9  1  0
  2  3  1  0
  3  4  1  0
  4  8  1  0
  5  6  1  0
  5  4  2  0
  6  7  1  0
  7  8  2  0
  9 10  2  0
 11 12  1  0
 11  9  1  0
 12 15  1  0
 12 13  1  6
 14 13  1  0
 15 17  1  0
 16 15  2  0
 17 18  1  0
 18 19  1  1
 19 20  1  0
 20 28  1  0
 20 21  2  0
 21 22  1  0
 23 22  1  0
 23 24  2  0
 25 24  1  0
 26 25  2  0
 27 28  2  0
 27 26  1  0
 28 23  1  0
 29 30  1  0
 29 18  1  0
 31 29  2  0
M  END
$$$$
