HCW.pdb
     RDKit          3D

 31 33  0  0  1  0  0  0  0  0999 V2000
   23.4107  -20.3201  -16.0962 N   0  0  0  0  0  0  0  0  0  0  0  0
   22.5854  -19.8459  -15.0174 C   0  0  1  0  0  0  0  0  0  0  0  0
   21.3377  -19.2274  -15.5981 C   0  0  0  0  0  0  0  0  0  0  0  0
   21.6307  -18.0426  -16.4272 C   0  0  0  0  0  0  0  0  0  0  0  0
   21.6478  -16.7572  -15.9330 C   0  0  0  0  0  0  0  0  0  0  0  0
   21.9451  -15.9191  -16.9303 N   0  0  0  0  0  0  0  0  0  0  0  0
   22.1102  -16.6663  -18.0254 C   0  0  0  0  0  0  0  0  0  0  0  0
   21.9213  -17.9538  -17.7281 N   0  0  0  0  0  0  0  0  0  0  0  0
   22.2949  -20.9007  -14.0209 C   0  0  0  0  0  0  0  0  0  0  0  0
   22.0734  -22.0827  -14.3890 O   0  0  0  0  0  0  0  0  0  0  0  0
   22.2501  -20.6447  -12.6170 N   0  0  0  0  0  0  0  0  0  0  0  0
   21.9795  -21.6225  -11.6177 C   0  0  1  0  0  0  0  0  0  0  0  0
   23.0779  -21.7208  -10.5739 C   0  0  0  0  0  0  0  0  0  0  0  0
   23.3465  -20.1420   -9.7448 S   0  0  0  0  0  0  0  0  0  0  0  0
   20.7036  -21.3832  -10.8948 C   0  0  0  0  0  0  0  0  0  0  0  0
   20.3133  -20.2044  -10.6862 O   0  0  0  0  0  0  0  0  0  0  0  0
   19.8867  -22.4374  -10.4180 N   0  0  0  0  0  0  0  0  0  0  0  0
   18.6136  -22.2416   -9.7419 C   0  0  1  0  0  0  0  0  0  0  0  0
   17.4892  -22.1672  -10.7572 C   0  0  0  0  0  0  0  0  0  0  0  0
   17.6228  -23.2693  -11.7419 C   0  0  0  0  0  0  0  0  0  0  0  0
   17.4127  -24.6053  -11.5168 C   0  0  0  0  0  0  0  0  0  0  0  0
   17.6398  -25.2636  -12.6574 N   0  0  0  0  0  0  0  0  0  0  0  0
   17.9991  -24.4123  -13.6536 C   0  0  0  0  0  0  0  0  0  0  0  0
   18.3280  -24.5969  -14.9766 C   0  0  0  0  0  0  0  0  0  0  0  0
   18.6551  -23.5115  -15.7504 C   0  0  0  0  0  0  0  0  0  0  0  0
   18.6383  -22.2644  -15.1537 C   0  0  0  0  0  0  0  0  0  0  0  0
   18.3133  -22.0510  -13.8338 C   0  0  0  0  0  0  0  0  0  0  0  0
   17.9886  -23.1594  -13.0792 C   0  0  0  0  0  0  0  0  0  0  0  0
   18.3753  -23.4268   -8.8869 C   0  0  0  0  0  0  0  0  0  0  0  0
   17.2817  -23.5128   -8.0464 O   0  0  0  0  0  0  0  0  0  0  0  0
   19.1798  -24.3860   -8.9163 O   0  0  0  0  0  0  0  0  0  0  0  0
  2  1  1  6
  2  9  1  0
  2  3  1  0
  3  4  1  0
  4  8  1  0
  5  6  1  0
  5  4  2  0
  6  7  1  0
  7  8  2  0
  9 10  2  0
 11 12  1  0
 11  9  1  0
 12 15  1  0
 12 13  1  1
 14 13  1  0
 15 17  1  0
 16 15  2  0
 17 18  1  0
 18 19  1  6
 19 20  1  0
 20 28  1  0
 20 21  2  0
 21 22  1  0
 23 22  1  0
 23 24  2  0
 25 24  1  0
 26 25  2  0
 27 28  2  0
 27 26  1  0
 28 23  1  0
 29 30  1  0
 29 18  1  0
 31 29  2  0
M  END
$$$$
