HCW.pdb
     RDKit          3D

 31 33  0  0  1  0  0  0  0  0999 V2000
   27.2383  -17.8155  -18.1425 N   0  0  0  0  0  0  0  0  0  0  0  0
   26.8476  -17.5450  -16.7846 C   0  0  1  0  0  0  0  0  0  0  0  0
   25.8509  -16.4122  -16.7839 C   0  0  0  0  0  0  0  0  0  0  0  0
   26.3924  -15.1863  -17.4011 C   0  0  0  0  0  0  0  0  0  0  0  0
   25.9478  -14.6833  -18.6036 C   0  0  0  0  0  0  0  0  0  0  0  0
   26.6344  -13.5714  -18.8825 N   0  0  0  0  0  0  0  0  0  0  0  0
   27.4907  -13.3841  -17.8743 C   0  0  0  0  0  0  0  0  0  0  0  0
   27.3496  -14.3586  -16.9731 N   0  0  0  0  0  0  0  0  0  0  0  0
   26.3482  -18.7516  -16.0881 C   0  0  0  0  0  0  0  0  0  0  0  0
   25.2182  -19.2278  -16.3675 O   0  0  0  0  0  0  0  0  0  0  0  0
   27.1018  -19.4296  -15.0827 N   0  0  0  0  0  0  0  0  0  0  0  0
   26.6531  -20.5696  -14.3568 C   0  0  1  0  0  0  0  0  0  0  0  0
   27.2020  -21.8743  -14.9066 C   0  0  0  0  0  0  0  0  0  0  0  0
   29.0052  -21.8914  -14.8940 S   0  0  0  0  0  0  0  0  0  0  0  0
   27.0002  -20.5182  -12.9130 C   0  0  0  0  0  0  0  0  0  0  0  0
   28.2079  -20.4654  -12.5604 O   0  0  0  0  0  0  0  0  0  0  0  0
   26.0196  -20.5259  -11.8910 N   0  0  0  0  0  0  0  0  0  0  0  0
   25.8218  -21.6241  -10.9579 C   0  0  1  0  0  0  0  0  0  0  0  0
   26.9907  -21.7084   -9.9951 C   0  0  0  0  0  0  0  0  0  0  0  0
   26.7096  -20.8960   -8.7855 C   0  0  0  0  0  0  0  0  0  0  0  0
   25.4776  -20.5528   -8.2915 C   0  0  0  0  0  0  0  0  0  0  0  0
   25.6572  -19.8155   -7.1914 N   0  0  0  0  0  0  0  0  0  0  0  0
   26.9784  -19.6469   -6.9226 C   0  0  0  0  0  0  0  0  0  0  0  0
   27.6595  -18.9846   -5.9276 C   0  0  0  0  0  0  0  0  0  0  0  0
   29.0320  -18.9948   -5.9246 C   0  0  0  0  0  0  0  0  0  0  0  0
   29.6748  -19.6813   -6.9380 C   0  0  0  0  0  0  0  0  0  0  0  0
   29.0192  -20.3519   -7.9448 C   0  0  0  0  0  0  0  0  0  0  0  0
   27.6400  -20.3253   -7.9235 C   0  0  0  0  0  0  0  0  0  0  0  0
   24.6048  -21.3260  -10.1690 C   0  0  0  0  0  0  0  0  0  0  0  0
   24.0100  -22.2736   -9.3577 O   0  0  0  0  0  0  0  0  0  0  0  0
   24.0889  -20.1865  -10.2293 O   0  0  0  0  0  0  0  0  0  0  0  0
  2  1  1  6
  2  9  1  0
  2  3  1  0
  3  4  1  0
  4  8  1  0
  5  6  1  0
  5  4  2  0
  6  7  1  0
  7  8  2  0
  9 10  2  0
 11 12  1  0
 11  9  1  0
 12 15  1  0
 12 13  1  6
 14 13  1  0
 15 17  1  0
 16 15  2  0
 17 18  1  0
 18 19  1  1
 19 20  1  0
 20 28  1  0
 20 21  2  0
 21 22  1  0
 23 22  1  0
 23 24  2  0
 25 24  1  0
 26 25  2  0
 27 28  2  0
 27 26  1  0
 28 23  1  0
 29 30  1  0
 29 18  1  0
 31 29  2  0
M  END
$$$$
