HCW.pdb
     RDKit          3D

 31 33  0  0  1  0  0  0  0  0999 V2000
   28.2492  -21.6219  -16.3580 N   0  0  0  0  0  0  0  0  0  0  0  0
   27.7604  -20.6828  -15.3838 C   0  0  1  0  0  0  0  0  0  0  0  0
   27.2482  -19.4601  -16.1043 C   0  0  0  0  0  0  0  0  0  0  0  0
   28.3195  -18.7363  -16.8153 C   0  0  0  0  0  0  0  0  0  0  0  0
   28.9969  -17.6650  -16.2767 C   0  0  0  0  0  0  0  0  0  0  0  0
   29.8987  -17.2381  -17.1655 N   0  0  0  0  0  0  0  0  0  0  0  0
   29.7863  -18.0271  -18.2378 C   0  0  0  0  0  0  0  0  0  0  0  0
   28.8316  -18.9371  -18.0327 N   0  0  0  0  0  0  0  0  0  0  0  0
   26.7549  -21.2798  -14.4767 C   0  0  0  0  0  0  0  0  0  0  0  0
   25.8356  -22.0066  -14.9331 O   0  0  0  0  0  0  0  0  0  0  0  0
   26.7692  -21.0709  -13.0643 N   0  0  0  0  0  0  0  0  0  0  0  0
   25.6570  -21.2735  -12.1985 C   0  0  1  0  0  0  0  0  0  0  0  0
   25.9500  -20.8876  -10.7594 C   0  0  0  0  0  0  0  0  0  0  0  0
   24.4969  -21.0898   -9.7108 S   0  0  0  0  0  0  0  0  0  0  0  0
   24.4443  -20.5245  -12.6182 C   0  0  0  0  0  0  0  0  0  0  0  0
   24.4411  -19.2659  -12.5810 O   0  0  0  0  0  0  0  0  0  0  0  0
   23.2660  -21.1691  -13.0677 N   0  0  0  0  0  0  0  0  0  0  0  0
   22.0454  -20.4712  -13.4408 C   0  0  1  0  0  0  0  0  0  0  0  0
   21.7610  -20.6696  -14.9174 C   0  0  0  0  0  0  0  0  0  0  0  0
   20.5365  -19.9245  -15.3014 C   0  0  0  0  0  0  0  0  0  0  0  0
   20.3563  -18.5656  -15.2740 C   0  0  0  0  0  0  0  0  0  0  0  0
   19.1158  -18.2984  -15.6932 N   0  0  0  0  0  0  0  0  0  0  0  0
   18.4459  -19.4385  -16.0056 C   0  0  0  0  0  0  0  0  0  0  0  0
   17.1748  -19.6863  -16.4700 C   0  0  0  0  0  0  0  0  0  0  0  0
   16.7773  -20.9803  -16.6965 C   0  0  0  0  0  0  0  0  0  0  0  0
   17.6879  -21.9893  -16.4429 C   0  0  0  0  0  0  0  0  0  0  0  0
   18.9645  -21.7703  -15.9787 C   0  0  0  0  0  0  0  0  0  0  0  0
   19.3377  -20.4603  -15.7597 C   0  0  0  0  0  0  0  0  0  0  0  0
   20.9319  -21.0804  -12.6783 C   0  0  0  0  0  0  0  0  0  0  0  0
   19.8597  -20.3332  -12.2291 O   0  0  0  0  0  0  0  0  0  0  0  0
   20.9495  -22.3069  -12.4261 O   0  0  0  0  0  0  0  0  0  0  0  0
  2  1  1  6
  2  9  1  0
  2  3  1  0
  3  4  1  0
  4  8  1  0
  5  6  1  0
  5  4  2  0
  6  7  1  0
  7  8  2  0
  9 10  2  0
 11 12  1  0
 11  9  1  0
 12 15  1  0
 12 13  1  1
 14 13  1  0
 15 17  1  0
 16 15  2  0
 17 18  1  0
 18 19  1  6
 19 20  1  0
 20 28  1  0
 20 21  2  0
 21 22  1  0
 23 22  1  0
 23 24  2  0
 25 24  1  0
 26 25  2  0
 27 28  2  0
 27 26  1  0
 28 23  1  0
 29 30  1  0
 29 18  1  0
 31 29  2  0
M  END
$$$$
