GNN.pdb
     RDKit          3D

 21 20  0  0  1  0  0  0  0  0999 V2000
    9.2574  -18.6828   16.4788 N   0  0  0  0  0  0  0  0  0  0  0  0
    8.2820  -18.1013   17.3858 C   0  0  0  0  0  0  0  0  0  0  0  0
    8.8860  -17.0705   18.2649 C   0  0  0  0  0  0  0  0  0  0  0  0
   10.1344  -17.0357   18.3206 O   0  0  0  0  0  0  0  0  0  0  0  0
    6.3992  -12.5498   19.1842 N   0  0  0  0  0  0  0  0  0  0  0  0
    7.6693  -13.2149   19.2972 C   0  0  0  0  0  0  0  0  0  0  0  0
    8.5642  -12.9504   18.4501 O   0  0  0  0  0  0  0  0  0  0  0  0
    7.8322  -14.1708   20.4122 C   0  0  0  0  0  0  0  0  0  0  0  0
    8.6862  -15.3641   20.0562 C   0  0  2  0  0  0  0  0  0  0  0  0
    8.1035  -16.1564   19.0158 N   0  0  0  0  0  0  0  0  0  0  0  0
    9.0030  -16.1231   21.2754 C   0  0  0  0  0  0  0  0  0  0  0  0
    8.1807  -16.9675   21.6933 O   0  0  0  0  0  0  0  0  0  0  0  0
   12.4798  -20.1154   23.2081 N   0  0  0  0  0  0  0  0  0  0  0  0
   11.3427  -19.3014   23.3844 C   0  0  0  0  0  0  0  0  0  0  0  0
   10.7101  -19.4419   24.4726 O   0  0  0  0  0  0  0  0  0  0  0  0
   10.8228  -18.3043   22.4294 C   0  0  0  0  0  0  0  0  0  0  0  0
   10.5992  -16.9479   23.0531 C   0  0  2  0  0  0  0  0  0  0  0  0
   10.1952  -15.9782   22.0418 N   0  0  0  0  0  0  0  0  0  0  0  0
   11.8714  -16.4634   23.6185 C   0  0  0  0  0  0  0  0  0  0  0  0
   12.3451  -16.7208   24.8904 O   0  0  0  0  0  0  0  0  0  0  0  0
   12.6124  -15.7361   22.8670 O   0  0  0  0  0  0  0  0  0  0  0  0
  1  2  1  0
  2  3  1  0
  3  4  2  0
  5  6  1  0
  6  8  1  0
  7  6  2  0
  9  8  1  1
 10  9  1  0
 10  3  1  0
 11  9  1  0
 11 18  1  0
 12 11  2  0
 13 14  1  0
 14 16  1  0
 14 15  2  0
 17 16  1  6
 17 18  1  0
 17 19  1  0
 19 21  2  0
 19 20  1  0
M  END
$$$$
