GNN.pdb
     RDKit          3D

 21 20  0  0  1  0  0  0  0  0999 V2000
    4.3545  -18.6279   20.9961 N   0  0  0  0  0  0  0  0  0  0  0  0
    4.5786  -17.2832   21.5000 C   0  0  0  0  0  0  0  0  0  0  0  0
    5.9396  -16.7889   21.1782 C   0  0  0  0  0  0  0  0  0  0  0  0
    6.8065  -17.6501   20.9144 O   0  0  0  0  0  0  0  0  0  0  0  0
    6.9286  -12.1878   18.5993 N   0  0  0  0  0  0  0  0  0  0  0  0
    7.4454  -13.4432   19.0738 C   0  0  0  0  0  0  0  0  0  0  0  0
    7.6344  -14.3694   18.2402 O   0  0  0  0  0  0  0  0  0  0  0  0
    7.7200  -13.5547   20.5214 C   0  0  0  0  0  0  0  0  0  0  0  0
    7.6218  -14.9690   21.0410 C   0  0  2  0  0  0  0  0  0  0  0  0
    6.2647  -15.4084   21.1636 N   0  0  0  0  0  0  0  0  0  0  0  0
    8.4014  -15.0921   22.2819 C   0  0  0  0  0  0  0  0  0  0  0  0
    7.8799  -14.7376   23.3618 O   0  0  0  0  0  0  0  0  0  0  0  0
   11.5870  -16.8183   26.1163 N   0  0  0  0  0  0  0  0  0  0  0  0
   10.3744  -17.3470   25.6299 C   0  0  0  0  0  0  0  0  0  0  0  0
    9.8455  -18.2716   26.3151 O   0  0  0  0  0  0  0  0  0  0  0  0
    9.6638  -16.9269   24.4071 C   0  0  0  0  0  0  0  0  0  0  0  0
   10.3942  -15.8529   23.6378 C   0  0  2  0  0  0  0  0  0  0  0  0
    9.7325  -15.5934   22.3646 N   0  0  0  0  0  0  0  0  0  0  0  0
   11.7521  -16.3293   23.3188 C   0  0  0  0  0  0  0  0  0  0  0  0
   12.8011  -16.4488   24.2097 O   0  0  0  0  0  0  0  0  0  0  0  0
   11.9895  -16.6663   22.1051 O   0  0  0  0  0  0  0  0  0  0  0  0
  1  2  1  0
  2  3  1  0
  3  4  2  0
  5  6  1  0
  6  8  1  0
  7  6  2  0
  9  8  1  1
 10  9  1  0
 10  3  1  0
 11  9  1  0
 11 18  1  0
 12 11  2  0
 13 14  1  0
 14 16  1  0
 14 15  2  0
 17 16  1  6
 17 18  1  0
 17 19  1  0
 19 21  2  0
 19 20  1  0
M  END
$$$$
