GNN.pdb
     RDKit          3D

 21 20  0  0  1  0  0  0  0  0999 V2000
    1.5210  -22.3080   23.0748 N   0  0  0  0  0  0  0  0  0  0  0  0
    2.0952  -20.9747   23.0052 C   0  0  0  0  0  0  0  0  0  0  0  0
    3.5753  -21.0112   22.9141 C   0  0  0  0  0  0  0  0  0  0  0  0
    4.1508  -21.9852   23.4461 O   0  0  0  0  0  0  0  0  0  0  0  0
    8.4258  -20.4831   20.3227 N   0  0  0  0  0  0  0  0  0  0  0  0
    7.8341  -19.3968   21.0561 C   0  0  0  0  0  0  0  0  0  0  0  0
    8.5961  -18.5708   21.6267 O   0  0  0  0  0  0  0  0  0  0  0  0
    6.3583  -19.3291   21.0861 C   0  0  0  0  0  0  0  0  0  0  0  0
    5.7542  -19.9935   22.3000 C   0  0  2  0  0  0  0  0  0  0  0  0
    4.3231  -20.0001   22.2584 N   0  0  0  0  0  0  0  0  0  0  0  0
    6.3111  -19.3890   23.5195 C   0  0  0  0  0  0  0  0  0  0  0  0
    5.6041  -18.5960   24.1790 O   0  0  0  0  0  0  0  0  0  0  0  0
    8.7239  -20.8417   28.3020 N   0  0  0  0  0  0  0  0  0  0  0  0
    7.6765  -20.0705   27.7589 C   0  0  0  0  0  0  0  0  0  0  0  0
    7.1219  -19.2411   28.5389 O   0  0  0  0  0  0  0  0  0  0  0  0
    7.1687  -20.1342   26.3752 C   0  0  0  0  0  0  0  0  0  0  0  0
    7.9940  -19.3250   25.4042 C   0  0  2  0  0  0  0  0  0  0  0  0
    7.6187  -19.6341   24.0295 N   0  0  0  0  0  0  0  0  0  0  0  0
    9.4120  -19.7005   25.5496 C   0  0  0  0  0  0  0  0  0  0  0  0
   10.2773  -19.2436   26.5248 O   0  0  0  0  0  0  0  0  0  0  0  0
    9.8942  -20.5270   24.6968 O   0  0  0  0  0  0  0  0  0  0  0  0
  1  2  1  0
  2  3  1  0
  3  4  2  0
  5  6  1  0
  6  8  1  0
  7  6  2  0
  9  8  1  6
 10  9  1  0
 10  3  1  0
 11  9  1  0
 11 18  1  0
 12 11  2  0
 13 14  1  0
 14 16  1  0
 14 15  2  0
 17 16  1  1
 17 18  1  0
 17 19  1  0
 19 21  2  0
 19 20  1  0
M  END
$$$$
