GNN.pdb
     RDKit          3D

 21 20  0  0  1  0  0  0  0  0999 V2000
    5.6526  -13.1813   26.4774 N   0  0  0  0  0  0  0  0  0  0  0  0
    6.4761  -12.6465   25.4060 C   0  0  0  0  0  0  0  0  0  0  0  0
    6.9927  -13.7149   24.5161 C   0  0  0  0  0  0  0  0  0  0  0  0
    6.7366  -14.8946   24.8410 O   0  0  0  0  0  0  0  0  0  0  0  0
    7.7443  -12.2232   19.9325 N   0  0  0  0  0  0  0  0  0  0  0  0
    7.7295  -13.5900   20.3796 C   0  0  0  0  0  0  0  0  0  0  0  0
    6.7797  -14.3326   20.0124 O   0  0  0  0  0  0  0  0  0  0  0  0
    8.8432  -14.0272   21.2468 C   0  0  0  0  0  0  0  0  0  0  0  0
    8.3927  -14.4805   22.6149 C   0  0  2  0  0  0  0  0  0  0  0  0
    7.7436  -13.4345   23.3459 N   0  0  0  0  0  0  0  0  0  0  0  0
    9.5249  -15.0906   23.3281 C   0  0  0  0  0  0  0  0  0  0  0  0
   10.4343  -14.3515   23.7645 O   0  0  0  0  0  0  0  0  0  0  0  0
   10.5884  -17.1685   28.4238 N   0  0  0  0  0  0  0  0  0  0  0  0
   10.9331  -17.1503   27.0573 C   0  0  0  0  0  0  0  0  0  0  0  0
   12.0170  -17.7234   26.7399 O   0  0  0  0  0  0  0  0  0  0  0  0
   10.1550  -16.5334   25.9660 C   0  0  0  0  0  0  0  0  0  0  0  0
   10.5794  -17.0057   24.5965 C   0  0  2  0  0  0  0  0  0  0  0  0
    9.6807  -16.4856   23.5728 N   0  0  0  0  0  0  0  0  0  0  0  0
   10.4767  -18.4752   24.5417 C   0  0  0  0  0  0  0  0  0  0  0  0
   11.4067  -19.3731   25.0288 O   0  0  0  0  0  0  0  0  0  0  0  0
    9.4307  -18.9738   23.9938 O   0  0  0  0  0  0  0  0  0  0  0  0
  1  2  1  0
  2  3  1  0
  3  4  2  0
  5  6  1  0
  6  8  1  0
  7  6  2  0
  9  8  1  6
 10  9  1  0
 10  3  1  0
 11  9  1  0
 11 18  1  0
 12 11  2  0
 13 14  1  0
 14 16  1  0
 14 15  2  0
 17 16  1  1
 17 18  1  0
 17 19  1  0
 19 21  2  0
 19 20  1  0
M  END
$$$$
