GNN.pdb
     RDKit          3D

 21 20  0  0  1  0  0  0  0  0999 V2000
   11.7042  -18.4833   16.3378 N   0  0  0  0  0  0  0  0  0  0  0  0
   10.4726  -18.0663   16.9870 C   0  0  0  0  0  0  0  0  0  0  0  0
   10.5538  -16.6734   17.4904 C   0  0  0  0  0  0  0  0  0  0  0  0
   11.6821  -16.1352   17.4857 O   0  0  0  0  0  0  0  0  0  0  0  0
    9.6162  -11.9611   18.9844 N   0  0  0  0  0  0  0  0  0  0  0  0
    8.2994  -12.5393   18.9849 C   0  0  0  0  0  0  0  0  0  0  0  0
    7.3123  -11.7872   19.2051 O   0  0  0  0  0  0  0  0  0  0  0  0
    8.2008  -13.9904   18.7237 C   0  0  0  0  0  0  0  0  0  0  0  0
    9.5418  -14.6528   18.5169 C   0  0  2  0  0  0  0  0  0  0  0  0
    9.4176  -15.9655   17.9591 N   0  0  0  0  0  0  0  0  0  0  0  0
   10.3100  -14.6092   19.7702 C   0  0  0  0  0  0  0  0  0  0  0  0
   10.6690  -13.4997   20.2217 O   0  0  0  0  0  0  0  0  0  0  0  0
   10.8898  -15.5519   25.3469 N   0  0  0  0  0  0  0  0  0  0  0  0
   11.1906  -16.3395   24.2174 C   0  0  0  0  0  0  0  0  0  0  0  0
   12.1360  -17.1725   24.3446 O   0  0  0  0  0  0  0  0  0  0  0  0
   10.5114  -16.2892   22.9087 C   0  0  0  0  0  0  0  0  0  0  0  0
   11.3467  -15.6378   21.8332 C   0  0  2  0  0  0  0  0  0  0  0  0
   10.6906  -15.7490   20.5357 N   0  0  0  0  0  0  0  0  0  0  0  0
   12.6295  -16.3550   21.7206 C   0  0  0  0  0  0  0  0  0  0  0  0
   13.7304  -16.1833   22.5374 O   0  0  0  0  0  0  0  0  0  0  0  0
   12.7419  -17.2199   20.7814 O   0  0  0  0  0  0  0  0  0  0  0  0
  1  2  1  0
  2  3  1  0
  3  4  2  0
  5  6  1  0
  6  8  1  0
  7  6  2  0
  9  8  1  1
 10  9  1  0
 10  3  1  0
 11  9  1  0
 11 18  1  0
 12 11  2  0
 13 14  1  0
 14 16  1  0
 14 15  2  0
 17 16  1  1
 17 18  1  0
 17 19  1  0
 19 21  2  0
 19 20  1  0
M  END
$$$$
