GNN.pdb
     RDKit          3D

 21 20  0  0  1  0  0  0  0  0999 V2000
    5.7968  -22.7510   19.5469 N   0  0  0  0  0  0  0  0  0  0  0  0
    6.0394  -22.2846   20.9019 C   0  0  0  0  0  0  0  0  0  0  0  0
    5.9730  -20.8061   21.0009 C   0  0  0  0  0  0  0  0  0  0  0  0
    6.9330  -20.1635   20.5232 O   0  0  0  0  0  0  0  0  0  0  0  0
    2.2156  -19.0706   20.1275 N   0  0  0  0  0  0  0  0  0  0  0  0
    2.4218  -19.0265   21.5500 C   0  0  0  0  0  0  0  0  0  0  0  0
    1.6731  -19.7217   22.2881 O   0  0  0  0  0  0  0  0  0  0  0  0
    3.5100  -18.1588   22.0465 C   0  0  0  0  0  0  0  0  0  0  0  0
    4.8880  -18.7090   21.7663 C   0  0  2  0  0  0  0  0  0  0  0  0
    4.8809  -20.1315   21.6043 N   0  0  0  0  0  0  0  0  0  0  0  0
    5.8261  -18.2319   22.7935 C   0  0  0  0  0  0  0  0  0  0  0  0
    6.0089  -17.0014   22.9212 O   0  0  0  0  0  0  0  0  0  0  0  0
    6.3459  -15.2002   25.1832 N   0  0  0  0  0  0  0  0  0  0  0  0
    7.1627  -16.2643   25.6159 C   0  0  0  0  0  0  0  0  0  0  0  0
    8.3349  -15.9619   25.9882 O   0  0  0  0  0  0  0  0  0  0  0  0
    6.7845  -17.6889   25.6794 C   0  0  0  0  0  0  0  0  0  0  0  0
    7.5035  -18.5380   24.6592 C   0  0  2  0  0  0  0  0  0  0  0  0
    6.5634  -19.0694   23.6794 N   0  0  0  0  0  0  0  0  0  0  0  0
    8.1062  -19.6987   25.3390 C   0  0  0  0  0  0  0  0  0  0  0  0
    9.0157  -19.6495   26.3778 O   0  0  0  0  0  0  0  0  0  0  0  0
    7.7593  -20.8648   24.9356 O   0  0  0  0  0  0  0  0  0  0  0  0
  1  2  1  0
  2  3  1  0
  3  4  2  0
  5  6  1  0
  6  8  1  0
  7  6  2  0
  9  8  1  1
 10  9  1  0
 10  3  1  0
 11  9  1  0
 11 18  1  0
 12 11  2  0
 13 14  1  0
 14 16  1  0
 14 15  2  0
 17 16  1  1
 17 18  1  0
 17 19  1  0
 19 21  2  0
 19 20  1  0
M  END
$$$$
