GNN.pdb
     RDKit          3D

 21 20  0  0  1  0  0  0  0  0999 V2000
   13.9366  -22.8054   21.9288 N   0  0  0  0  0  0  0  0  0  0  0  0
   13.1576  -23.1169   20.7421 C   0  0  0  0  0  0  0  0  0  0  0  0
   12.7301  -21.8932   20.0210 C   0  0  0  0  0  0  0  0  0  0  0  0
   13.5039  -21.4551   19.1422 O   0  0  0  0  0  0  0  0  0  0  0  0
   10.1242  -18.5514   17.5458 N   0  0  0  0  0  0  0  0  0  0  0  0
    9.1483  -19.0130   18.4959 C   0  0  0  0  0  0  0  0  0  0  0  0
    7.9352  -18.7369   18.2944 O   0  0  0  0  0  0  0  0  0  0  0  0
    9.6469  -19.7866   19.6520 C   0  0  0  0  0  0  0  0  0  0  0  0
   11.1352  -20.0371   19.6061 C   0  0  2  0  0  0  0  0  0  0  0  0
   11.5049  -21.2347   20.2982 N   0  0  0  0  0  0  0  0  0  0  0  0
   11.8500  -18.8380   20.0687 C   0  0  0  0  0  0  0  0  0  0  0  0
   11.5250  -17.7231   19.6047 O   0  0  0  0  0  0  0  0  0  0  0  0
   10.9505  -15.8401   24.5254 N   0  0  0  0  0  0  0  0  0  0  0  0
   11.9450  -16.3029   23.6402 C   0  0  0  0  0  0  0  0  0  0  0  0
   13.0659  -15.7157   23.6923 O   0  0  0  0  0  0  0  0  0  0  0  0
   11.8073  -17.4021   22.6658 C   0  0  0  0  0  0  0  0  0  0  0  0
   13.1033  -17.7423   21.9707 C   0  0  2  0  0  0  0  0  0  0  0  0
   12.9069  -18.8341   21.0242 N   0  0  0  0  0  0  0  0  0  0  0  0
   14.0743  -18.2204   22.9714 C   0  0  0  0  0  0  0  0  0  0  0  0
   15.2613  -17.6012   23.3118 O   0  0  0  0  0  0  0  0  0  0  0  0
   13.7989  -19.3102   23.5875 O   0  0  0  0  0  0  0  0  0  0  0  0
  1  2  1  0
  2  3  1  0
  3  4  2  0
  5  6  1  0
  6  8  1  0
  7  6  2  0
  9  8  1  1
 10  9  1  0
 10  3  1  0
 11  9  1  0
 11 18  1  0
 12 11  2  0
 13 14  1  0
 14 16  1  0
 14 15  2  0
 17 16  1  1
 17 18  1  0
 17 19  1  0
 19 21  2  0
 19 20  1  0
M  END
$$$$
