GNN.pdb
     RDKit          3D

 21 20  0  0  1  0  0  0  0  0999 V2000
    8.1058  -19.3827   18.0069 N   0  0  0  0  0  0  0  0  0  0  0  0
    7.4278  -18.5041   18.9452 C   0  0  0  0  0  0  0  0  0  0  0  0
    8.3038  -17.3980   19.4031 C   0  0  0  0  0  0  0  0  0  0  0  0
    9.5263  -17.5099   19.1668 O   0  0  0  0  0  0  0  0  0  0  0  0
    6.5180  -12.4741   19.4236 N   0  0  0  0  0  0  0  0  0  0  0  0
    7.6862  -13.3115   19.4683 C   0  0  0  0  0  0  0  0  0  0  0  0
    8.3497  -13.4753   18.4093 O   0  0  0  0  0  0  0  0  0  0  0  0
    8.0259  -13.9250   20.7689 C   0  0  0  0  0  0  0  0  0  0  0  0
    8.6825  -15.2784   20.6379 C   0  0  2  0  0  0  0  0  0  0  0  0
    7.7998  -16.2571   20.0784 N   0  0  0  0  0  0  0  0  0  0  0  0
    9.2627  -15.6707   21.9311 C   0  0  0  0  0  0  0  0  0  0  0  0
    8.5049  -15.8160   22.9151 O   0  0  0  0  0  0  0  0  0  0  0  0
   10.4204  -19.7256   22.0487 N   0  0  0  0  0  0  0  0  0  0  0  0
   11.1928  -18.6780   22.5897 C   0  0  0  0  0  0  0  0  0  0  0  0
   12.3257  -18.4789   22.0598 O   0  0  0  0  0  0  0  0  0  0  0  0
   10.8090  -17.7936   23.7065 C   0  0  0  0  0  0  0  0  0  0  0  0
   11.1579  -16.3455   23.4612 C   0  0  2  0  0  0  0  0  0  0  0  0
   10.6477  -15.9066   22.1676 N   0  0  0  0  0  0  0  0  0  0  0  0
   12.6244  -16.2073   23.4059 C   0  0  0  0  0  0  0  0  0  0  0  0
   13.3612  -15.8027   22.3097 O   0  0  0  0  0  0  0  0  0  0  0  0
   13.2840  -16.4856   24.4691 O   0  0  0  0  0  0  0  0  0  0  0  0
  1  2  1  0
  2  3  1  0
  3  4  2  0
  5  6  1  0
  6  8  1  0
  7  6  2  0
  9  8  1  1
 10  9  1  0
 10  3  1  0
 11  9  1  0
 11 18  1  0
 12 11  2  0
 13 14  1  0
 14 16  1  0
 14 15  2  0
 17 16  1  6
 17 18  1  0
 17 19  1  0
 19 21  2  0
 19 20  1  0
M  END
$$$$
