GNN.pdb
     RDKit          3D

 21 20  0  0  1  0  0  0  0  0999 V2000
    6.4451  -19.9370   19.0485 N   0  0  0  0  0  0  0  0  0  0  0  0
    5.8361  -18.7959   19.7113 C   0  0  0  0  0  0  0  0  0  0  0  0
    6.7913  -17.6727   19.8737 C   0  0  0  0  0  0  0  0  0  0  0  0
    8.0023  -17.9307   19.7006 O   0  0  0  0  0  0  0  0  0  0  0  0
    7.3741  -11.5358   20.2154 N   0  0  0  0  0  0  0  0  0  0  0  0
    7.8142  -12.9037   20.1578 C   0  0  0  0  0  0  0  0  0  0  0  0
    9.0492  -13.1345   20.0579 O   0  0  0  0  0  0  0  0  0  0  0  0
    6.7724  -13.9498   20.2212 C   0  0  0  0  0  0  0  0  0  0  0  0
    7.3257  -15.3287   20.4904 C   0  0  2  0  0  0  0  0  0  0  0  0
    6.3730  -16.3595   20.2087 N   0  0  0  0  0  0  0  0  0  0  0  0
    7.8730  -15.3810   21.8545 C   0  0  0  0  0  0  0  0  0  0  0  0
    7.0933  -15.5777   22.8121 O   0  0  0  0  0  0  0  0  0  0  0  0
    6.7080  -16.4948   25.2800 N   0  0  0  0  0  0  0  0  0  0  0  0
    8.1014  -16.3113   25.1725 C   0  0  0  0  0  0  0  0  0  0  0  0
    8.6664  -15.7003   26.1271 O   0  0  0  0  0  0  0  0  0  0  0  0
    8.9610  -16.7629   24.0617 C   0  0  0  0  0  0  0  0  0  0  0  0
    9.7966  -15.6530   23.4713 C   0  0  2  0  0  0  0  0  0  0  0  0
    9.2488  -15.2241   22.1898 N   0  0  0  0  0  0  0  0  0  0  0  0
   11.1526  -16.1639   23.2012 C   0  0  0  0  0  0  0  0  0  0  0  0
   11.7792  -16.1935   21.9704 O   0  0  0  0  0  0  0  0  0  0  0  0
   11.8186  -16.6246   24.1948 O   0  0  0  0  0  0  0  0  0  0  0  0
  1  2  1  0
  2  3  1  0
  3  4  2  0
  5  6  1  0
  6  8  1  0
  7  6  2  0
  9  8  1  1
 10  9  1  0
 10  3  1  0
 11  9  1  0
 11 18  1  0
 12 11  2  0
 13 14  1  0
 14 16  1  0
 14 15  2  0
 17 16  1  6
 17 18  1  0
 17 19  1  0
 19 21  2  0
 19 20  1  0
M  END
$$$$
