GNN.pdb
     RDKit          3D

 21 20  0  0  1  0  0  0  0  0999 V2000
    8.5415  -19.1342   17.8275 N   0  0  0  0  0  0  0  0  0  0  0  0
    7.9187  -17.9134   18.3112 C   0  0  0  0  0  0  0  0  0  0  0  0
    8.9048  -16.8198   18.4901 C   0  0  0  0  0  0  0  0  0  0  0  0
   10.1119  -17.1212   18.3682 O   0  0  0  0  0  0  0  0  0  0  0  0
    6.5314  -12.3684   19.2445 N   0  0  0  0  0  0  0  0  0  0  0  0
    7.5250  -13.0518   18.4611 C   0  0  0  0  0  0  0  0  0  0  0  0
    7.1736  -13.5799   17.3720 O   0  0  0  0  0  0  0  0  0  0  0  0
    8.9013  -13.0841   18.9982 C   0  0  0  0  0  0  0  0  0  0  0  0
    9.4970  -14.4712   19.0321 C   0  0  2  0  0  0  0  0  0  0  0  0
    8.5190  -15.4872   18.7854 N   0  0  0  0  0  0  0  0  0  0  0  0
   10.2428  -14.6553   20.2862 C   0  0  0  0  0  0  0  0  0  0  0  0
   11.1329  -13.8303   20.5876 O   0  0  0  0  0  0  0  0  0  0  0  0
   12.3873  -16.5451   24.7956 N   0  0  0  0  0  0  0  0  0  0  0  0
   10.9820  -16.6374   24.7380 C   0  0  0  0  0  0  0  0  0  0  0  0
   10.3971  -17.0229   25.7930 O   0  0  0  0  0  0  0  0  0  0  0  0
   10.1310  -16.3267   23.5735 C   0  0  0  0  0  0  0  0  0  0  0  0
   10.9237  -15.9564   22.3434 C   0  0  2  0  0  0  0  0  0  0  0  0
   10.0347  -15.7177   21.2125 N   0  0  0  0  0  0  0  0  0  0  0  0
   11.7880  -17.0903   21.9693 C   0  0  0  0  0  0  0  0  0  0  0  0
   11.3592  -18.3300   21.5360 O   0  0  0  0  0  0  0  0  0  0  0  0
   13.0556  -16.9181   22.0500 O   0  0  0  0  0  0  0  0  0  0  0  0
  1  2  1  0
  2  3  1  0
  3  4  2  0
  5  6  1  0
  6  8  1  0
  7  6  2  0
  9  8  1  1
 10  9  1  0
 10  3  1  0
 11  9  1  0
 11 18  1  0
 12 11  2  0
 13 14  1  0
 14 16  1  0
 14 15  2  0
 17 16  1  1
 17 18  1  0
 17 19  1  0
 19 21  2  0
 19 20  1  0
M  END
$$$$
