GNN.pdb
     RDKit          3D

 21 20  0  0  1  0  0  0  0  0999 V2000
    7.4722  -19.3501   19.5536 N   0  0  0  0  0  0  0  0  0  0  0  0
    6.6134  -18.4275   20.2773 C   0  0  0  0  0  0  0  0  0  0  0  0
    7.3855  -17.5499   21.1905 C   0  0  0  0  0  0  0  0  0  0  0  0
    8.5535  -17.9036   21.4617 O   0  0  0  0  0  0  0  0  0  0  0  0
    8.5631  -14.3665   20.5604 N   0  0  0  0  0  0  0  0  0  0  0  0
    7.8076  -13.5247   21.4485 C   0  0  0  0  0  0  0  0  0  0  0  0
    7.6384  -12.3163   21.1330 O   0  0  0  0  0  0  0  0  0  0  0  0
    7.2792  -14.1473   22.6801 C   0  0  0  0  0  0  0  0  0  0  0  0
    7.5411  -15.6322   22.7587 C   0  0  2  0  0  0  0  0  0  0  0  0
    6.8446  -16.3600   21.7414 N   0  0  0  0  0  0  0  0  0  0  0  0
    7.2682  -16.1080   24.1232 C   0  0  0  0  0  0  0  0  0  0  0  0
    6.1254  -16.5351   24.3979 O   0  0  0  0  0  0  0  0  0  0  0  0
    5.8590  -19.5839   24.7668 N   0  0  0  0  0  0  0  0  0  0  0  0
    6.8014  -19.1696   25.7296 C   0  0  0  0  0  0  0  0  0  0  0  0
    6.4879  -19.3525   26.9429 O   0  0  0  0  0  0  0  0  0  0  0  0
    8.1128  -18.5491   25.4611 C   0  0  0  0  0  0  0  0  0  0  0  0
    8.2900  -17.2182   26.1510 C   0  0  2  0  0  0  0  0  0  0  0  0
    8.2156  -16.1265   25.1872 N   0  0  0  0  0  0  0  0  0  0  0  0
    9.6361  -17.1625   26.7492 C   0  0  0  0  0  0  0  0  0  0  0  0
   10.7479  -16.5605   26.1926 O   0  0  0  0  0  0  0  0  0  0  0  0
    9.7981  -17.7212   27.8913 O   0  0  0  0  0  0  0  0  0  0  0  0
  1  2  1  0
  2  3  1  0
  3  4  2  0
  5  6  1  0
  6  8  1  0
  7  6  2  0
  9  8  1  1
 10  9  1  0
 10  3  1  0
 11  9  1  0
 11 18  1  0
 12 11  2  0
 13 14  1  0
 14 16  1  0
 14 15  2  0
 17 16  1  6
 17 18  1  0
 17 19  1  0
 19 21  2  0
 19 20  1  0
M  END
$$$$
