GNN.pdb
     RDKit          3D

 21 20  0  0  1  0  0  0  0  0999 V2000
   14.3062  -14.6375   17.9800 N   0  0  0  0  0  0  0  0  0  0  0  0
   12.8614  -14.7618   17.8834 C   0  0  0  0  0  0  0  0  0  0  0  0
   12.1869  -14.4090   19.1566 C   0  0  0  0  0  0  0  0  0  0  0  0
   12.8983  -14.3795   20.1842 O   0  0  0  0  0  0  0  0  0  0  0  0
    7.2652  -12.6666   18.4935 N   0  0  0  0  0  0  0  0  0  0  0  0
    8.0306  -13.6611   19.1958 C   0  0  0  0  0  0  0  0  0  0  0  0
    7.9781  -14.8547   18.7944 O   0  0  0  0  0  0  0  0  0  0  0  0
    8.8319  -13.2035   20.3500 C   0  0  0  0  0  0  0  0  0  0  0  0
   10.1484  -13.9299   20.4890 C   0  0  2  0  0  0  0  0  0  0  0  0
   10.8014  -14.1143   19.2283 N   0  0  0  0  0  0  0  0  0  0  0  0
    9.9446  -15.1770   21.2414 C   0  0  0  0  0  0  0  0  0  0  0  0
    9.0702  -15.9821   20.8530 O   0  0  0  0  0  0  0  0  0  0  0  0
    9.7743  -19.3111   20.2891 N   0  0  0  0  0  0  0  0  0  0  0  0
   10.3279  -18.9891   21.5447 C   0  0  0  0  0  0  0  0  0  0  0  0
   10.0123  -19.7433   22.5119 O   0  0  0  0  0  0  0  0  0  0  0  0
   11.2376  -17.8653   21.8385 C   0  0  0  0  0  0  0  0  0  0  0  0
   10.7015  -16.9312   22.8962 C   0  0  2  0  0  0  0  0  0  0  0  0
   10.6750  -15.5590   22.4036 N   0  0  0  0  0  0  0  0  0  0  0  0
   11.6111  -16.9461   24.0561 C   0  0  0  0  0  0  0  0  0  0  0  0
   12.6577  -16.0723   24.2787 O   0  0  0  0  0  0  0  0  0  0  0  0
   11.4196  -17.8495   24.9449 O   0  0  0  0  0  0  0  0  0  0  0  0
  1  2  1  0
  2  3  1  0
  3  4  2  0
  5  6  1  0
  6  8  1  0
  7  6  2  0
  9  8  1  6
 10  9  1  0
 10  3  1  0
 11  9  1  0
 11 18  1  0
 12 11  2  0
 13 14  1  0
 14 16  1  0
 14 15  2  0
 17 16  1  6
 17 18  1  0
 17 19  1  0
 19 21  2  0
 19 20  1  0
M  END
$$$$
