GNN.pdb
     RDKit          3D

 21 20  0  0  1  0  0  0  0  0999 V2000
    8.4569  -14.8899   13.3467 N   0  0  0  0  0  0  0  0  0  0  0  0
    8.5686  -15.7863   14.4852 C   0  0  0  0  0  0  0  0  0  0  0  0
    9.1990  -15.1246   15.6536 C   0  0  0  0  0  0  0  0  0  0  0  0
   10.1564  -14.3557   15.4195 O   0  0  0  0  0  0  0  0  0  0  0  0
    8.0438  -12.4474   18.8317 N   0  0  0  0  0  0  0  0  0  0  0  0
    7.8619  -13.5763   19.7040 C   0  0  0  0  0  0  0  0  0  0  0  0
    7.0997  -13.4503   20.6998 O   0  0  0  0  0  0  0  0  0  0  0  0
    8.5913  -14.8154   19.3631 C   0  0  0  0  0  0  0  0  0  0  0  0
    9.3979  -14.7034   18.0915 C   0  0  2  0  0  0  0  0  0  0  0  0
    8.7525  -15.3388   16.9827 N   0  0  0  0  0  0  0  0  0  0  0  0
   10.7680  -15.1792   18.3349 C   0  0  0  0  0  0  0  0  0  0  0  0
   11.0334  -16.3854   18.1392 O   0  0  0  0  0  0  0  0  0  0  0  0
   16.0844  -15.4179   18.7228 N   0  0  0  0  0  0  0  0  0  0  0  0
   15.5856  -14.1409   18.3950 C   0  0  0  0  0  0  0  0  0  0  0  0
   16.4439  -13.2568   18.1023 O   0  0  0  0  0  0  0  0  0  0  0  0
   14.1669  -13.7381   18.3574 C   0  0  0  0  0  0  0  0  0  0  0  0
   13.2285  -14.8348   18.7995 C   0  0  2  0  0  0  0  0  0  0  0  0
   11.8478  -14.3659   18.7849 N   0  0  0  0  0  0  0  0  0  0  0  0
   13.5366  -15.1974   20.1946 C   0  0  0  0  0  0  0  0  0  0  0  0
   12.6816  -15.0767   21.2730 O   0  0  0  0  0  0  0  0  0  0  0  0
   14.7031  -15.6695   20.4380 O   0  0  0  0  0  0  0  0  0  0  0  0
  1  2  1  0
  2  3  1  0
  3  4  2  0
  5  6  1  0
  6  8  1  0
  7  6  2  0
  9  8  1  1
 10  9  1  0
 10  3  1  0
 11  9  1  0
 11 18  1  0
 12 11  2  0
 13 14  1  0
 14 16  1  0
 14 15  2  0
 17 16  1  1
 17 18  1  0
 17 19  1  0
 19 21  2  0
 19 20  1  0
M  END
$$$$
