GPN.pdb
     RDKit          3D

 20 20  0  0  1  0  0  0  0  0999 V2000
   24.2384  -14.1991  -18.2730 N   0  0  0  0  0  0  0  0  0  0  0  0
   25.0809  -12.9885  -18.1009 C   0  0  0  0  0  0  0  0  0  0  0  0
   24.4729  -12.1313  -17.0789 C   0  0  0  0  0  0  0  0  0  0  0  0
   23.1899  -12.1499  -17.0500 O   0  0  0  0  0  0  0  0  0  0  0  0
   25.1218  -11.3068  -16.1513 N   0  0  0  0  0  0  0  0  0  0  0  0
   26.5088  -11.6966  -15.6989 C   0  0  0  0  0  0  0  0  0  0  0  0
   27.2132  -10.3854  -15.9380 C   0  0  0  0  0  0  0  0  0  0  0  0
   26.1797   -9.3229  -15.6538 C   0  0  0  0  0  0  0  0  0  0  0  0
   24.8974  -10.1527  -15.3841 C   0  0  1  0  0  0  0  0  0  0  0  0
   23.7366   -9.3109  -15.5346 C   0  0  0  0  0  0  0  0  0  0  0  0
   23.0786   -9.0430  -14.4595 O   0  0  0  0  0  0  0  0  0  0  0  0
   20.4572   -5.5511  -16.5621 N   0  0  0  0  0  0  0  0  0  0  0  0
   21.7022   -5.4070  -15.8559 C   0  0  0  0  0  0  0  0  0  0  0  0
   21.8545   -4.2812  -15.2810 O   0  0  0  0  0  0  0  0  0  0  0  0
   22.6861   -6.4950  -15.8278 C   0  0  0  0  0  0  0  0  0  0  0  0
   22.1972   -7.6619  -16.6644 C   0  0  2  0  0  0  0  0  0  0  0  0
   23.2056   -8.7187  -16.6942 N   0  0  0  0  0  0  0  0  0  0  0  0
   21.7270   -7.2918  -17.9913 C   0  0  0  0  0  0  0  0  0  0  0  0
   22.5064   -7.5510  -19.1149 O   0  0  0  0  0  0  0  0  0  0  0  0
   20.6250   -6.7326  -18.1961 O   0  0  0  0  0  0  0  0  0  0  0  0
  2  1  1  0
  3  4  2  0
  3  2  1  0
  5  3  1  0
  6  5  1  0
  7  8  1  0
  7  6  1  0
  8  9  1  0
  9 10  1  6
  9  5  1  0
 10 11  2  0
 12 13  1  0
 13 14  2  0
 13 15  1  0
 16 15  1  6
 17 10  1  0
 17 16  1  0
 18 19  1  0
 18 16  1  0
 20 18  2  0
M  END
$$$$
