GPN.pdb
     RDKit          3D

 20 20  0  0  1  0  0  0  0  0999 V2000
   27.9901  -21.1828  -14.9156 N   0  0  0  0  0  0  0  0  0  0  0  0
   27.2675  -20.5246  -13.7977 C   0  0  0  0  0  0  0  0  0  0  0  0
   26.0690  -21.3079  -13.4838 C   0  0  0  0  0  0  0  0  0  0  0  0
   25.4572  -21.7932  -14.5023 O   0  0  0  0  0  0  0  0  0  0  0  0
   25.5241  -21.5774  -12.2221 N   0  0  0  0  0  0  0  0  0  0  0  0
   26.4363  -21.5031  -11.0210 C   0  0  0  0  0  0  0  0  0  0  0  0
   25.6024  -20.6027  -10.1455 C   0  0  0  0  0  0  0  0  0  0  0  0
   24.1701  -20.9532  -10.4671 C   0  0  0  0  0  0  0  0  0  0  0  0
   24.3169  -21.9743  -11.6253 C   0  0  1  0  0  0  0  0  0  0  0  0
   23.0702  -22.0740  -12.3426 C   0  0  0  0  0  0  0  0  0  0  0  0
   22.8609  -23.1742  -12.9799 O   0  0  0  0  0  0  0  0  0  0  0  0
   17.6605  -22.8117  -10.8302 N   0  0  0  0  0  0  0  0  0  0  0  0
   18.4833  -22.1269  -11.7914 C   0  0  0  0  0  0  0  0  0  0  0  0
   17.9041  -21.8765  -12.8972 O   0  0  0  0  0  0  0  0  0  0  0  0
   19.8708  -21.7668  -11.4791 C   0  0  0  0  0  0  0  0  0  0  0  0
   20.6451  -21.5160  -12.7590 C   0  0  2  0  0  0  0  0  0  0  0  0
   22.0230  -21.1415  -12.4498 N   0  0  0  0  0  0  0  0  0  0  0  0
   19.9999  -20.5889  -13.6772 C   0  0  0  0  0  0  0  0  0  0  0  0
   20.3116  -19.2328  -13.6471 O   0  0  0  0  0  0  0  0  0  0  0  0
   19.1488  -20.9451  -14.5244 O   0  0  0  0  0  0  0  0  0  0  0  0
  2  1  1  0
  3  4  2  0
  3  2  1  0
  5  3  1  0
  6  5  1  0
  7  8  1  0
  7  6  1  0
  8  9  1  0
  9 10  1  6
  9  5  1  0
 10 11  2  0
 12 13  1  0
 13 14  2  0
 13 15  1  0
 16 15  1  1
 17 10  1  0
 17 16  1  0
 18 19  1  0
 18 16  1  0
 20 18  2  0
M  END
$$$$
