GPN.pdb
     RDKit          3D

 20 20  0  0  1  0  0  0  0  0999 V2000
   28.8923  -18.4936  -16.7380 N   0  0  0  0  0  0  0  0  0  0  0  0
   29.2390  -18.6048  -15.2984 C   0  0  0  0  0  0  0  0  0  0  0  0
   28.4464  -19.6850  -14.7037 C   0  0  0  0  0  0  0  0  0  0  0  0
   27.3219  -19.9115  -15.2794 O   0  0  0  0  0  0  0  0  0  0  0  0
   28.7699  -20.4795  -13.5968 N   0  0  0  0  0  0  0  0  0  0  0  0
   30.1539  -21.0799  -13.5303 C   0  0  0  0  0  0  0  0  0  0  0  0
   30.5352  -20.6428  -12.1388 C   0  0  0  0  0  0  0  0  0  0  0  0
   29.2478  -20.6603  -11.3514 C   0  0  0  0  0  0  0  0  0  0  0  0
   28.1881  -21.0023  -12.4309 C   0  0  1  0  0  0  0  0  0  0  0  0
   26.8785  -20.6271  -11.9586 C   0  0  0  0  0  0  0  0  0  0  0  0
   26.6714  -19.3677  -11.7812 O   0  0  0  0  0  0  0  0  0  0  0  0
   22.0096  -19.9045  -10.5579 N   0  0  0  0  0  0  0  0  0  0  0  0
   22.0628  -21.0648  -11.4066 C   0  0  0  0  0  0  0  0  0  0  0  0
   20.9285  -21.5847  -11.6600 O   0  0  0  0  0  0  0  0  0  0  0  0
   23.3422  -21.5720  -11.9149 C   0  0  0  0  0  0  0  0  0  0  0  0
   24.4937  -20.9077  -11.1845 C   0  0  2  0  0  0  0  0  0  0  0  0
   25.7680  -21.4378  -11.6638 N   0  0  0  0  0  0  0  0  0  0  0  0
   24.3791  -20.9373   -9.7336 C   0  0  0  0  0  0  0  0  0  0  0  0
   23.7481  -19.8999   -9.0535 O   0  0  0  0  0  0  0  0  0  0  0  0
   24.8295  -21.8705   -9.0300 O   0  0  0  0  0  0  0  0  0  0  0  0
  2  1  1  0
  3  4  2  0
  3  2  1  0
  5  3  1  0
  6  5  1  0
  7  8  1  0
  7  6  1  0
  8  9  1  0
  9 10  1  1
  9  5  1  0
 10 11  2  0
 12 13  1  0
 13 14  2  0
 13 15  1  0
 16 15  1  6
 17 10  1  0
 17 16  1  0
 18 19  1  0
 18 16  1  0
 20 18  2  0
M  END
$$$$
