GPN.pdb
     RDKit          3D

 20 20  0  0  1  0  0  0  0  0999 V2000
   25.7155  -15.5354  -18.0396 N   0  0  0  0  0  0  0  0  0  0  0  0
   26.2067  -14.1340  -18.0502 C   0  0  0  0  0  0  0  0  0  0  0  0
   25.4847  -13.3727  -17.0266 C   0  0  0  0  0  0  0  0  0  0  0  0
   24.2394  -13.6621  -16.9144 O   0  0  0  0  0  0  0  0  0  0  0  0
   25.9902  -12.3809  -16.1767 N   0  0  0  0  0  0  0  0  0  0  0  0
   27.3356  -12.6128  -15.5316 C   0  0  0  0  0  0  0  0  0  0  0  0
   28.0015  -11.3109  -15.8979 C   0  0  0  0  0  0  0  0  0  0  0  0
   26.8959  -10.2837  -15.8872 C   0  0  0  0  0  0  0  0  0  0  0  0
   25.6309  -11.1415  -15.6236 C   0  0  1  0  0  0  0  0  0  0  0  0
   24.4563  -10.4047  -16.0189 C   0  0  0  0  0  0  0  0  0  0  0  0
   23.9806  -10.6668  -17.1874 O   0  0  0  0  0  0  0  0  0  0  0  0
   19.8773   -8.2215  -16.4468 N   0  0  0  0  0  0  0  0  0  0  0  0
   20.1252   -9.6259  -16.2578 C   0  0  0  0  0  0  0  0  0  0  0  0
   19.1164  -10.3725  -16.4725 O   0  0  0  0  0  0  0  0  0  0  0  0
   21.4481  -10.1123  -15.8504 C   0  0  0  0  0  0  0  0  0  0  0  0
   22.4154   -8.9506  -15.7266 C   0  0  2  0  0  0  0  0  0  0  0  0
   23.7304   -9.4314  -15.3096 N   0  0  0  0  0  0  0  0  0  0  0  0
   21.9290   -7.8513  -14.9056 C   0  0  0  0  0  0  0  0  0  0  0  0
   21.3163   -6.7482  -15.4928 O   0  0  0  0  0  0  0  0  0  0  0  0
   22.0307   -7.8318  -13.6573 O   0  0  0  0  0  0  0  0  0  0  0  0
  2  1  1  0
  3  4  2  0
  3  2  1  0
  5  3  1  0
  6  5  1  0
  7  8  1  0
  7  6  1  0
  8  9  1  0
  9 10  1  6
  9  5  1  0
 10 11  2  0
 12 13  1  0
 13 14  2  0
 13 15  1  0
 16 15  1  1
 17 10  1  0
 17 16  1  0
 18 19  1  0
 18 16  1  0
 20 18  2  0
M  END
$$$$
