GPN.pdb
     RDKit          3D

 20 20  0  0  1  0  0  0  0  0999 V2000
   28.0408  -34.5962   -6.5204 N   0  0  0  0  0  0  0  0  0  0  0  0
   29.3077  -33.9729   -6.0604 C   0  0  0  0  0  0  0  0  0  0  0  0
   29.9806  -34.8943   -5.1401 C   0  0  0  0  0  0  0  0  0  0  0  0
   29.2045  -35.4998   -4.3165 O   0  0  0  0  0  0  0  0  0  0  0  0
   31.3492  -35.1797   -5.0571 N   0  0  0  0  0  0  0  0  0  0  0  0
   32.1336  -35.2896   -6.3427 C   0  0  0  0  0  0  0  0  0  0  0  0
   33.2696  -34.3570   -6.0076 C   0  0  0  0  0  0  0  0  0  0  0  0
   33.4889  -34.5172   -4.5230 C   0  0  0  0  0  0  0  0  0  0  0  0
   32.3396  -35.4714   -4.1058 C   0  0  1  0  0  0  0  0  0  0  0  0
   32.1273  -35.3790   -2.6827 C   0  0  0  0  0  0  0  0  0  0  0  0
   31.2193  -34.5530   -2.2903 O   0  0  0  0  0  0  0  0  0  0  0  0
   31.3490  -36.0754    2.3117 N   0  0  0  0  0  0  0  0  0  0  0  0
   30.4236  -36.3810    1.2535 C   0  0  0  0  0  0  0  0  0  0  0  0
   29.2445  -36.6556    1.6478 O   0  0  0  0  0  0  0  0  0  0  0  0
   30.8484  -36.3654   -0.1507 C   0  0  0  0  0  0  0  0  0  0  0  0
   32.3190  -36.0068   -0.2467 C   0  0  2  0  0  0  0  0  0  0  0  0
   32.7641  -36.0702   -1.6367 N   0  0  0  0  0  0  0  0  0  0  0  0
   33.1786  -36.7577    0.6568 C   0  0  0  0  0  0  0  0  0  0  0  0
   33.6907  -37.9956    0.2791 O   0  0  0  0  0  0  0  0  0  0  0  0
   33.4988  -36.3478    1.7962 O   0  0  0  0  0  0  0  0  0  0  0  0
  2  1  1  0
  3  4  2  0
  3  2  1  0
  5  3  1  0
  6  5  1  0
  7  8  1  0
  7  6  1  0
  8  9  1  0
  9 10  1  1
  9  5  1  0
 10 11  2  0
 12 13  1  0
 13 14  2  0
 13 15  1  0
 16 15  1  6
 17 10  1  0
 17 16  1  0
 18 19  1  0
 18 16  1  0
 20 18  2  0
M  END
$$$$
