GPN.pdb
     RDKit          3D

 20 20  0  0  1  0  0  0  0  0999 V2000
   25.5685  -22.0549  -18.1631 N   0  0  0  0  0  0  0  0  0  0  0  0
   26.0167  -20.8132  -17.4832 C   0  0  0  0  0  0  0  0  0  0  0  0
   26.1553  -21.0836  -16.0492 C   0  0  0  0  0  0  0  0  0  0  0  0
   25.1318  -21.6294  -15.4998 O   0  0  0  0  0  0  0  0  0  0  0  0
   27.2559  -20.8145  -15.2260 N   0  0  0  0  0  0  0  0  0  0  0  0
   28.6391  -20.9845  -15.8072 C   0  0  0  0  0  0  0  0  0  0  0  0
   29.2227  -19.6481  -15.4251 C   0  0  0  0  0  0  0  0  0  0  0  0
   28.5771  -19.2962  -14.1070 C   0  0  0  0  0  0  0  0  0  0  0  0
   27.5568  -20.4468  -13.9049 C   0  0  1  0  0  0  0  0  0  0  0  0
   26.5595  -20.0452  -12.9443 C   0  0  0  0  0  0  0  0  0  0  0  0
   25.8207  -19.0408  -13.2697 O   0  0  0  0  0  0  0  0  0  0  0  0
   22.3879  -19.9015  -10.1641 N   0  0  0  0  0  0  0  0  0  0  0  0
   22.5461  -20.7559  -11.3106 C   0  0  0  0  0  0  0  0  0  0  0  0
   21.4780  -21.3396  -11.6840 O   0  0  0  0  0  0  0  0  0  0  0  0
   23.8507  -20.9114  -11.9637 C   0  0  0  0  0  0  0  0  0  0  0  0
   24.9567  -20.4437  -11.0371 C   0  0  2  0  0  0  0  0  0  0  0  0
   26.2566  -20.5957  -11.6863 N   0  0  0  0  0  0  0  0  0  0  0  0
   24.9156  -21.0372   -9.7085 C   0  0  0  0  0  0  0  0  0  0  0  0
   24.3682  -20.3360   -8.6381 O   0  0  0  0  0  0  0  0  0  0  0  0
   25.3588  -22.1810   -9.4554 O   0  0  0  0  0  0  0  0  0  0  0  0
  2  1  1  0
  3  4  2  0
  3  2  1  0
  5  3  1  0
  6  5  1  0
  7  8  1  0
  7  6  1  0
  8  9  1  0
  9 10  1  6
  9  5  1  0
 10 11  2  0
 12 13  1  0
 13 14  2  0
 13 15  1  0
 16 15  1  6
 17 10  1  0
 17 16  1  0
 18 19  1  0
 18 16  1  0
 20 18  2  0
M  END
$$$$
