GPN.pdb
     RDKit          3D

 20 20  0  0  1  0  0  0  0  0999 V2000
   28.5047  -18.7527  -15.4174 N   0  0  0  0  0  0  0  0  0  0  0  0
   27.8098  -18.7254  -14.1053 C   0  0  0  0  0  0  0  0  0  0  0  0
   26.6427  -19.6099  -14.1705 C   0  0  0  0  0  0  0  0  0  0  0  0
   25.9224  -19.4791  -15.2247 O   0  0  0  0  0  0  0  0  0  0  0  0
   26.2306  -20.5602  -13.2280 N   0  0  0  0  0  0  0  0  0  0  0  0
   27.2927  -21.3415  -12.4920 C   0  0  0  0  0  0  0  0  0  0  0  0
   26.8149  -21.1187  -11.0797 C   0  0  0  0  0  0  0  0  0  0  0  0
   25.3101  -21.0553  -11.1760 C   0  0  0  0  0  0  0  0  0  0  0  0
   25.0591  -21.1303  -12.7047 C   0  0  1  0  0  0  0  0  0  0  0  0
   23.7356  -20.6416  -13.0017 C   0  0  0  0  0  0  0  0  0  0  0  0
   23.4147  -19.5045  -12.4874 O   0  0  0  0  0  0  0  0  0  0  0  0
   19.9117  -18.2802  -16.1422 N   0  0  0  0  0  0  0  0  0  0  0  0
   19.9938  -19.6782  -15.8130 C   0  0  0  0  0  0  0  0  0  0  0  0
   18.8715  -20.2787  -15.7809 O   0  0  0  0  0  0  0  0  0  0  0  0
   21.2867  -20.3172  -15.5437 C   0  0  0  0  0  0  0  0  0  0  0  0
   21.4448  -20.5681  -14.0562 C   0  0  2  0  0  0  0  0  0  0  0  0
   22.7238  -21.2210  -13.7878 N   0  0  0  0  0  0  0  0  0  0  0  0
   20.3187  -21.2567  -13.4423 C   0  0  0  0  0  0  0  0  0  0  0  0
   19.2761  -20.5345  -12.8693 O   0  0  0  0  0  0  0  0  0  0  0  0
   20.2236  -22.5046  -13.3928 O   0  0  0  0  0  0  0  0  0  0  0  0
  2  1  1  0
  3  4  2  0
  3  2  1  0
  5  3  1  0
  6  5  1  0
  7  8  1  0
  7  6  1  0
  8  9  1  0
  9 10  1  1
  9  5  1  0
 10 11  2  0
 12 13  1  0
 13 14  2  0
 13 15  1  0
 16 15  1  6
 17 10  1  0
 17 16  1  0
 18 19  1  0
 18 16  1  0
 20 18  2  0
M  END
$$$$
