GPN.pdb
     RDKit          3D

 20 20  0  0  1  0  0  0  0  0999 V2000
   36.6406  -28.2027    2.8746 N   0  0  0  0  0  0  0  0  0  0  0  0
   37.0241  -26.7686    2.9146 C   0  0  0  0  0  0  0  0  0  0  0  0
   36.8676  -26.2760    4.2863 C   0  0  0  0  0  0  0  0  0  0  0  0
   35.7506  -26.5732    4.8442 O   0  0  0  0  0  0  0  0  0  0  0  0
   37.7803  -25.5280    5.0405 N   0  0  0  0  0  0  0  0  0  0  0  0
   39.2537  -25.7948    4.8456 C   0  0  0  0  0  0  0  0  0  0  0  0
   39.7229  -24.3800    4.6201 C   0  0  0  0  0  0  0  0  0  0  0  0
   38.8251  -23.5233    5.4790 C   0  0  0  0  0  0  0  0  0  0  0  0
   37.8097  -24.5492    6.0465 C   0  0  1  0  0  0  0  0  0  0  0  0
   36.6357  -23.8573    6.5175 C   0  0  0  0  0  0  0  0  0  0  0  0
   35.7186  -23.6223    5.6433 O   0  0  0  0  0  0  0  0  0  0  0  0
   31.6592  -23.9525    8.8655 N   0  0  0  0  0  0  0  0  0  0  0  0
   32.6103  -23.1959    8.0958 C   0  0  0  0  0  0  0  0  0  0  0  0
   32.2182  -22.0279    7.7748 O   0  0  0  0  0  0  0  0  0  0  0  0
   33.9133  -23.7646    7.7335 C   0  0  0  0  0  0  0  0  0  0  0  0
   35.0283  -22.8338    8.1709 C   0  0  2  0  0  0  0  0  0  0  0  0
   36.3268  -23.3977    7.8100 N   0  0  0  0  0  0  0  0  0  0  0  0
   34.9565  -22.4283    9.5671 C   0  0  0  0  0  0  0  0  0  0  0  0
   34.4510  -21.1790    9.9149 O   0  0  0  0  0  0  0  0  0  0  0  0
   35.3354  -23.1575   10.5124 O   0  0  0  0  0  0  0  0  0  0  0  0
  2  1  1  0
  3  4  2  0
  3  2  1  0
  5  3  1  0
  6  5  1  0
  7  8  1  0
  7  6  1  0
  8  9  1  0
  9 10  1  6
  9  5  1  0
 10 11  2  0
 12 13  1  0
 13 14  2  0
 13 15  1  0
 16 15  1  1
 17 10  1  0
 17 16  1  0
 18 19  1  0
 18 16  1  0
 20 18  2  0
M  END
$$$$
