GPN.pdb
     RDKit          3D

 20 20  0  0  1  0  0  0  0  0999 V2000
   27.7829  -18.2151  -15.6851 N   0  0  0  0  0  0  0  0  0  0  0  0
   27.4005  -18.4222  -14.2652 C   0  0  0  0  0  0  0  0  0  0  0  0
   26.3594  -19.4521  -14.2018 C   0  0  0  0  0  0  0  0  0  0  0  0
   25.4157  -19.3217  -15.0619 O   0  0  0  0  0  0  0  0  0  0  0  0
   26.2777  -20.5390  -13.3224 N   0  0  0  0  0  0  0  0  0  0  0  0
   27.5617  -21.2115  -12.8991 C   0  0  0  0  0  0  0  0  0  0  0  0
   27.3547  -21.1990  -11.4059 C   0  0  0  0  0  0  0  0  0  0  0  0
   25.8669  -21.3610  -11.2109 C   0  0  0  0  0  0  0  0  0  0  0  0
   25.3236  -21.3304  -12.6633 C   0  0  1  0  0  0  0  0  0  0  0  0
   23.9141  -21.0274  -12.6457 C   0  0  0  0  0  0  0  0  0  0  0  0
   23.5881  -19.8338  -12.2859 O   0  0  0  0  0  0  0  0  0  0  0  0
   19.8106  -19.0976  -15.2216 N   0  0  0  0  0  0  0  0  0  0  0  0
   20.2726  -19.2716  -13.8704 C   0  0  0  0  0  0  0  0  0  0  0  0
   19.4372  -18.9153  -12.9780 O   0  0  0  0  0  0  0  0  0  0  0  0
   21.6052  -19.8183  -13.5912 C   0  0  0  0  0  0  0  0  0  0  0  0
   21.5214  -21.3194  -13.3905 C   0  0  2  0  0  0  0  0  0  0  0  0
   22.8192  -21.8460  -12.9749 N   0  0  0  0  0  0  0  0  0  0  0  0
   20.9524  -22.0433  -14.5180 C   0  0  0  0  0  0  0  0  0  0  0  0
   19.7182  -22.6758  -14.4013 O   0  0  0  0  0  0  0  0  0  0  0  0
   21.5233  -22.1389  -15.6288 O   0  0  0  0  0  0  0  0  0  0  0  0
  2  1  1  0
  3  4  2  0
  3  2  1  0
  5  3  1  0
  6  5  1  0
  7  8  1  0
  7  6  1  0
  8  9  1  0
  9 10  1  1
  9  5  1  0
 10 11  2  0
 12 13  1  0
 13 14  2  0
 13 15  1  0
 16 15  1  6
 17 10  1  0
 17 16  1  0
 18 19  1  0
 18 16  1  0
 20 18  2  0
M  END
$$$$
