GPN.pdb
     RDKit          3D

 20 20  0  0  1  0  0  0  0  0999 V2000
   18.9166  -12.4475  -16.7943 N   0  0  0  0  0  0  0  0  0  0  0  0
   19.4487  -11.1212  -17.1982 C   0  0  0  0  0  0  0  0  0  0  0  0
   20.0579  -10.4807  -16.0290 C   0  0  0  0  0  0  0  0  0  0  0  0
   19.4168  -10.6404  -14.9286 O   0  0  0  0  0  0  0  0  0  0  0  0
   21.2359   -9.7248  -15.9791 N   0  0  0  0  0  0  0  0  0  0  0  0
   22.3961  -10.1551  -16.8445 C   0  0  0  0  0  0  0  0  0  0  0  0
   22.6960   -8.8368  -17.5114 C   0  0  0  0  0  0  0  0  0  0  0  0
   22.3767   -7.7870  -16.4753 C   0  0  0  0  0  0  0  0  0  0  0  0
   21.7884   -8.6222  -15.3083 C   0  0  1  0  0  0  0  0  0  0  0  0
   21.0311   -7.7628  -14.4327 C   0  0  0  0  0  0  0  0  0  0  0  0
   19.9870   -7.2032  -14.9398 O   0  0  0  0  0  0  0  0  0  0  0  0
   18.6858   -5.0217  -10.8145 N   0  0  0  0  0  0  0  0  0  0  0  0
   19.3431   -6.1217  -10.1607 C   0  0  0  0  0  0  0  0  0  0  0  0
   19.0744   -6.2345   -8.9213 O   0  0  0  0  0  0  0  0  0  0  0  0
   20.2413   -7.0145  -10.9015 C   0  0  0  0  0  0  0  0  0  0  0  0
   20.4075   -6.5219  -12.3264 C   0  0  2  0  0  0  0  0  0  0  0  0
   21.2550   -7.4410  -13.0823 N   0  0  0  0  0  0  0  0  0  0  0  0
   20.8399   -5.1361  -12.4342 C   0  0  0  0  0  0  0  0  0  0  0  0
   19.9173   -4.1260  -12.6904 O   0  0  0  0  0  0  0  0  0  0  0  0
   22.0339   -4.7795  -12.3078 O   0  0  0  0  0  0  0  0  0  0  0  0
  2  1  1  0
  3  4  2  0
  3  2  1  0
  5  3  1  0
  6  5  1  0
  7  8  1  0
  7  6  1  0
  8  9  1  0
  9 10  1  6
  9  5  1  0
 10 11  2  0
 12 13  1  0
 13 14  2  0
 13 15  1  0
 16 15  1  1
 17 10  1  0
 17 16  1  0
 18 19  1  0
 18 16  1  0
 20 18  2  0
M  END
$$$$
