GPN.pdb
     RDKit          3D

 20 20  0  0  1  0  0  0  0  0999 V2000
   14.5596  -13.0003  -15.7483 N   0  0  0  0  0  0  0  0  0  0  0  0
   15.5728  -11.9582  -16.0523 C   0  0  0  0  0  0  0  0  0  0  0  0
   16.1469  -11.4759  -14.7928 C   0  0  0  0  0  0  0  0  0  0  0  0
   15.3510  -11.5106  -13.7866 O   0  0  0  0  0  0  0  0  0  0  0  0
   17.4399  -10.9867  -14.5690 N   0  0  0  0  0  0  0  0  0  0  0  0
   18.5872  -11.6449  -15.2976 C   0  0  0  0  0  0  0  0  0  0  0  0
   19.2393  -10.4140  -15.8740 C   0  0  0  0  0  0  0  0  0  0  0  0
   19.0143   -9.3296  -14.8487 C   0  0  0  0  0  0  0  0  0  0  0  0
   18.1185  -10.0318  -13.7952 C   0  0  1  0  0  0  0  0  0  0  0  0
   17.4500   -9.0394  -12.9907 C   0  0  0  0  0  0  0  0  0  0  0  0
   16.4912   -8.3916  -13.5577 O   0  0  0  0  0  0  0  0  0  0  0  0
   14.8903   -6.9091   -8.3098 N   0  0  0  0  0  0  0  0  0  0  0  0
   16.2506   -6.7939   -8.7636 C   0  0  0  0  0  0  0  0  0  0  0  0
   16.8010   -5.6764   -8.5001 O   0  0  0  0  0  0  0  0  0  0  0  0
   16.9090   -7.8994   -9.4684 C   0  0  0  0  0  0  0  0  0  0  0  0
   16.9061   -7.6404  -10.9629 C   0  0  2  0  0  0  0  0  0  0  0  0
   17.6813   -8.6676  -11.6544 N   0  0  0  0  0  0  0  0  0  0  0  0
   17.2976   -6.2892  -11.3371 C   0  0  0  0  0  0  0  0  0  0  0  0
   18.5903   -6.0252  -11.7802 O   0  0  0  0  0  0  0  0  0  0  0  0
   16.5177   -5.3105  -11.2832 O   0  0  0  0  0  0  0  0  0  0  0  0
  2  1  1  0
  3  4  2  0
  3  2  1  0
  5  3  1  0
  6  5  1  0
  7  8  1  0
  7  6  1  0
  8  9  1  0
  9 10  1  6
  9  5  1  0
 10 11  2  0
 12 13  1  0
 13 14  2  0
 13 15  1  0
 16 15  1  1
 17 10  1  0
 17 16  1  0
 18 19  1  0
 18 16  1  0
 20 18  2  0
M  END
$$$$
