GPN.pdb
     RDKit          3D

 20 20  0  0  1  0  0  0  0  0999 V2000
   17.6486  -13.1416  -18.0212 N   0  0  0  0  0  0  0  0  0  0  0  0
   18.5895  -12.0600  -18.4084 C   0  0  0  0  0  0  0  0  0  0  0  0
   19.1534  -11.4666  -17.1925 C   0  0  0  0  0  0  0  0  0  0  0  0
   18.3317  -11.3560  -16.2127 O   0  0  0  0  0  0  0  0  0  0  0  0
   20.4615  -11.0115  -16.9848 N   0  0  0  0  0  0  0  0  0  0  0  0
   21.5981  -11.8221  -17.5604 C   0  0  0  0  0  0  0  0  0  0  0  0
   22.3351  -10.7203  -18.2784 C   0  0  0  0  0  0  0  0  0  0  0  0
   22.1305   -9.4888  -17.4302 C   0  0  0  0  0  0  0  0  0  0  0  0
   21.1609   -9.9872  -16.3270 C   0  0  1  0  0  0  0  0  0  0  0  0
   20.5170   -8.8580  -15.7034 C   0  0  0  0  0  0  0  0  0  0  0  0
   19.6288   -8.2434  -16.4062 O   0  0  0  0  0  0  0  0  0  0  0  0
   18.7416   -9.3583  -11.2660 N   0  0  0  0  0  0  0  0  0  0  0  0
   18.6323   -8.3826  -12.3175 C   0  0  0  0  0  0  0  0  0  0  0  0
   17.6194   -8.5345  -13.0738 O   0  0  0  0  0  0  0  0  0  0  0  0
   19.6301   -7.3175  -12.4676 C   0  0  0  0  0  0  0  0  0  0  0  0
   19.9892   -7.1420  -13.9308 C   0  0  2  0  0  0  0  0  0  0  0  0
   20.7058   -8.3179  -14.4189 N   0  0  0  0  0  0  0  0  0  0  0  0
   20.6771   -5.8951  -14.2329 C   0  0  0  0  0  0  0  0  0  0  0  0
   20.0324   -4.6734  -14.0629 O   0  0  0  0  0  0  0  0  0  0  0  0
   21.8560   -5.8479  -14.6533 O   0  0  0  0  0  0  0  0  0  0  0  0
  2  1  1  0
  3  4  2  0
  3  2  1  0
  5  3  1  0
  6  5  1  0
  7  8  1  0
  7  6  1  0
  8  9  1  0
  9 10  1  6
  9  5  1  0
 10 11  2  0
 12 13  1  0
 13 14  2  0
 13 15  1  0
 16 15  1  1
 17 10  1  0
 17 16  1  0
 18 19  1  0
 18 16  1  0
 20 18  2  0
M  END
$$$$
