ESH.pdb
     RDKit          3D

 26 26  0  0  1  0  0  0  0  0999 V2000
    9.0098  -17.0962   15.9536 N   0  0  0  0  0  0  0  0  0  0  0  0
    7.9754  -16.4880   16.8089 C   0  0  1  0  0  0  0  0  0  0  0  0
    6.9544  -17.5676   17.0364 C   0  0  0  0  0  0  0  0  0  0  0  0
    7.5102  -18.9474   17.0639 C   0  0  0  0  0  0  0  0  0  0  0  0
    7.1345  -19.5791   18.3794 C   0  0  0  0  0  0  0  0  0  0  0  0
    5.9743  -19.4487   18.8508 O   0  0  0  0  0  0  0  0  0  0  0  0
    8.5617  -15.9313   18.0241 C   0  0  0  0  0  0  0  0  0  0  0  0
    9.6934  -16.3008   18.3983 O   0  0  0  0  0  0  0  0  0  0  0  0
    8.0448  -20.3232   19.1167 O   0  0  0  0  0  0  0  0  0  0  0  0
    6.3735  -13.6160   20.7357 O   0  0  0  0  0  0  0  0  0  0  0  0
    7.6611  -13.2309   20.4003 C   0  0  0  0  0  0  0  0  0  0  0  0
    8.5119  -14.3943   19.9404 C   0  0  2  0  0  0  0  0  0  0  0  0
    7.8695  -14.9737   18.7938 N   0  0  0  0  0  0  0  0  0  0  0  0
    8.7448  -15.3752   21.0252 C   0  0  0  0  0  0  0  0  0  0  0  0
    7.9801  -16.3712   21.0983 O   0  0  0  0  0  0  0  0  0  0  0  0
    9.7817  -15.2574   21.9888 N   0  0  0  0  0  0  0  0  0  0  0  0
    9.9330  -16.2203   23.0914 C   0  0  1  0  0  0  0  0  0  0  0  0
   11.3963  -16.2022   23.4631 C   0  0  0  0  0  0  0  0  0  0  0  0
   12.1702  -17.0268   22.4998 C   0  0  0  0  0  0  0  0  0  0  0  0
   11.6452  -18.0272   21.6775 C   0  0  0  0  0  0  0  0  0  0  0  0
   12.6252  -18.5681   20.9338 N   0  0  0  0  0  0  0  0  0  0  0  0
   13.7555  -17.9268   21.2732 C   0  0  0  0  0  0  0  0  0  0  0  0
   13.4898  -16.9992   22.2136 N   0  0  0  0  0  0  0  0  0  0  0  0
    9.0380  -15.8744   24.2156 C   0  0  0  0  0  0  0  0  0  0  0  0
    8.4200  -14.7866   24.2167 O   0  0  0  0  0  0  0  0  0  0  0  0
    8.8673  -16.7348   25.2755 O   0  0  0  0  0  0  0  0  0  0  0  0
  2  1  1  6
  2  7  1  0
  3  2  1  0
  4  3  1  0
  4  5  1  0
  5  9  1  0
  6  5  2  0
  7 13  1  0
  7  8  2  0
 10 11  1  0
 12 11  1  1
 12 14  1  0
 13 12  1  0
 14 15  2  0
 16 14  1  0
 16 17  1  0
 17 24  1  0
 17 18  1  1
 19 18  1  0
 20 19  2  0
 21 22  1  0
 21 20  1  0
 22 23  2  0
 23 19  1  0
 24 26  1  0
 25 24  2  0
M  END
$$$$
