ESH.pdb
     RDKit          3D

 26 26  0  0  1  0  0  0  0  0999 V2000
   13.2631  -15.8783   13.9448 N   0  0  0  0  0  0  0  0  0  0  0  0
   12.6756  -16.3750   15.2015 C   0  0  1  0  0  0  0  0  0  0  0  0
   13.5049  -17.5668   15.5908 C   0  0  0  0  0  0  0  0  0  0  0  0
   13.4568  -18.6955   14.6228 C   0  0  0  0  0  0  0  0  0  0  0  0
   14.1572  -19.8767   15.2431 C   0  0  0  0  0  0  0  0  0  0  0  0
   13.9807  -20.1694   16.4548 O   0  0  0  0  0  0  0  0  0  0  0  0
   12.6128  -15.3164   16.2044 C   0  0  0  0  0  0  0  0  0  0  0  0
   13.5852  -14.5515   16.3679 O   0  0  0  0  0  0  0  0  0  0  0  0
   15.0171  -20.6818   14.5092 O   0  0  0  0  0  0  0  0  0  0  0  0
    9.1548  -14.4833   18.5553 O   0  0  0  0  0  0  0  0  0  0  0  0
   10.1359  -13.5705   18.2042 C   0  0  0  0  0  0  0  0  0  0  0  0
   11.5047  -14.2054   18.0951 C   0  0  2  0  0  0  0  0  0  0  0  0
   11.4641  -15.1366   17.0024 N   0  0  0  0  0  0  0  0  0  0  0  0
   11.9297  -14.8315   19.3681 C   0  0  0  0  0  0  0  0  0  0  0  0
   11.8880  -16.0857   19.4550 O   0  0  0  0  0  0  0  0  0  0  0  0
   12.3819  -14.0987   20.4977 N   0  0  0  0  0  0  0  0  0  0  0  0
   12.7428  -14.7606   21.7616 C   0  0  1  0  0  0  0  0  0  0  0  0
   11.8500  -15.9737   21.8668 C   0  0  0  0  0  0  0  0  0  0  0  0
   12.1580  -16.7183   23.1148 C   0  0  0  0  0  0  0  0  0  0  0  0
   13.0685  -16.3206   24.0975 C   0  0  0  0  0  0  0  0  0  0  0  0
   13.0975  -17.2289   25.0876 N   0  0  0  0  0  0  0  0  0  0  0  0
   12.2228  -18.1893   24.7457 C   0  0  0  0  0  0  0  0  0  0  0  0
   11.6546  -17.8892   23.5615 N   0  0  0  0  0  0  0  0  0  0  0  0
   14.1836  -15.0888   21.7884 C   0  0  0  0  0  0  0  0  0  0  0  0
   14.8242  -15.1999   20.7195 O   0  0  0  0  0  0  0  0  0  0  0  0
   14.8450  -15.2774   22.9800 O   0  0  0  0  0  0  0  0  0  0  0  0
  2  1  1  6
  2  7  1  0
  3  2  1  0
  4  3  1  0
  4  5  1  0
  5  9  1  0
  6  5  2  0
  7 13  1  0
  7  8  2  0
 10 11  1  0
 12 11  1  1
 12 14  1  0
 13 12  1  0
 14 15  2  0
 16 14  1  0
 16 17  1  0
 17 24  1  0
 17 18  1  6
 19 18  1  0
 20 19  2  0
 21 22  1  0
 21 20  1  0
 22 23  2  0
 23 19  1  0
 24 26  1  0
 25 24  2  0
M  END
$$$$
