ESH.pdb
     RDKit          3D

 26 26  0  0  1  0  0  0  0  0999 V2000
    5.9132  -15.3943   19.5828 N   0  0  0  0  0  0  0  0  0  0  0  0
    7.0708  -15.1802   20.4688 C   0  0  1  0  0  0  0  0  0  0  0  0
    7.3744  -13.7102   20.3874 C   0  0  0  0  0  0  0  0  0  0  0  0
    7.6568  -13.2130   19.0139 C   0  0  0  0  0  0  0  0  0  0  0  0
    9.1101  -13.4711   18.7104 C   0  0  0  0  0  0  0  0  0  0  0  0
    9.8720  -13.9738   19.5776 O   0  0  0  0  0  0  0  0  0  0  0  0
    6.7998  -15.6778   21.8139 C   0  0  0  0  0  0  0  0  0  0  0  0
    5.6828  -15.4887   22.3372 O   0  0  0  0  0  0  0  0  0  0  0  0
    9.6612  -13.1674   17.4734 O   0  0  0  0  0  0  0  0  0  0  0  0
    8.6316  -18.9154   23.3933 O   0  0  0  0  0  0  0  0  0  0  0  0
    7.4283  -18.3639   23.8020 C   0  0  0  0  0  0  0  0  0  0  0  0
    7.4753  -16.8530   23.8632 C   0  0  2  0  0  0  0  0  0  0  0  0
    7.7838  -16.3758   22.5441 N   0  0  0  0  0  0  0  0  0  0  0  0
    8.4288  -16.3679   24.8872 C   0  0  0  0  0  0  0  0  0  0  0  0
    9.6010  -16.0932   24.5232 O   0  0  0  0  0  0  0  0  0  0  0  0
    8.0972  -16.1945   26.2575 N   0  0  0  0  0  0  0  0  0  0  0  0
    9.1086  -15.8316   27.2633 C   0  0  1  0  0  0  0  0  0  0  0  0
    8.4210  -14.8937   28.2264 C   0  0  0  0  0  0  0  0  0  0  0  0
    7.7996  -13.7710   27.4779 C   0  0  0  0  0  0  0  0  0  0  0  0
    8.4161  -13.0219   26.4721 C   0  0  0  0  0  0  0  0  0  0  0  0
    7.5664  -12.0876   26.0127 N   0  0  0  0  0  0  0  0  0  0  0  0
    6.4282  -12.2354   26.7105 C   0  0  0  0  0  0  0  0  0  0  0  0
    6.5611  -13.2451   27.5928 N   0  0  0  0  0  0  0  0  0  0  0  0
    9.6583  -17.0400   27.9130 C   0  0  0  0  0  0  0  0  0  0  0  0
    9.2273  -18.1729   27.6033 O   0  0  0  0  0  0  0  0  0  0  0  0
   10.6477  -16.9445   28.8642 O   0  0  0  0  0  0  0  0  0  0  0  0
  2  1  1  6
  2  7  1  0
  3  2  1  0
  4  3  1  0
  4  5  1  0
  5  9  1  0
  6  5  2  0
  7 13  1  0
  7  8  2  0
 10 11  1  0
 12 11  1  6
 12 14  1  0
 13 12  1  0
 14 15  2  0
 16 14  1  0
 16 17  1  0
 17 24  1  0
 17 18  1  1
 19 18  1  0
 20 19  2  0
 21 22  1  0
 21 20  1  0
 22 23  2  0
 23 19  1  0
 24 26  1  0
 25 24  2  0
M  END
$$$$
