ESH.pdb
     RDKit          3D

 26 26  0  0  1  0  0  0  0  0999 V2000
   10.1872  -16.0770   13.2945 N   0  0  0  0  0  0  0  0  0  0  0  0
   11.1287  -16.7548   14.2029 C   0  0  1  0  0  0  0  0  0  0  0  0
   12.4240  -16.8469   13.4455 C   0  0  0  0  0  0  0  0  0  0  0  0
   13.5661  -17.3776   14.2376 C   0  0  0  0  0  0  0  0  0  0  0  0
   14.8011  -17.3233   13.3759 C   0  0  0  0  0  0  0  0  0  0  0  0
   15.9237  -17.0435   13.8724 O   0  0  0  0  0  0  0  0  0  0  0  0
   11.2140  -16.0588   15.4830 C   0  0  0  0  0  0  0  0  0  0  0  0
   11.4831  -14.8408   15.5157 O   0  0  0  0  0  0  0  0  0  0  0  0
   14.7500  -17.5773   12.0124 O   0  0  0  0  0  0  0  0  0  0  0  0
    9.9003  -17.8337   19.0159 O   0  0  0  0  0  0  0  0  0  0  0  0
    9.8812  -16.4684   18.7823 C   0  0  0  0  0  0  0  0  0  0  0  0
   11.0469  -16.0101   17.9338 C   0  0  2  0  0  0  0  0  0  0  0  0
   10.9964  -16.7405   16.6982 N   0  0  0  0  0  0  0  0  0  0  0  0
   12.3405  -16.1619   18.6386 C   0  0  0  0  0  0  0  0  0  0  0  0
   13.0205  -17.1959   18.4137 O   0  0  0  0  0  0  0  0  0  0  0  0
   12.8590  -15.2078   19.5542 N   0  0  0  0  0  0  0  0  0  0  0  0
   14.1112  -15.4379   20.2925 C   0  0  1  0  0  0  0  0  0  0  0  0
   14.7752  -14.0877   20.4183 C   0  0  0  0  0  0  0  0  0  0  0  0
   15.4659  -13.7466   19.1481 C   0  0  0  0  0  0  0  0  0  0  0  0
   15.5525  -14.5685   18.0212 C   0  0  0  0  0  0  0  0  0  0  0  0
   16.2480  -13.9460   17.0544 N   0  0  0  0  0  0  0  0  0  0  0  0
   16.5998  -12.7491   17.5521 C   0  0  0  0  0  0  0  0  0  0  0  0
   16.1332  -12.6223   18.8097 N   0  0  0  0  0  0  0  0  0  0  0  0
   13.8408  -16.0820   21.5950 C   0  0  0  0  0  0  0  0  0  0  0  0
   12.6667  -16.1850   22.0148 O   0  0  0  0  0  0  0  0  0  0  0  0
   14.8664  -16.5779   22.3664 O   0  0  0  0  0  0  0  0  0  0  0  0
  2  1  1  6
  2  7  1  0
  3  2  1  0
  4  3  1  0
  4  5  1  0
  5  9  1  0
  6  5  2  0
  7 13  1  0
  7  8  2  0
 10 11  1  0
 12 11  1  1
 12 14  1  0
 13 12  1  0
 14 15  2  0
 16 14  1  0
 16 17  1  0
 17 24  1  0
 17 18  1  1
 19 18  1  0
 20 19  2  0
 21 22  1  0
 21 20  1  0
 22 23  2  0
 23 19  1  0
 24 26  1  0
 25 24  2  0
M  END
$$$$
