ESH.pdb
     RDKit          3D

 26 26  0  0  1  0  0  0  0  0999 V2000
    4.4447  -18.7928   20.7795 N   0  0  0  0  0  0  0  0  0  0  0  0
    5.7369  -19.1234   21.4057 C   0  0  1  0  0  0  0  0  0  0  0  0
    6.7817  -18.7730   20.3833 C   0  0  0  0  0  0  0  0  0  0  0  0
    6.8537  -17.3260   20.0448 C   0  0  0  0  0  0  0  0  0  0  0  0
    7.8953  -17.1459   18.9709 C   0  0  0  0  0  0  0  0  0  0  0  0
    7.6904  -17.5525   17.7971 O   0  0  0  0  0  0  0  0  0  0  0  0
    5.8841  -18.4474   22.6909 C   0  0  0  0  0  0  0  0  0  0  0  0
    5.1669  -17.4639   22.9657 O   0  0  0  0  0  0  0  0  0  0  0  0
    9.1114  -16.5299   19.2314 O   0  0  0  0  0  0  0  0  0  0  0  0
    8.3661  -19.8664   25.9444 O   0  0  0  0  0  0  0  0  0  0  0  0
    7.0697  -19.3785   25.9557 C   0  0  0  0  0  0  0  0  0  0  0  0
    6.8570  -18.2771   24.9406 C   0  0  2  0  0  0  0  0  0  0  0  0
    6.8300  -18.8862   23.6402 N   0  0  0  0  0  0  0  0  0  0  0  0
    7.8789  -17.2114   25.0548 C   0  0  0  0  0  0  0  0  0  0  0  0
    8.5398  -16.9111   24.0276 O   0  0  0  0  0  0  0  0  0  0  0  0
    8.1571  -16.5079   26.2570 N   0  0  0  0  0  0  0  0  0  0  0  0
    9.3019  -15.5907   26.3753 C   0  0  1  0  0  0  0  0  0  0  0  0
    9.0318  -14.4602   25.4115 C   0  0  0  0  0  0  0  0  0  0  0  0
    7.9164  -13.6212   25.9203 C   0  0  0  0  0  0  0  0  0  0  0  0
    6.6959  -14.0962   26.4076 C   0  0  0  0  0  0  0  0  0  0  0  0
    5.9214  -13.0641   26.7833 N   0  0  0  0  0  0  0  0  0  0  0  0
    6.6319  -11.9502   26.5413 C   0  0  0  0  0  0  0  0  0  0  0  0
    7.8317  -12.2772   26.0227 N   0  0  0  0  0  0  0  0  0  0  0  0
    9.4714  -15.1417   27.7731 C   0  0  0  0  0  0  0  0  0  0  0  0
   10.3257  -14.2726   28.0563 O   0  0  0  0  0  0  0  0  0  0  0  0
    8.6992  -15.6660   28.7839 O   0  0  0  0  0  0  0  0  0  0  0  0
  2  1  1  6
  2  7  1  0
  3  2  1  0
  4  3  1  0
  4  5  1  0
  5  9  1  0
  6  5  2  0
  7 13  1  0
  7  8  2  0
 10 11  1  0
 12 11  1  1
 12 14  1  0
 13 12  1  0
 14 15  2  0
 16 14  1  0
 16 17  1  0
 17 24  1  0
 17 18  1  6
 19 18  1  0
 20 19  2  0
 21 22  1  0
 21 20  1  0
 22 23  2  0
 23 19  1  0
 24 26  1  0
 25 24  2  0
M  END
$$$$
