ESH.pdb
     RDKit          3D

 26 26  0  0  1  0  0  0  0  0999 V2000
   10.0505  -16.6581   19.5544 N   0  0  0  0  0  0  0  0  0  0  0  0
    9.7399  -17.8120   20.4164 C   0  0  1  0  0  0  0  0  0  0  0  0
   11.0312  -18.5686   20.5580 C   0  0  0  0  0  0  0  0  0  0  0  0
   12.2544  -17.7447   20.3620 C   0  0  0  0  0  0  0  0  0  0  0  0
   13.3133  -18.2425   21.3116 C   0  0  0  0  0  0  0  0  0  0  0  0
   13.9085  -17.4504   22.0885 O   0  0  0  0  0  0  0  0  0  0  0  0
    9.1406  -17.3792   21.6749 C   0  0  0  0  0  0  0  0  0  0  0  0
    9.0072  -16.1625   21.9180 O   0  0  0  0  0  0  0  0  0  0  0  0
   13.6711  -19.5822   21.3665 O   0  0  0  0  0  0  0  0  0  0  0  0
    7.3408  -20.0859   24.4632 O   0  0  0  0  0  0  0  0  0  0  0  0
    6.8589  -18.8600   24.0345 C   0  0  0  0  0  0  0  0  0  0  0  0
    7.9654  -17.8607   23.7782 C   0  0  2  0  0  0  0  0  0  0  0  0
    8.7038  -18.3165   22.6336 N   0  0  0  0  0  0  0  0  0  0  0  0
    8.8202  -17.6604   24.9708 C   0  0  0  0  0  0  0  0  0  0  0  0
   10.0024  -18.0884   24.9317 O   0  0  0  0  0  0  0  0  0  0  0  0
    8.3835  -17.0129   26.1572 N   0  0  0  0  0  0  0  0  0  0  0  0
    9.2838  -16.7924   27.3004 C   0  0  1  0  0  0  0  0  0  0  0  0
    8.5239  -15.9154   28.2665 C   0  0  0  0  0  0  0  0  0  0  0  0
    8.0981  -14.6665   27.5840 C   0  0  0  0  0  0  0  0  0  0  0  0
    8.9505  -13.7239   27.0029 C   0  0  0  0  0  0  0  0  0  0  0  0
    8.2295  -12.7199   26.4756 N   0  0  0  0  0  0  0  0  0  0  0  0
    6.9408  -13.0136   26.7142 C   0  0  0  0  0  0  0  0  0  0  0  0
    6.8541  -14.1819   27.3799 N   0  0  0  0  0  0  0  0  0  0  0  0
    9.7099  -18.0799   27.8878 C   0  0  0  0  0  0  0  0  0  0  0  0
    8.9496  -19.0727   27.8476 O   0  0  0  0  0  0  0  0  0  0  0  0
   10.9417  -18.2123   28.4860 O   0  0  0  0  0  0  0  0  0  0  0  0
  2  1  1  6
  2  7  1  0
  3  2  1  0
  4  3  1  0
  4  5  1  0
  5  9  1  0
  6  5  2  0
  7 13  1  0
  7  8  2  0
 10 11  1  0
 12 11  1  1
 12 14  1  0
 13 12  1  0
 14 15  2  0
 16 14  1  0
 16 17  1  0
 17 24  1  0
 17 18  1  1
 19 18  1  0
 20 19  2  0
 21 22  1  0
 21 20  1  0
 22 23  2  0
 23 19  1  0
 24 26  1  0
 25 24  2  0
M  END
$$$$
