ESH.pdb
     RDKit          3D

 26 26  0  0  1  0  0  0  0  0999 V2000
   10.3331  -20.0725   16.9485 N   0  0  0  0  0  0  0  0  0  0  0  0
   11.0039  -18.9683   17.6569 C   0  0  1  0  0  0  0  0  0  0  0  0
   10.6948  -17.7314   16.8603 C   0  0  0  0  0  0  0  0  0  0  0  0
    9.2746  -17.6104   16.4338 C   0  0  0  0  0  0  0  0  0  0  0  0
    9.1310  -16.3423   15.6327 C   0  0  0  0  0  0  0  0  0  0  0  0
   10.1055  -15.5594   15.4818 O   0  0  0  0  0  0  0  0  0  0  0  0
   10.5914  -18.9166   19.0561 C   0  0  0  0  0  0  0  0  0  0  0  0
    9.5122  -19.4342   19.4092 O   0  0  0  0  0  0  0  0  0  0  0  0
    7.9291  -15.9904   15.0347 O   0  0  0  0  0  0  0  0  0  0  0  0
   13.2759  -18.5119   22.0450 O   0  0  0  0  0  0  0  0  0  0  0  0
   12.0016  -19.0303   22.2067 C   0  0  0  0  0  0  0  0  0  0  0  0
   10.9649  -18.2802   21.3996 C   0  0  2  0  0  0  0  0  0  0  0  0
   11.3948  -18.2873   20.0292 N   0  0  0  0  0  0  0  0  0  0  0  0
   10.7357  -16.9138   21.9228 C   0  0  0  0  0  0  0  0  0  0  0  0
   11.5743  -16.0210   21.6369 O   0  0  0  0  0  0  0  0  0  0  0  0
    9.6237  -16.5518   22.7291 N   0  0  0  0  0  0  0  0  0  0  0  0
    9.5070  -15.2185   23.3411 C   0  0  1  0  0  0  0  0  0  0  0  0
    8.0655  -14.8045   23.1670 C   0  0  0  0  0  0  0  0  0  0  0  0
    7.8344  -14.3630   21.7675 C   0  0  0  0  0  0  0  0  0  0  0  0
    8.7995  -14.3155   20.7580 C   0  0  0  0  0  0  0  0  0  0  0  0
    8.2461  -13.8683   19.6179 N   0  0  0  0  0  0  0  0  0  0  0  0
    6.9522  -13.6340   19.8918 C   0  0  0  0  0  0  0  0  0  0  0  0
    6.6976  -13.9291   21.1816 N   0  0  0  0  0  0  0  0  0  0  0  0
    9.9416  -15.2503   24.7533 C   0  0  0  0  0  0  0  0  0  0  0  0
    9.9659  -14.1974   25.4286 O   0  0  0  0  0  0  0  0  0  0  0  0
   10.3253  -16.4292   25.3498 O   0  0  0  0  0  0  0  0  0  0  0  0
  2  1  1  6
  2  7  1  0
  3  2  1  0
  4  3  1  0
  4  5  1  0
  5  9  1  0
  6  5  2  0
  7 13  1  0
  7  8  2  0
 10 11  1  0
 12 11  1  1
 12 14  1  0
 13 12  1  0
 14 15  2  0
 16 14  1  0
 16 17  1  0
 17 24  1  0
 17 18  1  1
 19 18  1  0
 20 19  2  0
 21 22  1  0
 21 20  1  0
 22 23  2  0
 23 19  1  0
 24 26  1  0
 25 24  2  0
M  END
$$$$
