ESH.pdb
     RDKit          3D

 26 26  0  0  1  0  0  0  0  0999 V2000
    7.6158  -14.8338   18.4237 N   0  0  0  0  0  0  0  0  0  0  0  0
    8.5839  -14.6376   19.5171 C   0  0  1  0  0  0  0  0  0  0  0  0
    8.7619  -13.1496   19.6358 C   0  0  0  0  0  0  0  0  0  0  0  0
    9.4306  -12.5126   18.4694 C   0  0  0  0  0  0  0  0  0  0  0  0
   10.7973  -13.1287   18.3172 C   0  0  0  0  0  0  0  0  0  0  0  0
   11.1001  -13.7825   17.2847 O   0  0  0  0  0  0  0  0  0  0  0  0
    8.1370  -15.3019   20.7375 C   0  0  0  0  0  0  0  0  0  0  0  0
    6.9279  -15.2948   21.0464 O   0  0  0  0  0  0  0  0  0  0  0  0
   11.7679  -13.0007   19.3009 O   0  0  0  0  0  0  0  0  0  0  0  0
   10.3953  -18.2441   22.4532 O   0  0  0  0  0  0  0  0  0  0  0  0
    9.0175  -18.1358   22.5465 C   0  0  0  0  0  0  0  0  0  0  0  0
    8.5594  -16.7033   22.7109 C   0  0  2  0  0  0  0  0  0  0  0  0
    9.0520  -15.9594   21.5854 N   0  0  0  0  0  0  0  0  0  0  0  0
    8.9836  -16.1300   24.0088 C   0  0  0  0  0  0  0  0  0  0  0  0
   10.0651  -15.4890   24.0488 O   0  0  0  0  0  0  0  0  0  0  0  0
    8.2405  -16.2615   25.2122 N   0  0  0  0  0  0  0  0  0  0  0  0
    8.7809  -15.8312   26.5118 C   0  0  1  0  0  0  0  0  0  0  0  0
    7.6047  -15.3049   27.2988 C   0  0  0  0  0  0  0  0  0  0  0  0
    7.2459  -13.9456   26.8185 C   0  0  0  0  0  0  0  0  0  0  0  0
    7.9403  -13.2130   25.8521 C   0  0  0  0  0  0  0  0  0  0  0  0
    7.3405  -12.0257   25.6609 N   0  0  0  0  0  0  0  0  0  0  0  0
    6.2829  -11.9985   26.4885 C   0  0  0  0  0  0  0  0  0  0  0  0
    6.2198  -13.1488   27.1872 N   0  0  0  0  0  0  0  0  0  0  0  0
    9.4835  -16.9455   27.1819 C   0  0  0  0  0  0  0  0  0  0  0  0
    9.4377  -18.0993   26.7003 O   0  0  0  0  0  0  0  0  0  0  0  0
   10.1969  -16.7386   28.3400 O   0  0  0  0  0  0  0  0  0  0  0  0
  2  1  1  6
  2  7  1  0
  3  2  1  0
  4  3  1  0
  4  5  1  0
  5  9  1  0
  6  5  2  0
  7 13  1  0
  7  8  2  0
 10 11  1  0
 12 11  1  6
 12 14  1  0
 13 12  1  0
 14 15  2  0
 16 14  1  0
 16 17  1  0
 17 24  1  0
 17 18  1  1
 19 18  1  0
 20 19  2  0
 21 22  1  0
 21 20  1  0
 22 23  2  0
 23 19  1  0
 24 26  1  0
 25 24  2  0
M  END
$$$$
