ESH.pdb
     RDKit          3D

 26 26  0  0  1  0  0  0  0  0999 V2000
   12.3657  -16.7050   20.5321 N   0  0  0  0  0  0  0  0  0  0  0  0
   12.6240  -17.7009   21.5869 C   0  0  1  0  0  0  0  0  0  0  0  0
   14.0769  -17.5461   21.9405 C   0  0  0  0  0  0  0  0  0  0  0  0
   14.4410  -16.2103   22.4850 C   0  0  0  0  0  0  0  0  0  0  0  0
   15.9215  -16.2049   22.7654 C   0  0  0  0  0  0  0  0  0  0  0  0
   16.6106  -15.1677   22.5796 O   0  0  0  0  0  0  0  0  0  0  0  0
   11.6989  -17.5330   22.7034 C   0  0  0  0  0  0  0  0  0  0  0  0
   10.9776  -16.5170   22.7703 O   0  0  0  0  0  0  0  0  0  0  0  0
   16.5781  -17.3335   23.2357 O   0  0  0  0  0  0  0  0  0  0  0  0
   10.3352  -20.7121   24.9303 O   0  0  0  0  0  0  0  0  0  0  0  0
    9.6916  -19.5017   24.7314 C   0  0  0  0  0  0  0  0  0  0  0  0
   10.6431  -18.3262   24.7753 C   0  0  2  0  0  0  0  0  0  0  0  0
   11.6011  -18.5051   23.7203 N   0  0  0  0  0  0  0  0  0  0  0  0
   11.2754  -18.1728   26.1056 C   0  0  0  0  0  0  0  0  0  0  0  0
   12.4752  -18.5271   26.2363 O   0  0  0  0  0  0  0  0  0  0  0  0
   10.6062  -17.6487   27.2436 N   0  0  0  0  0  0  0  0  0  0  0  0
   11.2335  -17.6284   28.5749 C   0  0  1  0  0  0  0  0  0  0  0  0
   10.3821  -16.7145   29.4231 C   0  0  0  0  0  0  0  0  0  0  0  0
   10.3192  -15.3662   28.8027 C   0  0  0  0  0  0  0  0  0  0  0  0
   10.9943  -14.9693   27.6453 C   0  0  0  0  0  0  0  0  0  0  0  0
   10.7106  -13.6851   27.3689 N   0  0  0  0  0  0  0  0  0  0  0  0
    9.8706  -13.2677   28.3303 C   0  0  0  0  0  0  0  0  0  0  0  0
    9.6309  -14.2726   29.1953 N   0  0  0  0  0  0  0  0  0  0  0  0
   11.3485  -18.9970   29.1208 C   0  0  0  0  0  0  0  0  0  0  0  0
   12.2856  -19.2889   29.8965 O   0  0  0  0  0  0  0  0  0  0  0  0
   10.4343  -19.9705   28.7899 O   0  0  0  0  0  0  0  0  0  0  0  0
  2  1  1  6
  2  7  1  0
  3  2  1  0
  4  3  1  0
  4  5  1  0
  5  9  1  0
  6  5  2  0
  7 13  1  0
  7  8  2  0
 10 11  1  0
 12 11  1  1
 12 14  1  0
 13 12  1  0
 14 15  2  0
 16 14  1  0
 16 17  1  0
 17 24  1  0
 17 18  1  1
 19 18  1  0
 20 19  2  0
 21 22  1  0
 21 20  1  0
 22 23  2  0
 23 19  1  0
 24 26  1  0
 25 24  2  0
M  END
$$$$
