RAI.pdb
     RDKit          3D

 25 24  0  0  1  0  0  0  0  0999 V2000
   10.1056  -13.9434   17.9317 N   0  0  0  0  0  0  0  0  0  0  0  0
    9.3098  -13.0171   18.6758 C   0  0  0  0  0  0  0  0  0  0  0  0
    9.8427  -12.0225   19.3084 N   0  0  0  0  0  0  0  0  0  0  0  0
    7.8989  -13.1591   18.7455 N   0  0  0  0  0  0  0  0  0  0  0  0
    7.2588  -14.2582   18.0760 C   0  0  0  0  0  0  0  0  0  0  0  0
    7.7141  -15.5858   18.6782 C   0  0  0  0  0  0  0  0  0  0  0  0
    6.8703  -15.8006   19.9202 C   0  0  0  0  0  0  0  0  0  0  0  0
    7.0609  -17.1952   20.4721 C   0  0  2  0  0  0  0  0  0  0  0  0
    6.0932  -18.0481   19.7867 N   0  0  0  0  0  0  0  0  0  0  0  0
    6.6505  -17.1434   21.9174 C   0  0  0  0  0  0  0  0  0  0  0  0
    5.4459  -16.9579   22.2459 O   0  0  0  0  0  0  0  0  0  0  0  0
    9.2863  -11.3754   19.8941 C   0  0  0  0  0  0  0  0  0  0  0  0
    7.0557  -18.6334   24.9556 C   0  0  1  0  0  0  0  0  0  0  0  0
    7.1746  -17.2574   24.3429 N   0  0  0  0  0  0  0  0  0  0  0  0
    7.5809  -17.2980   22.9675 C   0  0  0  0  0  0  0  0  0  0  0  0
    8.0754  -16.3785   25.0902 O   0  0  0  0  0  0  0  0  0  0  0  0
    9.2736  -16.2683   24.7323 C   0  0  0  0  0  0  0  0  0  0  0  0
    6.2008  -11.7188   27.0015 C   0  0  0  0  0  0  0  0  0  0  0  0
    7.0882  -12.7585   26.3540 C   0  0  2  0  0  0  0  0  0  0  0  0
    7.9205  -13.4736   27.3968 C   0  0  0  0  0  0  0  0  0  0  0  0
    8.9254  -12.5063   27.9648 C   0  0  2  0  0  0  0  0  0  0  0  0
    8.5893  -14.6956   26.8597 N   0  0  0  0  0  0  0  0  0  0  0  0
    7.6874  -15.6154   26.2259 C   0  0  0  0  0  0  0  0  0  0  0  0
    9.3851  -15.3723   27.9389 O   0  0  0  0  0  0  0  0  0  0  0  0
    8.9241  -16.3742   28.5676 O   0  0  0  0  0  0  0  0  0  0  0  0
  2  1  1  0
  2  3  2  0
  4  2  1  0
  5  4  1  0
  6  5  1  0
  7  6  1  0
  8  7  1  0
  8  9  1  6
 10  8  1  0
 10 14  1  0
 11 10  2  0
 13 14  1  0
 13 12  1  6
 15 13  1  0
 15 16  2  0
 18 19  1  0
 18 17  1  0
 19 21  1  0
 19 20  1  1
 21 22  1  6
 21 23  1  0
 22 15  1  0
 23 24  2  0
 23 25  1  0
M  END
$$$$
