RAI.pdb
     RDKit          3D

 25 24  0  0  1  0  0  0  0  0999 V2000
    8.1074  -12.6080   19.6318 N   0  0  0  0  0  0  0  0  0  0  0  0
    8.2462  -13.5395   18.5557 C   0  0  0  0  0  0  0  0  0  0  0  0
    8.6745  -13.1705   17.3922 N   0  0  0  0  0  0  0  0  0  0  0  0
    7.9166  -14.9094   18.7295 N   0  0  0  0  0  0  0  0  0  0  0  0
    7.8008  -15.4524   20.0553 C   0  0  0  0  0  0  0  0  0  0  0  0
    6.3737  -15.2892   20.5742 C   0  0  0  0  0  0  0  0  0  0  0  0
    5.6460  -16.5742   20.2278 C   0  0  0  0  0  0  0  0  0  0  0  0
    6.3028  -17.7654   20.8876 C   0  0  2  0  0  0  0  0  0  0  0  0
    5.4889  -18.9294   20.5461 N   0  0  0  0  0  0  0  0  0  0  0  0
    6.1701  -17.5602   22.3709 C   0  0  0  0  0  0  0  0  0  0  0  0
    5.0782  -17.1855   22.8813 O   0  0  0  0  0  0  0  0  0  0  0  0
    8.8180  -13.8399   16.6159 C   0  0  0  0  0  0  0  0  0  0  0  0
    7.2125  -18.9156   25.4267 C   0  0  1  0  0  0  0  0  0  0  0  0
    7.0982  -17.6102   24.6746 N   0  0  0  0  0  0  0  0  0  0  0  0
    7.2478  -17.7739   23.2572 C   0  0  0  0  0  0  0  0  0  0  0  0
    8.0416  -16.5965   25.1491 O   0  0  0  0  0  0  0  0  0  0  0  0
    9.1390  -16.4449   24.5585 C   0  0  0  0  0  0  0  0  0  0  0  0
    6.5129  -11.7135   26.5037 C   0  0  0  0  0  0  0  0  0  0  0  0
    7.3862  -12.8257   25.9670 C   0  0  2  0  0  0  0  0  0  0  0  0
    8.1835  -13.4641   27.0842 C   0  0  0  0  0  0  0  0  0  0  0  0
    9.2470  -12.4986   27.5367 C   0  0  2  0  0  0  0  0  0  0  0  0
    8.7764  -14.7765   26.6902 N   0  0  0  0  0  0  0  0  0  0  0  0
    7.8049  -15.7430   26.2618 C   0  0  0  0  0  0  0  0  0  0  0  0
    9.6283  -15.3194   27.8017 O   0  0  0  0  0  0  0  0  0  0  0  0
    9.1845  -16.1981   28.6032 O   0  0  0  0  0  0  0  0  0  0  0  0
  2  1  1  0
  2  3  2  0
  4  2  1  0
  5  4  1  0
  6  5  1  0
  7  6  1  0
  8  7  1  0
  8  9  1  6
 10  8  1  0
 10 14  1  0
 11 10  2  0
 13 14  1  0
 13 12  1  6
 15 13  1  0
 15 16  2  0
 18 19  1  0
 18 17  1  0
 19 21  1  0
 19 20  1  1
 21 22  1  6
 21 23  1  0
 22 15  1  0
 23 24  2  0
 23 25  1  0
M  END
$$$$
