RAI.pdb
     RDKit          3D

 25 24  0  0  1  0  0  0  0  0999 V2000
    9.1234  -20.0134   17.9864 N   0  0  0  0  0  0  0  0  0  0  0  0
   10.4627  -20.4551   18.2235 C   0  0  0  0  0  0  0  0  0  0  0  0
   11.1728  -20.9960   17.2871 N   0  0  0  0  0  0  0  0  0  0  0  0
   11.0618  -20.3138   19.5028 N   0  0  0  0  0  0  0  0  0  0  0  0
   10.3378  -19.6651   20.5616 C   0  0  0  0  0  0  0  0  0  0  0  0
    9.9146  -18.2613   20.1343 C   0  0  0  0  0  0  0  0  0  0  0  0
    9.1052  -17.6929   21.2844 C   0  0  0  0  0  0  0  0  0  0  0  0
    8.6203  -16.2960   20.9696 C   0  0  2  0  0  0  0  0  0  0  0  0
    9.5818  -15.7256   20.0293 N   0  0  0  0  0  0  0  0  0  0  0  0
    8.7343  -15.5060   22.2434 C   0  0  0  0  0  0  0  0  0  0  0  0
    9.8431  -15.0355   22.6208 O   0  0  0  0  0  0  0  0  0  0  0  0
   12.1363  -21.3377   17.4488 C   0  0  0  0  0  0  0  0  0  0  0  0
    6.3825  -13.9321   24.7255 C   0  0  1  0  0  0  0  0  0  0  0  0
    7.7247  -14.4289   24.2412 N   0  0  0  0  0  0  0  0  0  0  0  0
    7.6198  -15.2535   23.0719 C   0  0  0  0  0  0  0  0  0  0  0  0
    8.4725  -15.1451   25.2757 O   0  0  0  0  0  0  0  0  0  0  0  0
    8.8169  -16.3365   25.0804 C   0  0  0  0  0  0  0  0  0  0  0  0
   11.6414  -14.1830   30.5826 C   0  0  0  0  0  0  0  0  0  0  0  0
   11.2250  -15.0829   29.4405 C   0  0  2  0  0  0  0  0  0  0  0  0
   10.2368  -14.3760   28.5374 C   0  0  0  0  0  0  0  0  0  0  0  0
    9.0545  -13.9357   29.3597 C   0  0  2  0  0  0  0  0  0  0  0  0
    9.8086  -15.2193   27.3821 N   0  0  0  0  0  0  0  0  0  0  0  0
    8.8516  -14.5793   26.5243 C   0  0  0  0  0  0  0  0  0  0  0  0
    9.3014  -16.5480   27.8651 O   0  0  0  0  0  0  0  0  0  0  0  0
   10.0852  -17.4069   28.3744 O   0  0  0  0  0  0  0  0  0  0  0  0
  2  1  1  0
  2  3  2  0
  4  2  1  0
  5  4  1  0
  6  5  1  0
  7  6  1  0
  8  7  1  0
  8  9  1  6
 10  8  1  0
 10 14  1  0
 11 10  2  0
 13 14  1  0
 13 12  1  6
 15 13  1  0
 15 16  2  0
 18 19  1  0
 18 17  1  0
 19 21  1  0
 19 20  1  6
 21 22  1  1
 21 23  1  0
 22 15  1  0
 23 24  2  0
 23 25  1  0
M  END
$$$$
