RAI.pdb
     RDKit          3D

 25 24  0  0  1  0  0  0  0  0999 V2000
    8.9129  -15.5994   15.7863 N   0  0  0  0  0  0  0  0  0  0  0  0
    8.4075  -14.2929   15.4989 C   0  0  0  0  0  0  0  0  0  0  0  0
    8.2622  -13.8758   14.2830 N   0  0  0  0  0  0  0  0  0  0  0  0
    8.0460  -13.4040   16.5452 N   0  0  0  0  0  0  0  0  0  0  0  0
    8.2846  -13.7774   17.9126 C   0  0  0  0  0  0  0  0  0  0  0  0
    7.4529  -15.0039   18.2819 C   0  0  0  0  0  0  0  0  0  0  0  0
    7.2800  -14.9621   19.7883 C   0  0  0  0  0  0  0  0  0  0  0  0
    7.7348  -16.2564   20.4236 C   0  0  2  0  0  0  0  0  0  0  0  0
    6.9094  -17.3141   19.8459 N   0  0  0  0  0  0  0  0  0  0  0  0
    7.3742  -16.1681   21.8803 C   0  0  0  0  0  0  0  0  0  0  0  0
    6.7865  -15.1524   22.3453 O   0  0  0  0  0  0  0  0  0  0  0  0
    7.9102  -12.9284   14.0598 C   0  0  0  0  0  0  0  0  0  0  0  0
    7.3498  -18.4685   24.8673 C   0  0  2  0  0  0  0  0  0  0  0  0
    7.2761  -17.1311   24.1681 N   0  0  0  0  0  0  0  0  0  0  0  0
    7.6714  -17.2049   22.7909 C   0  0  0  0  0  0  0  0  0  0  0  0
    8.0569  -16.0932   24.8430 O   0  0  0  0  0  0  0  0  0  0  0  0
    9.2791  -15.9689   24.5844 C   0  0  0  0  0  0  0  0  0  0  0  0
    6.0148  -11.2856   27.2375 C   0  0  0  0  0  0  0  0  0  0  0  0
    6.4319  -12.7317   27.0873 C   0  0  2  0  0  0  0  0  0  0  0  0
    7.7885  -12.8292   26.4226 C   0  0  0  0  0  0  0  0  0  0  0  0
    7.6757  -12.3219   25.0092 C   0  0  1  0  0  0  0  0  0  0  0  0
    8.3479  -14.2130   26.4579 N   0  0  0  0  0  0  0  0  0  0  0  0
    7.5227  -15.1858   25.7990 C   0  0  0  0  0  0  0  0  0  0  0  0
    8.6432  -14.6209   27.8729 O   0  0  0  0  0  0  0  0  0  0  0  0
    9.4655  -13.9701   28.5883 O   0  0  0  0  0  0  0  0  0  0  0  0
  2  1  1  0
  2  3  2  0
  4  2  1  0
  5  4  1  0
  6  5  1  0
  7  6  1  0
  8  7  1  0
  8  9  1  6
 10  8  1  0
 10 14  1  0
 11 10  2  0
 13 14  1  0
 13 12  1  6
 15 13  1  0
 15 16  2  0
 18 19  1  0
 18 17  1  0
 19 21  1  0
 19 20  1  1
 21 22  1  6
 21 23  1  0
 22 15  1  0
 23 24  2  0
 23 25  1  0
M  END
$$$$
