RAI.pdb
     RDKit          3D

 25 24  0  0  1  0  0  0  0  0999 V2000
    8.9051  -13.8578   17.8030 N   0  0  0  0  0  0  0  0  0  0  0  0
    8.7888  -12.7802   18.7358 C   0  0  0  0  0  0  0  0  0  0  0  0
    9.6756  -11.8404   18.7982 N   0  0  0  0  0  0  0  0  0  0  0  0
    7.6891  -12.7052   19.6306 N   0  0  0  0  0  0  0  0  0  0  0  0
    6.7941  -13.8229   19.7557 C   0  0  0  0  0  0  0  0  0  0  0  0
    7.5471  -15.0541   20.2554 C   0  0  0  0  0  0  0  0  0  0  0  0
    6.5172  -16.1608   20.3792 C   0  0  0  0  0  0  0  0  0  0  0  0
    7.1331  -17.4139   20.9588 C   0  0  2  0  0  0  0  0  0  0  0  0
    6.3420  -18.5348   20.4573 N   0  0  0  0  0  0  0  0  0  0  0  0
    6.9105  -17.3528   22.4443 C   0  0  0  0  0  0  0  0  0  0  0  0
    5.7839  -17.0427   22.9216 O   0  0  0  0  0  0  0  0  0  0  0  0
    9.5945  -11.0437   19.4540 C   0  0  0  0  0  0  0  0  0  0  0  0
    7.9399  -19.0012   25.4057 C   0  0  1  0  0  0  0  0  0  0  0  0
    7.6946  -17.6466   24.7830 N   0  0  0  0  0  0  0  0  0  0  0  0
    7.9384  -17.6358   23.3692 C   0  0  0  0  0  0  0  0  0  0  0  0
    8.4703  -16.5803   25.4183 O   0  0  0  0  0  0  0  0  0  0  0  0
    9.4458  -16.0755   24.8104 C   0  0  0  0  0  0  0  0  0  0  0  0
    6.1436  -12.3797   27.6547 C   0  0  0  0  0  0  0  0  0  0  0  0
    7.1018  -13.2941   26.9245 C   0  0  2  0  0  0  0  0  0  0  0  0
    8.0948  -13.9063   27.8893 C   0  0  0  0  0  0  0  0  0  0  0  0
    8.9364  -12.8081   28.4839 C   0  0  2  0  0  0  0  0  0  0  0  0
    8.9451  -14.9546   27.2511 N   0  0  0  0  0  0  0  0  0  0  0  0
    8.1969  -16.0545   26.7112 C   0  0  0  0  0  0  0  0  0  0  0  0
    9.9948  -15.4326   28.2133 O   0  0  0  0  0  0  0  0  0  0  0  0
    9.8889  -16.5529   28.8009 O   0  0  0  0  0  0  0  0  0  0  0  0
  2  1  1  0
  2  3  2  0
  4  2  1  0
  5  4  1  0
  6  5  1  0
  7  6  1  0
  8  7  1  0
  8  9  1  6
 10  8  1  0
 10 14  1  0
 11 10  2  0
 13 14  1  0
 13 12  1  6
 15 13  1  0
 15 16  2  0
 18 19  1  0
 18 17  1  0
 19 21  1  0
 19 20  1  1
 21 22  1  6
 21 23  1  0
 22 15  1  0
 23 24  2  0
 23 25  1  0
M  END
$$$$
