RAI.pdb
     RDKit          3D

 25 24  0  0  1  0  0  0  0  0999 V2000
    7.8575  -13.1836   15.9356 N   0  0  0  0  0  0  0  0  0  0  0  0
    8.3480  -14.2525   15.1221 C   0  0  0  0  0  0  0  0  0  0  0  0
    8.2390  -14.2270   13.8333 N   0  0  0  0  0  0  0  0  0  0  0  0
    8.9750  -15.3848   15.7054 N   0  0  0  0  0  0  0  0  0  0  0  0
    9.0129  -15.5211   17.1358 C   0  0  0  0  0  0  0  0  0  0  0  0
    9.1385  -16.9920   17.5268 C   0  0  0  0  0  0  0  0  0  0  0  0
   10.4031  -17.1045   18.3569 C   0  0  0  0  0  0  0  0  0  0  0  0
   10.0808  -17.4403   19.7954 C   0  0  2  0  0  0  0  0  0  0  0  0
    8.9054  -18.3070   19.7654 N   0  0  0  0  0  0  0  0  0  0  0  0
    9.6587  -16.1549   20.4508 C   0  0  0  0  0  0  0  0  0  0  0  0
   10.4907  -15.2311   20.6684 O   0  0  0  0  0  0  0  0  0  0  0  0
    8.6000  -14.9873   13.2309 C   0  0  0  0  0  0  0  0  0  0  0  0
    6.4748  -14.4612   21.5286 C   0  0  2  0  0  0  0  0  0  0  0  0
    7.9585  -14.7415   21.5832 N   0  0  0  0  0  0  0  0  0  0  0  0
    8.3257  -15.9194   20.8511 C   0  0  0  0  0  0  0  0  0  0  0  0
    8.4680  -14.8411   22.9517 O   0  0  0  0  0  0  0  0  0  0  0  0
    9.7064  -14.8179   23.1564 C   0  0  0  0  0  0  0  0  0  0  0  0
    7.5664  -11.6103   27.7178 C   0  0  0  0  0  0  0  0  0  0  0  0
    8.1167  -12.9492   27.2794 C   0  0  2  0  0  0  0  0  0  0  0  0
    7.4989  -13.3752   25.9647 C   0  0  0  0  0  0  0  0  0  0  0  0
    6.0152  -13.5469   26.1569 C   0  0  2  0  0  0  0  0  0  0  0  0
    8.1202  -14.6155   25.4126 N   0  0  0  0  0  0  0  0  0  0  0  0
    7.6441  -14.9661   24.1042 C   0  0  0  0  0  0  0  0  0  0  0  0
    7.9524  -15.7565   26.3749 O   0  0  0  0  0  0  0  0  0  0  0  0
    7.0397  -16.6243   26.2153 O   0  0  0  0  0  0  0  0  0  0  0  0
  2  1  1  0
  2  3  2  0
  4  2  1  0
  5  4  1  0
  6  5  1  0
  7  6  1  0
  8  7  1  0
  8  9  1  6
 10  8  1  0
 10 14  1  0
 11 10  2  0
 13 14  1  0
 13 12  1  6
 15 13  1  0
 15 16  2  0
 18 19  1  0
 18 17  1  0
 19 21  1  0
 19 20  1  6
 21 22  1  1
 21 23  1  0
 22 15  1  0
 23 24  2  0
 23 25  1  0
M  END
$$$$
