RAI.pdb
     RDKit          3D

 25 24  0  0  1  0  0  0  0  0999 V2000
    7.4634  -21.3472   27.2328 N   0  0  0  0  0  0  0  0  0  0  0  0
    6.7841  -20.1385   26.8829 C   0  0  0  0  0  0  0  0  0  0  0  0
    6.4555  -19.2635   27.7774 N   0  0  0  0  0  0  0  0  0  0  0  0
    6.4453  -19.8564   25.5334 N   0  0  0  0  0  0  0  0  0  0  0  0
    6.7602  -20.8097   24.5049 C   0  0  0  0  0  0  0  0  0  0  0  0
    6.3511  -20.2700   23.1360 C   0  0  0  0  0  0  0  0  0  0  0  0
    7.1100  -18.9702   22.9477 C   0  0  0  0  0  0  0  0  0  0  0  0
    6.7228  -18.2980   21.6501 C   0  0  2  0  0  0  0  0  0  0  0  0
    7.1844  -19.1737   20.5758 N   0  0  0  0  0  0  0  0  0  0  0  0
    7.5345  -17.0356   21.5630 C   0  0  0  0  0  0  0  0  0  0  0  0
    8.7943  -17.0748   21.4953 O   0  0  0  0  0  0  0  0  0  0  0  0
    6.0163  -18.3587   27.5333 C   0  0  0  0  0  0  0  0  0  0  0  0
    6.9219  -13.4026   20.8708 C   0  0  1  0  0  0  0  0  0  0  0  0
    7.7178  -14.5623   21.4228 N   0  0  0  0  0  0  0  0  0  0  0  0
    6.9352  -15.7576   21.5528 C   0  0  0  0  0  0  0  0  0  0  0  0
    8.3540  -14.2558   22.7049 O   0  0  0  0  0  0  0  0  0  0  0  0
    9.2277  -13.3563   22.7651 C   0  0  0  0  0  0  0  0  0  0  0  0
    5.5081  -12.6565   26.4373 C   0  0  0  0  0  0  0  0  0  0  0  0
    6.6940  -12.9232   25.5371 C   0  0  2  0  0  0  0  0  0  0  0  0
    7.5988  -13.9741   26.1441 C   0  0  0  0  0  0  0  0  0  0  0  0
    8.2578  -13.3997   27.3703 C   0  0  2  0  0  0  0  0  0  0  0  0
    8.6121  -14.4890   25.1760 N   0  0  0  0  0  0  0  0  0  0  0  0
    8.0503  -14.9179   23.9263 C   0  0  0  0  0  0  0  0  0  0  0  0
    9.4295  -15.5800   25.8066 O   0  0  0  0  0  0  0  0  0  0  0  0
    9.2929  -16.7923   25.4555 O   0  0  0  0  0  0  0  0  0  0  0  0
  2  1  1  0
  2  3  2  0
  4  2  1  0
  5  4  1  0
  6  5  1  0
  7  6  1  0
  8  7  1  0
  8  9  1  6
 10  8  1  0
 10 14  1  0
 11 10  2  0
 13 14  1  0
 13 12  1  6
 15 13  1  0
 15 16  2  0
 18 19  1  0
 18 17  1  0
 19 21  1  0
 19 20  1  6
 21 22  1  6
 21 23  1  0
 22 15  1  0
 23 24  2  0
 23 25  1  0
M  END
$$$$
