RAI.pdb
     RDKit          3D

 25 24  0  0  1  0  0  0  0  0999 V2000
    9.1487  -14.5139   17.8731 N   0  0  0  0  0  0  0  0  0  0  0  0
    8.7090  -13.3534   18.5837 C   0  0  0  0  0  0  0  0  0  0  0  0
    9.1362  -12.1710   18.2791 N   0  0  0  0  0  0  0  0  0  0  0  0
    7.7828  -13.4609   19.6543 N   0  0  0  0  0  0  0  0  0  0  0  0
    6.4998  -14.0685   19.4290 C   0  0  0  0  0  0  0  0  0  0  0  0
    6.5992  -15.5866   19.5633 C   0  0  0  0  0  0  0  0  0  0  0  0
    6.5957  -15.8827   21.0509 C   0  0  0  0  0  0  0  0  0  0  0  0
    6.6655  -17.3707   21.3089 C   0  0  2  0  0  0  0  0  0  0  0  0
    5.4550  -17.9489   20.7308 N   0  0  0  0  0  0  0  0  0  0  0  0
    6.5675  -17.5521   22.7980 C   0  0  0  0  0  0  0  0  0  0  0  0
    5.5096  -17.2599   23.4214 O   0  0  0  0  0  0  0  0  0  0  0  0
    8.8943  -11.3330   18.8364 C   0  0  0  0  0  0  0  0  0  0  0  0
    8.0442  -19.3439   25.6100 C   0  0  1  0  0  0  0  0  0  0  0  0
    7.6145  -18.0304   24.9993 N   0  0  0  0  0  0  0  0  0  0  0  0
    7.6415  -18.0526   23.5651 C   0  0  0  0  0  0  0  0  0  0  0  0
    8.4011  -16.8946   25.4829 O   0  0  0  0  0  0  0  0  0  0  0  0
    9.3732  -16.4794   24.8056 C   0  0  0  0  0  0  0  0  0  0  0  0
    6.3167  -12.3925   27.2398 C   0  0  0  0  0  0  0  0  0  0  0  0
    7.2827  -13.3688   26.6062 C   0  0  2  0  0  0  0  0  0  0  0  0
    8.2203  -13.9428   27.6468 C   0  0  0  0  0  0  0  0  0  0  0  0
    9.1505  -12.8557   28.1166 C   0  0  2  0  0  0  0  0  0  0  0  0
    8.9803  -15.1262   27.1456 N   0  0  0  0  0  0  0  0  0  0  0  0
    8.1423  -16.2027   26.6982 C   0  0  0  0  0  0  0  0  0  0  0  0
    9.9592  -15.5958   28.1835 O   0  0  0  0  0  0  0  0  0  0  0  0
    9.6541  -16.5076   29.0124 O   0  0  0  0  0  0  0  0  0  0  0  0
  2  1  1  0
  2  3  2  0
  4  2  1  0
  5  4  1  0
  6  5  1  0
  7  6  1  0
  8  7  1  0
  8  9  1  6
 10  8  1  0
 10 14  1  0
 11 10  2  0
 13 14  1  0
 13 12  1  6
 15 13  1  0
 15 16  2  0
 18 19  1  0
 18 17  1  0
 19 21  1  0
 19 20  1  1
 21 22  1  6
 21 23  1  0
 22 15  1  0
 23 24  2  0
 23 25  1  0
M  END
$$$$
