RAI.pdb
     RDKit          3D

 25 24  0  0  1  0  0  0  0  0999 V2000
    9.1114  -14.3583   17.2145 N   0  0  0  0  0  0  0  0  0  0  0  0
    8.2595  -13.3034   17.6691 C   0  0  0  0  0  0  0  0  0  0  0  0
    7.5179  -12.6315   16.8493 N   0  0  0  0  0  0  0  0  0  0  0  0
    8.1988  -12.9560   19.0443 N   0  0  0  0  0  0  0  0  0  0  0  0
    8.5006  -13.9442   20.0435 C   0  0  0  0  0  0  0  0  0  0  0  0
    7.9289  -15.3014   19.6390 C   0  0  0  0  0  0  0  0  0  0  0  0
    9.0013  -16.3260   19.9571 C   0  0  0  0  0  0  0  0  0  0  0  0
    8.5690  -17.2320   21.0876 C   0  0  2  0  0  0  0  0  0  0  0  0
    7.1602  -17.5407   20.8559 N   0  0  0  0  0  0  0  0  0  0  0  0
    8.6345  -16.4095   22.3443 C   0  0  0  0  0  0  0  0  0  0  0  0
    9.6703  -15.7506   22.6380 O   0  0  0  0  0  0  0  0  0  0  0  0
    6.9385  -11.8301   17.1549 C   0  0  0  0  0  0  0  0  0  0  0  0
    6.2772  -15.3448   25.0938 C   0  0  2  0  0  0  0  0  0  0  0  0
    7.6259  -15.5395   24.4410 N   0  0  0  0  0  0  0  0  0  0  0  0
    7.5533  -16.3337   23.2485 C   0  0  0  0  0  0  0  0  0  0  0  0
    8.6188  -16.1155   25.3492 O   0  0  0  0  0  0  0  0  0  0  0  0
    9.2171  -17.1709   25.0262 C   0  0  0  0  0  0  0  0  0  0  0  0
   10.5573  -13.0007   29.5289 C   0  0  0  0  0  0  0  0  0  0  0  0
   10.5532  -13.8503   28.2776 C   0  0  2  0  0  0  0  0  0  0  0  0
   10.3448  -15.3091   28.6241 C   0  0  0  0  0  0  0  0  0  0  0  0
   11.5841  -15.8302   29.3027 C   0  0  2  0  0  0  0  0  0  0  0  0
    9.9905  -16.1379   27.4337 N   0  0  0  0  0  0  0  0  0  0  0  0
    8.9701  -15.5557   26.6085 C   0  0  0  0  0  0  0  0  0  0  0  0
    9.6167  -17.5291   27.8587 O   0  0  0  0  0  0  0  0  0  0  0  0
    8.4034  -17.8640   28.0241 O   0  0  0  0  0  0  0  0  0  0  0  0
  2  1  1  0
  2  3  2  0
  4  2  1  0
  5  4  1  0
  6  5  1  0
  7  6  1  0
  8  7  1  0
  8  9  1  6
 10  8  1  0
 10 14  1  0
 11 10  2  0
 13 14  1  0
 13 12  1  6
 15 13  1  0
 15 16  2  0
 18 19  1  0
 18 17  1  0
 19 21  1  0
 19 20  1  1
 21 22  1  6
 21 23  1  0
 22 15  1  0
 23 24  2  0
 23 25  1  0
M  END
$$$$
