RAI.pdb
     RDKit          3D

 25 24  0  0  1  0  0  0  0  0999 V2000
    9.6179  -15.0812   16.3221 N   0  0  0  0  0  0  0  0  0  0  0  0
    8.7522  -13.9432   16.3008 C   0  0  0  0  0  0  0  0  0  0  0  0
    7.9718  -13.7051   15.2969 N   0  0  0  0  0  0  0  0  0  0  0  0
    8.7201  -13.0306   17.3879 N   0  0  0  0  0  0  0  0  0  0  0  0
    8.6887  -13.5281   18.7360 C   0  0  0  0  0  0  0  0  0  0  0  0
    7.2816  -14.0001   19.0961 C   0  0  0  0  0  0  0  0  0  0  0  0
    7.3584  -14.5178   20.5198 C   0  0  0  0  0  0  0  0  0  0  0  0
    7.9675  -15.9008   20.5631 C   0  0  2  0  0  0  0  0  0  0  0  0
    7.0153  -16.7938   19.9076 N   0  0  0  0  0  0  0  0  0  0  0  0
    8.0165  -16.3020   22.0110 C   0  0  0  0  0  0  0  0  0  0  0  0
    6.9628  -16.3765   22.7020 O   0  0  0  0  0  0  0  0  0  0  0  0
    7.3445  -12.8825   15.2648 C   0  0  0  0  0  0  0  0  0  0  0  0
   10.1064  -18.3771   24.1214 C   0  0  2  0  0  0  0  0  0  0  0  0
    9.2515  -17.1374   23.9978 N   0  0  0  0  0  0  0  0  0  0  0  0
    9.2294  -16.6120   22.6630 C   0  0  0  0  0  0  0  0  0  0  0  0
    9.6459  -16.0800   24.9299 O   0  0  0  0  0  0  0  0  0  0  0  0
   10.5741  -15.2936   24.6201 C   0  0  0  0  0  0  0  0  0  0  0  0
    6.4780  -12.4403   26.6835 C   0  0  0  0  0  0  0  0  0  0  0  0
    7.6893  -13.2375   26.2539 C   0  0  2  0  0  0  0  0  0  0  0  0
    8.3635  -13.8708   27.4522 C   0  0  0  0  0  0  0  0  0  0  0  0
    8.8662  -12.7801   28.3608 C   0  0  2  0  0  0  0  0  0  0  0  0
    9.4636  -14.8038   27.0667 N   0  0  0  0  0  0  0  0  0  0  0  0
    9.0409  -15.8669   26.1993 C   0  0  0  0  0  0  0  0  0  0  0  0
   10.1455  -15.3417   28.2920 O   0  0  0  0  0  0  0  0  0  0  0  0
    9.8351  -16.4738   28.7755 O   0  0  0  0  0  0  0  0  0  0  0  0
  2  1  1  0
  2  3  2  0
  4  2  1  0
  5  4  1  0
  6  5  1  0
  7  6  1  0
  8  7  1  0
  8  9  1  6
 10  8  1  0
 10 14  1  0
 11 10  2  0
 13 14  1  0
 13 12  1  6
 15 13  1  0
 15 16  2  0
 18 19  1  0
 18 17  1  0
 19 21  1  0
 19 20  1  1
 21 22  1  6
 21 23  1  0
 22 15  1  0
 23 24  2  0
 23 25  1  0
M  END
$$$$
