RAI.pdb
     RDKit          3D

 25 24  0  0  1  0  0  0  0  0999 V2000
    9.2689  -14.1003   17.9635 N   0  0  0  0  0  0  0  0  0  0  0  0
    8.0419  -13.4973   17.5443 C   0  0  0  0  0  0  0  0  0  0  0  0
    7.7232  -13.4104   16.2935 N   0  0  0  0  0  0  0  0  0  0  0  0
    7.1264  -12.9704   18.4929 N   0  0  0  0  0  0  0  0  0  0  0  0
    7.4369  -13.0335   19.8949 C   0  0  0  0  0  0  0  0  0  0  0  0
    7.1244  -14.4228   20.4468 C   0  0  0  0  0  0  0  0  0  0  0  0
    8.4042  -15.2274   20.3216 C   0  0  0  0  0  0  0  0  0  0  0  0
    8.1803  -16.6694   20.7167 C   0  0  2  0  0  0  0  0  0  0  0  0
    6.7349  -16.8490   20.8282 N   0  0  0  0  0  0  0  0  0  0  0  0
    8.7476  -16.8274   22.0999 C   0  0  0  0  0  0  0  0  0  0  0  0
    8.1113  -17.4452   22.9980 O   0  0  0  0  0  0  0  0  0  0  0  0
    6.8282  -12.9983   15.9764 C   0  0  0  0  0  0  0  0  0  0  0  0
   12.1377  -16.2839   23.6708 C   0  0  1  0  0  0  0  0  0  0  0  0
   10.6980  -16.7410   23.6359 N   0  0  0  0  0  0  0  0  0  0  0  0
   10.0061  -16.2988   22.4595 C   0  0  0  0  0  0  0  0  0  0  0  0
    9.9445  -16.3369   24.8239 O   0  0  0  0  0  0  0  0  0  0  0  0
   10.3139  -16.7310   25.9572 C   0  0  0  0  0  0  0  0  0  0  0  0
    6.9390  -11.6444   25.0706 C   0  0  0  0  0  0  0  0  0  0  0  0
    7.9086  -12.7655   25.3715 C   0  0  2  0  0  0  0  0  0  0  0  0
    7.1685  -13.9978   25.8461 C   0  0  0  0  0  0  0  0  0  0  0  0
    6.4731  -13.6786   27.1432 C   0  0  2  0  0  0  0  0  0  0  0  0
    8.0618  -15.1856   25.9890 N   0  0  0  0  0  0  0  0  0  0  0  0
    8.7902  -15.5066   24.7941 C   0  0  0  0  0  0  0  0  0  0  0  0
    7.2810  -16.3697   26.4832 O   0  0  0  0  0  0  0  0  0  0  0  0
    6.6846  -17.1486   25.6775 O   0  0  0  0  0  0  0  0  0  0  0  0
  2  1  1  0
  2  3  2  0
  4  2  1  0
  5  4  1  0
  6  5  1  0
  7  6  1  0
  8  7  1  0
  8  9  1  1
 10  8  1  0
 10 14  1  0
 11 10  2  0
 13 14  1  0
 13 12  1  6
 15 13  1  0
 15 16  2  0
 18 19  1  0
 18 17  1  0
 19 21  1  0
 19 20  1  6
 21 22  1  1
 21 23  1  0
 22 15  1  0
 23 24  2  0
 23 25  1  0
M  END
$$$$
