RAI.pdb
     RDKit          3D

 25 24  0  0  1  0  0  0  0  0999 V2000
   11.9758  -15.7453   18.6466 N   0  0  0  0  0  0  0  0  0  0  0  0
   12.8102  -14.7397   19.2274 C   0  0  0  0  0  0  0  0  0  0  0  0
   14.0985  -14.7828   19.1177 N   0  0  0  0  0  0  0  0  0  0  0  0
   12.2490  -13.6531   19.9486 N   0  0  0  0  0  0  0  0  0  0  0  0
   10.8328  -13.6137   20.1910 C   0  0  0  0  0  0  0  0  0  0  0  0
   10.0925  -13.1374   18.9430 C   0  0  0  0  0  0  0  0  0  0  0  0
    8.6314  -13.0221   19.3337 C   0  0  0  0  0  0  0  0  0  0  0  0
    7.9257  -14.3521   19.1972 C   0  0  2  0  0  0  0  0  0  0  0  0
    6.7852  -14.1273   18.3126 N   0  0  0  0  0  0  0  0  0  0  0  0
    7.3677  -14.6819   20.5535 C   0  0  0  0  0  0  0  0  0  0  0  0
    6.5135  -13.9343   21.1055 O   0  0  0  0  0  0  0  0  0  0  0  0
   14.7196  -14.1150   19.6072 C   0  0  0  0  0  0  0  0  0  0  0  0
    7.0457  -17.6295   22.7721 C   0  0  1  0  0  0  0  0  0  0  0  0
    7.2137  -16.1436   22.5561 N   0  0  0  0  0  0  0  0  0  0  0  0
    7.7665  -15.8310   21.2697 C   0  0  0  0  0  0  0  0  0  0  0  0
    8.0181  -15.5051   23.5990 O   0  0  0  0  0  0  0  0  0  0  0  0
    9.2435  -15.3114   23.4067 C   0  0  0  0  0  0  0  0  0  0  0  0
    6.2149  -11.7000   27.4242 C   0  0  0  0  0  0  0  0  0  0  0  0
    6.5146  -13.0552   26.8231 C   0  0  2  0  0  0  0  0  0  0  0  0
    7.9018  -13.0751   26.2175 C   0  0  0  0  0  0  0  0  0  0  0  0
    7.9293  -12.1455   25.0331 C   0  0  1  0  0  0  0  0  0  0  0  0
    8.3433  -14.4497   25.8369 N   0  0  0  0  0  0  0  0  0  0  0  0
    7.5042  -15.0733   24.8529 C   0  0  0  0  0  0  0  0  0  0  0  0
    8.4791  -15.3118   27.0593 O   0  0  0  0  0  0  0  0  0  0  0  0
    7.7056  -16.2984   27.2590 O   0  0  0  0  0  0  0  0  0  0  0  0
  2  1  1  0
  2  3  2  0
  4  2  1  0
  5  4  1  0
  6  5  1  0
  7  6  1  0
  8  7  1  0
  8  9  1  6
 10  8  1  0
 10 14  1  0
 11 10  2  0
 13 14  1  0
 13 12  1  6
 15 13  1  0
 15 16  2  0
 18 19  1  0
 18 17  1  0
 19 21  1  0
 19 20  1  1
 21 22  1  6
 21 23  1  0
 22 15  1  0
 23 24  2  0
 23 25  1  0
M  END
$$$$
