DNH.pdb
     RDKit          3D

 27 27  0  0  1  0  0  0  0  0999 V2000
   11.0964  -17.4628   15.9392 N   0  0  0  0  0  0  0  0  0  0  0  0
   11.9974  -16.3731   15.7321 C   0  0  1  0  0  0  0  0  0  0  0  0
   11.6638  -15.6156   14.4365 C   0  0  0  0  0  0  0  0  0  0  0  0
   11.8222  -16.5076   13.2689 C   0  0  0  0  0  0  0  0  0  0  0  0
   11.0929  -16.3247   12.2604 O   0  0  0  0  0  0  0  0  0  0  0  0
   11.9000  -15.3411   16.8095 C   0  0  0  0  0  0  0  0  0  0  0  0
   12.6662  -14.3407   16.7773 O   0  0  0  0  0  0  0  0  0  0  0  0
   12.7284  -17.5385   13.2151 O   0  0  0  0  0  0  0  0  0  0  0  0
    9.3721  -13.1823   16.9726 N   0  0  0  0  0  0  0  0  0  0  0  0
    8.6129  -13.6894   18.1141 C   0  0  0  0  0  0  0  0  0  0  0  0
    7.3807  -13.5264   18.0306 O   0  0  0  0  0  0  0  0  0  0  0  0
    9.4058  -14.2981   19.1583 C   0  0  0  0  0  0  0  0  0  0  0  0
   10.8796  -14.4456   18.9635 C   0  0  2  0  0  0  0  0  0  0  0  0
   10.9853  -15.4414   17.8607 N   0  0  0  0  0  0  0  0  0  0  0  0
   11.5871  -15.0560   20.1088 C   0  0  0  0  0  0  0  0  0  0  0  0
   12.4568  -15.9646   19.8350 O   0  0  0  0  0  0  0  0  0  0  0  0
   11.4263  -14.7582   21.4633 N   0  0  0  0  0  0  0  0  0  0  0  0
   11.0652  -15.7916   22.4540 C   0  0  1  0  0  0  0  0  0  0  0  0
    9.6646  -16.2481   22.2116 C   0  0  0  0  0  0  0  0  0  0  0  0
    8.6529  -15.2588   22.6214 C   0  0  0  0  0  0  0  0  0  0  0  0
    8.8251  -14.0456   23.2864 C   0  0  0  0  0  0  0  0  0  0  0  0
    7.6340  -13.4504   23.4673 N   0  0  0  0  0  0  0  0  0  0  0  0
    6.7064  -14.2632   22.9292 C   0  0  0  0  0  0  0  0  0  0  0  0
    7.3249  -15.3478   22.4227 N   0  0  0  0  0  0  0  0  0  0  0  0
   11.9987  -16.9248   22.3942 C   0  0  0  0  0  0  0  0  0  0  0  0
   12.8465  -17.0466   21.4784 O   0  0  0  0  0  0  0  0  0  0  0  0
   11.9379  -17.8910   23.3856 O   0  0  0  0  0  0  0  0  0  0  0  0
  2  1  1  1
  2  3  1  0
  4  3  1  0
  4  5  2  0
  6  2  1  0
  7  6  2  0
  8  4  1  0
 10  9  1  0
 11 10  2  0
 12 10  1  0
 13 12  1  1
 13 14  1  0
 14  6  1  0
 15 13  1  0
 15 16  2  0
 17 15  1  0
 18 17  1  0
 18 19  1  6
 19 20  1  0
 20 21  2  0
 21 22  1  0
 23 22  1  0
 24 20  1  0
 24 23  2  0
 25 18  1  0
 26 25  2  0
 27 25  1  0
M  END
$$$$
