DNH.pdb
     RDKit          3D

 27 27  0  0  1  0  0  0  0  0999 V2000
   11.6195  -16.9328   15.3750 N   0  0  0  0  0  0  0  0  0  0  0  0
   10.4958  -16.5006   16.1448 C   0  0  1  0  0  0  0  0  0  0  0  0
    9.1944  -17.1409   15.6350 C   0  0  0  0  0  0  0  0  0  0  0  0
    8.9601  -16.7666   14.2246 C   0  0  0  0  0  0  0  0  0  0  0  0
    9.9395  -16.7221   13.4365 O   0  0  0  0  0  0  0  0  0  0  0  0
   10.5898  -16.9227   17.5760 C   0  0  0  0  0  0  0  0  0  0  0  0
    9.5324  -17.0823   18.2434 O   0  0  0  0  0  0  0  0  0  0  0  0
    7.7227  -16.4601   13.7132 O   0  0  0  0  0  0  0  0  0  0  0  0
   14.2716  -20.0448   17.9226 N   0  0  0  0  0  0  0  0  0  0  0  0
   13.0975  -19.7775   18.7511 C   0  0  0  0  0  0  0  0  0  0  0  0
   12.2051  -20.6437   18.6801 O   0  0  0  0  0  0  0  0  0  0  0  0
   13.1533  -18.5549   19.5205 C   0  0  0  0  0  0  0  0  0  0  0  0
   11.9421  -17.6835   19.5947 C   0  0  2  0  0  0  0  0  0  0  0  0
   11.8139  -17.1500   18.2098 N   0  0  0  0  0  0  0  0  0  0  0  0
   12.1001  -16.4937   20.4575 C   0  0  0  0  0  0  0  0  0  0  0  0
   13.1857  -16.4165   21.1448 O   0  0  0  0  0  0  0  0  0  0  0  0
   11.2064  -15.4325   20.6133 N   0  0  0  0  0  0  0  0  0  0  0  0
   10.5964  -15.1084   21.9182 C   0  0  1  0  0  0  0  0  0  0  0  0
    9.1093  -15.1049   21.7871 C   0  0  0  0  0  0  0  0  0  0  0  0
    8.6270  -14.2698   20.6734 C   0  0  0  0  0  0  0  0  0  0  0  0
    9.3560  -13.4906   19.7760 C   0  0  0  0  0  0  0  0  0  0  0  0
    8.5219  -12.8860   18.9133 N   0  0  0  0  0  0  0  0  0  0  0  0
    7.2746  -13.2663   19.2455 C   0  0  0  0  0  0  0  0  0  0  0  0
    7.3446  -14.0976   20.3036 N   0  0  0  0  0  0  0  0  0  0  0  0
   11.0248  -16.0635   22.9493 C   0  0  0  0  0  0  0  0  0  0  0  0
   11.6993  -15.7142   23.9471 O   0  0  0  0  0  0  0  0  0  0  0  0
   10.6700  -17.3958   22.8120 O   0  0  0  0  0  0  0  0  0  0  0  0
  2  1  1  6
  2  3  1  0
  4  3  1  0
  4  5  2  0
  6  2  1  0
  7  6  2  0
  8  4  1  0
 10  9  1  0
 11 10  2  0
 12 10  1  0
 13 12  1  6
 13 14  1  0
 14  6  1  0
 15 13  1  0
 15 16  2  0
 17 15  1  0
 18 17  1  0
 18 19  1  6
 19 20  1  0
 20 21  2  0
 21 22  1  0
 23 22  1  0
 24 20  1  0
 24 23  2  0
 25 18  1  0
 26 25  2  0
 27 25  1  0
M  END
$$$$
