DNH.pdb
     RDKit          3D

 27 27  0  0  1  0  0  0  0  0999 V2000
   13.5642  -17.7558   15.5714 N   0  0  0  0  0  0  0  0  0  0  0  0
   12.2109  -17.7026   16.0275 C   0  0  1  0  0  0  0  0  0  0  0  0
   11.8879  -18.8918   16.9467 C   0  0  0  0  0  0  0  0  0  0  0  0
   13.1362  -19.5429   17.3962 C   0  0  0  0  0  0  0  0  0  0  0  0
   14.2390  -19.0671   17.0224 O   0  0  0  0  0  0  0  0  0  0  0  0
   11.9390  -16.4933   16.8636 C   0  0  0  0  0  0  0  0  0  0  0  0
   12.9063  -15.8032   17.2841 O   0  0  0  0  0  0  0  0  0  0  0  0
   13.1681  -20.6505   18.2080 O   0  0  0  0  0  0  0  0  0  0  0  0
    9.1166  -12.4375   18.8759 N   0  0  0  0  0  0  0  0  0  0  0  0
    8.2530  -13.4753   18.3159 C   0  0  0  0  0  0  0  0  0  0  0  0
    7.0359  -13.2997   18.5146 O   0  0  0  0  0  0  0  0  0  0  0  0
    8.9419  -14.5400   17.6220 C   0  0  0  0  0  0  0  0  0  0  0  0
   10.3372  -14.8904   18.0245 C   0  0  2  0  0  0  0  0  0  0  0  0
   10.6436  -16.0932   17.2008 N   0  0  0  0  0  0  0  0  0  0  0  0
   10.4727  -15.3344   19.4279 C   0  0  0  0  0  0  0  0  0  0  0  0
   10.1174  -16.5436   19.6898 O   0  0  0  0  0  0  0  0  0  0  0  0
   10.9487  -14.5935   20.5112 N   0  0  0  0  0  0  0  0  0  0  0  0
   10.8786  -15.0995   21.8964 C   0  0  1  0  0  0  0  0  0  0  0  0
    9.5626  -15.7690   22.1174 C   0  0  0  0  0  0  0  0  0  0  0  0
    8.4246  -14.8337   22.0934 C   0  0  0  0  0  0  0  0  0  0  0  0
    8.4267  -13.4411   22.1604 C   0  0  0  0  0  0  0  0  0  0  0  0
    7.1660  -12.9792   22.1073 N   0  0  0  0  0  0  0  0  0  0  0  0
    6.3612  -14.0530   22.0077 C   0  0  0  0  0  0  0  0  0  0  0  0
    7.1235  -15.1640   21.9999 N   0  0  0  0  0  0  0  0  0  0  0  0
   11.9855  -16.0253   22.1736 C   0  0  0  0  0  0  0  0  0  0  0  0
   12.8290  -16.3411   21.3011 O   0  0  0  0  0  0  0  0  0  0  0  0
   12.0989  -16.5667   23.4440 O   0  0  0  0  0  0  0  0  0  0  0  0
  2  1  1  1
  2  3  1  0
  4  3  1  0
  4  5  2  0
  6  2  1  0
  7  6  2  0
  8  4  1  0
 10  9  1  0
 11 10  2  0
 12 10  1  0
 13 12  1  1
 13 14  1  0
 14  6  1  0
 15 13  1  0
 15 16  2  0
 17 15  1  0
 18 17  1  0
 18 19  1  6
 19 20  1  0
 20 21  2  0
 21 22  1  0
 23 22  1  0
 24 20  1  0
 24 23  2  0
 25 18  1  0
 26 25  2  0
 27 25  1  0
M  END
$$$$
