DNH.pdb
     RDKit          3D

 27 27  0  0  1  0  0  0  0  0999 V2000
    7.8450  -19.9446   19.3166 N   0  0  0  0  0  0  0  0  0  0  0  0
    7.9726  -18.5404   19.0839 C   0  0  1  0  0  0  0  0  0  0  0  0
    7.4195  -18.1542   17.7025 C   0  0  0  0  0  0  0  0  0  0  0  0
    8.3101  -18.6597   16.6369 C   0  0  0  0  0  0  0  0  0  0  0  0
    9.3334  -19.3160   16.9600 O   0  0  0  0  0  0  0  0  0  0  0  0
    7.1737  -17.7279   20.0520 C   0  0  0  0  0  0  0  0  0  0  0  0
    7.1734  -16.4715   19.9507 O   0  0  0  0  0  0  0  0  0  0  0  0
    8.0874  -18.4549   15.2970 O   0  0  0  0  0  0  0  0  0  0  0  0
    3.1931  -17.8742   20.4878 N   0  0  0  0  0  0  0  0  0  0  0  0
    3.4966  -18.8807   21.5033 C   0  0  0  0  0  0  0  0  0  0  0  0
    2.8187  -19.9225   21.4192 O   0  0  0  0  0  0  0  0  0  0  0  0
    4.5310  -18.5129   22.4437 C   0  0  0  0  0  0  0  0  0  0  0  0
    5.5803  -17.5340   22.0283 C   0  0  2  0  0  0  0  0  0  0  0  0
    6.4201  -18.3104   21.0740 N   0  0  0  0  0  0  0  0  0  0  0  0
    6.4979  -17.1279   23.1137 C   0  0  0  0  0  0  0  0  0  0  0  0
    5.9565  -16.7070   24.2030 O   0  0  0  0  0  0  0  0  0  0  0  0
    7.8938  -17.1515   23.0994 N   0  0  0  0  0  0  0  0  0  0  0  0
    8.6726  -17.9575   24.0605 C   0  0  1  0  0  0  0  0  0  0  0  0
    8.3009  -19.3967   23.9218 C   0  0  0  0  0  0  0  0  0  0  0  0
    9.0777  -20.2841   24.8046 C   0  0  0  0  0  0  0  0  0  0  0  0
   10.0200  -19.9544   25.7779 C   0  0  0  0  0  0  0  0  0  0  0  0
   10.4928  -21.0727   26.3537 N   0  0  0  0  0  0  0  0  0  0  0  0
    9.8682  -22.1086   25.7643 C   0  0  0  0  0  0  0  0  0  0  0  0
    9.0195  -21.6282   24.8347 N   0  0  0  0  0  0  0  0  0  0  0  0
   10.1153  -17.7711   23.8538 C   0  0  0  0  0  0  0  0  0  0  0  0
   10.6087  -17.5685   22.7189 O   0  0  0  0  0  0  0  0  0  0  0  0
   10.9578  -17.8215   24.9528 O   0  0  0  0  0  0  0  0  0  0  0  0
  2  1  1  1
  2  3  1  0
  4  3  1  0
  4  5  2  0
  6  2  1  0
  7  6  2  0
  8  4  1  0
 10  9  1  0
 11 10  2  0
 12 10  1  0
 13 12  1  1
 13 14  1  0
 14  6  1  0
 15 13  1  0
 15 16  2  0
 17 15  1  0
 18 17  1  0
 18 19  1  6
 19 20  1  0
 20 21  2  0
 21 22  1  0
 23 22  1  0
 24 20  1  0
 24 23  2  0
 25 18  1  0
 26 25  2  0
 27 25  1  0
M  END
$$$$
