DNH.pdb
     RDKit          3D

 27 27  0  0  1  0  0  0  0  0999 V2000
    9.7309  -13.6202   18.6841 N   0  0  0  0  0  0  0  0  0  0  0  0
    8.3651  -13.6764   19.1010 C   0  0  1  0  0  0  0  0  0  0  0  0
    7.4549  -14.1536   17.9576 C   0  0  0  0  0  0  0  0  0  0  0  0
    8.1691  -14.0661   16.6667 C   0  0  0  0  0  0  0  0  0  0  0  0
    9.4003  -13.8081   16.6690 O   0  0  0  0  0  0  0  0  0  0  0  0
    8.1451  -14.6675   20.1985 C   0  0  0  0  0  0  0  0  0  0  0  0
    6.9861  -14.8190   20.6704 O   0  0  0  0  0  0  0  0  0  0  0  0
    7.5644  -14.2514   15.4474 O   0  0  0  0  0  0  0  0  0  0  0  0
    8.5030  -18.7295   19.6193 N   0  0  0  0  0  0  0  0  0  0  0  0
    9.7087  -17.9997   20.0067 C   0  0  0  0  0  0  0  0  0  0  0  0
   10.5229  -17.8159   19.0820 O   0  0  0  0  0  0  0  0  0  0  0  0
    9.7695  -17.6064   21.3965 C   0  0  0  0  0  0  0  0  0  0  0  0
    9.0061  -16.4047   21.8489 C   0  0  2  0  0  0  0  0  0  0  0  0
    9.1820  -15.4401   20.7274 N   0  0  0  0  0  0  0  0  0  0  0  0
    9.5768  -15.7317   23.0348 C   0  0  0  0  0  0  0  0  0  0  0  0
    9.8977  -14.4925   22.8992 O   0  0  0  0  0  0  0  0  0  0  0  0
    9.8066  -16.2836   24.2964 N   0  0  0  0  0  0  0  0  0  0  0  0
    9.2218  -15.7044   25.5221 C   0  0  1  0  0  0  0  0  0  0  0  0
    7.7780  -15.4025   25.2920 C   0  0  0  0  0  0  0  0  0  0  0  0
    7.4093  -14.0225   25.6524 C   0  0  0  0  0  0  0  0  0  0  0  0
    8.2010  -13.0122   26.1969 C   0  0  0  0  0  0  0  0  0  0  0  0
    7.4666  -11.9008   26.3727 N   0  0  0  0  0  0  0  0  0  0  0  0
    6.2213  -12.1854   25.9498 C   0  0  0  0  0  0  0  0  0  0  0  0
    6.1935  -13.4615   25.5183 N   0  0  0  0  0  0  0  0  0  0  0  0
    9.3867  -16.6153   26.6632 C   0  0  0  0  0  0  0  0  0  0  0  0
    9.1440  -17.8429   26.5810 O   0  0  0  0  0  0  0  0  0  0  0  0
    9.8258  -16.0973   27.8711 O   0  0  0  0  0  0  0  0  0  0  0  0
  2  1  1  6
  2  3  1  0
  4  3  1  0
  4  5  2  0
  6  2  1  0
  7  6  2  0
  8  4  1  0
 10  9  1  0
 11 10  2  0
 12 10  1  0
 13 12  1  6
 13 14  1  0
 14  6  1  0
 15 13  1  0
 15 16  2  0
 17 15  1  0
 18 17  1  0
 18 19  1  6
 19 20  1  0
 20 21  2  0
 21 22  1  0
 23 22  1  0
 24 20  1  0
 24 23  2  0
 25 18  1  0
 26 25  2  0
 27 25  1  0
M  END
$$$$
