DNH.pdb
     RDKit          3D

 27 27  0  0  1  0  0  0  0  0999 V2000
   10.1911  -17.3131   15.5870 N   0  0  0  0  0  0  0  0  0  0  0  0
    8.9110  -16.8266   15.9955 C   0  0  1  0  0  0  0  0  0  0  0  0
    7.7955  -17.3687   15.0871 C   0  0  0  0  0  0  0  0  0  0  0  0
    8.0125  -16.9269   13.6936 C   0  0  0  0  0  0  0  0  0  0  0  0
    9.1851  -16.9026   13.2389 O   0  0  0  0  0  0  0  0  0  0  0  0
    8.5385  -17.2872   17.3682 C   0  0  0  0  0  0  0  0  0  0  0  0
    7.3748  -17.7239   17.5784 O   0  0  0  0  0  0  0  0  0  0  0  0
    6.9999  -16.5356   12.8520 O   0  0  0  0  0  0  0  0  0  0  0  0
    6.8700  -20.7693   19.2997 N   0  0  0  0  0  0  0  0  0  0  0  0
    7.7060  -19.9049   20.1307 C   0  0  0  0  0  0  0  0  0  0  0  0
    7.3505  -19.8302   21.3222 O   0  0  0  0  0  0  0  0  0  0  0  0
    8.8103  -19.2733   19.4441 C   0  0  0  0  0  0  0  0  0  0  0  0
    9.1590  -17.8579   19.7707 C   0  0  2  0  0  0  0  0  0  0  0  0
    9.4364  -17.2531   18.4380 N   0  0  0  0  0  0  0  0  0  0  0  0
   10.4126  -17.7012   20.5382 C   0  0  0  0  0  0  0  0  0  0  0  0
   10.8054  -18.7197   21.2203 O   0  0  0  0  0  0  0  0  0  0  0  0
   11.2306  -16.5720   20.6079 N   0  0  0  0  0  0  0  0  0  0  0  0
   11.2209  -15.6698   21.7766 C   0  0  1  0  0  0  0  0  0  0  0  0
    9.8491  -15.1118   21.9652 C   0  0  0  0  0  0  0  0  0  0  0  0
    9.4645  -14.1507   20.9170 C   0  0  0  0  0  0  0  0  0  0  0  0
   10.2207  -13.6540   19.8562 C   0  0  0  0  0  0  0  0  0  0  0  0
    9.4840  -12.7936   19.1333 N   0  0  0  0  0  0  0  0  0  0  0  0
    8.2721  -12.7337   19.7150 C   0  0  0  0  0  0  0  0  0  0  0  0
    8.2669  -13.5513   20.7860 N   0  0  0  0  0  0  0  0  0  0  0  0
   11.6663  -16.3740   22.9868 C   0  0  0  0  0  0  0  0  0  0  0  0
   11.2273  -17.5051   23.3035 O   0  0  0  0  0  0  0  0  0  0  0  0
   12.6043  -15.7648   23.8048 O   0  0  0  0  0  0  0  0  0  0  0  0
  2  1  1  6
  2  3  1  0
  4  3  1  0
  4  5  2  0
  6  2  1  0
  7  6  2  0
  8  4  1  0
 10  9  1  0
 11 10  2  0
 12 10  1  0
 13 12  1  6
 13 14  1  0
 14  6  1  0
 15 13  1  0
 15 16  2  0
 17 15  1  0
 18 17  1  0
 18 19  1  1
 19 20  1  0
 20 21  2  0
 21 22  1  0
 23 22  1  0
 24 20  1  0
 24 23  2  0
 25 18  1  0
 26 25  2  0
 27 25  1  0
M  END
$$$$
