DNH.pdb
     RDKit          3D

 27 27  0  0  1  0  0  0  0  0999 V2000
    9.1471  -17.2281   14.6614 N   0  0  0  0  0  0  0  0  0  0  0  0
    8.5370  -17.0099   15.9351 C   0  0  1  0  0  0  0  0  0  0  0  0
    8.2768  -18.3400   16.6610 C   0  0  0  0  0  0  0  0  0  0  0  0
    7.4797  -19.2417   15.8032 C   0  0  0  0  0  0  0  0  0  0  0  0
    7.1761  -18.8655   14.6419 O   0  0  0  0  0  0  0  0  0  0  0  0
    9.4185  -16.2382   16.8639 C   0  0  0  0  0  0  0  0  0  0  0  0
   10.6621  -16.2166   16.6596 O   0  0  0  0  0  0  0  0  0  0  0  0
    7.0436  -20.4823   16.2001 O   0  0  0  0  0  0  0  0  0  0  0  0
    6.7534  -12.4333   18.8435 N   0  0  0  0  0  0  0  0  0  0  0  0
    8.1055  -12.8216   18.4467 C   0  0  0  0  0  0  0  0  0  0  0  0
    8.4764  -12.3607   17.3505 O   0  0  0  0  0  0  0  0  0  0  0  0
    8.7994  -13.6766   19.3833 C   0  0  0  0  0  0  0  0  0  0  0  0
    9.7554  -14.7014   18.8658 C   0  0  2  0  0  0  0  0  0  0  0  0
    8.9149  -15.5329   17.9597 N   0  0  0  0  0  0  0  0  0  0  0  0
   10.2620  -15.6353   19.8935 C   0  0  0  0  0  0  0  0  0  0  0  0
    9.7681  -16.8240   19.8900 O   0  0  0  0  0  0  0  0  0  0  0  0
   11.2242  -15.3807   20.8725 N   0  0  0  0  0  0  0  0  0  0  0  0
   12.2287  -16.3897   21.2634 C   0  0  1  0  0  0  0  0  0  0  0  0
   13.0161  -16.8013   20.0638 C   0  0  0  0  0  0  0  0  0  0  0  0
   12.6985  -18.1632   19.6005 C   0  0  0  0  0  0  0  0  0  0  0  0
   11.7789  -19.0768   20.1140 C   0  0  0  0  0  0  0  0  0  0  0  0
   11.8067  -20.2088   19.3905 N   0  0  0  0  0  0  0  0  0  0  0  0
   12.7277  -20.0322   18.4255 C   0  0  0  0  0  0  0  0  0  0  0  0
   13.2598  -18.8014   18.5572 N   0  0  0  0  0  0  0  0  0  0  0  0
   13.1151  -15.8685   22.3130 C   0  0  0  0  0  0  0  0  0  0  0  0
   13.5898  -14.7084   22.2737 O   0  0  0  0  0  0  0  0  0  0  0  0
   13.4361  -16.6893   23.3822 O   0  0  0  0  0  0  0  0  0  0  0  0
  2  1  1  6
  2  3  1  0
  4  3  1  0
  4  5  2  0
  6  2  1  0
  7  6  2  0
  8  4  1  0
 10  9  1  0
 11 10  2  0
 12 10  1  0
 13 12  1  1
 13 14  1  0
 14  6  1  0
 15 13  1  0
 15 16  2  0
 17 15  1  0
 18 17  1  0
 18 19  1  6
 19 20  1  0
 20 21  2  0
 21 22  1  0
 23 22  1  0
 24 20  1  0
 24 23  2  0
 25 18  1  0
 26 25  2  0
 27 25  1  0
M  END
$$$$
