DNH.pdb
     RDKit          3D

 27 27  0  0  1  0  0  0  0  0999 V2000
   16.1664  -17.4888   15.5211 N   0  0  0  0  0  0  0  0  0  0  0  0
   16.1537  -18.4264   16.5994 C   0  0  1  0  0  0  0  0  0  0  0  0
   17.4436  -18.3338   17.4307 C   0  0  0  0  0  0  0  0  0  0  0  0
   18.5899  -18.0027   16.5585 C   0  0  0  0  0  0  0  0  0  0  0  0
   18.7327  -18.6299   15.4776 O   0  0  0  0  0  0  0  0  0  0  0  0
   15.0541  -18.1565   17.5758 C   0  0  0  0  0  0  0  0  0  0  0  0
   14.4124  -17.0742   17.4993 O   0  0  0  0  0  0  0  0  0  0  0  0
   19.5221  -17.0395   16.8585 O   0  0  0  0  0  0  0  0  0  0  0  0
   10.9910  -20.4778   20.2867 N   0  0  0  0  0  0  0  0  0  0  0  0
   12.2688  -20.4780   20.9963 C   0  0  0  0  0  0  0  0  0  0  0  0
   12.1840  -20.7141   22.2165 O   0  0  0  0  0  0  0  0  0  0  0  0
   13.4276  -20.2051   20.1762 C   0  0  0  0  0  0  0  0  0  0  0  0
   13.5413  -18.8826   19.4907 C   0  0  2  0  0  0  0  0  0  0  0  0
   14.7054  -19.0639   18.5791 N   0  0  0  0  0  0  0  0  0  0  0  0
   13.9152  -17.7647   20.3825 C   0  0  0  0  0  0  0  0  0  0  0  0
   13.3227  -16.6398   20.1811 O   0  0  0  0  0  0  0  0  0  0  0  0
   14.8389  -17.7852   21.4292 N   0  0  0  0  0  0  0  0  0  0  0  0
   14.5351  -17.2047   22.7523 C   0  0  1  0  0  0  0  0  0  0  0  0
   13.2749  -17.8036   23.2830 C   0  0  0  0  0  0  0  0  0  0  0  0
   12.0692  -17.0443   22.9086 C   0  0  0  0  0  0  0  0  0  0  0  0
   11.9566  -15.9056   22.1120 C   0  0  0  0  0  0  0  0  0  0  0  0
   10.6684  -15.5332   22.0265 N   0  0  0  0  0  0  0  0  0  0  0  0
    9.9586  -16.4146   22.7545 C   0  0  0  0  0  0  0  0  0  0  0  0
   10.8060  -17.3198   23.2818 N   0  0  0  0  0  0  0  0  0  0  0  0
   15.6473  -17.4207   23.6879 C   0  0  0  0  0  0  0  0  0  0  0  0
   16.1881  -18.5421   23.8380 O   0  0  0  0  0  0  0  0  0  0  0  0
   16.1127  -16.3464   24.4290 O   0  0  0  0  0  0  0  0  0  0  0  0
  2  1  1  6
  2  3  1  0
  4  3  1  0
  4  5  2  0
  6  2  1  0
  7  6  2  0
  8  4  1  0
 10  9  1  0
 11 10  2  0
 12 10  1  0
 13 12  1  1
 13 14  1  0
 14  6  1  0
 15 13  1  0
 15 16  2  0
 17 15  1  0
 18 17  1  0
 18 19  1  1
 19 20  1  0
 20 21  2  0
 21 22  1  0
 23 22  1  0
 24 20  1  0
 24 23  2  0
 25 18  1  0
 26 25  2  0
 27 25  1  0
M  END
$$$$
