DNH.pdb
     RDKit          3D

 27 27  0  0  1  0  0  0  0  0999 V2000
   15.8974  -19.1847   17.8910 N   0  0  0  0  0  0  0  0  0  0  0  0
   15.3328  -17.9347   17.4899 C   0  0  1  0  0  0  0  0  0  0  0  0
   14.4751  -18.0939   16.2239 C   0  0  0  0  0  0  0  0  0  0  0  0
   15.3120  -18.5513   15.0949 C   0  0  0  0  0  0  0  0  0  0  0  0
   16.5460  -18.7120   15.2787 O   0  0  0  0  0  0  0  0  0  0  0  0
   14.3963  -17.3782   18.5139 C   0  0  0  0  0  0  0  0  0  0  0  0
   13.8595  -16.2553   18.3141 O   0  0  0  0  0  0  0  0  0  0  0  0
   14.8200  -18.8156   13.8400 O   0  0  0  0  0  0  0  0  0  0  0  0
   10.8345  -19.5750   22.7189 N   0  0  0  0  0  0  0  0  0  0  0  0
   11.2397  -18.3328   22.0639 C   0  0  0  0  0  0  0  0  0  0  0  0
   10.7222  -17.3039   22.5386 O   0  0  0  0  0  0  0  0  0  0  0  0
   12.1734  -18.4899   20.9715 C   0  0  0  0  0  0  0  0  0  0  0  0
   13.2612  -17.4820   20.7906 C   0  0  2  0  0  0  0  0  0  0  0  0
   14.0889  -18.0587   19.6946 N   0  0  0  0  0  0  0  0  0  0  0  0
   14.1753  -17.3588   21.9457 C   0  0  0  0  0  0  0  0  0  0  0  0
   13.6717  -16.8960   23.0361 O   0  0  0  0  0  0  0  0  0  0  0  0
   15.5301  -17.6920   21.9963 N   0  0  0  0  0  0  0  0  0  0  0  0
   16.3483  -17.4600   23.2032 C   0  0  1  0  0  0  0  0  0  0  0  0
   17.0150  -18.7333   23.6068 C   0  0  0  0  0  0  0  0  0  0  0  0
   16.0732  -19.7451   24.1164 C   0  0  0  0  0  0  0  0  0  0  0  0
   15.0615  -19.6085   25.0660 C   0  0  0  0  0  0  0  0  0  0  0  0
   14.4362  -20.7851   25.2400 N   0  0  0  0  0  0  0  0  0  0  0  0
   15.0318  -21.6684   24.4180 C   0  0  0  0  0  0  0  0  0  0  0  0
   16.0144  -21.0374   23.7459 N   0  0  0  0  0  0  0  0  0  0  0  0
   17.3432  -16.4046   22.9678 C   0  0  0  0  0  0  0  0  0  0  0  0
   18.1894  -16.0767   23.8331 O   0  0  0  0  0  0  0  0  0  0  0  0
   17.3441  -15.7506   21.7463 O   0  0  0  0  0  0  0  0  0  0  0  0
  2  1  1  1
  2  3  1  0
  4  3  1  0
  4  5  2  0
  6  2  1  0
  7  6  2  0
  8  4  1  0
 10  9  1  0
 11 10  2  0
 12 10  1  0
 13 12  1  1
 13 14  1  0
 14  6  1  0
 15 13  1  0
 15 16  2  0
 17 15  1  0
 18 17  1  0
 18 19  1  6
 19 20  1  0
 20 21  2  0
 21 22  1  0
 23 22  1  0
 24 20  1  0
 24 23  2  0
 25 18  1  0
 26 25  2  0
 27 25  1  0
M  END
$$$$
