FPD.pdb
     RDKit          3D

 27 28  0  0  1  0  0  0  0  0999 V2000
   22.0468  -20.2967  -18.8499 N   0  0  0  0  0  0  0  0  0  0  0  0
   21.8724  -19.5804  -17.6341 C   0  0  1  0  0  0  0  0  0  0  0  0
   21.2341  -18.2417  -17.9241 C   0  0  0  0  0  0  0  0  0  0  0  0
   22.0004  -17.4804  -18.9134 C   0  0  0  0  0  0  0  0  0  0  0  0
   23.2510  -16.9683  -18.6385 C   0  0  0  0  0  0  0  0  0  0  0  0
   23.9529  -16.2380  -19.6070 C   0  0  0  0  0  0  0  0  0  0  0  0
   23.4198  -16.0126  -20.8500 C   0  0  0  0  0  0  0  0  0  0  0  0
   22.1796  -16.5112  -21.1471 C   0  0  0  0  0  0  0  0  0  0  0  0
   21.5111  -17.2216  -20.1865 C   0  0  0  0  0  0  0  0  0  0  0  0
   21.1462  -20.2868  -16.5706 C   0  0  0  0  0  0  0  0  0  0  0  0
   20.1609  -20.9962  -16.8992 O   0  0  0  0  0  0  0  0  0  0  0  0
   21.5137  -20.1957  -15.2047 N   0  0  0  0  0  0  0  0  0  0  0  0
   22.6123  -19.4428  -14.6838 C   0  0  0  0  0  0  0  0  0  0  0  0
   22.5918  -19.5823  -13.1712 C   0  0  0  0  0  0  0  0  0  0  0  0
   21.7621  -20.8266  -12.9098 C   0  0  0  0  0  0  0  0  0  0  0  0
   20.8361  -20.8490  -14.0931 C   0  0  1  0  0  0  0  0  0  0  0  0
   19.5222  -20.2263  -13.8131 C   0  0  0  0  0  0  0  0  0  0  0  0
   19.2750  -19.1339  -14.3856 O   0  0  0  0  0  0  0  0  0  0  0  0
   18.5398  -20.7603  -12.9628 N   0  0  0  0  0  0  0  0  0  0  0  0
   17.1305  -20.8308  -13.2234 C   0  0  1  0  0  0  0  0  0  0  0  0
   16.8501  -20.4037  -14.6318 C   0  0  0  0  0  0  0  0  0  0  0  0
   15.4202  -20.4498  -14.9965 C   0  0  0  0  0  0  0  0  0  0  0  0
   14.5251  -20.0745  -14.1760 O   0  0  0  0  0  0  0  0  0  0  0  0
   16.5731  -22.1813  -12.9341 C   0  0  0  0  0  0  0  0  0  0  0  0
   16.6515  -23.0573  -13.8130 O   0  0  0  0  0  0  0  0  0  0  0  0
   14.9532  -20.8920  -16.2245 O   0  0  0  0  0  0  0  0  0  0  0  0
   15.9885  -22.4090  -11.6964 O   0  0  0  0  0  0  0  0  0  0  0  0
  2  1  1  6
  3  2  1  0
  4  9  1  0
  4  3  1  0
  5  4  2  0
  6  7  2  0
  6  5  1  0
  7  8  1  0
  8  9  2  0
 10  2  1  0
 11 10  2  0
 12 13  1  0
 12 10  1  0
 14 13  1  0
 15 16  1  0
 15 14  1  0
 16 12  1  0
 17 18  2  0
 16 17  1  1
 19 17  1  0
 20 21  1  6
 20 19  1  0
 22 26  1  0
 22 21  1  0
 23 22  2  0
 24 20  1  0
 25 24  2  0
 27 24  1  0
M  END
$$$$
