FPD.pdb
     RDKit          3D

 27 28  0  0  1  0  0  0  0  0999 V2000
   22.5309  -13.8250  -17.8107 N   0  0  0  0  0  0  0  0  0  0  0  0
   23.3797  -12.6843  -17.8199 C   0  0  1  0  0  0  0  0  0  0  0  0
   22.9596  -11.7516  -18.9324 C   0  0  0  0  0  0  0  0  0  0  0  0
   23.1369  -12.3670  -20.2496 C   0  0  0  0  0  0  0  0  0  0  0  0
   24.3843  -12.6151  -20.7828 C   0  0  0  0  0  0  0  0  0  0  0  0
   24.5166  -13.1988  -22.0501 C   0  0  0  0  0  0  0  0  0  0  0  0
   23.4155  -13.5388  -22.7930 C   0  0  0  0  0  0  0  0  0  0  0  0
   22.1661  -13.3027  -22.2850 C   0  0  0  0  0  0  0  0  0  0  0  0
   22.0593  -12.7316  -21.0454 C   0  0  0  0  0  0  0  0  0  0  0  0
   23.4977  -11.9608  -16.5472 C   0  0  0  0  0  0  0  0  0  0  0  0
   22.5251  -12.0045  -15.7508 O   0  0  0  0  0  0  0  0  0  0  0  0
   24.6554  -11.2241  -16.1922 N   0  0  0  0  0  0  0  0  0  0  0  0
   25.8621  -11.1457  -16.9556 C   0  0  0  0  0  0  0  0  0  0  0  0
   26.8060  -10.2009  -16.2315 C   0  0  0  0  0  0  0  0  0  0  0  0
   26.2859  -10.1536  -14.8059 C   0  0  0  0  0  0  0  0  0  0  0  0
   24.8180  -10.4160  -14.9912 C   0  0  1  0  0  0  0  0  0  0  0  0
   24.0108   -9.1764  -15.0543 C   0  0  0  0  0  0  0  0  0  0  0  0
   23.9553   -8.4778  -14.0097 O   0  0  0  0  0  0  0  0  0  0  0  0
   23.3084   -8.7262  -16.1845 N   0  0  0  0  0  0  0  0  0  0  0  0
   22.5509   -7.5124  -16.2926 C   0  0  1  0  0  0  0  0  0  0  0  0
   22.9479   -6.7721  -17.5332 C   0  0  0  0  0  0  0  0  0  0  0  0
   22.1351   -5.5680  -17.7962 C   0  0  0  0  0  0  0  0  0  0  0  0
   21.4396   -5.0361  -16.8750 O   0  0  0  0  0  0  0  0  0  0  0  0
   21.0832   -7.7602  -16.2429 C   0  0  0  0  0  0  0  0  0  0  0  0
   20.6471   -8.8373  -16.6851 O   0  0  0  0  0  0  0  0  0  0  0  0
   22.0669   -4.9401  -19.0303 O   0  0  0  0  0  0  0  0  0  0  0  0
   20.2604   -6.7805  -15.7056 O   0  0  0  0  0  0  0  0  0  0  0  0
  2  1  1  1
  3  2  1  0
  4  9  1  0
  4  3  1  0
  5  4  2  0
  6  7  2  0
  6  5  1  0
  7  8  1  0
  8  9  2  0
 10  2  1  0
 11 10  2  0
 12 13  1  0
 12 10  1  0
 14 13  1  0
 15 16  1  0
 15 14  1  0
 16 12  1  0
 17 18  2  0
 16 17  1  6
 19 17  1  0
 20 21  1  6
 20 19  1  0
 22 26  1  0
 22 21  1  0
 23 22  2  0
 24 20  1  0
 25 24  2  0
 27 24  1  0
M  END
$$$$
