FPD.pdb
     RDKit          3D

 27 28  0  0  1  0  0  0  0  0999 V2000
   21.3605  -12.5134  -18.0221 N   0  0  0  0  0  0  0  0  0  0  0  0
   21.7833  -11.2535  -18.5275 C   0  0  1  0  0  0  0  0  0  0  0  0
   20.8427  -10.8079  -19.6232 C   0  0  0  0  0  0  0  0  0  0  0  0
   20.8070  -11.7681  -20.7287 C   0  0  0  0  0  0  0  0  0  0  0  0
   21.9056  -12.0120  -21.5258 C   0  0  0  0  0  0  0  0  0  0  0  0
   21.8335  -12.9325  -22.5801 C   0  0  0  0  0  0  0  0  0  0  0  0
   20.6746  -13.6144  -22.8485 C   0  0  0  0  0  0  0  0  0  0  0  0
   19.5702  -13.3897  -22.0709 C   0  0  0  0  0  0  0  0  0  0  0  0
   19.6622  -12.4863  -21.0464 C   0  0  0  0  0  0  0  0  0  0  0  0
   21.9668  -10.1902  -17.5311 C   0  0  0  0  0  0  0  0  0  0  0  0
   21.1167  -10.0916  -16.6094 O   0  0  0  0  0  0  0  0  0  0  0  0
   23.0551   -9.2831  -17.5741 N   0  0  0  0  0  0  0  0  0  0  0  0
   24.1282   -9.3103  -18.5192 C   0  0  0  0  0  0  0  0  0  0  0  0
   25.0286   -8.1214  -18.2297 C   0  0  0  0  0  0  0  0  0  0  0  0
   24.7021   -7.7294  -16.7997 C   0  0  0  0  0  0  0  0  0  0  0  0
   23.2697   -8.1637  -16.6671 C   0  0  1  0  0  0  0  0  0  0  0  0
   22.3061   -7.0674  -16.9159 C   0  0  0  0  0  0  0  0  0  0  0  0
   21.9943   -6.8426  -18.1136 O   0  0  0  0  0  0  0  0  0  0  0  0
   21.7191   -6.2666  -15.9222 N   0  0  0  0  0  0  0  0  0  0  0  0
   20.7572   -5.2212  -16.1245 C   0  0  1  0  0  0  0  0  0  0  0  0
   19.4514   -5.6009  -15.4957 C   0  0  0  0  0  0  0  0  0  0  0  0
   18.4186   -4.5495  -15.5825 C   0  0  0  0  0  0  0  0  0  0  0  0
   18.4740   -3.6530  -16.4816 O   0  0  0  0  0  0  0  0  0  0  0  0
   21.2466   -3.9045  -15.6298 C   0  0  0  0  0  0  0  0  0  0  0  0
   22.2284   -3.8839  -14.8672 O   0  0  0  0  0  0  0  0  0  0  0  0
   17.3390   -4.4581  -14.7177 O   0  0  0  0  0  0  0  0  0  0  0  0
   20.5887   -2.7533  -16.0387 O   0  0  0  0  0  0  0  0  0  0  0  0
  2  1  1  1
  3  2  1  0
  4  9  1  0
  4  3  1  0
  5  4  2  0
  6  7  2  0
  6  5  1  0
  7  8  1  0
  8  9  2  0
 10  2  1  0
 11 10  2  0
 12 13  1  0
 12 10  1  0
 14 13  1  0
 15 16  1  0
 15 14  1  0
 16 12  1  0
 17 18  2  0
 16 17  1  6
 19 17  1  0
 20 21  1  1
 20 19  1  0
 22 26  1  0
 22 21  1  0
 23 22  2  0
 24 20  1  0
 25 24  2  0
 27 24  1  0
M  END
$$$$
