FPD.pdb
     RDKit          3D

 27 28  0  0  1  0  0  0  0  0999 V2000
   23.4520  -20.3438  -17.4502 N   0  0  0  0  0  0  0  0  0  0  0  0
   23.9619  -19.4970  -16.4282 C   0  0  1  0  0  0  0  0  0  0  0  0
   22.8262  -18.7205  -15.8029 C   0  0  0  0  0  0  0  0  0  0  0  0
   22.2217  -17.7858  -16.7549 C   0  0  0  0  0  0  0  0  0  0  0  0
   22.9124  -16.7061  -17.2637 C   0  0  0  0  0  0  0  0  0  0  0  0
   22.2999  -15.8274  -18.1675 C   0  0  0  0  0  0  0  0  0  0  0  0
   21.0028  -16.0146  -18.5706 C   0  0  0  0  0  0  0  0  0  0  0  0
   20.2962  -17.0798  -18.0796 C   0  0  0  0  0  0  0  0  0  0  0  0
   20.9135  -17.9257  -17.1977 C   0  0  0  0  0  0  0  0  0  0  0  0
   24.7771  -20.1528  -15.3975 C   0  0  0  0  0  0  0  0  0  0  0  0
   24.3377  -21.2135  -14.8836 O   0  0  0  0  0  0  0  0  0  0  0  0
   26.0252  -19.6364  -14.9679 N   0  0  0  0  0  0  0  0  0  0  0  0
   26.7005  -18.5083  -15.5307 C   0  0  0  0  0  0  0  0  0  0  0  0
   27.9659  -18.2772  -14.7224 C   0  0  0  0  0  0  0  0  0  0  0  0
   28.2227  -19.5993  -14.0215 C   0  0  0  0  0  0  0  0  0  0  0  0
   26.8363  -20.1607  -13.8776 C   0  0  1  0  0  0  0  0  0  0  0  0
   26.2285  -19.8733  -12.5584 C   0  0  0  0  0  0  0  0  0  0  0  0
   25.6488  -18.7648  -12.4266 O   0  0  0  0  0  0  0  0  0  0  0  0
   26.2509  -20.7392  -11.4525 N   0  0  0  0  0  0  0  0  0  0  0  0
   25.6778  -20.4909  -10.1607 C   0  0  1  0  0  0  0  0  0  0  0  0
   24.9570  -21.7128   -9.6789 C   0  0  0  0  0  0  0  0  0  0  0  0
   24.4516  -21.6019   -8.2962 C   0  0  0  0  0  0  0  0  0  0  0  0
   24.2948  -22.6358   -7.5739 O   0  0  0  0  0  0  0  0  0  0  0  0
   26.6933  -20.0243   -9.1763 C   0  0  0  0  0  0  0  0  0  0  0  0
   26.3445  -19.2111   -8.3028 O   0  0  0  0  0  0  0  0  0  0  0  0
   24.1179  -20.3992   -7.6930 O   0  0  0  0  0  0  0  0  0  0  0  0
   27.9878  -20.5147   -9.2721 O   0  0  0  0  0  0  0  0  0  0  0  0
  2  1  1  6
  3  2  1  0
  4  9  1  0
  4  3  1  0
  5  4  2  0
  6  7  2  0
  6  5  1  0
  7  8  1  0
  8  9  2  0
 10  2  1  0
 11 10  2  0
 12 13  1  0
 12 10  1  0
 14 13  1  0
 15 16  1  0
 15 14  1  0
 16 12  1  0
 17 18  2  0
 16 17  1  1
 19 17  1  0
 20 21  1  1
 20 19  1  0
 22 26  1  0
 22 21  1  0
 23 22  2  0
 24 20  1  0
 25 24  2  0
 27 24  1  0
M  END
$$$$
