FPD.pdb
     RDKit          3D

 27 28  0  0  1  0  0  0  0  0999 V2000
   27.8204  -21.0958  -16.5377 N   0  0  0  0  0  0  0  0  0  0  0  0
   27.3916  -20.4213  -15.3618 C   0  0  1  0  0  0  0  0  0  0  0  0
   27.0223  -18.9963  -15.7036 C   0  0  0  0  0  0  0  0  0  0  0  0
   28.1331  -18.2890  -16.3448 C   0  0  0  0  0  0  0  0  0  0  0  0
   27.9949  -17.6528  -17.5606 C   0  0  0  0  0  0  0  0  0  0  0  0
   29.0817  -16.9916  -18.1488 C   0  0  0  0  0  0  0  0  0  0  0  0
   30.3078  -16.9579  -17.5359 C   0  0  0  0  0  0  0  0  0  0  0  0
   30.4699  -17.5821  -16.3280 C   0  0  0  0  0  0  0  0  0  0  0  0
   29.3955  -18.2221  -15.7711 C   0  0  0  0  0  0  0  0  0  0  0  0
   26.3157  -21.0729  -14.6034 C   0  0  0  0  0  0  0  0  0  0  0  0
   25.4481  -21.7187  -15.2456 O   0  0  0  0  0  0  0  0  0  0  0  0
   26.2237  -20.9983  -13.1910 N   0  0  0  0  0  0  0  0  0  0  0  0
   27.2253  -20.4732  -12.3155 C   0  0  0  0  0  0  0  0  0  0  0  0
   26.6785  -20.5340  -10.8994 C   0  0  0  0  0  0  0  0  0  0  0  0
   25.5603  -21.5591  -10.9613 C   0  0  0  0  0  0  0  0  0  0  0  0
   25.0936  -21.4392  -12.3847 C   0  0  1  0  0  0  0  0  0  0  0  0
   23.9288  -20.5383  -12.5390 C   0  0  0  0  0  0  0  0  0  0  0  0
   24.1641  -19.3602  -12.9115 O   0  0  0  0  0  0  0  0  0  0  0  0
   22.5918  -20.8985  -12.3023 N   0  0  0  0  0  0  0  0  0  0  0  0
   21.4307  -20.3332  -12.9277 C   0  0  1  0  0  0  0  0  0  0  0  0
   21.5675  -20.4061  -14.4179 C   0  0  0  0  0  0  0  0  0  0  0  0
   20.4062  -19.8649  -15.1515 C   0  0  0  0  0  0  0  0  0  0  0  0
   19.3150  -20.5133  -15.2158 O   0  0  0  0  0  0  0  0  0  0  0  0
   20.1714  -20.9735  -12.4564 C   0  0  0  0  0  0  0  0  0  0  0  0
   19.2478  -20.2441  -12.0552 O   0  0  0  0  0  0  0  0  0  0  0  0
   20.4120  -18.6443  -15.8087 O   0  0  0  0  0  0  0  0  0  0  0  0
   20.0777  -22.3577  -12.4835 O   0  0  0  0  0  0  0  0  0  0  0  0
  2  1  1  6
  3  2  1  0
  4  9  1  0
  4  3  1  0
  5  4  2  0
  6  7  2  0
  6  5  1  0
  7  8  1  0
  8  9  2  0
 10  2  1  0
 11 10  2  0
 12 13  1  0
 12 10  1  0
 14 13  1  0
 15 16  1  0
 15 14  1  0
 16 12  1  0
 17 18  2  0
 16 17  1  1
 19 17  1  0
 20 21  1  6
 20 19  1  0
 22 26  1  0
 22 21  1  0
 23 22  2  0
 24 20  1  0
 25 24  2  0
 27 24  1  0
M  END
$$$$
