FPD.pdb
     RDKit          3D

 27 28  0  0  1  0  0  0  0  0999 V2000
   16.8169  -21.6098    3.6171 N   0  0  0  0  0  0  0  0  0  0  0  0
   17.8954  -20.8177    4.0980 C   0  0  1  0  0  0  0  0  0  0  0  0
   17.7333  -19.3960    3.6120 C   0  0  0  0  0  0  0  0  0  0  0  0
   18.5099  -19.1488    2.3951 C   0  0  0  0  0  0  0  0  0  0  0  0
   18.0741  -19.5527    1.1506 C   0  0  0  0  0  0  0  0  0  0  0  0
   18.8470  -19.3059    0.0078 C   0  0  0  0  0  0  0  0  0  0  0  0
   20.0529  -18.6588    0.0931 C   0  0  0  0  0  0  0  0  0  0  0  0
   20.5070  -18.2477    1.3177 C   0  0  0  0  0  0  0  0  0  0  0  0
   19.7364  -18.4989    2.4210 C   0  0  0  0  0  0  0  0  0  0  0  0
   18.1209  -20.8521    5.5489 C   0  0  0  0  0  0  0  0  0  0  0  0
   17.1278  -21.0445    6.2964 O   0  0  0  0  0  0  0  0  0  0  0  0
   19.4033  -20.6769    6.1266 N   0  0  0  0  0  0  0  0  0  0  0  0
   20.6139  -20.4193    5.4102 C   0  0  0  0  0  0  0  0  0  0  0  0
   21.7252  -20.2408    6.4306 C   0  0  0  0  0  0  0  0  0  0  0  0
   21.1981  -20.8976    7.6939 C   0  0  0  0  0  0  0  0  0  0  0  0
   19.7124  -20.7249    7.5493 C   0  0  1  0  0  0  0  0  0  0  0  0
   19.1953  -19.5336    8.2604 C   0  0  0  0  0  0  0  0  0  0  0  0
   19.1659  -18.4531    7.6171 O   0  0  0  0  0  0  0  0  0  0  0  0
   18.7390  -19.5205    9.5889 N   0  0  0  0  0  0  0  0  0  0  0  0
   18.2831  -18.3761   10.3249 C   0  0  1  0  0  0  0  0  0  0  0  0
   17.3594  -18.8099   11.4218 C   0  0  0  0  0  0  0  0  0  0  0  0
   16.8284  -17.6953   12.2313 C   0  0  0  0  0  0  0  0  0  0  0  0
   17.3678  -17.3771   13.3372 O   0  0  0  0  0  0  0  0  0  0  0  0
   19.4127  -17.5569   10.8453 C   0  0  0  0  0  0  0  0  0  0  0  0
   19.1825  -16.3905   11.2095 O   0  0  0  0  0  0  0  0  0  0  0  0
   15.7332  -16.9298   11.8622 O   0  0  0  0  0  0  0  0  0  0  0  0
   20.6766  -18.1264   10.9034 O   0  0  0  0  0  0  0  0  0  0  0  0
  2  1  1  1
  3  2  1  0
  4  9  1  0
  4  3  1  0
  5  4  2  0
  6  7  2  0
  6  5  1  0
  7  8  1  0
  8  9  2  0
 10  2  1  0
 11 10  2  0
 12 13  1  0
 12 10  1  0
 14 13  1  0
 15 16  1  0
 15 14  1  0
 16 12  1  0
 17 18  2  0
 16 17  1  1
 19 17  1  0
 20 21  1  1
 20 19  1  0
 22 26  1  0
 22 21  1  0
 23 22  2  0
 24 20  1  0
 25 24  2  0
 27 24  1  0
M  END
$$$$
