FPD.pdb
     RDKit          3D

 27 28  0  0  1  0  0  0  0  0999 V2000
   20.9028  -10.5263  -17.0265 N   0  0  0  0  0  0  0  0  0  0  0  0
   21.5614   -9.8006  -15.9963 C   0  0  1  0  0  0  0  0  0  0  0  0
   22.9973   -9.5491  -16.3947 C   0  0  0  0  0  0  0  0  0  0  0  0
   23.7239  -10.8012  -16.6170 C   0  0  0  0  0  0  0  0  0  0  0  0
   24.0661  -11.6458  -15.5819 C   0  0  0  0  0  0  0  0  0  0  0  0
   24.7684  -12.8329  -15.8305 C   0  0  0  0  0  0  0  0  0  0  0  0
   25.1337  -13.1878  -17.1035 C   0  0  0  0  0  0  0  0  0  0  0  0
   24.8050  -12.3657  -18.1481 C   0  0  0  0  0  0  0  0  0  0  0  0
   24.1190  -11.2110  -17.8832 C   0  0  0  0  0  0  0  0  0  0  0  0
   20.9105   -8.5545  -15.5711 C   0  0  0  0  0  0  0  0  0  0  0  0
   20.3291   -7.8635  -16.4467 O   0  0  0  0  0  0  0  0  0  0  0  0
   20.9168   -8.1105  -14.2251 N   0  0  0  0  0  0  0  0  0  0  0  0
   21.5131   -8.7978  -13.1217 C   0  0  0  0  0  0  0  0  0  0  0  0
   21.3346   -7.9310  -11.8869 C   0  0  0  0  0  0  0  0  0  0  0  0
   20.1956   -6.9902  -12.2373 C   0  0  0  0  0  0  0  0  0  0  0  0
   20.3213   -6.8766  -13.7305 C   0  0  1  0  0  0  0  0  0  0  0  0
   21.0936   -5.6881  -14.1585 C   0  0  0  0  0  0  0  0  0  0  0  0
   22.1440   -5.8974  -14.8180 O   0  0  0  0  0  0  0  0  0  0  0  0
   20.7433   -4.3555  -13.8852 N   0  0  0  0  0  0  0  0  0  0  0  0
   20.8695   -3.2384  -14.7769 C   0  0  1  0  0  0  0  0  0  0  0  0
   20.3785   -3.6165  -16.1409 C   0  0  0  0  0  0  0  0  0  0  0  0
   21.3774   -3.4224  -17.2105 C   0  0  0  0  0  0  0  0  0  0  0  0
   22.5402   -2.9830  -16.9455 O   0  0  0  0  0  0  0  0  0  0  0  0
   20.1794   -2.0250  -14.2579 C   0  0  0  0  0  0  0  0  0  0  0  0
   18.9499   -2.0716  -14.0786 O   0  0  0  0  0  0  0  0  0  0  0  0
   21.1356   -3.6951  -18.5480 O   0  0  0  0  0  0  0  0  0  0  0  0
   20.9344   -0.8910  -13.9948 O   0  0  0  0  0  0  0  0  0  0  0  0
  2  1  1  6
  3  2  1  0
  4  9  1  0
  4  3  1  0
  5  4  2  0
  6  7  2  0
  6  5  1  0
  7  8  1  0
  8  9  2  0
 10  2  1  0
 11 10  2  0
 12 13  1  0
 12 10  1  0
 14 13  1  0
 15 16  1  0
 15 14  1  0
 16 12  1  0
 17 18  2  0
 16 17  1  1
 19 17  1  0
 20 21  1  6
 20 19  1  0
 22 26  1  0
 22 21  1  0
 23 22  2  0
 24 20  1  0
 25 24  2  0
 27 24  1  0
M  END
$$$$
