FPD.pdb
     RDKit          3D

 27 28  0  0  1  0  0  0  0  0999 V2000
   22.5594  -14.7679  -18.3865 N   0  0  0  0  0  0  0  0  0  0  0  0
   22.2732  -13.5630  -19.0852 C   0  0  1  0  0  0  0  0  0  0  0  0
   20.7933  -13.4913  -19.3826 C   0  0  0  0  0  0  0  0  0  0  0  0
   20.3379  -14.6564  -20.1446 C   0  0  0  0  0  0  0  0  0  0  0  0
   19.5232  -15.6226  -19.5927 C   0  0  0  0  0  0  0  0  0  0  0  0
   19.1126  -16.7285  -20.3492 C   0  0  0  0  0  0  0  0  0  0  0  0
   19.5065  -16.8815  -21.6536 C   0  0  0  0  0  0  0  0  0  0  0  0
   20.3153  -15.9353  -22.2241 C   0  0  0  0  0  0  0  0  0  0  0  0
   20.7049  -14.8630  -21.4674 C   0  0  0  0  0  0  0  0  0  0  0  0
   22.7393  -12.3245  -18.4480 C   0  0  0  0  0  0  0  0  0  0  0  0
   22.7065  -12.2579  -17.1924 O   0  0  0  0  0  0  0  0  0  0  0  0
   23.2176  -11.2165  -19.1914 N   0  0  0  0  0  0  0  0  0  0  0  0
   23.3283  -11.1517  -20.6158 C   0  0  0  0  0  0  0  0  0  0  0  0
   23.8254   -9.7624  -20.9775 C   0  0  0  0  0  0  0  0  0  0  0  0
   24.4581   -9.2349  -19.7021 C   0  0  0  0  0  0  0  0  0  0  0  0
   23.6763   -9.9502  -18.6366 C   0  0  1  0  0  0  0  0  0  0  0  0
   22.5510   -9.1476  -18.1057 C   0  0  0  0  0  0  0  0  0  0  0  0
   21.4233   -9.3273  -18.6332 O   0  0  0  0  0  0  0  0  0  0  0  0
   22.6484   -8.2085  -17.0657 N   0  0  0  0  0  0  0  0  0  0  0  0
   21.5631   -7.5023  -16.4473 C   0  0  1  0  0  0  0  0  0  0  0  0
   21.5219   -7.8120  -14.9820 C   0  0  0  0  0  0  0  0  0  0  0  0
   20.4196   -7.1449  -14.2612 C   0  0  0  0  0  0  0  0  0  0  0  0
   20.5736   -5.9867  -13.7611 O   0  0  0  0  0  0  0  0  0  0  0  0
   21.6306   -6.0362  -16.7005 C   0  0  0  0  0  0  0  0  0  0  0  0
   22.7254   -5.5370  -17.0141 O   0  0  0  0  0  0  0  0  0  0  0  0
   19.1671   -7.7100  -14.0776 O   0  0  0  0  0  0  0  0  0  0  0  0
   20.4704   -5.2851  -16.5768 O   0  0  0  0  0  0  0  0  0  0  0  0
  2  1  1  1
  3  2  1  0
  4  9  1  0
  4  3  1  0
  5  4  2  0
  6  7  2  0
  6  5  1  0
  7  8  1  0
  8  9  2  0
 10  2  1  0
 11 10  2  0
 12 13  1  0
 12 10  1  0
 14 13  1  0
 15 16  1  0
 15 14  1  0
 16 12  1  0
 17 18  2  0
 16 17  1  6
 19 17  1  0
 20 21  1  1
 20 19  1  0
 22 26  1  0
 22 21  1  0
 23 22  2  0
 24 20  1  0
 25 24  2  0
 27 24  1  0
M  END
$$$$
