FPD.pdb
     RDKit          3D

 27 28  0  0  1  0  0  0  0  0999 V2000
   27.5804  -22.5200  -16.2616 N   0  0  0  0  0  0  0  0  0  0  0  0
   27.0397  -21.5032  -15.4276 C   0  0  1  0  0  0  0  0  0  0  0  0
   26.5438  -20.3600  -16.2825 C   0  0  0  0  0  0  0  0  0  0  0  0
   27.6184  -19.4168  -16.6002 C   0  0  0  0  0  0  0  0  0  0  0  0
   28.3894  -19.5374  -17.7373 C   0  0  0  0  0  0  0  0  0  0  0  0
   29.4147  -18.6206  -18.0060 C   0  0  0  0  0  0  0  0  0  0  0  0
   29.6798  -17.5819  -17.1510 C   0  0  0  0  0  0  0  0  0  0  0  0
   28.9278  -17.4409  -16.0155 C   0  0  0  0  0  0  0  0  0  0  0  0
   27.9313  -18.3476  -15.7720 C   0  0  0  0  0  0  0  0  0  0  0  0
   26.0051  -21.9336  -14.4782 C   0  0  0  0  0  0  0  0  0  0  0  0
   25.1643  -22.7845  -14.8668 O   0  0  0  0  0  0  0  0  0  0  0  0
   25.9234  -21.4277  -13.1566 N   0  0  0  0  0  0  0  0  0  0  0  0
   26.9399  -20.6790  -12.4847 C   0  0  0  0  0  0  0  0  0  0  0  0
   26.4010  -20.2919  -11.1180 C   0  0  0  0  0  0  0  0  0  0  0  0
   25.2638  -21.2648  -10.8621 C   0  0  0  0  0  0  0  0  0  0  0  0
   24.7905  -21.5781  -12.2535 C   0  0  1  0  0  0  0  0  0  0  0  0
   23.6414  -20.7455  -12.6762 C   0  0  0  0  0  0  0  0  0  0  0  0
   23.8866  -19.7864  -13.4523 O   0  0  0  0  0  0  0  0  0  0  0  0
   22.3091  -20.9454  -12.2784 N   0  0  0  0  0  0  0  0  0  0  0  0
   21.1524  -20.9328  -13.1275 C   0  0  1  0  0  0  0  0  0  0  0  0
   21.3553  -21.8685  -14.2798 C   0  0  0  0  0  0  0  0  0  0  0  0
   20.2375  -21.8797  -15.2442 C   0  0  0  0  0  0  0  0  0  0  0  0
   20.4223  -22.2244  -16.4534 O   0  0  0  0  0  0  0  0  0  0  0  0
   19.9028  -21.2415  -12.3784 C   0  0  0  0  0  0  0  0  0  0  0  0
   19.7831  -22.3651  -11.8596 O   0  0  0  0  0  0  0  0  0  0  0  0
   18.9371  -21.5263  -14.9189 O   0  0  0  0  0  0  0  0  0  0  0  0
   18.9218  -20.2642  -12.2887 O   0  0  0  0  0  0  0  0  0  0  0  0
  2  1  1  6
  3  2  1  0
  4  9  1  0
  4  3  1  0
  5  4  2  0
  6  7  2  0
  6  5  1  0
  7  8  1  0
  8  9  2  0
 10  2  1  0
 11 10  2  0
 12 13  1  0
 12 10  1  0
 14 13  1  0
 15 16  1  0
 15 14  1  0
 16 12  1  0
 17 18  2  0
 16 17  1  6
 19 17  1  0
 20 21  1  6
 20 19  1  0
 22 26  1  0
 22 21  1  0
 23 22  2  0
 24 20  1  0
 25 24  2  0
 27 24  1  0
M  END
$$$$
