FPD.pdb
     RDKit          3D

 27 28  0  0  1  0  0  0  0  0999 V2000
   26.7229  -21.2581  -17.0857 N   0  0  0  0  0  0  0  0  0  0  0  0
   26.5237  -20.5375  -15.8763 C   0  0  1  0  0  0  0  0  0  0  0  0
   25.9862  -19.1608  -16.1918 C   0  0  0  0  0  0  0  0  0  0  0  0
   27.0410  -18.2660  -16.6737 C   0  0  0  0  0  0  0  0  0  0  0  0
   28.0190  -17.7669  -15.8393 C   0  0  0  0  0  0  0  0  0  0  0  0
   29.0091  -16.9067  -16.3332 C   0  0  0  0  0  0  0  0  0  0  0  0
   29.0345  -16.5383  -17.6537 C   0  0  0  0  0  0  0  0  0  0  0  0
   28.0743  -17.0210  -18.5021 C   0  0  0  0  0  0  0  0  0  0  0  0
   27.1163  -17.8598  -17.9990 C   0  0  0  0  0  0  0  0  0  0  0  0
   25.6961  -21.2022  -14.8612 C   0  0  0  0  0  0  0  0  0  0  0  0
   24.7165  -21.8867  -15.2537 O   0  0  0  0  0  0  0  0  0  0  0  0
   25.9607  -21.0982  -13.4726 N   0  0  0  0  0  0  0  0  0  0  0  0
   27.1838  -20.6434  -12.8873 C   0  0  0  0  0  0  0  0  0  0  0  0
   26.9996  -20.6371  -11.3793 C   0  0  0  0  0  0  0  0  0  0  0  0
   25.8264  -21.5679  -11.1301 C   0  0  0  0  0  0  0  0  0  0  0  0
   25.0340  -21.4323  -12.3997 C   0  0  1  0  0  0  0  0  0  0  0  0
   23.9386  -20.4415  -12.2965 C   0  0  0  0  0  0  0  0  0  0  0  0
   24.1977  -19.2648  -12.6577 O   0  0  0  0  0  0  0  0  0  0  0  0
   22.6426  -20.7155  -11.8291 N   0  0  0  0  0  0  0  0  0  0  0  0
   21.4164  -20.1777  -12.3450 C   0  0  1  0  0  0  0  0  0  0  0  0
   21.3496  -20.3901  -13.8266 C   0  0  0  0  0  0  0  0  0  0  0  0
   20.0699  -19.9725  -14.4328 C   0  0  0  0  0  0  0  0  0  0  0  0
   19.5784  -18.8250  -14.1942 O   0  0  0  0  0  0  0  0  0  0  0  0
   20.2226  -20.7372  -11.6523 C   0  0  0  0  0  0  0  0  0  0  0  0
   20.1114  -21.9724  -11.5638 O   0  0  0  0  0  0  0  0  0  0  0  0
   19.3245  -20.7730  -15.2845 O   0  0  0  0  0  0  0  0  0  0  0  0
   19.2819  -19.8592  -11.1330 O   0  0  0  0  0  0  0  0  0  0  0  0
  2  1  1  6
  3  2  1  0
  4  9  1  0
  4  3  1  0
  5  4  2  0
  6  7  2  0
  6  5  1  0
  7  8  1  0
  8  9  2  0
 10  2  1  0
 11 10  2  0
 12 13  1  0
 12 10  1  0
 14 13  1  0
 15 16  1  0
 15 14  1  0
 16 12  1  0
 17 18  2  0
 16 17  1  1
 19 17  1  0
 20 21  1  6
 20 19  1  0
 22 26  1  0
 22 21  1  0
 23 22  2  0
 24 20  1  0
 25 24  2  0
 27 24  1  0
M  END
$$$$
