FPD.pdb
     RDKit          3D

 27 28  0  0  1  0  0  0  0  0999 V2000
   15.5699  -21.8990    5.7611 N   0  0  0  0  0  0  0  0  0  0  0  0
   16.8487  -21.3133    5.5533 C   0  0  1  0  0  0  0  0  0  0  0  0
   17.0144  -20.9686    4.0913 C   0  0  0  0  0  0  0  0  0  0  0  0
   16.9388  -22.1602    3.2430 C   0  0  0  0  0  0  0  0  0  0  0  0
   17.9941  -23.0386    3.1144 C   0  0  0  0  0  0  0  0  0  0  0  0
   17.8893  -24.1654    2.2876 C   0  0  0  0  0  0  0  0  0  0  0  0
   16.7404  -24.4264    1.5863 C   0  0  0  0  0  0  0  0  0  0  0  0
   15.6786  -23.5691    1.6978 C   0  0  0  0  0  0  0  0  0  0  0  0
   15.8021  -22.4744    2.5106 C   0  0  0  0  0  0  0  0  0  0  0  0
   17.1727  -20.1597    6.4027 C   0  0  0  0  0  0  0  0  0  0  0  0
   16.2270  -19.4236    6.7848 O   0  0  0  0  0  0  0  0  0  0  0  0
   18.4982  -19.8522    6.7998 N   0  0  0  0  0  0  0  0  0  0  0  0
   19.6737  -20.5679    6.4111 C   0  0  0  0  0  0  0  0  0  0  0  0
   20.8703  -19.8540    7.0166 C   0  0  0  0  0  0  0  0  0  0  0  0
   20.2924  -19.0268    8.1510 C   0  0  0  0  0  0  0  0  0  0  0  0
   18.8956  -18.7531    7.6692 C   0  0  1  0  0  0  0  0  0  0  0  0
   18.7627  -17.4444    6.9895 C   0  0  0  0  0  0  0  0  0  0  0  0
   18.5697  -17.4638    5.7467 O   0  0  0  0  0  0  0  0  0  0  0  0
   18.8354  -16.1933    7.6242 N   0  0  0  0  0  0  0  0  0  0  0  0
   18.0907  -15.0159    7.2805 C   0  0  1  0  0  0  0  0  0  0  0  0
   16.6307  -15.3417    7.1982 C   0  0  0  0  0  0  0  0  0  0  0  0
   15.9807  -14.8637    5.9618 C   0  0  0  0  0  0  0  0  0  0  0  0
   16.6504  -14.2676    5.0610 O   0  0  0  0  0  0  0  0  0  0  0  0
   18.3538  -13.8910    8.2204 C   0  0  0  0  0  0  0  0  0  0  0  0
   18.3852  -14.1307    9.4401 O   0  0  0  0  0  0  0  0  0  0  0  0
   14.6302  -15.0214    5.6920 O   0  0  0  0  0  0  0  0  0  0  0  0
   18.5533  -12.6207    7.6991 O   0  0  0  0  0  0  0  0  0  0  0  0
  2  1  1  6
  3  2  1  0
  4  9  1  0
  4  3  1  0
  5  4  2  0
  6  7  2  0
  6  5  1  0
  7  8  1  0
  8  9  2  0
 10  2  1  0
 11 10  2  0
 12 13  1  0
 12 10  1  0
 14 13  1  0
 15 16  1  0
 15 14  1  0
 16 12  1  0
 17 18  2  0
 16 17  1  6
 19 17  1  0
 20 21  1  1
 20 19  1  0
 22 26  1  0
 22 21  1  0
 23 22  2  0
 24 20  1  0
 25 24  2  0
 27 24  1  0
M  END
$$$$
