FPD.pdb
     RDKit          3D

 27 28  0  0  1  0  0  0  0  0999 V2000
   27.1283  -21.3265  -16.9518 N   0  0  0  0  0  0  0  0  0  0  0  0
   27.5047  -20.4850  -15.8692 C   0  0  1  0  0  0  0  0  0  0  0  0
   26.9100  -19.1100  -16.0684 C   0  0  0  0  0  0  0  0  0  0  0  0
   27.4543  -18.4529  -17.2588 C   0  0  0  0  0  0  0  0  0  0  0  0
   28.7524  -17.9904  -17.3139 C   0  0  0  0  0  0  0  0  0  0  0  0
   29.2379  -17.3594  -18.4673 C   0  0  0  0  0  0  0  0  0  0  0  0
   28.4407  -17.1844  -19.5691 C   0  0  0  0  0  0  0  0  0  0  0  0
   27.1482  -17.6352  -19.5388 C   0  0  0  0  0  0  0  0  0  0  0  0
   26.6941  -18.2487  -18.4023 C   0  0  0  0  0  0  0  0  0  0  0  0
   27.2051  -20.9949  -14.5248 C   0  0  0  0  0  0  0  0  0  0  0  0
   26.1155  -21.5991  -14.3517 O   0  0  0  0  0  0  0  0  0  0  0  0
   28.0909  -20.8298  -13.4307 N   0  0  0  0  0  0  0  0  0  0  0  0
   29.4054  -20.2706  -13.4974 C   0  0  0  0  0  0  0  0  0  0  0  0
   29.9628  -20.2314  -12.0846 C   0  0  0  0  0  0  0  0  0  0  0  0
   29.1269  -21.2363  -11.3122 C   0  0  0  0  0  0  0  0  0  0  0  0
   27.8172  -21.1969  -12.0479 C   0  0  1  0  0  0  0  0  0  0  0  0
   26.8303  -20.2847  -11.4264 C   0  0  0  0  0  0  0  0  0  0  0  0
   26.8109  -19.0972  -11.8407 O   0  0  0  0  0  0  0  0  0  0  0  0
   25.9217  -20.6439  -10.4170 N   0  0  0  0  0  0  0  0  0  0  0  0
   24.5246  -20.3200  -10.3697 C   0  0  1  0  0  0  0  0  0  0  0  0
   23.8535  -20.7709  -11.6311 C   0  0  0  0  0  0  0  0  0  0  0  0
   22.3853  -20.6167  -11.6145 C   0  0  0  0  0  0  0  0  0  0  0  0
   21.8108  -19.9360  -10.7079 O   0  0  0  0  0  0  0  0  0  0  0  0
   23.8595  -20.8786   -9.1599 C   0  0  0  0  0  0  0  0  0  0  0  0
   23.3557  -20.0899   -8.3412 O   0  0  0  0  0  0  0  0  0  0  0  0
   21.5414  -21.1838  -12.5568 O   0  0  0  0  0  0  0  0  0  0  0  0
   23.8281  -22.2558   -8.9935 O   0  0  0  0  0  0  0  0  0  0  0  0
  2  1  1  6
  3  2  1  0
  4  9  1  0
  4  3  1  0
  5  4  2  0
  6  7  2  0
  6  5  1  0
  7  8  1  0
  8  9  2  0
 10  2  1  0
 11 10  2  0
 12 13  1  0
 12 10  1  0
 14 13  1  0
 15 16  1  0
 15 14  1  0
 16 12  1  0
 17 18  2  0
 16 17  1  1
 19 17  1  0
 20 21  1  6
 20 19  1  0
 22 26  1  0
 22 21  1  0
 23 22  2  0
 24 20  1  0
 25 24  2  0
 27 24  1  0
M  END
$$$$
