FPD.pdb
     RDKit          3D

 27 28  0  0  1  0  0  0  0  0999 V2000
   24.9279  -19.1971   -9.4633 N   0  0  0  0  0  0  0  0  0  0  0  0
   25.9800  -19.7331  -10.2554 C   0  0  1  0  0  0  0  0  0  0  0  0
   26.5137  -20.9877   -9.6034 C   0  0  0  0  0  0  0  0  0  0  0  0
   27.2548  -20.6861   -8.3766 C   0  0  0  0  0  0  0  0  0  0  0  0
   26.6283  -20.2492   -7.2284 C   0  0  0  0  0  0  0  0  0  0  0  0
   27.3701  -19.9627   -6.0743 C   0  0  0  0  0  0  0  0  0  0  0  0
   28.7333  -20.1079   -6.0530 C   0  0  0  0  0  0  0  0  0  0  0  0
   29.3783  -20.5406   -7.1806 C   0  0  0  0  0  0  0  0  0  0  0  0
   28.6348  -20.8147   -8.2970 C   0  0  0  0  0  0  0  0  0  0  0  0
   25.6618  -19.9729  -11.6690 C   0  0  0  0  0  0  0  0  0  0  0  0
   24.4554  -19.9175  -12.0204 O   0  0  0  0  0  0  0  0  0  0  0  0
   26.6561  -20.2619  -12.6370 N   0  0  0  0  0  0  0  0  0  0  0  0
   27.9789  -20.7304  -12.3614 C   0  0  0  0  0  0  0  0  0  0  0  0
   28.6727  -20.9642  -13.6925 C   0  0  0  0  0  0  0  0  0  0  0  0
   27.8772  -20.1430  -14.6915 C   0  0  0  0  0  0  0  0  0  0  0  0
   26.5045  -20.1360  -14.0803 C   0  0  1  0  0  0  0  0  0  0  0  0
   25.6198  -21.1885  -14.6298 C   0  0  0  0  0  0  0  0  0  0  0  0
   25.8107  -22.3636  -14.2238 O   0  0  0  0  0  0  0  0  0  0  0  0
   24.5918  -20.9739  -15.5628 N   0  0  0  0  0  0  0  0  0  0  0  0
   23.6853  -21.9599  -16.0777 C   0  0  1  0  0  0  0  0  0  0  0  0
   22.2840  -21.4308  -16.0454 C   0  0  0  0  0  0  0  0  0  0  0  0
   21.8725  -20.9097  -14.7268 C   0  0  0  0  0  0  0  0  0  0  0  0
   22.0700  -21.5843  -13.6679 O   0  0  0  0  0  0  0  0  0  0  0  0
   24.0711  -22.4197  -17.4407 C   0  0  0  0  0  0  0  0  0  0  0  0
   24.9479  -21.7876  -18.0552 O   0  0  0  0  0  0  0  0  0  0  0  0
   21.2568  -19.6814  -14.5428 O   0  0  0  0  0  0  0  0  0  0  0  0
   23.4376  -23.5345  -17.9712 O   0  0  0  0  0  0  0  0  0  0  0  0
  2  1  1  1
  3  2  1  0
  4  9  1  0
  4  3  1  0
  5  4  2  0
  6  7  2  0
  6  5  1  0
  7  8  1  0
  8  9  2  0
 10  2  1  0
 11 10  2  0
 12 13  1  0
 12 10  1  0
 14 13  1  0
 15 16  1  0
 15 14  1  0
 16 12  1  0
 17 18  2  0
 16 17  1  6
 19 17  1  0
 20 21  1  6
 20 19  1  0
 22 26  1  0
 22 21  1  0
 23 22  2  0
 24 20  1  0
 25 24  2  0
 27 24  1  0
M  END
$$$$
