FPD.pdb
     RDKit          3D

 27 28  0  0  1  0  0  0  0  0999 V2000
   24.8496  -19.8816   -8.4531 N   0  0  0  0  0  0  0  0  0  0  0  0
   26.1142  -19.9003   -9.1027 C   0  0  1  0  0  0  0  0  0  0  0  0
   26.9834  -20.9708   -8.4842 C   0  0  0  0  0  0  0  0  0  0  0  0
   27.6487  -20.4924   -7.2702 C   0  0  0  0  0  0  0  0  0  0  0  0
   27.0290  -19.6410   -6.3797 C   0  0  0  0  0  0  0  0  0  0  0  0
   27.6986  -19.1971   -5.2313 C   0  0  0  0  0  0  0  0  0  0  0  0
   28.9827  -19.5944   -4.9607 C   0  0  0  0  0  0  0  0  0  0  0  0
   29.6192  -20.4397   -5.8297 C   0  0  0  0  0  0  0  0  0  0  0  0
   28.9471  -20.8612   -6.9454 C   0  0  0  0  0  0  0  0  0  0  0  0
   26.0835  -20.0318  -10.5652 C   0  0  0  0  0  0  0  0  0  0  0  0
   24.9608  -20.0863  -11.1297 O   0  0  0  0  0  0  0  0  0  0  0  0
   27.2614  -20.0992  -11.3506 N   0  0  0  0  0  0  0  0  0  0  0  0
   28.5702  -20.4145  -10.8679 C   0  0  0  0  0  0  0  0  0  0  0  0
   29.5103  -20.4335  -12.0612 C   0  0  0  0  0  0  0  0  0  0  0  0
   28.7895  -19.6355  -13.1329 C   0  0  0  0  0  0  0  0  0  0  0  0
   27.3453  -19.8632  -12.7856 C   0  0  1  0  0  0  0  0  0  0  0  0
   26.7307  -20.9676  -13.5569 C   0  0  0  0  0  0  0  0  0  0  0  0
   26.9313  -22.1366  -13.1384 O   0  0  0  0  0  0  0  0  0  0  0  0
   25.9467  -20.8080  -14.7116 N   0  0  0  0  0  0  0  0  0  0  0  0
   24.7133  -21.4792  -15.0068 C   0  0  1  0  0  0  0  0  0  0  0  0
   23.7900  -21.3906  -13.8303 C   0  0  0  0  0  0  0  0  0  0  0  0
   22.4782  -22.0309  -14.0509 C   0  0  0  0  0  0  0  0  0  0  0  0
   22.3681  -23.0523  -14.7992 O   0  0  0  0  0  0  0  0  0  0  0  0
   24.0761  -20.9618  -16.2495 C   0  0  0  0  0  0  0  0  0  0  0  0
   23.6595  -19.7903  -16.2603 O   0  0  0  0  0  0  0  0  0  0  0  0
   21.2977  -21.5840  -13.4777 O   0  0  0  0  0  0  0  0  0  0  0  0
   23.9721  -21.8062  -17.3457 O   0  0  0  0  0  0  0  0  0  0  0  0
  2  1  1  1
  3  2  1  0
  4  9  1  0
  4  3  1  0
  5  4  2  0
  6  7  2  0
  6  5  1  0
  7  8  1  0
  8  9  2  0
 10  2  1  0
 11 10  2  0
 12 13  1  0
 12 10  1  0
 14 13  1  0
 15 16  1  0
 15 14  1  0
 16 12  1  0
 17 18  2  0
 16 17  1  6
 19 17  1  0
 20 21  1  1
 20 19  1  0
 22 26  1  0
 22 21  1  0
 23 22  2  0
 24 20  1  0
 25 24  2  0
 27 24  1  0
M  END
$$$$
