NAK.pdb
     RDKit          3D

 23 22  0  0  1  0  0  0  0  0999 V2000
   18.1302  -14.8898   17.2662 N   0  0  0  0  0  0  0  0  0  0  0  0
   16.9508  -15.7077   17.4128 C   0  0  0  0  0  0  0  0  0  0  0  0
   16.9283  -16.7725   16.7553 O   0  0  0  0  0  0  0  0  0  0  0  0
   15.8976  -15.2197   18.3105 C   0  0  0  0  0  0  0  0  0  0  0  0
   14.5505  -15.1397   17.5954 C   0  0  2  0  0  0  0  0  0  0  0  0
   14.6465  -14.4666   16.3514 N   0  0  0  0  0  0  0  0  0  0  0  0
   13.5541  -14.6462   18.5398 C   0  0  0  0  0  0  0  0  0  0  0  0
   14.0056  -13.9415   19.5064 O   0  0  0  0  0  0  0  0  0  0  0  0
    9.8335  -14.2596   18.9961 C   0  0  0  0  0  0  0  0  0  0  0  0
   11.2509  -14.3568   19.5171 C   0  0  2  0  0  0  0  0  0  0  0  0
   12.1680  -14.8470   18.5204 N   0  0  0  0  0  0  0  0  0  0  0  0
   11.3206  -15.1450   20.7759 C   0  0  0  0  0  0  0  0  0  0  0  0
   10.5567  -14.8665   21.7358 O   0  0  0  0  0  0  0  0  0  0  0  0
   12.2168  -16.2213   20.9736 N   0  0  0  0  0  0  0  0  0  0  0  0
   12.2605  -16.9849   22.2108 C   0  0  1  0  0  0  0  0  0  0  0  0
   12.4310  -18.4313   22.0009 C   0  0  0  0  0  0  0  0  0  0  0  0
   11.5622  -18.9351   20.8831 C   0  0  0  0  0  0  0  0  0  0  0  0
   11.9188  -20.4127   20.5735 C   0  0  0  0  0  0  0  0  0  0  0  0
   11.0544  -20.9276   19.4573 C   0  0  0  0  0  0  0  0  0  0  0  0
   11.4012  -22.2845   19.0831 N   0  0  0  0  0  0  0  0  0  0  0  0
   13.2309  -16.3862   23.1442 C   0  0  0  0  0  0  0  0  0  0  0  0
   14.0196  -15.5053   22.7150 O   0  0  0  0  0  0  0  0  0  0  0  0
   13.3465  -16.7151   24.4739 O   0  0  0  0  0  0  0  0  0  0  0  0
  2  4  1  0
  2  1  1  0
  3  2  2  0
  5  6  1  6
  5  4  1  0
  7  8  2  0
  7  5  1  0
 10  9  1  6
 10 11  1  0
 10 12  1  0
 11  7  1  0
 12 14  1  0
 12 13  2  0
 14 15  1  0
 15 16  1  6
 15 21  1  0
 17 16  1  0
 18 17  1  0
 19 18  1  0
 20 19  1  0
 21 22  2  0
 21 23  1  0
M  END
$$$$
