NAK.pdb
     RDKit          3D

 23 22  0  0  1  0  0  0  0  0999 V2000
    7.4056  -13.5565   17.4904 N   0  0  0  0  0  0  0  0  0  0  0  0
    7.3560  -14.8356   18.1558 C   0  0  0  0  0  0  0  0  0  0  0  0
    7.1081  -15.8277   17.4341 O   0  0  0  0  0  0  0  0  0  0  0  0
    7.5987  -14.8542   19.6030 C   0  0  0  0  0  0  0  0  0  0  0  0
    7.7959  -13.4427   20.1517 C   0  0  2  0  0  0  0  0  0  0  0  0
    8.6453  -12.6635   19.3263 N   0  0  0  0  0  0  0  0  0  0  0  0
    8.1525  -13.5408   21.5629 C   0  0  0  0  0  0  0  0  0  0  0  0
    9.3751  -13.8231   21.8089 O   0  0  0  0  0  0  0  0  0  0  0  0
    6.7428  -12.9873   25.0332 C   0  0  0  0  0  0  0  0  0  0  0  0
    7.7335  -13.5657   24.0463 C   0  0  2  0  0  0  0  0  0  0  0  0
    7.3255  -13.3646   22.6797 N   0  0  0  0  0  0  0  0  0  0  0  0
    8.0282  -14.9937   24.3369 C   0  0  0  0  0  0  0  0  0  0  0  0
    7.2168  -15.8880   23.9845 O   0  0  0  0  0  0  0  0  0  0  0  0
    9.1970  -15.4288   25.0043 N   0  0  0  0  0  0  0  0  0  0  0  0
    9.5174  -16.8364   25.1822 C   0  0  1  0  0  0  0  0  0  0  0  0
   10.6754  -17.2785   24.3892 C   0  0  0  0  0  0  0  0  0  0  0  0
   10.9985  -18.7246   24.6395 C   0  0  0  0  0  0  0  0  0  0  0  0
   12.2466  -19.1288   23.8117 C   0  0  0  0  0  0  0  0  0  0  0  0
   12.5624  -20.5812   24.0328 C   0  0  0  0  0  0  0  0  0  0  0  0
   13.5946  -21.0560   23.1326 N   0  0  0  0  0  0  0  0  0  0  0  0
    9.6016  -17.1617   26.6169 C   0  0  0  0  0  0  0  0  0  0  0  0
    9.9317  -16.2557   27.4248 O   0  0  0  0  0  0  0  0  0  0  0  0
    9.3412  -18.3982   27.1579 O   0  0  0  0  0  0  0  0  0  0  0  0
  2  4  1  0
  2  1  1  0
  3  2  2  0
  5  6  1  6
  5  4  1  0
  7  8  2  0
  7  5  1  0
 10  9  1  1
 10 11  1  0
 10 12  1  0
 11  7  1  0
 12 14  1  0
 12 13  2  0
 14 15  1  0
 15 16  1  6
 15 21  1  0
 17 16  1  0
 18 17  1  0
 19 18  1  0
 20 19  1  0
 21 22  2  0
 21 23  1  0
M  END
$$$$
