NAK.pdb
     RDKit          3D

 23 22  0  0  1  0  0  0  0  0999 V2000
    7.5517  -17.7258   19.7315 N   0  0  0  0  0  0  0  0  0  0  0  0
    7.3625  -18.3150   21.0347 C   0  0  0  0  0  0  0  0  0  0  0  0
    6.7977  -19.4316   21.0626 O   0  0  0  0  0  0  0  0  0  0  0  0
    7.8453  -17.5575   22.1951 C   0  0  0  0  0  0  0  0  0  0  0  0
    8.3491  -16.1750   21.7861 C   0  0  2  0  0  0  0  0  0  0  0  0
    9.4316  -16.2504   20.8737 N   0  0  0  0  0  0  0  0  0  0  0  0
    8.5550  -15.3820   22.9932 C   0  0  0  0  0  0  0  0  0  0  0  0
    9.6796  -15.5441   23.5796 O   0  0  0  0  0  0  0  0  0  0  0  0
    6.8486  -12.7460   25.1290 C   0  0  0  0  0  0  0  0  0  0  0  0
    7.9573  -13.7172   24.7862 C   0  0  2  0  0  0  0  0  0  0  0  0
    7.6772  -14.4672   23.5889 N   0  0  0  0  0  0  0  0  0  0  0  0
    8.2875  -14.6016   25.9348 C   0  0  0  0  0  0  0  0  0  0  0  0
    7.5081  -15.5362   26.2537 O   0  0  0  0  0  0  0  0  0  0  0  0
    9.4563  -14.4587   26.7185 N   0  0  0  0  0  0  0  0  0  0  0  0
    9.7271  -15.2945   27.8777 C   0  0  1  0  0  0  0  0  0  0  0  0
   10.7731  -16.3022   27.6420 C   0  0  0  0  0  0  0  0  0  0  0  0
   11.0119  -17.1484   28.8607 C   0  0  0  0  0  0  0  0  0  0  0  0
   12.1022  -18.2077   28.5521 C   0  0  0  0  0  0  0  0  0  0  0  0
   12.3630  -19.0476   29.7706 C   0  0  0  0  0  0  0  0  0  0  0  0
   13.2844  -20.1324   29.4958 N   0  0  0  0  0  0  0  0  0  0  0  0
    9.9466  -14.4560   29.0694 C   0  0  0  0  0  0  0  0  0  0  0  0
   10.2721  -15.0123   30.1496 O   0  0  0  0  0  0  0  0  0  0  0  0
    9.8255  -13.0870   29.0988 O   0  0  0  0  0  0  0  0  0  0  0  0
  2  4  1  0
  2  1  1  0
  3  2  2  0
  5  6  1  1
  5  4  1  0
  7  8  2  0
  7  5  1  0
 10  9  1  1
 10 11  1  0
 10 12  1  0
 11  7  1  0
 12 14  1  0
 12 13  2  0
 14 15  1  0
 15 16  1  6
 15 21  1  0
 17 16  1  0
 18 17  1  0
 19 18  1  0
 20 19  1  0
 21 22  2  0
 21 23  1  0
M  END
$$$$
