NAK.pdb
     RDKit          3D

 23 22  0  0  1  0  0  0  0  0999 V2000
   10.7888  -17.3876   16.3579 N   0  0  0  0  0  0  0  0  0  0  0  0
    9.3729  -17.6616   16.3960 C   0  0  0  0  0  0  0  0  0  0  0  0
    8.7881  -17.7169   15.2908 O   0  0  0  0  0  0  0  0  0  0  0  0
    8.7561  -17.8481   17.7145 C   0  0  0  0  0  0  0  0  0  0  0  0
    9.7699  -17.6383   18.8372 C   0  0  2  0  0  0  0  0  0  0  0  0
   10.8669  -18.5309   18.7387 N   0  0  0  0  0  0  0  0  0  0  0  0
    9.0534  -17.6077   20.1076 C   0  0  0  0  0  0  0  0  0  0  0  0
    8.1533  -16.7062   20.2165 O   0  0  0  0  0  0  0  0  0  0  0  0
    8.5682  -19.6161   23.2709 C   0  0  0  0  0  0  0  0  0  0  0  0
    8.4642  -18.3562   22.4391 C   0  0  2  0  0  0  0  0  0  0  0  0
    9.2273  -18.4404   21.2204 N   0  0  0  0  0  0  0  0  0  0  0  0
    8.8079  -17.1455   23.2307 C   0  0  0  0  0  0  0  0  0  0  0  0
    9.9854  -16.7029   23.2243 O   0  0  0  0  0  0  0  0  0  0  0  0
    7.8703  -16.4348   24.0158 N   0  0  0  0  0  0  0  0  0  0  0  0
    8.2251  -15.2411   24.7673 C   0  0  1  0  0  0  0  0  0  0  0  0
    7.0658  -14.4103   25.1292 C   0  0  0  0  0  0  0  0  0  0  0  0
    7.4785  -13.1906   25.9038 C   0  0  0  0  0  0  0  0  0  0  0  0
    6.2211  -12.3629   26.2782 C   0  0  0  0  0  0  0  0  0  0  0  0
    6.6283  -11.0955   26.9754 C   0  0  0  0  0  0  0  0  0  0  0  0
    5.4819  -10.3182   27.4031 N   0  0  0  0  0  0  0  0  0  0  0  0
    9.0990  -15.5939   25.9000 C   0  0  0  0  0  0  0  0  0  0  0  0
    8.8525  -16.6413   26.5517 O   0  0  0  0  0  0  0  0  0  0  0  0
   10.1862  -14.8599   26.3108 O   0  0  0  0  0  0  0  0  0  0  0  0
  2  4  1  0
  2  1  1  0
  3  2  2  0
  5  6  1  1
  5  4  1  0
  7  8  2  0
  7  5  1  0
 10  9  1  1
 10 11  1  0
 10 12  1  0
 11  7  1  0
 12 14  1  0
 12 13  2  0
 14 15  1  0
 15 16  1  1
 15 21  1  0
 17 16  1  0
 18 17  1  0
 19 18  1  0
 20 19  1  0
 21 22  2  0
 21 23  1  0
M  END
$$$$
