NAK.pdb
     RDKit          3D

 23 22  0  0  1  0  0  0  0  0999 V2000
    8.6675  -14.2970   15.5373 N   0  0  0  0  0  0  0  0  0  0  0  0
    7.4789  -13.7324   16.1288 C   0  0  0  0  0  0  0  0  0  0  0  0
    6.5200  -13.5194   15.3530 O   0  0  0  0  0  0  0  0  0  0  0  0
    7.5047  -13.4629   17.5711 C   0  0  0  0  0  0  0  0  0  0  0  0
    8.7882  -13.9869   18.2117 C   0  0  2  0  0  0  0  0  0  0  0  0
    9.6303  -14.6298   17.2697 N   0  0  0  0  0  0  0  0  0  0  0  0
    8.4327  -14.7442   19.4069 C   0  0  0  0  0  0  0  0  0  0  0  0
    7.6774  -14.1402   20.2433 O   0  0  0  0  0  0  0  0  0  0  0  0
    8.3111  -18.2033   20.8099 C   0  0  0  0  0  0  0  0  0  0  0  0
    8.4656  -16.7080   20.9836 C   0  0  2  0  0  0  0  0  0  0  0  0
    8.8140  -16.0471   19.7522 N   0  0  0  0  0  0  0  0  0  0  0  0
    9.4117  -16.3775   22.0819 C   0  0  0  0  0  0  0  0  0  0  0  0
   10.6036  -16.0756   21.8161 O   0  0  0  0  0  0  0  0  0  0  0  0
    9.0506  -16.3796   23.4495 N   0  0  0  0  0  0  0  0  0  0  0  0
   10.0100  -16.1213   24.5117 C   0  0  1  0  0  0  0  0  0  0  0  0
    9.4289  -15.4231   25.6692 C   0  0  0  0  0  0  0  0  0  0  0  0
   10.4516  -15.1875   26.7448 C   0  0  0  0  0  0  0  0  0  0  0  0
    9.7747  -14.5121   27.9662 C   0  0  0  0  0  0  0  0  0  0  0  0
   10.7792  -14.3127   29.0660 C   0  0  0  0  0  0  0  0  0  0  0  0
   10.1939  -13.6714   30.2268 N   0  0  0  0  0  0  0  0  0  0  0  0
   10.7405  -17.3559   24.8487 C   0  0  0  0  0  0  0  0  0  0  0  0
   10.1186  -18.4492   24.8391 O   0  0  0  0  0  0  0  0  0  0  0  0
   12.0741  -17.4139   25.1769 O   0  0  0  0  0  0  0  0  0  0  0  0
  2  4  1  0
  2  1  1  0
  3  2  2  0
  5  6  1  6
  5  4  1  0
  7  8  2  0
  7  5  1  0
 10  9  1  6
 10 11  1  0
 10 12  1  0
 11  7  1  0
 12 14  1  0
 12 13  2  0
 14 15  1  0
 15 16  1  1
 15 21  1  0
 17 16  1  0
 18 17  1  0
 19 18  1  0
 20 19  1  0
 21 22  2  0
 21 23  1  0
M  END
$$$$
