NAK.pdb
     RDKit          3D

 23 22  0  0  1  0  0  0  0  0999 V2000
    9.5455  -20.1523   17.0349 N   0  0  0  0  0  0  0  0  0  0  0  0
    8.8897  -18.8981   16.7551 C   0  0  0  0  0  0  0  0  0  0  0  0
    8.1439  -18.8735   15.7502 O   0  0  0  0  0  0  0  0  0  0  0  0
    9.1556  -17.7787   17.6660 C   0  0  0  0  0  0  0  0  0  0  0  0
    7.9383  -17.4672   18.5341 C   0  0  2  0  0  0  0  0  0  0  0  0
    6.7518  -17.3514   17.7669 N   0  0  0  0  0  0  0  0  0  0  0  0
    8.2702  -16.3506   19.4124 C   0  0  0  0  0  0  0  0  0  0  0  0
    9.4540  -16.3565   19.8957 O   0  0  0  0  0  0  0  0  0  0  0  0
    7.0169  -12.9901   20.5696 C   0  0  0  0  0  0  0  0  0  0  0  0
    7.8276  -14.2564   20.7397 C   0  0  2  0  0  0  0  0  0  0  0  0
    7.4567  -15.2753   19.7916 N   0  0  0  0  0  0  0  0  0  0  0  0
    7.7824  -14.7536   22.1402 C   0  0  0  0  0  0  0  0  0  0  0  0
    6.6954  -15.1534   22.6312 O   0  0  0  0  0  0  0  0  0  0  0  0
    8.9154  -14.8094   22.9851 N   0  0  0  0  0  0  0  0  0  0  0  0
    9.0579  -15.8037   24.0370 C   0  0  1  0  0  0  0  0  0  0  0  0
    8.7243  -17.1691   23.6018 C   0  0  0  0  0  0  0  0  0  0  0  0
    7.8489  -17.8709   24.6015 C   0  0  0  0  0  0  0  0  0  0  0  0
    7.5552  -19.3134   24.1126 C   0  0  0  0  0  0  0  0  0  0  0  0
    6.6465  -20.0113   25.0850 C   0  0  0  0  0  0  0  0  0  0  0  0
    6.1992  -21.2961   24.5847 N   0  0  0  0  0  0  0  0  0  0  0  0
   10.3759  -15.6753   24.6834 C   0  0  0  0  0  0  0  0  0  0  0  0
   10.5553  -16.2152   25.8052 O   0  0  0  0  0  0  0  0  0  0  0  0
   11.4495  -15.0028   24.1497 O   0  0  0  0  0  0  0  0  0  0  0  0
  2  4  1  0
  2  1  1  0
  3  2  2  0
  5  6  1  6
  5  4  1  0
  7  8  2  0
  7  5  1  0
 10  9  1  1
 10 11  1  0
 10 12  1  0
 11  7  1  0
 12 14  1  0
 12 13  2  0
 14 15  1  0
 15 16  1  6
 15 21  1  0
 17 16  1  0
 18 17  1  0
 19 18  1  0
 20 19  1  0
 21 22  2  0
 21 23  1  0
M  END
$$$$
