NAK.pdb
     RDKit          3D

 23 22  0  0  1  0  0  0  0  0999 V2000
    8.6115  -13.1564   14.7838 N   0  0  0  0  0  0  0  0  0  0  0  0
    7.6936  -13.5926   15.8078 C   0  0  0  0  0  0  0  0  0  0  0  0
    6.8201  -14.4171   15.4559 O   0  0  0  0  0  0  0  0  0  0  0  0
    7.8680  -13.0343   17.1537 C   0  0  0  0  0  0  0  0  0  0  0  0
    8.9349  -13.7958   17.9375 C   0  0  2  0  0  0  0  0  0  0  0  0
    9.6881  -14.6640   17.1076 N   0  0  0  0  0  0  0  0  0  0  0  0
    8.3101  -14.3845   19.1170 C   0  0  0  0  0  0  0  0  0  0  0  0
    7.8124  -13.5561   19.9543 O   0  0  0  0  0  0  0  0  0  0  0  0
    7.2248  -17.6696   20.6183 C   0  0  0  0  0  0  0  0  0  0  0  0
    7.7140  -16.2407   20.7116 C   0  0  2  0  0  0  0  0  0  0  0  0
    8.1872  -15.7404   19.4466 N   0  0  0  0  0  0  0  0  0  0  0  0
    8.7236  -16.0752   21.7905 C   0  0  0  0  0  0  0  0  0  0  0  0
    9.9501  -16.0814   21.5110 O   0  0  0  0  0  0  0  0  0  0  0  0
    8.3874  -15.9058   23.1540 N   0  0  0  0  0  0  0  0  0  0  0  0
    9.3915  -15.8395   24.2042 C   0  0  1  0  0  0  0  0  0  0  0  0
    8.8996  -15.2246   25.4472 C   0  0  0  0  0  0  0  0  0  0  0  0
    9.9809  -15.1357   26.4870 C   0  0  0  0  0  0  0  0  0  0  0  0
    9.3983  -14.5328   27.7921 C   0  0  0  0  0  0  0  0  0  0  0  0
   10.4845  -14.3844   28.8199 C   0  0  0  0  0  0  0  0  0  0  0  0
    9.9895  -13.8074   30.0542 N   0  0  0  0  0  0  0  0  0  0  0  0
   10.0255  -17.1573   24.3859 C   0  0  0  0  0  0  0  0  0  0  0  0
   11.2646  -17.2093   24.5958 O   0  0  0  0  0  0  0  0  0  0  0  0
    9.3608  -18.3599   24.3473 O   0  0  0  0  0  0  0  0  0  0  0  0
  2  4  1  0
  2  1  1  0
  3  2  2  0
  5  6  1  6
  5  4  1  0
  7  8  2  0
  7  5  1  0
 10  9  1  6
 10 11  1  0
 10 12  1  0
 11  7  1  0
 12 14  1  0
 12 13  2  0
 14 15  1  0
 15 16  1  1
 15 21  1  0
 17 16  1  0
 18 17  1  0
 19 18  1  0
 20 19  1  0
 21 22  2  0
 21 23  1  0
M  END
$$$$
