NAK.pdb
     RDKit          3D

 23 22  0  0  1  0  0  0  0  0999 V2000
   15.1071  -13.3774   18.3863 N   0  0  0  0  0  0  0  0  0  0  0  0
   14.6237  -14.4053   19.2759 C   0  0  0  0  0  0  0  0  0  0  0  0
   15.4916  -15.1397   19.7994 O   0  0  0  0  0  0  0  0  0  0  0  0
   13.1735  -14.4930   19.4821 C   0  0  0  0  0  0  0  0  0  0  0  0
   12.6582  -15.9053   19.2132 C   0  0  2  0  0  0  0  0  0  0  0  0
   12.5138  -16.1653   17.8270 N   0  0  0  0  0  0  0  0  0  0  0  0
   11.4905  -16.1398   20.0557 C   0  0  0  0  0  0  0  0  0  0  0  0
   10.5614  -15.2652   19.9737 O   0  0  0  0  0  0  0  0  0  0  0  0
    9.8321  -18.8235   22.1021 C   0  0  0  0  0  0  0  0  0  0  0  0
   10.0613  -17.3774   21.7198 C   0  0  2  0  0  0  0  0  0  0  0  0
   11.2599  -17.2005   20.9410 N   0  0  0  0  0  0  0  0  0  0  0  0
   10.0301  -16.4836   22.9075 C   0  0  0  0  0  0  0  0  0  0  0  0
   11.0974  -16.2003   23.5101 O   0  0  0  0  0  0  0  0  0  0  0  0
    8.8432  -15.9120   23.4225 N   0  0  0  0  0  0  0  0  0  0  0  0
    8.8409  -15.0121   24.5652 C   0  0  1  0  0  0  0  0  0  0  0  0
    7.5937  -14.2435   24.7033 C   0  0  0  0  0  0  0  0  0  0  0  0
    7.6643  -13.2742   25.8494 C   0  0  0  0  0  0  0  0  0  0  0  0
    6.3322  -12.4852   25.9453 C   0  0  0  0  0  0  0  0  0  0  0  0
    6.3747  -11.5442   27.1162 C   0  0  0  0  0  0  0  0  0  0  0  0
    5.1666  -10.7497   27.2190 N   0  0  0  0  0  0  0  0  0  0  0  0
    9.2490  -15.7347   25.7828 C   0  0  0  0  0  0  0  0  0  0  0  0
    8.8020  -16.8943   25.9773 O   0  0  0  0  0  0  0  0  0  0  0  0
   10.0981  -15.2377   26.7429 O   0  0  0  0  0  0  0  0  0  0  0  0
  2  4  1  0
  2  1  1  0
  3  2  2  0
  5  6  1  6
  5  4  1  0
  7  8  2  0
  7  5  1  0
 10  9  1  1
 10 11  1  0
 10 12  1  0
 11  7  1  0
 12 14  1  0
 12 13  2  0
 14 15  1  0
 15 16  1  1
 15 21  1  0
 17 16  1  0
 18 17  1  0
 19 18  1  0
 20 19  1  0
 21 22  2  0
 21 23  1  0
M  END
$$$$
