NAK.pdb
     RDKit          3D

 23 22  0  0  1  0  0  0  0  0999 V2000
    8.2691  -12.7429   15.9243 N   0  0  0  0  0  0  0  0  0  0  0  0
    8.1535  -14.1688   16.1107 C   0  0  0  0  0  0  0  0  0  0  0  0
    8.4108  -14.8817   15.1146 O   0  0  0  0  0  0  0  0  0  0  0  0
    7.7491  -14.6460   17.4382 C   0  0  0  0  0  0  0  0  0  0  0  0
    8.9092  -14.5820   18.4293 C   0  0  2  0  0  0  0  0  0  0  0  0
   10.1480  -14.9085   17.8219 N   0  0  0  0  0  0  0  0  0  0  0  0
    8.5392  -15.3337   19.6236 C   0  0  0  0  0  0  0  0  0  0  0  0
    7.3781  -15.0862   20.0985 O   0  0  0  0  0  0  0  0  0  0  0  0
    9.5828  -18.2603   21.7480 C   0  0  0  0  0  0  0  0  0  0  0  0
    8.8910  -16.9308   21.5391 C   0  0  2  0  0  0  0  0  0  0  0  0
    9.2946  -16.2904   20.3136 N   0  0  0  0  0  0  0  0  0  0  0  0
    9.0526  -16.0366   22.7159 C   0  0  0  0  0  0  0  0  0  0  0  0
   10.0827  -15.3232   22.8275 O   0  0  0  0  0  0  0  0  0  0  0  0
    8.0955  -15.9304   23.7520 N   0  0  0  0  0  0  0  0  0  0  0  0
    8.3116  -15.1121   24.9349 C   0  0  1  0  0  0  0  0  0  0  0  0
    7.0807  -14.4941   25.4528 C   0  0  0  0  0  0  0  0  0  0  0  0
    7.3305  -13.1012   25.9584 C   0  0  0  0  0  0  0  0  0  0  0  0
    6.0153  -12.5140   26.5343 C   0  0  0  0  0  0  0  0  0  0  0  0
    6.2745  -11.1590   27.1303 C   0  0  0  0  0  0  0  0  0  0  0  0
    5.0823  -10.5914   27.7284 N   0  0  0  0  0  0  0  0  0  0  0  0
    9.0851  -15.8636   25.9391 C   0  0  0  0  0  0  0  0  0  0  0  0
    9.0365  -17.1205   25.9244 O   0  0  0  0  0  0  0  0  0  0  0  0
    9.8745  -15.2935   26.9094 O   0  0  0  0  0  0  0  0  0  0  0  0
  2  4  1  0
  2  1  1  0
  3  2  2  0
  5  6  1  6
  5  4  1  0
  7  8  2  0
  7  5  1  0
 10  9  1  1
 10 11  1  0
 10 12  1  0
 11  7  1  0
 12 14  1  0
 12 13  2  0
 14 15  1  0
 15 16  1  1
 15 21  1  0
 17 16  1  0
 18 17  1  0
 19 18  1  0
 20 19  1  0
 21 22  2  0
 21 23  1  0
M  END
$$$$
