NAK.pdb
     RDKit          3D

 23 22  0  0  1  0  0  0  0  0999 V2000
    6.8595  -19.8129   17.0604 N   0  0  0  0  0  0  0  0  0  0  0  0
    8.1432  -19.2652   16.6949 C   0  0  0  0  0  0  0  0  0  0  0  0
    8.5968  -19.6096   15.5803 O   0  0  0  0  0  0  0  0  0  0  0  0
    8.7912  -18.3639   17.6547 C   0  0  0  0  0  0  0  0  0  0  0  0
    8.3090  -16.9255   17.4795 C   0  0  2  0  0  0  0  0  0  0  0  0
    8.7169  -16.3738   16.2388 N   0  0  0  0  0  0  0  0  0  0  0  0
    8.6500  -16.1736   18.6822 C   0  0  0  0  0  0  0  0  0  0  0  0
    9.7673  -16.4734   19.2269 O   0  0  0  0  0  0  0  0  0  0  0  0
    7.3416  -13.3749   20.8913 C   0  0  0  0  0  0  0  0  0  0  0  0
    8.3320  -14.4449   20.4861 C   0  0  2  0  0  0  0  0  0  0  0  0
    7.9088  -15.1667   19.3137 N   0  0  0  0  0  0  0  0  0  0  0  0
    8.6507  -15.3552   21.6176 C   0  0  0  0  0  0  0  0  0  0  0  0
    7.9132  -16.3461   21.8550 O   0  0  0  0  0  0  0  0  0  0  0  0
    9.7631  -15.1765   22.4728 N   0  0  0  0  0  0  0  0  0  0  0  0
   10.0067  -16.0279   23.6267 C   0  0  1  0  0  0  0  0  0  0  0  0
   11.4289  -16.1287   23.9907 C   0  0  0  0  0  0  0  0  0  0  0  0
   11.6278  -16.9708   25.2193 C   0  0  0  0  0  0  0  0  0  0  0  0
   12.1681  -18.3663   24.8107 C   0  0  0  0  0  0  0  0  0  0  0  0
   12.3014  -19.2420   26.0246 C   0  0  0  0  0  0  0  0  0  0  0  0
   12.9329  -20.5093   25.7137 N   0  0  0  0  0  0  0  0  0  0  0  0
    9.1190  -15.6442   24.7385 C   0  0  0  0  0  0  0  0  0  0  0  0
    8.6995  -14.4598   24.7974 O   0  0  0  0  0  0  0  0  0  0  0  0
    8.6998  -16.4917   25.7364 O   0  0  0  0  0  0  0  0  0  0  0  0
  2  4  1  0
  2  1  1  0
  3  2  2  0
  5  6  1  6
  5  4  1  0
  7  8  2  0
  7  5  1  0
 10  9  1  1
 10 11  1  0
 10 12  1  0
 11  7  1  0
 12 14  1  0
 12 13  2  0
 14 15  1  0
 15 16  1  1
 15 21  1  0
 17 16  1  0
 18 17  1  0
 19 18  1  0
 20 19  1  0
 21 22  2  0
 21 23  1  0
M  END
$$$$
