NAK.pdb
     RDKit          3D

 23 22  0  0  1  0  0  0  0  0999 V2000
    6.7416  -12.6910   18.3264 N   0  0  0  0  0  0  0  0  0  0  0  0
    7.8991  -13.2440   18.9866 C   0  0  0  0  0  0  0  0  0  0  0  0
    8.8675  -13.5428   18.2520 O   0  0  0  0  0  0  0  0  0  0  0  0
    7.8339  -13.4030   20.4440 C   0  0  0  0  0  0  0  0  0  0  0  0
    8.4072  -14.7489   20.8826 C   0  0  2  0  0  0  0  0  0  0  0  0
    7.9229  -15.8189   20.0887 N   0  0  0  0  0  0  0  0  0  0  0  0
    8.2466  -14.8712   22.3274 C   0  0  0  0  0  0  0  0  0  0  0  0
    8.7146  -13.9054   23.0224 O   0  0  0  0  0  0  0  0  0  0  0  0
    6.4201  -16.6216   25.0511 C   0  0  0  0  0  0  0  0  0  0  0  0
    7.7054  -16.0651   24.4781 C   0  0  2  0  0  0  0  0  0  0  0  0
    7.6453  -15.9116   23.0472 N   0  0  0  0  0  0  0  0  0  0  0  0
    8.8869  -16.8601   24.9053 C   0  0  0  0  0  0  0  0  0  0  0  0
    9.0107  -17.2063   26.1083 O   0  0  0  0  0  0  0  0  0  0  0  0
    9.9143  -17.2666   24.0222 N   0  0  0  0  0  0  0  0  0  0  0  0
   11.0586  -18.0494   24.4617 C   0  0  1  0  0  0  0  0  0  0  0  0
   11.5598  -18.9803   23.4382 C   0  0  0  0  0  0  0  0  0  0  0  0
   10.9287  -20.3379   23.5675 C   0  0  0  0  0  0  0  0  0  0  0  0
   11.4769  -21.2733   22.4581 C   0  0  0  0  0  0  0  0  0  0  0  0
   10.7433  -22.5847   22.4819 C   0  0  0  0  0  0  0  0  0  0  0  0
   11.2800  -23.5251   21.5181 N   0  0  0  0  0  0  0  0  0  0  0  0
   12.0877  -17.1666   25.0385 C   0  0  0  0  0  0  0  0  0  0  0  0
   12.0601  -15.9406   24.7583 O   0  0  0  0  0  0  0  0  0  0  0  0
   13.0953  -17.5794   25.8776 O   0  0  0  0  0  0  0  0  0  0  0  0
  2  4  1  0
  2  1  1  0
  3  2  2  0
  5  6  1  6
  5  4  1  0
  7  8  2  0
  7  5  1  0
 10  9  1  6
 10 11  1  0
 10 12  1  0
 11  7  1  0
 12 14  1  0
 12 13  2  0
 14 15  1  0
 15 16  1  6
 15 21  1  0
 17 16  1  0
 18 17  1  0
 19 18  1  0
 20 19  1  0
 21 22  2  0
 21 23  1  0
M  END
$$$$
