NAK.pdb
     RDKit          3D

 23 22  0  0  1  0  0  0  0  0999 V2000
    7.4398  -12.6664   16.7633 N   0  0  0  0  0  0  0  0  0  0  0  0
    8.4425  -13.3720   17.5236 C   0  0  0  0  0  0  0  0  0  0  0  0
    9.5620  -13.5030   16.9792 O   0  0  0  0  0  0  0  0  0  0  0  0
    8.0603  -13.8656   18.8516 C   0  0  0  0  0  0  0  0  0  0  0  0
    8.8828  -15.0900   19.2476 C   0  0  2  0  0  0  0  0  0  0  0  0
    8.9288  -16.0585   18.2134 N   0  0  0  0  0  0  0  0  0  0  0  0
    8.4346  -15.5435   20.5597 C   0  0  0  0  0  0  0  0  0  0  0  0
    7.7827  -14.6878   21.2508 O   0  0  0  0  0  0  0  0  0  0  0  0
    8.1635  -18.6632   22.6788 C   0  0  0  0  0  0  0  0  0  0  0  0
    8.1610  -17.1648   22.4676 C   0  0  2  0  0  0  0  0  0  0  0  0
    8.6283  -16.7961   21.1560 N   0  0  0  0  0  0  0  0  0  0  0  0
    8.9031  -16.4572   23.5442 C   0  0  0  0  0  0  0  0  0  0  0  0
   10.1474  -16.2978   23.4508 O   0  0  0  0  0  0  0  0  0  0  0  0
    8.2847  -15.9342   24.7039 N   0  0  0  0  0  0  0  0  0  0  0  0
    9.0376  -15.2870   25.7669 C   0  0  1  0  0  0  0  0  0  0  0  0
    8.2283  -14.3668   26.5815 C   0  0  0  0  0  0  0  0  0  0  0  0
    7.5250  -13.3467   25.7312 C   0  0  0  0  0  0  0  0  0  0  0  0
    6.6308  -12.4506   26.6277 C   0  0  0  0  0  0  0  0  0  0  0  0
    6.0479  -11.3288   25.8153 C   0  0  0  0  0  0  0  0  0  0  0  0
    5.0719  -10.5642   26.5664 N   0  0  0  0  0  0  0  0  0  0  0  0
    9.7863  -16.2905   26.5438 C   0  0  0  0  0  0  0  0  0  0  0  0
    9.4059  -17.4890   26.5107 O   0  0  0  0  0  0  0  0  0  0  0  0
   10.8910  -16.0207   27.3160 O   0  0  0  0  0  0  0  0  0  0  0  0
  2  4  1  0
  2  1  1  0
  3  2  2  0
  5  6  1  6
  5  4  1  0
  7  8  2  0
  7  5  1  0
 10  9  1  1
 10 11  1  0
 10 12  1  0
 11  7  1  0
 12 14  1  0
 12 13  2  0
 14 15  1  0
 15 16  1  1
 15 21  1  0
 17 16  1  0
 18 17  1  0
 19 18  1  0
 20 19  1  0
 21 22  2  0
 21 23  1  0
M  END
$$$$
