NAK.pdb
     RDKit          3D

 23 22  0  0  1  0  0  0  0  0999 V2000
    7.2749  -13.3023   16.1777 N   0  0  0  0  0  0  0  0  0  0  0  0
    8.1336  -14.3871   16.5869 C   0  0  0  0  0  0  0  0  0  0  0  0
    8.2069  -15.3623   15.8057 O   0  0  0  0  0  0  0  0  0  0  0  0
    8.8343  -14.2474   17.8687 C   0  0  0  0  0  0  0  0  0  0  0  0
    8.4769  -15.3837   18.8244 C   0  0  2  0  0  0  0  0  0  0  0  0
    7.1706  -15.8837   18.5934 N   0  0  0  0  0  0  0  0  0  0  0  0
    8.7929  -14.9608   20.1844 C   0  0  0  0  0  0  0  0  0  0  0  0
   10.0366  -14.9143   20.4771 O   0  0  0  0  0  0  0  0  0  0  0  0
    7.2066  -13.6820   23.3726 C   0  0  0  0  0  0  0  0  0  0  0  0
    8.2742  -14.4123   22.5872 C   0  0  2  0  0  0  0  0  0  0  0  0
    7.9066  -14.5999   21.2073 N   0  0  0  0  0  0  0  0  0  0  0  0
    8.6594  -15.6908   23.2413 C   0  0  0  0  0  0  0  0  0  0  0  0
    8.1115  -16.7673   22.8902 O   0  0  0  0  0  0  0  0  0  0  0  0
    9.6315  -15.7814   24.2648 N   0  0  0  0  0  0  0  0  0  0  0  0
   10.0131  -17.0475   24.8705 C   0  0  1  0  0  0  0  0  0  0  0  0
   10.9723  -17.8178   24.0631 C   0  0  0  0  0  0  0  0  0  0  0  0
   11.3829  -19.0880   24.7532 C   0  0  0  0  0  0  0  0  0  0  0  0
   12.4544  -19.8185   23.9021 C   0  0  0  0  0  0  0  0  0  0  0  0
   12.8628  -21.0978   24.5765 C   0  0  0  0  0  0  0  0  0  0  0  0
   13.7357  -21.8982   23.7406 N   0  0  0  0  0  0  0  0  0  0  0  0
   10.4244  -16.8385   26.2700 C   0  0  0  0  0  0  0  0  0  0  0  0
   10.8258  -17.8265   26.9372 O   0  0  0  0  0  0  0  0  0  0  0  0
   10.4085  -15.6274   26.9201 O   0  0  0  0  0  0  0  0  0  0  0  0
  2  4  1  0
  2  1  1  0
  3  2  2  0
  5  6  1  1
  5  4  1  0
  7  8  2  0
  7  5  1  0
 10  9  1  1
 10 11  1  0
 10 12  1  0
 11  7  1  0
 12 14  1  0
 12 13  2  0
 14 15  1  0
 15 16  1  6
 15 21  1  0
 17 16  1  0
 18 17  1  0
 19 18  1  0
 20 19  1  0
 21 22  2  0
 21 23  1  0
M  END
$$$$
