NAK.pdb
     RDKit          3D

 23 22  0  0  1  0  0  0  0  0999 V2000
    9.1219  -13.4136   16.3224 N   0  0  0  0  0  0  0  0  0  0  0  0
    7.7255  -13.6313   16.6123 C   0  0  0  0  0  0  0  0  0  0  0  0
    6.9223  -13.3993   15.6808 O   0  0  0  0  0  0  0  0  0  0  0  0
    7.3803  -14.1001   17.9594 C   0  0  0  0  0  0  0  0  0  0  0  0
    8.6288  -14.2945   18.8173 C   0  0  2  0  0  0  0  0  0  0  0  0
    9.7313  -14.7590   18.0567 N   0  0  0  0  0  0  0  0  0  0  0  0
    8.2633  -15.0724   19.9961 C   0  0  0  0  0  0  0  0  0  0  0  0
    7.2709  -14.6285   20.6691 O   0  0  0  0  0  0  0  0  0  0  0  0
    8.8779  -18.3507   21.7364 C   0  0  0  0  0  0  0  0  0  0  0  0
    8.5324  -16.8775   21.7318 C   0  0  2  0  0  0  0  0  0  0  0  0
    8.8618  -16.2419   20.4819 N   0  0  0  0  0  0  0  0  0  0  0  0
    9.1317  -16.1691   22.8935 C   0  0  0  0  0  0  0  0  0  0  0  0
   10.3322  -15.7955   22.8517 O   0  0  0  0  0  0  0  0  0  0  0  0
    8.4205  -15.8774   24.0809 N   0  0  0  0  0  0  0  0  0  0  0  0
    9.0605  -15.3049   25.2548 C   0  0  1  0  0  0  0  0  0  0  0  0
    8.1338  -14.5631   26.1243 C   0  0  0  0  0  0  0  0  0  0  0  0
    7.5761  -13.3508   25.4332 C   0  0  0  0  0  0  0  0  0  0  0  0
    6.5987  -12.6134   26.3856 C   0  0  0  0  0  0  0  0  0  0  0  0
    6.0841  -11.3640   25.7282 C   0  0  0  0  0  0  0  0  0  0  0  0
    5.2614  -10.5771   26.6255 N   0  0  0  0  0  0  0  0  0  0  0  0
    9.8591  -16.3300   25.9497 C   0  0  0  0  0  0  0  0  0  0  0  0
   10.6632  -15.9665   26.8460 O   0  0  0  0  0  0  0  0  0  0  0  0
    9.7949  -17.6797   25.6966 O   0  0  0  0  0  0  0  0  0  0  0  0
  2  4  1  0
  2  1  1  0
  3  2  2  0
  5  6  1  6
  5  4  1  0
  7  8  2  0
  7  5  1  0
 10  9  1  6
 10 11  1  0
 10 12  1  0
 11  7  1  0
 12 14  1  0
 12 13  2  0
 14 15  1  0
 15 16  1  1
 15 21  1  0
 17 16  1  0
 18 17  1  0
 19 18  1  0
 20 19  1  0
 21 22  2  0
 21 23  1  0
M  END
$$$$
