RCE.pdb
     RDKit          3D

 27 26  0  0  1  0  0  0  0  0999 V2000
    7.8872  -14.5555   14.7736 N   0  0  0  0  0  0  0  0  0  0  0  0
    8.0683  -14.0273   16.0770 C   0  0  0  0  0  0  0  0  0  0  0  0
    7.7239  -12.8344   16.3696 N   0  0  0  0  0  0  0  0  0  0  0  0
    8.6508  -14.8454   17.0999 N   0  0  0  0  0  0  0  0  0  0  0  0
    8.8424  -14.3718   18.4506 C   0  0  0  0  0  0  0  0  0  0  0  0
    9.5418  -15.5209   19.2039 C   0  0  0  0  0  0  0  0  0  0  0  0
    9.8790  -15.0840   20.5907 C   0  0  0  0  0  0  0  0  0  0  0  0
    8.9221  -15.6681   21.5909 C   0  0  2  0  0  0  0  0  0  0  0  0
    7.5510  -15.2284   21.2160 N   0  0  0  0  0  0  0  0  0  0  0  0
    9.1974  -15.2024   22.9793 C   0  0  0  0  0  0  0  0  0  0  0  0
   10.3728  -15.3400   23.3950 O   0  0  0  0  0  0  0  0  0  0  0  0
    7.8856  -12.4245   17.3118 N   0  0  0  0  0  0  0  0  0  0  0  0
    8.2150  -14.6244   23.8214 C   0  0  1  0  0  0  0  0  0  0  0  0
    8.3496  -14.2451   25.1927 C   0  0  0  0  0  0  0  0  0  0  0  0
    7.4977  -13.1022   25.5977 S   0  0  0  0  0  0  0  0  0  0  0  0
    7.4896  -12.7670   27.3776 C   0  0  0  0  0  0  0  0  0  0  0  0
    8.5455  -15.3278   26.1650 O   0  0  0  0  0  0  0  0  0  0  0  0
    7.6046  -16.0153   26.6801 N   0  0  0  0  0  0  0  0  0  0  0  0
    9.8533  -15.7302   26.6358 C   0  0  1  0  0  0  0  0  0  0  0  0
   10.0820  -16.7670   27.5718 C   0  0  0  0  0  0  0  0  0  0  0  0
   10.9336  -17.9121   27.1997 C   0  0  0  0  0  0  0  0  0  0  0  0
   12.1169  -17.5670   26.3181 C   0  0  0  0  0  0  0  0  0  0  0  0
   12.8465  -18.7541   25.8522 O   0  0  0  0  0  0  0  0  0  0  0  0
   12.7705  -19.0748   24.6349 C   0  0  0  0  0  0  0  0  0  0  0  0
   10.3516  -16.2773   28.9734 O   0  0  0  0  0  0  0  0  0  0  0  0
   10.4082  -17.1444   30.0488 O   0  0  0  0  0  0  0  0  0  0  0  0
   13.5950  -19.4825   26.7752 O   0  0  0  0  0  0  0  0  0  0  0  0
  2  1  1  0
  2  4  1  0
  3  2  2  0
  5  6  1  0
  5  4  1  0
  7  8  1  0
  7  6  1  0
  8  9  1  6
 10  8  1  0
 10 11  2  0
 12 10  1  0
 13 16  1  0
 13 12  1  0
 13 14  1  1
 15 14  1  0
 16 18  1  0
 17 16  2  0
 18 19  1  0
 19 24  1  0
 19 20  1  1
 21 20  1  0
 22 26  1  0
 22 21  1  0
 23 22  2  0
 24 27  2  0
 24 25  1  0
M  END
$$$$
