RCE.pdb
     RDKit          3D

 27 26  0  0  1  0  0  0  0  0999 V2000
    9.5869  -16.6922   13.5616 N   0  0  0  0  0  0  0  0  0  0  0  0
    8.3113  -16.2335   13.9773 C   0  0  0  0  0  0  0  0  0  0  0  0
    7.2943  -17.0034   13.9889 N   0  0  0  0  0  0  0  0  0  0  0  0
    8.1487  -14.8729   14.3983 N   0  0  0  0  0  0  0  0  0  0  0  0
    7.4005  -14.5155   15.5805 C   0  0  0  0  0  0  0  0  0  0  0  0
    7.7626  -15.5725   16.6430 C   0  0  0  0  0  0  0  0  0  0  0  0
    8.7173  -14.9891   17.6309 C   0  0  0  0  0  0  0  0  0  0  0  0
    8.0488  -13.9451   18.4795 C   0  0  2  0  0  0  0  0  0  0  0  0
    8.2930  -12.6215   17.8451 N   0  0  0  0  0  0  0  0  0  0  0  0
    8.5944  -13.9051   19.8655 C   0  0  0  0  0  0  0  0  0  0  0  0
    9.7617  -13.4653   19.9970 O   0  0  0  0  0  0  0  0  0  0  0  0
    6.4275  -16.7713   14.5149 N   0  0  0  0  0  0  0  0  0  0  0  0
    7.8676  -14.3275   21.0064 C   0  0  2  0  0  0  0  0  0  0  0  0
    8.3635  -14.5515   22.3279 C   0  0  0  0  0  0  0  0  0  0  0  0
    7.4057  -14.2119   23.4064 S   0  0  0  0  0  0  0  0  0  0  0  0
    7.8679  -14.8349   25.0430 C   0  0  0  0  0  0  0  0  0  0  0  0
    9.2235  -15.7253   22.5243 O   0  0  0  0  0  0  0  0  0  0  0  0
    8.8277  -16.9333   22.4390 N   0  0  0  0  0  0  0  0  0  0  0  0
   10.6333  -15.6201   22.8334 C   0  0  1  0  0  0  0  0  0  0  0  0
   11.5054  -16.7258   22.9751 C   0  0  0  0  0  0  0  0  0  0  0  0
   12.6364  -16.8880   22.0428 C   0  0  0  0  0  0  0  0  0  0  0  0
   13.6705  -15.7815   22.0959 C   0  0  0  0  0  0  0  0  0  0  0  0
   14.0715  -15.3110   20.7630 O   0  0  0  0  0  0  0  0  0  0  0  0
   14.9034  -14.3671   20.6769 C   0  0  0  0  0  0  0  0  0  0  0  0
   11.8865  -17.0251   24.4041 O   0  0  0  0  0  0  0  0  0  0  0  0
   11.3949  -16.2797   25.4596 O   0  0  0  0  0  0  0  0  0  0  0  0
   13.5153  -15.9260   19.6428 O   0  0  0  0  0  0  0  0  0  0  0  0
  2  1  1  0
  2  4  1  0
  3  2  2  0
  5  6  1  0
  5  4  1  0
  7  8  1  0
  7  6  1  0
  8  9  1  6
 10  8  1  0
 10 11  2  0
 12 10  1  0
 13 16  1  0
 13 12  1  0
 13 14  1  1
 15 14  1  0
 16 18  1  0
 17 16  2  0
 18 19  1  0
 19 24  1  0
 19 20  1  1
 21 20  1  0
 22 26  1  0
 22 21  1  0
 23 22  2  0
 24 27  2  0
 24 25  1  0
M  END
$$$$
