RCE.pdb
     RDKit          3D

 27 26  0  0  1  0  0  0  0  0999 V2000
    9.2689  -14.3990   15.5750 N   0  0  0  0  0  0  0  0  0  0  0  0
    8.0691  -15.0254   15.1523 C   0  0  0  0  0  0  0  0  0  0  0  0
    8.0164  -15.7168   14.0816 N   0  0  0  0  0  0  0  0  0  0  0  0
    6.8798  -14.8863   15.9403 N   0  0  0  0  0  0  0  0  0  0  0  0
    6.8389  -15.2300   17.3423 C   0  0  0  0  0  0  0  0  0  0  0  0
    7.9952  -14.4508   18.0003 C   0  0  0  0  0  0  0  0  0  0  0  0
    8.1052  -14.8302   19.4396 C   0  0  0  0  0  0  0  0  0  0  0  0
    7.8829  -13.6423   20.3320 C   0  0  2  0  0  0  0  0  0  0  0  0
    8.6817  -12.5112   19.7875 N   0  0  0  0  0  0  0  0  0  0  0  0
    8.3252  -13.8934   21.7326 C   0  0  0  0  0  0  0  0  0  0  0  0
    9.5455  -14.1287   21.9024 O   0  0  0  0  0  0  0  0  0  0  0  0
    7.1667  -16.2494   13.8052 N   0  0  0  0  0  0  0  0  0  0  0  0
    7.4495  -13.8735   22.8466 C   0  0  2  0  0  0  0  0  0  0  0  0
    7.7102  -14.3329   24.1745 C   0  0  0  0  0  0  0  0  0  0  0  0
    6.6757  -13.9562   25.1663 S   0  0  0  0  0  0  0  0  0  0  0  0
    6.3276  -12.1806   25.2487 C   0  0  0  0  0  0  0  0  0  0  0  0
    8.3345  -15.6551   24.3091 O   0  0  0  0  0  0  0  0  0  0  0  0
    7.9827  -16.6901   23.6547 N   0  0  0  0  0  0  0  0  0  0  0  0
    9.4360  -15.9127   25.2115 C   0  0  1  0  0  0  0  0  0  0  0  0
   10.1862  -17.1127   25.2353 C   0  0  0  0  0  0  0  0  0  0  0  0
   11.1981  -17.3621   24.1919 C   0  0  0  0  0  0  0  0  0  0  0  0
   12.5987  -16.8982   24.5379 C   0  0  0  0  0  0  0  0  0  0  0  0
   13.5401  -17.0427   23.4191 O   0  0  0  0  0  0  0  0  0  0  0  0
   13.1257  -17.5409   22.3372 C   0  0  0  0  0  0  0  0  0  0  0  0
   10.6644  -17.5079   26.6108 O   0  0  0  0  0  0  0  0  0  0  0  0
   11.1197  -18.7845   26.8838 O   0  0  0  0  0  0  0  0  0  0  0  0
   14.8576  -16.6243   23.5969 O   0  0  0  0  0  0  0  0  0  0  0  0
  2  1  1  0
  2  4  1  0
  3  2  2  0
  5  6  1  0
  5  4  1  0
  7  8  1  0
  7  6  1  0
  8  9  1  6
 10  8  1  0
 10 11  2  0
 12 10  1  0
 13 16  1  0
 13 12  1  0
 13 14  1  6
 15 14  1  0
 16 18  1  0
 17 16  2  0
 18 19  1  0
 19 24  1  0
 19 20  1  1
 21 20  1  0
 22 26  1  0
 22 21  1  0
 23 22  2  0
 24 27  2  0
 24 25  1  0
M  END
$$$$
