RCE.pdb
     RDKit          3D

 27 26  0  0  1  0  0  0  0  0999 V2000
    7.7316  -12.9274   14.4931 N   0  0  0  0  0  0  0  0  0  0  0  0
    8.5708  -13.4070   15.5306 C   0  0  0  0  0  0  0  0  0  0  0  0
    9.3027  -14.4402   15.3756 N   0  0  0  0  0  0  0  0  0  0  0  0
    8.6068  -12.7211   16.7888 N   0  0  0  0  0  0  0  0  0  0  0  0
    7.7462  -13.0841   17.8901 C   0  0  0  0  0  0  0  0  0  0  0  0
    8.1515  -14.5182   18.2855 C   0  0  0  0  0  0  0  0  0  0  0  0
    9.0555  -14.4783   19.4725 C   0  0  0  0  0  0  0  0  0  0  0  0
    8.8243  -15.6606   20.3701 C   0  0  2  0  0  0  0  0  0  0  0  0
    7.3620  -15.9345   20.3905 N   0  0  0  0  0  0  0  0  0  0  0  0
    9.2704  -15.4074   21.7691 C   0  0  0  0  0  0  0  0  0  0  0  0
   10.4839  -15.1341   21.9307 O   0  0  0  0  0  0  0  0  0  0  0  0
   10.0312  -14.7138   16.0658 N   0  0  0  0  0  0  0  0  0  0  0  0
    8.4040  -15.4578   22.8894 C   0  0  1  0  0  0  0  0  0  0  0  0
    8.7483  -15.7136   24.2527 C   0  0  0  0  0  0  0  0  0  0  0  0
    7.6584  -15.4439   25.2197 S   0  0  0  0  0  0  0  0  0  0  0  0
    6.8100  -13.8631   24.9714 C   0  0  0  0  0  0  0  0  0  0  0  0
    9.6206  -16.8659   24.5122 O   0  0  0  0  0  0  0  0  0  0  0  0
    9.8204  -17.8200   23.6919 N   0  0  0  0  0  0  0  0  0  0  0  0
   10.3570  -17.0279   25.7473 C   0  0  1  0  0  0  0  0  0  0  0  0
   11.3828  -17.9825   25.9472 C   0  0  0  0  0  0  0  0  0  0  0  0
   12.4266  -18.1587   24.9205 C   0  0  0  0  0  0  0  0  0  0  0  0
   12.8889  -16.8782   24.2547 C   0  0  0  0  0  0  0  0  0  0  0  0
   13.9514  -17.1015   23.2647 O   0  0  0  0  0  0  0  0  0  0  0  0
   13.7026  -17.8197   22.2583 C   0  0  0  0  0  0  0  0  0  0  0  0
   11.9421  -17.9950   27.3485 O   0  0  0  0  0  0  0  0  0  0  0  0
   11.5426  -17.0745   28.2997 O   0  0  0  0  0  0  0  0  0  0  0  0
   15.1960  -16.5112   23.4765 O   0  0  0  0  0  0  0  0  0  0  0  0
  2  1  1  0
  2  4  1  0
  3  2  2  0
  5  6  1  0
  5  4  1  0
  7  8  1  0
  7  6  1  0
  8  9  1  1
 10  8  1  0
 10 11  2  0
 12 10  1  0
 13 16  1  0
 13 12  1  0
 13 14  1  1
 15 14  1  0
 16 18  1  0
 17 16  2  0
 18 19  1  0
 19 24  1  0
 19 20  1  1
 21 20  1  0
 22 26  1  0
 22 21  1  0
 23 22  2  0
 24 27  2  0
 24 25  1  0
M  END
$$$$
