RCE.pdb
     RDKit          3D

 27 26  0  0  1  0  0  0  0  0999 V2000
   10.1987  -13.3236   16.9990 N   0  0  0  0  0  0  0  0  0  0  0  0
    8.8632  -13.3867   16.5269 C   0  0  0  0  0  0  0  0  0  0  0  0
    8.5817  -13.2313   15.2925 N   0  0  0  0  0  0  0  0  0  0  0  0
    7.7946  -13.6318   17.4504 N   0  0  0  0  0  0  0  0  0  0  0  0
    7.9644  -13.5022   18.8786 C   0  0  0  0  0  0  0  0  0  0  0  0
    6.5856  -13.8106   19.4957 C   0  0  0  0  0  0  0  0  0  0  0  0
    6.6670  -13.7219   20.9835 C   0  0  0  0  0  0  0  0  0  0  0  0
    7.6205  -14.7428   21.5361 C   0  0  2  0  0  0  0  0  0  0  0  0
    6.8571  -15.9998   21.7622 N   0  0  0  0  0  0  0  0  0  0  0  0
    8.2161  -14.3194   22.8347 C   0  0  0  0  0  0  0  0  0  0  0  0
    9.0038  -13.3438   22.7995 O   0  0  0  0  0  0  0  0  0  0  0  0
    7.6133  -13.3320   14.9263 N   0  0  0  0  0  0  0  0  0  0  0  0
    7.9336  -14.9532   24.0703 C   0  0  1  0  0  0  0  0  0  0  0  0
    8.3520  -14.5521   25.3767 C   0  0  0  0  0  0  0  0  0  0  0  0
    7.4760  -13.5426   26.0164 S   0  0  0  0  0  0  0  0  0  0  0  0
    7.7340  -13.3476   27.7985 C   0  0  0  0  0  0  0  0  0  0  0  0
    8.9355  -15.5906   26.2350 O   0  0  0  0  0  0  0  0  0  0  0  0
    8.3143  -16.6269   26.6395 N   0  0  0  0  0  0  0  0  0  0  0  0
   10.3022  -15.5387   26.7080 C   0  0  1  0  0  0  0  0  0  0  0  0
   10.9538  -16.5959   27.3871 C   0  0  0  0  0  0  0  0  0  0  0  0
   12.0883  -17.2862   26.7459 C   0  0  0  0  0  0  0  0  0  0  0  0
   13.0515  -16.3793   26.0068 C   0  0  0  0  0  0  0  0  0  0  0  0
   14.1136  -17.1201   25.3125 O   0  0  0  0  0  0  0  0  0  0  0  0
   14.1180  -18.3795   25.3777 C   0  0  0  0  0  0  0  0  0  0  0  0
   11.1948  -16.3254   28.8520 O   0  0  0  0  0  0  0  0  0  0  0  0
   11.7038  -17.2943   29.6967 O   0  0  0  0  0  0  0  0  0  0  0  0
   15.0778  -16.4014   24.6081 O   0  0  0  0  0  0  0  0  0  0  0  0
  2  1  1  0
  2  4  1  0
  3  2  2  0
  5  6  1  0
  5  4  1  0
  7  8  1  0
  7  6  1  0
  8  9  1  1
 10  8  1  0
 10 11  2  0
 12 10  1  0
 13 16  1  0
 13 12  1  0
 13 14  1  6
 15 14  1  0
 16 18  1  0
 17 16  2  0
 18 19  1  0
 19 24  1  0
 19 20  1  1
 21 20  1  0
 22 26  1  0
 22 21  1  0
 23 22  2  0
 24 27  2  0
 24 25  1  0
M  END
$$$$
