RCE.pdb
     RDKit          3D

 27 26  0  0  1  0  0  0  0  0999 V2000
    8.4125  -12.5992   17.0439 N   0  0  0  0  0  0  0  0  0  0  0  0
    8.0176  -13.9574   16.9447 C   0  0  0  0  0  0  0  0  0  0  0  0
    8.5809  -14.7604   16.1292 N   0  0  0  0  0  0  0  0  0  0  0  0
    6.9610  -14.4520   17.7776 N   0  0  0  0  0  0  0  0  0  0  0  0
    7.0777  -15.6842   18.5215 C   0  0  0  0  0  0  0  0  0  0  0  0
    8.3665  -15.5506   19.3571 C   0  0  0  0  0  0  0  0  0  0  0  0
    8.0450  -15.6931   20.8076 C   0  0  0  0  0  0  0  0  0  0  0  0
    7.6314  -14.3774   21.4031 C   0  0  2  0  0  0  0  0  0  0  0  0
    8.2925  -13.2983   20.6205 N   0  0  0  0  0  0  0  0  0  0  0  0
    8.0482  -14.2423   22.8273 C   0  0  0  0  0  0  0  0  0  0  0  0
    9.2290  -14.5661   23.0998 O   0  0  0  0  0  0  0  0  0  0  0  0
    8.3752  -15.7799   16.1217 N   0  0  0  0  0  0  0  0  0  0  0  0
    7.1911  -13.7733   23.8538 C   0  0  1  0  0  0  0  0  0  0  0  0
    7.4629  -13.6950   25.2547 C   0  0  0  0  0  0  0  0  0  0  0  0
    6.8156  -12.5520   25.9404 S   0  0  0  0  0  0  0  0  0  0  0  0
    7.0566  -12.5203   27.7352 C   0  0  0  0  0  0  0  0  0  0  0  0
    7.5545  -14.9654   25.9852 O   0  0  0  0  0  0  0  0  0  0  0  0
    6.6493  -15.8620   25.9918 N   0  0  0  0  0  0  0  0  0  0  0  0
    8.7082  -15.3309   26.7787 C   0  0  1  0  0  0  0  0  0  0  0  0
    8.9983  -16.6479   27.2083 C   0  0  0  0  0  0  0  0  0  0  0  0
    9.0748  -17.7387   26.2189 C   0  0  0  0  0  0  0  0  0  0  0  0
   10.3868  -17.8258   25.4656 C   0  0  0  0  0  0  0  0  0  0  0  0
   10.2143  -18.2332   24.0646 O   0  0  0  0  0  0  0  0  0  0  0  0
   11.1727  -18.0683   23.2616 C   0  0  0  0  0  0  0  0  0  0  0  0
   10.0953  -16.7266   28.2415 O   0  0  0  0  0  0  0  0  0  0  0  0
   10.7138  -15.5923   28.7338 O   0  0  0  0  0  0  0  0  0  0  0  0
    8.9955  -18.7862   23.6754 O   0  0  0  0  0  0  0  0  0  0  0  0
  2  1  1  0
  2  4  1  0
  3  2  2  0
  5  6  1  0
  5  4  1  0
  7  8  1  0
  7  6  1  0
  8  9  1  6
 10  8  1  0
 10 11  2  0
 12 10  1  0
 13 16  1  0
 13 12  1  0
 13 14  1  1
 15 14  1  0
 16 18  1  0
 17 16  2  0
 18 19  1  0
 19 24  1  0
 19 20  1  1
 21 20  1  0
 22 26  1  0
 22 21  1  0
 23 22  2  0
 24 27  2  0
 24 25  1  0
M  END
$$$$
