RCE.pdb
     RDKit          3D

 27 26  0  0  1  0  0  0  0  0999 V2000
    9.4725  -14.1097   16.6198 N   0  0  0  0  0  0  0  0  0  0  0  0
    8.1699  -13.5500   16.5978 C   0  0  0  0  0  0  0  0  0  0  0  0
    7.5301  -13.3865   15.5064 N   0  0  0  0  0  0  0  0  0  0  0  0
    7.5459  -13.1556   17.8266 N   0  0  0  0  0  0  0  0  0  0  0  0
    8.2236  -13.2429   19.0987 C   0  0  0  0  0  0  0  0  0  0  0  0
    8.9022  -14.6272   19.1195 C   0  0  0  0  0  0  0  0  0  0  0  0
    9.7450  -14.7581   20.3445 C   0  0  0  0  0  0  0  0  0  0  0  0
    9.0726  -15.6190   21.3757 C   0  0  2  0  0  0  0  0  0  0  0  0
    7.6457  -15.7678   20.9809 N   0  0  0  0  0  0  0  0  0  0  0  0
    9.1186  -15.0153   22.7373 C   0  0  0  0  0  0  0  0  0  0  0  0
   10.1967  -14.4690   23.0730 O   0  0  0  0  0  0  0  0  0  0  0  0
    6.5682  -12.9914   15.4799 N   0  0  0  0  0  0  0  0  0  0  0  0
    8.0251  -15.0298   23.6386 C   0  0  1  0  0  0  0  0  0  0  0  0
    8.0667  -15.0164   25.0671 C   0  0  0  0  0  0  0  0  0  0  0  0
    7.2053  -13.9867   25.6944 S   0  0  0  0  0  0  0  0  0  0  0  0
    5.4822  -14.4926   25.9295 C   0  0  0  0  0  0  0  0  0  0  0  0
    8.1760  -16.3166   25.7404 O   0  0  0  0  0  0  0  0  0  0  0  0
    7.4675  -17.3376   25.4593 N   0  0  0  0  0  0  0  0  0  0  0  0
    9.1227  -16.5699   26.8051 C   0  0  1  0  0  0  0  0  0  0  0  0
    9.7335  -17.8229   27.0506 C   0  0  0  0  0  0  0  0  0  0  0  0
   10.3607  -18.5600   25.9379 C   0  0  0  0  0  0  0  0  0  0  0  0
   11.8748  -18.5031   25.9085 C   0  0  0  0  0  0  0  0  0  0  0  0
   12.4502  -19.2177   24.7608 O   0  0  0  0  0  0  0  0  0  0  0  0
   13.4329  -19.9844   24.9533 C   0  0  0  0  0  0  0  0  0  0  0  0
   10.5625  -17.8629   28.3107 O   0  0  0  0  0  0  0  0  0  0  0  0
   11.1373  -19.0347   28.7667 O   0  0  0  0  0  0  0  0  0  0  0  0
   11.8880  -19.0198   23.5010 O   0  0  0  0  0  0  0  0  0  0  0  0
  2  1  1  0
  2  4  1  0
  3  2  2  0
  5  6  1  0
  5  4  1  0
  7  8  1  0
  7  6  1  0
  8  9  1  6
 10  8  1  0
 10 11  2  0
 12 10  1  0
 13 16  1  0
 13 12  1  0
 13 14  1  1
 15 14  1  0
 16 18  1  0
 17 16  2  0
 18 19  1  0
 19 24  1  0
 19 20  1  1
 21 20  1  0
 22 26  1  0
 22 21  1  0
 23 22  2  0
 24 27  2  0
 24 25  1  0
M  END
$$$$
