RCE.pdb
     RDKit          3D

 27 26  0  0  1  0  0  0  0  0999 V2000
    6.7695  -15.2752   17.2394 N   0  0  0  0  0  0  0  0  0  0  0  0
    7.2579  -14.0019   17.6276 C   0  0  0  0  0  0  0  0  0  0  0  0
    7.8052  -13.2111   16.7896 N   0  0  0  0  0  0  0  0  0  0  0  0
    7.1380  -13.5817   18.9928 N   0  0  0  0  0  0  0  0  0  0  0  0
    7.0213  -14.5225   20.0821 C   0  0  0  0  0  0  0  0  0  0  0  0
    7.9666  -15.6894   19.7330 C   0  0  0  0  0  0  0  0  0  0  0  0
    8.6734  -16.1521   20.9636 C   0  0  0  0  0  0  0  0  0  0  0  0
    9.5988  -15.0914   21.4885 C   0  0  2  0  0  0  0  0  0  0  0  0
   10.9579  -15.3696   20.9508 N   0  0  0  0  0  0  0  0  0  0  0  0
    9.6773  -15.0920   22.9766 C   0  0  0  0  0  0  0  0  0  0  0  0
   10.4994  -15.8849   23.4951 O   0  0  0  0  0  0  0  0  0  0  0  0
    8.2073  -12.2942   17.0716 N   0  0  0  0  0  0  0  0  0  0  0  0
    8.8872  -14.2552   23.8035 C   0  0  1  0  0  0  0  0  0  0  0  0
    8.8559  -14.2121   25.2317 C   0  0  0  0  0  0  0  0  0  0  0  0
    7.9113  -13.2179   25.7930 S   0  0  0  0  0  0  0  0  0  0  0  0
    7.8286  -13.2007   27.6023 C   0  0  0  0  0  0  0  0  0  0  0  0
    8.9988  -15.4915   25.9378 O   0  0  0  0  0  0  0  0  0  0  0  0
    8.1354  -16.4282   25.9178 N   0  0  0  0  0  0  0  0  0  0  0  0
   10.1609  -15.8202   26.7351 C   0  0  1  0  0  0  0  0  0  0  0  0
   10.3163  -17.0239   27.4634 C   0  0  0  0  0  0  0  0  0  0  0  0
   11.3221  -18.0129   27.0335 C   0  0  0  0  0  0  0  0  0  0  0  0
   10.9619  -18.7857   25.7806 C   0  0  0  0  0  0  0  0  0  0  0  0
   12.1380  -19.1599   24.9834 O   0  0  0  0  0  0  0  0  0  0  0  0
   12.0502  -20.1402   24.1948 C   0  0  0  0  0  0  0  0  0  0  0  0
   10.2889  -16.8406   28.9609 O   0  0  0  0  0  0  0  0  0  0  0  0
   10.4378  -17.9077   29.8274 O   0  0  0  0  0  0  0  0  0  0  0  0
   13.3079  -18.4169   25.1302 O   0  0  0  0  0  0  0  0  0  0  0  0
  2  1  1  0
  2  4  1  0
  3  2  2  0
  5  6  1  0
  5  4  1  0
  7  8  1  0
  7  6  1  0
  8  9  1  6
 10  8  1  0
 10 11  2  0
 12 10  1  0
 13 16  1  0
 13 12  1  0
 13 14  1  1
 15 14  1  0
 16 18  1  0
 17 16  2  0
 18 19  1  0
 19 24  1  0
 19 20  1  1
 21 20  1  0
 22 26  1  0
 22 21  1  0
 23 22  2  0
 24 27  2  0
 24 25  1  0
M  END
$$$$
