RCE.pdb
     RDKit          3D

 27 26  0  0  1  0  0  0  0  0999 V2000
    7.8360  -18.3922   20.3380 N   0  0  0  0  0  0  0  0  0  0  0  0
    8.4643  -18.2952   19.0705 C   0  0  0  0  0  0  0  0  0  0  0  0
    9.4064  -19.0842   18.7284 N   0  0  0  0  0  0  0  0  0  0  0  0
    8.0376  -17.2901   18.1418 N   0  0  0  0  0  0  0  0  0  0  0  0
    7.0491  -16.2943   18.4831 C   0  0  0  0  0  0  0  0  0  0  0  0
    7.8279  -15.1356   19.1374 C   0  0  0  0  0  0  0  0  0  0  0  0
    6.8872  -14.0331   19.4945 C   0  0  0  0  0  0  0  0  0  0  0  0
    7.5928  -12.9409   20.2471 C   0  0  2  0  0  0  0  0  0  0  0  0
    8.7894  -12.5460   19.4559 N   0  0  0  0  0  0  0  0  0  0  0  0
    8.0503  -13.3835   21.5943 C   0  0  0  0  0  0  0  0  0  0  0  0
    9.1552  -13.9751   21.6458 O   0  0  0  0  0  0  0  0  0  0  0  0
    9.8493  -19.0460   17.7881 N   0  0  0  0  0  0  0  0  0  0  0  0
    7.3113  -13.1658   22.7838 C   0  0  2  0  0  0  0  0  0  0  0  0
    7.6030  -13.6474   24.0973 C   0  0  0  0  0  0  0  0  0  0  0  0
    6.8289  -12.9895   25.1760 S   0  0  0  0  0  0  0  0  0  0  0  0
    7.0599  -13.7200   26.8172 C   0  0  0  0  0  0  0  0  0  0  0  0
    7.8759  -15.0838   24.2324 O   0  0  0  0  0  0  0  0  0  0  0  0
    7.0523  -16.0073   23.9291 N   0  0  0  0  0  0  0  0  0  0  0  0
    9.1346  -15.5985   24.7271 C   0  0  1  0  0  0  0  0  0  0  0  0
    9.4084  -16.9705   24.9416 C   0  0  0  0  0  0  0  0  0  0  0  0
   10.2096  -17.7183   23.9548 C   0  0  0  0  0  0  0  0  0  0  0  0
   11.5150  -17.0573   23.5605 C   0  0  0  0  0  0  0  0  0  0  0  0
   12.2737  -17.8369   22.5729 O   0  0  0  0  0  0  0  0  0  0  0  0
   12.4920  -19.0579   22.8009 C   0  0  0  0  0  0  0  0  0  0  0  0
    9.7852  -17.3040   26.3642 O   0  0  0  0  0  0  0  0  0  0  0  0
    9.9897  -18.6078   26.7761 O   0  0  0  0  0  0  0  0  0  0  0  0
   12.7250  -17.1960   21.4205 O   0  0  0  0  0  0  0  0  0  0  0  0
  2  1  1  0
  2  4  1  0
  3  2  2  0
  5  6  1  0
  5  4  1  0
  7  8  1  0
  7  6  1  0
  8  9  1  6
 10  8  1  0
 10 11  2  0
 12 10  1  0
 13 16  1  0
 13 12  1  0
 13 14  1  6
 15 14  1  0
 16 18  1  0
 17 16  2  0
 18 19  1  0
 19 24  1  0
 19 20  1  1
 21 20  1  0
 22 26  1  0
 22 21  1  0
 23 22  2  0
 24 27  2  0
 24 25  1  0
M  END
$$$$
