RCE.pdb
     RDKit          3D

 27 26  0  0  1  0  0  0  0  0999 V2000
   10.1299  -14.0149   18.9133 N   0  0  0  0  0  0  0  0  0  0  0  0
    8.8625  -13.5325   18.4990 C   0  0  0  0  0  0  0  0  0  0  0  0
    8.6859  -12.3131   18.1685 N   0  0  0  0  0  0  0  0  0  0  0  0
    7.7448  -14.4284   18.4452 N   0  0  0  0  0  0  0  0  0  0  0  0
    7.8725  -15.8388   18.7278 C   0  0  0  0  0  0  0  0  0  0  0  0
    6.9628  -16.1082   19.9431 C   0  0  0  0  0  0  0  0  0  0  0  0
    7.7319  -15.9011   21.2054 C   0  0  0  0  0  0  0  0  0  0  0  0
    6.9045  -16.2540   22.4086 C   0  0  2  0  0  0  0  0  0  0  0  0
    5.4796  -15.9893   22.0718 N   0  0  0  0  0  0  0  0  0  0  0  0
    7.2606  -15.4366   23.6025 C   0  0  0  0  0  0  0  0  0  0  0  0
    7.0478  -14.2031   23.5222 O   0  0  0  0  0  0  0  0  0  0  0  0
    7.7796  -11.9639   17.7963 N   0  0  0  0  0  0  0  0  0  0  0  0
    7.8097  -15.9814   24.7900 C   0  0  1  0  0  0  0  0  0  0  0  0
    8.4463  -15.2827   25.8619 C   0  0  0  0  0  0  0  0  0  0  0  0
    7.8144  -13.9881   26.2088 S   0  0  0  0  0  0  0  0  0  0  0  0
    8.5633  -13.1442   27.6257 C   0  0  0  0  0  0  0  0  0  0  0  0
    8.9803  -16.0971   26.9608 O   0  0  0  0  0  0  0  0  0  0  0  0
    8.2740  -16.8340   27.7233 N   0  0  0  0  0  0  0  0  0  0  0  0
   10.3897  -16.1467   27.2854 C   0  0  1  0  0  0  0  0  0  0  0  0
   11.0649  -17.3043   27.7409 C   0  0  0  0  0  0  0  0  0  0  0  0
   12.0502  -17.9667   26.8661 C   0  0  0  0  0  0  0  0  0  0  0  0
   12.6237  -19.2578   27.4145 C   0  0  0  0  0  0  0  0  0  0  0  0
   13.5791  -19.8928   26.4965 O   0  0  0  0  0  0  0  0  0  0  0  0
   13.7524  -21.1400   26.5675 C   0  0  0  0  0  0  0  0  0  0  0  0
   11.5303  -17.2170   29.1736 O   0  0  0  0  0  0  0  0  0  0  0  0
   11.9143  -18.3395   29.8836 O   0  0  0  0  0  0  0  0  0  0  0  0
   14.2594  -19.0912   25.5815 O   0  0  0  0  0  0  0  0  0  0  0  0
  2  1  1  0
  2  4  1  0
  3  2  2  0
  5  6  1  0
  5  4  1  0
  7  8  1  0
  7  6  1  0
  8  9  1  6
 10  8  1  0
 10 11  2  0
 12 10  1  0
 13 16  1  0
 13 12  1  0
 13 14  1  6
 15 14  1  0
 16 18  1  0
 17 16  2  0
 18 19  1  0
 19 24  1  0
 19 20  1  1
 21 20  1  0
 22 26  1  0
 22 21  1  0
 23 22  2  0
 24 27  2  0
 24 25  1  0
M  END
$$$$
