RCE.pdb
     RDKit          3D

 27 26  0  0  1  0  0  0  0  0999 V2000
   11.4116  -20.2994   12.4072 N   0  0  0  0  0  0  0  0  0  0  0  0
   10.1743  -19.8174   12.9046 C   0  0  0  0  0  0  0  0  0  0  0  0
    9.2305  -19.4644   12.1224 N   0  0  0  0  0  0  0  0  0  0  0  0
    9.9671  -19.7213   14.3197 N   0  0  0  0  0  0  0  0  0  0  0  0
   10.9623  -20.1467   15.2757 C   0  0  0  0  0  0  0  0  0  0  0  0
   10.2724  -20.0921   16.6535 C   0  0  0  0  0  0  0  0  0  0  0  0
   11.0596  -19.2245   17.5784 C   0  0  0  0  0  0  0  0  0  0  0  0
   10.4169  -17.8757   17.7351 C   0  0  2  0  0  0  0  0  0  0  0  0
   10.8284  -17.0404   16.5746 N   0  0  0  0  0  0  0  0  0  0  0  0
   10.8463  -17.1835   18.9829 C   0  0  0  0  0  0  0  0  0  0  0  0
   11.5235  -16.1374   18.8400 O   0  0  0  0  0  0  0  0  0  0  0  0
    8.2986  -19.1661   12.4753 N   0  0  0  0  0  0  0  0  0  0  0  0
   10.5262  -17.6438   20.2844 C   0  0  1  0  0  0  0  0  0  0  0  0
   10.9137  -17.0726   21.5358 C   0  0  0  0  0  0  0  0  0  0  0  0
    9.7873  -16.5512   22.3451 S   0  0  0  0  0  0  0  0  0  0  0  0
   10.2677  -15.8945   23.9633 C   0  0  0  0  0  0  0  0  0  0  0  0
   12.0215  -17.7224   22.2477 O   0  0  0  0  0  0  0  0  0  0  0  0
   12.5007  -18.8646   21.9496 N   0  0  0  0  0  0  0  0  0  0  0  0
   12.6929  -17.1120   23.3750 C   0  0  1  0  0  0  0  0  0  0  0  0
   14.0984  -17.0418   23.5261 C   0  0  0  0  0  0  0  0  0  0  0  0
   14.9431  -16.7208   22.3607 C   0  0  0  0  0  0  0  0  0  0  0  0
   15.8134  -17.8605   21.8705 C   0  0  0  0  0  0  0  0  0  0  0  0
   16.7390  -17.4536   20.8044 O   0  0  0  0  0  0  0  0  0  0  0  0
   17.5828  -18.2897   20.3809 C   0  0  0  0  0  0  0  0  0  0  0  0
   14.5441  -16.3265   24.7778 O   0  0  0  0  0  0  0  0  0  0  0  0
   15.3653  -16.9338   25.7096 O   0  0  0  0  0  0  0  0  0  0  0  0
   16.6499  -16.1567   20.3020 O   0  0  0  0  0  0  0  0  0  0  0  0
  2  1  1  0
  2  4  1  0
  3  2  2  0
  5  6  1  0
  5  4  1  0
  7  8  1  0
  7  6  1  0
  8  9  1  6
 10  8  1  0
 10 11  2  0
 12 10  1  0
 13 16  1  0
 13 12  1  0
 13 14  1  6
 15 14  1  0
 16 18  1  0
 17 16  2  0
 18 19  1  0
 19 24  1  0
 19 20  1  1
 21 20  1  0
 22 26  1  0
 22 21  1  0
 23 22  2  0
 24 27  2  0
 24 25  1  0
M  END
$$$$
