RCE.pdb
     RDKit          3D

 27 26  0  0  1  0  0  0  0  0999 V2000
    8.5628  -15.4354   16.6617 N   0  0  0  0  0  0  0  0  0  0  0  0
    8.1079  -14.1338   16.3307 C   0  0  0  0  0  0  0  0  0  0  0  0
    7.8664  -13.7959   15.1246 N   0  0  0  0  0  0  0  0  0  0  0  0
    7.9096  -13.1657   17.3691 N   0  0  0  0  0  0  0  0  0  0  0  0
    8.3213  -13.4020   18.7329 C   0  0  0  0  0  0  0  0  0  0  0  0
    7.0220  -13.6303   19.5309 C   0  0  0  0  0  0  0  0  0  0  0  0
    7.2273  -13.2322   20.9547 C   0  0  0  0  0  0  0  0  0  0  0  0
    8.3982  -13.9558   21.5565 C   0  0  2  0  0  0  0  0  0  0  0  0
    8.1591  -15.4157   21.3968 N   0  0  0  0  0  0  0  0  0  0  0  0
    8.5591  -13.6663   23.0093 C   0  0  0  0  0  0  0  0  0  0  0  0
    8.6160  -12.4571   23.3379 O   0  0  0  0  0  0  0  0  0  0  0  0
    7.5954  -12.8264   14.8628 N   0  0  0  0  0  0  0  0  0  0  0  0
    8.6437  -14.6718   24.0043 C   0  0  1  0  0  0  0  0  0  0  0  0
    8.6992  -14.4994   25.4219 C   0  0  0  0  0  0  0  0  0  0  0  0
    7.7764  -13.4669   25.9491 S   0  0  0  0  0  0  0  0  0  0  0  0
    7.7996  -13.2906   27.7516 C   0  0  0  0  0  0  0  0  0  0  0  0
    8.9038  -15.7080   26.2303 O   0  0  0  0  0  0  0  0  0  0  0  0
    8.0436  -16.6372   26.3710 N   0  0  0  0  0  0  0  0  0  0  0  0
   10.1298  -15.9677   26.9540 C   0  0  1  0  0  0  0  0  0  0  0  0
   10.6511  -17.2592   27.2062 C   0  0  0  0  0  0  0  0  0  0  0  0
   11.8319  -17.7289   26.4581 C   0  0  0  0  0  0  0  0  0  0  0  0
   12.2505  -19.1545   26.7566 C   0  0  0  0  0  0  0  0  0  0  0  0
   13.4187  -19.5816   25.9745 O   0  0  0  0  0  0  0  0  0  0  0  0
   13.3039  -20.5731   25.2036 C   0  0  0  0  0  0  0  0  0  0  0  0
   10.7137  -17.6183   28.6704 O   0  0  0  0  0  0  0  0  0  0  0  0
   10.8509  -18.9275   29.0932 O   0  0  0  0  0  0  0  0  0  0  0  0
   14.6113  -18.8744   26.1155 O   0  0  0  0  0  0  0  0  0  0  0  0
  2  1  1  0
  2  4  1  0
  3  2  2  0
  5  6  1  0
  5  4  1  0
  7  8  1  0
  7  6  1  0
  8  9  1  1
 10  8  1  0
 10 11  2  0
 12 10  1  0
 13 16  1  0
 13 12  1  0
 13 14  1  1
 15 14  1  0
 16 18  1  0
 17 16  2  0
 18 19  1  0
 19 24  1  0
 19 20  1  1
 21 20  1  0
 22 26  1  0
 22 21  1  0
 23 22  2  0
 24 27  2  0
 24 25  1  0
M  END
$$$$
