RCE.pdb
     RDKit          3D

 27 26  0  0  1  0  0  0  0  0999 V2000
    3.9615  -19.6840   19.8267 N   0  0  0  0  0  0  0  0  0  0  0  0
    4.9154  -18.7837   19.2882 C   0  0  0  0  0  0  0  0  0  0  0  0
    4.7979  -18.3102   18.1095 N   0  0  0  0  0  0  0  0  0  0  0  0
    6.0434  -18.3877   20.0791 N   0  0  0  0  0  0  0  0  0  0  0  0
    7.2959  -19.1059   20.0505 C   0  0  0  0  0  0  0  0  0  0  0  0
    8.3990  -18.0292   20.0835 C   0  0  0  0  0  0  0  0  0  0  0  0
    8.5730  -17.5271   21.4783 C   0  0  0  0  0  0  0  0  0  0  0  0
    7.7893  -16.2651   21.7020 C   0  0  2  0  0  0  0  0  0  0  0  0
    7.7100  -15.5450   20.4024 N   0  0  0  0  0  0  0  0  0  0  0  0
    8.4367  -15.3631   22.6957 C   0  0  0  0  0  0  0  0  0  0  0  0
    9.6199  -15.6337   23.0124 O   0  0  0  0  0  0  0  0  0  0  0  0
    5.5638  -17.7828   17.6435 N   0  0  0  0  0  0  0  0  0  0  0  0
    7.7900  -14.2437   23.2763 C   0  0  2  0  0  0  0  0  0  0  0  0
    7.8656  -13.7930   24.6305 C   0  0  0  0  0  0  0  0  0  0  0  0
    6.7968  -12.8433   25.0195 S   0  0  0  0  0  0  0  0  0  0  0  0
    6.8607  -12.3105   26.7494 C   0  0  0  0  0  0  0  0  0  0  0  0
    8.3062  -14.7718   25.6324 O   0  0  0  0  0  0  0  0  0  0  0  0
    7.6576  -15.8210   25.9513 N   0  0  0  0  0  0  0  0  0  0  0  0
    9.5477  -14.6388   26.3638 C   0  0  1  0  0  0  0  0  0  0  0  0
   10.0054  -15.5599   27.3362 C   0  0  0  0  0  0  0  0  0  0  0  0
   11.1356  -16.4532   27.0212 C   0  0  0  0  0  0  0  0  0  0  0  0
   10.8167  -17.9332   27.0881 C   0  0  0  0  0  0  0  0  0  0  0  0
   11.9540  -18.7797   26.7023 O   0  0  0  0  0  0  0  0  0  0  0  0
   11.9284  -19.3576   25.5817 C   0  0  0  0  0  0  0  0  0  0  0  0
   10.0928  -14.9859   28.7290 O   0  0  0  0  0  0  0  0  0  0  0  0
   10.4346  -15.7668   29.8176 O   0  0  0  0  0  0  0  0  0  0  0  0
   13.0189  -18.9130   27.5916 O   0  0  0  0  0  0  0  0  0  0  0  0
  2  1  1  0
  2  4  1  0
  3  2  2  0
  5  6  1  0
  5  4  1  0
  7  8  1  0
  7  6  1  0
  8  9  1  6
 10  8  1  0
 10 11  2  0
 12 10  1  0
 13 16  1  0
 13 12  1  0
 13 14  1  6
 15 14  1  0
 16 18  1  0
 17 16  2  0
 18 19  1  0
 19 24  1  0
 19 20  1  1
 21 20  1  0
 22 26  1  0
 22 21  1  0
 23 22  2  0
 24 27  2  0
 24 25  1  0
M  END
$$$$
