RCE.pdb
     RDKit          3D

 27 26  0  0  1  0  0  0  0  0999 V2000
    7.8967  -11.6368   18.9217 N   0  0  0  0  0  0  0  0  0  0  0  0
    8.5308  -12.5434   18.0347 C   0  0  0  0  0  0  0  0  0  0  0  0
    9.5268  -12.1931   17.3188 N   0  0  0  0  0  0  0  0  0  0  0  0
    8.0501  -13.8899   17.9325 N   0  0  0  0  0  0  0  0  0  0  0  0
    6.9650  -14.3855   18.7463 C   0  0  0  0  0  0  0  0  0  0  0  0
    7.6272  -15.1533   19.9079 C   0  0  0  0  0  0  0  0  0  0  0  0
    6.5775  -15.6719   20.8337 C   0  0  0  0  0  0  0  0  0  0  0  0
    7.1815  -16.5166   21.9193 C   0  0  2  0  0  0  0  0  0  0  0  0
    6.0776  -17.2684   22.5751 N   0  0  0  0  0  0  0  0  0  0  0  0
    7.8700  -15.6996   22.9579 C   0  0  0  0  0  0  0  0  0  0  0  0
    8.9273  -15.1223   22.6083 O   0  0  0  0  0  0  0  0  0  0  0  0
    9.9810  -12.8408   16.6435 N   0  0  0  0  0  0  0  0  0  0  0  0
    7.3904  -15.5504   24.2831 C   0  0  1  0  0  0  0  0  0  0  0  0
    8.0791  -14.9991   25.4074 C   0  0  0  0  0  0  0  0  0  0  0  0
    7.3801  -13.8656   26.0573 S   0  0  0  0  0  0  0  0  0  0  0  0
    5.5778  -14.0333   26.1203 C   0  0  0  0  0  0  0  0  0  0  0  0
    8.8001  -15.9418   26.2720 O   0  0  0  0  0  0  0  0  0  0  0  0
    8.2800  -16.9749   26.8062 N   0  0  0  0  0  0  0  0  0  0  0  0
   10.2007  -15.7879   26.6015 C   0  0  1  0  0  0  0  0  0  0  0  0
   11.2012  -16.7446   26.3065 C   0  0  0  0  0  0  0  0  0  0  0  0
   12.2783  -16.4061   25.3578 C   0  0  0  0  0  0  0  0  0  0  0  0
   13.2605  -17.5266   25.0816 C   0  0  0  0  0  0  0  0  0  0  0  0
   14.2934  -17.1522   24.1060 O   0  0  0  0  0  0  0  0  0  0  0  0
   14.2260  -16.0200   23.5545 C   0  0  0  0  0  0  0  0  0  0  0  0
   11.7091  -17.4913   27.5154 O   0  0  0  0  0  0  0  0  0  0  0  0
   12.5307  -18.5969   27.3956 O   0  0  0  0  0  0  0  0  0  0  0  0
   15.3092  -18.0644   23.8259 O   0  0  0  0  0  0  0  0  0  0  0  0
  2  1  1  0
  2  4  1  0
  3  2  2  0
  5  6  1  0
  5  4  1  0
  7  8  1  0
  7  6  1  0
  8  9  1  1
 10  8  1  0
 10 11  2  0
 12 10  1  0
 13 16  1  0
 13 12  1  0
 13 14  1  1
 15 14  1  0
 16 18  1  0
 17 16  2  0
 18 19  1  0
 19 24  1  0
 19 20  1  1
 21 20  1  0
 22 26  1  0
 22 21  1  0
 23 22  2  0
 24 27  2  0
 24 25  1  0
M  END
$$$$
