RCE.pdb
     RDKit          3D

 27 26  0  0  1  0  0  0  0  0999 V2000
    9.3294  -14.8802   16.0967 N   0  0  0  0  0  0  0  0  0  0  0  0
    8.0441  -14.3201   16.3081 C   0  0  0  0  0  0  0  0  0  0  0  0
    7.7393  -13.1608   15.8721 N   0  0  0  0  0  0  0  0  0  0  0  0
    7.0540  -15.0666   17.0274 N   0  0  0  0  0  0  0  0  0  0  0  0
    7.3548  -16.3204   17.6775 C   0  0  0  0  0  0  0  0  0  0  0  0
    8.7353  -16.1313   18.3377 C   0  0  0  0  0  0  0  0  0  0  0  0
    8.5912  -16.1485   19.8232 C   0  0  0  0  0  0  0  0  0  0  0  0
    8.8163  -14.7822   20.4057 C   0  0  2  0  0  0  0  0  0  0  0  0
   10.0503  -14.2247   19.7890 N   0  0  0  0  0  0  0  0  0  0  0  0
    9.0094  -14.8192   21.8828 C   0  0  0  0  0  0  0  0  0  0  0  0
    9.9775  -15.4953   22.3057 O   0  0  0  0  0  0  0  0  0  0  0  0
    6.7719  -12.7827   15.9277 N   0  0  0  0  0  0  0  0  0  0  0  0
    8.1707  -14.1385   22.8002 C   0  0  2  0  0  0  0  0  0  0  0  0
    8.1830  -14.2217   24.2268 C   0  0  0  0  0  0  0  0  0  0  0  0
    7.2146  -13.3247   24.9002 S   0  0  0  0  0  0  0  0  0  0  0  0
    7.1636  -13.4946   26.7027 C   0  0  0  0  0  0  0  0  0  0  0  0
    8.4037  -15.5499   24.8126 O   0  0  0  0  0  0  0  0  0  0  0  0
    7.6589  -16.5629   24.6072 N   0  0  0  0  0  0  0  0  0  0  0  0
    9.5149  -15.8429   25.6921 C   0  0  1  0  0  0  0  0  0  0  0  0
    9.7932  -17.1224   26.2296 C   0  0  0  0  0  0  0  0  0  0  0  0
   10.4788  -18.1299   25.3992 C   0  0  0  0  0  0  0  0  0  0  0  0
   11.9847  -18.1738   25.5630 C   0  0  0  0  0  0  0  0  0  0  0  0
   12.6415  -19.0360   24.5711 O   0  0  0  0  0  0  0  0  0  0  0  0
   12.8958  -18.5641   23.4296 C   0  0  0  0  0  0  0  0  0  0  0  0
   10.3114  -17.0912   27.6464 O   0  0  0  0  0  0  0  0  0  0  0  0
   10.5992  -18.2511   28.3416 O   0  0  0  0  0  0  0  0  0  0  0  0
   12.9579  -20.3451   24.9298 O   0  0  0  0  0  0  0  0  0  0  0  0
  2  1  1  0
  2  4  1  0
  3  2  2  0
  5  6  1  0
  5  4  1  0
  7  8  1  0
  7  6  1  0
  8  9  1  6
 10  8  1  0
 10 11  2  0
 12 10  1  0
 13 16  1  0
 13 12  1  0
 13 14  1  1
 15 14  1  0
 16 18  1  0
 17 16  2  0
 18 19  1  0
 19 24  1  0
 19 20  1  1
 21 20  1  0
 22 26  1  0
 22 21  1  0
 23 22  2  0
 24 27  2  0
 24 25  1  0
M  END
$$$$
