RCE.pdb
     RDKit          3D

 27 26  0  0  1  0  0  0  0  0999 V2000
    8.8445  -11.2719   19.9327 N   0  0  0  0  0  0  0  0  0  0  0  0
    8.9004  -12.5821   19.3935 C   0  0  0  0  0  0  0  0  0  0  0  0
    8.5548  -12.8259   18.1901 N   0  0  0  0  0  0  0  0  0  0  0  0
    9.3562  -13.6675   20.2114 N   0  0  0  0  0  0  0  0  0  0  0  0
    9.3630  -15.0343   19.7457 C   0  0  0  0  0  0  0  0  0  0  0  0
    7.8884  -15.4845   19.7412 C   0  0  0  0  0  0  0  0  0  0  0  0
    7.6419  -16.4177   20.8797 C   0  0  0  0  0  0  0  0  0  0  0  0
    6.5968  -15.8724   21.8111 C   0  0  2  0  0  0  0  0  0  0  0  0
    5.7374  -14.9408   21.0318 N   0  0  0  0  0  0  0  0  0  0  0  0
    7.1898  -15.1166   22.9502 C   0  0  0  0  0  0  0  0  0  0  0  0
    7.1912  -13.8660   22.8541 O   0  0  0  0  0  0  0  0  0  0  0  0
    8.5094  -13.7930   17.8099 N   0  0  0  0  0  0  0  0  0  0  0  0
    7.7321  -15.7356   24.1040 C   0  0  1  0  0  0  0  0  0  0  0  0
    8.2865  -15.1028   25.2592 C   0  0  0  0  0  0  0  0  0  0  0  0
    7.7493  -13.7490   25.5321 S   0  0  0  0  0  0  0  0  0  0  0  0
    8.1114  -13.1193   27.1913 C   0  0  0  0  0  0  0  0  0  0  0  0
    8.5815  -15.9644   26.4110 O   0  0  0  0  0  0  0  0  0  0  0  0
    7.7539  -16.7794   26.9344 N   0  0  0  0  0  0  0  0  0  0  0  0
    9.8692  -15.9752   27.0712 C   0  0  1  0  0  0  0  0  0  0  0  0
   10.8046  -17.0337   26.9819 C   0  0  0  0  0  0  0  0  0  0  0  0
   11.2215  -17.5300   25.6573 C   0  0  0  0  0  0  0  0  0  0  0  0
   12.1687  -18.7126   25.6885 C   0  0  0  0  0  0  0  0  0  0  0  0
   12.6135  -19.1225   24.3495 O   0  0  0  0  0  0  0  0  0  0  0  0
   13.4919  -20.0220   24.2503 C   0  0  0  0  0  0  0  0  0  0  0  0
   11.9610  -16.9108   27.9435 O   0  0  0  0  0  0  0  0  0  0  0  0
   12.6417  -18.0207   28.4084 O   0  0  0  0  0  0  0  0  0  0  0  0
   12.0479  -18.4997   23.2384 O   0  0  0  0  0  0  0  0  0  0  0  0
  2  1  1  0
  2  4  1  0
  3  2  2  0
  5  6  1  0
  5  4  1  0
  7  8  1  0
  7  6  1  0
  8  9  1  6
 10  8  1  0
 10 11  2  0
 12 10  1  0
 13 16  1  0
 13 12  1  0
 13 14  1  1
 15 14  1  0
 16 18  1  0
 17 16  2  0
 18 19  1  0
 19 24  1  0
 19 20  1  1
 21 20  1  0
 22 26  1  0
 22 21  1  0
 23 22  2  0
 24 27  2  0
 24 25  1  0
M  END
$$$$
