RCE.pdb
     RDKit          3D

 27 26  0  0  1  0  0  0  0  0999 V2000
    9.2997  -17.7834   15.0973 N   0  0  0  0  0  0  0  0  0  0  0  0
    9.0691  -16.6100   15.8592 C   0  0  0  0  0  0  0  0  0  0  0  0
    8.9643  -15.4642   15.3084 N   0  0  0  0  0  0  0  0  0  0  0  0
    8.9478  -16.7015   17.2846 N   0  0  0  0  0  0  0  0  0  0  0  0
    7.7456  -16.3115   17.9830 C   0  0  0  0  0  0  0  0  0  0  0  0
    8.0982  -15.0118   18.7338 C   0  0  0  0  0  0  0  0  0  0  0  0
    6.9029  -14.5194   19.4798 C   0  0  0  0  0  0  0  0  0  0  0  0
    7.2255  -13.2783   20.2624 C   0  0  2  0  0  0  0  0  0  0  0  0
    8.0766  -12.4104   19.4043 N   0  0  0  0  0  0  0  0  0  0  0  0
    7.9766  -13.5756   21.5145 C   0  0  0  0  0  0  0  0  0  0  0  0
    9.2012  -13.8172   21.3908 O   0  0  0  0  0  0  0  0  0  0  0  0
    8.7799  -14.5992   15.8558 N   0  0  0  0  0  0  0  0  0  0  0  0
    7.3814  -13.5917   22.8005 C   0  0  1  0  0  0  0  0  0  0  0  0
    7.8357  -14.2798   23.9678 C   0  0  0  0  0  0  0  0  0  0  0  0
    7.0179  -14.0353   25.1791 S   0  0  0  0  0  0  0  0  0  0  0  0
    6.2516  -12.3956   25.2478 C   0  0  0  0  0  0  0  0  0  0  0  0
    8.3797  -15.6296   23.7733 O   0  0  0  0  0  0  0  0  0  0  0  0
    8.1126  -16.3799   22.7788 N   0  0  0  0  0  0  0  0  0  0  0  0
    9.2953  -16.2471   24.7085 C   0  0  1  0  0  0  0  0  0  0  0  0
   10.3891  -17.0642   24.3353 C   0  0  0  0  0  0  0  0  0  0  0  0
   11.2443  -16.6666   23.2017 C   0  0  0  0  0  0  0  0  0  0  0  0
   12.3623  -17.6362   22.8753 C   0  0  0  0  0  0  0  0  0  0  0  0
   13.1284  -17.2436   21.6846 O   0  0  0  0  0  0  0  0  0  0  0  0
   13.0154  -16.0646   21.2512 C   0  0  0  0  0  0  0  0  0  0  0  0
   11.1857  -17.5910   25.5036 O   0  0  0  0  0  0  0  0  0  0  0  0
   10.9269  -17.1893   26.8010 O   0  0  0  0  0  0  0  0  0  0  0  0
   13.9511  -18.1909   21.0778 O   0  0  0  0  0  0  0  0  0  0  0  0
  2  1  1  0
  2  4  1  0
  3  2  2  0
  5  6  1  0
  5  4  1  0
  7  8  1  0
  7  6  1  0
  8  9  1  6
 10  8  1  0
 10 11  2  0
 12 10  1  0
 13 16  1  0
 13 12  1  0
 13 14  1  1
 15 14  1  0
 16 18  1  0
 17 16  2  0
 18 19  1  0
 19 24  1  0
 19 20  1  1
 21 20  1  0
 22 26  1  0
 22 21  1  0
 23 22  2  0
 24 27  2  0
 24 25  1  0
M  END
$$$$
