WKA.pdb
     RDKit          3D

 29 30  0  0  1  0  0  0  0  0999 V2000
    6.3391  -18.2695   24.5985 N   0  0  0  0  0  0  0  0  0  0  0  0
    6.6005  -16.8540   24.4490 C   0  0  1  0  0  0  0  0  0  0  0  0
    7.2680  -16.3853   25.7351 C   0  0  0  0  0  0  0  0  0  0  0  0
    6.6504  -15.1140   26.1807 C   0  0  0  0  0  0  0  0  0  0  0  0
    5.3068  -14.9594   26.4550 C   0  0  0  0  0  0  0  0  0  0  0  0
    5.1329  -13.6782   26.8243 N   0  0  0  0  0  0  0  0  0  0  0  0
    6.3236  -13.0268   26.7900 C   0  0  0  0  0  0  0  0  0  0  0  0
    6.6769  -11.7287   27.0723 C   0  0  0  0  0  0  0  0  0  0  0  0
    7.9800  -11.2963   26.9606 C   0  0  0  0  0  0  0  0  0  0  0  0
    8.9656  -12.1921   26.5524 C   0  0  0  0  0  0  0  0  0  0  0  0
    8.6163  -13.4937   26.2684 C   0  0  0  0  0  0  0  0  0  0  0  0
    7.3033  -13.9111   26.3858 C   0  0  0  0  0  0  0  0  0  0  0  0
    7.5226  -16.6375   23.3067 C   0  0  0  0  0  0  0  0  0  0  0  0
    8.2352  -17.6382   22.9371 O   0  0  0  0  0  0  0  0  0  0  0  0
    7.6165  -15.3898   22.6516 N   0  0  0  0  0  0  0  0  0  0  0  0
    8.5121  -15.2847   21.5052 C   0  0  1  0  0  0  0  0  0  0  0  0
    8.5855  -13.8689   20.9920 C   0  0  0  0  0  0  0  0  0  0  0  0
    7.6528  -13.6143   19.8293 C   0  0  0  0  0  0  0  0  0  0  0  0
    8.4042  -14.0703   18.5780 C   0  0  0  0  0  0  0  0  0  0  0  0
    7.5310  -13.8790   17.3551 C   0  0  0  0  0  0  0  0  0  0  0  0
    8.2980  -14.2070   16.1775 N   0  0  0  0  0  0  0  0  0  0  0  0
    9.8828  -15.6514   21.9408 C   0  0  0  0  0  0  0  0  0  0  0  0
   10.4439  -15.0208   22.8776 O   0  0  0  0  0  0  0  0  0  0  0  0
   12.3898  -18.3993   21.3164 C   0  0  0  0  0  0  0  0  0  0  0  0
   11.9634  -17.0229   21.7581 C   0  0  2  0  0  0  0  0  0  0  0  0
   10.6257  -16.7012   21.3498 N   0  0  0  0  0  0  0  0  0  0  0  0
   12.9062  -16.0293   21.2337 C   0  0  0  0  0  0  0  0  0  0  0  0
   12.5331  -15.2288   20.3390 O   0  0  0  0  0  0  0  0  0  0  0  0
   14.1980  -15.9866   21.7326 O   0  0  0  0  0  0  0  0  0  0  0  0
  2  1  1  1
  2  3  1  0
  3  4  1  0
  4  5  2  0
  4 12  1  0
  5  6  1  0
  6  7  1  0
  7  8  2  0
  9  8  1  0
 10  9  2  0
 11 10  1  0
 12 11  2  0
 12  7  1  0
 13 15  1  0
 13  2  1  0
 14 13  2  0
 16 15  1  0
 16 17  1  1
 17 18  1  0
 19 18  1  0
 20 19  1  0
 20 21  1  0
 22 16  1  0
 23 22  2  0
 25 24  1  6
 25 27  1  0
 25 26  1  0
 26 22  1  0
 27 29  1  0
 28 27  2  0
M  END
$$$$
