WKA.pdb
     RDKit          3D

 29 30  0  0  1  0  0  0  0  0999 V2000
    6.2377  -17.8747   24.1611 N   0  0  0  0  0  0  0  0  0  0  0  0
    6.6048  -16.4872   23.9752 C   0  0  1  0  0  0  0  0  0  0  0  0
    7.5826  -16.1316   25.0872 C   0  0  0  0  0  0  0  0  0  0  0  0
    6.9682  -15.1264   25.9864 C   0  0  0  0  0  0  0  0  0  0  0  0
    6.0534  -15.4271   26.9748 C   0  0  0  0  0  0  0  0  0  0  0  0
    5.7302  -14.2647   27.5686 N   0  0  0  0  0  0  0  0  0  0  0  0
    6.4130  -13.2472   26.9838 C   0  0  0  0  0  0  0  0  0  0  0  0
    6.4362  -11.8930   27.2184 C   0  0  0  0  0  0  0  0  0  0  0  0
    7.2290  -11.0466   26.4749 C   0  0  0  0  0  0  0  0  0  0  0  0
    8.0271  -11.5714   25.4610 C   0  0  0  0  0  0  0  0  0  0  0  0
    8.0071  -12.9276   25.2223 C   0  0  0  0  0  0  0  0  0  0  0  0
    7.2053  -13.7629   25.9782 C   0  0  0  0  0  0  0  0  0  0  0  0
    7.2715  -16.3222   22.6599 C   0  0  0  0  0  0  0  0  0  0  0  0
    7.8298  -17.3619   22.1567 O   0  0  0  0  0  0  0  0  0  0  0  0
    7.2943  -15.0806   21.9870 N   0  0  0  0  0  0  0  0  0  0  0  0
    7.9685  -15.0148   20.6953 C   0  0  1  0  0  0  0  0  0  0  0  0
    7.9633  -13.6120   20.1426 C   0  0  0  0  0  0  0  0  0  0  0  0
    8.7585  -13.4798   18.8631 C   0  0  0  0  0  0  0  0  0  0  0  0
    7.8920  -14.0931   17.7626 C   0  0  0  0  0  0  0  0  0  0  0  0
    8.6239  -14.0328   16.4377 C   0  0  0  0  0  0  0  0  0  0  0  0
    7.8053  -14.6517   15.4231 N   0  0  0  0  0  0  0  0  0  0  0  0
    9.3914  -15.3926   20.8848 C   0  0  0  0  0  0  0  0  0  0  0  0
   10.1304  -14.7252   21.6585 O   0  0  0  0  0  0  0  0  0  0  0  0
   11.7343  -18.1503   19.7649 C   0  0  0  0  0  0  0  0  0  0  0  0
   11.3755  -16.8327   20.4024 C   0  0  2  0  0  0  0  0  0  0  0  0
    9.9919  -16.4934   20.2285 N   0  0  0  0  0  0  0  0  0  0  0  0
   12.2297  -15.7760   19.8505 C   0  0  0  0  0  0  0  0  0  0  0  0
   11.8500  -15.1336   18.8387 O   0  0  0  0  0  0  0  0  0  0  0  0
   13.4463  -15.4997   20.4531 O   0  0  0  0  0  0  0  0  0  0  0  0
  2  1  1  1
  2  3  1  0
  3  4  1  0
  4  5  2  0
  4 12  1  0
  5  6  1  0
  6  7  1  0
  7  8  2  0
  9  8  1  0
 10  9  2  0
 11 10  1  0
 12 11  2  0
 12  7  1  0
 13 15  1  0
 13  2  1  0
 14 13  2  0
 16 15  1  0
 16 17  1  1
 17 18  1  0
 19 18  1  0
 20 19  1  0
 20 21  1  0
 22 16  1  0
 23 22  2  0
 25 24  1  6
 25 27  1  0
 25 26  1  0
 26 22  1  0
 27 29  1  0
 28 27  2  0
M  END
$$$$
