WKA.pdb
     RDKit          3D

 29 30  0  0  1  0  0  0  0  0999 V2000
    6.8294  -18.3246   24.5818 N   0  0  0  0  0  0  0  0  0  0  0  0
    6.9171  -16.9538   24.1263 C   0  0  1  0  0  0  0  0  0  0  0  0
    7.7524  -16.1962   25.1498 C   0  0  0  0  0  0  0  0  0  0  0  0
    6.9148  -15.1686   25.8123 C   0  0  0  0  0  0  0  0  0  0  0  0
    5.7184  -15.4349   26.4463 C   0  0  0  0  0  0  0  0  0  0  0  0
    5.2607  -14.2611   26.9163 N   0  0  0  0  0  0  0  0  0  0  0  0
    6.1318  -13.2698   26.5970 C   0  0  0  0  0  0  0  0  0  0  0  0
    6.1249  -11.9173   26.8421 C   0  0  0  0  0  0  0  0  0  0  0  0
    7.1455  -11.1011   26.4063 C   0  0  0  0  0  0  0  0  0  0  0  0
    8.2110  -11.6554   25.7007 C   0  0  0  0  0  0  0  0  0  0  0  0
    8.2221  -13.0101   25.4527 C   0  0  0  0  0  0  0  0  0  0  0  0
    7.1894  -13.8148   25.8973 C   0  0  0  0  0  0  0  0  0  0  0  0
    7.5950  -16.9116   22.8070 C   0  0  0  0  0  0  0  0  0  0  0  0
    8.2018  -17.9775   22.4309 O   0  0  0  0  0  0  0  0  0  0  0  0
    7.5770  -15.7546   21.9971 N   0  0  0  0  0  0  0  0  0  0  0  0
    8.2517  -15.8131   20.7053 C   0  0  1  0  0  0  0  0  0  0  0  0
    8.0270  -14.5525   19.9093 C   0  0  0  0  0  0  0  0  0  0  0  0
    8.7574  -14.5535   18.5852 C   0  0  0  0  0  0  0  0  0  0  0  0
    8.0113  -13.5628   17.6910 C   0  0  0  0  0  0  0  0  0  0  0  0
    8.4163  -13.7679   16.2458 C   0  0  0  0  0  0  0  0  0  0  0  0
    7.6589  -12.8628   15.4153 N   0  0  0  0  0  0  0  0  0  0  0  0
    9.7139  -15.9138   20.9397 C   0  0  0  0  0  0  0  0  0  0  0  0
   10.5155  -15.9343   19.9665 O   0  0  0  0  0  0  0  0  0  0  0  0
   12.1220  -15.6025   23.8044 C   0  0  0  0  0  0  0  0  0  0  0  0
   11.7005  -16.0961   22.4442 C   0  0  2  0  0  0  0  0  0  0  0  0
   10.2850  -15.9912   22.2325 N   0  0  0  0  0  0  0  0  0  0  0  0
   12.1369  -17.4859   22.2737 C   0  0  0  0  0  0  0  0  0  0  0  0
   13.3636  -17.7604   22.2965 O   0  0  0  0  0  0  0  0  0  0  0  0
   11.1890  -18.4794   22.0893 O   0  0  0  0  0  0  0  0  0  0  0  0
  2  1  1  1
  2  3  1  0
  3  4  1  0
  4  5  2  0
  4 12  1  0
  5  6  1  0
  6  7  1  0
  7  8  2  0
  9  8  1  0
 10  9  2  0
 11 10  1  0
 12 11  2  0
 12  7  1  0
 13 15  1  0
 13  2  1  0
 14 13  2  0
 16 15  1  0
 16 17  1  6
 17 18  1  0
 19 18  1  0
 20 19  1  0
 20 21  1  0
 22 16  1  0
 23 22  2  0
 25 24  1  1
 25 27  1  0
 25 26  1  0
 26 22  1  0
 27 29  1  0
 28 27  2  0
M  END
$$$$
