WKA.pdb
     RDKit          3D

 29 30  0  0  1  0  0  0  0  0999 V2000
    8.3135  -13.9343   24.4013 N   0  0  0  0  0  0  0  0  0  0  0  0
    8.6842  -15.3223   24.2279 C   0  0  1  0  0  0  0  0  0  0  0  0
    8.1762  -16.0758   25.4500 C   0  0  0  0  0  0  0  0  0  0  0  0
    7.9846  -15.1286   26.5736 C   0  0  0  0  0  0  0  0  0  0  0  0
    8.1114  -15.4695   27.9048 C   0  0  0  0  0  0  0  0  0  0  0  0
    7.8634  -14.3545   28.6144 N   0  0  0  0  0  0  0  0  0  0  0  0
    7.5859  -13.3278   27.7704 C   0  0  0  0  0  0  0  0  0  0  0  0
    7.2720  -12.0077   27.9907 C   0  0  0  0  0  0  0  0  0  0  0  0
    7.0271  -11.1418   26.9477 C   0  0  0  0  0  0  0  0  0  0  0  0
    7.0982  -11.6109   25.6380 C   0  0  0  0  0  0  0  0  0  0  0  0
    7.4123  -12.9327   25.4124 C   0  0  0  0  0  0  0  0  0  0  0  0
    7.6552  -13.7883   26.4711 C   0  0  0  0  0  0  0  0  0  0  0  0
    8.0322  -15.8617   23.0090 C   0  0  0  0  0  0  0  0  0  0  0  0
    7.7274  -17.1078   23.0157 O   0  0  0  0  0  0  0  0  0  0  0  0
    7.7567  -15.0464   21.8890 N   0  0  0  0  0  0  0  0  0  0  0  0
    8.1017  -15.5594   20.5679 C   0  0  1  0  0  0  0  0  0  0  0  0
    8.0105  -14.4813   19.5178 C   0  0  0  0  0  0  0  0  0  0  0  0
    8.1846  -15.0115   18.1123 C   0  0  0  0  0  0  0  0  0  0  0  0
    7.8956  -13.8353   17.1789 C   0  0  0  0  0  0  0  0  0  0  0  0
    7.8427  -14.3180   15.7441 C   0  0  0  0  0  0  0  0  0  0  0  0
    7.5355  -13.1992   14.8858 N   0  0  0  0  0  0  0  0  0  0  0  0
    9.5149  -16.0129   20.5910 C   0  0  0  0  0  0  0  0  0  0  0  0
   10.4179  -15.2616   21.0495 O   0  0  0  0  0  0  0  0  0  0  0  0
   11.4999  -19.1557   20.1779 C   0  0  0  0  0  0  0  0  0  0  0  0
   11.3074  -17.6667   20.0478 C   0  0  2  0  0  0  0  0  0  0  0  0
    9.9269  -17.2801   20.1138 N   0  0  0  0  0  0  0  0  0  0  0  0
   11.9028  -17.2068   18.7888 C   0  0  0  0  0  0  0  0  0  0  0  0
   11.1653  -16.7309   17.8888 O   0  0  0  0  0  0  0  0  0  0  0  0
   13.2731  -17.3036   18.6083 O   0  0  0  0  0  0  0  0  0  0  0  0
  2  1  1  1
  2  3  1  0
  3  4  1  0
  4  5  2  0
  4 12  1  0
  5  6  1  0
  6  7  1  0
  7  8  2  0
  9  8  1  0
 10  9  2  0
 11 10  1  0
 12 11  2  0
 12  7  1  0
 13 15  1  0
 13  2  1  0
 14 13  2  0
 16 15  1  0
 16 17  1  6
 17 18  1  0
 19 18  1  0
 20 19  1  0
 20 21  1  0
 22 16  1  0
 23 22  2  0
 25 24  1  6
 25 27  1  0
 25 26  1  0
 26 22  1  0
 27 29  1  0
 28 27  2  0
M  END
$$$$
