WKA.pdb
     RDKit          3D

 29 30  0  0  1  0  0  0  0  0999 V2000
    9.5795  -14.8753   23.4143 N   0  0  0  0  0  0  0  0  0  0  0  0
    9.2071  -16.1665   23.9512 C   0  0  1  0  0  0  0  0  0  0  0  0
    7.7838  -16.0372   24.4773 C   0  0  0  0  0  0  0  0  0  0  0  0
    7.7707  -15.1458   25.6612 C   0  0  0  0  0  0  0  0  0  0  0  0
    8.2077  -15.5176   26.9162 C   0  0  0  0  0  0  0  0  0  0  0  0
    8.0376  -14.4504   27.7164 N   0  0  0  0  0  0  0  0  0  0  0  0
    7.5087  -13.4236   27.0028 C   0  0  0  0  0  0  0  0  0  0  0  0
    7.1533  -12.1419   27.3497 C   0  0  0  0  0  0  0  0  0  0  0  0
    6.6248  -11.2661   26.4270 C   0  0  0  0  0  0  0  0  0  0  0  0
    6.4449  -11.6853   25.1108 C   0  0  0  0  0  0  0  0  0  0  0  0
    6.7996  -12.9686   24.7585 C   0  0  0  0  0  0  0  0  0  0  0  0
    7.3287  -13.8348   25.6976 C   0  0  0  0  0  0  0  0  0  0  0  0
    9.2436  -17.1827   22.8705 C   0  0  0  0  0  0  0  0  0  0  0  0
    8.8212  -18.3581   23.1633 O   0  0  0  0  0  0  0  0  0  0  0  0
    9.7202  -16.8770   21.5766 N   0  0  0  0  0  0  0  0  0  0  0  0
    9.7212  -17.9408   20.5787 C   0  0  1  0  0  0  0  0  0  0  0  0
    9.3622  -17.4142   19.2123 C   0  0  0  0  0  0  0  0  0  0  0  0
    9.3049  -18.4981   18.1594 C   0  0  0  0  0  0  0  0  0  0  0  0
    8.8900  -17.8041   16.8616 C   0  0  0  0  0  0  0  0  0  0  0  0
    8.7654  -18.8248   15.7493 C   0  0  0  0  0  0  0  0  0  0  0  0
    8.1593  -18.1936   14.6018 N   0  0  0  0  0  0  0  0  0  0  0  0
   11.0959  -18.4910   20.4755 C   0  0  0  0  0  0  0  0  0  0  0  0
   12.0950  -17.7232   20.5247 O   0  0  0  0  0  0  0  0  0  0  0  0
   12.7344  -21.8871   20.0751 C   0  0  0  0  0  0  0  0  0  0  0  0
   12.6950  -20.3822   20.1447 C   0  0  2  0  0  0  0  0  0  0  0  0
   11.3652  -19.8717   20.3197 N   0  0  0  0  0  0  0  0  0  0  0  0
   13.2970  -19.8225   18.9300 C   0  0  0  0  0  0  0  0  0  0  0  0
   12.6096  -19.7275   17.8817 O   0  0  0  0  0  0  0  0  0  0  0  0
   14.6180  -19.4055   18.9547 O   0  0  0  0  0  0  0  0  0  0  0  0
  2  1  1  6
  2  3  1  0
  3  4  1  0
  4  5  2  0
  4 12  1  0
  5  6  1  0
  6  7  1  0
  7  8  2  0
  9  8  1  0
 10  9  2  0
 11 10  1  0
 12 11  2  0
 12  7  1  0
 13 15  1  0
 13  2  1  0
 14 13  2  0
 16 15  1  0
 16 17  1  6
 17 18  1  0
 19 18  1  0
 20 19  1  0
 20 21  1  0
 22 16  1  0
 23 22  2  0
 25 24  1  6
 25 27  1  0
 25 26  1  0
 26 22  1  0
 27 29  1  0
 28 27  2  0
M  END
$$$$
