WKA.pdb
     RDKit          3D

 29 30  0  0  1  0  0  0  0  0999 V2000
    6.5666  -18.2062   24.3116 N   0  0  0  0  0  0  0  0  0  0  0  0
    6.7786  -16.7978   24.0553 C   0  0  1  0  0  0  0  0  0  0  0  0
    7.6846  -16.2744   25.1618 C   0  0  0  0  0  0  0  0  0  0  0  0
    6.9697  -15.2351   25.9396 C   0  0  0  0  0  0  0  0  0  0  0  0
    5.8118  -15.4621   26.6553 C   0  0  0  0  0  0  0  0  0  0  0  0
    5.4692  -14.2897   27.2177 N   0  0  0  0  0  0  0  0  0  0  0  0
    6.3748  -13.3372   26.8770 C   0  0  0  0  0  0  0  0  0  0  0  0
    6.4746  -12.0019   27.1874 C   0  0  0  0  0  0  0  0  0  0  0  0
    7.5085  -11.2268   26.7102 C   0  0  0  0  0  0  0  0  0  0  0  0
    8.4775  -11.8058   25.8939 C   0  0  0  0  0  0  0  0  0  0  0  0
    8.3816  -13.1434   25.5802 C   0  0  0  0  0  0  0  0  0  0  0  0
    7.3369  -13.9069   26.0678 C   0  0  0  0  0  0  0  0  0  0  0  0
    7.4520  -16.6278   22.7439 C   0  0  0  0  0  0  0  0  0  0  0  0
    8.1560  -17.6129   22.3200 O   0  0  0  0  0  0  0  0  0  0  0  0
    7.3278  -15.4390   21.9916 N   0  0  0  0  0  0  0  0  0  0  0  0
    8.0484  -15.3516   20.7264 C   0  0  1  0  0  0  0  0  0  0  0  0
    7.9257  -13.9781   20.1168 C   0  0  0  0  0  0  0  0  0  0  0  0
    8.7928  -13.7977   18.8911 C   0  0  0  0  0  0  0  0  0  0  0  0
    7.8641  -13.9678   17.6884 C   0  0  0  0  0  0  0  0  0  0  0  0
    8.6684  -13.9173   16.4059 C   0  0  0  0  0  0  0  0  0  0  0  0
    7.7677  -14.0357   15.2845 N   0  0  0  0  0  0  0  0  0  0  0  0
    9.4925  -15.5737   20.9885 C   0  0  0  0  0  0  0  0  0  0  0  0
   10.1093  -14.8477   21.8147 O   0  0  0  0  0  0  0  0  0  0  0  0
   12.0491  -18.2424   20.3718 C   0  0  0  0  0  0  0  0  0  0  0  0
   11.6304  -16.8210   20.6466 C   0  0  2  0  0  0  0  0  0  0  0  0
   10.2470  -16.5846   20.3466 N   0  0  0  0  0  0  0  0  0  0  0  0
   12.4795  -15.9057   19.8769 C   0  0  0  0  0  0  0  0  0  0  0  0
   13.6773  -15.7330   20.2175 O   0  0  0  0  0  0  0  0  0  0  0  0
   11.9485  -15.2423   18.7826 O   0  0  0  0  0  0  0  0  0  0  0  0
  2  1  1  1
  2  3  1  0
  3  4  1  0
  4  5  2  0
  4 12  1  0
  5  6  1  0
  6  7  1  0
  7  8  2  0
  9  8  1  0
 10  9  2  0
 11 10  1  0
 12 11  2  0
 12  7  1  0
 13 15  1  0
 13  2  1  0
 14 13  2  0
 16 15  1  0
 16 17  1  1
 17 18  1  0
 19 18  1  0
 20 19  1  0
 20 21  1  0
 22 16  1  0
 23 22  2  0
 25 24  1  6
 25 27  1  0
 25 26  1  0
 26 22  1  0
 27 29  1  0
 28 27  2  0
M  END
$$$$
