WKA.pdb
     RDKit          3D

 29 30  0  0  1  0  0  0  0  0999 V2000
    6.5198  -18.2153   24.5553 N   0  0  0  0  0  0  0  0  0  0  0  0
    6.8399  -16.8214   24.3344 C   0  0  1  0  0  0  0  0  0  0  0  0
    7.5103  -16.3112   25.6031 C   0  0  0  0  0  0  0  0  0  0  0  0
    6.7560  -15.1500   26.1312 C   0  0  0  0  0  0  0  0  0  0  0  0
    5.4675  -15.2204   26.6204 C   0  0  0  0  0  0  0  0  0  0  0  0
    5.1301  -13.9754   27.0004 N   0  0  0  0  0  0  0  0  0  0  0  0
    6.1653  -13.1291   26.7649 C   0  0  0  0  0  0  0  0  0  0  0  0
    6.3230  -11.7794   26.9724 C   0  0  0  0  0  0  0  0  0  0  0  0
    7.4938  -11.1321   26.6443 C   0  0  0  0  0  0  0  0  0  0  0  0
    8.5448  -11.8585   26.0891 C   0  0  0  0  0  0  0  0  0  0  0  0
    8.3914  -13.2110   25.8793 C   0  0  0  0  0  0  0  0  0  0  0  0
    7.2092  -13.8450   26.2145 C   0  0  0  0  0  0  0  0  0  0  0  0
    7.7837  -16.7033   23.1955 C   0  0  0  0  0  0  0  0  0  0  0  0
    8.5917  -17.6816   23.0063 O   0  0  0  0  0  0  0  0  0  0  0  0
    7.7973  -15.5689   22.3541 N   0  0  0  0  0  0  0  0  0  0  0  0
    8.8127  -15.5044   21.3090 C   0  0  1  0  0  0  0  0  0  0  0  0
    8.7621  -14.1896   20.5728 C   0  0  0  0  0  0  0  0  0  0  0  0
    7.3970  -13.8896   19.9956 C   0  0  0  0  0  0  0  0  0  0  0  0
    7.6483  -13.2138   18.6472 C   0  0  0  0  0  0  0  0  0  0  0  0
    7.9976  -14.2570   17.6059 C   0  0  0  0  0  0  0  0  0  0  0  0
    8.0803  -13.6185   16.3143 N   0  0  0  0  0  0  0  0  0  0  0  0
   10.1515  -15.5852   21.9449 C   0  0  0  0  0  0  0  0  0  0  0  0
   10.7008  -14.5487   22.4076 O   0  0  0  0  0  0  0  0  0  0  0  0
   12.5614  -18.2012   23.1535 C   0  0  0  0  0  0  0  0  0  0  0  0
   12.2074  -16.8445   22.6012 C   0  0  2  0  0  0  0  0  0  0  0  0
   10.8756  -16.7949   22.0686 N   0  0  0  0  0  0  0  0  0  0  0  0
   13.1801  -16.4697   21.5695 C   0  0  0  0  0  0  0  0  0  0  0  0
   14.3846  -16.2942   21.8840 O   0  0  0  0  0  0  0  0  0  0  0  0
   12.7570  -16.3136   20.2594 O   0  0  0  0  0  0  0  0  0  0  0  0
  2  1  1  1
  2  3  1  0
  3  4  1  0
  4  5  2  0
  4 12  1  0
  5  6  1  0
  6  7  1  0
  7  8  2  0
  9  8  1  0
 10  9  2  0
 11 10  1  0
 12 11  2  0
 12  7  1  0
 13 15  1  0
 13  2  1  0
 14 13  2  0
 16 15  1  0
 16 17  1  1
 17 18  1  0
 19 18  1  0
 20 19  1  0
 20 21  1  0
 22 16  1  0
 23 22  2  0
 25 24  1  6
 25 27  1  0
 25 26  1  0
 26 22  1  0
 27 29  1  0
 28 27  2  0
M  END
$$$$
