WKA.pdb
     RDKit          3D

 29 30  0  0  1  0  0  0  0  0999 V2000
    6.3468  -18.1422   24.7917 N   0  0  0  0  0  0  0  0  0  0  0  0
    6.7268  -16.8105   24.3718 C   0  0  1  0  0  0  0  0  0  0  0  0
    7.7193  -16.2846   25.4003 C   0  0  0  0  0  0  0  0  0  0  0  0
    7.1191  -15.1442   26.1322 C   0  0  0  0  0  0  0  0  0  0  0  0
    6.2496  -15.2770   27.1955 C   0  0  0  0  0  0  0  0  0  0  0  0
    5.9252  -14.0322   27.5870 N   0  0  0  0  0  0  0  0  0  0  0  0
    6.5634  -13.1255   26.8034 C   0  0  0  0  0  0  0  0  0  0  0  0
    6.5672  -11.7510   26.7934 C   0  0  0  0  0  0  0  0  0  0  0  0
    7.3127  -11.0394   25.8794 C   0  0  0  0  0  0  0  0  0  0  0  0
    8.0820  -11.7249   24.9420 C   0  0  0  0  0  0  0  0  0  0  0  0
    8.0814  -13.1021   24.9482 C   0  0  0  0  0  0  0  0  0  0  0  0
    7.3270  -13.8007   25.8728 C   0  0  0  0  0  0  0  0  0  0  0  0
    7.3823  -16.8774   23.0423 C   0  0  0  0  0  0  0  0  0  0  0  0
    7.8184  -18.0238   22.6662 O   0  0  0  0  0  0  0  0  0  0  0  0
    7.5232  -15.7355   22.2231 N   0  0  0  0  0  0  0  0  0  0  0  0
    8.1626  -15.9011   20.9226 C   0  0  1  0  0  0  0  0  0  0  0  0
    7.9157  -14.7097   20.0322 C   0  0  0  0  0  0  0  0  0  0  0  0
    8.5906  -14.8314   18.6844 C   0  0  0  0  0  0  0  0  0  0  0  0
    8.0295  -13.6961   17.8275 C   0  0  0  0  0  0  0  0  0  0  0  0
    8.5398  -13.8230   16.4069 C   0  0  0  0  0  0  0  0  0  0  0  0
    8.0750  -12.6918   15.6407 N   0  0  0  0  0  0  0  0  0  0  0  0
    9.6307  -15.9847   21.1249 C   0  0  0  0  0  0  0  0  0  0  0  0
   10.4087  -16.0358   20.1338 O   0  0  0  0  0  0  0  0  0  0  0  0
   12.0664  -15.4944   23.9442 C   0  0  0  0  0  0  0  0  0  0  0  0
   11.6569  -16.0052   22.5869 C   0  0  2  0  0  0  0  0  0  0  0  0
   10.2333  -16.0117   22.4052 N   0  0  0  0  0  0  0  0  0  0  0  0
   12.1991  -17.3537   22.3901 C   0  0  0  0  0  0  0  0  0  0  0  0
   11.4145  -18.3216   22.2224 O   0  0  0  0  0  0  0  0  0  0  0  0
   13.5716  -17.5427   22.3919 O   0  0  0  0  0  0  0  0  0  0  0  0
  2  1  1  1
  2  3  1  0
  3  4  1  0
  4  5  2  0
  4 12  1  0
  5  6  1  0
  6  7  1  0
  7  8  2  0
  9  8  1  0
 10  9  2  0
 11 10  1  0
 12 11  2  0
 12  7  1  0
 13 15  1  0
 13  2  1  0
 14 13  2  0
 16 15  1  0
 16 17  1  6
 17 18  1  0
 19 18  1  0
 20 19  1  0
 20 21  1  0
 22 16  1  0
 23 22  2  0
 25 24  1  1
 25 27  1  0
 25 26  1  0
 26 22  1  0
 27 29  1  0
 28 27  2  0
M  END
$$$$
