WKA.pdb
     RDKit          3D

 29 30  0  0  1  0  0  0  0  0999 V2000
    6.0736  -18.5175   24.2665 N   0  0  0  0  0  0  0  0  0  0  0  0
    6.3881  -17.1069   24.1917 C   0  0  1  0  0  0  0  0  0  0  0  0
    7.1588  -16.7540   25.4570 C   0  0  0  0  0  0  0  0  0  0  0  0
    6.6723  -15.4598   25.9904 C   0  0  0  0  0  0  0  0  0  0  0  0
    5.4926  -15.3038   26.6892 C   0  0  0  0  0  0  0  0  0  0  0  0
    5.3979  -13.9991   27.0009 N   0  0  0  0  0  0  0  0  0  0  0  0
    6.4797  -13.3344   26.5199 C   0  0  0  0  0  0  0  0  0  0  0  0
    6.8514  -12.0121   26.5709 C   0  0  0  0  0  0  0  0  0  0  0  0
    8.0223  -11.5702   25.9954 C   0  0  0  0  0  0  0  0  0  0  0  0
    8.8517  -12.4815   25.3457 C   0  0  0  0  0  0  0  0  0  0  0  0
    8.4834  -13.8075   25.2920 C   0  0  0  0  0  0  0  0  0  0  0  0
    7.3044  -14.2339   25.8750 C   0  0  0  0  0  0  0  0  0  0  0  0
    7.2423  -16.8510   23.0056 C   0  0  0  0  0  0  0  0  0  0  0  0
    7.9297  -17.8385   22.5605 O   0  0  0  0  0  0  0  0  0  0  0  0
    7.3006  -15.5813   22.3899 N   0  0  0  0  0  0  0  0  0  0  0  0
    8.1045  -15.4437   21.1806 C   0  0  1  0  0  0  0  0  0  0  0  0
    7.8384  -14.1305   20.4893 C   0  0  0  0  0  0  0  0  0  0  0  0
    8.6344  -13.9637   19.2144 C   0  0  0  0  0  0  0  0  0  0  0  0
    7.6101  -13.7126   18.1072 C   0  0  0  0  0  0  0  0  0  0  0  0
    8.3098  -13.6396   16.7657 C   0  0  0  0  0  0  0  0  0  0  0  0
    7.3314  -13.3569   15.7432 N   0  0  0  0  0  0  0  0  0  0  0  0
    9.5385  -15.4403   21.5639 C   0  0  0  0  0  0  0  0  0  0  0  0
   10.4293  -15.2280   20.6971 O   0  0  0  0  0  0  0  0  0  0  0  0
   11.5802  -15.4682   24.7341 C   0  0  0  0  0  0  0  0  0  0  0  0
   11.3723  -15.6308   23.2504 C   0  0  2  0  0  0  0  0  0  0  0  0
    9.9842  -15.6686   22.8877 N   0  0  0  0  0  0  0  0  0  0  0  0
   12.0485  -16.8499   22.7945 C   0  0  0  0  0  0  0  0  0  0  0  0
   11.3663  -17.8369   22.4194 O   0  0  0  0  0  0  0  0  0  0  0  0
   13.4332  -16.8969   22.7838 O   0  0  0  0  0  0  0  0  0  0  0  0
  2  1  1  1
  2  3  1  0
  3  4  1  0
  4  5  2  0
  4 12  1  0
  5  6  1  0
  6  7  1  0
  7  8  2  0
  9  8  1  0
 10  9  2  0
 11 10  1  0
 12 11  2  0
 12  7  1  0
 13 15  1  0
 13  2  1  0
 14 13  2  0
 16 15  1  0
 16 17  1  1
 17 18  1  0
 19 18  1  0
 20 19  1  0
 20 21  1  0
 22 16  1  0
 23 22  2  0
 25 24  1  1
 25 27  1  0
 25 26  1  0
 26 22  1  0
 27 29  1  0
 28 27  2  0
M  END
$$$$
