WKA.pdb
     RDKit          3D

 29 30  0  0  1  0  0  0  0  0999 V2000
    7.0509  -17.4491   25.5767 N   0  0  0  0  0  0  0  0  0  0  0  0
    7.4798  -16.7663   24.3750 C   0  0  1  0  0  0  0  0  0  0  0  0
    8.0679  -15.4296   24.8072 C   0  0  0  0  0  0  0  0  0  0  0  0
    6.9892  -14.5574   25.3285 C   0  0  0  0  0  0  0  0  0  0  0  0
    5.6787  -14.9581   25.4904 C   0  0  0  0  0  0  0  0  0  0  0  0
    5.0086  -13.8997   25.9790 N   0  0  0  0  0  0  0  0  0  0  0  0
    5.8572  -12.8503   26.1279 C   0  0  0  0  0  0  0  0  0  0  0  0
    5.6706  -11.5663   26.5818 C   0  0  0  0  0  0  0  0  0  0  0  0
    6.7106  -10.6649   26.6408 C   0  0  0  0  0  0  0  0  0  0  0  0
    7.9823  -11.0598   26.2320 C   0  0  0  0  0  0  0  0  0  0  0  0
    8.1741  -12.3453   25.7765 C   0  0  0  0  0  0  0  0  0  0  0  0
    7.1189  -13.2374   25.7238 C   0  0  0  0  0  0  0  0  0  0  0  0
    8.5258  -17.5691   23.6945 C   0  0  0  0  0  0  0  0  0  0  0  0
    9.0745  -18.5069   24.3766 O   0  0  0  0  0  0  0  0  0  0  0  0
    8.9050  -17.3181   22.3573 N   0  0  0  0  0  0  0  0  0  0  0  0
    9.9548  -18.1477   21.7766 C   0  0  1  0  0  0  0  0  0  0  0  0
   10.1241  -17.8706   20.3043 C   0  0  0  0  0  0  0  0  0  0  0  0
   11.1253  -18.7908   19.6427 C   0  0  0  0  0  0  0  0  0  0  0  0
   11.1116  -18.4307   18.1567 C   0  0  0  0  0  0  0  0  0  0  0  0
   12.0885  -19.3110   17.4049 C   0  0  0  0  0  0  0  0  0  0  0  0
   12.0934  -18.9225   16.0150 N   0  0  0  0  0  0  0  0  0  0  0  0
   11.2440  -17.8022   22.4260 C   0  0  0  0  0  0  0  0  0  0  0  0
   11.6752  -16.6176   22.3965 O   0  0  0  0  0  0  0  0  0  0  0  0
   13.5829  -19.3084   24.9250 C   0  0  0  0  0  0  0  0  0  0  0  0
   13.2659  -18.3945   23.7694 C   0  0  2  0  0  0  0  0  0  0  0  0
   12.0480  -18.7524   23.0998 N   0  0  0  0  0  0  0  0  0  0  0  0
   14.3856  -18.4005   22.8222 C   0  0  0  0  0  0  0  0  0  0  0  0
   15.4776  -17.8682   23.1460 O   0  0  0  0  0  0  0  0  0  0  0  0
   14.2241  -18.9940   21.5807 O   0  0  0  0  0  0  0  0  0  0  0  0
  2  1  1  1
  2  3  1  0
  3  4  1  0
  4  5  2  0
  4 12  1  0
  5  6  1  0
  6  7  1  0
  7  8  2  0
  9  8  1  0
 10  9  2  0
 11 10  1  0
 12 11  2  0
 12  7  1  0
 13 15  1  0
 13  2  1  0
 14 13  2  0
 16 15  1  0
 16 17  1  6
 17 18  1  0
 19 18  1  0
 20 19  1  0
 20 21  1  0
 22 16  1  0
 23 22  2  0
 25 24  1  1
 25 27  1  0
 25 26  1  0
 26 22  1  0
 27 29  1  0
 28 27  2  0
M  END
$$$$
