WKA.pdb
     RDKit          3D

 29 30  0  0  1  0  0  0  0  0999 V2000
    6.4357  -18.0233   24.5496 N   0  0  0  0  0  0  0  0  0  0  0  0
    6.7443  -16.6454   24.2328 C   0  0  1  0  0  0  0  0  0  0  0  0
    7.6354  -16.1196   25.3504 C   0  0  0  0  0  0  0  0  0  0  0  0
    6.9157  -15.0676   26.1065 C   0  0  0  0  0  0  0  0  0  0  0  0
    5.8343  -15.3072   26.9296 C   0  0  0  0  0  0  0  0  0  0  0  0
    5.4596  -14.1172   27.4313 N   0  0  0  0  0  0  0  0  0  0  0  0
    6.2712  -13.1416   26.9487 C   0  0  0  0  0  0  0  0  0  0  0  0
    6.3064  -11.7825   27.1517 C   0  0  0  0  0  0  0  0  0  0  0  0
    7.2468  -10.9863   26.5358 C   0  0  0  0  0  0  0  0  0  0  0  0
    8.1857  -11.5681   25.6870 C   0  0  0  0  0  0  0  0  0  0  0  0
    8.1543  -12.9294   25.4806 C   0  0  0  0  0  0  0  0  0  0  0  0
    7.2033  -13.7138   26.1068 C   0  0  0  0  0  0  0  0  0  0  0  0
    7.4793  -16.5847   22.9452 C   0  0  0  0  0  0  0  0  0  0  0  0
    8.2063  -17.5974   22.6426 O   0  0  0  0  0  0  0  0  0  0  0  0
    7.3873  -15.4666   22.0872 N   0  0  0  0  0  0  0  0  0  0  0  0
    8.1011  -15.5189   20.8163 C   0  0  1  0  0  0  0  0  0  0  0  0
    7.9859  -14.2161   20.0663 C   0  0  0  0  0  0  0  0  0  0  0  0
    8.7362  -14.2235   18.7534 C   0  0  0  0  0  0  0  0  0  0  0  0
    7.7345  -13.7666   17.6923 C   0  0  0  0  0  0  0  0  0  0  0  0
    8.3900  -13.7784   16.3268 C   0  0  0  0  0  0  0  0  0  0  0  0
    7.3820  -13.5376   15.3225 N   0  0  0  0  0  0  0  0  0  0  0  0
    9.5448  -15.7248   21.0930 C   0  0  0  0  0  0  0  0  0  0  0  0
   10.1473  -14.9855   21.9179 O   0  0  0  0  0  0  0  0  0  0  0  0
   12.0896  -18.4114   20.6466 C   0  0  0  0  0  0  0  0  0  0  0  0
   11.6931  -16.9647   20.7924 C   0  0  2  0  0  0  0  0  0  0  0  0
   10.3145  -16.7341   20.4670 N   0  0  0  0  0  0  0  0  0  0  0  0
   12.5589  -16.1349   19.9480 C   0  0  0  0  0  0  0  0  0  0  0  0
   12.0656  -15.5109   18.9745 O   0  0  0  0  0  0  0  0  0  0  0  0
   13.9116  -16.0503   20.2354 O   0  0  0  0  0  0  0  0  0  0  0  0
  2  1  1  1
  2  3  1  0
  3  4  1  0
  4  5  2  0
  4 12  1  0
  5  6  1  0
  6  7  1  0
  7  8  2  0
  9  8  1  0
 10  9  2  0
 11 10  1  0
 12 11  2  0
 12  7  1  0
 13 15  1  0
 13  2  1  0
 14 13  2  0
 16 15  1  0
 16 17  1  1
 17 18  1  0
 19 18  1  0
 20 19  1  0
 20 21  1  0
 22 16  1  0
 23 22  2  0
 25 24  1  6
 25 27  1  0
 25 26  1  0
 26 22  1  0
 27 29  1  0
 28 27  2  0
M  END
$$$$
