WKA.pdb
     RDKit          3D

 29 30  0  0  1  0  0  0  0  0999 V2000
    6.3137  -17.7958   24.1104 N   0  0  0  0  0  0  0  0  0  0  0  0
    6.7697  -16.4350   23.9246 C   0  0  1  0  0  0  0  0  0  0  0  0
    7.8877  -16.1979   24.9312 C   0  0  0  0  0  0  0  0  0  0  0  0
    7.4034  -15.3055   26.0107 C   0  0  0  0  0  0  0  0  0  0  0  0
    6.8830  -15.7504   27.2089 C   0  0  0  0  0  0  0  0  0  0  0  0
    6.5566  -14.6557   27.9184 N   0  0  0  0  0  0  0  0  0  0  0  0
    6.8559  -13.5412   27.2031 C   0  0  0  0  0  0  0  0  0  0  0  0
    6.7177  -12.2012   27.4766 C   0  0  0  0  0  0  0  0  0  0  0  0
    7.1029  -11.2377   26.5706 C   0  0  0  0  0  0  0  0  0  0  0  0
    7.6454  -11.6262   25.3478 C   0  0  0  0  0  0  0  0  0  0  0  0
    7.7857  -12.9677   25.0693 C   0  0  0  0  0  0  0  0  0  0  0  0
    7.3938  -13.9217   25.9903 C   0  0  0  0  0  0  0  0  0  0  0  0
    7.3014  -16.2732   22.5488 C   0  0  0  0  0  0  0  0  0  0  0  0
    7.8976  -17.2854   22.0332 O   0  0  0  0  0  0  0  0  0  0  0  0
    7.1611  -15.0633   21.8337 N   0  0  0  0  0  0  0  0  0  0  0  0
    7.8744  -14.9297   20.5685 C   0  0  1  0  0  0  0  0  0  0  0  0
    7.6824  -13.5591   19.9704 C   0  0  0  0  0  0  0  0  0  0  0  0
    8.4018  -13.3855   18.6517 C   0  0  0  0  0  0  0  0  0  0  0  0
    7.5560  -14.1185   17.6099 C   0  0  0  0  0  0  0  0  0  0  0  0
    8.1594  -13.9317   16.2331 C   0  0  0  0  0  0  0  0  0  0  0  0
    7.3942  -14.6986   15.2797 N   0  0  0  0  0  0  0  0  0  0  0  0
    9.3281  -15.0818   20.8269 C   0  0  0  0  0  0  0  0  0  0  0  0
   10.0953  -14.0833   20.7594 O   0  0  0  0  0  0  0  0  0  0  0  0
   11.7429  -17.5334   22.2661 C   0  0  0  0  0  0  0  0  0  0  0  0
   11.3504  -16.4849   21.2573 C   0  0  2  0  0  0  0  0  0  0  0  0
    9.9282  -16.3207   21.1557 N   0  0  0  0  0  0  0  0  0  0  0  0
   11.9152  -16.8322   19.9490 C   0  0  0  0  0  0  0  0  0  0  0  0
   11.1469  -17.0710   18.9830 O   0  0  0  0  0  0  0  0  0  0  0  0
   13.2908  -16.8926   19.7956 O   0  0  0  0  0  0  0  0  0  0  0  0
  2  1  1  6
  2  3  1  0
  3  4  1  0
  4  5  2  0
  4 12  1  0
  5  6  1  0
  6  7  1  0
  7  8  2  0
  9  8  1  0
 10  9  2  0
 11 10  1  0
 12 11  2  0
 12  7  1  0
 13 15  1  0
 13  2  1  0
 14 13  2  0
 16 15  1  0
 16 17  1  1
 17 18  1  0
 19 18  1  0
 20 19  1  0
 20 21  1  0
 22 16  1  0
 23 22  2  0
 25 24  1  1
 25 27  1  0
 25 26  1  0
 26 22  1  0
 27 29  1  0
 28 27  2  0
M  END
$$$$
