SDD.pdb
     RDKit          3D

 23 22  0  0  1  0  0  0  0  0999 V2000
    9.2436  -14.6589   17.0954 O   0  0  0  0  0  0  0  0  0  0  0  0
    8.0562  -14.7219   17.8082 C   0  0  0  0  0  0  0  0  0  0  0  0
    8.1369  -13.6425   18.8804 C   0  0  2  0  0  0  0  0  0  0  0  0
    8.1398  -12.3812   18.2301 N   0  0  0  0  0  0  0  0  0  0  0  0
    9.3350  -13.8799   19.7550 C   0  0  0  0  0  0  0  0  0  0  0  0
   10.3126  -13.1718   19.5423 O   0  0  0  0  0  0  0  0  0  0  0  0
    9.3362  -14.8577   20.7613 N   0  0  0  0  0  0  0  0  0  0  0  0
   10.3604  -15.2855   21.6414 C   0  0  1  0  0  0  0  0  0  0  0  0
   10.0014  -16.1103   22.8303 C   0  0  0  0  0  0  0  0  0  0  0  0
   11.1384  -16.4984   23.6969 C   0  0  0  0  0  0  0  0  0  0  0  0
   11.2439  -17.7227   24.0736 O   0  0  0  0  0  0  0  0  0  0  0  0
   11.6221  -15.6334   20.9723 C   0  0  0  0  0  0  0  0  0  0  0  0
   11.6800  -16.7231   20.2935 O   0  0  0  0  0  0  0  0  0  0  0  0
   12.0864  -15.5915   24.1154 O   0  0  0  0  0  0  0  0  0  0  0  0
   12.8000  -14.8584   21.0116 N   0  0  0  0  0  0  0  0  0  0  0  0
   14.0248  -15.3071   20.2975 C   0  0  1  0  0  0  0  0  0  0  0  0
   14.3667  -14.1736   19.3671 C   0  0  0  0  0  0  0  0  0  0  0  0
   15.5085  -14.4212   18.4837 C   0  0  0  0  0  0  0  0  0  0  0  0
   16.2554  -15.3995   18.6268 O   0  0  0  0  0  0  0  0  0  0  0  0
   15.0709  -15.5912   21.2986 C   0  0  0  0  0  0  0  0  0  0  0  0
   16.2697  -16.2283   20.9491 O   0  0  0  0  0  0  0  0  0  0  0  0
   15.7888  -13.5475   17.4413 O   0  0  0  0  0  0  0  0  0  0  0  0
   14.9169  -15.2704   22.4894 O   0  0  0  0  0  0  0  0  0  0  0  0
  2  1  1  0
  3  4  1  6
  3  2  1  0
  5  3  1  0
  6  5  2  0
  7  5  1  0
  8 12  1  0
  8  7  1  0
  8  9  1  6
 10  9  1  0
 11 10  2  0
 12 15  1  0
 13 12  2  0
 14 10  1  0
 15 16  1  0
 16 17  1  6
 16 20  1  0
 17 18  1  0
 18 22  1  0
 19 18  2  0
 20 23  2  0
 20 21  1  0
M  END
$$$$
