SDD.pdb
     RDKit          3D

 23 22  0  0  1  0  0  0  0  0999 V2000
    7.9969  -12.3308   20.2625 O   0  0  0  0  0  0  0  0  0  0  0  0
    8.0917  -13.6482   19.8409 C   0  0  0  0  0  0  0  0  0  0  0  0
    8.8209  -13.6235   18.5034 C   0  0  2  0  0  0  0  0  0  0  0  0
    7.9112  -14.0533   17.5027 N   0  0  0  0  0  0  0  0  0  0  0  0
   10.0706  -14.4528   18.5877 C   0  0  0  0  0  0  0  0  0  0  0  0
    9.9586  -15.6371   18.2922 O   0  0  0  0  0  0  0  0  0  0  0  0
   11.2999  -13.9031   18.9821 N   0  0  0  0  0  0  0  0  0  0  0  0
   12.5759  -14.4972   19.1426 C   0  0  1  0  0  0  0  0  0  0  0  0
   13.7182  -14.0014   18.3229 C   0  0  0  0  0  0  0  0  0  0  0  0
   14.9402  -14.8374   18.3709 C   0  0  0  0  0  0  0  0  0  0  0  0
   15.8754  -14.5254   19.1956 O   0  0  0  0  0  0  0  0  0  0  0  0
   12.8924  -14.8780   20.5265 C   0  0  0  0  0  0  0  0  0  0  0  0
   13.2023  -13.9544   21.3647 O   0  0  0  0  0  0  0  0  0  0  0  0
   15.1104  -15.9374   17.5602 O   0  0  0  0  0  0  0  0  0  0  0  0
   12.8854  -16.1975   21.0250 N   0  0  0  0  0  0  0  0  0  0  0  0
   13.2623  -16.4747   22.4366 C   0  0  1  0  0  0  0  0  0  0  0  0
   12.5769  -17.7728   22.7718 C   0  0  0  0  0  0  0  0  0  0  0  0
   11.2673  -17.6336   23.4128 C   0  0  0  0  0  0  0  0  0  0  0  0
   10.8170  -16.5342   23.7651 O   0  0  0  0  0  0  0  0  0  0  0  0
   14.7339  -16.5397   22.5224 C   0  0  0  0  0  0  0  0  0  0  0  0
   15.4090  -16.3488   23.7361 O   0  0  0  0  0  0  0  0  0  0  0  0
   10.4804  -18.7536   23.6470 O   0  0  0  0  0  0  0  0  0  0  0  0
   15.4214  -16.7677   21.5125 O   0  0  0  0  0  0  0  0  0  0  0  0
  2  1  1  0
  3  4  1  6
  3  2  1  0
  5  3  1  0
  6  5  2  0
  7  5  1  0
  8 12  1  0
  8  7  1  0
  8  9  1  1
 10  9  1  0
 11 10  2  0
 12 15  1  0
 13 12  2  0
 14 10  1  0
 15 16  1  0
 16 17  1  6
 16 20  1  0
 17 18  1  0
 18 22  1  0
 19 18  2  0
 20 23  2  0
 20 21  1  0
M  END
$$$$
