SDD.pdb
     RDKit          3D

 23 22  0  0  1  0  0  0  0  0999 V2000
    9.2928  -18.7940   20.3973 O   0  0  0  0  0  0  0  0  0  0  0  0
    9.3278  -17.6741   19.5808 C   0  0  0  0  0  0  0  0  0  0  0  0
   10.7108  -17.6466   18.9423 C   0  0  2  0  0  0  0  0  0  0  0  0
   10.8900  -18.8651   18.2374 N   0  0  0  0  0  0  0  0  0  0  0  0
   11.7535  -17.3917   19.9932 C   0  0  0  0  0  0  0  0  0  0  0  0
   11.9653  -18.3053   20.7825 O   0  0  0  0  0  0  0  0  0  0  0  0
   12.4486  -16.1751   20.0681 N   0  0  0  0  0  0  0  0  0  0  0  0
   13.3904  -15.6984   21.0129 C   0  0  1  0  0  0  0  0  0  0  0  0
   14.0871  -14.4053   20.7578 C   0  0  0  0  0  0  0  0  0  0  0  0
   14.7281  -14.2844   19.4278 C   0  0  0  0  0  0  0  0  0  0  0  0
   14.0995  -13.6741   18.4874 O   0  0  0  0  0  0  0  0  0  0  0  0
   13.0308  -15.9724   22.4115 C   0  0  0  0  0  0  0  0  0  0  0  0
   12.0802  -15.2940   22.9481 O   0  0  0  0  0  0  0  0  0  0  0  0
   15.9749  -14.8056   19.1629 O   0  0  0  0  0  0  0  0  0  0  0  0
   13.6520  -16.9358   23.2335 N   0  0  0  0  0  0  0  0  0  0  0  0
   13.2533  -17.0846   24.6584 C   0  0  1  0  0  0  0  0  0  0  0  0
   12.2931  -18.2443   24.6719 C   0  0  0  0  0  0  0  0  0  0  0  0
   11.8750  -18.6860   26.0043 C   0  0  0  0  0  0  0  0  0  0  0  0
   11.7398  -17.8970   26.9503 O   0  0  0  0  0  0  0  0  0  0  0  0
   14.4700  -17.3103   25.4622 C   0  0  0  0  0  0  0  0  0  0  0  0
   15.7509  -17.1036   24.9315 O   0  0  0  0  0  0  0  0  0  0  0  0
   11.6139  -20.0282   26.2465 O   0  0  0  0  0  0  0  0  0  0  0  0
   14.3920  -17.6928   26.6421 O   0  0  0  0  0  0  0  0  0  0  0  0
  2  1  1  0
  3  4  1  1
  3  2  1  0
  5  3  1  0
  6  5  2  0
  7  5  1  0
  8 12  1  0
  8  7  1  0
  8  9  1  1
 10  9  1  0
 11 10  2  0
 12 15  1  0
 13 12  2  0
 14 10  1  0
 15 16  1  0
 16 17  1  6
 16 20  1  0
 17 18  1  0
 18 22  1  0
 19 18  2  0
 20 23  2  0
 20 21  1  0
M  END
$$$$
