SDD.pdb
     RDKit          3D

 23 22  0  0  1  0  0  0  0  0999 V2000
    5.0278  -22.3305   21.3946 O   0  0  0  0  0  0  0  0  0  0  0  0
    5.6215  -21.4872   20.4682 C   0  0  0  0  0  0  0  0  0  0  0  0
    6.0918  -20.2598   21.2386 C   0  0  2  0  0  0  0  0  0  0  0  0
    5.9615  -19.1332   20.3858 N   0  0  0  0  0  0  0  0  0  0  0  0
    7.4877  -20.4804   21.7480 C   0  0  0  0  0  0  0  0  0  0  0  0
    7.6594  -21.4669   22.4548 O   0  0  0  0  0  0  0  0  0  0  0  0
    8.5389  -19.6063   21.4320 N   0  0  0  0  0  0  0  0  0  0  0  0
    9.9021  -19.6133   21.8171 C   0  0  1  0  0  0  0  0  0  0  0  0
   10.9259  -19.0668   20.8812 C   0  0  0  0  0  0  0  0  0  0  0  0
   12.3278  -19.1680   21.3490 C   0  0  0  0  0  0  0  0  0  0  0  0
   12.8304  -20.3319   21.5611 O   0  0  0  0  0  0  0  0  0  0  0  0
   10.1253  -19.3454   23.2450 C   0  0  0  0  0  0  0  0  0  0  0  0
    9.7913  -18.1975   23.7167 O   0  0  0  0  0  0  0  0  0  0  0  0
   13.1119  -18.0572   21.5669 O   0  0  0  0  0  0  0  0  0  0  0  0
   10.6863  -20.2586   24.1622 N   0  0  0  0  0  0  0  0  0  0  0  0
   10.8532  -19.8877   25.5925 C   0  0  1  0  0  0  0  0  0  0  0  0
   10.3459  -21.0783   26.3622 C   0  0  0  0  0  0  0  0  0  0  0  0
   10.3146  -20.9074   27.8166 C   0  0  0  0  0  0  0  0  0  0  0  0
   10.4555  -21.8593   28.5974 O   0  0  0  0  0  0  0  0  0  0  0  0
   12.2776  -19.5867   25.8333 C   0  0  0  0  0  0  0  0  0  0  0  0
   13.1921  -19.4646   24.7780 O   0  0  0  0  0  0  0  0  0  0  0  0
   10.1224  -19.6480   28.3690 O   0  0  0  0  0  0  0  0  0  0  0  0
   12.7094  -19.4316   26.9884 O   0  0  0  0  0  0  0  0  0  0  0  0
  2  1  1  0
  3  4  1  6
  3  2  1  0
  5  3  1  0
  6  5  2  0
  7  5  1  0
  8 12  1  0
  8  7  1  0
  8  9  1  6
 10  9  1  0
 11 10  2  0
 12 15  1  0
 13 12  2  0
 14 10  1  0
 15 16  1  0
 16 17  1  1
 16 20  1  0
 17 18  1  0
 18 22  1  0
 19 18  2  0
 20 23  2  0
 20 21  1  0
M  END
$$$$
