SDD.pdb
     RDKit          3D

 23 22  0  0  1  0  0  0  0  0999 V2000
    9.4760  -15.0143   16.0276 O   0  0  0  0  0  0  0  0  0  0  0  0
    8.1123  -15.1340   16.2473 C   0  0  0  0  0  0  0  0  0  0  0  0
    7.7952  -14.2873   17.4735 C   0  0  2  0  0  0  0  0  0  0  0  0
    7.9642  -12.9240   17.1177 N   0  0  0  0  0  0  0  0  0  0  0  0
    8.6472  -14.7251   18.6307 C   0  0  0  0  0  0  0  0  0  0  0  0
    9.5462  -13.9615   18.9640 O   0  0  0  0  0  0  0  0  0  0  0  0
    8.4267  -15.9410   19.2954 N   0  0  0  0  0  0  0  0  0  0  0  0
    9.0394  -16.4970   20.4453 C   0  0  1  0  0  0  0  0  0  0  0  0
    8.3519  -17.6003   21.1752 C   0  0  0  0  0  0  0  0  0  0  0  0
    9.0490  -18.0859   22.3887 C   0  0  0  0  0  0  0  0  0  0  0  0
    9.0432  -17.3531   23.4447 O   0  0  0  0  0  0  0  0  0  0  0  0
   10.5034  -16.5949   20.3589 C   0  0  0  0  0  0  0  0  0  0  0  0
   11.0202  -17.6279   19.7955 O   0  0  0  0  0  0  0  0  0  0  0  0
    9.7058  -19.2957   22.4244 O   0  0  0  0  0  0  0  0  0  0  0  0
   11.4098  -15.6329   20.8516 N   0  0  0  0  0  0  0  0  0  0  0  0
   12.8690  -15.9170   20.8874 C   0  0  1  0  0  0  0  0  0  0  0  0
   13.5244  -14.6256   20.4753 C   0  0  0  0  0  0  0  0  0  0  0  0
   13.6983  -14.4532   19.0312 C   0  0  0  0  0  0  0  0  0  0  0  0
   13.8554  -13.3389   18.5124 O   0  0  0  0  0  0  0  0  0  0  0  0
   13.2254  -16.3565   22.2502 C   0  0  0  0  0  0  0  0  0  0  0  0
   14.5090  -16.8279   22.5589 O   0  0  0  0  0  0  0  0  0  0  0  0
   13.6915  -15.5574   18.1890 O   0  0  0  0  0  0  0  0  0  0  0  0
   12.3903  -16.3201   23.1700 O   0  0  0  0  0  0  0  0  0  0  0  0
  2  1  1  0
  3  4  1  6
  3  2  1  0
  5  3  1  0
  6  5  2  0
  7  5  1  0
  8 12  1  0
  8  7  1  0
  8  9  1  6
 10  9  1  0
 11 10  2  0
 12 15  1  0
 13 12  2  0
 14 10  1  0
 15 16  1  0
 16 17  1  1
 16 20  1  0
 17 18  1  0
 18 22  1  0
 19 18  2  0
 20 23  2  0
 20 21  1  0
M  END
$$$$
