SDD.pdb
     RDKit          3D

 23 22  0  0  1  0  0  0  0  0999 V2000
   12.5436  -21.9531   18.5121 O   0  0  0  0  0  0  0  0  0  0  0  0
   11.9234  -22.9604   17.7890 C   0  0  0  0  0  0  0  0  0  0  0  0
   10.4261  -22.6894   17.8654 C   0  0  2  0  0  0  0  0  0  0  0  0
   10.1709  -21.4608   17.2027 N   0  0  0  0  0  0  0  0  0  0  0  0
    9.9751  -22.7140   19.2981 C   0  0  0  0  0  0  0  0  0  0  0  0
    9.8878  -21.6281   19.8598 O   0  0  0  0  0  0  0  0  0  0  0  0
    9.6691  -23.9137   19.9585 N   0  0  0  0  0  0  0  0  0  0  0  0
    9.2427  -24.1620   21.2864 C   0  0  1  0  0  0  0  0  0  0  0  0
    8.4872  -25.4117   21.5869 C   0  0  0  0  0  0  0  0  0  0  0  0
    7.9486  -25.5090   22.9634 C   0  0  0  0  0  0  0  0  0  0  0  0
    7.0411  -24.6788   23.3365 O   0  0  0  0  0  0  0  0  0  0  0  0
   10.1936  -23.7198   22.3162 C   0  0  0  0  0  0  0  0  0  0  0  0
   11.4078  -24.1367   22.2542 O   0  0  0  0  0  0  0  0  0  0  0  0
    8.3883  -26.4579   23.8592 O   0  0  0  0  0  0  0  0  0  0  0  0
    9.8825  -22.8593   23.3897 N   0  0  0  0  0  0  0  0  0  0  0  0
   10.9347  -22.4428   24.3545 C   0  0  1  0  0  0  0  0  0  0  0  0
   10.8706  -20.9385   24.3706 C   0  0  0  0  0  0  0  0  0  0  0  0
   11.8920  -20.2843   25.1916 C   0  0  0  0  0  0  0  0  0  0  0  0
   11.6128  -19.6786   26.2361 O   0  0  0  0  0  0  0  0  0  0  0  0
   10.6427  -23.0645   25.6605 C   0  0  0  0  0  0  0  0  0  0  0  0
   11.6253  -23.1875   26.6526 O   0  0  0  0  0  0  0  0  0  0  0  0
   13.2272  -20.3272   24.8126 O   0  0  0  0  0  0  0  0  0  0  0  0
    9.5077  -23.4998   25.9192 O   0  0  0  0  0  0  0  0  0  0  0  0
  2  1  1  0
  3  4  1  1
  3  2  1  0
  5  3  1  0
  6  5  2  0
  7  5  1  0
  8 12  1  0
  8  7  1  0
  8  9  1  6
 10  9  1  0
 11 10  2  0
 12 15  1  0
 13 12  2  0
 14 10  1  0
 15 16  1  0
 16 17  1  1
 16 20  1  0
 17 18  1  0
 18 22  1  0
 19 18  2  0
 20 23  2  0
 20 21  1  0
M  END
$$$$
