SDD.pdb
     RDKit          3D

 23 22  0  0  1  0  0  0  0  0999 V2000
    8.9731  -12.8292   19.6662 O   0  0  0  0  0  0  0  0  0  0  0  0
    7.6957  -12.9633   20.1880 C   0  0  0  0  0  0  0  0  0  0  0  0
    7.1564  -14.2932   19.6765 C   0  0  2  0  0  0  0  0  0  0  0  0
    5.7885  -14.3795   20.0441 N   0  0  0  0  0  0  0  0  0  0  0  0
    8.0000  -15.4212   20.1987 C   0  0  0  0  0  0  0  0  0  0  0  0
    7.6667  -15.8949   21.2789 O   0  0  0  0  0  0  0  0  0  0  0  0
    9.1086  -15.9078   19.4895 N   0  0  0  0  0  0  0  0  0  0  0  0
   10.0595  -16.9047   19.8194 C   0  0  1  0  0  0  0  0  0  0  0  0
   10.7121  -17.6790   18.7252 C   0  0  0  0  0  0  0  0  0  0  0  0
   11.5359  -18.8276   19.1683 C   0  0  0  0  0  0  0  0  0  0  0  0
   10.9842  -19.7577   19.8630 O   0  0  0  0  0  0  0  0  0  0  0  0
   10.9128  -16.5658   20.9673 C   0  0  0  0  0  0  0  0  0  0  0  0
   11.6964  -15.5514   20.8749 O   0  0  0  0  0  0  0  0  0  0  0  0
   12.8747  -18.9328   18.8634 O   0  0  0  0  0  0  0  0  0  0  0  0
   10.9469  -17.2726   22.1875 N   0  0  0  0  0  0  0  0  0  0  0  0
   11.7988  -16.8009   23.3113 C   0  0  1  0  0  0  0  0  0  0  0  0
   11.1419  -17.3485   24.5505 C   0  0  0  0  0  0  0  0  0  0  0  0
   11.7830  -16.9667   25.8109 C   0  0  0  0  0  0  0  0  0  0  0  0
   12.7317  -16.1708   25.8557 O   0  0  0  0  0  0  0  0  0  0  0  0
   13.1715  -17.2979   23.0966 C   0  0  0  0  0  0  0  0  0  0  0  0
   14.2879  -16.4637   23.2483 O   0  0  0  0  0  0  0  0  0  0  0  0
   11.3346  -17.4982   27.0129 O   0  0  0  0  0  0  0  0  0  0  0  0
   13.3776  -18.4800   22.7730 O   0  0  0  0  0  0  0  0  0  0  0  0
  2  1  1  0
  3  4  1  1
  3  2  1  0
  5  3  1  0
  6  5  2  0
  7  5  1  0
  8 12  1  0
  8  7  1  0
  8  9  1  6
 10  9  1  0
 11 10  2  0
 12 15  1  0
 13 12  2  0
 14 10  1  0
 15 16  1  0
 16 17  1  1
 16 20  1  0
 17 18  1  0
 18 22  1  0
 19 18  2  0
 20 23  2  0
 20 21  1  0
M  END
$$$$
