SDD.pdb
     RDKit          3D

 23 22  0  0  1  0  0  0  0  0999 V2000
    8.9486  -12.8736   19.4432 O   0  0  0  0  0  0  0  0  0  0  0  0
    8.4775  -13.8629   18.5937 C   0  0  0  0  0  0  0  0  0  0  0  0
    9.5797  -14.1187   17.5735 C   0  0  2  0  0  0  0  0  0  0  0  0
    9.0224  -14.8744   16.5096 N   0  0  0  0  0  0  0  0  0  0  0  0
   10.7513  -14.7798   18.2422 C   0  0  0  0  0  0  0  0  0  0  0  0
   10.5785  -15.9295   18.6304 O   0  0  0  0  0  0  0  0  0  0  0  0
   11.9773  -14.1190   18.4130 N   0  0  0  0  0  0  0  0  0  0  0  0
   13.1875  -14.5445   19.0139 C   0  0  1  0  0  0  0  0  0  0  0  0
   14.4831  -14.0295   18.4856 C   0  0  0  0  0  0  0  0  0  0  0  0
   14.9260  -14.6279   17.2050 C   0  0  0  0  0  0  0  0  0  0  0  0
   15.3320  -13.8527   16.2636 O   0  0  0  0  0  0  0  0  0  0  0  0
   13.1077  -14.7159   20.4715 C   0  0  0  0  0  0  0  0  0  0  0  0
   12.8958  -13.6809   21.2034 O   0  0  0  0  0  0  0  0  0  0  0  0
   14.9160  -15.9875   16.9867 O   0  0  0  0  0  0  0  0  0  0  0  0
   13.2467  -15.9440   21.1512 N   0  0  0  0  0  0  0  0  0  0  0  0
   13.1349  -16.0054   22.6328 C   0  0  1  0  0  0  0  0  0  0  0  0
   12.1358  -17.0998   22.9000 C   0  0  0  0  0  0  0  0  0  0  0  0
   11.9667  -17.4522   24.3116 C   0  0  0  0  0  0  0  0  0  0  0  0
   12.4605  -18.4781   24.8007 O   0  0  0  0  0  0  0  0  0  0  0  0
   14.4742  -16.2733   23.1911 C   0  0  0  0  0  0  0  0  0  0  0  0
   15.5859  -16.4886   22.3647 O   0  0  0  0  0  0  0  0  0  0  0  0
   11.2334  -16.6283   25.1553 O   0  0  0  0  0  0  0  0  0  0  0  0
   14.6553  -16.3157   24.4199 O   0  0  0  0  0  0  0  0  0  0  0  0
  2  1  1  0
  3  4  1  6
  3  2  1  0
  5  3  1  0
  6  5  2  0
  7  5  1  0
  8 12  1  0
  8  7  1  0
  8  9  1  1
 10  9  1  0
 11 10  2  0
 12 15  1  0
 13 12  2  0
 14 10  1  0
 15 16  1  0
 16 17  1  6
 16 20  1  0
 17 18  1  0
 18 22  1  0
 19 18  2  0
 20 23  2  0
 20 21  1  0
M  END
$$$$
