SDD.pdb
     RDKit          3D

 23 22  0  0  1  0  0  0  0  0999 V2000
    7.7863  -18.3377   19.0571 O   0  0  0  0  0  0  0  0  0  0  0  0
    7.8375  -18.7755   20.3716 C   0  0  0  0  0  0  0  0  0  0  0  0
    7.9388  -20.2947   20.3184 C   0  0  2  0  0  0  0  0  0  0  0  0
    6.7378  -20.7922   19.7495 N   0  0  0  0  0  0  0  0  0  0  0  0
    8.2335  -20.8351   21.6887 C   0  0  0  0  0  0  0  0  0  0  0  0
    7.3827  -20.6333   22.5477 O   0  0  0  0  0  0  0  0  0  0  0  0
    9.4171  -21.5338   21.9714 N   0  0  0  0  0  0  0  0  0  0  0  0
    9.9337  -22.0328   23.1924 C   0  0  1  0  0  0  0  0  0  0  0  0
   10.8702  -23.1925   23.1669 C   0  0  0  0  0  0  0  0  0  0  0  0
   10.4216  -24.3494   22.3577 C   0  0  0  0  0  0  0  0  0  0  0  0
    9.2861  -24.8906   22.6222 O   0  0  0  0  0  0  0  0  0  0  0  0
   10.2190  -20.9953   24.1937 C   0  0  0  0  0  0  0  0  0  0  0  0
   11.0944  -20.0958   23.9174 O   0  0  0  0  0  0  0  0  0  0  0  0
   11.1806  -24.8674   21.3321 O   0  0  0  0  0  0  0  0  0  0  0  0
    9.6022  -20.8993   25.4586 N   0  0  0  0  0  0  0  0  0  0  0  0
    9.9808  -19.8161   26.4044 C   0  0  1  0  0  0  0  0  0  0  0  0
    8.6724  -19.2796   26.9214 C   0  0  0  0  0  0  0  0  0  0  0  0
    7.9034  -18.4894   25.9573 C   0  0  0  0  0  0  0  0  0  0  0  0
    8.3231  -18.2465   24.8169 O   0  0  0  0  0  0  0  0  0  0  0  0
   10.8432  -20.3931   27.4536 C   0  0  0  0  0  0  0  0  0  0  0  0
   11.6015  -19.5830   28.3103 O   0  0  0  0  0  0  0  0  0  0  0  0
    6.6582  -17.9816   26.3038 O   0  0  0  0  0  0  0  0  0  0  0  0
   10.9215  -21.6238   27.6082 O   0  0  0  0  0  0  0  0  0  0  0  0
  2  1  1  0
  3  4  1  1
  3  2  1  0
  5  3  1  0
  6  5  2  0
  7  5  1  0
  8 12  1  0
  8  7  1  0
  8  9  1  6
 10  9  1  0
 11 10  2  0
 12 15  1  0
 13 12  2  0
 14 10  1  0
 15 16  1  0
 16 17  1  1
 16 20  1  0
 17 18  1  0
 18 22  1  0
 19 18  2  0
 20 23  2  0
 20 21  1  0
M  END
$$$$
