SDD.pdb
     RDKit          3D

 23 22  0  0  1  0  0  0  0  0999 V2000
    7.5242  -12.0729   19.3416 O   0  0  0  0  0  0  0  0  0  0  0  0
    8.5377  -12.9441   19.7100 C   0  0  0  0  0  0  0  0  0  0  0  0
    8.9004  -13.7391   18.4620 C   0  0  2  0  0  0  0  0  0  0  0  0
    7.7788  -14.5339   18.1100 N   0  0  0  0  0  0  0  0  0  0  0  0
   10.1545  -14.5291   18.7062 C   0  0  0  0  0  0  0  0  0  0  0  0
   10.0041  -15.6915   19.0649 O   0  0  0  0  0  0  0  0  0  0  0  0
   11.4293  -13.9689   18.5329 N   0  0  0  0  0  0  0  0  0  0  0  0
   12.7208  -14.5175   18.7272 C   0  0  1  0  0  0  0  0  0  0  0  0
   13.8082  -14.1784   17.7653 C   0  0  0  0  0  0  0  0  0  0  0  0
   15.0753  -14.9216   17.9562 C   0  0  0  0  0  0  0  0  0  0  0  0
   15.0319  -16.1979   18.1027 O   0  0  0  0  0  0  0  0  0  0  0  0
   13.1196  -14.6325   20.1372 C   0  0  0  0  0  0  0  0  0  0  0  0
   13.3461  -13.5572   20.8036 O   0  0  0  0  0  0  0  0  0  0  0  0
   16.2996  -14.2919   17.9843 O   0  0  0  0  0  0  0  0  0  0  0  0
   13.2790  -15.8467   20.8372 N   0  0  0  0  0  0  0  0  0  0  0  0
   13.5827  -15.8463   22.2929 C   0  0  1  0  0  0  0  0  0  0  0  0
   12.8061  -17.0097   22.8500 C   0  0  0  0  0  0  0  0  0  0  0  0
   12.9714  -17.2322   24.2883 C   0  0  0  0  0  0  0  0  0  0  0  0
   12.4001  -18.1562   24.8844 O   0  0  0  0  0  0  0  0  0  0  0  0
   15.0431  -15.9690   22.4649 C   0  0  0  0  0  0  0  0  0  0  0  0
   15.7332  -17.1293   22.0874 O   0  0  0  0  0  0  0  0  0  0  0  0
   13.7897  -16.3959   25.0360 O   0  0  0  0  0  0  0  0  0  0  0  0
   15.7073  -15.0388   22.9529 O   0  0  0  0  0  0  0  0  0  0  0  0
  2  1  1  0
  3  4  1  1
  3  2  1  0
  5  3  1  0
  6  5  2  0
  7  5  1  0
  8 12  1  0
  8  7  1  0
  8  9  1  6
 10  9  1  0
 11 10  2  0
 12 15  1  0
 13 12  2  0
 14 10  1  0
 15 16  1  0
 16 17  1  1
 16 20  1  0
 17 18  1  0
 18 22  1  0
 19 18  2  0
 20 23  2  0
 20 21  1  0
M  END
$$$$
