CRA.pdb
     RDKit          3D

 23 22  0  0  1  0  0  0  0  0999 V2000
    4.5025  -13.3353   26.7993 N   0  0  0  0  0  0  0  0  0  0  0  0
    5.7611  -12.8737   26.2553 C   0  0  1  0  0  0  0  0  0  0  0  0
    6.5217  -12.1713   27.3645 C   0  0  0  0  0  0  0  0  0  0  0  0
    8.1475  -11.5979   26.7614 S   0  0  0  0  0  0  0  0  0  0  0  0
    6.5648  -13.9710   25.6620 C   0  0  0  0  0  0  0  0  0  0  0  0
    6.4879  -15.1153   26.1740 O   0  0  0  0  0  0  0  0  0  0  0  0
    7.5601  -12.7642   18.1545 N   0  0  0  0  0  0  0  0  0  0  0  0
    8.4195  -13.8301   18.5163 C   0  0  0  0  0  0  0  0  0  0  0  0
    9.3123  -14.3166   17.7094 N   0  0  0  0  0  0  0  0  0  0  0  0
    8.3726  -14.4621   19.8116 N   0  0  0  0  0  0  0  0  0  0  0  0
    9.5569  -15.0051   20.3978 C   0  0  0  0  0  0  0  0  0  0  0  0
    9.3285  -15.5556   21.8007 C   0  0  0  0  0  0  0  0  0  0  0  0
    8.5725  -14.4962   22.5527 C   0  0  0  0  0  0  0  0  0  0  0  0
    8.1035  -14.8785   23.9154 C   0  0  2  0  0  0  0  0  0  0  0  0
    7.4018  -13.7564   24.5497 N   0  0  0  0  0  0  0  0  0  0  0  0
    9.2524  -15.2633   24.7655 C   0  0  0  0  0  0  0  0  0  0  0  0
   10.1800  -15.9881   24.3501 O   0  0  0  0  0  0  0  0  0  0  0  0
    9.8657  -15.1266   18.0635 C   0  0  0  0  0  0  0  0  0  0  0  0
   10.7066  -14.0413   28.0094 C   0  0  2  0  0  0  0  0  0  0  0  0
   10.4207  -15.0734   26.9707 N   0  0  0  0  0  0  0  0  0  0  0  0
    9.3151  -14.7940   26.1188 C   0  0  0  0  0  0  0  0  0  0  0  0
   10.4344  -16.4483   27.5442 O   0  0  0  0  0  0  0  0  0  0  0  0
   11.4796  -16.8476   28.3483 O   0  0  0  0  0  0  0  0  0  0  0  0
  2  1  1  1
  2  3  1  0
  4  3  1  0
  5  2  1  0
  5  6  2  0
  7  8  1  0
  8  9  2  0
  8 10  1  0
 10 11  1  0
 11 12  1  0
 12 13  1  0
 14 13  1  6
 14 15  1  0
 15  5  1  0
 16 14  1  0
 16 20  1  0
 17 16  2  0
 19 18  1  6
 19 21  1  0
 20 19  1  0
 21 23  2  0
 21 22  1  0
M  END
$$$$
