CRA.pdb
     RDKit          3D

 23 22  0  0  1  0  0  0  0  0999 V2000
    7.1850  -14.1166   17.3797 N   0  0  0  0  0  0  0  0  0  0  0  0
    8.1529  -13.8763   18.4278 C   0  0  1  0  0  0  0  0  0  0  0  0
    7.7070  -12.6523   19.2058 C   0  0  0  0  0  0  0  0  0  0  0  0
    8.9729  -12.1795   20.4344 S   0  0  0  0  0  0  0  0  0  0  0  0
    8.3312  -15.0474   19.3215 C   0  0  0  0  0  0  0  0  0  0  0  0
    7.3170  -15.7124   19.6482 O   0  0  0  0  0  0  0  0  0  0  0  0
    9.7969  -21.3189   21.1765 N   0  0  0  0  0  0  0  0  0  0  0  0
   11.1201  -21.7889   20.9923 C   0  0  0  0  0  0  0  0  0  0  0  0
   11.4346  -23.0463   21.0634 N   0  0  0  0  0  0  0  0  0  0  0  0
   12.2266  -20.9081   20.7105 N   0  0  0  0  0  0  0  0  0  0  0  0
   12.0000  -19.6146   20.1481 C   0  0  0  0  0  0  0  0  0  0  0  0
   10.9184  -18.8282   20.8797 C   0  0  0  0  0  0  0  0  0  0  0  0
   10.7566  -17.5349   20.1309 C   0  0  0  0  0  0  0  0  0  0  0  0
    9.7494  -16.5862   20.6863 C   0  0  2  0  0  0  0  0  0  0  0  0
    9.6000  -15.4227   19.8043 N   0  0  0  0  0  0  0  0  0  0  0  0
   10.1688  -16.1171   22.0261 C   0  0  0  0  0  0  0  0  0  0  0  0
   11.2196  -15.4688   22.2102 O   0  0  0  0  0  0  0  0  0  0  0  0
   12.4430  -23.2804   20.9365 C   0  0  0  0  0  0  0  0  0  0  0  0
    8.5441  -15.5127   25.3141 C   0  0  1  0  0  0  0  0  0  0  0  0
    9.6870  -15.9834   24.4784 N   0  0  0  0  0  0  0  0  0  0  0  0
    9.3479  -16.4117   23.1640 C   0  0  0  0  0  0  0  0  0  0  0  0
   10.5693  -16.9185   25.2311 O   0  0  0  0  0  0  0  0  0  0  0  0
   10.8766  -18.1519   24.6994 O   0  0  0  0  0  0  0  0  0  0  0  0
  2  1  1  6
  2  3  1  0
  4  3  1  0
  5  2  1  0
  5  6  2  0
  7  8  1  0
  8  9  2  0
  8 10  1  0
 10 11  1  0
 11 12  1  0
 12 13  1  0
 14 13  1  6
 14 15  1  0
 15  5  1  0
 16 14  1  0
 16 20  1  0
 17 16  2  0
 19 18  1  6
 19 21  1  0
 20 19  1  0
 21 23  2  0
 21 22  1  0
M  END
$$$$
