CRA.pdb
     RDKit          3D

 23 22  0  0  1  0  0  0  0  0999 V2000
    6.7124  -18.5689   26.8034 N   0  0  0  0  0  0  0  0  0  0  0  0
    7.1194  -17.2648   26.3273 C   0  0  1  0  0  0  0  0  0  0  0  0
    7.9786  -16.6214   27.3998 C   0  0  0  0  0  0  0  0  0  0  0  0
    9.3866  -17.7038   27.8259 S   0  0  0  0  0  0  0  0  0  0  0  0
    7.8353  -17.3274   25.0290 C   0  0  0  0  0  0  0  0  0  0  0  0
    8.4140  -18.3967   24.7143 O   0  0  0  0  0  0  0  0  0  0  0  0
    8.0758  -11.7091   19.4910 N   0  0  0  0  0  0  0  0  0  0  0  0
    8.2451  -13.0072   18.9508 C   0  0  0  0  0  0  0  0  0  0  0  0
    9.0618  -13.2597   17.9739 N   0  0  0  0  0  0  0  0  0  0  0  0
    7.5235  -14.1548   19.4423 N   0  0  0  0  0  0  0  0  0  0  0  0
    6.6584  -14.0388   20.5732 C   0  0  0  0  0  0  0  0  0  0  0  0
    6.8138  -15.1881   21.5623 C   0  0  0  0  0  0  0  0  0  0  0  0
    8.2549  -15.1864   21.9894 C   0  0  0  0  0  0  0  0  0  0  0  0
    8.6585  -16.2852   22.9129 C   0  0  2  0  0  0  0  0  0  0  0  0
    7.8777  -16.2244   24.1541 N   0  0  0  0  0  0  0  0  0  0  0  0
   10.0957  -16.1730   23.2486 C   0  0  0  0  0  0  0  0  0  0  0  0
   10.5333  -15.3140   24.0417 O   0  0  0  0  0  0  0  0  0  0  0  0
    9.0448  -14.2310   17.5941 C   0  0  0  0  0  0  0  0  0  0  0  0
   12.9869  -18.4336   23.2914 C   0  0  1  0  0  0  0  0  0  0  0  0
   12.4113  -17.0888   22.9976 N   0  0  0  0  0  0  0  0  0  0  0  0
   11.0318  -17.0772   22.6471 C   0  0  0  0  0  0  0  0  0  0  0  0
   13.2920  -16.3007   22.0906 O   0  0  0  0  0  0  0  0  0  0  0  0
   14.6231  -16.1293   22.4025 O   0  0  0  0  0  0  0  0  0  0  0  0
  2  1  1  1
  2  3  1  0
  4  3  1  0
  5  2  1  0
  5  6  2  0
  7  8  1  0
  8  9  2  0
  8 10  1  0
 10 11  1  0
 11 12  1  0
 12 13  1  0
 14 13  1  6
 14 15  1  0
 15  5  1  0
 16 14  1  0
 16 20  1  0
 17 16  2  0
 19 18  1  1
 19 21  1  0
 20 19  1  0
 21 23  2  0
 21 22  1  0
M  END
$$$$
