CRA.pdb
     RDKit          3D

 23 22  0  0  1  0  0  0  0  0999 V2000
    4.8247  -12.6794   27.0475 N   0  0  0  0  0  0  0  0  0  0  0  0
    6.0978  -12.4802   26.3897 C   0  0  1  0  0  0  0  0  0  0  0  0
    7.1293  -12.1545   27.4538 C   0  0  0  0  0  0  0  0  0  0  0  0
    8.8107  -12.1717   26.7411 S   0  0  0  0  0  0  0  0  0  0  0  0
    6.5121  -13.6515   25.5783 C   0  0  0  0  0  0  0  0  0  0  0  0
    6.4553  -14.7927   26.0998 O   0  0  0  0  0  0  0  0  0  0  0  0
    8.3958  -12.5284   18.4947 N   0  0  0  0  0  0  0  0  0  0  0  0
    9.2104  -13.6867   18.5137 C   0  0  0  0  0  0  0  0  0  0  0  0
   10.4630  -13.6694   18.1739 N   0  0  0  0  0  0  0  0  0  0  0  0
    8.7141  -14.9806   18.9124 N   0  0  0  0  0  0  0  0  0  0  0  0
    7.5388  -15.0910   19.7170 C   0  0  0  0  0  0  0  0  0  0  0  0
    7.8344  -15.5333   21.1454 C   0  0  0  0  0  0  0  0  0  0  0  0
    7.4215  -14.3941   22.0347 C   0  0  0  0  0  0  0  0  0  0  0  0
    7.4489  -14.6723   23.4993 C   0  0  2  0  0  0  0  0  0  0  0  0
    6.9622  -13.5097   24.2512 N   0  0  0  0  0  0  0  0  0  0  0  0
    8.8285  -14.9798   23.9386 C   0  0  0  0  0  0  0  0  0  0  0  0
    9.7246  -14.1121   23.9887 O   0  0  0  0  0  0  0  0  0  0  0  0
   10.9599  -14.5863   18.1859 C   0  0  0  0  0  0  0  0  0  0  0  0
   10.6128  -18.0364   25.3369 C   0  0  1  0  0  0  0  0  0  0  0  0
   10.4856  -16.7004   24.6851 N   0  0  0  0  0  0  0  0  0  0  0  0
    9.1627  -16.3200   24.3230 C   0  0  0  0  0  0  0  0  0  0  0  0
   11.5039  -16.5126   23.6140 O   0  0  0  0  0  0  0  0  0  0  0  0
   12.8254  -16.3131   23.9489 O   0  0  0  0  0  0  0  0  0  0  0  0
  2  1  1  1
  2  3  1  0
  4  3  1  0
  5  2  1  0
  5  6  2  0
  7  8  1  0
  8  9  2  0
  8 10  1  0
 10 11  1  0
 11 12  1  0
 12 13  1  0
 14 13  1  6
 14 15  1  0
 15  5  1  0
 16 14  1  0
 16 20  1  0
 17 16  2  0
 19 18  1  1
 19 21  1  0
 20 19  1  0
 21 23  2  0
 21 22  1  0
M  END
$$$$
