CRA.pdb
     RDKit          3D

 23 22  0  0  1  0  0  0  0  0999 V2000
    6.2097  -21.4289   19.4062 N   0  0  0  0  0  0  0  0  0  0  0  0
    5.9379  -20.7596   20.6597 C   0  0  1  0  0  0  0  0  0  0  0  0
    5.7483  -21.8217   21.7266 C   0  0  0  0  0  0  0  0  0  0  0  0
    5.3839  -21.0487   23.3407 S   0  0  0  0  0  0  0  0  0  0  0  0
    7.0040  -19.7994   21.0386 C   0  0  0  0  0  0  0  0  0  0  0  0
    8.2025  -20.1476   20.8974 O   0  0  0  0  0  0  0  0  0  0  0  0
    7.1875  -13.3997   18.8657 N   0  0  0  0  0  0  0  0  0  0  0  0
    8.1498  -12.6744   19.6096 C   0  0  0  0  0  0  0  0  0  0  0  0
    8.9743  -11.8353   19.0609 N   0  0  0  0  0  0  0  0  0  0  0  0
    8.2921  -12.8090   21.0382 N   0  0  0  0  0  0  0  0  0  0  0  0
    7.4952  -13.7482   21.7619 C   0  0  0  0  0  0  0  0  0  0  0  0
    8.2195  -15.0625   22.0295 C   0  0  0  0  0  0  0  0  0  0  0  0
    7.2390  -16.1573   21.7141 C   0  0  0  0  0  0  0  0  0  0  0  0
    7.7690  -17.5479   21.8049 C   0  0  2  0  0  0  0  0  0  0  0  0
    6.7013  -18.5214   21.5472 N   0  0  0  0  0  0  0  0  0  0  0  0
    8.3267  -17.7987   23.1528 C   0  0  0  0  0  0  0  0  0  0  0  0
    7.6236  -17.7733   24.1840 O   0  0  0  0  0  0  0  0  0  0  0  0
    9.6759  -11.3931   19.6933 C   0  0  0  0  0  0  0  0  0  0  0  0
   11.5798  -19.1529   24.5151 C   0  0  1  0  0  0  0  0  0  0  0  0
   10.3228  -18.3503   24.5582 N   0  0  0  0  0  0  0  0  0  0  0  0
    9.7251  -18.0816   23.2947 C   0  0  0  0  0  0  0  0  0  0  0  0
   10.4590  -17.1638   25.4488 O   0  0  0  0  0  0  0  0  0  0  0  0
   10.8452  -17.3297   26.7610 O   0  0  0  0  0  0  0  0  0  0  0  0
  2  1  1  6
  2  3  1  0
  4  3  1  0
  5  2  1  0
  5  6  2  0
  7  8  1  0
  8  9  2  0
  8 10  1  0
 10 11  1  0
 11 12  1  0
 12 13  1  0
 14 13  1  1
 14 15  1  0
 15  5  1  0
 16 14  1  0
 16 20  1  0
 17 16  2  0
 19 18  1  1
 19 21  1  0
 20 19  1  0
 21 23  2  0
 21 22  1  0
M  END
$$$$
