CRA.pdb
     RDKit          3D

 23 22  0  0  1  0  0  0  0  0999 V2000
    5.4288  -21.8950   22.8377 N   0  0  0  0  0  0  0  0  0  0  0  0
    6.2224  -21.0448   23.6982 C   0  0  1  0  0  0  0  0  0  0  0  0
    6.9648  -21.9330   24.6791 C   0  0  0  0  0  0  0  0  0  0  0  0
    8.0294  -20.9288   25.7718 S   0  0  0  0  0  0  0  0  0  0  0  0
    7.1589  -20.1783   22.9404 C   0  0  0  0  0  0  0  0  0  0  0  0
    7.9628  -20.7191   22.1413 O   0  0  0  0  0  0  0  0  0  0  0  0
    8.5375  -12.1801   20.1379 N   0  0  0  0  0  0  0  0  0  0  0  0
    7.9555  -13.0383   19.1733 C   0  0  0  0  0  0  0  0  0  0  0  0
    8.2528  -12.9795   17.9112 N   0  0  0  0  0  0  0  0  0  0  0  0
    6.9845  -14.0481   19.5151 N   0  0  0  0  0  0  0  0  0  0  0  0
    7.0102  -14.6752   20.7985 C   0  0  0  0  0  0  0  0  0  0  0  0
    7.7222  -16.0229   20.7887 C   0  0  0  0  0  0  0  0  0  0  0  0
    7.6075  -16.5716   22.1834 C   0  0  0  0  0  0  0  0  0  0  0  0
    8.1408  -17.9495   22.3835 C   0  0  2  0  0  0  0  0  0  0  0  0
    7.1634  -18.7788   23.0984 N   0  0  0  0  0  0  0  0  0  0  0  0
    9.3942  -17.9067   23.1696 C   0  0  0  0  0  0  0  0  0  0  0  0
    9.4226  -17.5524   24.3663 O   0  0  0  0  0  0  0  0  0  0  0  0
    7.7597  -13.6534   17.2863 C   0  0  0  0  0  0  0  0  0  0  0  0
   12.9437  -19.1231   22.6665 C   0  0  1  0  0  0  0  0  0  0  0  0
   11.8707  -18.2613   23.2426 N   0  0  0  0  0  0  0  0  0  0  0  0
   10.6294  -18.2825   22.5462 C   0  0  0  0  0  0  0  0  0  0  0  0
   12.3776  -16.8999   23.5727 O   0  0  0  0  0  0  0  0  0  0  0  0
   13.4691  -16.7547   24.4009 O   0  0  0  0  0  0  0  0  0  0  0  0
  2  1  1  6
  2  3  1  0
  4  3  1  0
  5  2  1  0
  5  6  2  0
  7  8  1  0
  8  9  2  0
  8 10  1  0
 10 11  1  0
 11 12  1  0
 12 13  1  0
 14 13  1  1
 14 15  1  0
 15  5  1  0
 16 14  1  0
 16 20  1  0
 17 16  2  0
 19 18  1  1
 19 21  1  0
 20 19  1  0
 21 23  2  0
 21 22  1  0
M  END
$$$$
