CRA.pdb
     RDKit          3D

 23 22  0  0  1  0  0  0  0  0999 V2000
    7.7881  -15.0702   18.5182 N   0  0  0  0  0  0  0  0  0  0  0  0
    8.6044  -14.8652   19.6949 C   0  0  1  0  0  0  0  0  0  0  0  0
    9.2330  -13.4878   19.5951 C   0  0  0  0  0  0  0  0  0  0  0  0
    7.9560  -12.1901   19.7398 S   0  0  0  0  0  0  0  0  0  0  0  0
    7.8383  -15.0178   20.9565 C   0  0  0  0  0  0  0  0  0  0  0  0
    6.5962  -14.8329   20.9300 O   0  0  0  0  0  0  0  0  0  0  0  0
    8.3841  -21.4214   26.5771 N   0  0  0  0  0  0  0  0  0  0  0  0
    7.4830  -20.5555   27.2432 C   0  0  0  0  0  0  0  0  0  0  0  0
    6.8045  -20.9180   28.2888 N   0  0  0  0  0  0  0  0  0  0  0  0
    7.2459  -19.1994   26.8139 N   0  0  0  0  0  0  0  0  0  0  0  0
    7.8222  -18.7104   25.6016 C   0  0  0  0  0  0  0  0  0  0  0  0
    7.3406  -17.3114   25.2352 C   0  0  0  0  0  0  0  0  0  0  0  0
    7.9784  -16.9768   23.9159 C   0  0  0  0  0  0  0  0  0  0  0  0
    7.6769  -15.6202   23.3758 C   0  0  2  0  0  0  0  0  0  0  0  0
    8.4693  -15.3615   22.1678 N   0  0  0  0  0  0  0  0  0  0  0  0
    7.9932  -14.5834   24.3837 C   0  0  0  0  0  0  0  0  0  0  0  0
    9.1649  -14.2514   24.6582 O   0  0  0  0  0  0  0  0  0  0  0  0
    6.1855  -20.1943   28.7142 C   0  0  0  0  0  0  0  0  0  0  0  0
    5.9914  -12.0531   26.3794 C   0  0  1  0  0  0  0  0  0  0  0  0
    7.1576  -12.9292   26.0657 N   0  0  0  0  0  0  0  0  0  0  0  0
    6.9241  -13.9283   25.0791 C   0  0  0  0  0  0  0  0  0  0  0  0
    7.8251  -13.4193   27.3041 O   0  0  0  0  0  0  0  0  0  0  0  0
    8.2861  -12.5186   28.2393 O   0  0  0  0  0  0  0  0  0  0  0  0
  2  1  1  6
  2  3  1  0
  4  3  1  0
  5  2  1  0
  5  6  2  0
  7  8  1  0
  8  9  2  0
  8 10  1  0
 10 11  1  0
 11 12  1  0
 12 13  1  0
 14 13  1  1
 14 15  1  0
 15  5  1  0
 16 14  1  0
 16 20  1  0
 17 16  2  0
 19 18  1  6
 19 21  1  0
 20 19  1  0
 21 23  2  0
 21 22  1  0
M  END
$$$$
