CRA.pdb
     RDKit          3D

 23 22  0  0  1  0  0  0  0  0999 V2000
    7.5985  -14.5803   18.0480 N   0  0  0  0  0  0  0  0  0  0  0  0
    8.1664  -13.9279   19.2077 C   0  0  1  0  0  0  0  0  0  0  0  0
    7.6767  -12.4919   19.2245 C   0  0  0  0  0  0  0  0  0  0  0  0
    8.2797  -11.6280   20.7163 S   0  0  0  0  0  0  0  0  0  0  0  0
    7.8357  -14.6248   20.4754 C   0  0  0  0  0  0  0  0  0  0  0  0
    6.6927  -15.1300   20.6016 O   0  0  0  0  0  0  0  0  0  0  0  0
   11.4376  -21.2230   24.1379 N   0  0  0  0  0  0  0  0  0  0  0  0
   10.4767  -20.8803   25.1202 C   0  0  0  0  0  0  0  0  0  0  0  0
   10.1546  -21.6754   26.0943 N   0  0  0  0  0  0  0  0  0  0  0  0
    9.7775  -19.6192   25.1181 N   0  0  0  0  0  0  0  0  0  0  0  0
    9.9446  -18.6981   24.0389 C   0  0  0  0  0  0  0  0  0  0  0  0
    9.0174  -17.4922   24.1361 C   0  0  0  0  0  0  0  0  0  0  0  0
    9.2802  -16.6573   22.9142 C   0  0  0  0  0  0  0  0  0  0  0  0
    8.4242  -15.4462   22.7603 C   0  0  2  0  0  0  0  0  0  0  0  0
    8.7673  -14.7292   21.5266 N   0  0  0  0  0  0  0  0  0  0  0  0
    8.6136  -14.5332   23.9099 C   0  0  0  0  0  0  0  0  0  0  0  0
    9.7272  -14.0551   24.2092 O   0  0  0  0  0  0  0  0  0  0  0  0
    9.4444  -21.3183   26.7694 C   0  0  0  0  0  0  0  0  0  0  0  0
    6.3636  -12.5684   26.2134 C   0  0  1  0  0  0  0  0  0  0  0  0
    7.5999  -13.3206   25.8505 N   0  0  0  0  0  0  0  0  0  0  0  0
    7.4850  -14.1767   24.7191 C   0  0  0  0  0  0  0  0  0  0  0  0
    8.2323  -13.9470   27.0451 O   0  0  0  0  0  0  0  0  0  0  0  0
    8.6257  -13.1613   28.1063 O   0  0  0  0  0  0  0  0  0  0  0  0
  2  1  1  6
  2  3  1  0
  4  3  1  0
  5  2  1  0
  5  6  2  0
  7  8  1  0
  8  9  2  0
  8 10  1  0
 10 11  1  0
 11 12  1  0
 12 13  1  0
 14 13  1  1
 14 15  1  0
 15  5  1  0
 16 14  1  0
 16 20  1  0
 17 16  2  0
 19 18  1  6
 19 21  1  0
 20 19  1  0
 21 23  2  0
 21 22  1  0
M  END
$$$$
