CRA.pdb
     RDKit          3D

 23 22  0  0  1  0  0  0  0  0999 V2000
    5.1012  -12.7317   26.4020 N   0  0  0  0  0  0  0  0  0  0  0  0
    6.4080  -12.7117   25.7814 C   0  0  1  0  0  0  0  0  0  0  0  0
    7.3811  -12.0785   26.7583 C   0  0  0  0  0  0  0  0  0  0  0  0
    6.9238  -10.3399   27.0802 S   0  0  0  0  0  0  0  0  0  0  0  0
    6.8641  -14.0609   25.3645 C   0  0  0  0  0  0  0  0  0  0  0  0
    6.8186  -14.9950   26.2029 O   0  0  0  0  0  0  0  0  0  0  0  0
    7.2064  -12.8914   18.4442 N   0  0  0  0  0  0  0  0  0  0  0  0
    8.3144  -13.6835   18.0561 C   0  0  0  0  0  0  0  0  0  0  0  0
    8.7918  -13.6791   16.8491 N   0  0  0  0  0  0  0  0  0  0  0  0
    9.0029  -14.5599   18.9711 N   0  0  0  0  0  0  0  0  0  0  0  0
    8.2717  -15.3391   19.9193 C   0  0  0  0  0  0  0  0  0  0  0  0
    8.5250  -14.9144   21.3611 C   0  0  0  0  0  0  0  0  0  0  0  0
    7.7278  -15.8518   22.2242 C   0  0  0  0  0  0  0  0  0  0  0  0
    7.8471  -15.6383   23.6950 C   0  0  2  0  0  0  0  0  0  0  0  0
    7.3412  -14.3107   24.0631 N   0  0  0  0  0  0  0  0  0  0  0  0
    9.2622  -15.7421   24.1165 C   0  0  0  0  0  0  0  0  0  0  0  0
   10.0582  -14.7842   24.0324 O   0  0  0  0  0  0  0  0  0  0  0  0
    9.6136  -14.2967   16.6728 C   0  0  0  0  0  0  0  0  0  0  0  0
   11.4256  -18.2914   25.8916 C   0  0  1  0  0  0  0  0  0  0  0  0
   11.1307  -17.2042   24.9133 N   0  0  0  0  0  0  0  0  0  0  0  0
    9.7509  -16.9833   24.6421 C   0  0  0  0  0  0  0  0  0  0  0  0
   11.9959  -17.3033   23.7046 O   0  0  0  0  0  0  0  0  0  0  0  0
   13.3657  -17.2259   23.8314 O   0  0  0  0  0  0  0  0  0  0  0  0
  2  1  1  1
  2  3  1  0
  4  3  1  0
  5  2  1  0
  5  6  2  0
  7  8  1  0
  8  9  2  0
  8 10  1  0
 10 11  1  0
 11 12  1  0
 12 13  1  0
 14 13  1  6
 14 15  1  0
 15  5  1  0
 16 14  1  0
 16 20  1  0
 17 16  2  0
 19 18  1  1
 19 21  1  0
 20 19  1  0
 21 23  2  0
 21 22  1  0
M  END
$$$$
