CRA.pdb
     RDKit          3D

 23 22  0  0  1  0  0  0  0  0999 V2000
    7.6560  -14.6588   18.1002 N   0  0  0  0  0  0  0  0  0  0  0  0
    8.1448  -13.9680   19.2737 C   0  0  1  0  0  0  0  0  0  0  0  0
    7.6085  -12.5491   19.2397 C   0  0  0  0  0  0  0  0  0  0  0  0
    8.0295  -11.6691   20.7837 S   0  0  0  0  0  0  0  0  0  0  0  0
    7.7751  -14.6537   20.5367 C   0  0  0  0  0  0  0  0  0  0  0  0
    6.6523  -15.2118   20.6097 O   0  0  0  0  0  0  0  0  0  0  0  0
   13.1006  -18.7263   24.3769 N   0  0  0  0  0  0  0  0  0  0  0  0
   12.1842  -19.2432   25.3248 C   0  0  0  0  0  0  0  0  0  0  0  0
   12.5588  -19.9268   26.3627 N   0  0  0  0  0  0  0  0  0  0  0  0
   10.7592  -19.0520   25.2140 N   0  0  0  0  0  0  0  0  0  0  0  0
   10.1885  -18.5242   24.0154 C   0  0  0  0  0  0  0  0  0  0  0  0
    9.6448  -17.1106   24.1868 C   0  0  0  0  0  0  0  0  0  0  0  0
    8.9855  -16.7505   22.8849 C   0  0  0  0  0  0  0  0  0  0  0  0
    8.2876  -15.4333   22.8543 C   0  0  2  0  0  0  0  0  0  0  0  0
    8.6483  -14.6900   21.6413 N   0  0  0  0  0  0  0  0  0  0  0  0
    8.6623  -14.6254   24.0366 C   0  0  0  0  0  0  0  0  0  0  0  0
    9.8268  -14.2187   24.2284 O   0  0  0  0  0  0  0  0  0  0  0  0
   11.8001  -20.2727   26.9892 C   0  0  0  0  0  0  0  0  0  0  0  0
    6.8681  -12.5773   26.5920 C   0  0  1  0  0  0  0  0  0  0  0  0
    7.9503  -13.5095   26.1607 N   0  0  0  0  0  0  0  0  0  0  0  0
    7.6608  -14.2905   25.0065 C   0  0  0  0  0  0  0  0  0  0  0  0
    8.5041  -14.2777   27.3108 O   0  0  0  0  0  0  0  0  0  0  0  0
    8.9810  -13.6101   28.4177 O   0  0  0  0  0  0  0  0  0  0  0  0
  2  1  1  6
  2  3  1  0
  4  3  1  0
  5  2  1  0
  5  6  2  0
  7  8  1  0
  8  9  2  0
  8 10  1  0
 10 11  1  0
 11 12  1  0
 12 13  1  0
 14 13  1  1
 14 15  1  0
 15  5  1  0
 16 14  1  0
 16 20  1  0
 17 16  2  0
 19 18  1  6
 19 21  1  0
 20 19  1  0
 21 23  2  0
 21 22  1  0
M  END
$$$$
