CRA.pdb
     RDKit          3D

 23 22  0  0  1  0  0  0  0  0999 V2000
    4.7282  -12.9396   26.3651 N   0  0  0  0  0  0  0  0  0  0  0  0
    6.0709  -12.6948   25.8853 C   0  0  1  0  0  0  0  0  0  0  0  0
    6.7212  -11.6816   26.8088 C   0  0  0  0  0  0  0  0  0  0  0  0
    8.4597  -11.3994   26.3257 S   0  0  0  0  0  0  0  0  0  0  0  0
    6.8799  -13.9352   25.7912 C   0  0  0  0  0  0  0  0  0  0  0  0
    6.9608  -14.6766   26.8018 O   0  0  0  0  0  0  0  0  0  0  0  0
    6.8283  -13.9079   19.0386 N   0  0  0  0  0  0  0  0  0  0  0  0
    8.1869  -13.6128   19.3082 C   0  0  0  0  0  0  0  0  0  0  0  0
    8.7303  -12.4728   19.0082 N   0  0  0  0  0  0  0  0  0  0  0  0
    9.0777  -14.5554   19.9385 N   0  0  0  0  0  0  0  0  0  0  0  0
    8.5607  -15.6163   20.7435 C   0  0  0  0  0  0  0  0  0  0  0  0
    7.9853  -15.1319   22.0693 C   0  0  0  0  0  0  0  0  0  0  0  0
    8.8122  -15.7729   23.1485 C   0  0  0  0  0  0  0  0  0  0  0  0
    8.3688  -15.5094   24.5474 C   0  0  2  0  0  0  0  0  0  0  0  0
    7.5505  -14.2924   24.6053 N   0  0  0  0  0  0  0  0  0  0  0  0
    9.5410  -15.3375   25.4346 C   0  0  0  0  0  0  0  0  0  0  0  0
   10.4893  -14.5764   25.1518 O   0  0  0  0  0  0  0  0  0  0  0  0
    9.7434  -12.3681   19.2330 C   0  0  0  0  0  0  0  0  0  0  0  0
   10.7704  -14.9566   28.5341 C   0  0  2  0  0  0  0  0  0  0  0  0
   10.7511  -16.0409   27.5094 N   0  0  0  0  0  0  0  0  0  0  0  0
    9.6036  -16.0665   26.6676 C   0  0  0  0  0  0  0  0  0  0  0  0
   11.1235  -17.3583   28.0967 O   0  0  0  0  0  0  0  0  0  0  0  0
   12.2698  -17.4752   28.8521 O   0  0  0  0  0  0  0  0  0  0  0  0
  2  1  1  1
  2  3  1  0
  4  3  1  0
  5  2  1  0
  5  6  2  0
  7  8  1  0
  8  9  2  0
  8 10  1  0
 10 11  1  0
 11 12  1  0
 12 13  1  0
 14 13  1  6
 14 15  1  0
 15  5  1  0
 16 14  1  0
 16 20  1  0
 17 16  2  0
 19 18  1  6
 19 21  1  0
 20 19  1  0
 21 23  2  0
 21 22  1  0
M  END
$$$$
