CRA.pdb
     RDKit          3D

 23 22  0  0  1  0  0  0  0  0999 V2000
    4.8715  -13.7118   26.5203 N   0  0  0  0  0  0  0  0  0  0  0  0
    6.0567  -13.2677   25.8194 C   0  0  1  0  0  0  0  0  0  0  0  0
    6.7167  -12.1856   26.6536 C   0  0  0  0  0  0  0  0  0  0  0  0
    5.5892  -10.7646   26.8655 S   0  0  0  0  0  0  0  0  0  0  0  0
    7.0000  -14.3763   25.5310 C   0  0  0  0  0  0  0  0  0  0  0  0
    6.8356  -15.4725   26.1216 O   0  0  0  0  0  0  0  0  0  0  0  0
    8.7651  -15.3742   17.9894 N   0  0  0  0  0  0  0  0  0  0  0  0
    8.2225  -14.2104   18.5867 C   0  0  0  0  0  0  0  0  0  0  0  0
    8.2106  -13.0567   17.9920 N   0  0  0  0  0  0  0  0  0  0  0  0
    7.6385  -14.2124   19.9052 N   0  0  0  0  0  0  0  0  0  0  0  0
    8.2194  -14.9875   20.9554 C   0  0  0  0  0  0  0  0  0  0  0  0
    8.9155  -14.1348   22.0098 C   0  0  0  0  0  0  0  0  0  0  0  0
    9.5965  -15.0932   22.9462 C   0  0  0  0  0  0  0  0  0  0  0  0
    8.8738  -15.3802   24.2184 C   0  0  2  0  0  0  0  0  0  0  0  0
    8.0627  -14.2246   24.6192 N   0  0  0  0  0  0  0  0  0  0  0  0
    9.8375  -15.6835   25.3001 C   0  0  0  0  0  0  0  0  0  0  0  0
   10.7600  -16.5132   25.1623 O   0  0  0  0  0  0  0  0  0  0  0  0
    7.8760  -12.2465   18.5573 C   0  0  0  0  0  0  0  0  0  0  0  0
   10.6630  -14.1373   28.6632 C   0  0  2  0  0  0  0  0  0  0  0  0
   10.6495  -15.2020   27.6181 N   0  0  0  0  0  0  0  0  0  0  0  0
    9.7187  -15.0074   26.5589 C   0  0  0  0  0  0  0  0  0  0  0  0
   10.6319  -16.5639   28.2216 O   0  0  0  0  0  0  0  0  0  0  0  0
   11.5575  -16.9012   29.1848 O   0  0  0  0  0  0  0  0  0  0  0  0
  2  1  1  1
  2  3  1  0
  4  3  1  0
  5  2  1  0
  5  6  2  0
  7  8  1  0
  8  9  2  0
  8 10  1  0
 10 11  1  0
 11 12  1  0
 12 13  1  0
 14 13  1  6
 14 15  1  0
 15  5  1  0
 16 14  1  0
 16 20  1  0
 17 16  2  0
 19 18  1  6
 19 21  1  0
 20 19  1  0
 21 23  2  0
 21 22  1  0
M  END
$$$$
