MNH.pdb
     RDKit          3D

 27 27  0  0  1  0  0  0  0  0999 V2000
    7.3717  -11.1287   20.6755 C   0  0  0  0  0  0  0  0  0  0  0  0
    7.6957  -12.7004   21.5025 S   0  0  0  0  0  0  0  0  0  0  0  0
    8.4332  -13.8708   20.2979 C   0  0  0  0  0  0  0  0  0  0  0  0
    8.7711  -15.1084   21.0690 C   0  0  0  0  0  0  0  0  0  0  0  0
    9.3290  -16.2358   20.2364 C   0  0  2  0  0  0  0  0  0  0  0  0
    8.2740  -16.5788   19.2883 N   0  0  0  0  0  0  0  0  0  0  0  0
    9.6656  -17.3616   21.1123 C   0  0  0  0  0  0  0  0  0  0  0  0
    9.4571  -18.5448   20.7479 O   0  0  0  0  0  0  0  0  0  0  0  0
   12.7837  -20.8114   23.2047 N   0  0  0  0  0  0  0  0  0  0  0  0
   13.1461  -19.5476   22.7450 C   0  0  0  0  0  0  0  0  0  0  0  0
   14.3824  -19.2343   22.8310 O   0  0  0  0  0  0  0  0  0  0  0  0
   12.2664  -18.5260   22.1688 C   0  0  0  0  0  0  0  0  0  0  0  0
   11.0715  -18.1955   22.9986 C   0  0  2  0  0  0  0  0  0  0  0  0
   10.2452  -17.1792   22.4203 N   0  0  0  0  0  0  0  0  0  0  0  0
   11.5028  -17.8544   24.3847 C   0  0  0  0  0  0  0  0  0  0  0  0
   12.3997  -18.5722   24.8942 O   0  0  0  0  0  0  0  0  0  0  0  0
   10.9464  -16.7788   25.1160 N   0  0  0  0  0  0  0  0  0  0  0  0
   10.1617  -16.9952   26.3607 C   0  0  1  0  0  0  0  0  0  0  0  0
    8.7573  -17.3257   26.0272 C   0  0  0  0  0  0  0  0  0  0  0  0
    7.9516  -16.3202   25.3452 C   0  0  0  0  0  0  0  0  0  0  0  0
    8.1987  -15.0525   24.9364 C   0  0  0  0  0  0  0  0  0  0  0  0
    7.0927  -14.6174   24.2924 N   0  0  0  0  0  0  0  0  0  0  0  0
    6.1786  -15.5998   24.3019 C   0  0  0  0  0  0  0  0  0  0  0  0
    6.6734  -16.6466   24.9347 N   0  0  0  0  0  0  0  0  0  0  0  0
   10.8187  -18.1315   27.0732 C   0  0  0  0  0  0  0  0  0  0  0  0
   11.2865  -19.0914   26.4764 O   0  0  0  0  0  0  0  0  0  0  0  0
   10.9321  -18.1522   28.4783 O   0  0  0  0  0  0  0  0  0  0  0  0
  2  1  1  0
  3  2  1  0
  4  3  1  0
  4  5  1  0
  5  6  1  6
  7  5  1  0
  7  8  2  0
 10 12  1  0
 10  9  1  0
 11 10  2  0
 13 12  1  6
 13 14  1  0
 14  7  1  0
 15 13  1  0
 16 15  2  0
 17 15  1  0
 18 25  1  0
 18 17  1  0
 18 19  1  6
 20 19  1  0
 21 20  2  0
 22 23  1  0
 22 21  1  0
 23 24  2  0
 24 20  1  0
 25 27  1  0
 26 25  2  0
M  END
$$$$
