MNH.pdb
     RDKit          3D

 27 27  0  0  1  0  0  0  0  0999 V2000
    7.8677  -12.4850   22.3622 C   0  0  0  0  0  0  0  0  0  0  0  0
    8.0605  -12.5223   20.5676 S   0  0  0  0  0  0  0  0  0  0  0  0
    7.0282  -13.8745   19.8817 C   0  0  0  0  0  0  0  0  0  0  0  0
    7.2296  -13.8448   18.3988 C   0  0  0  0  0  0  0  0  0  0  0  0
    8.6625  -14.0044   17.9552 C   0  0  2  0  0  0  0  0  0  0  0  0
    8.6273  -13.9499   16.4973 N   0  0  0  0  0  0  0  0  0  0  0  0
    9.1785  -15.2865   18.4431 C   0  0  0  0  0  0  0  0  0  0  0  0
    9.2582  -16.2802   17.6798 O   0  0  0  0  0  0  0  0  0  0  0  0
   14.4255  -14.7608   19.1950 N   0  0  0  0  0  0  0  0  0  0  0  0
   13.0982  -15.0981   18.9414 C   0  0  0  0  0  0  0  0  0  0  0  0
   12.8796  -15.8815   17.9553 O   0  0  0  0  0  0  0  0  0  0  0  0
   11.9122  -14.6549   19.6807 C   0  0  0  0  0  0  0  0  0  0  0  0
   10.9914  -15.7536   20.0939 C   0  0  2  0  0  0  0  0  0  0  0  0
    9.6167  -15.4780   19.8037 N   0  0  0  0  0  0  0  0  0  0  0  0
   11.2129  -16.0784   21.5323 C   0  0  0  0  0  0  0  0  0  0  0  0
   11.7441  -15.1874   22.2416 O   0  0  0  0  0  0  0  0  0  0  0  0
   10.8518  -17.3231   22.0997 N   0  0  0  0  0  0  0  0  0  0  0  0
   10.6304  -17.4879   23.5611 C   0  0  1  0  0  0  0  0  0  0  0  0
    9.5513  -18.4719   23.8056 C   0  0  0  0  0  0  0  0  0  0  0  0
    8.2157  -18.1758   23.3017 C   0  0  0  0  0  0  0  0  0  0  0  0
    7.6057  -17.0343   22.9017 C   0  0  0  0  0  0  0  0  0  0  0  0
    6.3718  -17.3722   22.4652 N   0  0  0  0  0  0  0  0  0  0  0  0
    6.2226  -18.6998   22.5920 C   0  0  0  0  0  0  0  0  0  0  0  0
    7.3275  -19.2142   23.0975 N   0  0  0  0  0  0  0  0  0  0  0  0
   11.9261  -17.9712   24.1252 C   0  0  0  0  0  0  0  0  0  0  0  0
   12.8776  -18.2635   23.4140 O   0  0  0  0  0  0  0  0  0  0  0  0
   12.1160  -18.1147   25.5147 O   0  0  0  0  0  0  0  0  0  0  0  0
  2  1  1  0
  3  2  1  0
  4  3  1  0
  4  5  1  0
  5  6  1  6
  7  5  1  0
  7  8  2  0
 10 12  1  0
 10  9  1  0
 11 10  2  0
 13 12  1  1
 13 14  1  0
 14  7  1  0
 15 13  1  0
 16 15  2  0
 17 15  1  0
 18 25  1  0
 18 17  1  0
 18 19  1  6
 20 19  1  0
 21 20  2  0
 22 23  1  0
 22 21  1  0
 23 24  2  0
 24 20  1  0
 25 27  1  0
 26 25  2  0
M  END
$$$$
