MNH.pdb
     RDKit          3D

 27 27  0  0  1  0  0  0  0  0999 V2000
    7.8039  -11.7005   27.7304 C   0  0  0  0  0  0  0  0  0  0  0  0
    6.2613  -12.3922   27.0969 S   0  0  0  0  0  0  0  0  0  0  0  0
    6.4753  -12.8103   25.3238 C   0  0  0  0  0  0  0  0  0  0  0  0
    6.6429  -14.2964   25.2608 C   0  0  0  0  0  0  0  0  0  0  0  0
    7.9802  -14.7571   24.7367 C   0  0  2  0  0  0  0  0  0  0  0  0
    8.1664  -14.0532   23.4719 N   0  0  0  0  0  0  0  0  0  0  0  0
    7.9524  -16.2111   24.5553 C   0  0  0  0  0  0  0  0  0  0  0  0
    7.6678  -16.9732   25.5116 O   0  0  0  0  0  0  0  0  0  0  0  0
    6.8616  -17.4002   19.9614 N   0  0  0  0  0  0  0  0  0  0  0  0
    6.8167  -17.9764   21.2286 C   0  0  0  0  0  0  0  0  0  0  0  0
    5.7562  -17.7807   21.9149 O   0  0  0  0  0  0  0  0  0  0  0  0
    7.8538  -18.7885   21.8723 C   0  0  0  0  0  0  0  0  0  0  0  0
    8.3247  -18.2658   23.1879 C   0  0  2  0  0  0  0  0  0  0  0  0
    8.2450  -16.8399   23.2908 N   0  0  0  0  0  0  0  0  0  0  0  0
    9.6965  -18.7785   23.4687 C   0  0  0  0  0  0  0  0  0  0  0  0
    9.8734  -20.0180   23.3618 O   0  0  0  0  0  0  0  0  0  0  0  0
   10.7680  -17.9327   23.8400 N   0  0  0  0  0  0  0  0  0  0  0  0
   12.0909  -18.4725   24.2529 C   0  0  1  0  0  0  0  0  0  0  0  0
   13.1758  -17.5880   23.7699 C   0  0  0  0  0  0  0  0  0  0  0  0
   13.2877  -17.3473   22.3364 C   0  0  0  0  0  0  0  0  0  0  0  0
   13.0633  -18.1174   21.2448 C   0  0  0  0  0  0  0  0  0  0  0  0
   13.2684  -17.3401   20.1581 N   0  0  0  0  0  0  0  0  0  0  0  0
   13.6122  -16.1105   20.5712 C   0  0  0  0  0  0  0  0  0  0  0  0
   13.6316  -16.0857   21.8903 N   0  0  0  0  0  0  0  0  0  0  0  0
   12.0717  -18.5212   25.7454 C   0  0  0  0  0  0  0  0  0  0  0  0
   11.1164  -18.1237   26.3980 O   0  0  0  0  0  0  0  0  0  0  0  0
   13.1619  -19.0315   26.4792 O   0  0  0  0  0  0  0  0  0  0  0  0
  2  1  1  0
  3  2  1  0
  4  3  1  0
  4  5  1  0
  5  6  1  6
  7  5  1  0
  7  8  2  0
 10 12  1  0
 10  9  1  0
 11 10  2  0
 13 12  1  6
 13 14  1  0
 14  7  1  0
 15 13  1  0
 16 15  2  0
 17 15  1  0
 18 25  1  0
 18 17  1  0
 18 19  1  1
 20 19  1  0
 21 20  2  0
 22 23  1  0
 22 21  1  0
 23 24  2  0
 24 20  1  0
 25 27  1  0
 26 25  2  0
M  END
$$$$
