MNH.pdb
     RDKit          3D

 27 27  0  0  1  0  0  0  0  0999 V2000
    7.7962  -11.5462   25.0338 C   0  0  0  0  0  0  0  0  0  0  0  0
    6.4937  -12.7946   24.9693 S   0  0  0  0  0  0  0  0  0  0  0  0
    6.3394  -13.4116   23.2488 C   0  0  0  0  0  0  0  0  0  0  0  0
    7.3394  -14.5165   23.1084 C   0  0  0  0  0  0  0  0  0  0  0  0
    7.4382  -15.1032   21.7222 C   0  0  2  0  0  0  0  0  0  0  0  0
    6.1088  -15.6267   21.4252 N   0  0  0  0  0  0  0  0  0  0  0  0
    8.4560  -16.1577   21.7163 C   0  0  0  0  0  0  0  0  0  0  0  0
    8.1301  -17.3668   21.8065 O   0  0  0  0  0  0  0  0  0  0  0  0
   13.5705  -17.6123   18.8927 N   0  0  0  0  0  0  0  0  0  0  0  0
   12.3286  -17.7769   19.5013 C   0  0  0  0  0  0  0  0  0  0  0  0
   11.9581  -18.9761   19.7430 O   0  0  0  0  0  0  0  0  0  0  0  0
   11.3886  -16.7248   19.9004 C   0  0  0  0  0  0  0  0  0  0  0  0
   10.7923  -16.9063   21.2558 C   0  0  2  0  0  0  0  0  0  0  0  0
    9.8658  -15.8732   21.6085 N   0  0  0  0  0  0  0  0  0  0  0  0
   11.8792  -17.0614   22.2647 C   0  0  0  0  0  0  0  0  0  0  0  0
   12.8400  -17.8100   21.9553 O   0  0  0  0  0  0  0  0  0  0  0  0
   11.8568  -16.4087   23.5197 N   0  0  0  0  0  0  0  0  0  0  0  0
   11.9135  -17.1624   24.8005 C   0  0  1  0  0  0  0  0  0  0  0  0
   10.6290  -17.8591   25.0395 C   0  0  0  0  0  0  0  0  0  0  0  0
    9.4817  -17.0697   25.4705 C   0  0  0  0  0  0  0  0  0  0  0  0
    9.3091  -15.7541   25.7436 C   0  0  0  0  0  0  0  0  0  0  0  0
    8.0018  -15.5748   26.0367 N   0  0  0  0  0  0  0  0  0  0  0  0
    7.3771  -16.7589   25.9448 C   0  0  0  0  0  0  0  0  0  0  0  0
    8.2518  -17.6853   25.6020 N   0  0  0  0  0  0  0  0  0  0  0  0
   13.0298  -18.1439   24.6554 C   0  0  0  0  0  0  0  0  0  0  0  0
   13.8776  -18.2993   25.5236 O   0  0  0  0  0  0  0  0  0  0  0  0
   13.1609  -18.9442   23.5022 O   0  0  0  0  0  0  0  0  0  0  0  0
  2  1  1  0
  3  2  1  0
  4  3  1  0
  4  5  1  0
  5  6  1  1
  7  5  1  0
  7  8  2  0
 10 12  1  0
 10  9  1  0
 11 10  2  0
 13 12  1  6
 13 14  1  0
 14  7  1  0
 15 13  1  0
 16 15  2  0
 17 15  1  0
 18 25  1  0
 18 17  1  0
 18 19  1  6
 20 19  1  0
 21 20  2  0
 22 23  1  0
 22 21  1  0
 23 24  2  0
 24 20  1  0
 25 27  1  0
 26 25  2  0
M  END
$$$$
