MNH.pdb
     RDKit          3D

 27 27  0  0  1  0  0  0  0  0999 V2000
    8.5870  -11.3083   20.5304 C   0  0  0  0  0  0  0  0  0  0  0  0
    8.3634  -12.3793   19.0944 S   0  0  0  0  0  0  0  0  0  0  0  0
    8.6770  -14.1177   19.5885 C   0  0  0  0  0  0  0  0  0  0  0  0
    8.4027  -14.9537   18.3775 C   0  0  0  0  0  0  0  0  0  0  0  0
    8.6582  -16.4290   18.5604 C   0  0  2  0  0  0  0  0  0  0  0  0
    8.3285  -17.0433   17.2784 N   0  0  0  0  0  0  0  0  0  0  0  0
    7.8108  -16.9346   19.6441 C   0  0  0  0  0  0  0  0  0  0  0  0
    6.7586  -17.5721   19.3937 O   0  0  0  0  0  0  0  0  0  0  0  0
    5.7435  -19.6639   23.3857 N   0  0  0  0  0  0  0  0  0  0  0  0
    7.0085  -19.8395   22.8302 C   0  0  0  0  0  0  0  0  0  0  0  0
    7.6828  -20.8468   23.2359 O   0  0  0  0  0  0  0  0  0  0  0  0
    7.6623  -18.9955   21.8252 C   0  0  0  0  0  0  0  0  0  0  0  0
    7.5061  -17.5289   22.0491 C   0  0  2  0  0  0  0  0  0  0  0  0
    8.1303  -16.7328   21.0359 N   0  0  0  0  0  0  0  0  0  0  0  0
    7.9808  -17.1777   23.4184 C   0  0  0  0  0  0  0  0  0  0  0  0
    7.4634  -17.8030   24.3777 O   0  0  0  0  0  0  0  0  0  0  0  0
    8.9664  -16.1911   23.6565 N   0  0  0  0  0  0  0  0  0  0  0  0
    9.3209  -15.7477   25.0312 C   0  0  1  0  0  0  0  0  0  0  0  0
    8.0972  -15.6081   25.8533 C   0  0  0  0  0  0  0  0  0  0  0  0
    7.4148  -14.3199   25.8679 C   0  0  0  0  0  0  0  0  0  0  0  0
    7.6219  -13.1516   25.2142 C   0  0  0  0  0  0  0  0  0  0  0  0
    6.6267  -12.3105   25.5738 N   0  0  0  0  0  0  0  0  0  0  0  0
    5.8180  -12.9485   26.4338 C   0  0  0  0  0  0  0  0  0  0  0  0
    6.2724  -14.1716   26.6306 N   0  0  0  0  0  0  0  0  0  0  0  0
   10.2170  -16.8038   25.5898 C   0  0  0  0  0  0  0  0  0  0  0  0
   10.3975  -17.8722   25.0219 O   0  0  0  0  0  0  0  0  0  0  0  0
   10.9029  -16.6185   26.8074 O   0  0  0  0  0  0  0  0  0  0  0  0
  2  1  1  0
  3  2  1  0
  4  3  1  0
  4  5  1  0
  5  6  1  6
  7  5  1  0
  7  8  2  0
 10 12  1  0
 10  9  1  0
 11 10  2  0
 13 12  1  6
 13 14  1  0
 14  7  1  0
 15 13  1  0
 16 15  2  0
 17 15  1  0
 18 25  1  0
 18 17  1  0
 18 19  1  1
 20 19  1  0
 21 20  2  0
 22 23  1  0
 22 21  1  0
 23 24  2  0
 24 20  1  0
 25 27  1  0
 26 25  2  0
M  END
$$$$
