MNH.pdb
     RDKit          3D

 27 27  0  0  1  0  0  0  0  0999 V2000
    8.2392  -11.2065   19.0675 C   0  0  0  0  0  0  0  0  0  0  0  0
    8.6076  -12.7346   19.9555 S   0  0  0  0  0  0  0  0  0  0  0  0
    7.1909  -13.8864   19.7799 C   0  0  0  0  0  0  0  0  0  0  0  0
    7.4952  -15.0617   20.6555 C   0  0  0  0  0  0  0  0  0  0  0  0
    8.8077  -15.7437   20.3596 C   0  0  2  0  0  0  0  0  0  0  0  0
    8.5986  -16.4645   19.1081 N   0  0  0  0  0  0  0  0  0  0  0  0
    9.1410  -16.6482   21.4636 C   0  0  0  0  0  0  0  0  0  0  0  0
    8.2867  -16.9404   22.3360 O   0  0  0  0  0  0  0  0  0  0  0  0
   11.7506  -21.4089   23.1677 N   0  0  0  0  0  0  0  0  0  0  0  0
   12.1397  -20.0879   23.3756 C   0  0  0  0  0  0  0  0  0  0  0  0
   12.7138  -19.8228   24.4865 O   0  0  0  0  0  0  0  0  0  0  0  0
   11.9657  -18.9561   22.4600 C   0  0  0  0  0  0  0  0  0  0  0  0
   10.7032  -18.1861   22.6571 C   0  0  2  0  0  0  0  0  0  0  0  0
   10.4460  -17.2445   21.6096 N   0  0  0  0  0  0  0  0  0  0  0  0
   10.7113  -17.5469   24.0043 C   0  0  0  0  0  0  0  0  0  0  0  0
   11.4446  -16.5369   24.1503 O   0  0  0  0  0  0  0  0  0  0  0  0
    9.9398  -18.0327   25.0861 N   0  0  0  0  0  0  0  0  0  0  0  0
   10.0058  -17.4185   26.4389 C   0  0  1  0  0  0  0  0  0  0  0  0
    8.6706  -16.9169   26.8368 C   0  0  0  0  0  0  0  0  0  0  0  0
    8.1343  -15.7501   26.1467 C   0  0  0  0  0  0  0  0  0  0  0  0
    8.6952  -14.6112   25.6739 C   0  0  0  0  0  0  0  0  0  0  0  0
    7.7174  -13.9095   25.0587 N   0  0  0  0  0  0  0  0  0  0  0  0
    6.5724  -14.6034   25.1486 C   0  0  0  0  0  0  0  0  0  0  0  0
    6.7960  -15.7263   25.8044 N   0  0  0  0  0  0  0  0  0  0  0  0
   10.4631  -18.4987   27.3633 C   0  0  0  0  0  0  0  0  0  0  0  0
   10.6420  -19.6480   26.9842 O   0  0  0  0  0  0  0  0  0  0  0  0
   10.7125  -18.2436   28.7271 O   0  0  0  0  0  0  0  0  0  0  0  0
  2  1  1  0
  3  2  1  0
  4  3  1  0
  4  5  1  0
  5  6  1  6
  7  5  1  0
  7  8  2  0
 10 12  1  0
 10  9  1  0
 11 10  2  0
 13 12  1  6
 13 14  1  0
 14  7  1  0
 15 13  1  0
 16 15  2  0
 17 15  1  0
 18 25  1  0
 18 17  1  0
 18 19  1  1
 20 19  1  0
 21 20  2  0
 22 23  1  0
 22 21  1  0
 23 24  2  0
 24 20  1  0
 25 27  1  0
 26 25  2  0
M  END
$$$$
