MNH.pdb
     RDKit          3D

 27 27  0  0  1  0  0  0  0  0999 V2000
    9.0420  -12.3527   19.0571 C   0  0  0  0  0  0  0  0  0  0  0  0
    7.5440  -12.9127   19.8947 S   0  0  0  0  0  0  0  0  0  0  0  0
    6.9707  -14.4727   19.1187 C   0  0  0  0  0  0  0  0  0  0  0  0
    7.9207  -15.5384   19.5686 C   0  0  0  0  0  0  0  0  0  0  0  0
    7.4572  -16.3295   20.7665 C   0  0  2  0  0  0  0  0  0  0  0  0
    6.9293  -15.3434   21.7039 N   0  0  0  0  0  0  0  0  0  0  0  0
    8.5937  -17.0652   21.3277 C   0  0  0  0  0  0  0  0  0  0  0  0
    9.1650  -17.9676   20.6677 O   0  0  0  0  0  0  0  0  0  0  0  0
   13.4279  -17.2190   23.1638 N   0  0  0  0  0  0  0  0  0  0  0  0
   12.8234  -16.3533   22.2555 C   0  0  0  0  0  0  0  0  0  0  0  0
   13.5999  -15.6615   21.5124 O   0  0  0  0  0  0  0  0  0  0  0  0
   11.3871  -16.1418   22.0511 C   0  0  0  0  0  0  0  0  0  0  0  0
   10.5067  -16.9671   22.9282 C   0  0  2  0  0  0  0  0  0  0  0  0
    9.1127  -16.8005   22.6471 N   0  0  0  0  0  0  0  0  0  0  0  0
   10.8323  -16.7000   24.3586 C   0  0  0  0  0  0  0  0  0  0  0  0
   11.2956  -15.5648   24.6341 O   0  0  0  0  0  0  0  0  0  0  0  0
   10.6389  -17.6603   25.3793 N   0  0  0  0  0  0  0  0  0  0  0  0
    9.9464  -17.3276   26.6528 C   0  0  1  0  0  0  0  0  0  0  0  0
    8.4920  -17.1784   26.4184 C   0  0  0  0  0  0  0  0  0  0  0  0
    7.9862  -15.8744   26.0070 C   0  0  0  0  0  0  0  0  0  0  0  0
    8.5469  -14.6439   25.9258 C   0  0  0  0  0  0  0  0  0  0  0  0
    7.6142  -13.8129   25.4095 N   0  0  0  0  0  0  0  0  0  0  0  0
    6.4970  -14.5180   25.1743 C   0  0  0  0  0  0  0  0  0  0  0  0
    6.6943  -15.7740   25.5276 N   0  0  0  0  0  0  0  0  0  0  0  0
   10.2195  -18.4639   27.5827 C   0  0  0  0  0  0  0  0  0  0  0  0
   10.6419  -19.5419   27.1877 O   0  0  0  0  0  0  0  0  0  0  0  0
   10.0019  -18.3475   28.9707 O   0  0  0  0  0  0  0  0  0  0  0  0
  2  1  1  0
  3  2  1  0
  4  3  1  0
  4  5  1  0
  5  6  1  1
  7  5  1  0
  7  8  2  0
 10 12  1  0
 10  9  1  0
 11 10  2  0
 13 12  1  6
 13 14  1  0
 14  7  1  0
 15 13  1  0
 16 15  2  0
 17 15  1  0
 18 25  1  0
 18 17  1  0
 18 19  1  6
 20 19  1  0
 21 20  2  0
 22 23  1  0
 22 21  1  0
 23 24  2  0
 24 20  1  0
 25 27  1  0
 26 25  2  0
M  END
$$$$
