MNH.pdb
     RDKit          3D

 27 27  0  0  1  0  0  0  0  0999 V2000
    7.6766  -12.0443   24.7576 C   0  0  0  0  0  0  0  0  0  0  0  0
    7.6561  -12.3785   26.5316 S   0  0  0  0  0  0  0  0  0  0  0  0
    6.8908  -14.0198   26.8237 C   0  0  0  0  0  0  0  0  0  0  0  0
    7.7453  -15.0150   26.1024 C   0  0  0  0  0  0  0  0  0  0  0  0
    7.2324  -16.4329   26.1456 C   0  0  2  0  0  0  0  0  0  0  0  0
    7.0879  -16.7518   27.5623 N   0  0  0  0  0  0  0  0  0  0  0  0
    8.1961  -17.3149   25.4812 C   0  0  0  0  0  0  0  0  0  0  0  0
    9.0886  -17.9041   26.1390 O   0  0  0  0  0  0  0  0  0  0  0  0
    6.6004  -20.3572   21.6423 N   0  0  0  0  0  0  0  0  0  0  0  0
    7.0362  -19.9002   22.8837 C   0  0  0  0  0  0  0  0  0  0  0  0
    6.1452  -19.4351   23.6734 O   0  0  0  0  0  0  0  0  0  0  0  0
    8.4106  -19.8907   23.3942 C   0  0  0  0  0  0  0  0  0  0  0  0
    9.0344  -18.5378   23.4732 C   0  0  2  0  0  0  0  0  0  0  0  0
    8.1760  -17.5529   24.0589 N   0  0  0  0  0  0  0  0  0  0  0  0
    9.5245  -18.1326   22.1245 C   0  0  0  0  0  0  0  0  0  0  0  0
   10.1666  -18.9923   21.4705 O   0  0  0  0  0  0  0  0  0  0  0  0
    9.2924  -16.8473   21.5807 N   0  0  0  0  0  0  0  0  0  0  0  0
   10.4077  -15.9426   21.1938 C   0  0  1  0  0  0  0  0  0  0  0  0
    9.9632  -14.5313   21.2524 C   0  0  0  0  0  0  0  0  0  0  0  0
    8.8822  -14.1077   20.3708 C   0  0  0  0  0  0  0  0  0  0  0  0
    8.1838  -14.7309   19.3915 C   0  0  0  0  0  0  0  0  0  0  0  0
    7.2440  -13.8624   18.9560 N   0  0  0  0  0  0  0  0  0  0  0  0
    7.3587  -12.7228   19.6552 C   0  0  0  0  0  0  0  0  0  0  0  0
    8.3460  -12.8434   20.5223 N   0  0  0  0  0  0  0  0  0  0  0  0
   11.5051  -16.1938   22.1751 C   0  0  0  0  0  0  0  0  0  0  0  0
   11.3395  -16.0777   23.3816 O   0  0  0  0  0  0  0  0  0  0  0  0
   12.7943  -16.5796   21.7547 O   0  0  0  0  0  0  0  0  0  0  0  0
  2  1  1  0
  3  2  1  0
  4  3  1  0
  4  5  1  0
  5  6  1  1
  7  5  1  0
  7  8  2  0
 10 12  1  0
 10  9  1  0
 11 10  2  0
 13 12  1  6
 13 14  1  0
 14  7  1  0
 15 13  1  0
 16 15  2  0
 17 15  1  0
 18 25  1  0
 18 17  1  0
 18 19  1  1
 20 19  1  0
 21 20  2  0
 22 23  1  0
 22 21  1  0
 23 24  2  0
 24 20  1  0
 25 27  1  0
 26 25  2  0
M  END
$$$$
