MNH.pdb
     RDKit          3D

 27 27  0  0  1  0  0  0  0  0999 V2000
    6.3524  -11.6578   19.3989 C   0  0  0  0  0  0  0  0  0  0  0  0
    7.9251  -12.3984   19.8865 S   0  0  0  0  0  0  0  0  0  0  0  0
    8.5824  -13.3852   18.4870 C   0  0  0  0  0  0  0  0  0  0  0  0
    9.9141  -13.9056   18.9301 C   0  0  0  0  0  0  0  0  0  0  0  0
   10.6694  -14.6787   17.8778 C   0  0  2  0  0  0  0  0  0  0  0  0
    9.7109  -15.6357   17.3346 N   0  0  0  0  0  0  0  0  0  0  0  0
   11.8167  -15.3456   18.4997 C   0  0  0  0  0  0  0  0  0  0  0  0
   11.7601  -16.5584   18.8193 O   0  0  0  0  0  0  0  0  0  0  0  0
   16.1870  -13.5027   17.1860 N   0  0  0  0  0  0  0  0  0  0  0  0
   15.9469  -14.6226   17.9784 C   0  0  0  0  0  0  0  0  0  0  0  0
   16.2045  -15.7626   17.4607 O   0  0  0  0  0  0  0  0  0  0  0  0
   15.4285  -14.6459   19.3496 C   0  0  0  0  0  0  0  0  0  0  0  0
   14.1028  -15.3131   19.5013 C   0  0  2  0  0  0  0  0  0  0  0  0
   13.0552  -14.6600   18.7760 N   0  0  0  0  0  0  0  0  0  0  0  0
   13.7807  -15.4641   20.9493 C   0  0  0  0  0  0  0  0  0  0  0  0
   13.6227  -14.4071   21.6103 O   0  0  0  0  0  0  0  0  0  0  0  0
   13.6525  -16.7256   21.5768 N   0  0  0  0  0  0  0  0  0  0  0  0
   12.8213  -16.9185   22.7949 C   0  0  1  0  0  0  0  0  0  0  0  0
   11.4673  -17.3862   22.4194 C   0  0  0  0  0  0  0  0  0  0  0  0
   10.3738  -16.4221   22.4273 C   0  0  0  0  0  0  0  0  0  0  0  0
   10.3080  -15.0942   22.6871 C   0  0  0  0  0  0  0  0  0  0  0  0
    9.0303  -14.7079   22.4735 N   0  0  0  0  0  0  0  0  0  0  0  0
    8.3194  -15.7784   22.0869 C   0  0  0  0  0  0  0  0  0  0  0  0
    9.1102  -16.8340   22.0497 N   0  0  0  0  0  0  0  0  0  0  0  0
   13.5263  -17.9443   23.6202 C   0  0  0  0  0  0  0  0  0  0  0  0
   13.1256  -18.2776   24.7270 O   0  0  0  0  0  0  0  0  0  0  0  0
   14.6961  -18.5823   23.1598 O   0  0  0  0  0  0  0  0  0  0  0  0
  2  1  1  0
  3  2  1  0
  4  3  1  0
  4  5  1  0
  5  6  1  1
  7  5  1  0
  7  8  2  0
 10 12  1  0
 10  9  1  0
 11 10  2  0
 13 12  1  1
 13 14  1  0
 14  7  1  0
 15 13  1  0
 16 15  2  0
 17 15  1  0
 18 25  1  0
 18 17  1  0
 18 19  1  6
 20 19  1  0
 21 20  2  0
 22 23  1  0
 22 21  1  0
 23 24  2  0
 24 20  1  0
 25 27  1  0
 26 25  2  0
M  END
$$$$
