MNH.pdb
     RDKit          3D

 27 27  0  0  1  0  0  0  0  0999 V2000
    8.1303  -14.9697   12.7753 C   0  0  0  0  0  0  0  0  0  0  0  0
    8.3871  -14.6200   14.5277 S   0  0  0  0  0  0  0  0  0  0  0  0
    9.9130  -15.4680   15.0909 C   0  0  0  0  0  0  0  0  0  0  0  0
   10.0630  -15.1400   16.5436 C   0  0  0  0  0  0  0  0  0  0  0  0
    9.8398  -16.3033   17.4776 C   0  0  2  0  0  0  0  0  0  0  0  0
    8.4771  -16.7559   17.2172 N   0  0  0  0  0  0  0  0  0  0  0  0
   10.0119  -15.8511   18.8610 C   0  0  0  0  0  0  0  0  0  0  0  0
   11.1088  -15.3824   19.2528 O   0  0  0  0  0  0  0  0  0  0  0  0
    6.1509  -13.4826   21.0475 N   0  0  0  0  0  0  0  0  0  0  0  0
    7.4718  -13.7857   21.3685 C   0  0  0  0  0  0  0  0  0  0  0  0
    8.3384  -12.8656   21.1777 O   0  0  0  0  0  0  0  0  0  0  0  0
    7.9882  -15.0488   21.9047 C   0  0  0  0  0  0  0  0  0  0  0  0
    9.1959  -15.5737   21.2036 C   0  0  2  0  0  0  0  0  0  0  0  0
    8.9506  -15.9170   19.8353 N   0  0  0  0  0  0  0  0  0  0  0  0
    9.7708  -16.7104   21.9787 C   0  0  0  0  0  0  0  0  0  0  0  0
    9.0380  -17.7188   22.1378 O   0  0  0  0  0  0  0  0  0  0  0  0
   11.0770  -16.6831   22.5214 N   0  0  0  0  0  0  0  0  0  0  0  0
   11.6098  -17.7985   23.3483 C   0  0  1  0  0  0  0  0  0  0  0  0
   13.0897  -17.7539   23.3721 C   0  0  0  0  0  0  0  0  0  0  0  0
   13.7993  -18.7202   24.2015 C   0  0  0  0  0  0  0  0  0  0  0  0
   14.1879  -20.0033   24.0069 C   0  0  0  0  0  0  0  0  0  0  0  0
   14.8768  -20.3834   25.1061 N   0  0  0  0  0  0  0  0  0  0  0  0
   14.9145  -19.3525   25.9643 C   0  0  0  0  0  0  0  0  0  0  0  0
   14.2680  -18.3283   25.4407 N   0  0  0  0  0  0  0  0  0  0  0  0
   11.0516  -17.6020   24.7195 C   0  0  0  0  0  0  0  0  0  0  0  0
   10.5753  -16.5352   25.0822 O   0  0  0  0  0  0  0  0  0  0  0  0
   11.0467  -18.6445   25.6685 O   0  0  0  0  0  0  0  0  0  0  0  0
  2  1  1  0
  3  2  1  0
  4  3  1  0
  4  5  1  0
  5  6  1  1
  7  5  1  0
  7  8  2  0
 10 12  1  0
 10  9  1  0
 11 10  2  0
 13 12  1  1
 13 14  1  0
 14  7  1  0
 15 13  1  0
 16 15  2  0
 17 15  1  0
 18 25  1  0
 18 17  1  0
 18 19  1  1
 20 19  1  0
 21 20  2  0
 22 23  1  0
 22 21  1  0
 23 24  2  0
 24 20  1  0
 25 27  1  0
 26 25  2  0
M  END
$$$$
