MNH.pdb
     RDKit          3D

 27 27  0  0  1  0  0  0  0  0999 V2000
    7.2001  -12.0203   17.0697 C   0  0  0  0  0  0  0  0  0  0  0  0
    6.8392  -12.9679   18.5633 S   0  0  0  0  0  0  0  0  0  0  0  0
    8.3196  -13.9484   19.0235 C   0  0  0  0  0  0  0  0  0  0  0  0
    7.9913  -14.6195   20.3206 C   0  0  0  0  0  0  0  0  0  0  0  0
    9.0731  -15.5272   20.8509 C   0  0  2  0  0  0  0  0  0  0  0  0
    9.3412  -16.4809   19.7794 N   0  0  0  0  0  0  0  0  0  0  0  0
    8.5936  -16.1900   22.0669 C   0  0  0  0  0  0  0  0  0  0  0  0
    8.1357  -15.5214   23.0259 O   0  0  0  0  0  0  0  0  0  0  0  0
    6.3760  -20.2785   21.7538 N   0  0  0  0  0  0  0  0  0  0  0  0
    7.6978  -20.2921   22.1923 C   0  0  0  0  0  0  0  0  0  0  0  0
    8.5509  -20.8723   21.4376 O   0  0  0  0  0  0  0  0  0  0  0  0
    8.2290  -19.7130   23.4301 C   0  0  0  0  0  0  0  0  0  0  0  0
    8.2258  -18.2217   23.4694 C   0  0  2  0  0  0  0  0  0  0  0  0
    8.6193  -17.6227   22.2299 N   0  0  0  0  0  0  0  0  0  0  0  0
    9.0545  -17.7490   24.6155 C   0  0  0  0  0  0  0  0  0  0  0  0
   10.3010  -17.7546   24.4567 O   0  0  0  0  0  0  0  0  0  0  0  0
    8.4912  -17.3089   25.8364 N   0  0  0  0  0  0  0  0  0  0  0  0
    9.3317  -16.8054   26.9553 C   0  0  1  0  0  0  0  0  0  0  0  0
    8.6548  -15.6765   27.6336 C   0  0  0  0  0  0  0  0  0  0  0  0
    8.2335  -14.5361   26.8290 C   0  0  0  0  0  0  0  0  0  0  0  0
    8.7525  -13.9287   25.7350 C   0  0  0  0  0  0  0  0  0  0  0  0
    7.8916  -12.9508   25.3746 N   0  0  0  0  0  0  0  0  0  0  0  0
    6.8579  -12.9549   26.2302 C   0  0  0  0  0  0  0  0  0  0  0  0
    7.0388  -13.9082   27.1245 N   0  0  0  0  0  0  0  0  0  0  0  0
    9.5099  -17.9558   27.8908 C   0  0  0  0  0  0  0  0  0  0  0  0
    8.9414  -19.0259   27.7230 O   0  0  0  0  0  0  0  0  0  0  0  0
   10.3482  -17.8629   29.0204 O   0  0  0  0  0  0  0  0  0  0  0  0
  2  1  1  0
  3  2  1  0
  4  3  1  0
  4  5  1  0
  5  6  1  6
  7  5  1  0
  7  8  2  0
 10 12  1  0
 10  9  1  0
 11 10  2  0
 13 12  1  6
 13 14  1  0
 14  7  1  0
 15 13  1  0
 16 15  2  0
 17 15  1  0
 18 25  1  0
 18 17  1  0
 18 19  1  1
 20 19  1  0
 21 20  2  0
 22 23  1  0
 22 21  1  0
 23 24  2  0
 24 20  1  0
 25 27  1  0
 26 25  2  0
M  END
$$$$
