MNH.pdb
     RDKit          3D

 27 27  0  0  1  0  0  0  0  0999 V2000
    7.5258  -12.1844   20.4388 C   0  0  0  0  0  0  0  0  0  0  0  0
    8.5006  -12.6244   18.9843 S   0  0  0  0  0  0  0  0  0  0  0  0
    7.8912  -14.2194   18.3142 C   0  0  0  0  0  0  0  0  0  0  0  0
    8.0119  -15.2146   19.4258 C   0  0  0  0  0  0  0  0  0  0  0  0
    9.4177  -15.4279   19.9294 C   0  0  2  0  0  0  0  0  0  0  0  0
   10.1741  -15.9127   18.7794 N   0  0  0  0  0  0  0  0  0  0  0  0
    9.3957  -16.4047   21.0218 C   0  0  0  0  0  0  0  0  0  0  0  0
    8.6225  -16.2583   22.0001 O   0  0  0  0  0  0  0  0  0  0  0  0
   12.2108  -21.2048   23.6465 N   0  0  0  0  0  0  0  0  0  0  0  0
   11.0838  -20.6048   23.0899 C   0  0  0  0  0  0  0  0  0  0  0  0
    9.9588  -20.8713   23.6350 O   0  0  0  0  0  0  0  0  0  0  0  0
   11.0379  -19.6949   21.9412 C   0  0  0  0  0  0  0  0  0  0  0  0
   10.2775  -18.4334   22.1781 C   0  0  2  0  0  0  0  0  0  0  0  0
   10.2457  -17.5697   21.0366 N   0  0  0  0  0  0  0  0  0  0  0  0
   10.8082  -17.7489   23.3920 C   0  0  0  0  0  0  0  0  0  0  0  0
   11.9203  -17.1744   23.2806 O   0  0  0  0  0  0  0  0  0  0  0  0
   10.1143  -17.7306   24.6246 N   0  0  0  0  0  0  0  0  0  0  0  0
   10.6124  -16.9637   25.7975 C   0  0  1  0  0  0  0  0  0  0  0  0
    9.5842  -15.9988   26.2499 C   0  0  0  0  0  0  0  0  0  0  0  0
    9.8150  -15.2710   27.4918 C   0  0  0  0  0  0  0  0  0  0  0  0
   10.8232  -15.2738   28.3966 C   0  0  0  0  0  0  0  0  0  0  0  0
   10.5289  -14.3375   29.3260 N   0  0  0  0  0  0  0  0  0  0  0  0
    9.3598  -13.7650   29.0003 C   0  0  0  0  0  0  0  0  0  0  0  0
    8.9031  -14.3124   27.8899 N   0  0  0  0  0  0  0  0  0  0  0  0
   10.8978  -17.9719   26.8617 C   0  0  0  0  0  0  0  0  0  0  0  0
   10.3469  -19.0638   26.8892 O   0  0  0  0  0  0  0  0  0  0  0  0
   11.8227  -17.7114   27.8933 O   0  0  0  0  0  0  0  0  0  0  0  0
  2  1  1  0
  3  2  1  0
  4  3  1  0
  4  5  1  0
  5  6  1  6
  7  5  1  0
  7  8  2  0
 10 12  1  0
 10  9  1  0
 11 10  2  0
 13 12  1  6
 13 14  1  0
 14  7  1  0
 15 13  1  0
 16 15  2  0
 17 15  1  0
 18 25  1  0
 18 17  1  0
 18 19  1  1
 20 19  1  0
 21 20  2  0
 22 23  1  0
 22 21  1  0
 23 24  2  0
 24 20  1  0
 25 27  1  0
 26 25  2  0
M  END
$$$$
