MNH.pdb
     RDKit          3D

 27 27  0  0  1  0  0  0  0  0999 V2000
    8.8679  -11.1744   19.1198 C   0  0  0  0  0  0  0  0  0  0  0  0
    7.6117  -12.3569   19.6519 S   0  0  0  0  0  0  0  0  0  0  0  0
    7.8686  -13.9431   18.7673 C   0  0  0  0  0  0  0  0  0  0  0  0
    8.1267  -14.9739   19.8216 C   0  0  0  0  0  0  0  0  0  0  0  0
    8.7862  -16.2347   19.3207 C   0  0  2  0  0  0  0  0  0  0  0  0
    7.7666  -16.9216   18.5345 N   0  0  0  0  0  0  0  0  0  0  0  0
    9.2271  -17.0361   20.4658 C   0  0  0  0  0  0  0  0  0  0  0  0
    8.4269  -17.7947   21.0662 O   0  0  0  0  0  0  0  0  0  0  0  0
   13.3387  -18.9809   19.6079 N   0  0  0  0  0  0  0  0  0  0  0  0
   12.5540  -19.2438   20.7281 C   0  0  0  0  0  0  0  0  0  0  0  0
   11.9276  -20.3579   20.7460 O   0  0  0  0  0  0  0  0  0  0  0  0
   12.3614  -18.3833   21.8995 C   0  0  0  0  0  0  0  0  0  0  0  0
   10.9804  -17.8395   22.0503 C   0  0  2  0  0  0  0  0  0  0  0  0
   10.5812  -17.0005   20.9610 N   0  0  0  0  0  0  0  0  0  0  0  0
   10.8528  -17.1551   23.3690 C   0  0  0  0  0  0  0  0  0  0  0  0
   11.4713  -16.0702   23.5091 O   0  0  0  0  0  0  0  0  0  0  0  0
   10.0786  -17.6790   24.4309 N   0  0  0  0  0  0  0  0  0  0  0  0
   10.0894  -17.0709   25.7881 C   0  0  1  0  0  0  0  0  0  0  0  0
    8.7367  -16.5803   26.1378 C   0  0  0  0  0  0  0  0  0  0  0  0
    8.2561  -15.3595   25.5023 C   0  0  0  0  0  0  0  0  0  0  0  0
    8.7835  -14.5259   24.5737 C   0  0  0  0  0  0  0  0  0  0  0  0
    7.8530  -13.5816   24.3097 N   0  0  0  0  0  0  0  0  0  0  0  0
    6.7689  -13.8284   25.0611 C   0  0  0  0  0  0  0  0  0  0  0  0
    6.9854  -14.9030   25.7954 N   0  0  0  0  0  0  0  0  0  0  0  0
   10.5193  -18.1523   26.7240 C   0  0  0  0  0  0  0  0  0  0  0  0
   10.6352  -17.9645   27.9273 O   0  0  0  0  0  0  0  0  0  0  0  0
   10.8143  -19.4512   26.2621 O   0  0  0  0  0  0  0  0  0  0  0  0
  2  1  1  0
  3  2  1  0
  4  3  1  0
  4  5  1  0
  5  6  1  1
  7  5  1  0
  7  8  2  0
 10 12  1  0
 10  9  1  0
 11 10  2  0
 13 12  1  6
 13 14  1  0
 14  7  1  0
 15 13  1  0
 16 15  2  0
 17 15  1  0
 18 25  1  0
 18 17  1  0
 18 19  1  1
 20 19  1  0
 21 20  2  0
 22 23  1  0
 22 21  1  0
 23 24  2  0
 24 20  1  0
 25 27  1  0
 26 25  2  0
M  END
$$$$
