MNH.pdb
     RDKit          3D

 27 27  0  0  1  0  0  0  0  0999 V2000
    8.6172  -11.5433   20.6894 C   0  0  0  0  0  0  0  0  0  0  0  0
    7.6575  -12.1394   19.2812 S   0  0  0  0  0  0  0  0  0  0  0  0
    8.5100  -13.5867   18.5443 C   0  0  0  0  0  0  0  0  0  0  0  0
    8.7611  -14.5425   19.6686 C   0  0  0  0  0  0  0  0  0  0  0  0
    9.4551  -15.8197   19.2654 C   0  0  2  0  0  0  0  0  0  0  0  0
    8.6081  -16.4152   18.2370 N   0  0  0  0  0  0  0  0  0  0  0  0
    9.5855  -16.6887   20.4384 C   0  0  0  0  0  0  0  0  0  0  0  0
    9.1746  -17.8747   20.4091 O   0  0  0  0  0  0  0  0  0  0  0  0
   13.7334  -18.5228   22.0996 N   0  0  0  0  0  0  0  0  0  0  0  0
   12.4766  -18.0661   21.7101 C   0  0  0  0  0  0  0  0  0  0  0  0
   12.4310  -17.3037   20.6851 O   0  0  0  0  0  0  0  0  0  0  0  0
   11.1884  -18.3610   22.3451 C   0  0  0  0  0  0  0  0  0  0  0  0
   10.4050  -17.1574   22.7490 C   0  0  2  0  0  0  0  0  0  0  0  0
   10.1825  -16.2403   21.6723 N   0  0  0  0  0  0  0  0  0  0  0  0
   11.0557  -16.5067   23.9224 C   0  0  0  0  0  0  0  0  0  0  0  0
   12.0678  -15.7986   23.6914 O   0  0  0  0  0  0  0  0  0  0  0  0
   10.5780  -16.6613   25.2450 N   0  0  0  0  0  0  0  0  0  0  0  0
    9.9026  -15.5541   25.9729 C   0  0  1  0  0  0  0  0  0  0  0  0
    8.7127  -15.0989   25.2183 C   0  0  0  0  0  0  0  0  0  0  0  0
    7.9096  -14.0177   25.7763 C   0  0  0  0  0  0  0  0  0  0  0  0
    8.1313  -13.1036   26.7511 C   0  0  0  0  0  0  0  0  0  0  0  0
    7.0482  -12.2960   26.7957 N   0  0  0  0  0  0  0  0  0  0  0  0
    6.1731  -12.7033   25.8635 C   0  0  0  0  0  0  0  0  0  0  0  0
    6.6703  -13.7476   25.2285 N   0  0  0  0  0  0  0  0  0  0  0  0
    9.5068  -16.1112   27.3009 C   0  0  0  0  0  0  0  0  0  0  0  0
    9.1494  -15.3962   28.2269 O   0  0  0  0  0  0  0  0  0  0  0  0
    9.5262  -17.4982   27.5525 O   0  0  0  0  0  0  0  0  0  0  0  0
  2  1  1  0
  3  2  1  0
  4  3  1  0
  4  5  1  0
  5  6  1  6
  7  5  1  0
  7  8  2  0
 10 12  1  0
 10  9  1  0
 11 10  2  0
 13 12  1  6
 13 14  1  0
 14  7  1  0
 15 13  1  0
 16 15  2  0
 17 15  1  0
 18 25  1  0
 18 17  1  0
 18 19  1  6
 20 19  1  0
 21 20  2  0
 22 23  1  0
 22 21  1  0
 23 24  2  0
 24 20  1  0
 25 27  1  0
 26 25  2  0
M  END
$$$$
