MNH.pdb
     RDKit          3D

 27 27  0  0  1  0  0  0  0  0999 V2000
    6.2631  -12.6185   19.7724 C   0  0  0  0  0  0  0  0  0  0  0  0
    8.0581  -12.8113   19.7653 S   0  0  0  0  0  0  0  0  0  0  0  0
    8.4796  -14.5204   20.2809 C   0  0  0  0  0  0  0  0  0  0  0  0
    9.9714  -14.5686   20.3930 C   0  0  0  0  0  0  0  0  0  0  0  0
   10.5315  -15.9203   20.7599 C   0  0  2  0  0  0  0  0  0  0  0  0
    9.9904  -16.8475   19.7713 N   0  0  0  0  0  0  0  0  0  0  0  0
   10.1102  -16.2637   22.1210 C   0  0  0  0  0  0  0  0  0  0  0  0
   10.4545  -15.5554   23.0988 O   0  0  0  0  0  0  0  0  0  0  0  0
    5.7033  -18.0968   23.9172 N   0  0  0  0  0  0  0  0  0  0  0  0
    6.7793  -18.7415   23.3120 C   0  0  0  0  0  0  0  0  0  0  0  0
    6.5937  -19.1885   22.1289 O   0  0  0  0  0  0  0  0  0  0  0  0
    8.1118  -18.9690   23.8795 C   0  0  0  0  0  0  0  0  0  0  0  0
    9.0421  -17.8083   23.7653 C   0  0  2  0  0  0  0  0  0  0  0  0
    9.2906  -17.4143   22.4114 N   0  0  0  0  0  0  0  0  0  0  0  0
   10.3002  -18.0993   24.5109 C   0  0  0  0  0  0  0  0  0  0  0  0
   11.3803  -17.9358   23.8897 O   0  0  0  0  0  0  0  0  0  0  0  0
   10.3082  -18.5399   25.8552 N   0  0  0  0  0  0  0  0  0  0  0  0
   10.7180  -17.6493   26.9735 C   0  0  1  0  0  0  0  0  0  0  0  0
    9.8890  -16.4222   26.9782 C   0  0  0  0  0  0  0  0  0  0  0  0
   10.0884  -15.4549   28.0504 C   0  0  0  0  0  0  0  0  0  0  0  0
   10.9319  -15.4022   29.1091 C   0  0  0  0  0  0  0  0  0  0  0  0
   10.7132  -14.2249   29.7363 N   0  0  0  0  0  0  0  0  0  0  0  0
    9.7523  -13.5610   29.0757 C   0  0  0  0  0  0  0  0  0  0  0  0
    9.3542  -14.2845   28.0465 N   0  0  0  0  0  0  0  0  0  0  0  0
   10.5097  -18.4343   28.2269 C   0  0  0  0  0  0  0  0  0  0  0  0
   11.3387  -18.4578   29.1261 O   0  0  0  0  0  0  0  0  0  0  0  0
    9.3389  -19.1914   28.4350 O   0  0  0  0  0  0  0  0  0  0  0  0
  2  1  1  0
  3  2  1  0
  4  3  1  0
  4  5  1  0
  5  6  1  6
  7  5  1  0
  7  8  2  0
 10 12  1  0
 10  9  1  0
 11 10  2  0
 13 12  1  6
 13 14  1  0
 14  7  1  0
 15 13  1  0
 16 15  2  0
 17 15  1  0
 18 25  1  0
 18 17  1  0
 18 19  1  1
 20 19  1  0
 21 20  2  0
 22 23  1  0
 22 21  1  0
 23 24  2  0
 24 20  1  0
 25 27  1  0
 26 25  2  0
M  END
$$$$
