MLF.pdb
     RDKit          3D

 28 28  0  0  1  0  0  0  0  0999 V2000
    7.4430  -11.9637   18.2861 C   0  0  0  0  0  0  0  0  0  0  0  0
    7.2698  -13.5208   17.4422 S   0  0  0  0  0  0  0  0  0  0  0  0
    7.4304  -14.9618   18.4715 C   0  0  0  0  0  0  0  0  0  0  0  0
    8.3156  -14.8075   19.6599 C   0  0  0  0  0  0  0  0  0  0  0  0
    8.3675  -16.0458   20.4850 C   0  0  2  0  0  0  0  0  0  0  0  0
    7.0774  -16.7021   20.5988 N   0  0  0  0  0  0  0  0  0  0  0  0
    8.9184  -15.7650   21.8583 C   0  0  0  0  0  0  0  0  0  0  0  0
   10.1191  -15.4666   22.0471 O   0  0  0  0  0  0  0  0  0  0  0  0
    7.7478  -12.4772   24.8231 C   0  0  0  0  0  0  0  0  0  0  0  0
    6.8522  -13.6752   25.0028 C   0  0  2  0  0  0  0  0  0  0  0  0
    5.9892  -13.3710   26.2413 C   0  0  0  0  0  0  0  0  0  0  0  0
    7.5796  -14.9332   25.2976 C   0  0  0  0  0  0  0  0  0  0  0  0
    8.5573  -15.4323   24.3027 C   0  0  2  0  0  0  0  0  0  0  0  0
    8.0795  -15.8279   23.0282 N   0  0  0  0  0  0  0  0  0  0  0  0
    9.3580  -16.5214   24.9681 C   0  0  0  0  0  0  0  0  0  0  0  0
    9.0242  -17.7281   24.8583 O   0  0  0  0  0  0  0  0  0  0  0  0
   10.5087  -16.2222   25.7363 N   0  0  0  0  0  0  0  0  0  0  0  0
   11.4256  -17.2675   26.2189 C   0  0  1  0  0  0  0  0  0  0  0  0
   12.3762  -16.5580   27.1500 C   0  0  0  0  0  0  0  0  0  0  0  0
   11.6688  -15.8631   28.2517 C   0  0  0  0  0  0  0  0  0  0  0  0
   11.5845  -16.4123   29.5254 C   0  0  0  0  0  0  0  0  0  0  0  0
   10.9305  -15.7503   30.5439 C   0  0  0  0  0  0  0  0  0  0  0  0
   10.3311  -14.5239   30.3604 C   0  0  0  0  0  0  0  0  0  0  0  0
   10.4124  -13.9740   29.0946 C   0  0  0  0  0  0  0  0  0  0  0  0
   11.0639  -14.6291   28.0728 C   0  0  0  0  0  0  0  0  0  0  0  0
   10.6990  -18.2977   26.9882 C   0  0  0  0  0  0  0  0  0  0  0  0
    9.3363  -18.1135   27.1758 O   0  0  0  0  0  0  0  0  0  0  0  0
   11.2127  -19.3169   27.4809 O   0  0  0  0  0  0  0  0  0  0  0  0
  2  1  1  0
  3  4  1  0
  3  2  1  0
  5  4  1  0
  5  6  1  1
  7  8  2  0
  7  5  1  0
 10  9  1  1
 10 12  1  0
 11 10  1  0
 13 12  1  1
 13 14  1  0
 14  7  1  0
 15 13  1  0
 16 15  2  0
 17 15  1  0
 18 17  1  0
 18 19  1  1
 20 19  1  0
 20 21  2  0
 22 21  1  0
 23 22  2  0
 24 25  2  0
 24 23  1  0
 25 20  1  0
 26 27  1  0
 26 18  1  0
 28 26  2  0
M  END
$$$$
