MLF.pdb
     RDKit          3D

 28 28  0  0  1  0  0  0  0  0999 V2000
    7.5134  -18.9474   15.7774 C   0  0  0  0  0  0  0  0  0  0  0  0
    7.1651  -20.3652   16.7948 S   0  0  0  0  0  0  0  0  0  0  0  0
    7.2522  -20.0790   18.5477 C   0  0  0  0  0  0  0  0  0  0  0  0
    8.1187  -18.9436   18.9713 C   0  0  0  0  0  0  0  0  0  0  0  0
    8.1499  -18.7839   20.4513 C   0  0  2  0  0  0  0  0  0  0  0  0
    6.8248  -18.7634   21.0443 N   0  0  0  0  0  0  0  0  0  0  0  0
    8.9056  -17.5440   20.8516 C   0  0  0  0  0  0  0  0  0  0  0  0
   10.1273  -17.4036   20.6194 O   0  0  0  0  0  0  0  0  0  0  0  0
    8.4857  -13.5084   19.1603 C   0  0  0  0  0  0  0  0  0  0  0  0
    7.5652  -13.7608   20.3259 C   0  0  2  0  0  0  0  0  0  0  0  0
    6.7282  -12.4779   20.4840 C   0  0  0  0  0  0  0  0  0  0  0  0
    8.2674  -13.9648   21.6158 C   0  0  0  0  0  0  0  0  0  0  0  0
    8.9435  -15.2613   21.8534 C   0  0  2  0  0  0  0  0  0  0  0  0
    8.2494  -16.4531   21.5266 N   0  0  0  0  0  0  0  0  0  0  0  0
    9.4237  -15.2616   23.2815 C   0  0  0  0  0  0  0  0  0  0  0  0
   10.3140  -14.4614   23.6643 O   0  0  0  0  0  0  0  0  0  0  0  0
    8.8896  -16.1604   24.2358 N   0  0  0  0  0  0  0  0  0  0  0  0
    9.3722  -16.2102   25.6254 C   0  0  1  0  0  0  0  0  0  0  0  0
    8.1501  -15.9694   26.4754 C   0  0  0  0  0  0  0  0  0  0  0  0
    7.7363  -14.5461   26.4729 C   0  0  0  0  0  0  0  0  0  0  0  0
    8.5949  -13.5360   26.8894 C   0  0  0  0  0  0  0  0  0  0  0  0
    8.1995  -12.2144   26.8735 C   0  0  0  0  0  0  0  0  0  0  0  0
    6.9482  -11.8243   26.4500 C   0  0  0  0  0  0  0  0  0  0  0  0
    6.0907  -12.8261   26.0350 C   0  0  0  0  0  0  0  0  0  0  0  0
    6.4786  -14.1478   26.0481 C   0  0  0  0  0  0  0  0  0  0  0  0
    9.9136  -17.5448   25.9522 C   0  0  0  0  0  0  0  0  0  0  0  0
   10.4537  -17.7236   27.2181 O   0  0  0  0  0  0  0  0  0  0  0  0
    9.9235  -18.5205   25.1819 O   0  0  0  0  0  0  0  0  0  0  0  0
  2  1  1  0
  3  4  1  0
  3  2  1  0
  5  4  1  0
  5  6  1  6
  7  8  2  0
  7  5  1  0
 10  9  1  6
 10 12  1  0
 11 10  1  0
 13 12  1  1
 13 14  1  0
 14  7  1  0
 15 13  1  0
 16 15  2  0
 17 15  1  0
 18 17  1  0
 18 19  1  1
 20 19  1  0
 20 21  2  0
 22 21  1  0
 23 22  2  0
 24 25  2  0
 24 23  1  0
 25 20  1  0
 26 27  1  0
 26 18  1  0
 28 26  2  0
M  END
$$$$
