MLF.pdb
     RDKit          3D

 28 28  0  0  1  0  0  0  0  0999 V2000
    2.5995  -18.7035   21.4284 C   0  0  0  0  0  0  0  0  0  0  0  0
    4.0536  -17.9450   22.1189 S   0  0  0  0  0  0  0  0  0  0  0  0
    5.5995  -18.6150   21.5506 C   0  0  0  0  0  0  0  0  0  0  0  0
    6.8210  -17.9102   22.0310 C   0  0  0  0  0  0  0  0  0  0  0  0
    6.8530  -16.4858   21.5986 C   0  0  2  0  0  0  0  0  0  0  0  0
    7.0417  -16.3352   20.1669 N   0  0  0  0  0  0  0  0  0  0  0  0
    7.9160  -15.7145   22.3358 C   0  0  0  0  0  0  0  0  0  0  0  0
    9.0669  -15.5542   21.8710 O   0  0  0  0  0  0  0  0  0  0  0  0
    7.1286  -11.3544   24.2704 C   0  0  0  0  0  0  0  0  0  0  0  0
    6.9177  -12.5962   25.0967 C   0  0  2  0  0  0  0  0  0  0  0  0
    6.4442  -12.1052   26.4773 C   0  0  0  0  0  0  0  0  0  0  0  0
    8.1535  -13.3811   25.3321 C   0  0  0  0  0  0  0  0  0  0  0  0
    8.6147  -14.3057   24.2705 C   0  0  2  0  0  0  0  0  0  0  0  0
    7.6532  -15.1206   23.6220 N   0  0  0  0  0  0  0  0  0  0  0  0
    9.7476  -15.1170   24.8434 C   0  0  0  0  0  0  0  0  0  0  0  0
   10.7990  -14.5618   25.2507 O   0  0  0  0  0  0  0  0  0  0  0  0
    9.6652  -16.5268   24.9415 N   0  0  0  0  0  0  0  0  0  0  0  0
   10.6397  -17.3200   25.7078 C   0  0  1  0  0  0  0  0  0  0  0  0
    9.9444  -17.6524   27.0040 C   0  0  0  0  0  0  0  0  0  0  0  0
    9.9815  -16.5252   27.9660 C   0  0  0  0  0  0  0  0  0  0  0  0
    9.0623  -15.4849   27.9064 C   0  0  0  0  0  0  0  0  0  0  0  0
    9.1030  -14.4465   28.8138 C   0  0  0  0  0  0  0  0  0  0  0  0
   10.0441  -14.3810   29.8174 C   0  0  0  0  0  0  0  0  0  0  0  0
   10.9608  -15.4139   29.8802 C   0  0  0  0  0  0  0  0  0  0  0  0
   10.9261  -16.4541   28.9776 C   0  0  0  0  0  0  0  0  0  0  0  0
   10.9612  -18.5826   25.0125 C   0  0  0  0  0  0  0  0  0  0  0  0
   10.3017  -18.8415   23.8190 O   0  0  0  0  0  0  0  0  0  0  0  0
   11.7762  -19.4317   25.4127 O   0  0  0  0  0  0  0  0  0  0  0  0
  2  1  1  0
  3  4  1  0
  3  2  1  0
  5  4  1  0
  5  6  1  6
  7  8  2  0
  7  5  1  0
 10  9  1  6
 10 12  1  0
 11 10  1  0
 13 12  1  1
 13 14  1  0
 14  7  1  0
 15 13  1  0
 16 15  2  0
 17 15  1  0
 18 17  1  0
 18 19  1  1
 20 19  1  0
 20 21  2  0
 22 21  1  0
 23 22  2  0
 24 25  2  0
 24 23  1  0
 25 20  1  0
 26 27  1  0
 26 18  1  0
 28 26  2  0
M  END
$$$$
