MLF.pdb
     RDKit          3D

 28 28  0  0  1  0  0  0  0  0999 V2000
    8.6597  -11.3861   20.7735 C   0  0  0  0  0  0  0  0  0  0  0  0
    7.5601  -12.1802   19.6215 S   0  0  0  0  0  0  0  0  0  0  0  0
    7.5674  -13.9577   19.6703 C   0  0  0  0  0  0  0  0  0  0  0  0
    7.8207  -14.5630   21.0078 C   0  0  0  0  0  0  0  0  0  0  0  0
    7.9000  -16.0485   20.9450 C   0  0  2  0  0  0  0  0  0  0  0  0
    6.6712  -16.6592   20.4705 N   0  0  0  0  0  0  0  0  0  0  0  0
    8.2755  -16.6329   22.2814 C   0  0  0  0  0  0  0  0  0  0  0  0
    7.4260  -16.8626   23.1712 O   0  0  0  0  0  0  0  0  0  0  0  0
    9.8981  -20.6557   23.5830 C   0  0  0  0  0  0  0  0  0  0  0  0
   10.9628  -19.6991   23.1131 C   0  0  2  0  0  0  0  0  0  0  0  0
   12.2968  -20.4557   23.2526 C   0  0  0  0  0  0  0  0  0  0  0  0
   11.0851  -18.4772   23.9441 C   0  0  0  0  0  0  0  0  0  0  0  0
   10.0067  -17.4640   23.8714 C   0  0  2  0  0  0  0  0  0  0  0  0
    9.6432  -16.9569   22.5987 N   0  0  0  0  0  0  0  0  0  0  0  0
   10.3598  -16.3631   24.8375 C   0  0  0  0  0  0  0  0  0  0  0  0
   11.2444  -15.5157   24.5566 O   0  0  0  0  0  0  0  0  0  0  0  0
    9.7090  -16.2476   26.0892 N   0  0  0  0  0  0  0  0  0  0  0  0
   10.1786  -15.3277   27.1378 C   0  0  1  0  0  0  0  0  0  0  0  0
    8.9246  -14.7747   27.7669 C   0  0  0  0  0  0  0  0  0  0  0  0
    8.1779  -13.8872   26.8439 C   0  0  0  0  0  0  0  0  0  0  0  0
    8.6439  -13.6067   25.5652 C   0  0  0  0  0  0  0  0  0  0  0  0
    7.9341  -12.7859   24.7133 C   0  0  0  0  0  0  0  0  0  0  0  0
    6.7392  -12.2043   25.0754 C   0  0  0  0  0  0  0  0  0  0  0  0
    6.2721  -12.4805   26.3469 C   0  0  0  0  0  0  0  0  0  0  0  0
    6.9754  -13.2993   27.2029 C   0  0  0  0  0  0  0  0  0  0  0  0
   10.9428  -16.0499   28.1748 C   0  0  0  0  0  0  0  0  0  0  0  0
   11.0445  -17.4285   28.0507 O   0  0  0  0  0  0  0  0  0  0  0  0
   11.5019  -15.5196   29.1502 O   0  0  0  0  0  0  0  0  0  0  0  0
  2  1  1  0
  3  4  1  0
  3  2  1  0
  5  4  1  0
  5  6  1  1
  7  8  2  0
  7  5  1  0
 10  9  1  1
 10 12  1  0
 11 10  1  0
 13 12  1  6
 13 14  1  0
 14  7  1  0
 15 13  1  0
 16 15  2  0
 17 15  1  0
 18 17  1  0
 18 19  1  1
 20 19  1  0
 20 21  2  0
 22 21  1  0
 23 22  2  0
 24 25  2  0
 24 23  1  0
 25 20  1  0
 26 27  1  0
 26 18  1  0
 28 26  2  0
M  END
$$$$
