MLF.pdb
     RDKit          3D

 28 28  0  0  1  0  0  0  0  0999 V2000
    6.7694  -21.2928   25.4960 C   0  0  0  0  0  0  0  0  0  0  0  0
    5.2736  -21.0973   24.5521 S   0  0  0  0  0  0  0  0  0  0  0  0
    5.4678  -20.2756   22.9872 C   0  0  0  0  0  0  0  0  0  0  0  0
    6.6394  -19.3614   22.8822 C   0  0  0  0  0  0  0  0  0  0  0  0
    6.7134  -18.6951   21.5527 C   0  0  2  0  0  0  0  0  0  0  0  0
    6.8353  -19.6381   20.4554 N   0  0  0  0  0  0  0  0  0  0  0  0
    7.8464  -17.7041   21.5001 C   0  0  0  0  0  0  0  0  0  0  0  0
    9.0035  -18.0319   21.1541 O   0  0  0  0  0  0  0  0  0  0  0  0
    8.4098  -14.0250   19.1018 C   0  0  0  0  0  0  0  0  0  0  0  0
    7.7331  -13.7247   20.4139 C   0  0  2  0  0  0  0  0  0  0  0  0
    7.4875  -12.2045   20.4202 C   0  0  0  0  0  0  0  0  0  0  0  0
    8.5669  -14.0196   21.6040 C   0  0  0  0  0  0  0  0  0  0  0  0
    8.7408  -15.4336   22.0104 C   0  0  2  0  0  0  0  0  0  0  0  0
    7.6470  -16.3205   21.8494 N   0  0  0  0  0  0  0  0  0  0  0  0
    9.2634  -15.4330   23.4235 C   0  0  0  0  0  0  0  0  0  0  0  0
   10.3381  -14.8502   23.7150 O   0  0  0  0  0  0  0  0  0  0  0  0
    8.5635  -16.0869   24.4657 N   0  0  0  0  0  0  0  0  0  0  0  0
    9.0605  -16.1134   25.8508 C   0  0  1  0  0  0  0  0  0  0  0  0
    7.8749  -15.7340   26.7019 C   0  0  0  0  0  0  0  0  0  0  0  0
    7.5265  -14.2992   26.5715 C   0  0  0  0  0  0  0  0  0  0  0  0
    6.2572  -13.8891   26.1821 C   0  0  0  0  0  0  0  0  0  0  0  0
    5.9441  -12.5499   26.0734 C   0  0  0  0  0  0  0  0  0  0  0  0
    6.8586  -11.5551   26.3404 C   0  0  0  0  0  0  0  0  0  0  0  0
    8.1228  -11.9586   26.7278 C   0  0  0  0  0  0  0  0  0  0  0  0
    8.4425  -13.2940   26.8386 C   0  0  0  0  0  0  0  0  0  0  0  0
    9.4951  -17.4720   26.2333 C   0  0  0  0  0  0  0  0  0  0  0  0
   10.1098  -17.6231   27.4685 O   0  0  0  0  0  0  0  0  0  0  0  0
    9.3535  -18.4910   25.5354 O   0  0  0  0  0  0  0  0  0  0  0  0
  2  1  1  0
  3  4  1  0
  3  2  1  0
  5  4  1  0
  5  6  1  6
  7  8  2  0
  7  5  1  0
 10  9  1  6
 10 12  1  0
 11 10  1  0
 13 12  1  1
 13 14  1  0
 14  7  1  0
 15 13  1  0
 16 15  2  0
 17 15  1  0
 18 17  1  0
 18 19  1  1
 20 19  1  0
 20 21  2  0
 22 21  1  0
 23 22  2  0
 24 25  2  0
 24 23  1  0
 25 20  1  0
 26 27  1  0
 26 18  1  0
 28 26  2  0
M  END
$$$$
