MLF.pdb
     RDKit          3D

 28 28  0  0  1  0  0  0  0  0999 V2000
    8.8308  -11.9734   21.4938 C   0  0  0  0  0  0  0  0  0  0  0  0
    7.4234  -12.6321   20.6266 S   0  0  0  0  0  0  0  0  0  0  0  0
    7.1671  -14.3814   20.8175 C   0  0  0  0  0  0  0  0  0  0  0  0
    7.8973  -15.0182   21.9492 C   0  0  0  0  0  0  0  0  0  0  0  0
    7.6690  -16.4884   22.0073 C   0  0  2  0  0  0  0  0  0  0  0  0
    6.2677  -16.8357   22.1616 N   0  0  0  0  0  0  0  0  0  0  0  0
    8.4749  -17.1237   23.1097 C   0  0  0  0  0  0  0  0  0  0  0  0
    7.9373  -17.6684   24.0999 O   0  0  0  0  0  0  0  0  0  0  0  0
   11.3349  -20.5995   22.2669 C   0  0  0  0  0  0  0  0  0  0  0  0
   11.9409  -19.2212   22.2164 C   0  0  2  0  0  0  0  0  0  0  0  0
   13.4185  -19.4270   21.8348 C   0  0  0  0  0  0  0  0  0  0  0  0
   11.9391  -18.5135   23.5194 C   0  0  0  0  0  0  0  0  0  0  0  0
   10.6730  -17.9048   23.9896 C   0  0  2  0  0  0  0  0  0  0  0  0
    9.9154  -17.1328   23.0736 N   0  0  0  0  0  0  0  0  0  0  0  0
   10.9841  -17.1399   25.2499 C   0  0  0  0  0  0  0  0  0  0  0  0
   11.6804  -17.6525   26.1619 O   0  0  0  0  0  0  0  0  0  0  0  0
   10.5036  -15.8231   25.4474 N   0  0  0  0  0  0  0  0  0  0  0  0
   10.8183  -15.0442   26.6559 C   0  0  1  0  0  0  0  0  0  0  0  0
   10.2307  -13.6778   26.4076 C   0  0  0  0  0  0  0  0  0  0  0  0
    8.7521  -13.6753   26.5109 C   0  0  0  0  0  0  0  0  0  0  0  0
    8.0948  -13.0346   27.5542 C   0  0  0  0  0  0  0  0  0  0  0  0
    6.7175  -13.0327   27.6330 C   0  0  0  0  0  0  0  0  0  0  0  0
    5.9246  -13.6572   26.6958 C   0  0  0  0  0  0  0  0  0  0  0  0
    6.5744  -14.2961   25.6563 C   0  0  0  0  0  0  0  0  0  0  0  0
    7.9493  -14.3020   25.5709 C   0  0  0  0  0  0  0  0  0  0  0  0
   10.1656  -15.6246   27.8468 C   0  0  0  0  0  0  0  0  0  0  0  0
   10.4929  -15.0844   29.0827 O   0  0  0  0  0  0  0  0  0  0  0  0
    9.3461  -16.5591   27.8288 O   0  0  0  0  0  0  0  0  0  0  0  0
  2  1  1  0
  3  4  1  0
  3  2  1  0
  5  4  1  0
  5  6  1  1
  7  8  2  0
  7  5  1  0
 10  9  1  1
 10 12  1  0
 11 10  1  0
 13 12  1  6
 13 14  1  0
 14  7  1  0
 15 13  1  0
 16 15  2  0
 17 15  1  0
 18 17  1  0
 18 19  1  6
 20 19  1  0
 20 21  2  0
 22 21  1  0
 23 22  2  0
 24 25  2  0
 24 23  1  0
 25 20  1  0
 26 27  1  0
 26 18  1  0
 28 26  2  0
M  END
$$$$
