MLF.pdb
     RDKit          3D

 28 28  0  0  1  0  0  0  0  0999 V2000
    6.4127  -19.6061   26.6334 C   0  0  0  0  0  0  0  0  0  0  0  0
    5.3038  -20.4340   25.5147 S   0  0  0  0  0  0  0  0  0  0  0  0
    5.5255  -20.0357   23.7959 C   0  0  0  0  0  0  0  0  0  0  0  0
    6.6768  -19.1423   23.4864 C   0  0  0  0  0  0  0  0  0  0  0  0
    6.7198  -18.7612   22.0478 C   0  0  2  0  0  0  0  0  0  0  0  0
    6.8469  -19.9066   21.1646 N   0  0  0  0  0  0  0  0  0  0  0  0
    7.8315  -17.7823   21.7745 C   0  0  0  0  0  0  0  0  0  0  0  0
    8.9933  -18.1538   21.4946 O   0  0  0  0  0  0  0  0  0  0  0  0
    8.5888  -14.2337   18.8480 C   0  0  0  0  0  0  0  0  0  0  0  0
    7.7429  -13.8818   20.0440 C   0  0  2  0  0  0  0  0  0  0  0  0
    7.4407  -12.3773   19.9152 C   0  0  0  0  0  0  0  0  0  0  0  0
    8.4325  -14.0611   21.3443 C   0  0  0  0  0  0  0  0  0  0  0  0
    8.6828  -15.4396   21.8257 C   0  0  2  0  0  0  0  0  0  0  0  0
    7.6051  -16.3602   21.8237 N   0  0  0  0  0  0  0  0  0  0  0  0
    9.3290  -15.3304   23.1824 C   0  0  0  0  0  0  0  0  0  0  0  0
   10.4178  -14.7211   23.3326 O   0  0  0  0  0  0  0  0  0  0  0  0
    8.7328  -15.9089   24.3286 N   0  0  0  0  0  0  0  0  0  0  0  0
    9.3468  -15.8212   25.6633 C   0  0  1  0  0  0  0  0  0  0  0  0
    8.1892  -15.6970   26.6218 C   0  0  0  0  0  0  0  0  0  0  0  0
    7.5963  -14.3385   26.6127 C   0  0  0  0  0  0  0  0  0  0  0  0
    6.2227  -14.1426   26.5377 C   0  0  0  0  0  0  0  0  0  0  0  0
    5.6838  -12.8726   26.5391 C   0  0  0  0  0  0  0  0  0  0  0  0
    6.4649  -11.7405   26.6136 C   0  0  0  0  0  0  0  0  0  0  0  0
    7.8322  -11.9308   26.6881 C   0  0  0  0  0  0  0  0  0  0  0  0
    8.3773  -13.1960   26.6873 C   0  0  0  0  0  0  0  0  0  0  0  0
   10.0919  -17.0544   25.9873 C   0  0  0  0  0  0  0  0  0  0  0  0
   10.7799  -17.0883   27.1922 O   0  0  0  0  0  0  0  0  0  0  0  0
   10.1512  -18.0645   25.2651 O   0  0  0  0  0  0  0  0  0  0  0  0
  2  1  1  0
  3  4  1  0
  3  2  1  0
  5  4  1  0
  5  6  1  6
  7  8  2  0
  7  5  1  0
 10  9  1  6
 10 12  1  0
 11 10  1  0
 13 12  1  1
 13 14  1  0
 14  7  1  0
 15 13  1  0
 16 15  2  0
 17 15  1  0
 18 17  1  0
 18 19  1  1
 20 19  1  0
 20 21  2  0
 22 21  1  0
 23 22  2  0
 24 25  2  0
 24 23  1  0
 25 20  1  0
 26 27  1  0
 26 18  1  0
 28 26  2  0
M  END
$$$$
