MLF.pdb
     RDKit          3D

 28 28  0  0  1  0  0  0  0  0999 V2000
    1.6553  -20.1597   21.5406 C   0  0  0  0  0  0  0  0  0  0  0  0
    2.1653  -19.2058   20.1276 S   0  0  0  0  0  0  0  0  0  0  0  0
    3.3833  -17.9534   20.4592 C   0  0  0  0  0  0  0  0  0  0  0  0
    4.7923  -18.4313   20.5358 C   0  0  0  0  0  0  0  0  0  0  0  0
    5.4102  -18.1451   21.8599 C   0  0  2  0  0  0  0  0  0  0  0  0
    4.5359  -17.3891   22.7386 N   0  0  0  0  0  0  0  0  0  0  0  0
    6.7236  -17.4242   21.7059 C   0  0  0  0  0  0  0  0  0  0  0  0
    7.7161  -17.9559   21.1595 O   0  0  0  0  0  0  0  0  0  0  0  0
    8.4217  -14.0969   19.1703 C   0  0  0  0  0  0  0  0  0  0  0  0
    7.5866  -13.6646   20.3473 C   0  0  2  0  0  0  0  0  0  0  0  0
    7.5314  -12.1272   20.2796 C   0  0  0  0  0  0  0  0  0  0  0  0
    8.1778  -14.0053   21.6637 C   0  0  0  0  0  0  0  0  0  0  0  0
    8.1514  -15.4195   22.1040 C   0  0  2  0  0  0  0  0  0  0  0  0
    6.8983  -16.0767   22.1855 N   0  0  0  0  0  0  0  0  0  0  0  0
    8.9161  -15.5002   23.3997 C   0  0  0  0  0  0  0  0  0  0  0  0
   10.0770  -15.0285   23.4956 O   0  0  0  0  0  0  0  0  0  0  0  0
    8.3538  -16.1081   24.5477 N   0  0  0  0  0  0  0  0  0  0  0  0
    9.0918  -16.2274   25.8156 C   0  0  1  0  0  0  0  0  0  0  0  0
    8.0976  -15.8541   26.8863 C   0  0  0  0  0  0  0  0  0  0  0  0
    7.7358  -14.4175   26.8401 C   0  0  0  0  0  0  0  0  0  0  0  0
    6.4824  -13.9943   26.4148 C   0  0  0  0  0  0  0  0  0  0  0  0
    6.1560  -12.6542   26.3853 C   0  0  0  0  0  0  0  0  0  0  0  0
    7.0410  -11.6713   26.7698 C   0  0  0  0  0  0  0  0  0  0  0  0
    8.2892  -12.0879   27.1934 C   0  0  0  0  0  0  0  0  0  0  0  0
    8.6221  -13.4243   27.2257 C   0  0  0  0  0  0  0  0  0  0  0  0
    9.5283  -17.6190   26.0473 C   0  0  0  0  0  0  0  0  0  0  0  0
   10.2917  -17.8700   27.1788 O   0  0  0  0  0  0  0  0  0  0  0  0
    9.2654  -18.5832   25.3080 O   0  0  0  0  0  0  0  0  0  0  0  0
  2  1  1  0
  3  4  1  0
  3  2  1  0
  5  4  1  0
  5  6  1  1
  7  8  2  0
  7  5  1  0
 10  9  1  6
 10 12  1  0
 11 10  1  0
 13 12  1  1
 13 14  1  0
 14  7  1  0
 15 13  1  0
 16 15  2  0
 17 15  1  0
 18 17  1  0
 18 19  1  1
 20 19  1  0
 20 21  2  0
 22 21  1  0
 23 22  2  0
 24 25  2  0
 24 23  1  0
 25 20  1  0
 26 27  1  0
 26 18  1  0
 28 26  2  0
M  END
$$$$
