MLF.pdb
     RDKit          3D

 28 28  0  0  1  0  0  0  0  0999 V2000
    9.9534  -18.7197   15.6255 C   0  0  0  0  0  0  0  0  0  0  0  0
    9.3332  -20.1390   16.5018 S   0  0  0  0  0  0  0  0  0  0  0  0
    9.1279  -19.9166   18.2540 C   0  0  0  0  0  0  0  0  0  0  0  0
    9.6233  -18.6220   18.8001 C   0  0  0  0  0  0  0  0  0  0  0  0
    9.4936  -18.5522   20.2817 C   0  0  2  0  0  0  0  0  0  0  0  0
    8.1720  -18.9286   20.7505 N   0  0  0  0  0  0  0  0  0  0  0  0
    9.8448  -17.1812   20.7972 C   0  0  0  0  0  0  0  0  0  0  0  0
   10.9798  -16.6789   20.6367 O   0  0  0  0  0  0  0  0  0  0  0  0
    8.7186  -13.1723   19.4193 C   0  0  0  0  0  0  0  0  0  0  0  0
    7.7241  -13.7877   20.3689 C   0  0  2  0  0  0  0  0  0  0  0  0
    6.5690  -12.7754   20.4798 C   0  0  0  0  0  0  0  0  0  0  0  0
    8.2439  -13.9829   21.7437 C   0  0  0  0  0  0  0  0  0  0  0  0
    9.2046  -15.0846   21.9847 C   0  0  2  0  0  0  0  0  0  0  0  0
    8.8803  -16.3785   21.5054 N   0  0  0  0  0  0  0  0  0  0  0  0
    9.5190  -15.0912   23.4582 C   0  0  0  0  0  0  0  0  0  0  0  0
   10.1723  -14.1551   23.9839 O   0  0  0  0  0  0  0  0  0  0  0  0
    9.0904  -16.1486   24.2959 N   0  0  0  0  0  0  0  0  0  0  0  0
    9.5048  -16.2534   25.7043 C   0  0  1  0  0  0  0  0  0  0  0  0
    8.2448  -16.0321   26.5029 C   0  0  0  0  0  0  0  0  0  0  0  0
    7.8313  -14.6088   26.5161 C   0  0  0  0  0  0  0  0  0  0  0  0
    8.6311  -13.6220   27.0796 C   0  0  0  0  0  0  0  0  0  0  0  0
    8.2379  -12.2997   27.0769 C   0  0  0  0  0  0  0  0  0  0  0  0
    7.0462  -11.8861   26.5237 C   0  0  0  0  0  0  0  0  0  0  0  0
    6.2472  -12.8647   25.9622 C   0  0  0  0  0  0  0  0  0  0  0  0
    6.6335  -14.1870   25.9611 C   0  0  0  0  0  0  0  0  0  0  0  0
   10.0195  -17.6040   26.0076 C   0  0  0  0  0  0  0  0  0  0  0  0
   10.0076  -18.5384   24.9814 O   0  0  0  0  0  0  0  0  0  0  0  0
   10.4625  -17.9694   27.1101 O   0  0  0  0  0  0  0  0  0  0  0  0
  2  1  1  0
  3  4  1  0
  3  2  1  0
  5  4  1  0
  5  6  1  6
  7  8  2  0
  7  5  1  0
 10  9  1  6
 10 12  1  0
 11 10  1  0
 13 12  1  1
 13 14  1  0
 14  7  1  0
 15 13  1  0
 16 15  2  0
 17 15  1  0
 18 17  1  0
 18 19  1  1
 20 19  1  0
 20 21  2  0
 22 21  1  0
 23 22  2  0
 24 25  2  0
 24 23  1  0
 25 20  1  0
 26 27  1  0
 26 18  1  0
 28 26  2  0
M  END
$$$$
