MLF.pdb
     RDKit          3D

 28 28  0  0  1  0  0  0  0  0999 V2000
    7.9605  -11.7050   19.5838 C   0  0  0  0  0  0  0  0  0  0  0  0
    7.8842  -12.9419   18.3067 S   0  0  0  0  0  0  0  0  0  0  0  0
    8.1802  -14.6093   18.8489 C   0  0  0  0  0  0  0  0  0  0  0  0
    8.1639  -14.8181   20.3239 C   0  0  0  0  0  0  0  0  0  0  0  0
    8.7233  -16.1431   20.7089 C   0  0  2  0  0  0  0  0  0  0  0  0
    8.1139  -17.2443   19.9851 N   0  0  0  0  0  0  0  0  0  0  0  0
    8.6001  -16.3786   22.1915 C   0  0  0  0  0  0  0  0  0  0  0  0
    8.9603  -15.5265   23.0343 O   0  0  0  0  0  0  0  0  0  0  0  0
    5.6634  -20.8963   24.5190 C   0  0  0  0  0  0  0  0  0  0  0  0
    6.0682  -19.4726   24.2384 C   0  0  2  0  0  0  0  0  0  0  0  0
    5.9195  -19.2870   22.7170 C   0  0  0  0  0  0  0  0  0  0  0  0
    7.4842  -19.1736   24.5608 C   0  0  0  0  0  0  0  0  0  0  0  0
    8.0556  -17.8864   24.1009 C   0  0  2  0  0  0  0  0  0  0  0  0
    8.0569  -17.6079   22.7111 N   0  0  0  0  0  0  0  0  0  0  0  0
    9.4321  -17.7667   24.7015 C   0  0  0  0  0  0  0  0  0  0  0  0
   10.4467  -18.1678   24.0777 O   0  0  0  0  0  0  0  0  0  0  0  0
    9.6272  -17.2003   25.9841 N   0  0  0  0  0  0  0  0  0  0  0  0
   10.9639  -17.0463   26.5807 C   0  0  1  0  0  0  0  0  0  0  0  0
   11.2620  -15.5701   26.5025 C   0  0  0  0  0  0  0  0  0  0  0  0
   10.1928  -14.7481   27.1175 C   0  0  0  0  0  0  0  0  0  0  0  0
   10.2887  -14.2858   28.4244 C   0  0  0  0  0  0  0  0  0  0  0  0
    9.2900  -13.5141   28.9813 C   0  0  0  0  0  0  0  0  0  0  0  0
    8.1552  -13.1620   28.2844 C   0  0  0  0  0  0  0  0  0  0  0  0
    8.0556  -13.6201   26.9839 C   0  0  0  0  0  0  0  0  0  0  0  0
    9.0490  -14.3910   26.4212 C   0  0  0  0  0  0  0  0  0  0  0  0
   10.9609  -17.4481   28.0017 C   0  0  0  0  0  0  0  0  0  0  0  0
    9.7637  -17.9051   28.5348 O   0  0  0  0  0  0  0  0  0  0  0  0
   11.9469  -17.4090   28.7578 O   0  0  0  0  0  0  0  0  0  0  0  0
  2  1  1  0
  3  4  1  0
  3  2  1  0
  5  4  1  0
  5  6  1  6
  7  8  2  0
  7  5  1  0
 10  9  1  6
 10 12  1  0
 11 10  1  0
 13 12  1  6
 13 14  1  0
 14  7  1  0
 15 13  1  0
 16 15  2  0
 17 15  1  0
 18 17  1  0
 18 19  1  1
 20 19  1  0
 20 21  2  0
 22 21  1  0
 23 22  2  0
 24 25  2  0
 24 23  1  0
 25 20  1  0
 26 27  1  0
 26 18  1  0
 28 26  2  0
M  END
$$$$
