MLF.pdb
     RDKit          3D

 28 28  0  0  1  0  0  0  0  0999 V2000
    7.6274  -18.8121   27.8163 C   0  0  0  0  0  0  0  0  0  0  0  0
    6.7091  -20.2177   27.2267 S   0  0  0  0  0  0  0  0  0  0  0  0
    6.2109  -20.1355   25.5217 C   0  0  0  0  0  0  0  0  0  0  0  0
    6.7993  -19.0167   24.7333 C   0  0  0  0  0  0  0  0  0  0  0  0
    6.4052  -19.0738   23.2986 C   0  0  2  0  0  0  0  0  0  0  0  0
    6.5057  -20.4098   22.7391 N   0  0  0  0  0  0  0  0  0  0  0  0
    7.2168  -18.1129   22.4701 C   0  0  0  0  0  0  0  0  0  0  0  0
    8.2490  -18.4676   21.8577 O   0  0  0  0  0  0  0  0  0  0  0  0
    7.5272  -12.1048   20.5802 C   0  0  0  0  0  0  0  0  0  0  0  0
    8.1418  -13.4559   20.8377 C   0  0  2  0  0  0  0  0  0  0  0  0
    8.5128  -14.0181   19.4529 C   0  0  0  0  0  0  0  0  0  0  0  0
    7.2122  -14.4341   21.4520 C   0  0  0  0  0  0  0  0  0  0  0  0
    7.7464  -15.7542   21.8604 C   0  0  2  0  0  0  0  0  0  0  0  0
    6.8377  -16.7285   22.3442 N   0  0  0  0  0  0  0  0  0  0  0  0
    8.8721  -15.5021   22.8296 C   0  0  0  0  0  0  0  0  0  0  0  0
    9.9092  -14.8898   22.4706 O   0  0  0  0  0  0  0  0  0  0  0  0
    8.7987  -15.9454   24.1719 N   0  0  0  0  0  0  0  0  0  0  0  0
    9.7866  -15.5457   25.1872 C   0  0  1  0  0  0  0  0  0  0  0  0
    8.9923  -15.3518   26.4543 C   0  0  0  0  0  0  0  0  0  0  0  0
    8.1116  -14.1613   26.3881 C   0  0  0  0  0  0  0  0  0  0  0  0
    6.7374  -14.2791   26.2196 C   0  0  0  0  0  0  0  0  0  0  0  0
    5.9284  -13.1627   26.1687 C   0  0  0  0  0  0  0  0  0  0  0  0
    6.4287  -11.8842   26.2799 C   0  0  0  0  0  0  0  0  0  0  0  0
    7.7956  -11.7624   26.4474 C   0  0  0  0  0  0  0  0  0  0  0  0
    8.6094  -12.8727   26.4993 C   0  0  0  0  0  0  0  0  0  0  0  0
   10.7770  -16.6171   25.4154 C   0  0  0  0  0  0  0  0  0  0  0  0
   10.5807  -17.8213   24.7539 O   0  0  0  0  0  0  0  0  0  0  0  0
   11.7728  -16.5247   26.1539 O   0  0  0  0  0  0  0  0  0  0  0  0
  2  1  1  0
  3  4  1  0
  3  2  1  0
  5  4  1  0
  5  6  1  6
  7  8  2  0
  7  5  1  0
 10  9  1  6
 10 12  1  0
 11 10  1  0
 13 12  1  1
 13 14  1  0
 14  7  1  0
 15 13  1  0
 16 15  2  0
 17 15  1  0
 18 17  1  0
 18 19  1  1
 20 19  1  0
 20 21  2  0
 22 21  1  0
 23 22  2  0
 24 25  2  0
 24 23  1  0
 25 20  1  0
 26 27  1  0
 26 18  1  0
 28 26  2  0
M  END
$$$$
