MLF.pdb
     RDKit          3D

 28 28  0  0  1  0  0  0  0  0999 V2000
   10.8492  -18.8287   15.7612 C   0  0  0  0  0  0  0  0  0  0  0  0
   10.1124  -20.2410   16.5545 S   0  0  0  0  0  0  0  0  0  0  0  0
    9.7674  -20.0416   18.2874 C   0  0  0  0  0  0  0  0  0  0  0  0
    9.7830  -18.6387   18.7887 C   0  0  0  0  0  0  0  0  0  0  0  0
    9.5190  -18.5632   20.2521 C   0  0  2  0  0  0  0  0  0  0  0  0
    8.1320  -18.8289   20.5893 N   0  0  0  0  0  0  0  0  0  0  0  0
    9.9325  -17.2284   20.8140 C   0  0  0  0  0  0  0  0  0  0  0  0
   11.1119  -16.8147   20.7509 O   0  0  0  0  0  0  0  0  0  0  0  0
    8.8743  -13.2705   19.3216 C   0  0  0  0  0  0  0  0  0  0  0  0
    7.8852  -13.7693   20.3427 C   0  0  2  0  0  0  0  0  0  0  0  0
    6.8093  -12.6733   20.4538 C   0  0  0  0  0  0  0  0  0  0  0  0
    8.4542  -13.9375   21.7015 C   0  0  0  0  0  0  0  0  0  0  0  0
    9.3564  -15.0857   21.9511 C   0  0  2  0  0  0  0  0  0  0  0  0
    8.9793  -16.3592   21.4560 N   0  0  0  0  0  0  0  0  0  0  0  0
    9.6430  -15.1177   23.4299 C   0  0  0  0  0  0  0  0  0  0  0  0
   10.3516  -14.2315   23.9703 O   0  0  0  0  0  0  0  0  0  0  0  0
    9.1252  -16.1436   24.2564 N   0  0  0  0  0  0  0  0  0  0  0  0
    9.4408  -16.2319   25.6913 C   0  0  1  0  0  0  0  0  0  0  0  0
    8.1202  -16.0510   26.3967 C   0  0  0  0  0  0  0  0  0  0  0  0
    7.6665  -14.6399   26.3853 C   0  0  0  0  0  0  0  0  0  0  0  0
    6.5072  -14.2518   25.7247 C   0  0  0  0  0  0  0  0  0  0  0  0
    6.0918  -12.9362   25.7297 C   0  0  0  0  0  0  0  0  0  0  0  0
    6.7922  -11.9446   26.3804 C   0  0  0  0  0  0  0  0  0  0  0  0
    7.9463  -12.3263   27.0388 C   0  0  0  0  0  0  0  0  0  0  0  0
    8.3671  -13.6381   27.0381 C   0  0  0  0  0  0  0  0  0  0  0  0
    9.9767  -17.5641   26.0364 C   0  0  0  0  0  0  0  0  0  0  0  0
   10.1814  -18.4602   24.9966 O   0  0  0  0  0  0  0  0  0  0  0  0
   10.2586  -17.9456   27.1855 O   0  0  0  0  0  0  0  0  0  0  0  0
  2  1  1  0
  3  4  1  0
  3  2  1  0
  5  4  1  0
  5  6  1  6
  7  8  2  0
  7  5  1  0
 10  9  1  6
 10 12  1  0
 11 10  1  0
 13 12  1  1
 13 14  1  0
 14  7  1  0
 15 13  1  0
 16 15  2  0
 17 15  1  0
 18 17  1  0
 18 19  1  1
 20 19  1  0
 20 21  2  0
 22 21  1  0
 23 22  2  0
 24 25  2  0
 24 23  1  0
 25 20  1  0
 26 27  1  0
 26 18  1  0
 28 26  2  0
M  END
$$$$
