NVE.pdb
     RDKit          3D

 25 24  0  0  1  0  0  0  0  0999 V2000
   12.4143  -10.8537   -9.9099 N   0  0  0  0  0  0  0  0  0  0  0  0
   12.4054   -9.5139  -10.3731 C   0  0  0  0  0  0  0  0  0  0  0  0
   11.3136   -8.9178  -10.3848 O   0  0  0  0  0  0  0  0  0  0  0  0
   13.6461   -8.8807  -10.8147 C   0  0  0  0  0  0  0  0  0  0  0  0
   14.8715   -9.7387  -10.6979 C   0  0  2  0  0  0  0  0  0  0  0  0
   15.2789   -9.8067   -9.3141 N   0  0  0  0  0  0  0  0  0  0  0  0
   16.0303   -9.2233  -11.4894 C   0  0  0  0  0  0  0  0  0  0  0  0
   16.7432   -8.3137  -11.0030 O   0  0  0  0  0  0  0  0  0  0  0  0
   19.5549   -9.9478  -14.7623 C   0  0  0  0  0  0  0  0  0  0  0  0
   18.3111  -10.3346  -14.0064 C   0  0  2  0  0  0  0  0  0  0  0  0
   17.5958  -11.4016  -14.8148 C   0  0  0  0  0  0  0  0  0  0  0  0
   17.4385   -9.2447  -13.5465 C   0  0  2  0  0  0  0  0  0  0  0  0
   16.3294   -9.7405  -12.7587 N   0  0  0  0  0  0  0  0  0  0  0  0
   17.1046   -8.1511  -14.4398 C   0  0  0  0  0  0  0  0  0  0  0  0
   16.1351   -8.3410  -15.2639 O   0  0  0  0  0  0  0  0  0  0  0  0
   17.7198   -6.9103  -14.5041 N   0  0  0  0  0  0  0  0  0  0  0  0
   17.3454   -5.8474  -15.4290 C   0  0  1  0  0  0  0  0  0  0  0  0
   17.5691   -4.4812  -14.8103 C   0  0  0  0  0  0  0  0  0  0  0  0
   17.2973   -3.4116  -15.8537 C   0  0  0  0  0  0  0  0  0  0  0  0
   17.4632   -2.0533  -15.3004 C   0  0  0  0  0  0  0  0  0  0  0  0
   17.4354   -1.0506  -16.0499 O   0  0  0  0  0  0  0  0  0  0  0  0
   18.2254   -5.9534  -16.6107 C   0  0  0  0  0  0  0  0  0  0  0  0
   17.7587   -5.5736  -17.8518 O   0  0  0  0  0  0  0  0  0  0  0  0
   17.6574   -1.7994  -13.9376 O   0  0  0  0  0  0  0  0  0  0  0  0
   19.3926   -6.3847  -16.5006 O   0  0  0  0  0  0  0  0  0  0  0  0
  1  2  1  0
  2  4  1  0
  2  3  2  0
  5  7  1  0
  5  4  1  0
  5  6  1  1
  7  8  2  0
 10  9  1  6
 10 11  1  0
 10 12  1  0
 12 14  1  0
 12 13  1  6
 13  7  1  0
 14 15  2  0
 14 16  1  0
 16 17  1  0
 17 22  1  0
 17 18  1  1
 19 18  1  0
 20 19  1  0
 21 20  2  0
 22 23  1  0
 24 20  1  0
 25 22  2  0
M  END
$$$$
