NVE.pdb
     RDKit          3D

 25 24  0  0  1  0  0  0  0  0999 V2000
   18.5783  -16.5610  -16.6460 N   0  0  0  0  0  0  0  0  0  0  0  0
   18.3395  -15.5116  -15.7232 C   0  0  0  0  0  0  0  0  0  0  0  0
   17.4623  -15.6945  -14.8604 O   0  0  0  0  0  0  0  0  0  0  0  0
   19.1091  -14.2721  -15.8046 C   0  0  0  0  0  0  0  0  0  0  0  0
   20.0409  -14.1810  -16.9772 C   0  0  2  0  0  0  0  0  0  0  0  0
   21.0740  -15.1817  -16.8473 N   0  0  0  0  0  0  0  0  0  0  0  0
   20.7090  -12.8490  -17.0978 C   0  0  0  0  0  0  0  0  0  0  0  0
   21.7366  -12.6197  -16.4169 O   0  0  0  0  0  0  0  0  0  0  0  0
   19.7586   -9.9435  -20.3026 C   0  0  0  0  0  0  0  0  0  0  0  0
   21.0105  -10.1857  -19.5014 C   0  0  2  0  0  0  0  0  0  0  0  0
   21.8896  -11.1322  -20.2983 C   0  0  0  0  0  0  0  0  0  0  0  0
   20.8424  -10.5666  -18.0916 C   0  0  2  0  0  0  0  0  0  0  0  0
   20.2064  -11.8604  -17.9568 N   0  0  0  0  0  0  0  0  0  0  0  0
   20.4199   -9.5802  -17.1148 C   0  0  0  0  0  0  0  0  0  0  0  0
   19.2010   -9.6415  -16.7078 O   0  0  0  0  0  0  0  0  0  0  0  0
   21.1922   -8.5690  -16.5642 N   0  0  0  0  0  0  0  0  0  0  0  0
   20.7165   -7.6087  -15.5758 C   0  0  1  0  0  0  0  0  0  0  0  0
   21.8594   -6.7747  -15.0306 C   0  0  0  0  0  0  0  0  0  0  0  0
   21.3170   -5.7996  -14.0004 C   0  0  0  0  0  0  0  0  0  0  0  0
   22.3896   -4.9756  -13.4093 C   0  0  0  0  0  0  0  0  0  0  0  0
   23.5666   -5.0636  -13.8275 O   0  0  0  0  0  0  0  0  0  0  0  0
   19.7796   -6.6928  -16.2581 C   0  0  0  0  0  0  0  0  0  0  0  0
   20.0832   -6.2083  -17.5132 O   0  0  0  0  0  0  0  0  0  0  0  0
   22.1711   -4.0642  -12.3695 O   0  0  0  0  0  0  0  0  0  0  0  0
   18.7105   -6.3494  -15.7108 O   0  0  0  0  0  0  0  0  0  0  0  0
  1  2  1  0
  2  4  1  0
  2  3  2  0
  5  7  1  0
  5  4  1  0
  5  6  1  1
  7  8  2  0
 10  9  1  6
 10 11  1  0
 10 12  1  0
 12 14  1  0
 12 13  1  6
 13  7  1  0
 14 15  2  0
 14 16  1  0
 16 17  1  0
 17 22  1  0
 17 18  1  6
 19 18  1  0
 20 19  1  0
 21 20  2  0
 22 23  1  0
 24 20  1  0
 25 22  2  0
M  END
$$$$
