NVE.pdb
     RDKit          3D

 25 24  0  0  1  0  0  0  0  0999 V2000
   15.2211  -14.2839  -10.8557 N   0  0  0  0  0  0  0  0  0  0  0  0
   16.1215  -13.6616  -11.7568 C   0  0  0  0  0  0  0  0  0  0  0  0
   16.9291  -14.3924  -12.3578 O   0  0  0  0  0  0  0  0  0  0  0  0
   16.0814  -12.2142  -11.9535 C   0  0  0  0  0  0  0  0  0  0  0  0
   15.0556  -11.4914  -11.1309 C   0  0  2  0  0  0  0  0  0  0  0  0
   13.7337  -11.8711  -11.5715 N   0  0  0  0  0  0  0  0  0  0  0  0
   15.1598  -10.0034  -11.2319 C   0  0  0  0  0  0  0  0  0  0  0  0
   14.7085   -9.4295  -12.2512 O   0  0  0  0  0  0  0  0  0  0  0  0
   15.5902   -5.8143   -8.7509 C   0  0  0  0  0  0  0  0  0  0  0  0
   15.0664   -7.1211   -9.2857 C   0  0  2  0  0  0  0  0  0  0  0  0
   14.6966   -7.9887   -8.0965 C   0  0  0  0  0  0  0  0  0  0  0  0
   15.8813   -7.8072  -10.2986 C   0  0  2  0  0  0  0  0  0  0  0  0
   15.7502   -9.2464  -10.2089 N   0  0  0  0  0  0  0  0  0  0  0  0
   17.2225   -7.3395  -10.5951 C   0  0  0  0  0  0  0  0  0  0  0  0
   18.1215   -7.5239   -9.6935 O   0  0  0  0  0  0  0  0  0  0  0  0
   17.6482   -6.7103  -11.7549 N   0  0  0  0  0  0  0  0  0  0  0  0
   19.0144   -6.2658  -12.0022 C   0  0  1  0  0  0  0  0  0  0  0  0
   19.6003   -6.9532  -13.2201 C   0  0  0  0  0  0  0  0  0  0  0  0
   20.9916   -6.4031  -13.4812 C   0  0  0  0  0  0  0  0  0  0  0  0
   21.6391   -7.0739  -14.6256 C   0  0  0  0  0  0  0  0  0  0  0  0
   21.3953   -8.2747  -14.8834 O   0  0  0  0  0  0  0  0  0  0  0  0
   18.9681   -4.8166  -12.2849 C   0  0  0  0  0  0  0  0  0  0  0  0
   17.8819   -4.2789  -12.9432 O   0  0  0  0  0  0  0  0  0  0  0  0
   22.5451   -6.4318  -15.4778 O   0  0  0  0  0  0  0  0  0  0  0  0
   19.9043   -4.0678  -11.9340 O   0  0  0  0  0  0  0  0  0  0  0  0
  1  2  1  0
  2  4  1  0
  2  3  2  0
  5  7  1  0
  5  4  1  0
  5  6  1  6
  7  8  2  0
 10  9  1  1
 10 11  1  0
 10 12  1  0
 12 14  1  0
 12 13  1  1
 13  7  1  0
 14 15  2  0
 14 16  1  0
 16 17  1  0
 17 22  1  0
 17 18  1  6
 19 18  1  0
 20 19  1  0
 21 20  2  0
 22 23  1  0
 24 20  1  0
 25 22  2  0
M  END
$$$$
