NVE.pdb
     RDKit          3D

 25 24  0  0  1  0  0  0  0  0999 V2000
   15.0775  -15.2201  -11.8123 N   0  0  0  0  0  0  0  0  0  0  0  0
   16.2694  -14.5411  -12.1705 C   0  0  0  0  0  0  0  0  0  0  0  0
   17.2795  -15.2325  -12.3919 O   0  0  0  0  0  0  0  0  0  0  0  0
   16.2836  -13.0832  -12.2685 C   0  0  0  0  0  0  0  0  0  0  0  0
   15.0028  -12.4093  -11.8725 C   0  0  2  0  0  0  0  0  0  0  0  0
   13.9922  -12.6772  -12.8688 N   0  0  0  0  0  0  0  0  0  0  0  0
   15.1325  -10.9256  -11.7422 C   0  0  0  0  0  0  0  0  0  0  0  0
   15.2265  -10.2294  -12.7808 O   0  0  0  0  0  0  0  0  0  0  0  0
   14.2142   -8.2678   -8.0574 C   0  0  0  0  0  0  0  0  0  0  0  0
   14.0163   -8.3898   -9.5453 C   0  0  2  0  0  0  0  0  0  0  0  0
   12.7346   -9.1697   -9.7755 C   0  0  0  0  0  0  0  0  0  0  0  0
   15.1589   -8.8659  -10.3380 C   0  0  2  0  0  0  0  0  0  0  0  0
   15.1489  -10.3065  -10.4835 N   0  0  0  0  0  0  0  0  0  0  0  0
   16.4749   -8.2870  -10.1416 C   0  0  0  0  0  0  0  0  0  0  0  0
   17.2303   -8.8331   -9.2548 O   0  0  0  0  0  0  0  0  0  0  0  0
   17.0155   -7.2001  -10.8112 N   0  0  0  0  0  0  0  0  0  0  0  0
   18.3526   -6.6670  -10.5808 C   0  0  1  0  0  0  0  0  0  0  0  0
   19.1063   -6.5001  -11.8859 C   0  0  0  0  0  0  0  0  0  0  0  0
   20.4496   -5.8494  -11.6054 C   0  0  0  0  0  0  0  0  0  0  0  0
   21.2579   -5.7123  -12.8329 C   0  0  0  0  0  0  0  0  0  0  0  0
   20.8189   -6.1137  -13.9347 O   0  0  0  0  0  0  0  0  0  0  0  0
   18.2013   -5.3275   -9.9766 C   0  0  0  0  0  0  0  0  0  0  0  0
   19.1582   -4.8553   -9.1028 O   0  0  0  0  0  0  0  0  0  0  0  0
   22.5353   -5.1401  -12.8494 O   0  0  0  0  0  0  0  0  0  0  0  0
   17.2131   -4.6131  -10.2477 O   0  0  0  0  0  0  0  0  0  0  0  0
  1  2  1  0
  2  4  1  0
  2  3  2  0
  5  7  1  0
  5  4  1  0
  5  6  1  6
  7  8  2  0
 10  9  1  1
 10 11  1  0
 10 12  1  0
 12 14  1  0
 12 13  1  1
 13  7  1  0
 14 15  2  0
 14 16  1  0
 16 17  1  0
 17 22  1  0
 17 18  1  6
 19 18  1  0
 20 19  1  0
 21 20  2  0
 22 23  1  0
 24 20  1  0
 25 22  2  0
M  END
$$$$
