NVE.pdb
     RDKit          3D

 25 24  0  0  1  0  0  0  0  0999 V2000
   19.2288  -30.0018  -10.2366 N   0  0  0  0  0  0  0  0  0  0  0  0
   20.6175  -30.2424  -10.3908 C   0  0  0  0  0  0  0  0  0  0  0  0
   21.1813  -29.7382  -11.3783 O   0  0  0  0  0  0  0  0  0  0  0  0
   21.3354  -31.0560   -9.4119 C   0  0  0  0  0  0  0  0  0  0  0  0
   21.8539  -32.3638   -9.9336 C   0  0  2  0  0  0  0  0  0  0  0  0
   20.7451  -33.2568  -10.1756 N   0  0  0  0  0  0  0  0  0  0  0  0
   22.7909  -33.0459   -8.9893 C   0  0  0  0  0  0  0  0  0  0  0  0
   22.3207  -33.7924   -8.0984 O   0  0  0  0  0  0  0  0  0  0  0  0
   27.3635  -32.8036   -9.1193 C   0  0  0  0  0  0  0  0  0  0  0  0
   26.3526  -33.9179   -9.0532 C   0  0  2  0  0  0  0  0  0  0  0  0
   26.1336  -34.4236  -10.4675 C   0  0  0  0  0  0  0  0  0  0  0  0
   25.1112  -33.6554   -8.3110 C   0  0  2  0  0  0  0  0  0  0  0  0
   24.1786  -32.8645   -9.0866 N   0  0  0  0  0  0  0  0  0  0  0  0
   25.1617  -33.3196   -6.9003 C   0  0  0  0  0  0  0  0  0  0  0  0
   25.2507  -32.0727   -6.5962 O   0  0  0  0  0  0  0  0  0  0  0  0
   25.1231  -34.2022   -5.8318 N   0  0  0  0  0  0  0  0  0  0  0  0
   25.1630  -33.8067   -4.4292 C   0  0  1  0  0  0  0  0  0  0  0  0
   24.2589  -34.6864   -3.5879 C   0  0  0  0  0  0  0  0  0  0  0  0
   24.6978  -36.1332   -3.7317 C   0  0  0  0  0  0  0  0  0  0  0  0
   23.9399  -37.0265   -2.8335 C   0  0  0  0  0  0  0  0  0  0  0  0
   23.0334  -36.5733   -2.0981 O   0  0  0  0  0  0  0  0  0  0  0  0
   26.5471  -33.9992   -3.9502 C   0  0  0  0  0  0  0  0  0  0  0  0
   26.9258  -33.4976   -2.7226 O   0  0  0  0  0  0  0  0  0  0  0  0
   24.1758  -38.4034   -2.7444 O   0  0  0  0  0  0  0  0  0  0  0  0
   27.3835  -34.6132   -4.6458 O   0  0  0  0  0  0  0  0  0  0  0  0
  1  2  1  0
  2  4  1  0
  2  3  2  0
  5  7  1  0
  5  4  1  0
  5  6  1  1
  7  8  2  0
 10  9  1  6
 10 11  1  0
 10 12  1  0
 12 14  1  0
 12 13  1  6
 13  7  1  0
 14 15  2  0
 14 16  1  0
 16 17  1  0
 17 22  1  0
 17 18  1  1
 19 18  1  0
 20 19  1  0
 21 20  2  0
 22 23  1  0
 24 20  1  0
 25 22  2  0
M  END
$$$$
