NVE.pdb
     RDKit          3D

 25 24  0  0  1  0  0  0  0  0999 V2000
   16.0873  -16.5848  -15.3784 N   0  0  0  0  0  0  0  0  0  0  0  0
   17.2125  -16.0576  -14.6958 C   0  0  0  0  0  0  0  0  0  0  0  0
   17.6386  -16.6933  -13.7151 O   0  0  0  0  0  0  0  0  0  0  0  0
   17.8293  -14.8125  -15.1478 C   0  0  0  0  0  0  0  0  0  0  0  0
   17.2337  -14.2266  -16.3942 C   0  0  2  0  0  0  0  0  0  0  0  0
   17.5326  -15.0842  -17.5171 N   0  0  0  0  0  0  0  0  0  0  0  0
   17.7544  -12.8617  -16.7119 C   0  0  0  0  0  0  0  0  0  0  0  0
   18.6571  -12.7400  -17.5736 O   0  0  0  0  0  0  0  0  0  0  0  0
   15.5303   -9.0993  -15.8745 C   0  0  0  0  0  0  0  0  0  0  0  0
   16.4978   -9.5924  -16.9179 C   0  0  2  0  0  0  0  0  0  0  0  0
   15.6889  -10.2607  -18.0147 C   0  0  0  0  0  0  0  0  0  0  0  0
   17.6440  -10.3850  -16.4500 C   0  0  2  0  0  0  0  0  0  0  0  0
   17.2498  -11.7239  -16.0647 N   0  0  0  0  0  0  0  0  0  0  0  0
   18.6485   -9.7806  -15.5949 C   0  0  0  0  0  0  0  0  0  0  0  0
   18.4447   -9.8281  -14.3255 O   0  0  0  0  0  0  0  0  0  0  0  0
   19.8167   -9.1520  -15.9976 N   0  0  0  0  0  0  0  0  0  0  0  0
   20.8137   -8.5972  -15.0902 C   0  0  1  0  0  0  0  0  0  0  0  0
   22.1951   -8.6229  -15.7149 C   0  0  0  0  0  0  0  0  0  0  0  0
   22.1518   -7.8980  -17.0487 C   0  0  0  0  0  0  0  0  0  0  0  0
   23.4297   -8.0176  -17.7779 C   0  0  0  0  0  0  0  0  0  0  0  0
   23.8306   -9.1316  -18.1855 O   0  0  0  0  0  0  0  0  0  0  0  0
   20.4585   -7.1842  -14.8465 C   0  0  0  0  0  0  0  0  0  0  0  0
   19.4577   -6.5896  -15.5861 O   0  0  0  0  0  0  0  0  0  0  0  0
   24.2584   -6.9243  -18.0562 O   0  0  0  0  0  0  0  0  0  0  0  0
   21.0556   -6.5172  -13.9754 O   0  0  0  0  0  0  0  0  0  0  0  0
  1  2  1  0
  2  4  1  0
  2  3  2  0
  5  7  1  0
  5  4  1  0
  5  6  1  6
  7  8  2  0
 10  9  1  1
 10 11  1  0
 10 12  1  0
 12 14  1  0
 12 13  1  1
 13  7  1  0
 14 15  2  0
 14 16  1  0
 16 17  1  0
 17 22  1  0
 17 18  1  6
 19 18  1  0
 20 19  1  0
 21 20  2  0
 22 23  1  0
 24 20  1  0
 25 22  2  0
M  END
$$$$
