NVE.pdb
     RDKit          3D

 25 24  0  0  1  0  0  0  0  0999 V2000
   24.6474  -21.4464   -7.2366 N   0  0  0  0  0  0  0  0  0  0  0  0
   23.5401  -21.1665   -8.0765 C   0  0  0  0  0  0  0  0  0  0  0  0
   22.4025  -21.3268   -7.5993 O   0  0  0  0  0  0  0  0  0  0  0  0
   23.7549  -20.7082   -9.4473 C   0  0  0  0  0  0  0  0  0  0  0  0
   25.1843  -20.7228   -9.9034 C   0  0  2  0  0  0  0  0  0  0  0  0
   25.9820  -19.9210   -9.0055 N   0  0  0  0  0  0  0  0  0  0  0  0
   25.3685  -20.1807  -11.2844 C   0  0  0  0  0  0  0  0  0  0  0  0
   25.5119  -18.9447  -11.4390 O   0  0  0  0  0  0  0  0  0  0  0  0
   26.5382  -22.5904  -14.8210 C   0  0  0  0  0  0  0  0  0  0  0  0
   26.6664  -21.1374  -14.4460 C   0  0  2  0  0  0  0  0  0  0  0  0
   27.9965  -20.9621  -13.7361 C   0  0  0  0  0  0  0  0  0  0  0  0
   25.5285  -20.5208  -13.7489 C   0  0  2  0  0  0  0  0  0  0  0  0
   25.3844  -21.0298  -12.4010 N   0  0  0  0  0  0  0  0  0  0  0  0
   24.2769  -20.2999  -14.4490 C   0  0  0  0  0  0  0  0  0  0  0  0
   23.3262  -21.1390  -14.2313 O   0  0  0  0  0  0  0  0  0  0  0  0
   23.9877  -19.2735  -15.3349 N   0  0  0  0  0  0  0  0  0  0  0  0
   22.7204  -19.1198  -16.0389 C   0  0  1  0  0  0  0  0  0  0  0  0
   22.6856  -17.8231  -16.8241 C   0  0  0  0  0  0  0  0  0  0  0  0
   21.3531  -17.7127  -17.5444 C   0  0  0  0  0  0  0  0  0  0  0  0
   21.2553  -16.4638  -18.3252 C   0  0  0  0  0  0  0  0  0  0  0  0
   21.2810  -16.4895  -19.5768 O   0  0  0  0  0  0  0  0  0  0  0  0
   22.6087  -20.2315  -17.0052 C   0  0  0  0  0  0  0  0  0  0  0  0
   21.3751  -20.7855  -17.2763 O   0  0  0  0  0  0  0  0  0  0  0  0
   21.1305  -15.1999  -17.7366 O   0  0  0  0  0  0  0  0  0  0  0  0
   23.6217  -20.6791  -17.5829 O   0  0  0  0  0  0  0  0  0  0  0  0
  1  2  1  0
  2  4  1  0
  2  3  2  0
  5  7  1  0
  5  4  1  0
  5  6  1  1
  7  8  2  0
 10  9  1  1
 10 11  1  0
 10 12  1  0
 12 14  1  0
 12 13  1  1
 13  7  1  0
 14 15  2  0
 14 16  1  0
 16 17  1  0
 17 22  1  0
 17 18  1  6
 19 18  1  0
 20 19  1  0
 21 20  2  0
 22 23  1  0
 24 20  1  0
 25 22  2  0
M  END
$$$$
