NVE.pdb
     RDKit          3D

 25 24  0  0  1  0  0  0  0  0999 V2000
   17.0223  -11.9036  -19.4833 N   0  0  0  0  0  0  0  0  0  0  0  0
   17.1403  -10.5060  -19.2768 C   0  0  0  0  0  0  0  0  0  0  0  0
   16.5945   -9.7552  -20.1050 O   0  0  0  0  0  0  0  0  0  0  0  0
   17.8810   -9.9931  -18.1263 C   0  0  0  0  0  0  0  0  0  0  0  0
   18.4735  -11.0444  -17.2346 C   0  0  2  0  0  0  0  0  0  0  0  0
   17.4120  -11.8214  -16.6387 N   0  0  0  0  0  0  0  0  0  0  0  0
   19.3023  -10.4793  -16.1261 C   0  0  0  0  0  0  0  0  0  0  0  0
   18.7484  -10.1880  -15.0396 O   0  0  0  0  0  0  0  0  0  0  0  0
   23.5369  -10.1074  -13.7775 C   0  0  0  0  0  0  0  0  0  0  0  0
   22.6498  -10.5507  -14.9109 C   0  0  2  0  0  0  0  0  0  0  0  0
   23.5426  -10.8584  -16.0993 C   0  0  0  0  0  0  0  0  0  0  0  0
   21.4952   -9.6997  -15.2324 C   0  0  2  0  0  0  0  0  0  0  0  0
   20.6810  -10.2734  -16.2835 N   0  0  0  0  0  0  0  0  0  0  0  0
   21.6486   -8.2586  -15.3047 C   0  0  0  0  0  0  0  0  0  0  0  0
   22.1535   -7.7752  -16.3848 O   0  0  0  0  0  0  0  0  0  0  0  0
   21.3069   -7.3343  -14.3295 N   0  0  0  0  0  0  0  0  0  0  0  0
   21.5352   -5.8983  -14.4334 C   0  0  1  0  0  0  0  0  0  0  0  0
   20.2248   -5.1354  -14.4312 C   0  0  0  0  0  0  0  0  0  0  0  0
   19.5337   -5.3289  -15.7697 C   0  0  0  0  0  0  0  0  0  0  0  0
   18.1578   -5.8378  -15.6062 C   0  0  0  0  0  0  0  0  0  0  0  0
   17.5650   -5.7347  -14.5081 O   0  0  0  0  0  0  0  0  0  0  0  0
   22.2989   -5.4801  -13.2401 C   0  0  0  0  0  0  0  0  0  0  0  0
   22.8130   -4.2025  -13.1657 O   0  0  0  0  0  0  0  0  0  0  0  0
   17.4407   -6.4535  -16.6387 O   0  0  0  0  0  0  0  0  0  0  0  0
   22.4864   -6.2722  -12.2926 O   0  0  0  0  0  0  0  0  0  0  0  0
  1  2  1  0
  2  4  1  0
  2  3  2  0
  5  7  1  0
  5  4  1  0
  5  6  1  1
  7  8  2  0
 10  9  1  1
 10 11  1  0
 10 12  1  0
 12 14  1  0
 12 13  1  6
 13  7  1  0
 14 15  2  0
 14 16  1  0
 16 17  1  0
 17 22  1  0
 17 18  1  1
 19 18  1  0
 20 19  1  0
 21 20  2  0
 22 23  1  0
 24 20  1  0
 25 22  2  0
M  END
$$$$
