NVE.pdb
     RDKit          3D

 25 24  0  0  1  0  0  0  0  0999 V2000
   16.9443  -13.2868  -12.4991 N   0  0  0  0  0  0  0  0  0  0  0  0
   17.6168  -12.1044  -12.8988 C   0  0  0  0  0  0  0  0  0  0  0  0
   18.7028  -12.2340  -13.4915 O   0  0  0  0  0  0  0  0  0  0  0  0
   17.0341  -10.7952  -12.6128 C   0  0  0  0  0  0  0  0  0  0  0  0
   15.8630  -10.8144  -11.6749 C   0  0  2  0  0  0  0  0  0  0  0  0
   14.7817  -11.5614  -12.2736 N   0  0  0  0  0  0  0  0  0  0  0  0
   15.3475   -9.4500  -11.3467 C   0  0  0  0  0  0  0  0  0  0  0  0
   14.6625   -8.8368  -12.1994 O   0  0  0  0  0  0  0  0  0  0  0  0
   15.3615   -7.0863   -7.2852 C   0  0  0  0  0  0  0  0  0  0  0  0
   14.5016   -7.4854   -8.4553 C   0  0  2  0  0  0  0  0  0  0  0  0
   13.7805   -8.7670   -8.0792 C   0  0  0  0  0  0  0  0  0  0  0  0
   15.1425   -7.5236   -9.7777 C   0  0  2  0  0  0  0  0  0  0  0  0
   15.6166   -8.8516  -10.1068 N   0  0  0  0  0  0  0  0  0  0  0  0
   16.0223   -6.4471  -10.1933 C   0  0  0  0  0  0  0  0  0  0  0  0
   17.2862   -6.6876  -10.1911 O   0  0  0  0  0  0  0  0  0  0  0  0
   15.6487   -5.1749  -10.5982 N   0  0  0  0  0  0  0  0  0  0  0  0
   16.5420   -4.2110  -11.2291 C   0  0  1  0  0  0  0  0  0  0  0  0
   16.6668   -4.4748  -12.7171 C   0  0  0  0  0  0  0  0  0  0  0  0
   17.5846   -3.4327  -13.3322 C   0  0  0  0  0  0  0  0  0  0  0  0
   17.7782   -3.6595  -14.7778 C   0  0  0  0  0  0  0  0  0  0  0  0
   16.8448   -3.4549  -15.5870 O   0  0  0  0  0  0  0  0  0  0  0  0
   15.9436   -2.8709  -11.0606 C   0  0  0  0  0  0  0  0  0  0  0  0
   16.7548   -1.7563  -11.0179 O   0  0  0  0  0  0  0  0  0  0  0  0
   18.9850   -4.1064  -15.3286 O   0  0  0  0  0  0  0  0  0  0  0  0
   14.7066   -2.7330  -10.9554 O   0  0  0  0  0  0  0  0  0  0  0  0
  1  2  1  0
  2  4  1  0
  2  3  2  0
  5  7  1  0
  5  4  1  0
  5  6  1  6
  7  8  2  0
 10  9  1  1
 10 11  1  0
 10 12  1  0
 12 14  1  0
 12 13  1  1
 13  7  1  0
 14 15  2  0
 14 16  1  0
 16 17  1  0
 17 22  1  0
 17 18  1  6
 19 18  1  0
 20 19  1  0
 21 20  2  0
 22 23  1  0
 24 20  1  0
 25 22  2  0
M  END
$$$$
