NVE.pdb
     RDKit          3D

 25 24  0  0  1  0  0  0  0  0999 V2000
   25.7196  -14.9873  -15.4647 N   0  0  0  0  0  0  0  0  0  0  0  0
   26.2142  -13.6779  -15.2393 C   0  0  0  0  0  0  0  0  0  0  0  0
   27.3435  -13.5709  -14.7288 O   0  0  0  0  0  0  0  0  0  0  0  0
   25.4073  -12.5150  -15.6021 C   0  0  0  0  0  0  0  0  0  0  0  0
   23.9937  -12.8239  -15.9995 C   0  0  2  0  0  0  0  0  0  0  0  0
   23.9967  -13.5929  -17.2219 N   0  0  0  0  0  0  0  0  0  0  0  0
   23.1656  -11.6011  -16.2322 C   0  0  0  0  0  0  0  0  0  0  0  0
   23.3048  -10.9669  -17.3048 O   0  0  0  0  0  0  0  0  0  0  0  0
   19.3712  -10.9543  -14.2356 C   0  0  0  0  0  0  0  0  0  0  0  0
   19.9473  -10.4435  -15.5299 C   0  0  2  0  0  0  0  0  0  0  0  0
   19.5977  -11.4454  -16.6152 C   0  0  0  0  0  0  0  0  0  0  0  0
   21.3597  -10.0361  -15.5220 C   0  0  2  0  0  0  0  0  0  0  0  0
   22.2411  -11.1580  -15.2747 N   0  0  0  0  0  0  0  0  0  0  0  0
   21.7587   -8.7997  -14.8758 C   0  0  0  0  0  0  0  0  0  0  0  0
   22.3178   -8.8944  -13.7210 O   0  0  0  0  0  0  0  0  0  0  0  0
   21.6042   -7.5137  -15.3701 N   0  0  0  0  0  0  0  0  0  0  0  0
   22.0751   -6.3072  -14.7009 C   0  0  1  0  0  0  0  0  0  0  0  0
   21.8112   -5.0758  -15.5455 C   0  0  0  0  0  0  0  0  0  0  0  0
   22.3594   -3.8539  -14.8293 C   0  0  0  0  0  0  0  0  0  0  0  0
   22.1152   -2.6158  -15.5949 C   0  0  0  0  0  0  0  0  0  0  0  0
   21.5867   -2.6601  -16.7292 O   0  0  0  0  0  0  0  0  0  0  0  0
   21.3072   -6.1633  -13.4472 C   0  0  0  0  0  0  0  0  0  0  0  0
   20.0362   -6.6907  -13.3552 O   0  0  0  0  0  0  0  0  0  0  0  0
   22.4481   -1.3422  -15.1190 O   0  0  0  0  0  0  0  0  0  0  0  0
   21.7960   -5.5673  -12.4643 O   0  0  0  0  0  0  0  0  0  0  0  0
  1  2  1  0
  2  4  1  0
  2  3  2  0
  5  7  1  0
  5  4  1  0
  5  6  1  6
  7  8  2  0
 10  9  1  1
 10 11  1  0
 10 12  1  0
 12 14  1  0
 12 13  1  1
 13  7  1  0
 14 15  2  0
 14 16  1  0
 16 17  1  0
 17 22  1  0
 17 18  1  6
 19 18  1  0
 20 19  1  0
 21 20  2  0
 22 23  1  0
 24 20  1  0
 25 22  2  0
M  END
$$$$
