NVE.pdb
     RDKit          3D

 25 24  0  0  1  0  0  0  0  0999 V2000
   18.7443  -13.3413  -18.5478 N   0  0  0  0  0  0  0  0  0  0  0  0
   18.6350  -11.9376  -18.7136 C   0  0  0  0  0  0  0  0  0  0  0  0
   17.8580  -11.5220  -19.5918 O   0  0  0  0  0  0  0  0  0  0  0  0
   19.4169  -11.0350  -17.8714 C   0  0  0  0  0  0  0  0  0  0  0  0
   20.3048  -11.7133  -16.8699 C   0  0  2  0  0  0  0  0  0  0  0  0
   19.4907  -12.4181  -15.9076 N   0  0  0  0  0  0  0  0  0  0  0  0
   21.1796  -10.7626  -16.1176 C   0  0  0  0  0  0  0  0  0  0  0  0
   20.7359  -10.2199  -15.0779 O   0  0  0  0  0  0  0  0  0  0  0  0
   25.0147  -11.2397  -15.1104 C   0  0  0  0  0  0  0  0  0  0  0  0
   24.7229   -9.9468  -15.8255 C   0  0  2  0  0  0  0  0  0  0  0  0
   25.6806   -8.8988  -15.2884 C   0  0  0  0  0  0  0  0  0  0  0  0
   23.3207   -9.5087  -15.8756 C   0  0  2  0  0  0  0  0  0  0  0  0
   22.4806  -10.4727  -16.5551 N   0  0  0  0  0  0  0  0  0  0  0  0
   22.9992   -8.1219  -16.1569 C   0  0  0  0  0  0  0  0  0  0  0  0
   23.2782   -7.6813  -17.3329 O   0  0  0  0  0  0  0  0  0  0  0  0
   22.4174   -7.2093  -15.2905 N   0  0  0  0  0  0  0  0  0  0  0  0
   22.1085   -5.8257  -15.6303 C   0  0  1  0  0  0  0  0  0  0  0  0
   20.6870   -5.4716  -15.2391 C   0  0  0  0  0  0  0  0  0  0  0  0
   19.8549   -5.2908  -16.4967 C   0  0  0  0  0  0  0  0  0  0  0  0
   18.4874   -4.8299  -16.1860 C   0  0  0  0  0  0  0  0  0  0  0  0
   18.0803   -4.7900  -15.0026 O   0  0  0  0  0  0  0  0  0  0  0  0
   23.0165   -4.9608  -14.8496 C   0  0  0  0  0  0  0  0  0  0  0  0
   23.3154   -3.6925  -15.3015 O   0  0  0  0  0  0  0  0  0  0  0  0
   17.5767   -4.4171  -17.1657 O   0  0  0  0  0  0  0  0  0  0  0  0
   23.5201   -5.3648  -13.7803 O   0  0  0  0  0  0  0  0  0  0  0  0
  1  2  1  0
  2  4  1  0
  2  3  2  0
  5  7  1  0
  5  4  1  0
  5  6  1  1
  7  8  2  0
 10  9  1  1
 10 11  1  0
 10 12  1  0
 12 14  1  0
 12 13  1  6
 13  7  1  0
 14 15  2  0
 14 16  1  0
 16 17  1  0
 17 22  1  0
 17 18  1  1
 19 18  1  0
 20 19  1  0
 21 20  2  0
 22 23  1  0
 24 20  1  0
 25 22  2  0
M  END
$$$$
