QRI.pdb
     RDKit          3D

 29 28  0  0  1  0  0  0  0  0999 V2000
    8.1750  -15.4641   15.4199 N   0  0  0  0  0  0  0  0  0  0  0  0
    9.2131  -14.8626   16.1760 C   0  0  0  0  0  0  0  0  0  0  0  0
   10.3832  -14.7780   15.7382 O   0  0  0  0  0  0  0  0  0  0  0  0
    8.9600  -14.2932   17.5484 C   0  0  0  0  0  0  0  0  0  0  0  0
    7.5346  -14.4479   17.9424 C   0  0  0  0  0  0  0  0  0  0  0  0
    7.1935  -14.0971   19.3517 C   0  0  2  0  0  0  0  0  0  0  0  0
    8.0107  -12.9176   19.6869 N   0  0  0  0  0  0  0  0  0  0  0  0
    7.5162  -15.1645   20.3415 C   0  0  0  0  0  0  0  0  0  0  0  0
    7.2838  -16.3630   20.0359 O   0  0  0  0  0  0  0  0  0  0  0  0
   11.3181  -22.2551   22.4062 N   0  0  0  0  0  0  0  0  0  0  0  0
   10.8633  -21.2126   23.2538 C   0  0  0  0  0  0  0  0  0  0  0  0
    9.9919  -21.5058   24.1477 N   0  0  0  0  0  0  0  0  0  0  0  0
   11.3179  -19.8711   23.1663 N   0  0  0  0  0  0  0  0  0  0  0  0
   10.7586  -18.9342   22.2163 C   0  0  0  0  0  0  0  0  0  0  0  0
    9.8801  -17.9299   22.9314 C   0  0  0  0  0  0  0  0  0  0  0  0
    9.3923  -16.8979   21.9411 C   0  0  0  0  0  0  0  0  0  0  0  0
    8.5751  -15.8247   22.5614 C   0  0  2  0  0  0  0  0  0  0  0  0
    8.0769  -14.8627   21.6102 N   0  0  0  0  0  0  0  0  0  0  0  0
    9.1583  -15.2185   23.7880 C   0  0  0  0  0  0  0  0  0  0  0  0
   10.3448  -14.8430   23.9023 O   0  0  0  0  0  0  0  0  0  0  0  0
    9.6049  -20.8283   24.8408 C   0  0  0  0  0  0  0  0  0  0  0  0
    6.1480  -11.5397   25.7515 C   0  0  0  0  0  0  0  0  0  0  0  0
    7.3574  -12.4070   25.3953 C   0  0  2  0  0  0  0  0  0  0  0  0
    7.7260  -13.3130   26.5254 C   0  0  0  0  0  0  0  0  0  0  0  0
    8.1880  -12.4664   27.7004 C   0  0  2  0  0  0  0  0  0  0  0  0
    8.8075  -14.2693   26.0954 N   0  0  0  0  0  0  0  0  0  0  0  0
    8.3264  -15.0440   24.9209 C   0  0  0  0  0  0  0  0  0  0  0  0
    9.0479  -15.2540   27.1596 O   0  0  0  0  0  0  0  0  0  0  0  0
    9.6582  -14.8894   28.2032 O   0  0  0  0  0  0  0  0  0  0  0  0
  2  1  1  0
  2  3  2  0
  4  2  1  0
  5  6  1  0
  5  4  1  0
  6  7  1  1
  8  9  2  0
  8  6  1  0
 10 11  1  0
 11 12  2  0
 13 11  1  0
 13 14  1  0
 15 14  1  0
 16 15  1  0
 17 16  1  6
 17 18  1  0
 18  8  1  0
 19 26  1  0
 19 17  1  0
 20 19  2  0
 22 21  1  0
 23 22  1  0
 23 25  1  0
 23 24  1  1
 25 26  1  6
 25 27  1  0
 27 29  1  0
 28 27  2  0
M  END
$$$$
