QRI.pdb
     RDKit          3D

 29 28  0  0  1  0  0  0  0  0999 V2000
    8.3282  -14.6650   16.3275 N   0  0  0  0  0  0  0  0  0  0  0  0
    7.7778  -13.9129   17.3962 C   0  0  0  0  0  0  0  0  0  0  0  0
    7.4194  -12.7222   17.2481 O   0  0  0  0  0  0  0  0  0  0  0  0
    7.5957  -14.5100   18.7682 C   0  0  0  0  0  0  0  0  0  0  0  0
    7.9973  -15.9415   18.7915 C   0  0  0  0  0  0  0  0  0  0  0  0
    8.9495  -16.3465   19.8660 C   0  0  2  0  0  0  0  0  0  0  0  0
    9.1629  -17.7946   19.6963 N   0  0  0  0  0  0  0  0  0  0  0  0
    8.4386  -16.1257   21.2493 C   0  0  0  0  0  0  0  0  0  0  0  0
    8.1870  -14.9499   21.6206 O   0  0  0  0  0  0  0  0  0  0  0  0
    5.3640  -23.3234   24.7073 N   0  0  0  0  0  0  0  0  0  0  0  0
    4.8981  -22.6937   23.5248 C   0  0  0  0  0  0  0  0  0  0  0  0
    4.0857  -23.3480   22.7790 N   0  0  0  0  0  0  0  0  0  0  0  0
    5.2805  -21.3868   23.1251 N   0  0  0  0  0  0  0  0  0  0  0  0
    6.1893  -20.5814   23.9116 C   0  0  0  0  0  0  0  0  0  0  0  0
    6.4274  -19.2504   23.2308 C   0  0  0  0  0  0  0  0  0  0  0  0
    7.3465  -18.4089   24.0857 C   0  0  0  0  0  0  0  0  0  0  0  0
    7.6798  -17.0958   23.4782 C   0  0  2  0  0  0  0  0  0  0  0  0
    8.2291  -17.2030   22.1496 N   0  0  0  0  0  0  0  0  0  0  0  0
    8.4202  -16.1606   24.3668 C   0  0  0  0  0  0  0  0  0  0  0  0
    9.6606  -16.0088   24.3660 O   0  0  0  0  0  0  0  0  0  0  0  0
    3.6805  -22.9874   21.8874 C   0  0  0  0  0  0  0  0  0  0  0  0
    5.4610  -11.9590   26.3465 C   0  0  0  0  0  0  0  0  0  0  0  0
    6.6320  -12.7462   25.7541 C   0  0  2  0  0  0  0  0  0  0  0  0
    7.3672  -13.5026   26.8130 C   0  0  0  0  0  0  0  0  0  0  0  0
    8.0361  -12.5087   27.7488 C   0  0  2  0  0  0  0  0  0  0  0  0
    8.3858  -14.4189   26.1871 N   0  0  0  0  0  0  0  0  0  0  0  0
    7.6859  -15.3746   25.2882 C   0  0  0  0  0  0  0  0  0  0  0  0
    9.0225  -15.2354   27.2300 O   0  0  0  0  0  0  0  0  0  0  0  0
    8.4509  -16.2950   27.6109 O   0  0  0  0  0  0  0  0  0  0  0  0
  2  1  1  0
  2  3  2  0
  4  2  1  0
  5  6  1  0
  5  4  1  0
  6  7  1  1
  8  9  2  0
  8  6  1  0
 10 11  1  0
 11 12  2  0
 13 11  1  0
 13 14  1  0
 15 14  1  0
 16 15  1  0
 17 16  1  1
 17 18  1  0
 18  8  1  0
 19 26  1  0
 19 17  1  0
 20 19  2  0
 22 21  1  0
 23 22  1  0
 23 25  1  0
 23 24  1  1
 25 26  1  6
 25 27  1  0
 27 29  1  0
 28 27  2  0
M  END
$$$$
