QRI.pdb
     RDKit          3D

 29 28  0  0  1  0  0  0  0  0999 V2000
   10.1928  -14.1806   17.1166 N   0  0  0  0  0  0  0  0  0  0  0  0
    8.8042  -14.0957   16.8421 C   0  0  0  0  0  0  0  0  0  0  0  0
    8.3079  -14.5786   15.7988 O   0  0  0  0  0  0  0  0  0  0  0  0
    7.8527  -13.4180   17.7946 C   0  0  0  0  0  0  0  0  0  0  0  0
    8.2927  -13.5826   19.2054 C   0  0  0  0  0  0  0  0  0  0  0  0
    8.3857  -14.9823   19.7128 C   0  0  2  0  0  0  0  0  0  0  0  0
    7.5807  -15.8038   18.7917 N   0  0  0  0  0  0  0  0  0  0  0  0
    7.8336  -15.1721   21.0848 C   0  0  0  0  0  0  0  0  0  0  0  0
    7.1878  -14.2297   21.6125 O   0  0  0  0  0  0  0  0  0  0  0  0
    8.8479  -21.1289   28.4255 N   0  0  0  0  0  0  0  0  0  0  0  0
    8.1761  -21.1014   27.1765 C   0  0  0  0  0  0  0  0  0  0  0  0
    8.2220  -22.1566   26.4493 N   0  0  0  0  0  0  0  0  0  0  0  0
    7.4604  -19.9759   26.6915 N   0  0  0  0  0  0  0  0  0  0  0  0
    7.2330  -19.7648   25.2785 C   0  0  0  0  0  0  0  0  0  0  0  0
    7.1677  -18.2825   24.9776 C   0  0  0  0  0  0  0  0  0  0  0  0
    7.5753  -18.0454   23.5418 C   0  0  0  0  0  0  0  0  0  0  0  0
    7.6546  -16.6075   23.1807 C   0  0  2  0  0  0  0  0  0  0  0  0
    8.0163  -16.3826   21.8033 N   0  0  0  0  0  0  0  0  0  0  0  0
    8.3949  -15.7550   24.1489 C   0  0  0  0  0  0  0  0  0  0  0  0
    9.6305  -15.5682   24.1342 O   0  0  0  0  0  0  0  0  0  0  0  0
    7.8262  -22.2287   25.4864 C   0  0  0  0  0  0  0  0  0  0  0  0
    5.6731  -11.5168   26.2240 C   0  0  0  0  0  0  0  0  0  0  0  0
    6.8328  -12.3617   25.6918 C   0  0  2  0  0  0  0  0  0  0  0  0
    7.3736  -13.2675   26.7505 C   0  0  0  0  0  0  0  0  0  0  0  0
    8.0232  -12.4210   27.8333 C   0  0  2  0  0  0  0  0  0  0  0  0
    8.3668  -14.2308   26.1549 N   0  0  0  0  0  0  0  0  0  0  0  0
    7.6665  -15.0969   25.1698 C   0  0  0  0  0  0  0  0  0  0  0  0
    8.8696  -15.1318   27.2014 O   0  0  0  0  0  0  0  0  0  0  0  0
    8.2040  -16.1655   27.4897 O   0  0  0  0  0  0  0  0  0  0  0  0
  2  1  1  0
  2  3  2  0
  4  2  1  0
  5  6  1  0
  5  4  1  0
  6  7  1  6
  8  9  2  0
  8  6  1  0
 10 11  1  0
 11 12  2  0
 13 11  1  0
 13 14  1  0
 15 14  1  0
 16 15  1  0
 17 16  1  1
 17 18  1  0
 18  8  1  0
 19 26  1  0
 19 17  1  0
 20 19  2  0
 22 21  1  0
 23 22  1  0
 23 25  1  0
 23 24  1  1
 25 26  1  6
 25 27  1  0
 27 29  1  0
 28 27  2  0
M  END
$$$$
