QRI.pdb
     RDKit          3D

 29 28  0  0  1  0  0  0  0  0999 V2000
    7.8205  -12.5008   17.8243 N   0  0  0  0  0  0  0  0  0  0  0  0
    8.7755  -12.6458   18.8625 C   0  0  0  0  0  0  0  0  0  0  0  0
    9.5208  -11.7012   19.2090 O   0  0  0  0  0  0  0  0  0  0  0  0
    8.9422  -13.9478   19.6034 C   0  0  0  0  0  0  0  0  0  0  0  0
    7.8952  -14.9288   19.2131 C   0  0  0  0  0  0  0  0  0  0  0  0
    7.9840  -16.2794   19.8404 C   0  0  2  0  0  0  0  0  0  0  0  0
    6.7751  -17.0064   19.4146 N   0  0  0  0  0  0  0  0  0  0  0  0
    7.9962  -16.2603   21.3313 C   0  0  0  0  0  0  0  0  0  0  0  0
    9.0002  -15.7838   21.9218 O   0  0  0  0  0  0  0  0  0  0  0  0
    7.1178  -21.6597   28.9226 N   0  0  0  0  0  0  0  0  0  0  0  0
    7.7030  -21.0754   27.7702 C   0  0  0  0  0  0  0  0  0  0  0  0
    8.9550  -20.8010   27.8089 N   0  0  0  0  0  0  0  0  0  0  0  0
    6.9820  -20.7801   26.5841 N   0  0  0  0  0  0  0  0  0  0  0  0
    7.6407  -20.3071   25.3860 C   0  0  0  0  0  0  0  0  0  0  0  0
    7.4228  -18.8176   25.2257 C   0  0  0  0  0  0  0  0  0  0  0  0
    7.0581  -18.5173   23.7902 C   0  0  0  0  0  0  0  0  0  0  0  0
    6.9381  -17.0656   23.5031 C   0  0  2  0  0  0  0  0  0  0  0  0
    6.9091  -16.7615   22.0941 N   0  0  0  0  0  0  0  0  0  0  0  0
    7.8442  -16.1903   24.2938 C   0  0  0  0  0  0  0  0  0  0  0  0
    9.0693  -16.0589   24.0847 O   0  0  0  0  0  0  0  0  0  0  0  0
    9.4768  -20.3112   27.0494 C   0  0  0  0  0  0  0  0  0  0  0  0
    5.4419  -11.8136   26.4084 C   0  0  0  0  0  0  0  0  0  0  0  0
    6.5991  -12.6012   25.7899 C   0  0  2  0  0  0  0  0  0  0  0  0
    7.2618  -13.4765   26.8041 C   0  0  0  0  0  0  0  0  0  0  0  0
    8.0645  -12.6028   27.7544 C   0  0  2  0  0  0  0  0  0  0  0  0
    8.1501  -14.4841   26.1223 N   0  0  0  0  0  0  0  0  0  0  0  0
    7.3003  -15.4416   25.3660 C   0  0  0  0  0  0  0  0  0  0  0  0
    8.8586  -15.2817   27.1330 O   0  0  0  0  0  0  0  0  0  0  0  0
    8.3301  -16.3505   27.5488 O   0  0  0  0  0  0  0  0  0  0  0  0
  2  1  1  0
  2  3  2  0
  4  2  1  0
  5  6  1  0
  5  4  1  0
  6  7  1  1
  8  9  2  0
  8  6  1  0
 10 11  1  0
 11 12  2  0
 13 11  1  0
 13 14  1  0
 15 14  1  0
 16 15  1  0
 17 16  1  6
 17 18  1  0
 18  8  1  0
 19 26  1  0
 19 17  1  0
 20 19  2  0
 22 21  1  0
 23 22  1  0
 23 25  1  0
 23 24  1  1
 25 26  1  6
 25 27  1  0
 27 29  1  0
 28 27  2  0
M  END
$$$$
