QRI.pdb
     RDKit          3D

 29 28  0  0  1  0  0  0  0  0999 V2000
   13.7833  -19.1725   17.0573 N   0  0  0  0  0  0  0  0  0  0  0  0
   13.5452  -17.9528   17.7405 C   0  0  0  0  0  0  0  0  0  0  0  0
   13.2938  -16.8913   17.1257 O   0  0  0  0  0  0  0  0  0  0  0  0
   13.5830  -17.8721   19.2451 C   0  0  0  0  0  0  0  0  0  0  0  0
   12.5358  -16.9521   19.7627 C   0  0  0  0  0  0  0  0  0  0  0  0
   11.8267  -17.3834   21.0022 C   0  0  2  0  0  0  0  0  0  0  0  0
   10.8111  -18.3603   20.5713 N   0  0  0  0  0  0  0  0  0  0  0  0
   11.1181  -16.2819   21.7147 C   0  0  0  0  0  0  0  0  0  0  0  0
   11.7183  -15.6756   22.6399 O   0  0  0  0  0  0  0  0  0  0  0  0
    8.3274  -15.7554   16.9123 N   0  0  0  0  0  0  0  0  0  0  0  0
    7.8806  -14.4365   16.6424 C   0  0  0  0  0  0  0  0  0  0  0  0
    8.1061  -13.9556   15.4753 N   0  0  0  0  0  0  0  0  0  0  0  0
    7.2016  -13.6257   17.5888 N   0  0  0  0  0  0  0  0  0  0  0  0
    6.8758  -14.1060   18.9140 C   0  0  0  0  0  0  0  0  0  0  0  0
    8.1406  -14.4780   19.6582 C   0  0  0  0  0  0  0  0  0  0  0  0
    7.8924  -14.3806   21.1457 C   0  0  0  0  0  0  0  0  0  0  0  0
    9.0489  -14.8190   21.9669 C   0  0  2  0  0  0  0  0  0  0  0  0
    9.7930  -15.9027   21.3750 N   0  0  0  0  0  0  0  0  0  0  0  0
    8.7603  -15.0013   23.4146 C   0  0  0  0  0  0  0  0  0  0  0  0
    8.9260  -16.0673   24.0454 O   0  0  0  0  0  0  0  0  0  0  0  0
    7.9040  -12.9718   15.1920 C   0  0  0  0  0  0  0  0  0  0  0  0
    6.9395  -11.4042   28.1902 C   0  0  0  0  0  0  0  0  0  0  0  0
    7.3287  -12.7687   27.6171 C   0  0  2  0  0  0  0  0  0  0  0  0
    7.5129  -12.7014   26.1354 C   0  0  0  0  0  0  0  0  0  0  0  0
    6.1887  -12.3181   25.4948 C   0  0  2  0  0  0  0  0  0  0  0  0
    7.9991  -14.0267   25.6098 N   0  0  0  0  0  0  0  0  0  0  0  0
    8.2611  -13.8997   24.1516 C   0  0  0  0  0  0  0  0  0  0  0  0
    6.9354  -15.0317   25.7445 O   0  0  0  0  0  0  0  0  0  0  0  0
    6.0845  -15.1490   24.8188 O   0  0  0  0  0  0  0  0  0  0  0  0
  2  1  1  0
  2  3  2  0
  4  2  1  0
  5  6  1  0
  5  4  1  0
  6  7  1  6
  8  9  2  0
  8  6  1  0
 10 11  1  0
 11 12  2  0
 13 11  1  0
 13 14  1  0
 15 14  1  0
 16 15  1  0
 17 16  1  6
 17 18  1  0
 18  8  1  0
 19 26  1  0
 19 17  1  0
 20 19  2  0
 22 21  1  0
 23 22  1  0
 23 25  1  0
 23 24  1  6
 25 26  1  1
 25 27  1  0
 27 29  1  0
 28 27  2  0
M  END
$$$$
