QRI.pdb
     RDKit          3D

 29 28  0  0  1  0  0  0  0  0999 V2000
    6.6572  -19.7947   28.6748 N   0  0  0  0  0  0  0  0  0  0  0  0
    7.8892  -19.9392   27.9876 C   0  0  0  0  0  0  0  0  0  0  0  0
    8.9495  -20.2262   28.5889 O   0  0  0  0  0  0  0  0  0  0  0  0
    7.9853  -19.7542   26.4948 C   0  0  0  0  0  0  0  0  0  0  0  0
    6.6442  -19.5365   25.8905 C   0  0  0  0  0  0  0  0  0  0  0  0
    6.5864  -19.4937   24.4005 C   0  0  2  0  0  0  0  0  0  0  0  0
    7.1493  -20.7732   23.9342 N   0  0  0  0  0  0  0  0  0  0  0  0
    7.3925  -18.3980   23.7897 C   0  0  0  0  0  0  0  0  0  0  0  0
    8.6083  -18.6078   23.5416 O   0  0  0  0  0  0  0  0  0  0  0  0
    8.6639  -13.3562   17.4405 N   0  0  0  0  0  0  0  0  0  0  0  0
    8.3776  -12.4704   18.5107 C   0  0  0  0  0  0  0  0  0  0  0  0
    9.1431  -11.4536   18.6667 N   0  0  0  0  0  0  0  0  0  0  0  0
    7.2963  -12.6480   19.4126 N   0  0  0  0  0  0  0  0  0  0  0  0
    6.8323  -13.9619   19.8015 C   0  0  0  0  0  0  0  0  0  0  0  0
    7.6637  -14.4880   20.9521 C   0  0  0  0  0  0  0  0  0  0  0  0
    6.7795  -15.2815   21.8860 C   0  0  0  0  0  0  0  0  0  0  0  0
    7.5333  -16.0001   22.9441 C   0  0  2  0  0  0  0  0  0  0  0  0
    6.8241  -17.1343   23.4820 N   0  0  0  0  0  0  0  0  0  0  0  0
    8.1552  -15.1286   23.9766 C   0  0  0  0  0  0  0  0  0  0  0  0
    8.2744  -13.8880   23.8840 O   0  0  0  0  0  0  0  0  0  0  0  0
    9.0027  -10.7128   19.3882 C   0  0  0  0  0  0  0  0  0  0  0  0
    6.0928  -12.4908   26.2711 C   0  0  0  0  0  0  0  0  0  0  0  0
    7.3404  -13.2266   25.7774 C   0  0  2  0  0  0  0  0  0  0  0  0
    7.8885  -14.1320   26.8326 C   0  0  0  0  0  0  0  0  0  0  0  0
    8.2657  -13.2972   28.0457 C   0  0  2  0  0  0  0  0  0  0  0  0
    9.0835  -14.8830   26.3060 N   0  0  0  0  0  0  0  0  0  0  0  0
    8.6549  -15.7268   25.1591 C   0  0  0  0  0  0  0  0  0  0  0  0
    9.5740  -15.8132   27.3326 O   0  0  0  0  0  0  0  0  0  0  0  0
    9.1418  -16.9997   27.3391 O   0  0  0  0  0  0  0  0  0  0  0  0
  2  1  1  0
  2  3  2  0
  4  2  1  0
  5  6  1  0
  5  4  1  0
  6  7  1  6
  8  9  2  0
  8  6  1  0
 10 11  1  0
 11 12  2  0
 13 11  1  0
 13 14  1  0
 15 14  1  0
 16 15  1  0
 17 16  1  1
 17 18  1  0
 18  8  1  0
 19 26  1  0
 19 17  1  0
 20 19  2  0
 22 21  1  0
 23 22  1  0
 23 25  1  0
 23 24  1  1
 25 26  1  6
 25 27  1  0
 27 29  1  0
 28 27  2  0
M  END
$$$$
