QRI.pdb
     RDKit          3D

 29 28  0  0  1  0  0  0  0  0999 V2000
   16.2843  -13.5194   18.8311 N   0  0  0  0  0  0  0  0  0  0  0  0
   16.3992  -13.9896   20.1640 C   0  0  0  0  0  0  0  0  0  0  0  0
   17.3358  -13.6275   20.9122 O   0  0  0  0  0  0  0  0  0  0  0  0
   15.3972  -14.9515   20.7493 C   0  0  0  0  0  0  0  0  0  0  0  0
   14.3354  -15.2901   19.7651 C   0  0  0  0  0  0  0  0  0  0  0  0
   13.2534  -16.1996   20.2421 C   0  0  2  0  0  0  0  0  0  0  0  0
   12.3905  -16.4532   19.0749 N   0  0  0  0  0  0  0  0  0  0  0  0
   12.3980  -15.6194   21.3168 C   0  0  0  0  0  0  0  0  0  0  0  0
   12.2477  -14.3708   21.3622 O   0  0  0  0  0  0  0  0  0  0  0  0
    7.8090  -14.3699   18.3760 N   0  0  0  0  0  0  0  0  0  0  0  0
    7.4817  -13.4638   19.4171 C   0  0  0  0  0  0  0  0  0  0  0  0
    7.6152  -12.2101   19.1830 N   0  0  0  0  0  0  0  0  0  0  0  0
    7.0174  -13.8676   20.6960 N   0  0  0  0  0  0  0  0  0  0  0  0
    7.4867  -15.0789   21.3329 C   0  0  0  0  0  0  0  0  0  0  0  0
    8.8386  -14.8411   21.9714 C   0  0  0  0  0  0  0  0  0  0  0  0
    9.3429  -16.1337   22.5703 C   0  0  0  0  0  0  0  0  0  0  0  0
   10.6965  -16.0181   23.1691 C   0  0  2  0  0  0  0  0  0  0  0  0
   11.7526  -16.4367   22.2814 N   0  0  0  0  0  0  0  0  0  0  0  0
   10.8207  -16.5502   24.5525 C   0  0  0  0  0  0  0  0  0  0  0  0
   11.3295  -17.6525   24.8488 O   0  0  0  0  0  0  0  0  0  0  0  0
    7.5136  -11.4603   19.9017 C   0  0  0  0  0  0  0  0  0  0  0  0
    9.9157  -12.7061   28.5243 C   0  0  0  0  0  0  0  0  0  0  0  0
   10.5664  -13.7812   27.6511 C   0  0  2  0  0  0  0  0  0  0  0  0
   10.0143  -15.1358   27.9579 C   0  0  0  0  0  0  0  0  0  0  0  0
   10.3188  -15.4708   29.4091 C   0  0  2  0  0  0  0  0  0  0  0  0
   10.6120  -16.1640   27.0335 N   0  0  0  0  0  0  0  0  0  0  0  0
   10.3341  -15.7672   25.6276 C   0  0  0  0  0  0  0  0  0  0  0  0
    9.9393  -17.4557   27.2305 O   0  0  0  0  0  0  0  0  0  0  0  0
    8.8601  -17.6830   26.6155 O   0  0  0  0  0  0  0  0  0  0  0  0
  2  1  1  0
  2  3  2  0
  4  2  1  0
  5  6  1  0
  5  4  1  0
  6  7  1  6
  8  9  2  0
  8  6  1  0
 10 11  1  0
 11 12  2  0
 13 11  1  0
 13 14  1  0
 15 14  1  0
 16 15  1  0
 17 16  1  6
 17 18  1  0
 18  8  1  0
 19 26  1  0
 19 17  1  0
 20 19  2  0
 22 21  1  0
 23 22  1  0
 23 25  1  0
 23 24  1  6
 25 26  1  1
 25 27  1  0
 27 29  1  0
 28 27  2  0
M  END
$$$$
