QRI.pdb
     RDKit          3D

 29 28  0  0  1  0  0  0  0  0999 V2000
   12.5328  -15.4207   18.5045 N   0  0  0  0  0  0  0  0  0  0  0  0
   12.3221  -14.1789   19.1561 C   0  0  0  0  0  0  0  0  0  0  0  0
   13.2766  -13.4443   19.4988 O   0  0  0  0  0  0  0  0  0  0  0  0
   10.9353  -13.6791   19.4700 C   0  0  0  0  0  0  0  0  0  0  0  0
    9.8980  -14.6388   19.0073 C   0  0  0  0  0  0  0  0  0  0  0  0
    8.4798  -14.2677   19.2832 C   0  0  2  0  0  0  0  0  0  0  0  0
    8.3866  -12.8153   19.0523 N   0  0  0  0  0  0  0  0  0  0  0  0
    8.0417  -14.5299   20.6842 C   0  0  0  0  0  0  0  0  0  0  0  0
    7.8410  -13.5504   21.4484 O   0  0  0  0  0  0  0  0  0  0  0  0
    8.7154  -21.0826   25.8806 N   0  0  0  0  0  0  0  0  0  0  0  0
    7.3675  -20.8468   26.2541 C   0  0  0  0  0  0  0  0  0  0  0  0
    6.9020  -21.4971   27.2564 N   0  0  0  0  0  0  0  0  0  0  0  0
    6.5118  -19.9355   25.5822 N   0  0  0  0  0  0  0  0  0  0  0  0
    6.7390  -19.5437   24.2082 C   0  0  0  0  0  0  0  0  0  0  0  0
    6.8614  -18.0380   24.1098 C   0  0  0  0  0  0  0  0  0  0  0  0
    7.1977  -17.6557   22.6870 C   0  0  0  0  0  0  0  0  0  0  0  0
    7.4250  -16.1998   22.5051 C   0  0  2  0  0  0  0  0  0  0  0  0
    7.8454  -15.8485   21.1715 N   0  0  0  0  0  0  0  0  0  0  0  0
    8.2160  -15.5466   23.5821 C   0  0  0  0  0  0  0  0  0  0  0  0
    9.4644  -15.5258   23.6365 O   0  0  0  0  0  0  0  0  0  0  0  0
    5.9753  -21.3153   27.7004 C   0  0  0  0  0  0  0  0  0  0  0  0
    5.7961  -11.4973   26.5005 C   0  0  0  0  0  0  0  0  0  0  0  0
    6.8604  -12.3101   25.7599 C   0  0  2  0  0  0  0  0  0  0  0  0
    7.3409  -13.4567   26.5894 C   0  0  0  0  0  0  0  0  0  0  0  0
    8.0416  -12.9088   27.8222 C   0  0  2  0  0  0  0  0  0  0  0  0
    8.2716  -14.3272   25.7862 N   0  0  0  0  0  0  0  0  0  0  0  0
    7.5248  -14.8941   24.6321 C   0  0  0  0  0  0  0  0  0  0  0  0
    8.6967  -15.4763   26.5978 O   0  0  0  0  0  0  0  0  0  0  0  0
    7.9217  -16.4673   26.7075 O   0  0  0  0  0  0  0  0  0  0  0  0
  2  1  1  0
  2  3  2  0
  4  2  1  0
  5  6  1  0
  5  4  1  0
  6  7  1  1
  8  9  2  0
  8  6  1  0
 10 11  1  0
 11 12  2  0
 13 11  1  0
 13 14  1  0
 15 14  1  0
 16 15  1  0
 17 16  1  6
 17 18  1  0
 18  8  1  0
 19 26  1  0
 19 17  1  0
 20 19  2  0
 22 21  1  0
 23 22  1  0
 23 25  1  0
 23 24  1  1
 25 26  1  6
 25 27  1  0
 27 29  1  0
 28 27  2  0
M  END
$$$$
