QRI.pdb
     RDKit          3D

 29 28  0  0  1  0  0  0  0  0999 V2000
    8.8059  -14.5923   17.3783 N   0  0  0  0  0  0  0  0  0  0  0  0
    8.8505  -13.7963   18.5510 C   0  0  0  0  0  0  0  0  0  0  0  0
    9.6689  -12.8573   18.6795 O   0  0  0  0  0  0  0  0  0  0  0  0
    7.9127  -14.0407   19.7054 C   0  0  0  0  0  0  0  0  0  0  0  0
    6.9993  -15.1805   19.4267 C   0  0  0  0  0  0  0  0  0  0  0  0
    6.5053  -15.9405   20.6115 C   0  0  2  0  0  0  0  0  0  0  0  0
    5.7971  -14.9626   21.4562 N   0  0  0  0  0  0  0  0  0  0  0  0
    7.5853  -16.5512   21.4386 C   0  0  0  0  0  0  0  0  0  0  0  0
    7.9950  -17.7037   21.1428 O   0  0  0  0  0  0  0  0  0  0  0  0
   14.2262  -15.7260   24.3126 N   0  0  0  0  0  0  0  0  0  0  0  0
   14.7501  -16.7681   23.5055 C   0  0  0  0  0  0  0  0  0  0  0  0
   15.9975  -16.7272   23.2110 N   0  0  0  0  0  0  0  0  0  0  0  0
   13.9729  -17.8470   23.0093 N   0  0  0  0  0  0  0  0  0  0  0  0
   12.7371  -17.6316   22.2886 C   0  0  0  0  0  0  0  0  0  0  0  0
   11.6505  -17.1811   23.2415 C   0  0  0  0  0  0  0  0  0  0  0  0
   10.4381  -16.7496   22.4492 C   0  0  0  0  0  0  0  0  0  0  0  0
    9.3060  -16.3026   23.2993 C   0  0  2  0  0  0  0  0  0  0  0  0
    8.1589  -15.8672   22.5422 N   0  0  0  0  0  0  0  0  0  0  0  0
    9.6776  -15.3916   24.4148 C   0  0  0  0  0  0  0  0  0  0  0  0
   10.5765  -14.5253   24.3579 O   0  0  0  0  0  0  0  0  0  0  0  0
   16.4818  -17.4136   22.5919 C   0  0  0  0  0  0  0  0  0  0  0  0
    6.1941  -12.3988   26.2628 C   0  0  0  0  0  0  0  0  0  0  0  0
    7.5299  -13.0769   25.9506 C   0  0  2  0  0  0  0  0  0  0  0  0
    8.0557  -13.8120   27.1409 C   0  0  0  0  0  0  0  0  0  0  0  0
    8.3532  -12.8086   28.2433 C   0  0  2  0  0  0  0  0  0  0  0  0
    9.2944  -14.5851   26.7709 N   0  0  0  0  0  0  0  0  0  0  0  0
    8.9741  -15.4955   25.6397 C   0  0  0  0  0  0  0  0  0  0  0  0
    9.6881  -15.4524   27.8901 O   0  0  0  0  0  0  0  0  0  0  0  0
    9.2443  -16.6338   27.9334 O   0  0  0  0  0  0  0  0  0  0  0  0
  2  1  1  0
  2  3  2  0
  4  2  1  0
  5  6  1  0
  5  4  1  0
  6  7  1  1
  8  9  2  0
  8  6  1  0
 10 11  1  0
 11 12  2  0
 13 11  1  0
 13 14  1  0
 15 14  1  0
 16 15  1  0
 17 16  1  6
 17 18  1  0
 18  8  1  0
 19 26  1  0
 19 17  1  0
 20 19  2  0
 22 21  1  0
 23 22  1  0
 23 25  1  0
 23 24  1  1
 25 26  1  6
 25 27  1  0
 27 29  1  0
 28 27  2  0
M  END
$$$$
