QRI.pdb
     RDKit          3D

 29 28  0  0  1  0  0  0  0  0999 V2000
   13.6592  -20.1823   19.3305 N   0  0  0  0  0  0  0  0  0  0  0  0
   12.4022  -19.6189   18.9936 C   0  0  0  0  0  0  0  0  0  0  0  0
   12.0020  -19.5616   17.8084 O   0  0  0  0  0  0  0  0  0  0  0  0
   11.4817  -19.0592   20.0477 C   0  0  0  0  0  0  0  0  0  0  0  0
   12.0907  -19.1527   21.4010 C   0  0  0  0  0  0  0  0  0  0  0  0
   11.2820  -18.6118   22.5318 C   0  0  2  0  0  0  0  0  0  0  0  0
    9.9837  -19.3064   22.4728 N   0  0  0  0  0  0  0  0  0  0  0  0
   11.0136  -17.1476   22.4447 C   0  0  0  0  0  0  0  0  0  0  0  0
   11.9899  -16.3537   22.4304 O   0  0  0  0  0  0  0  0  0  0  0  0
    7.9122  -15.1346   17.9840 N   0  0  0  0  0  0  0  0  0  0  0  0
    7.8266  -13.7243   17.8587 C   0  0  0  0  0  0  0  0  0  0  0  0
    8.3088  -13.1876   16.7987 N   0  0  0  0  0  0  0  0  0  0  0  0
    7.2396  -12.8807   18.8374 N   0  0  0  0  0  0  0  0  0  0  0  0
    6.7780  -13.3911   20.1100 C   0  0  0  0  0  0  0  0  0  0  0  0
    7.9418  -13.5303   21.0680 C   0  0  0  0  0  0  0  0  0  0  0  0
    8.2621  -14.9951   21.2562 C   0  0  0  0  0  0  0  0  0  0  0  0
    9.3364  -15.2413   22.2510 C   0  0  2  0  0  0  0  0  0  0  0  0
    9.6926  -16.6327   22.3760 N   0  0  0  0  0  0  0  0  0  0  0  0
    9.1630  -14.5406   23.5515 C   0  0  0  0  0  0  0  0  0  0  0  0
    8.9659  -13.3131   23.6788 O   0  0  0  0  0  0  0  0  0  0  0  0
    8.2543  -12.1699   16.5739 C   0  0  0  0  0  0  0  0  0  0  0  0
    6.0550  -12.3732   25.4382 C   0  0  0  0  0  0  0  0  0  0  0  0
    7.4446  -12.9860   25.2504 C   0  0  2  0  0  0  0  0  0  0  0  0
    7.6725  -14.1144   26.2037 C   0  0  0  0  0  0  0  0  0  0  0  0
    7.4126  -13.6202   27.6176 C   0  0  2  0  0  0  0  0  0  0  0  0
    9.0793  -14.6355   26.0679 N   0  0  0  0  0  0  0  0  0  0  0  0
    9.2210  -15.3003   24.7454 C   0  0  0  0  0  0  0  0  0  0  0  0
    9.3185  -15.6796   27.0741 O   0  0  0  0  0  0  0  0  0  0  0  0
    9.4427  -15.3443   28.2852 O   0  0  0  0  0  0  0  0  0  0  0  0
  2  1  1  0
  2  3  2  0
  4  2  1  0
  5  6  1  0
  5  4  1  0
  6  7  1  6
  8  9  2  0
  8  6  1  0
 10 11  1  0
 11 12  2  0
 13 11  1  0
 13 14  1  0
 15 14  1  0
 16 15  1  0
 17 16  1  1
 17 18  1  0
 18  8  1  0
 19 26  1  0
 19 17  1  0
 20 19  2  0
 22 21  1  0
 23 22  1  0
 23 25  1  0
 23 24  1  6
 25 26  1  1
 25 27  1  0
 27 29  1  0
 28 27  2  0
M  END
$$$$
