QRI.pdb
     RDKit          3D

 29 28  0  0  1  0  0  0  0  0999 V2000
   14.5914  -13.9523   18.7949 N   0  0  0  0  0  0  0  0  0  0  0  0
   13.7712  -14.8324   18.0441 C   0  0  0  0  0  0  0  0  0  0  0  0
   13.6661  -14.7352   16.8001 O   0  0  0  0  0  0  0  0  0  0  0  0
   12.9822  -15.9323   18.7071 C   0  0  0  0  0  0  0  0  0  0  0  0
   13.1559  -15.9065   20.1837 C   0  0  0  0  0  0  0  0  0  0  0  0
   12.1382  -16.6465   20.9849 C   0  0  2  0  0  0  0  0  0  0  0  0
   11.2706  -17.3302   20.0096 N   0  0  0  0  0  0  0  0  0  0  0  0
   11.2698  -15.7728   21.8252 C   0  0  0  0  0  0  0  0  0  0  0  0
   11.8100  -15.0362   22.6907 O   0  0  0  0  0  0  0  0  0  0  0  0
    8.8085  -12.4296   17.6439 N   0  0  0  0  0  0  0  0  0  0  0  0
    8.4395  -13.7817   17.4252 C   0  0  0  0  0  0  0  0  0  0  0  0
    9.0490  -14.4257   16.4989 N   0  0  0  0  0  0  0  0  0  0  0  0
    7.4383  -14.4556   18.1718 N   0  0  0  0  0  0  0  0  0  0  0  0
    6.8774  -13.8938   19.3812 C   0  0  0  0  0  0  0  0  0  0  0  0
    7.9681  -13.6754   20.4081 C   0  0  0  0  0  0  0  0  0  0  0  0
    7.7186  -14.5698   21.6004 C   0  0  0  0  0  0  0  0  0  0  0  0
    8.9481  -14.8810   22.3722 C   0  0  2  0  0  0  0  0  0  0  0  0
    9.8589  -15.7514   21.6711 N   0  0  0  0  0  0  0  0  0  0  0  0
    8.7211  -15.2585   23.7929 C   0  0  0  0  0  0  0  0  0  0  0  0
    8.5333  -16.4255   24.1987 O   0  0  0  0  0  0  0  0  0  0  0  0
    8.8466  -15.4149   16.2350 C   0  0  0  0  0  0  0  0  0  0  0  0
    6.8029  -10.8297   26.3643 C   0  0  0  0  0  0  0  0  0  0  0  0
    7.7767  -12.0034   26.2373 C   0  0  2  0  0  0  0  0  0  0  0  0
    7.0587  -13.3126   26.3028 C   0  0  0  0  0  0  0  0  0  0  0  0
    6.3903  -13.4364   27.6625 C   0  0  2  0  0  0  0  0  0  0  0  0
    8.0223  -14.4476   26.0737 N   0  0  0  0  0  0  0  0  0  0  0  0
    8.7138  -14.2373   24.7742 C   0  0  0  0  0  0  0  0  0  0  0  0
    7.2780  -15.7075   25.9376 O   0  0  0  0  0  0  0  0  0  0  0  0
    6.5397  -15.8751   24.9269 O   0  0  0  0  0  0  0  0  0  0  0  0
  2  1  1  0
  2  3  2  0
  4  2  1  0
  5  6  1  0
  5  4  1  0
  6  7  1  6
  8  9  2  0
  8  6  1  0
 10 11  1  0
 11 12  2  0
 13 11  1  0
 13 14  1  0
 15 14  1  0
 16 15  1  0
 17 16  1  6
 17 18  1  0
 18  8  1  0
 19 26  1  0
 19 17  1  0
 20 19  2  0
 22 21  1  0
 23 22  1  0
 23 25  1  0
 23 24  1  6
 25 26  1  1
 25 27  1  0
 27 29  1  0
 28 27  2  0
M  END
$$$$
