QRI.pdb
     RDKit          3D

 29 28  0  0  1  0  0  0  0  0999 V2000
   11.7952  -15.3579   17.8559 N   0  0  0  0  0  0  0  0  0  0  0  0
   11.8231  -14.2493   18.7398 C   0  0  0  0  0  0  0  0  0  0  0  0
   12.6462  -14.1773   19.6807 O   0  0  0  0  0  0  0  0  0  0  0  0
   10.8610  -13.0986   18.5911 C   0  0  0  0  0  0  0  0  0  0  0  0
    9.7450  -13.1985   19.5686 C   0  0  0  0  0  0  0  0  0  0  0  0
    8.8816  -14.4109   19.4690 C   0  0  2  0  0  0  0  0  0  0  0  0
    7.8312  -14.0835   18.4887 N   0  0  0  0  0  0  0  0  0  0  0  0
    8.2061  -14.7857   20.7444 C   0  0  0  0  0  0  0  0  0  0  0  0
    7.1922  -14.1338   21.1059 O   0  0  0  0  0  0  0  0  0  0  0  0
    8.1533  -22.2940   25.7946 N   0  0  0  0  0  0  0  0  0  0  0  0
    7.4164  -21.2729   26.4475 C   0  0  0  0  0  0  0  0  0  0  0  0
    6.7937  -21.5806   27.5254 N   0  0  0  0  0  0  0  0  0  0  0  0
    7.3319  -19.9374   25.9750 N   0  0  0  0  0  0  0  0  0  0  0  0
    7.8350  -19.5529   24.6742 C   0  0  0  0  0  0  0  0  0  0  0  0
    7.7239  -18.0537   24.4955 C   0  0  0  0  0  0  0  0  0  0  0  0
    8.2115  -17.6772   23.1156 C   0  0  0  0  0  0  0  0  0  0  0  0
    8.1613  -16.2173   22.8499 C   0  0  2  0  0  0  0  0  0  0  0  0
    8.6755  -15.8537   21.5530 N   0  0  0  0  0  0  0  0  0  0  0  0
    8.6532  -15.3580   23.9598 C   0  0  0  0  0  0  0  0  0  0  0  0
    9.8568  -15.1178   24.1952 O   0  0  0  0  0  0  0  0  0  0  0  0
    6.2794  -20.8996   28.1261 C   0  0  0  0  0  0  0  0  0  0  0  0
    6.2721  -10.7454   27.3004 C   0  0  0  0  0  0  0  0  0  0  0  0
    7.3736  -11.7921   27.1188 C   0  0  2  0  0  0  0  0  0  0  0  0
    6.9704  -12.8368   26.1290 C   0  0  0  0  0  0  0  0  0  0  0  0
    5.8071  -13.6302   26.7019 C   0  0  2  0  0  0  0  0  0  0  0  0
    8.1356  -13.7404   25.8209 N   0  0  0  0  0  0  0  0  0  0  0  0
    7.7061  -14.7575   24.8249 C   0  0  0  0  0  0  0  0  0  0  0  0
    8.5126  -14.4891   27.0280 O   0  0  0  0  0  0  0  0  0  0  0  0
    9.0803  -13.8764   27.9750 O   0  0  0  0  0  0  0  0  0  0  0  0
  2  1  1  0
  2  3  2  0
  4  2  1  0
  5  6  1  0
  5  4  1  0
  6  7  1  6
  8  9  2  0
  8  6  1  0
 10 11  1  0
 11 12  2  0
 13 11  1  0
 13 14  1  0
 15 14  1  0
 16 15  1  0
 17 16  1  1
 17 18  1  0
 18  8  1  0
 19 26  1  0
 19 17  1  0
 20 19  2  0
 22 21  1  0
 23 22  1  0
 23 25  1  0
 23 24  1  6
 25 26  1  1
 25 27  1  0
 27 29  1  0
 28 27  2  0
M  END
$$$$
