QRI.pdb
     RDKit          3D

 29 28  0  0  1  0  0  0  0  0999 V2000
   13.3403  -13.9914   20.1222 N   0  0  0  0  0  0  0  0  0  0  0  0
   12.6380  -13.7890   18.9070 C   0  0  0  0  0  0  0  0  0  0  0  0
   13.2176  -13.8218   17.7974 O   0  0  0  0  0  0  0  0  0  0  0  0
   11.1544  -13.5236   18.8892 C   0  0  0  0  0  0  0  0  0  0  0  0
   10.4719  -14.1965   20.0260 C   0  0  0  0  0  0  0  0  0  0  0  0
    9.0896  -14.6952   19.7695 C   0  0  2  0  0  0  0  0  0  0  0  0
    8.3574  -13.5705   19.1608 N   0  0  0  0  0  0  0  0  0  0  0  0
    8.3495  -15.1018   20.9984 C   0  0  0  0  0  0  0  0  0  0  0  0
    7.4963  -14.3119   21.4797 O   0  0  0  0  0  0  0  0  0  0  0  0
    6.4555  -22.1253   22.3117 N   0  0  0  0  0  0  0  0  0  0  0  0
    5.7217  -21.2299   23.1313 C   0  0  0  0  0  0  0  0  0  0  0  0
    4.5772  -20.8343   22.7095 N   0  0  0  0  0  0  0  0  0  0  0  0
    6.1831  -20.7514   24.3851 N   0  0  0  0  0  0  0  0  0  0  0  0
    7.4921  -20.1554   24.5419 C   0  0  0  0  0  0  0  0  0  0  0  0
    7.3979  -18.6503   24.4093 C   0  0  0  0  0  0  0  0  0  0  0  0
    7.9948  -18.2267   23.0871 C   0  0  0  0  0  0  0  0  0  0  0  0
    8.0627  -16.7536   22.9153 C   0  0  2  0  0  0  0  0  0  0  0  0
    8.5820  -16.3505   21.6321 N   0  0  0  0  0  0  0  0  0  0  0  0
    8.6451  -16.0116   24.0653 C   0  0  0  0  0  0  0  0  0  0  0  0
    9.8687  -15.8800   24.2822 O   0  0  0  0  0  0  0  0  0  0  0  0
    4.1663  -21.0917   21.7854 C   0  0  0  0  0  0  0  0  0  0  0  0
    5.5999  -11.9587   26.1451 C   0  0  0  0  0  0  0  0  0  0  0  0
    6.8375  -12.7398   25.6979 C   0  0  2  0  0  0  0  0  0  0  0  0
    7.2287  -13.7633   26.7143 C   0  0  0  0  0  0  0  0  0  0  0  0
    7.7057  -13.0493   27.9688 C   0  0  2  0  0  0  0  0  0  0  0  0
    8.3078  -14.6587   26.1639 N   0  0  0  0  0  0  0  0  0  0  0  0
    7.7675  -15.4012   24.9944 C   0  0  0  0  0  0  0  0  0  0  0  0
    8.6615  -15.6773   27.1625 O   0  0  0  0  0  0  0  0  0  0  0  0
    9.3866  -15.3470   28.1421 O   0  0  0  0  0  0  0  0  0  0  0  0
  2  1  1  0
  2  3  2  0
  4  2  1  0
  5  6  1  0
  5  4  1  0
  6  7  1  1
  8  9  2  0
  8  6  1  0
 10 11  1  0
 11 12  2  0
 13 11  1  0
 13 14  1  0
 15 14  1  0
 16 15  1  0
 17 16  1  1
 17 18  1  0
 18  8  1  0
 19 26  1  0
 19 17  1  0
 20 19  2  0
 22 21  1  0
 23 22  1  0
 23 25  1  0
 23 24  1  1
 25 26  1  6
 25 27  1  0
 27 29  1  0
 28 27  2  0
M  END
$$$$
