QRI.pdb
     RDKit          3D

 29 28  0  0  1  0  0  0  0  0999 V2000
   15.6292  -14.5979   20.0352 N   0  0  0  0  0  0  0  0  0  0  0  0
   14.4306  -14.6000   19.2775 C   0  0  0  0  0  0  0  0  0  0  0  0
   14.3207  -13.9446   18.2162 O   0  0  0  0  0  0  0  0  0  0  0  0
   13.2250  -15.3933   19.7122 C   0  0  0  0  0  0  0  0  0  0  0  0
   13.4668  -16.0742   21.0118 C   0  0  0  0  0  0  0  0  0  0  0  0
   12.3008  -16.7792   21.6190 C   0  0  2  0  0  0  0  0  0  0  0  0
   11.6341  -17.4900   20.5138 N   0  0  0  0  0  0  0  0  0  0  0  0
   11.2953  -15.8713   22.2419 C   0  0  0  0  0  0  0  0  0  0  0  0
   11.6412  -15.1732   23.2303 O   0  0  0  0  0  0  0  0  0  0  0  0
    7.9326  -15.6444   16.9079 N   0  0  0  0  0  0  0  0  0  0  0  0
    7.8522  -14.2288   16.8686 C   0  0  0  0  0  0  0  0  0  0  0  0
    8.3689  -13.6281   15.8604 N   0  0  0  0  0  0  0  0  0  0  0  0
    7.2345  -13.4465   17.8788 N   0  0  0  0  0  0  0  0  0  0  0  0
    6.8968  -13.9969   19.1734 C   0  0  0  0  0  0  0  0  0  0  0  0
    8.1387  -14.1077   20.0319 C   0  0  0  0  0  0  0  0  0  0  0  0
    7.7802  -14.7576   21.3483 C   0  0  0  0  0  0  0  0  0  0  0  0
    8.9374  -14.9098   22.2658 C   0  0  2  0  0  0  0  0  0  0  0  0
    9.9679  -15.7753   21.7485 N   0  0  0  0  0  0  0  0  0  0  0  0
    8.5842  -15.1698   23.6871 C   0  0  0  0  0  0  0  0  0  0  0  0
    8.8529  -16.2210   24.3072 O   0  0  0  0  0  0  0  0  0  0  0  0
    8.3770  -12.5928   15.7294 C   0  0  0  0  0  0  0  0  0  0  0  0
    6.4631  -10.7665   26.4005 C   0  0  0  0  0  0  0  0  0  0  0  0
    7.3954  -11.9720   26.2621 C   0  0  2  0  0  0  0  0  0  0  0  0
    6.6287  -13.2548   26.2807 C   0  0  0  0  0  0  0  0  0  0  0  0
    6.1142  -13.4967   27.6905 C   0  0  2  0  0  0  0  0  0  0  0  0
    7.5055  -14.3928   25.8273 N   0  0  0  0  0  0  0  0  0  0  0  0
    7.8934  -14.1666   24.4098 C   0  0  0  0  0  0  0  0  0  0  0  0
    6.7364  -15.6450   25.8423 O   0  0  0  0  0  0  0  0  0  0  0  0
    6.6037  -16.2679   26.9327 O   0  0  0  0  0  0  0  0  0  0  0  0
  2  1  1  0
  2  3  2  0
  4  2  1  0
  5  6  1  0
  5  4  1  0
  6  7  1  6
  8  9  2  0
  8  6  1  0
 10 11  1  0
 11 12  2  0
 13 11  1  0
 13 14  1  0
 15 14  1  0
 16 15  1  0
 17 16  1  6
 17 18  1  0
 18  8  1  0
 19 26  1  0
 19 17  1  0
 20 19  2  0
 22 21  1  0
 23 22  1  0
 23 25  1  0
 23 24  1  6
 25 26  1  1
 25 27  1  0
 27 29  1  0
 28 27  2  0
M  END
$$$$
