YFT.pdb
     RDKit          3D

 31 32  0  0  1  0  0  0  0  0999 V2000
   29.5320  -17.4977  -19.5173 O   0  0  0  0  0  0  0  0  0  0  0  0
   28.5698  -18.3769  -19.0772 C   0  0  0  0  0  0  0  0  0  0  0  0
   27.7091  -18.0041  -18.0829 C   0  0  0  0  0  0  0  0  0  0  0  0
   26.7532  -18.8885  -17.6511 C   0  0  0  0  0  0  0  0  0  0  0  0
   26.6332  -20.1618  -18.1991 C   0  0  0  0  0  0  0  0  0  0  0  0
   25.6003  -21.1062  -17.7251 C   0  0  0  0  0  0  0  0  0  0  0  0
   26.1027  -21.6844  -16.4071 C   0  0  2  0  0  0  0  0  0  0  0  0
   27.1033  -22.6741  -16.7481 N   0  0  0  0  0  0  0  0  0  0  0  0
   25.0451  -22.3177  -15.6256 C   0  0  0  0  0  0  0  0  0  0  0  0
   24.9948  -23.5695  -15.6216 O   0  0  0  0  0  0  0  0  0  0  0  0
   27.4976  -20.5371  -19.1985 C   0  0  0  0  0  0  0  0  0  0  0  0
   28.4745  -19.6397  -19.6429 C   0  0  0  0  0  0  0  0  0  0  0  0
   24.1197  -21.5234  -14.9051 N   0  0  0  0  0  0  0  0  0  0  0  0
   23.1320  -22.1905  -14.0944 C   0  0  1  0  0  0  0  0  0  0  0  0
   22.7456  -21.3026  -12.9471 C   0  0  0  0  0  0  0  0  0  0  0  0
   22.0235  -20.1032  -13.4058 C   0  0  0  0  0  0  0  0  0  0  0  0
   22.7249  -19.0808  -13.9979 C   0  0  0  0  0  0  0  0  0  0  0  0
   22.0339  -17.9721  -14.4101 C   0  0  0  0  0  0  0  0  0  0  0  0
   20.6758  -17.8690  -14.2436 C   0  0  0  0  0  0  0  0  0  0  0  0
   19.9553  -18.8829  -13.6522 C   0  0  0  0  0  0  0  0  0  0  0  0
   20.6685  -20.0058  -13.2368 C   0  0  0  0  0  0  0  0  0  0  0  0
   21.9609  -22.5246  -14.9599 C   0  0  0  0  0  0  0  0  0  0  0  0
   21.6975  -21.9718  -16.0512 O   0  0  0  0  0  0  0  0  0  0  0  0
   20.7881  -25.9205  -16.4004 C   0  0  0  0  0  0  0  0  0  0  0  0
   19.6996  -25.3433  -15.5470 C   0  0  1  0  0  0  0  0  0  0  0  0
   19.6687  -25.9381  -14.2740 O   0  0  0  0  0  0  0  0  0  0  0  0
   19.8810  -23.8480  -15.3741 C   0  0  2  0  0  0  0  0  0  0  0  0
   21.0381  -23.5541  -14.5475 N   0  0  0  0  0  0  0  0  0  0  0  0
   18.6421  -23.2969  -14.7582 C   0  0  0  0  0  0  0  0  0  0  0  0
   18.7038  -22.8611  -13.5739 O   0  0  0  0  0  0  0  0  0  0  0  0
   17.4577  -23.2522  -15.4335 O   0  0  0  0  0  0  0  0  0  0  0  0
  2 12  2  0
  2  1  1  0
  3  2  1  0
  4  5  1  0
  4  3  2  0
  5 11  2  0
  6  5  1  0
  6  7  1  0
  7  8  1  6
  9  7  1  0
  9 13  1  0
 10  9  2  0
 11 12  1  0
 13 14  1  0
 15 16  1  0
 14 15  1  1
 16 17  2  0
 17 18  1  0
 19 18  2  0
 20 19  1  0
 21 20  2  0
 21 16  1  0
 22 23  2  0
 22 14  1  0
 25 24  1  6
 25 27  1  0
 26 25  1  0
 27 28  1  1
 27 29  1  0
 28 22  1  0
 29 31  1  0
 30 29  2  0
M  END
$$$$
