YFT.pdb
     RDKit          3D

 31 32  0  0  1  0  0  0  0  0999 V2000
   17.2140  -23.8908  -13.7389 O   0  0  0  0  0  0  0  0  0  0  0  0
   18.3960  -23.1873  -13.7124 C   0  0  0  0  0  0  0  0  0  0  0  0
   19.5761  -23.8447  -13.5036 C   0  0  0  0  0  0  0  0  0  0  0  0
   20.7493  -23.1339  -13.4788 C   0  0  0  0  0  0  0  0  0  0  0  0
   20.7734  -21.7546  -13.6612 C   0  0  0  0  0  0  0  0  0  0  0  0
   22.0431  -20.9994  -13.6313 C   0  0  0  0  0  0  0  0  0  0  0  0
   22.5447  -21.0365  -12.1923 C   0  0  2  0  0  0  0  0  0  0  0  0
   21.6536  -20.1913  -11.4252 N   0  0  0  0  0  0  0  0  0  0  0  0
   23.9122  -20.5450  -12.0553 C   0  0  0  0  0  0  0  0  0  0  0  0
   24.1053  -19.3153  -12.1971 O   0  0  0  0  0  0  0  0  0  0  0  0
   19.5878  -21.0934  -13.8712 C   0  0  0  0  0  0  0  0  0  0  0  0
   18.3884  -21.8128  -13.8974 C   0  0  0  0  0  0  0  0  0  0  0  0
   24.9674  -21.4464  -11.7715 N   0  0  0  0  0  0  0  0  0  0  0  0
   26.3175  -20.9413  -11.7758 C   0  0  1  0  0  0  0  0  0  0  0  0
   27.1068  -21.6180  -10.6926 C   0  0  0  0  0  0  0  0  0  0  0  0
   26.8839  -20.9861   -9.3806 C   0  0  0  0  0  0  0  0  0  0  0  0
   25.6316  -21.0295   -8.8168 C   0  0  0  0  0  0  0  0  0  0  0  0
   25.4457  -20.4290   -7.5997 C   0  0  0  0  0  0  0  0  0  0  0  0
   26.4730  -19.7959   -6.9465 C   0  0  0  0  0  0  0  0  0  0  0  0
   27.7350  -19.7415   -7.4953 C   0  0  0  0  0  0  0  0  0  0  0  0
   27.9126  -20.3557   -8.7337 C   0  0  0  0  0  0  0  0  0  0  0  0
   26.9056  -21.1825  -13.1278 C   0  0  0  0  0  0  0  0  0  0  0  0
   27.4731  -22.2398  -13.4826 O   0  0  0  0  0  0  0  0  0  0  0  0
   25.9604  -22.2238  -16.2010 C   0  0  0  0  0  0  0  0  0  0  0  0
   26.3916  -20.8095  -16.4456 C   0  0  1  0  0  0  0  0  0  0  0  0
   25.3078  -19.9176  -16.3744 O   0  0  0  0  0  0  0  0  0  0  0  0
   27.4358  -20.3781  -15.4345 C   0  0  2  0  0  0  0  0  0  0  0  0
   26.8378  -20.1482  -14.1314 N   0  0  0  0  0  0  0  0  0  0  0  0
   28.0880  -19.1380  -15.9392 C   0  0  0  0  0  0  0  0  0  0  0  0
   27.9305  -18.0687  -15.2848 O   0  0  0  0  0  0  0  0  0  0  0  0
   28.8413  -19.1292  -17.0763 O   0  0  0  0  0  0  0  0  0  0  0  0
  2 12  2  0
  2  1  1  0
  3  2  1  0
  4  5  1  0
  4  3  2  0
  5 11  2  0
  6  5  1  0
  6  7  1  0
  7  8  1  1
  9  7  1  0
  9 13  1  0
 10  9  2  0
 11 12  1  0
 13 14  1  0
 15 16  1  0
 14 15  1  1
 16 17  2  0
 17 18  1  0
 19 18  2  0
 20 19  1  0
 21 20  2  0
 21 16  1  0
 22 23  2  0
 22 14  1  0
 25 24  1  1
 25 27  1  0
 26 25  1  0
 27 28  1  1
 27 29  1  0
 28 22  1  0
 29 31  1  0
 30 29  2  0
M  END
$$$$
