YFT.pdb
     RDKit          3D

 31 32  0  0  1  0  0  0  0  0999 V2000
   25.1944  -15.9422  -22.6502 O   0  0  0  0  0  0  0  0  0  0  0  0
   24.8488  -16.8079  -21.6384 C   0  0  0  0  0  0  0  0  0  0  0  0
   24.5619  -18.1131  -21.9260 C   0  0  0  0  0  0  0  0  0  0  0  0
   24.2181  -18.9682  -20.9096 C   0  0  0  0  0  0  0  0  0  0  0  0
   24.1526  -18.5433  -19.5862 C   0  0  0  0  0  0  0  0  0  0  0  0
   23.7801  -19.4732  -18.5000 C   0  0  0  0  0  0  0  0  0  0  0  0
   25.0753  -19.8906  -17.8130 C   0  0  2  0  0  0  0  0  0  0  0  0
   25.7399  -20.8092  -18.7137 N   0  0  0  0  0  0  0  0  0  0  0  0
   24.8501  -20.5508  -16.5309 C   0  0  0  0  0  0  0  0  0  0  0  0
   24.4744  -21.7458  -16.5499 O   0  0  0  0  0  0  0  0  0  0  0  0
   24.4410  -17.2319  -19.2965 C   0  0  0  0  0  0  0  0  0  0  0  0
   24.7920  -16.3552  -20.3286 C   0  0  0  0  0  0  0  0  0  0  0  0
   25.0561  -19.8441  -15.3207 N   0  0  0  0  0  0  0  0  0  0  0  0
   24.7352  -20.5046  -14.0802 C   0  0  1  0  0  0  0  0  0  0  0  0
   25.5099  -19.8698  -12.9618 C   0  0  0  0  0  0  0  0  0  0  0  0
   25.2170  -20.5070  -11.6663 C   0  0  0  0  0  0  0  0  0  0  0  0
   25.9496  -21.6011  -11.2735 C   0  0  0  0  0  0  0  0  0  0  0  0
   25.6551  -22.1819  -10.0683 C   0  0  0  0  0  0  0  0  0  0  0  0
   24.6570  -21.6962   -9.2616 C   0  0  0  0  0  0  0  0  0  0  0  0
   23.9117  -20.6008   -9.6377 C   0  0  0  0  0  0  0  0  0  0  0  0
   24.2200  -20.0181  -10.8656 C   0  0  0  0  0  0  0  0  0  0  0  0
   23.2604  -20.4064  -13.8629 C   0  0  0  0  0  0  0  0  0  0  0  0
   22.6063  -19.3396  -13.8675 O   0  0  0  0  0  0  0  0  0  0  0  0
   20.3015  -21.9286  -15.6823 C   0  0  0  0  0  0  0  0  0  0  0  0
   20.2724  -22.4160  -14.2654 C   0  0  1  0  0  0  0  0  0  0  0  0
   20.7967  -23.7152  -14.1534 O   0  0  0  0  0  0  0  0  0  0  0  0
   21.0682  -21.4973  -13.3591 C   0  0  2  0  0  0  0  0  0  0  0  0
   22.4916  -21.6042  -13.6264 N   0  0  0  0  0  0  0  0  0  0  0  0
   20.7702  -21.8641  -11.9468 C   0  0  0  0  0  0  0  0  0  0  0  0
   21.6752  -22.4293  -11.2703 O   0  0  0  0  0  0  0  0  0  0  0  0
   19.5592  -21.6076  -11.3739 O   0  0  0  0  0  0  0  0  0  0  0  0
  2 12  2  0
  2  1  1  0
  3  2  1  0
  4  5  1  0
  4  3  2  0
  5 11  2  0
  6  5  1  0
  6  7  1  0
  7  8  1  6
  9  7  1  0
  9 13  1  0
 10  9  2  0
 11 12  1  0
 13 14  1  0
 15 16  1  0
 14 15  1  1
 16 17  2  0
 17 18  1  0
 19 18  2  0
 20 19  1  0
 21 20  2  0
 21 16  1  0
 22 23  2  0
 22 14  1  0
 25 24  1  6
 25 27  1  0
 26 25  1  0
 27 28  1  6
 27 29  1  0
 28 22  1  0
 29 31  1  0
 30 29  2  0
M  END
$$$$
