YFT.pdb
     RDKit          3D

 31 32  0  0  1  0  0  0  0  0999 V2000
   16.9393  -24.1792  -14.3480 O   0  0  0  0  0  0  0  0  0  0  0  0
   18.1049  -23.4516  -14.4169 C   0  0  0  0  0  0  0  0  0  0  0  0
   19.3089  -24.0964  -14.4711 C   0  0  0  0  0  0  0  0  0  0  0  0
   20.4655  -23.3615  -14.5395 C   0  0  0  0  0  0  0  0  0  0  0  0
   20.4488  -21.9703  -14.5554 C   0  0  0  0  0  0  0  0  0  0  0  0
   21.7011  -21.1893  -14.6281 C   0  0  0  0  0  0  0  0  0  0  0  0
   22.3351  -21.2424  -13.2428 C   0  0  2  0  0  0  0  0  0  0  0  0
   21.4823  -20.4616  -12.3710 N   0  0  0  0  0  0  0  0  0  0  0  0
   23.6862  -20.6909  -13.2158 C   0  0  0  0  0  0  0  0  0  0  0  0
   23.8078  -19.4459  -13.2849 O   0  0  0  0  0  0  0  0  0  0  0  0
   19.2392  -21.3217  -14.5011 C   0  0  0  0  0  0  0  0  0  0  0  0
   18.0565  -22.0656  -14.4312 C   0  0  0  0  0  0  0  0  0  0  0  0
   24.8051  -21.5536  -13.1143 N   0  0  0  0  0  0  0  0  0  0  0  0
   26.1232  -20.9768  -13.2033 C   0  0  1  0  0  0  0  0  0  0  0  0
   26.9452  -21.4271  -12.0305 C   0  0  0  0  0  0  0  0  0  0  0  0
   26.3738  -20.9626  -10.7545 C   0  0  0  0  0  0  0  0  0  0  0  0
   26.6965  -19.7109  -10.2887 C   0  0  0  0  0  0  0  0  0  0  0  0
   26.1593  -19.3028   -9.0964 C   0  0  0  0  0  0  0  0  0  0  0  0
   25.3188  -20.1108   -8.3730 C   0  0  0  0  0  0  0  0  0  0  0  0
   24.9837  -21.3686   -8.8231 C   0  0  0  0  0  0  0  0  0  0  0  0
   25.5359  -21.7733  -10.0370 C   0  0  0  0  0  0  0  0  0  0  0  0
   26.7316  -21.3922  -14.5030 C   0  0  0  0  0  0  0  0  0  0  0  0
   27.3111  -22.4828  -14.7052 O   0  0  0  0  0  0  0  0  0  0  0  0
   25.5978  -22.5300  -17.6610 C   0  0  0  0  0  0  0  0  0  0  0  0
   26.2608  -21.2158  -17.9427 C   0  0  1  0  0  0  0  0  0  0  0  0
   25.3294  -20.1641  -17.9854 O   0  0  0  0  0  0  0  0  0  0  0  0
   27.2996  -20.8947  -16.8861 C   0  0  2  0  0  0  0  0  0  0  0  0
   26.6708  -20.5026  -15.6372 N   0  0  0  0  0  0  0  0  0  0  0  0
   28.1669  -19.8002  -17.4035 C   0  0  0  0  0  0  0  0  0  0  0  0
   28.1019  -18.6687  -16.8451 O   0  0  0  0  0  0  0  0  0  0  0  0
   29.0187  -19.9879  -18.4523 O   0  0  0  0  0  0  0  0  0  0  0  0
  2 12  2  0
  2  1  1  0
  3  2  1  0
  4  5  1  0
  4  3  2  0
  5 11  2  0
  6  5  1  0
  6  7  1  0
  7  8  1  1
  9  7  1  0
  9 13  1  0
 10  9  2  0
 11 12  1  0
 13 14  1  0
 15 16  1  0
 14 15  1  1
 16 17  2  0
 17 18  1  0
 19 18  2  0
 20 19  1  0
 21 20  2  0
 21 16  1  0
 22 23  2  0
 22 14  1  0
 25 24  1  1
 25 27  1  0
 26 25  1  0
 27 28  1  1
 27 29  1  0
 28 22  1  0
 29 31  1  0
 30 29  2  0
M  END
$$$$
