YFT.pdb
     RDKit          3D

 31 32  0  0  1  0  0  0  0  0999 V2000
   23.3300  -10.2786  -24.6669 O   0  0  0  0  0  0  0  0  0  0  0  0
   22.7344   -9.7788  -23.5319 C   0  0  0  0  0  0  0  0  0  0  0  0
   21.6971  -10.4544  -22.9524 C   0  0  0  0  0  0  0  0  0  0  0  0
   21.1098   -9.9473  -21.8208 C   0  0  0  0  0  0  0  0  0  0  0  0
   21.5419   -8.7580  -21.2421 C   0  0  0  0  0  0  0  0  0  0  0  0
   20.9008   -8.2210  -20.0239 C   0  0  0  0  0  0  0  0  0  0  0  0
   21.8644   -8.4742  -18.8701 C   0  0  2  0  0  0  0  0  0  0  0  0
   21.8549   -9.9027  -18.6336 N   0  0  0  0  0  0  0  0  0  0  0  0
   21.4780   -7.7802  -17.6456 C   0  0  0  0  0  0  0  0  0  0  0  0
   20.6017   -8.3134  -16.9265 O   0  0  0  0  0  0  0  0  0  0  0  0
   22.5843   -8.0786  -21.8240 C   0  0  0  0  0  0  0  0  0  0  0  0
   23.1871   -8.5906  -22.9779 C   0  0  0  0  0  0  0  0  0  0  0  0
   22.0872   -6.5479  -17.3035 N   0  0  0  0  0  0  0  0  0  0  0  0
   21.6814   -5.9011  -16.0809 C   0  0  1  0  0  0  0  0  0  0  0  0
   22.8401   -5.8656  -15.1268 C   0  0  0  0  0  0  0  0  0  0  0  0
   23.1973   -7.2141  -14.6534 C   0  0  0  0  0  0  0  0  0  0  0  0
   22.4653   -7.7881  -13.6421 C   0  0  0  0  0  0  0  0  0  0  0  0
   22.8199   -9.0397  -13.2129 C   0  0  0  0  0  0  0  0  0  0  0  0
   23.8764   -9.7170  -13.7677 C   0  0  0  0  0  0  0  0  0  0  0  0
   24.6222   -9.1585  -14.7819 C   0  0  0  0  0  0  0  0  0  0  0  0
   24.2525   -7.8850  -15.2106 C   0  0  0  0  0  0  0  0  0  0  0  0
   21.1916   -4.5297  -16.4145 C   0  0  0  0  0  0  0  0  0  0  0  0
   21.8971   -3.6164  -16.8983 O   0  0  0  0  0  0  0  0  0  0  0  0
   19.1054   -3.2207  -18.9533 C   0  0  0  0  0  0  0  0  0  0  0  0
   18.3827   -2.8874  -17.6833 C   0  0  1  0  0  0  0  0  0  0  0  0
   17.3678   -3.8189  -17.4049 O   0  0  0  0  0  0  0  0  0  0  0  0
   19.3393   -2.8536  -16.5076 C   0  0  2  0  0  0  0  0  0  0  0  0
   19.8101   -4.1872  -16.1784 N   0  0  0  0  0  0  0  0  0  0  0  0
   18.6298   -2.2461  -15.3476 C   0  0  0  0  0  0  0  0  0  0  0  0
   18.3248   -2.9913  -14.3739 O   0  0  0  0  0  0  0  0  0  0  0  0
   18.3056   -0.9216  -15.3119 O   0  0  0  0  0  0  0  0  0  0  0  0
  2 12  2  0
  2  1  1  0
  3  2  1  0
  4  5  1  0
  4  3  2  0
  5 11  2  0
  6  5  1  0
  6  7  1  0
  7  8  1  1
  9  7  1  0
  9 13  1  0
 10  9  2  0
 11 12  1  0
 13 14  1  0
 15 16  1  0
 14 15  1  1
 16 17  2  0
 17 18  1  0
 19 18  2  0
 20 19  1  0
 21 20  2  0
 21 16  1  0
 22 23  2  0
 22 14  1  0
 25 24  1  6
 25 27  1  0
 26 25  1  0
 27 28  1  1
 27 29  1  0
 28 22  1  0
 29 31  1  0
 30 29  2  0
M  END
$$$$
