YFT.pdb
     RDKit          3D

 31 32  0  0  1  0  0  0  0  0999 V2000
   36.5985  -24.4403  -22.7537 O   0  0  0  0  0  0  0  0  0  0  0  0
   36.5727  -25.7077  -22.2194 C   0  0  0  0  0  0  0  0  0  0  0  0
   35.9182  -25.9379  -21.0417 C   0  0  0  0  0  0  0  0  0  0  0  0
   35.8985  -27.2056  -20.5172 C   0  0  0  0  0  0  0  0  0  0  0  0
   36.5292  -28.2706  -21.1530 C   0  0  0  0  0  0  0  0  0  0  0  0
   36.5023  -29.6315  -20.5779 C   0  0  0  0  0  0  0  0  0  0  0  0
   37.4902  -29.6395  -19.4170 C   0  0  2  0  0  0  0  0  0  0  0  0
   38.8137  -29.6366  -20.0044 N   0  0  0  0  0  0  0  0  0  0  0  0
   37.3466  -30.8108  -18.5580 C   0  0  0  0  0  0  0  0  0  0  0  0
   37.9020  -31.8723  -18.9243 O   0  0  0  0  0  0  0  0  0  0  0  0
   37.1870  -28.0399  -22.3366 C   0  0  0  0  0  0  0  0  0  0  0  0
   37.2106  -26.7495  -22.8762 C   0  0  0  0  0  0  0  0  0  0  0  0
   36.6006  -30.7253  -17.3569 N   0  0  0  0  0  0  0  0  0  0  0  0
   36.4275  -31.9227  -16.5732 C   0  0  1  0  0  0  0  0  0  0  0  0
   36.9347  -31.6851  -15.1802 C   0  0  0  0  0  0  0  0  0  0  0  0
   38.4056  -31.7397  -15.1196 C   0  0  0  0  0  0  0  0  0  0  0  0
   39.1296  -30.5843  -15.2898 C   0  0  0  0  0  0  0  0  0  0  0  0
   40.4963  -30.6600  -15.2368 C   0  0  0  0  0  0  0  0  0  0  0  0
   41.1420  -31.8512  -15.0201 C   0  0  0  0  0  0  0  0  0  0  0  0
   40.4341  -33.0198  -14.8473 C   0  0  0  0  0  0  0  0  0  0  0  0
   39.0444  -32.9310  -14.9033 C   0  0  0  0  0  0  0  0  0  0  0  0
   34.9786  -32.2869  -16.5845 C   0  0  0  0  0  0  0  0  0  0  0  0
   34.0484  -31.5305  -16.2259 O   0  0  0  0  0  0  0  0  0  0  0  0
   32.4778  -31.9216  -18.5387 C   0  0  0  0  0  0  0  0  0  0  0  0
   32.6485  -33.4105  -18.5334 C   0  0  1  0  0  0  0  0  0  0  0  0
   33.5446  -33.8329  -19.5303 O   0  0  0  0  0  0  0  0  0  0  0  0
   33.1615  -33.8930  -17.1907 C   0  0  2  0  0  0  0  0  0  0  0  0
   34.5745  -33.5969  -17.0341 N   0  0  0  0  0  0  0  0  0  0  0  0
   32.9192  -35.3596  -17.0996 C   0  0  0  0  0  0  0  0  0  0  0  0
   33.9121  -36.1374  -17.1757 O   0  0  0  0  0  0  0  0  0  0  0  0
   31.6672  -35.8765  -16.9380 O   0  0  0  0  0  0  0  0  0  0  0  0
  2 12  2  0
  2  1  1  0
  3  2  1  0
  4  5  1  0
  4  3  2  0
  5 11  2  0
  6  5  1  0
  6  7  1  0
  7  8  1  6
  9  7  1  0
  9 13  1  0
 10  9  2  0
 11 12  1  0
 13 14  1  0
 15 16  1  0
 14 15  1  1
 16 17  2  0
 17 18  1  0
 19 18  2  0
 20 19  1  0
 21 20  2  0
 21 16  1  0
 22 23  2  0
 22 14  1  0
 25 24  1  1
 25 27  1  0
 26 25  1  0
 27 28  1  6
 27 29  1  0
 28 22  1  0
 29 31  1  0
 30 29  2  0
M  END
$$$$
