YFT.pdb
     RDKit          3D

 31 32  0  0  1  0  0  0  0  0999 V2000
   24.3040  -15.9847  -20.0959 O   0  0  0  0  0  0  0  0  0  0  0  0
   24.1688  -16.8183  -19.0098 C   0  0  0  0  0  0  0  0  0  0  0  0
   24.5954  -16.4076  -17.7779 C   0  0  0  0  0  0  0  0  0  0  0  0
   24.4561  -17.2465  -16.7012 C   0  0  0  0  0  0  0  0  0  0  0  0
   23.8897  -18.5112  -16.8273 C   0  0  0  0  0  0  0  0  0  0  0  0
   23.7459  -19.4065  -15.6606 C   0  0  0  0  0  0  0  0  0  0  0  0
   25.1340  -19.9558  -15.3524 C   0  0  2  0  0  0  0  0  0  0  0  0
   25.4410  -20.9068  -16.4003 N   0  0  0  0  0  0  0  0  0  0  0  0
   25.2043  -20.6260  -14.0576 C   0  0  0  0  0  0  0  0  0  0  0  0
   24.6468  -21.7426  -13.9495 O   0  0  0  0  0  0  0  0  0  0  0  0
   23.4606  -18.9245  -18.0650 C   0  0  0  0  0  0  0  0  0  0  0  0
   23.6000  -18.0735  -19.1665 C   0  0  0  0  0  0  0  0  0  0  0  0
   25.8852  -20.0150  -12.9761 N   0  0  0  0  0  0  0  0  0  0  0  0
   25.6848  -20.5499  -11.6526 C   0  0  1  0  0  0  0  0  0  0  0  0
   26.7878  -20.0765  -10.7508 C   0  0  0  0  0  0  0  0  0  0  0  0
   26.4186  -20.1964   -9.3297 C   0  0  0  0  0  0  0  0  0  0  0  0
   26.2091  -21.4432   -8.7916 C   0  0  0  0  0  0  0  0  0  0  0  0
   25.8596  -21.5302   -7.4699 C   0  0  0  0  0  0  0  0  0  0  0  0
   25.7178  -20.4109   -6.6890 C   0  0  0  0  0  0  0  0  0  0  0  0
   25.9233  -19.1527   -7.2100 C   0  0  0  0  0  0  0  0  0  0  0  0
   26.2785  -19.0761   -8.5555 C   0  0  0  0  0  0  0  0  0  0  0  0
   24.3413  -20.1127  -11.1670 C   0  0  0  0  0  0  0  0  0  0  0  0
   24.0103  -18.9252  -10.9519 O   0  0  0  0  0  0  0  0  0  0  0  0
   21.3623  -19.5975  -12.6190 C   0  0  0  0  0  0  0  0  0  0  0  0
   21.0150  -20.6573  -11.6178 C   0  0  1  0  0  0  0  0  0  0  0  0
   21.0007  -21.9360  -12.2008 O   0  0  0  0  0  0  0  0  0  0  0  0
   22.0049  -20.6641  -10.4695 C   0  0  2  0  0  0  0  0  0  0  0  0
   23.3177  -21.0975  -10.9137 N   0  0  0  0  0  0  0  0  0  0  0  0
   21.4829  -21.5716   -9.4103 C   0  0  0  0  0  0  0  0  0  0  0  0
   20.3546  -21.3148   -8.9030 O   0  0  0  0  0  0  0  0  0  0  0  0
   22.1849  -22.6594   -8.9805 O   0  0  0  0  0  0  0  0  0  0  0  0
  2 12  2  0
  2  1  1  0
  3  2  1  0
  4  5  1  0
  4  3  2  0
  5 11  2  0
  6  5  1  0
  6  7  1  0
  7  8  1  6
  9  7  1  0
  9 13  1  0
 10  9  2  0
 11 12  1  0
 13 14  1  0
 15 16  1  0
 14 15  1  1
 16 17  2  0
 17 18  1  0
 19 18  2  0
 20 19  1  0
 21 20  2  0
 21 16  1  0
 22 23  2  0
 22 14  1  0
 25 24  1  6
 25 27  1  0
 26 25  1  0
 27 28  1  6
 27 29  1  0
 28 22  1  0
 29 31  1  0
 30 29  2  0
M  END
$$$$
