YFT.pdb
     RDKit          3D

 31 32  0  0  1  0  0  0  0  0999 V2000
   24.6475  -16.4211  -22.0739 O   0  0  0  0  0  0  0  0  0  0  0  0
   24.4017  -17.1677  -20.9448 C   0  0  0  0  0  0  0  0  0  0  0  0
   24.1409  -18.5050  -21.0550 C   0  0  0  0  0  0  0  0  0  0  0  0
   23.8969  -19.2405  -19.9229 C   0  0  0  0  0  0  0  0  0  0  0  0
   23.9073  -18.6617  -18.6576 C   0  0  0  0  0  0  0  0  0  0  0  0
   23.6420  -19.4638  -17.4453 C   0  0  0  0  0  0  0  0  0  0  0  0
   24.9858  -20.0062  -16.9724 C   0  0  2  0  0  0  0  0  0  0  0  0
   25.3501  -21.0613  -17.8949 N   0  0  0  0  0  0  0  0  0  0  0  0
   24.9343  -20.5471  -15.6177 C   0  0  0  0  0  0  0  0  0  0  0  0
   24.3108  -21.6195  -15.4428 O   0  0  0  0  0  0  0  0  0  0  0  0
   24.1695  -17.3179  -18.5460 C   0  0  0  0  0  0  0  0  0  0  0  0
   24.4190  -16.5627  -19.6968 C   0  0  0  0  0  0  0  0  0  0  0  0
   25.5748  -19.8650  -14.5543 N   0  0  0  0  0  0  0  0  0  0  0  0
   25.3182  -20.3062  -13.2062 C   0  0  1  0  0  0  0  0  0  0  0  0
   26.3169  -19.6790  -12.2771 C   0  0  0  0  0  0  0  0  0  0  0  0
   26.0781  -20.0694  -10.8768 C   0  0  0  0  0  0  0  0  0  0  0  0
   25.3947  -19.2139  -10.0467 C   0  0  0  0  0  0  0  0  0  0  0  0
   25.1907  -19.5945   -8.7467 C   0  0  0  0  0  0  0  0  0  0  0  0
   25.6504  -20.7960   -8.2692 C   0  0  0  0  0  0  0  0  0  0  0  0
   26.3375  -21.6668   -9.0855 C   0  0  0  0  0  0  0  0  0  0  0  0
   26.5393  -21.2693  -10.4060 C   0  0  0  0  0  0  0  0  0  0  0  0
   23.9155  -19.9362  -12.8492 C   0  0  0  0  0  0  0  0  0  0  0  0
   23.3758  -18.8388  -13.1145 O   0  0  0  0  0  0  0  0  0  0  0  0
   20.8959  -20.1398  -14.0643 C   0  0  0  0  0  0  0  0  0  0  0  0
   20.7248  -20.9239  -12.7986 C   0  0  1  0  0  0  0  0  0  0  0  0
   20.8675  -22.3042  -13.0208 O   0  0  0  0  0  0  0  0  0  0  0  0
   21.7390  -20.4979  -11.7552 C   0  0  2  0  0  0  0  0  0  0  0  0
   23.0837  -20.8824  -12.1461 N   0  0  0  0  0  0  0  0  0  0  0  0
   21.3676  -21.1310  -10.4594 C   0  0  0  0  0  0  0  0  0  0  0  0
   20.2425  -20.8525   -9.9566 O   0  0  0  0  0  0  0  0  0  0  0  0
   22.2025  -21.9930   -9.8109 O   0  0  0  0  0  0  0  0  0  0  0  0
  2 12  2  0
  2  1  1  0
  3  2  1  0
  4  5  1  0
  4  3  2  0
  5 11  2  0
  6  5  1  0
  6  7  1  0
  7  8  1  6
  9  7  1  0
  9 13  1  0
 10  9  2  0
 11 12  1  0
 13 14  1  0
 15 16  1  0
 14 15  1  1
 16 17  2  0
 17 18  1  0
 19 18  2  0
 20 19  1  0
 21 20  2  0
 21 16  1  0
 22 23  2  0
 22 14  1  0
 25 24  1  6
 25 27  1  0
 26 25  1  0
 27 28  1  6
 27 29  1  0
 28 22  1  0
 29 31  1  0
 30 29  2  0
M  END
$$$$
