YFT.pdb
     RDKit          3D

 31 32  0  0  1  0  0  0  0  0999 V2000
   30.6294   -5.3905  -22.8967 O   0  0  0  0  0  0  0  0  0  0  0  0
   29.6186   -5.9191  -22.1276 C   0  0  0  0  0  0  0  0  0  0  0  0
   29.7331   -5.9305  -20.7655 C   0  0  0  0  0  0  0  0  0  0  0  0
   28.7194   -6.4601  -20.0076 C   0  0  0  0  0  0  0  0  0  0  0  0
   27.5710   -6.9893  -20.5883 C   0  0  0  0  0  0  0  0  0  0  0  0
   26.4863   -7.5581  -19.7617 C   0  0  0  0  0  0  0  0  0  0  0  0
   26.9896   -8.8966  -19.2338 C   0  0  2  0  0  0  0  0  0  0  0  0
   27.0357   -9.7943  -20.3690 N   0  0  0  0  0  0  0  0  0  0  0  0
   26.1220   -9.4635  -18.2060 C   0  0  0  0  0  0  0  0  0  0  0  0
   25.2691  -10.3079  -18.5655 O   0  0  0  0  0  0  0  0  0  0  0  0
   27.4553   -6.9781  -21.9570 C   0  0  0  0  0  0  0  0  0  0  0  0
   28.4856   -6.4395  -22.7351 C   0  0  0  0  0  0  0  0  0  0  0  0
   26.2587   -9.0575  -16.8559 N   0  0  0  0  0  0  0  0  0  0  0  0
   25.4115   -9.6757  -15.8670 C   0  0  1  0  0  0  0  0  0  0  0  0
   26.2611  -10.2463  -14.7685 C   0  0  0  0  0  0  0  0  0  0  0  0
   26.9780  -11.4562  -15.2071 C   0  0  0  0  0  0  0  0  0  0  0  0
   26.3978  -12.6875  -15.0194 C   0  0  0  0  0  0  0  0  0  0  0  0
   27.0858  -13.7992  -15.4284 C   0  0  0  0  0  0  0  0  0  0  0  0
   28.3239  -13.7035  -16.0122 C   0  0  0  0  0  0  0  0  0  0  0  0
   28.9220  -12.4786  -16.2087 C   0  0  0  0  0  0  0  0  0  0  0  0
   28.2131  -11.3546  -15.7888 C   0  0  0  0  0  0  0  0  0  0  0  0
   24.4566   -8.6466  -15.3560 C   0  0  0  0  0  0  0  0  0  0  0  0
   24.7121   -7.4266  -15.2448 O   0  0  0  0  0  0  0  0  0  0  0  0
   21.5078   -7.9896  -17.0802 C   0  0  0  0  0  0  0  0  0  0  0  0
   21.8927   -7.1547  -15.8966 C   0  0  1  0  0  0  0  0  0  0  0  0
   20.8996   -6.2110  -15.5831 O   0  0  0  0  0  0  0  0  0  0  0  0
   22.1336   -8.0217  -14.6764 C   0  0  2  0  0  0  0  0  0  0  0  0
   23.1302   -9.0421  -14.9489 N   0  0  0  0  0  0  0  0  0  0  0  0
   20.8385   -8.6441  -14.2847 C   0  0  0  0  0  0  0  0  0  0  0  0
   20.7236   -9.8989  -14.3783 O   0  0  0  0  0  0  0  0  0  0  0  0
   19.7873   -7.9014  -13.8331 O   0  0  0  0  0  0  0  0  0  0  0  0
  2 12  2  0
  2  1  1  0
  3  2  1  0
  4  5  1  0
  4  3  2  0
  5 11  2  0
  6  5  1  0
  6  7  1  0
  7  8  1  6
  9  7  1  0
  9 13  1  0
 10  9  2  0
 11 12  1  0
 13 14  1  0
 15 16  1  0
 14 15  1  1
 16 17  2  0
 17 18  1  0
 19 18  2  0
 20 19  1  0
 21 20  2  0
 21 16  1  0
 22 23  2  0
 22 14  1  0
 25 24  1  6
 25 27  1  0
 26 25  1  0
 27 28  1  6
 27 29  1  0
 28 22  1  0
 29 31  1  0
 30 29  2  0
M  END
$$$$
