YFT.pdb
     RDKit          3D

 31 32  0  0  1  0  0  0  0  0999 V2000
   29.2240  -17.3853  -18.1047 O   0  0  0  0  0  0  0  0  0  0  0  0
   28.5814  -17.9118  -17.0081 C   0  0  0  0  0  0  0  0  0  0  0  0
   28.7568  -17.3437  -15.7772 C   0  0  0  0  0  0  0  0  0  0  0  0
   28.1115  -17.8765  -14.6900 C   0  0  0  0  0  0  0  0  0  0  0  0
   27.2785  -18.9852  -14.8041 C   0  0  0  0  0  0  0  0  0  0  0  0
   26.5896  -19.5511  -13.6257 C   0  0  0  0  0  0  0  0  0  0  0  0
   27.4968  -20.6403  -13.0652 C   0  0  2  0  0  0  0  0  0  0  0  0
   27.3347  -21.7929  -13.9266 N   0  0  0  0  0  0  0  0  0  0  0  0
   27.1580  -21.0113  -11.6948 C   0  0  0  0  0  0  0  0  0  0  0  0
   26.3980  -21.9933  -11.5290 O   0  0  0  0  0  0  0  0  0  0  0  0
   27.1017  -19.5565  -16.0407 C   0  0  0  0  0  0  0  0  0  0  0  0
   27.7571  -19.0177  -17.1530 C   0  0  0  0  0  0  0  0  0  0  0  0
   27.6828  -20.2715  -10.6068 N   0  0  0  0  0  0  0  0  0  0  0  0
   27.3175  -20.6692   -9.2702 C   0  0  1  0  0  0  0  0  0  0  0  0
   28.4214  -20.3025   -8.3212 C   0  0  0  0  0  0  0  0  0  0  0  0
   27.9506  -20.2674   -6.9256 C   0  0  0  0  0  0  0  0  0  0  0  0
   27.7723  -21.4480   -6.2457 C   0  0  0  0  0  0  0  0  0  0  0  0
   27.3268  -21.3916   -4.9515 C   0  0  0  0  0  0  0  0  0  0  0  0
   27.0607  -20.1951   -4.3347 C   0  0  0  0  0  0  0  0  0  0  0  0
   27.2330  -19.0014   -4.9995 C   0  0  0  0  0  0  0  0  0  0  0  0
   27.6865  -19.0707   -6.3155 C   0  0  0  0  0  0  0  0  0  0  0  0
   26.0308  -19.9981   -8.9150 C   0  0  0  0  0  0  0  0  0  0  0  0
   25.8503  -18.7599   -8.9004 O   0  0  0  0  0  0  0  0  0  0  0  0
   23.5057  -21.4219  -11.0408 C   0  0  0  0  0  0  0  0  0  0  0  0
   23.3260  -20.1211  -10.3184 C   0  0  1  0  0  0  0  0  0  0  0  0
   22.0396  -19.5914  -10.5173 O   0  0  0  0  0  0  0  0  0  0  0  0
   23.5499  -20.2924   -8.8287 C   0  0  2  0  0  0  0  0  0  0  0  0
   24.8840  -20.7963   -8.5553 N   0  0  0  0  0  0  0  0  0  0  0  0
   22.5173  -21.2306   -8.3077 C   0  0  0  0  0  0  0  0  0  0  0  0
   22.7917  -22.4633   -8.2693 O   0  0  0  0  0  0  0  0  0  0  0  0
   21.2982  -20.7963   -7.8765 O   0  0  0  0  0  0  0  0  0  0  0  0
  2 12  2  0
  2  1  1  0
  3  2  1  0
  4  5  1  0
  4  3  2  0
  5 11  2  0
  6  5  1  0
  6  7  1  0
  7  8  1  6
  9  7  1  0
  9 13  1  0
 10  9  2  0
 11 12  1  0
 13 14  1  0
 15 16  1  0
 14 15  1  1
 16 17  2  0
 17 18  1  0
 19 18  2  0
 20 19  1  0
 21 20  2  0
 21 16  1  0
 22 23  2  0
 22 14  1  0
 25 24  1  6
 25 27  1  0
 26 25  1  0
 27 28  1  6
 27 29  1  0
 28 22  1  0
 29 31  1  0
 30 29  2  0
M  END
$$$$
