YFT.pdb
     RDKit          3D

 31 32  0  0  1  0  0  0  0  0999 V2000
   27.2579  -16.6578  -17.7949 O   0  0  0  0  0  0  0  0  0  0  0  0
   26.7829  -17.3211  -16.6872 C   0  0  0  0  0  0  0  0  0  0  0  0
   27.2453  -16.9904  -15.4441 C   0  0  0  0  0  0  0  0  0  0  0  0
   26.7653  -17.6580  -14.3459 C   0  0  0  0  0  0  0  0  0  0  0  0
   25.8155  -18.6684  -14.4609 C   0  0  0  0  0  0  0  0  0  0  0  0
   25.3067  -19.3814  -13.2708 C   0  0  0  0  0  0  0  0  0  0  0  0
   26.4455  -20.2569  -12.7607 C   0  0  2  0  0  0  0  0  0  0  0  0
   26.4559  -21.4423  -13.5924 N   0  0  0  0  0  0  0  0  0  0  0  0
   26.2782  -20.6489  -11.3648 C   0  0  0  0  0  0  0  0  0  0  0  0
   25.7051  -21.7382  -11.1311 O   0  0  0  0  0  0  0  0  0  0  0  0
   25.3503  -19.0012  -15.7098 C   0  0  0  0  0  0  0  0  0  0  0  0
   25.8360  -18.3240  -16.8334 C   0  0  0  0  0  0  0  0  0  0  0  0
   26.7558  -19.8103  -10.3279 N   0  0  0  0  0  0  0  0  0  0  0  0
   26.5741  -20.2389   -8.9637 C   0  0  1  0  0  0  0  0  0  0  0  0
   27.5042  -19.4697   -8.0708 C   0  0  0  0  0  0  0  0  0  0  0  0
   27.3253  -19.8342   -6.6547 C   0  0  0  0  0  0  0  0  0  0  0  0
   26.9026  -21.1017   -6.3342 C   0  0  0  0  0  0  0  0  0  0  0  0
   26.7360  -21.4162   -5.0114 C   0  0  0  0  0  0  0  0  0  0  0  0
   26.9805  -20.5007   -4.0189 C   0  0  0  0  0  0  0  0  0  0  0  0
   27.4046  -19.2254   -4.3200 C   0  0  0  0  0  0  0  0  0  0  0  0
   27.5706  -18.9165   -5.6689 C   0  0  0  0  0  0  0  0  0  0  0  0
   25.1427  -20.0286   -8.5913 C   0  0  0  0  0  0  0  0  0  0  0  0
   24.4675  -19.0177   -8.8885 O   0  0  0  0  0  0  0  0  0  0  0  0
   22.5400  -19.5977   -9.6037 C   0  0  0  0  0  0  0  0  0  0  0  0
   22.2011  -20.8035   -8.7807 C   0  0  1  0  0  0  0  0  0  0  0  0
   22.4058  -21.9947   -9.4979 O   0  0  0  0  0  0  0  0  0  0  0  0
   23.0402  -20.8524   -7.5189 C   0  0  2  0  0  0  0  0  0  0  0  0
   24.4457  -21.0388   -7.8329 N   0  0  0  0  0  0  0  0  0  0  0  0
   22.5394  -21.9688   -6.6698 C   0  0  0  0  0  0  0  0  0  0  0  0
   21.3554  -21.9056   -6.2332 O   0  0  0  0  0  0  0  0  0  0  0  0
   23.3183  -23.0438   -6.3565 O   0  0  0  0  0  0  0  0  0  0  0  0
  2 12  2  0
  2  1  1  0
  3  2  1  0
  4  5  1  0
  4  3  2  0
  5 11  2  0
  6  5  1  0
  6  7  1  0
  7  8  1  6
  9  7  1  0
  9 13  1  0
 10  9  2  0
 11 12  1  0
 13 14  1  0
 15 16  1  0
 14 15  1  1
 16 17  2  0
 17 18  1  0
 19 18  2  0
 20 19  1  0
 21 20  2  0
 21 16  1  0
 22 23  2  0
 22 14  1  0
 25 24  1  6
 25 27  1  0
 26 25  1  0
 27 28  1  6
 27 29  1  0
 28 22  1  0
 29 31  1  0
 30 29  2  0
M  END
$$$$
