YFT.pdb
     RDKit          3D

 31 32  0  0  1  0  0  0  0  0999 V2000
   28.3185  -20.3327  -22.3796 O   0  0  0  0  0  0  0  0  0  0  0  0
   27.5018  -20.6457  -21.3177 C   0  0  0  0  0  0  0  0  0  0  0  0
   26.5134  -21.5777  -21.4693 C   0  0  0  0  0  0  0  0  0  0  0  0
   25.7043  -21.8827  -20.4041 C   0  0  0  0  0  0  0  0  0  0  0  0
   25.8611  -21.2672  -19.1660 C   0  0  0  0  0  0  0  0  0  0  0  0
   24.9827  -21.6030  -18.0263 C   0  0  0  0  0  0  0  0  0  0  0  0
   25.8283  -22.3958  -17.0362 C   0  0  2  0  0  0  0  0  0  0  0  0
   25.9496  -23.7329  -17.5787 N   0  0  0  0  0  0  0  0  0  0  0  0
   25.2284  -22.4672  -15.7076 C   0  0  0  0  0  0  0  0  0  0  0  0
   24.5314  -23.4725  -15.4373 O   0  0  0  0  0  0  0  0  0  0  0  0
   26.8542  -20.3306  -19.0129 C   0  0  0  0  0  0  0  0  0  0  0  0
   27.6824  -20.0155  -20.0954 C   0  0  0  0  0  0  0  0  0  0  0  0
   25.4415  -21.4239  -14.7735 N   0  0  0  0  0  0  0  0  0  0  0  0
   24.8137  -21.5259  -13.4798 C   0  0  1  0  0  0  0  0  0  0  0  0
   25.6533  -20.8124  -12.4601 C   0  0  0  0  0  0  0  0  0  0  0  0
   25.0355  -20.8501  -11.1232 C   0  0  0  0  0  0  0  0  0  0  0  0
   23.8960  -20.1194  -10.8876 C   0  0  0  0  0  0  0  0  0  0  0  0
   23.3429  -20.1638   -9.6351 C   0  0  0  0  0  0  0  0  0  0  0  0
   23.9000  -20.9136   -8.6299 C   0  0  0  0  0  0  0  0  0  0  0  0
   25.0419  -21.6524   -8.8464 C   0  0  0  0  0  0  0  0  0  0  0  0
   25.5958  -21.5998  -10.1242 C   0  0  0  0  0  0  0  0  0  0  0  0
   23.4405  -20.9453  -13.5763 C   0  0  0  0  0  0  0  0  0  0  0  0
   23.1858  -19.7576  -13.8771 O   0  0  0  0  0  0  0  0  0  0  0  0
   20.8904  -20.7502  -15.7443 C   0  0  0  0  0  0  0  0  0  0  0  0
   20.2343  -21.4581  -14.5978 C   0  0  1  0  0  0  0  0  0  0  0  0
   20.1947  -22.8481  -14.8014 O   0  0  0  0  0  0  0  0  0  0  0  0
   20.9675  -21.1836  -13.2994 C   0  0  2  0  0  0  0  0  0  0  0  0
   22.2924  -21.7780  -13.3118 N   0  0  0  0  0  0  0  0  0  0  0  0
   20.1548  -21.7356  -12.1802 C   0  0  0  0  0  0  0  0  0  0  0  0
   20.6193  -22.7119  -11.5265 O   0  0  0  0  0  0  0  0  0  0  0  0
   18.9368  -21.2189  -11.8484 O   0  0  0  0  0  0  0  0  0  0  0  0
  2 12  2  0
  2  1  1  0
  3  2  1  0
  4  5  1  0
  4  3  2  0
  5 11  2  0
  6  5  1  0
  6  7  1  0
  7  8  1  6
  9  7  1  0
  9 13  1  0
 10  9  2  0
 11 12  1  0
 13 14  1  0
 15 16  1  0
 14 15  1  1
 16 17  2  0
 17 18  1  0
 19 18  2  0
 20 19  1  0
 21 20  2  0
 21 16  1  0
 22 23  2  0
 22 14  1  0
 25 24  1  6
 25 27  1  0
 26 25  1  0
 27 28  1  6
 27 29  1  0
 28 22  1  0
 29 31  1  0
 30 29  2  0
M  END
$$$$
