YFT.pdb
     RDKit          3D

 31 32  0  0  1  0  0  0  0  0999 V2000
   17.3792  -23.7157  -14.9469 O   0  0  0  0  0  0  0  0  0  0  0  0
   18.5309  -22.9952  -14.7300 C   0  0  0  0  0  0  0  0  0  0  0  0
   18.4721  -21.6346  -14.6130 C   0  0  0  0  0  0  0  0  0  0  0  0
   19.6266  -20.9253  -14.3969 C   0  0  0  0  0  0  0  0  0  0  0  0
   20.8633  -21.5543  -14.2927 C   0  0  0  0  0  0  0  0  0  0  0  0
   22.1002  -20.7798  -14.0610 C   0  0  0  0  0  0  0  0  0  0  0  0
   22.4436  -20.9285  -12.5833 C   0  0  2  0  0  0  0  0  0  0  0  0
   21.4440  -20.1780  -11.8522 N   0  0  0  0  0  0  0  0  0  0  0  0
   23.7691  -20.4136  -12.2543 C   0  0  0  0  0  0  0  0  0  0  0  0
   23.9144  -19.1702  -12.2047 O   0  0  0  0  0  0  0  0  0  0  0  0
   20.9231  -22.9216  -14.4100 C   0  0  0  0  0  0  0  0  0  0  0  0
   19.7495  -23.6502  -14.6305 C   0  0  0  0  0  0  0  0  0  0  0  0
   24.8382  -21.3084  -12.0037 N   0  0  0  0  0  0  0  0  0  0  0  0
   26.1508  -20.7582  -11.7751 C   0  0  1  0  0  0  0  0  0  0  0  0
   26.7932  -21.4648  -10.6166 C   0  0  0  0  0  0  0  0  0  0  0  0
   26.3719  -20.8905   -9.3270 C   0  0  0  0  0  0  0  0  0  0  0  0
   25.3535  -21.4885   -8.6246 C   0  0  0  0  0  0  0  0  0  0  0  0
   24.9735  -20.9331   -7.4315 C   0  0  0  0  0  0  0  0  0  0  0  0
   25.5835  -19.8083   -6.9359 C   0  0  0  0  0  0  0  0  0  0  0  0
   26.6057  -19.1945   -7.6251 C   0  0  0  0  0  0  0  0  0  0  0  0
   26.9841  -19.7681   -8.8376 C   0  0  0  0  0  0  0  0  0  0  0  0
   26.9479  -20.9063  -13.0300 C   0  0  0  0  0  0  0  0  0  0  0  0
   27.6501  -21.9013  -13.3179 O   0  0  0  0  0  0  0  0  0  0  0  0
   27.4642  -22.5001  -15.2057 C   0  0  0  0  0  0  0  0  0  0  0  0
   27.1882  -21.2582  -15.9979 C   0  0  1  0  0  0  0  0  0  0  0  0
   25.8174  -21.1115  -16.2708 O   0  0  0  0  0  0  0  0  0  0  0  0
   27.6650  -20.0246  -15.2565 C   0  0  2  0  0  0  0  0  0  0  0  0
   26.9377  -19.8493  -14.0119 N   0  0  0  0  0  0  0  0  0  0  0  0
   27.4759  -18.8450  -16.1457 C   0  0  0  0  0  0  0  0  0  0  0  0
   26.6628  -17.9472  -15.7862 O   0  0  0  0  0  0  0  0  0  0  0  0
   28.1507  -18.7126  -17.3237 O   0  0  0  0  0  0  0  0  0  0  0  0
  2 12  2  0
  2  1  1  0
  3  2  1  0
  4  5  1  0
  4  3  2  0
  5 11  2  0
  6  5  1  0
  6  7  1  0
  7  8  1  1
  9  7  1  0
  9 13  1  0
 10  9  2  0
 11 12  1  0
 13 14  1  0
 15 16  1  0
 14 15  1  1
 16 17  2  0
 17 18  1  0
 19 18  2  0
 20 19  1  0
 21 20  2  0
 21 16  1  0
 22 23  2  0
 22 14  1  0
 25 24  1  1
 25 27  1  0
 26 25  1  0
 27 28  1  1
 27 29  1  0
 28 22  1  0
 29 31  1  0
 30 29  2  0
M  END
$$$$
