YFT.pdb
     RDKit          3D

 31 32  0  0  1  0  0  0  0  0999 V2000
   15.1385  -24.0743  -14.6805 O   0  0  0  0  0  0  0  0  0  0  0  0
   16.3492  -23.4220  -14.7184 C   0  0  0  0  0  0  0  0  0  0  0  0
   17.5057  -24.1181  -14.5029 C   0  0  0  0  0  0  0  0  0  0  0  0
   18.7079  -23.4581  -14.5428 C   0  0  0  0  0  0  0  0  0  0  0  0
   18.7850  -22.0924  -14.7978 C   0  0  0  0  0  0  0  0  0  0  0  0
   20.0856  -21.3921  -14.8371 C   0  0  0  0  0  0  0  0  0  0  0  0
   20.5572  -21.2561  -13.3939 C   0  0  2  0  0  0  0  0  0  0  0  0
   19.6122  -20.3793  -12.7343 N   0  0  0  0  0  0  0  0  0  0  0  0
   21.8976  -20.6886  -13.2862 C   0  0  0  0  0  0  0  0  0  0  0  0
   22.0149  -19.4469  -13.4044 O   0  0  0  0  0  0  0  0  0  0  0  0
   17.6232  -21.3923  -15.0146 C   0  0  0  0  0  0  0  0  0  0  0  0
   16.3944  -22.0597  -14.9751 C   0  0  0  0  0  0  0  0  0  0  0  0
   23.0114  -21.5328  -13.0557 N   0  0  0  0  0  0  0  0  0  0  0  0
   24.3270  -20.9435  -13.0536 C   0  0  1  0  0  0  0  0  0  0  0  0
   25.2305  -21.7430  -12.1601 C   0  0  0  0  0  0  0  0  0  0  0  0
   26.6142  -21.2382  -12.1925 C   0  0  0  0  0  0  0  0  0  0  0  0
   26.9754  -20.2107  -11.3548 C   0  0  0  0  0  0  0  0  0  0  0  0
   28.2653  -19.7524  -11.4072 C   0  0  0  0  0  0  0  0  0  0  0  0
   29.1858  -20.2943  -12.2685 C   0  0  0  0  0  0  0  0  0  0  0  0
   28.8430  -21.3244  -13.1159 C   0  0  0  0  0  0  0  0  0  0  0  0
   27.5282  -21.7825  -13.0541 C   0  0  0  0  0  0  0  0  0  0  0  0
   24.8269  -20.9041  -14.4609 C   0  0  0  0  0  0  0  0  0  0  0  0
   24.8503  -21.8838  -15.2391 O   0  0  0  0  0  0  0  0  0  0  0  0
   24.7764  -17.3879  -16.6442 C   0  0  0  0  0  0  0  0  0  0  0  0
   24.9217  -18.7549  -17.2411 C   0  0  1  0  0  0  0  0  0  0  0  0
   25.4734  -18.7005  -18.5326 O   0  0  0  0  0  0  0  0  0  0  0  0
   25.8062  -19.6328  -16.3776 C   0  0  2  0  0  0  0  0  0  0  0  0
   25.3296  -19.6666  -15.0063 N   0  0  0  0  0  0  0  0  0  0  0  0
   27.1945  -19.0971  -16.4378 C   0  0  0  0  0  0  0  0  0  0  0  0
   27.6438  -18.4809  -15.4304 O   0  0  0  0  0  0  0  0  0  0  0  0
   27.9822  -19.2538  -17.5404 O   0  0  0  0  0  0  0  0  0  0  0  0
  2 12  2  0
  2  1  1  0
  3  2  1  0
  4  5  1  0
  4  3  2  0
  5 11  2  0
  6  5  1  0
  6  7  1  0
  7  8  1  1
  9  7  1  0
  9 13  1  0
 10  9  2  0
 11 12  1  0
 13 14  1  0
 15 16  1  0
 14 15  1  1
 16 17  2  0
 17 18  1  0
 19 18  2  0
 20 19  1  0
 21 20  2  0
 21 16  1  0
 22 23  2  0
 22 14  1  0
 25 24  1  1
 25 27  1  0
 26 25  1  0
 27 28  1  1
 27 29  1  0
 28 22  1  0
 29 31  1  0
 30 29  2  0
M  END
$$$$
