IMI.pdb
     RDKit          3D

 25 24  0  0  1  0  0  0  0  0999 V2000
   18.0303  -16.6977  -19.3612 C   0  0  0  0  0  0  0  0  0  0  0  0
   18.8934  -15.5037  -19.7334 C   0  0  0  0  0  0  0  0  0  0  0  0
   19.0716  -14.5487  -18.5734 C   0  0  2  0  0  0  0  0  0  0  0  0
   17.8189  -14.1520  -17.8891 C   0  0  0  0  0  0  0  0  0  0  0  0
   19.9371  -13.3981  -19.0602 C   0  0  2  0  0  0  0  0  0  0  0  0
   21.0765  -14.0703  -19.7196 N   0  0  0  0  0  0  0  0  0  0  0  0
   20.4848  -12.6507  -17.8728 C   0  0  0  0  0  0  0  0  0  0  0  0
   19.6719  -12.1259  -17.0980 O   0  0  0  0  0  0  0  0  0  0  0  0
   26.5769  -14.2732  -17.1167 C   0  0  0  0  0  0  0  0  0  0  0  0
   25.8014  -14.0839  -15.4985 S   0  0  0  0  0  0  0  0  0  0  0  0
   24.0857  -13.5033  -15.6194 C   0  0  0  0  0  0  0  0  0  0  0  0
   23.9393  -12.2643  -16.4082 C   0  0  0  0  0  0  0  0  0  0  0  0
   22.4375  -11.8978  -16.4767 C   0  0  2  0  0  0  0  0  0  0  0  0
   21.8853  -12.5535  -17.6529 N   0  0  0  0  0  0  0  0  0  0  0  0
   22.1955  -10.4697  -16.5308 C   0  0  0  0  0  0  0  0  0  0  0  0
   22.6635   -9.8332  -17.5405 O   0  0  0  0  0  0  0  0  0  0  0  0
   18.8254   -5.8934  -17.3138 C   0  0  0  0  0  0  0  0  0  0  0  0
   20.0513   -6.3084  -16.5658 C   0  0  0  0  0  0  0  0  0  0  0  0
   20.1922   -7.8040  -16.4401 C   0  0  2  0  0  0  0  0  0  0  0  0
   18.9867   -8.4027  -15.7262 C   0  0  0  0  0  0  0  0  0  0  0  0
   21.4614   -8.1806  -15.7542 C   0  0  2  0  0  0  0  0  0  0  0  0
   21.5051   -9.6541  -15.6147 N   0  0  0  0  0  0  0  0  0  0  0  0
   21.6686   -7.5620  -14.4209 C   0  0  0  0  0  0  0  0  0  0  0  0
   21.9433   -6.2246  -14.3160 O   0  0  0  0  0  0  0  0  0  0  0  0
   21.5970   -8.2590  -13.3516 O   0  0  0  0  0  0  0  0  0  0  0  0
  1  2  1  0
  3  2  1  0
  3  4  1  6
  5  3  1  0
  5  6  1  1
  7  8  2  0
  7  5  1  0
 10  9  1  0
 11 10  1  0
 12 11  1  0
 13 12  1  6
 13 14  1  0
 14  7  1  0
 15 13  1  0
 15 16  2  0
 18 17  1  0
 18 19  1  0
 19 20  1  1
 21 19  1  0
 21 22  1  1
 22 15  1  0
 23 21  1  0
 24 23  1  0
 25 23  2  0
M  END
$$$$
