IMI.pdb
     RDKit          3D

 25 24  0  0  1  0  0  0  0  0999 V2000
   18.8810  -10.5078  -22.7722 C   0  0  0  0  0  0  0  0  0  0  0  0
   19.7881   -9.5161  -22.0631 C   0  0  0  0  0  0  0  0  0  0  0  0
   19.4861   -9.4288  -20.5830 C   0  0  2  0  0  0  0  0  0  0  0  0
   18.0701   -9.1521  -20.2468 C   0  0  0  0  0  0  0  0  0  0  0  0
   20.4971   -8.4750  -19.9680 C   0  0  2  0  0  0  0  0  0  0  0  0
   21.7975   -9.1303  -20.2216 N   0  0  0  0  0  0  0  0  0  0  0  0
   20.2996   -8.4356  -18.4753 C   0  0  0  0  0  0  0  0  0  0  0  0
   19.2446   -7.9457  -18.0469 O   0  0  0  0  0  0  0  0  0  0  0  0
   22.8799  -10.8048  -11.3643 C   0  0  0  0  0  0  0  0  0  0  0  0
   23.0486  -10.9470  -13.1553 S   0  0  0  0  0  0  0  0  0  0  0  0
   22.0366   -9.7288  -14.0424 C   0  0  0  0  0  0  0  0  0  0  0  0
   22.0856   -9.8817  -15.5098 C   0  0  0  0  0  0  0  0  0  0  0  0
   21.1869   -8.7963  -16.1489 C   0  0  2  0  0  0  0  0  0  0  0  0
   21.2910   -8.9438  -17.5932 N   0  0  0  0  0  0  0  0  0  0  0  0
   21.5397   -7.4484  -15.7495 C   0  0  0  0  0  0  0  0  0  0  0  0
   22.5782   -6.9284  -16.2924 O   0  0  0  0  0  0  0  0  0  0  0  0
   21.8246   -2.2845  -15.4661 C   0  0  0  0  0  0  0  0  0  0  0  0
   20.7393   -2.8429  -14.6031 C   0  0  0  0  0  0  0  0  0  0  0  0
   20.3544   -4.2530  -14.9715 C   0  0  2  0  0  0  0  0  0  0  0  0
   18.9892   -4.6090  -14.3962 C   0  0  0  0  0  0  0  0  0  0  0  0
   21.3894   -5.2357  -14.5397 C   0  0  2  0  0  0  0  0  0  0  0  0
   20.8954   -6.6014  -14.8282 N   0  0  0  0  0  0  0  0  0  0  0  0
   21.7822   -5.1551  -13.1106 C   0  0  0  0  0  0  0  0  0  0  0  0
   21.5285   -6.2022  -12.2652 O   0  0  0  0  0  0  0  0  0  0  0  0
   22.3593   -4.1150  -12.6423 O   0  0  0  0  0  0  0  0  0  0  0  0
  1  2  1  0
  3  2  1  0
  3  4  1  6
  5  3  1  0
  5  6  1  1
  7  8  2  0
  7  5  1  0
 10  9  1  0
 11 10  1  0
 12 11  1  0
 13 12  1  1
 13 14  1  0
 14  7  1  0
 15 13  1  0
 15 16  2  0
 18 17  1  0
 18 19  1  0
 19 20  1  1
 21 19  1  0
 21 22  1  1
 22 15  1  0
 23 21  1  0
 24 23  1  0
 25 23  2  0
M  END
$$$$
