IMI.pdb
     RDKit          3D

 25 24  0  0  1  0  0  0  0  0999 V2000
   25.7336  -13.6364  -16.0224 C   0  0  0  0  0  0  0  0  0  0  0  0
   25.9713  -14.9977  -16.6546 C   0  0  0  0  0  0  0  0  0  0  0  0
   25.7737  -16.1252  -15.6651 C   0  0  2  0  0  0  0  0  0  0  0  0
   26.5955  -16.0325  -14.4359 C   0  0  0  0  0  0  0  0  0  0  0  0
   25.8996  -17.4311  -16.4324 C   0  0  2  0  0  0  0  0  0  0  0  0
   24.9256  -17.2860  -17.5348 N   0  0  0  0  0  0  0  0  0  0  0  0
   25.4257  -18.5663  -15.5633 C   0  0  0  0  0  0  0  0  0  0  0  0
   24.2374  -18.5639  -15.2104 O   0  0  0  0  0  0  0  0  0  0  0  0
   27.5181  -24.7176  -15.9502 C   0  0  0  0  0  0  0  0  0  0  0  0
   26.4272  -23.7452  -17.0087 S   0  0  0  0  0  0  0  0  0  0  0  0
   25.8317  -22.2396  -16.1878 C   0  0  0  0  0  0  0  0  0  0  0  0
   26.4610  -21.9987  -14.8745 C   0  0  0  0  0  0  0  0  0  0  0  0
   25.8919  -20.6845  -14.2885 C   0  0  2  0  0  0  0  0  0  0  0  0
   26.3136  -19.6016  -15.1649 N   0  0  0  0  0  0  0  0  0  0  0  0
   26.3168  -20.4302  -12.9263 C   0  0  0  0  0  0  0  0  0  0  0  0
   27.5745  -20.2900  -12.7206 O   0  0  0  0  0  0  0  0  0  0  0  0
   26.5940  -17.3491   -9.1444 C   0  0  0  0  0  0  0  0  0  0  0  0
   26.9107  -18.6454   -9.8181 C   0  0  0  0  0  0  0  0  0  0  0  0
   25.9560  -19.7531   -9.4524 C   0  0  2  0  0  0  0  0  0  0  0  0
   26.2528  -20.2839   -8.0554 C   0  0  0  0  0  0  0  0  0  0  0  0
   25.9794  -20.8532  -10.4587 C   0  0  2  0  0  0  0  0  0  0  0  0
   25.5337  -20.3117  -11.7628 N   0  0  0  0  0  0  0  0  0  0  0  0
   25.1540  -22.0394  -10.1198 C   0  0  0  0  0  0  0  0  0  0  0  0
   24.0872  -22.3850  -10.9058 O   0  0  0  0  0  0  0  0  0  0  0  0
   25.4182  -22.7564   -9.0950 O   0  0  0  0  0  0  0  0  0  0  0  0
  1  2  1  0
  3  2  1  0
  3  4  1  1
  5  3  1  0
  5  6  1  6
  7  8  2  0
  7  5  1  0
 10  9  1  0
 11 10  1  0
 12 11  1  0
 13 12  1  6
 13 14  1  0
 14  7  1  0
 15 13  1  0
 15 16  2  0
 18 17  1  0
 18 19  1  0
 19 20  1  1
 21 19  1  0
 21 22  1  6
 22 15  1  0
 23 21  1  0
 24 23  1  0
 25 23  2  0
M  END
$$$$
