IMI.pdb
     RDKit          3D

 25 24  0  0  1  0  0  0  0  0999 V2000
   29.9989  -21.2226  -13.0531 C   0  0  0  0  0  0  0  0  0  0  0  0
   28.5788  -20.7580  -12.7769 C   0  0  0  0  0  0  0  0  0  0  0  0
   27.7119  -20.8152  -14.0157 C   0  0  2  0  0  0  0  0  0  0  0  0
   28.3032  -20.1956  -15.2245 C   0  0  0  0  0  0  0  0  0  0  0  0
   26.3343  -20.3011  -13.6311 C   0  0  2  0  0  0  0  0  0  0  0  0
   26.5529  -18.8596  -13.3875 N   0  0  0  0  0  0  0  0  0  0  0  0
   25.9208  -20.9185  -12.3211 C   0  0  0  0  0  0  0  0  0  0  0  0
   25.6081  -22.1180  -12.3233 O   0  0  0  0  0  0  0  0  0  0  0  0
   28.1371  -18.9956   -6.4928 C   0  0  0  0  0  0  0  0  0  0  0  0
   26.5974  -19.8070   -6.0164 S   0  0  0  0  0  0  0  0  0  0  0  0
   25.7264  -20.5234   -7.4388 C   0  0  0  0  0  0  0  0  0  0  0  0
   26.1127  -19.9193   -8.7290 C   0  0  0  0  0  0  0  0  0  0  0  0
   25.4103  -20.6968   -9.8676 C   0  0  2  0  0  0  0  0  0  0  0  0
   25.8920  -20.1488  -11.1271 N   0  0  0  0  0  0  0  0  0  0  0  0
   23.9639  -20.6283   -9.8043 C   0  0  0  0  0  0  0  0  0  0  0  0
   23.4213  -19.4842  -10.0052 O   0  0  0  0  0  0  0  0  0  0  0  0
   20.7080  -21.6649  -13.1625 C   0  0  0  0  0  0  0  0  0  0  0  0
   21.2830  -21.1155  -11.8967 C   0  0  0  0  0  0  0  0  0  0  0  0
   20.9253  -21.9300  -10.6798 C   0  0  2  0  0  0  0  0  0  0  0  0
   19.4138  -22.0006  -10.5013 C   0  0  0  0  0  0  0  0  0  0  0  0
   21.5847  -21.4011   -9.4514 C   0  0  2  0  0  0  0  0  0  0  0  0
   23.0398  -21.6584   -9.5470 N   0  0  0  0  0  0  0  0  0  0  0  0
   21.0783  -21.9565   -8.1715 C   0  0  0  0  0  0  0  0  0  0  0  0
   19.9115  -21.4874   -7.6294 O   0  0  0  0  0  0  0  0  0  0  0  0
   21.7158  -22.8757   -7.5527 O   0  0  0  0  0  0  0  0  0  0  0  0
  1  2  1  0
  3  2  1  0
  3  4  1  6
  5  3  1  0
  5  6  1  1
  7  8  2  0
  7  5  1  0
 10  9  1  0
 11 10  1  0
 12 11  1  0
 13 12  1  1
 13 14  1  0
 14  7  1  0
 15 13  1  0
 15 16  2  0
 18 17  1  0
 18 19  1  0
 19 20  1  1
 21 19  1  0
 21 22  1  6
 22 15  1  0
 23 21  1  0
 24 23  1  0
 25 23  2  0
M  END
$$$$
