IMI.pdb
     RDKit          3D

 25 24  0  0  1  0  0  0  0  0999 V2000
   28.2384  -17.5741  -17.3255 C   0  0  0  0  0  0  0  0  0  0  0  0
   28.7028  -18.6878  -16.4019 C   0  0  0  0  0  0  0  0  0  0  0  0
   27.5927  -19.1733  -15.4956 C   0  0  2  0  0  0  0  0  0  0  0  0
   26.8544  -18.1062  -14.7808 C   0  0  0  0  0  0  0  0  0  0  0  0
   28.1721  -20.2652  -14.6113 C   0  0  2  0  0  0  0  0  0  0  0  0
   28.5662  -21.3203  -15.5686 N   0  0  0  0  0  0  0  0  0  0  0  0
   27.0805  -20.8338  -13.7432 C   0  0  0  0  0  0  0  0  0  0  0  0
   26.2326  -21.5577  -14.2849 O   0  0  0  0  0  0  0  0  0  0  0  0
   27.2092  -20.1640   -7.0950 C   0  0  0  0  0  0  0  0  0  0  0  0
   25.5423  -20.7845   -7.3994 S   0  0  0  0  0  0  0  0  0  0  0  0
   25.2614  -21.1778   -9.1491 C   0  0  0  0  0  0  0  0  0  0  0  0
   26.3103  -20.6522  -10.0449 C   0  0  0  0  0  0  0  0  0  0  0  0
   25.9715  -21.0657  -11.4970 C   0  0  2  0  0  0  0  0  0  0  0  0
   27.0290  -20.5476  -12.3524 N   0  0  0  0  0  0  0  0  0  0  0  0
   24.6777  -20.5893  -11.9440 C   0  0  0  0  0  0  0  0  0  0  0  0
   24.4889  -19.3212  -11.9487 O   0  0  0  0  0  0  0  0  0  0  0  0
   22.8829  -20.8364  -16.5659 C   0  0  0  0  0  0  0  0  0  0  0  0
   23.1105  -20.4985  -15.1277 C   0  0  0  0  0  0  0  0  0  0  0  0
   22.0260  -21.0161  -14.2176 C   0  0  2  0  0  0  0  0  0  0  0  0
   20.6616  -20.4938  -14.6503 C   0  0  0  0  0  0  0  0  0  0  0  0
   22.2993  -20.6802  -12.7908 C   0  0  2  0  0  0  0  0  0  0  0  0
   23.5659  -21.3312  -12.3853 N   0  0  0  0  0  0  0  0  0  0  0  0
   21.2308  -21.0628  -11.8341 C   0  0  0  0  0  0  0  0  0  0  0  0
   20.3692  -20.1163  -11.3473 O   0  0  0  0  0  0  0  0  0  0  0  0
   21.0943  -22.2734  -11.4466 O   0  0  0  0  0  0  0  0  0  0  0  0
  1  2  1  0
  3  2  1  0
  3  4  1  1
  5  3  1  0
  5  6  1  6
  7  8  2  0
  7  5  1  0
 10  9  1  0
 11 10  1  0
 12 11  1  0
 13 12  1  1
 13 14  1  0
 14  7  1  0
 15 13  1  0
 15 16  2  0
 18 17  1  0
 18 19  1  0
 19 20  1  6
 21 19  1  0
 21 22  1  1
 22 15  1  0
 23 21  1  0
 24 23  1  0
 25 23  2  0
M  END
$$$$
