IMI.pdb
     RDKit          3D

 25 24  0  0  1  0  0  0  0  0999 V2000
   28.1440  -18.0191  -17.6041 C   0  0  0  0  0  0  0  0  0  0  0  0
   28.6393  -19.0689  -16.6234 C   0  0  0  0  0  0  0  0  0  0  0  0
   27.5510  -19.5137  -15.6708 C   0  0  2  0  0  0  0  0  0  0  0  0
   26.7559  -18.4174  -15.0704 C   0  0  0  0  0  0  0  0  0  0  0  0
   28.1812  -20.4768  -14.6781 C   0  0  2  0  0  0  0  0  0  0  0  0
   28.6230  -21.6091  -15.5194 N   0  0  0  0  0  0  0  0  0  0  0  0
   27.1178  -20.9989  -13.7480 C   0  0  0  0  0  0  0  0  0  0  0  0
   26.3307  -21.8473  -14.1919 O   0  0  0  0  0  0  0  0  0  0  0  0
   27.2435  -19.6262   -7.2163 C   0  0  0  0  0  0  0  0  0  0  0  0
   25.6200  -20.3847   -7.4287 S   0  0  0  0  0  0  0  0  0  0  0  0
   25.3483  -20.9692   -9.1256 C   0  0  0  0  0  0  0  0  0  0  0  0
   26.3507  -20.4687  -10.0867 C   0  0  0  0  0  0  0  0  0  0  0  0
   26.0088  -21.0239  -11.4899 C   0  0  2  0  0  0  0  0  0  0  0  0
   27.0245  -20.5320  -12.4092 N   0  0  0  0  0  0  0  0  0  0  0  0
   24.6853  -20.6519  -11.9493 C   0  0  0  0  0  0  0  0  0  0  0  0
   24.4639  -19.4057  -12.1532 O   0  0  0  0  0  0  0  0  0  0  0  0
   22.7519  -21.4446  -16.4257 C   0  0  0  0  0  0  0  0  0  0  0  0
   22.9871  -20.9233  -15.0446 C   0  0  0  0  0  0  0  0  0  0  0  0
   21.9954  -21.4451  -14.0363 C   0  0  2  0  0  0  0  0  0  0  0  0
   20.5692  -21.1172  -14.4606 C   0  0  0  0  0  0  0  0  0  0  0  0
   22.2789  -20.9262  -12.6675 C   0  0  2  0  0  0  0  0  0  0  0  0
   23.5755  -21.4769  -12.2114 N   0  0  0  0  0  0  0  0  0  0  0  0
   21.2412  -21.2252  -11.6492 C   0  0  0  0  0  0  0  0  0  0  0  0
   20.2135  -20.3465  -11.4327 O   0  0  0  0  0  0  0  0  0  0  0  0
   21.2852  -22.2995  -10.9577 O   0  0  0  0  0  0  0  0  0  0  0  0
  1  2  1  0
  3  2  1  0
  3  4  1  1
  5  3  1  0
  5  6  1  6
  7  8  2  0
  7  5  1  0
 10  9  1  0
 11 10  1  0
 12 11  1  0
 13 12  1  1
 13 14  1  0
 14  7  1  0
 15 13  1  0
 15 16  2  0
 18 17  1  0
 18 19  1  0
 19 20  1  6
 21 19  1  0
 21 22  1  1
 22 15  1  0
 23 21  1  0
 24 23  1  0
 25 23  2  0
M  END
$$$$
