IMI.pdb
     RDKit          3D

 25 24  0  0  1  0  0  0  0  0999 V2000
   28.1375  -17.5618  -17.2176 C   0  0  0  0  0  0  0  0  0  0  0  0
   28.5877  -18.5878  -16.1910 C   0  0  0  0  0  0  0  0  0  0  0  0
   27.4275  -19.1330  -15.3872 C   0  0  2  0  0  0  0  0  0  0  0  0
   26.5417  -18.1074  -14.7887 C   0  0  0  0  0  0  0  0  0  0  0  0
   27.9899  -20.1536  -14.4115 C   0  0  2  0  0  0  0  0  0  0  0  0
   28.5742  -21.1916  -15.2868 N   0  0  0  0  0  0  0  0  0  0  0  0
   26.8568  -20.7938  -13.6532 C   0  0  0  0  0  0  0  0  0  0  0  0
   26.1906  -21.6607  -14.2373 O   0  0  0  0  0  0  0  0  0  0  0  0
   26.2935  -19.6410   -7.1970 C   0  0  0  0  0  0  0  0  0  0  0  0
   27.1500  -21.0992   -7.8266 S   0  0  0  0  0  0  0  0  0  0  0  0
   26.7864  -21.4103   -9.5777 C   0  0  0  0  0  0  0  0  0  0  0  0
   25.6446  -20.6266  -10.0886 C   0  0  0  0  0  0  0  0  0  0  0  0
   25.4387  -20.9719  -11.5829 C   0  0  2  0  0  0  0  0  0  0  0  0
   26.5660  -20.4140  -12.3153 N   0  0  0  0  0  0  0  0  0  0  0  0
   24.1877  -20.4757  -12.1212 C   0  0  0  0  0  0  0  0  0  0  0  0
   24.0555  -19.2044  -12.2216 O   0  0  0  0  0  0  0  0  0  0  0  0
   20.5492  -20.3244  -16.6981 C   0  0  0  0  0  0  0  0  0  0  0  0
   20.6026  -20.1478  -15.2146 C   0  0  0  0  0  0  0  0  0  0  0  0
   21.8420  -20.7372  -14.5910 C   0  0  2  0  0  0  0  0  0  0  0  0
   21.9717  -22.2151  -14.9380 C   0  0  0  0  0  0  0  0  0  0  0  0
   21.8656  -20.5304  -13.1145 C   0  0  2  0  0  0  0  0  0  0  0  0
   23.0646  -21.2007  -12.5615 N   0  0  0  0  0  0  0  0  0  0  0  0
   20.6640  -21.0118  -12.3882 C   0  0  0  0  0  0  0  0  0  0  0  0
   19.4663  -20.3629  -12.5294 O   0  0  0  0  0  0  0  0  0  0  0  0
   20.7214  -22.0327  -11.6209 O   0  0  0  0  0  0  0  0  0  0  0  0
  1  2  1  0
  3  2  1  0
  3  4  1  1
  5  3  1  0
  5  6  1  6
  7  8  2  0
  7  5  1  0
 10  9  1  0
 11 10  1  0
 12 11  1  0
 13 12  1  1
 13 14  1  0
 14  7  1  0
 15 13  1  0
 15 16  2  0
 18 17  1  0
 18 19  1  0
 19 20  1  1
 21 19  1  0
 21 22  1  1
 22 15  1  0
 23 21  1  0
 24 23  1  0
 25 23  2  0
M  END
$$$$
