IMI.pdb
     RDKit          3D

 25 24  0  0  1  0  0  0  0  0999 V2000
   24.5349  -19.4472  -17.2401 C   0  0  0  0  0  0  0  0  0  0  0  0
   25.3605  -20.1254  -16.1596 C   0  0  0  0  0  0  0  0  0  0  0  0
   26.8230  -19.7458  -16.2408 C   0  0  2  0  0  0  0  0  0  0  0  0
   27.4859  -20.0733  -17.5246 C   0  0  0  0  0  0  0  0  0  0  0  0
   27.5055  -20.2965  -14.9995 C   0  0  2  0  0  0  0  0  0  0  0  0
   27.2311  -21.7476  -15.0624 N   0  0  0  0  0  0  0  0  0  0  0  0
   26.8129  -19.7631  -13.7730 C   0  0  0  0  0  0  0  0  0  0  0  0
   26.8688  -18.5423  -13.5654 O   0  0  0  0  0  0  0  0  0  0  0  0
   20.8418  -20.6596  -12.8458 C   0  0  0  0  0  0  0  0  0  0  0  0
   21.2624  -20.0849  -11.1878 S   0  0  0  0  0  0  0  0  0  0  0  0
   23.0442  -19.8018  -10.9871 C   0  0  0  0  0  0  0  0  0  0  0  0
   23.8589  -20.4033  -12.0610 C   0  0  0  0  0  0  0  0  0  0  0  0
   25.3519  -20.1316  -11.7583 C   0  0  2  0  0  0  0  0  0  0  0  0
   26.1206  -20.6329  -12.8880 N   0  0  0  0  0  0  0  0  0  0  0  0
   25.8086  -20.7387  -10.5239 C   0  0  0  0  0  0  0  0  0  0  0  0
   26.0512  -21.9974  -10.5438 O   0  0  0  0  0  0  0  0  0  0  0  0
   28.0392  -18.3528   -5.7980 C   0  0  0  0  0  0  0  0  0  0  0  0
   27.1411  -18.8707   -6.8750 C   0  0  0  0  0  0  0  0  0  0  0  0
   27.5742  -20.2094   -7.4161 C   0  0  2  0  0  0  0  0  0  0  0  0
   28.7612  -20.0535   -8.3586 C   0  0  0  0  0  0  0  0  0  0  0  0
   26.4485  -20.9211   -8.0868 C   0  0  2  0  0  0  0  0  0  0  0  0
   26.0309  -20.1366   -9.2712 N   0  0  0  0  0  0  0  0  0  0  0  0
   25.2618  -21.1762   -7.2326 C   0  0  0  0  0  0  0  0  0  0  0  0
   25.3728  -21.9564   -6.1126 O   0  0  0  0  0  0  0  0  0  0  0  0
   24.1205  -20.6786   -7.5225 O   0  0  0  0  0  0  0  0  0  0  0  0
  1  2  1  0
  3  2  1  0
  3  4  1  6
  5  3  1  0
  5  6  1  6
  7  8  2  0
  7  5  1  0
 10  9  1  0
 11 10  1  0
 12 11  1  0
 13 12  1  6
 13 14  1  0
 14  7  1  0
 15 13  1  0
 15 16  2  0
 18 17  1  0
 18 19  1  0
 19 20  1  6
 21 19  1  0
 21 22  1  6
 22 15  1  0
 23 21  1  0
 24 23  1  0
 25 23  2  0
M  END
$$$$
