IMI.pdb
     RDKit          3D

 25 24  0  0  1  0  0  0  0  0999 V2000
   23.5395  -18.7132  -16.3882 C   0  0  0  0  0  0  0  0  0  0  0  0
   22.3951  -18.8868  -15.4037 C   0  0  0  0  0  0  0  0  0  0  0  0
   22.7333  -19.8752  -14.3091 C   0  0  2  0  0  0  0  0  0  0  0  0
   23.3752  -21.1279  -14.7712 C   0  0  0  0  0  0  0  0  0  0  0  0
   21.4852  -20.0603  -13.4618 C   0  0  2  0  0  0  0  0  0  0  0  0
   21.1938  -18.6994  -12.9638 N   0  0  0  0  0  0  0  0  0  0  0  0
   21.8180  -20.9127  -12.2654 C   0  0  0  0  0  0  0  0  0  0  0  0
   21.8440  -22.1419  -12.4237 O   0  0  0  0  0  0  0  0  0  0  0  0
   26.4660  -19.8742   -7.6686 C   0  0  0  0  0  0  0  0  0  0  0  0
   24.9954  -20.3147   -6.7202 S   0  0  0  0  0  0  0  0  0  0  0  0
   23.7150  -21.0852   -7.7508 C   0  0  0  0  0  0  0  0  0  0  0  0
   23.3688  -20.2930   -8.9472 C   0  0  0  0  0  0  0  0  0  0  0  0
   22.4080  -21.1258   -9.8291 C   0  0  2  0  0  0  0  0  0  0  0  0
   22.0921  -20.3236  -11.0018 N   0  0  0  0  0  0  0  0  0  0  0  0
   21.1944  -21.5219   -9.1428 C   0  0  0  0  0  0  0  0  0  0  0  0
   20.3364  -20.6031   -8.8909 O   0  0  0  0  0  0  0  0  0  0  0  0
   17.6586  -24.5216  -10.9253 C   0  0  0  0  0  0  0  0  0  0  0  0
   18.3163  -23.4901  -10.0662 C   0  0  0  0  0  0  0  0  0  0  0  0
   18.7205  -24.0152   -8.7123 C   0  0  2  0  0  0  0  0  0  0  0  0
   17.4966  -24.4335   -7.9069 C   0  0  0  0  0  0  0  0  0  0  0  0
   19.5417  -23.0231   -7.9609 C   0  0  2  0  0  0  0  0  0  0  0  0
   20.8062  -22.7997   -8.6982 N   0  0  0  0  0  0  0  0  0  0  0  0
   19.8582  -23.3947   -6.5591 C   0  0  0  0  0  0  0  0  0  0  0  0
   18.9231  -23.2268   -5.5728 O   0  0  0  0  0  0  0  0  0  0  0  0
   21.0010  -23.8740   -6.2453 O   0  0  0  0  0  0  0  0  0  0  0  0
  1  2  1  0
  3  2  1  0
  3  4  1  6
  5  3  1  0
  5  6  1  1
  7  8  2  0
  7  5  1  0
 10  9  1  0
 11 10  1  0
 12 11  1  0
 13 12  1  1
 13 14  1  0
 14  7  1  0
 15 13  1  0
 15 16  2  0
 18 17  1  0
 18 19  1  0
 19 20  1  1
 21 19  1  0
 21 22  1  6
 22 15  1  0
 23 21  1  0
 24 23  1  0
 25 23  2  0
M  END
$$$$
