IMI.pdb
     RDKit          3D

 25 24  0  0  1  0  0  0  0  0999 V2000
   19.2189  -22.4649  -13.0340 C   0  0  0  0  0  0  0  0  0  0  0  0
   19.7057  -21.9762  -11.6800 C   0  0  0  0  0  0  0  0  0  0  0  0
   21.1238  -21.4521  -11.7422 C   0  0  2  0  0  0  0  0  0  0  0  0
   22.1115  -22.3835  -12.3353 C   0  0  0  0  0  0  0  0  0  0  0  0
   21.4759  -20.9274  -10.3599 C   0  0  2  0  0  0  0  0  0  0  0  0
   20.4902  -19.8497  -10.1318 N   0  0  0  0  0  0  0  0  0  0  0  0
   22.8380  -20.2859  -10.4034 C   0  0  0  0  0  0  0  0  0  0  0  0
   22.9656  -19.2508  -11.0735 O   0  0  0  0  0  0  0  0  0  0  0  0
   26.9364  -20.1677   -5.3553 C   0  0  0  0  0  0  0  0  0  0  0  0
   28.1006  -20.0604   -6.7298 S   0  0  0  0  0  0  0  0  0  0  0  0
   27.2628  -19.9313   -8.3350 C   0  0  0  0  0  0  0  0  0  0  0  0
   25.9025  -20.5046   -8.3352 C   0  0  0  0  0  0  0  0  0  0  0  0
   25.2582  -20.2452   -9.7179 C   0  0  2  0  0  0  0  0  0  0  0  0
   23.9350  -20.8512   -9.6992 N   0  0  0  0  0  0  0  0  0  0  0  0
   26.0389  -20.7645  -10.8232 C   0  0  0  0  0  0  0  0  0  0  0  0
   26.1355  -22.0388  -10.9256 O   0  0  0  0  0  0  0  0  0  0  0  0
   28.0689  -17.7938  -15.2685 C   0  0  0  0  0  0  0  0  0  0  0  0
   28.0690  -18.6174  -14.0210 C   0  0  0  0  0  0  0  0  0  0  0  0
   27.3139  -19.9140  -14.1657 C   0  0  2  0  0  0  0  0  0  0  0  0
   25.8559  -19.6538  -14.5238 C   0  0  0  0  0  0  0  0  0  0  0  0
   27.4215  -20.7526  -12.9375 C   0  0  2  0  0  0  0  0  0  0  0  0
   26.7269  -20.0595  -11.8285 N   0  0  0  0  0  0  0  0  0  0  0  0
   28.8058  -21.0788  -12.5126 C   0  0  0  0  0  0  0  0  0  0  0  0
   29.6057  -21.8571  -13.3061 O   0  0  0  0  0  0  0  0  0  0  0  0
   29.2760  -20.6451  -11.4058 O   0  0  0  0  0  0  0  0  0  0  0  0
  1  2  1  0
  3  2  1  0
  3  4  1  1
  5  3  1  0
  5  6  1  6
  7  8  2  0
  7  5  1  0
 10  9  1  0
 11 10  1  0
 12 11  1  0
 13 12  1  1
 13 14  1  0
 14  7  1  0
 15 13  1  0
 15 16  2  0
 18 17  1  0
 18 19  1  0
 19 20  1  1
 21 19  1  0
 21 22  1  1
 22 15  1  0
 23 21  1  0
 24 23  1  0
 25 23  2  0
M  END
$$$$
