IMI.pdb
     RDKit          3D

 25 24  0  0  1  0  0  0  0  0999 V2000
   22.4664  -20.1063  -16.7152 C   0  0  0  0  0  0  0  0  0  0  0  0
   23.6864  -19.6374  -15.9401 C   0  0  0  0  0  0  0  0  0  0  0  0
   23.9167  -20.4611  -14.6919 C   0  0  2  0  0  0  0  0  0  0  0  0
   23.6662  -21.9133  -14.8434 C   0  0  0  0  0  0  0  0  0  0  0  0
   23.1626  -19.7877  -13.5570 C   0  0  2  0  0  0  0  0  0  0  0  0
   23.7463  -18.4307  -13.5041 N   0  0  0  0  0  0  0  0  0  0  0  0
   23.5027  -20.4719  -12.2590 C   0  0  0  0  0  0  0  0  0  0  0  0
   23.0014  -21.5855  -12.0466 O   0  0  0  0  0  0  0  0  0  0  0  0
   27.7957  -20.1411   -5.5748 C   0  0  0  0  0  0  0  0  0  0  0  0
   27.3973  -19.3497   -7.1468 S   0  0  0  0  0  0  0  0  0  0  0  0
   26.0451  -20.1899   -8.0190 C   0  0  0  0  0  0  0  0  0  0  0  0
   25.7835  -19.6413   -9.3641 C   0  0  0  0  0  0  0  0  0  0  0  0
   24.6396  -20.4552  -10.0148 C   0  0  2  0  0  0  0  0  0  0  0  0
   24.3686  -19.8581  -11.3143 N   0  0  0  0  0  0  0  0  0  0  0  0
   23.4330  -20.4949   -9.2127 C   0  0  0  0  0  0  0  0  0  0  0  0
   22.7022  -19.4417   -9.1998 O   0  0  0  0  0  0  0  0  0  0  0  0
   18.1227  -22.5945   -8.4511 C   0  0  0  0  0  0  0  0  0  0  0  0
   19.2571  -21.9837   -7.6931 C   0  0  0  0  0  0  0  0  0  0  0  0
   20.5684  -22.0472   -8.4338 C   0  0  2  0  0  0  0  0  0  0  0  0
   20.9129  -23.4851   -8.8016 C   0  0  0  0  0  0  0  0  0  0  0  0
   21.6713  -21.4158   -7.6538 C   0  0  2  0  0  0  0  0  0  0  0  0
   22.9299  -21.5458   -8.4229 N   0  0  0  0  0  0  0  0  0  0  0  0
   21.8783  -21.9656   -6.2907 C   0  0  0  0  0  0  0  0  0  0  0  0
   23.0609  -22.5741   -5.9644 O   0  0  0  0  0  0  0  0  0  0  0  0
   20.9643  -21.8849   -5.4005 O   0  0  0  0  0  0  0  0  0  0  0  0
  1  2  1  0
  3  2  1  0
  3  4  1  6
  5  3  1  0
  5  6  1  1
  7  8  2  0
  7  5  1  0
 10  9  1  0
 11 10  1  0
 12 11  1  0
 13 12  1  1
 13 14  1  0
 14  7  1  0
 15 13  1  0
 15 16  2  0
 18 17  1  0
 18 19  1  0
 19 20  1  1
 21 19  1  0
 21 22  1  6
 22 15  1  0
 23 21  1  0
 24 23  1  0
 25 23  2  0
M  END
$$$$
