IMI.pdb
     RDKit          3D

 25 24  0  0  1  0  0  0  0  0999 V2000
   28.2939  -17.2185  -16.7357 C   0  0  0  0  0  0  0  0  0  0  0  0
   28.6947  -18.2923  -15.7379 C   0  0  0  0  0  0  0  0  0  0  0  0
   27.5007  -18.8498  -14.9942 C   0  0  2  0  0  0  0  0  0  0  0  0
   26.5920  -17.8334  -14.4144 C   0  0  0  0  0  0  0  0  0  0  0  0
   28.0198  -19.8897  -14.0149 C   0  0  2  0  0  0  0  0  0  0  0  0
   28.5955  -20.9360  -14.8860 N   0  0  0  0  0  0  0  0  0  0  0  0
   26.8575  -20.5071  -13.2824 C   0  0  0  0  0  0  0  0  0  0  0  0
   26.1932  -21.3675  -13.8781 O   0  0  0  0  0  0  0  0  0  0  0  0
   28.3595  -20.5961   -6.6167 C   0  0  0  0  0  0  0  0  0  0  0  0
   26.8231  -20.0449   -7.3860 S   0  0  0  0  0  0  0  0  0  0  0  0
   26.6154  -20.7067   -9.0635 C   0  0  0  0  0  0  0  0  0  0  0  0
   25.4668  -20.1256   -9.7860 C   0  0  0  0  0  0  0  0  0  0  0  0
   25.4359  -20.7133  -11.2171 C   0  0  2  0  0  0  0  0  0  0  0  0
   26.5380  -20.1138  -11.9549 N   0  0  0  0  0  0  0  0  0  0  0  0
   24.1808  -20.4862  -11.9055 C   0  0  0  0  0  0  0  0  0  0  0  0
   23.9472  -19.2964  -12.3223 O   0  0  0  0  0  0  0  0  0  0  0  0
   20.6499  -20.5623  -15.9114 C   0  0  0  0  0  0  0  0  0  0  0  0
   20.5128  -21.6297  -14.8738 C   0  0  0  0  0  0  0  0  0  0  0  0
   21.7938  -21.8986  -14.1261 C   0  0  2  0  0  0  0  0  0  0  0  0
   21.8860  -23.3645  -13.7209 C   0  0  0  0  0  0  0  0  0  0  0  0
   21.9355  -21.0060  -12.9401 C   0  0  2  0  0  0  0  0  0  0  0  0
   23.1507  -21.4015  -12.1923 N   0  0  0  0  0  0  0  0  0  0  0  0
   20.7774  -20.9975  -12.0117 C   0  0  0  0  0  0  0  0  0  0  0  0
   20.8548  -21.6425  -10.8062 O   0  0  0  0  0  0  0  0  0  0  0  0
   19.6920  -20.3945  -12.3158 O   0  0  0  0  0  0  0  0  0  0  0  0
  1  2  1  0
  3  2  1  0
  3  4  1  1
  5  3  1  0
  5  6  1  6
  7  8  2  0
  7  5  1  0
 10  9  1  0
 11 10  1  0
 12 11  1  0
 13 12  1  1
 13 14  1  0
 14  7  1  0
 15 13  1  0
 15 16  2  0
 18 17  1  0
 18 19  1  0
 19 20  1  1
 21 19  1  0
 21 22  1  1
 22 15  1  0
 23 21  1  0
 24 23  1  0
 25 23  2  0
M  END
$$$$
