IMI.pdb
     RDKit          3D

 25 24  0  0  1  0  0  0  0  0999 V2000
   21.4259  -22.0665  -18.1670 C   0  0  0  0  0  0  0  0  0  0  0  0
   21.4495  -21.9237  -16.6543 C   0  0  0  0  0  0  0  0  0  0  0  0
   22.8134  -22.2325  -16.0765 C   0  0  2  0  0  0  0  0  0  0  0  0
   23.4181  -23.5032  -16.5398 C   0  0  0  0  0  0  0  0  0  0  0  0
   22.7151  -22.0730  -14.5682 C   0  0  2  0  0  0  0  0  0  0  0  0
   22.2760  -20.6728  -14.3910 N   0  0  0  0  0  0  0  0  0  0  0  0
   24.0902  -22.1904  -13.9650 C   0  0  0  0  0  0  0  0  0  0  0  0
   24.5976  -23.3197  -13.9039 O   0  0  0  0  0  0  0  0  0  0  0  0
   28.1385  -17.5811  -15.1810 C   0  0  0  0  0  0  0  0  0  0  0  0
   29.1626  -18.8293  -14.3752 S   0  0  0  0  0  0  0  0  0  0  0  0
   28.1879  -20.2366  -13.7715 C   0  0  0  0  0  0  0  0  0  0  0  0
   26.8674  -19.8502  -13.2369 C   0  0  0  0  0  0  0  0  0  0  0  0
   26.0911  -21.1355  -12.8635 C   0  0  2  0  0  0  0  0  0  0  0  0
   24.7778  -21.0435  -13.4843 N   0  0  0  0  0  0  0  0  0  0  0  0
   25.9639  -21.3363  -11.4337 C   0  0  0  0  0  0  0  0  0  0  0  0
   25.0374  -22.1264  -11.0324 O   0  0  0  0  0  0  0  0  0  0  0  0
   29.7750  -20.3751   -7.4085 C   0  0  0  0  0  0  0  0  0  0  0  0
   28.6620  -21.0552   -8.1387 C   0  0  0  0  0  0  0  0  0  0  0  0
   27.3743  -20.2717   -8.1208 C   0  0  2  0  0  0  0  0  0  0  0  0
   26.8768  -20.0812   -6.6933 C   0  0  0  0  0  0  0  0  0  0  0  0
   26.3295  -20.9122   -8.9703 C   0  0  2  0  0  0  0  0  0  0  0  0
   26.7259  -20.7774  -10.3906 N   0  0  0  0  0  0  0  0  0  0  0  0
   24.9565  -20.3753   -8.7982 C   0  0  0  0  0  0  0  0  0  0  0  0
   24.0222  -21.0840   -8.0910 O   0  0  0  0  0  0  0  0  0  0  0  0
   24.6194  -19.2505   -9.3035 O   0  0  0  0  0  0  0  0  0  0  0  0
  1  2  1  0
  3  2  1  0
  3  4  1  1
  5  3  1  0
  5  6  1  6
  7  8  2  0
  7  5  1  0
 10  9  1  0
 11 10  1  0
 12 11  1  0
 13 12  1  1
 13 14  1  0
 14  7  1  0
 15 13  1  0
 15 16  2  0
 18 17  1  0
 18 19  1  0
 19 20  1  1
 21 19  1  0
 21 22  1  6
 22 15  1  0
 23 21  1  0
 24 23  1  0
 25 23  2  0
M  END
$$$$
