IMF.pdb
     RDKit          3D

 28 28  0  0  1  0  0  0  0  0999 V2000
   26.0867  -16.5558  -17.6812 C   0  0  0  0  0  0  0  0  0  0  0  0
   26.5956  -17.7214  -16.8191 C   0  0  0  0  0  0  0  0  0  0  0  0
   26.8876  -17.2434  -15.4429 C   0  0  2  0  0  0  0  0  0  0  0  0
   27.7909  -16.0140  -15.4741 C   0  0  0  0  0  0  0  0  0  0  0  0
   27.3742  -18.2634  -14.4708 C   0  0  2  0  0  0  0  0  0  0  0  0
   27.3165  -19.5513  -15.2030 N   0  0  0  0  0  0  0  0  0  0  0  0
   26.5115  -18.4672  -13.2860 C   0  0  0  0  0  0  0  0  0  0  0  0
   26.1045  -17.5145  -12.5469 O   0  0  0  0  0  0  0  0  0  0  0  0
   22.2594  -23.2832  -13.5217 C   0  0  0  0  0  0  0  0  0  0  0  0
   21.7006  -21.6192  -13.1307 S   0  0  0  0  0  0  0  0  0  0  0  0
   23.0572  -20.4797  -12.8521 C   0  0  0  0  0  0  0  0  0  0  0  0
   24.1365  -20.9641  -11.9614 C   0  0  0  0  0  0  0  0  0  0  0  0
   25.2824  -20.0149  -11.7164 C   0  0  2  0  0  0  0  0  0  0  0  0
   26.0632  -19.7663  -12.8795 N   0  0  0  0  0  0  0  0  0  0  0  0
   26.0949  -20.4879  -10.5579 C   0  0  0  0  0  0  0  0  0  0  0  0
   26.9377  -21.4008  -10.7410 O   0  0  0  0  0  0  0  0  0  0  0  0
   25.9402  -19.9347   -9.2574 N   0  0  0  0  0  0  0  0  0  0  0  0
   26.6207  -20.4282   -8.0973 C   0  0  1  0  0  0  0  0  0  0  0  0
   27.5178  -19.3904   -7.4982 C   0  0  0  0  0  0  0  0  0  0  0  0
   28.1614  -19.7751   -6.2426 C   0  0  0  0  0  0  0  0  0  0  0  0
   27.6408  -19.3831   -5.0332 C   0  0  0  0  0  0  0  0  0  0  0  0
   28.2308  -19.7394   -3.8263 C   0  0  0  0  0  0  0  0  0  0  0  0
   29.3751  -20.5097   -3.8080 C   0  0  0  0  0  0  0  0  0  0  0  0
   29.9044  -20.9074   -5.0136 C   0  0  0  0  0  0  0  0  0  0  0  0
   29.3063  -20.5452   -6.2144 C   0  0  0  0  0  0  0  0  0  0  0  0
   25.6436  -20.9623   -7.1219 C   0  0  0  0  0  0  0  0  0  0  0  0
   26.0315  -21.7577   -6.0712 O   0  0  0  0  0  0  0  0  0  0  0  0
   24.4229  -20.6845   -7.2515 O   0  0  0  0  0  0  0  0  0  0  0  0
  2  1  1  0
  3  5  1  0
  3  2  1  0
  3  4  1  6
  5  7  1  0
  5  6  1  6
  7  8  2  0
  9 10  1  0
 10 11  1  0
 11 12  1  0
 13 12  1  6
 14 13  1  0
 14  7  1  0
 15 16  2  0
 15 13  1  0
 17 15  1  0
 18 17  1  0
 18 26  1  0
 18 19  1  1
 20 19  1  0
 20 25  2  0
 21 20  1  0
 22 21  2  0
 22 23  1  0
 23 24  2  0
 24 25  1  0
 26 28  2  0
 26 27  1  0
M  END
$$$$
