IMF.pdb
     RDKit          3D

 28 28  0  0  1  0  0  0  0  0999 V2000
   26.6354  -15.7859  -17.6867 C   0  0  0  0  0  0  0  0  0  0  0  0
   27.2432  -15.5890  -16.2892 C   0  0  0  0  0  0  0  0  0  0  0  0
   27.6812  -16.8978  -15.7388 C   0  0  2  0  0  0  0  0  0  0  0  0
   28.7921  -17.5027  -16.5921 C   0  0  0  0  0  0  0  0  0  0  0  0
   26.6090  -17.8897  -15.4413 C   0  0  2  0  0  0  0  0  0  0  0  0
   25.7317  -17.2225  -14.4497 N   0  0  0  0  0  0  0  0  0  0  0  0
   27.0633  -19.1262  -14.7674 C   0  0  0  0  0  0  0  0  0  0  0  0
   27.6874  -20.0591  -15.3673 O   0  0  0  0  0  0  0  0  0  0  0  0
   28.3322  -19.9378   -8.0487 C   0  0  0  0  0  0  0  0  0  0  0  0
   29.2349  -21.1080   -9.0731 S   0  0  0  0  0  0  0  0  0  0  0  0
   28.4061  -21.4540  -10.6256 C   0  0  0  0  0  0  0  0  0  0  0  0
   27.9166  -20.2741  -11.3746 C   0  0  0  0  0  0  0  0  0  0  0  0
   27.2328  -20.5496  -12.6901 C   0  0  2  0  0  0  0  0  0  0  0  0
   26.8340  -19.3670  -13.3733 N   0  0  0  0  0  0  0  0  0  0  0  0
   26.1118  -21.5131  -12.4877 C   0  0  0  0  0  0  0  0  0  0  0  0
   26.2745  -22.4750  -11.6969 O   0  0  0  0  0  0  0  0  0  0  0  0
   24.8694  -21.3715  -13.1644 N   0  0  0  0  0  0  0  0  0  0  0  0
   23.6147  -21.1978  -12.4951 C   0  0  1  0  0  0  0  0  0  0  0  0
   23.6922  -20.1394  -11.4393 C   0  0  0  0  0  0  0  0  0  0  0  0
   23.8159  -20.6360  -10.0693 C   0  0  0  0  0  0  0  0  0  0  0  0
   24.9051  -20.3129   -9.2968 C   0  0  0  0  0  0  0  0  0  0  0  0
   25.0438  -20.7681   -7.9910 C   0  0  0  0  0  0  0  0  0  0  0  0
   24.0758  -21.5708   -7.4239 C   0  0  0  0  0  0  0  0  0  0  0  0
   22.9813  -21.9001   -8.1889 C   0  0  0  0  0  0  0  0  0  0  0  0
   22.8529  -21.4395   -9.4936 C   0  0  0  0  0  0  0  0  0  0  0  0
   22.5429  -20.9349  -13.4816 C   0  0  0  0  0  0  0  0  0  0  0  0
   21.2325  -21.2621  -13.2304 O   0  0  0  0  0  0  0  0  0  0  0  0
   22.8314  -20.3972  -14.5824 O   0  0  0  0  0  0  0  0  0  0  0  0
  2  1  1  0
  3  5  1  0
  3  2  1  0
  3  4  1  6
  5  7  1  0
  5  6  1  1
  7  8  2  0
  9 10  1  0
 10 11  1  0
 11 12  1  0
 13 12  1  1
 14 13  1  0
 14  7  1  0
 15 16  2  0
 15 13  1  0
 17 15  1  0
 18 17  1  0
 18 26  1  0
 18 19  1  1
 20 19  1  0
 20 25  2  0
 21 20  1  0
 22 21  2  0
 22 23  1  0
 23 24  2  0
 24 25  1  0
 26 28  2  0
 26 27  1  0
M  END
$$$$
