IMF.pdb
     RDKit          3D

 28 28  0  0  1  0  0  0  0  0999 V2000
   28.8187  -17.6495  -16.7645 C   0  0  0  0  0  0  0  0  0  0  0  0
   27.7054  -18.6909  -16.5721 C   0  0  0  0  0  0  0  0  0  0  0  0
   27.1179  -18.5588  -15.2138 C   0  0  2  0  0  0  0  0  0  0  0  0
   28.2092  -18.5487  -14.1474 C   0  0  0  0  0  0  0  0  0  0  0  0
   26.0153  -19.5008  -14.8686 C   0  0  2  0  0  0  0  0  0  0  0  0
   24.9522  -19.2312  -15.8664 N   0  0  0  0  0  0  0  0  0  0  0  0
   25.3689  -19.2622  -13.5591 C   0  0  0  0  0  0  0  0  0  0  0  0
   24.7793  -18.1748  -13.2597 O   0  0  0  0  0  0  0  0  0  0  0  0
   20.6849  -22.0584  -10.5332 C   0  0  0  0  0  0  0  0  0  0  0  0
   20.7100  -20.6270  -11.6215 S   0  0  0  0  0  0  0  0  0  0  0  0
   22.3552  -19.9445  -11.8318 C   0  0  0  0  0  0  0  0  0  0  0  0
   23.4308  -20.5963  -11.0500 C   0  0  0  0  0  0  0  0  0  0  0  0
   24.8199  -20.0345  -11.2200 C   0  0  2  0  0  0  0  0  0  0  0  0
   25.3564  -20.2492  -12.5201 N   0  0  0  0  0  0  0  0  0  0  0  0
   25.7078  -20.5376  -10.1316 C   0  0  0  0  0  0  0  0  0  0  0  0
   26.0955  -21.7315  -10.1688 O   0  0  0  0  0  0  0  0  0  0  0  0
   26.1242  -19.7042   -9.0577 N   0  0  0  0  0  0  0  0  0  0  0  0
   26.8692  -20.1754   -7.9283 C   0  0  1  0  0  0  0  0  0  0  0  0
   27.5338  -19.0519   -7.1955 C   0  0  0  0  0  0  0  0  0  0  0  0
   28.2230  -19.4349   -5.9638 C   0  0  0  0  0  0  0  0  0  0  0  0
   29.5091  -19.9171   -5.9951 C   0  0  0  0  0  0  0  0  0  0  0  0
   30.1874  -20.2834   -4.8386 C   0  0  0  0  0  0  0  0  0  0  0  0
   29.5785  -20.1714   -3.6059 C   0  0  0  0  0  0  0  0  0  0  0  0
   28.2909  -19.6897   -3.5636 C   0  0  0  0  0  0  0  0  0  0  0  0
   27.6221  -19.3266   -4.7263 C   0  0  0  0  0  0  0  0  0  0  0  0
   26.0004  -20.9890   -7.0482 C   0  0  0  0  0  0  0  0  0  0  0  0
   26.5149  -21.9504   -6.2126 O   0  0  0  0  0  0  0  0  0  0  0  0
   24.7560  -20.8007   -7.0595 O   0  0  0  0  0  0  0  0  0  0  0  0
  2  1  1  0
  3  5  1  0
  3  2  1  0
  3  4  1  1
  5  7  1  0
  5  6  1  6
  7  8  2  0
  9 10  1  0
 10 11  1  0
 11 12  1  0
 13 12  1  6
 14 13  1  0
 14  7  1  0
 15 16  2  0
 15 13  1  0
 17 15  1  0
 18 17  1  0
 18 26  1  0
 18 19  1  1
 20 19  1  0
 20 25  2  0
 21 20  1  0
 22 21  2  0
 22 23  1  0
 23 24  2  0
 24 25  1  0
 26 28  2  0
 26 27  1  0
M  END
$$$$
