IMF.pdb
     RDKit          3D

 28 28  0  0  1  0  0  0  0  0999 V2000
   25.6500  -16.2884  -15.7837 C   0  0  0  0  0  0  0  0  0  0  0  0
   26.8084  -17.2849  -15.9451 C   0  0  0  0  0  0  0  0  0  0  0  0
   26.8463  -18.2097  -14.7829 C   0  0  2  0  0  0  0  0  0  0  0  0
   26.7877  -17.4356  -13.4692 C   0  0  0  0  0  0  0  0  0  0  0  0
   27.9333  -19.2299  -14.7763 C   0  0  2  0  0  0  0  0  0  0  0  0
   27.6819  -20.0678  -15.9734 N   0  0  0  0  0  0  0  0  0  0  0  0
   27.9006  -20.1788  -13.6415 C   0  0  0  0  0  0  0  0  0  0  0  0
   27.0515  -21.1219  -13.5445 O   0  0  0  0  0  0  0  0  0  0  0  0
   33.1577  -22.2161  -10.1291 C   0  0  0  0  0  0  0  0  0  0  0  0
   31.8238  -22.3937   -8.9361 S   0  0  0  0  0  0  0  0  0  0  0  0
   30.2046  -22.1348   -9.6627 C   0  0  0  0  0  0  0  0  0  0  0  0
   30.1451  -21.1674  -10.7823 C   0  0  0  0  0  0  0  0  0  0  0  0
   28.7910  -20.9464  -11.4081 C   0  0  2  0  0  0  0  0  0  0  0  0
   28.8341  -20.1073  -12.5564 N   0  0  0  0  0  0  0  0  0  0  0  0
   27.8251  -20.4723  -10.3745 C   0  0  0  0  0  0  0  0  0  0  0  0
   27.8450  -19.2632  -10.0355 O   0  0  0  0  0  0  0  0  0  0  0  0
   26.8869  -21.3501   -9.7657 N   0  0  0  0  0  0  0  0  0  0  0  0
   26.0250  -20.9683   -8.6869 C   0  0  1  0  0  0  0  0  0  0  0  0
   26.3853  -19.6223   -8.1399 C   0  0  0  0  0  0  0  0  0  0  0  0
   27.1435  -19.6423   -6.8895 C   0  0  0  0  0  0  0  0  0  0  0  0
   27.2162  -20.7821   -6.1260 C   0  0  0  0  0  0  0  0  0  0  0  0
   27.9338  -20.8281   -4.9366 C   0  0  0  0  0  0  0  0  0  0  0  0
   28.6046  -19.7120   -4.4811 C   0  0  0  0  0  0  0  0  0  0  0  0
   28.5381  -18.5657   -5.2382 C   0  0  0  0  0  0  0  0  0  0  0  0
   27.8174  -18.5308   -6.4259 C   0  0  0  0  0  0  0  0  0  0  0  0
   24.6096  -21.0447   -9.1140 C   0  0  0  0  0  0  0  0  0  0  0  0
   24.2574  -21.4273  -10.3855 O   0  0  0  0  0  0  0  0  0  0  0  0
   23.6985  -20.7534   -8.2960 O   0  0  0  0  0  0  0  0  0  0  0  0
  2  1  1  0
  3  5  1  0
  3  2  1  0
  3  4  1  1
  5  7  1  0
  5  6  1  6
  7  8  2  0
  9 10  1  0
 10 11  1  0
 11 12  1  0
 13 12  1  1
 14 13  1  0
 14  7  1  0
 15 16  2  0
 15 13  1  0
 17 15  1  0
 18 17  1  0
 18 26  1  0
 18 19  1  6
 20 19  1  0
 20 25  2  0
 21 20  1  0
 22 21  2  0
 22 23  1  0
 23 24  2  0
 24 25  1  0
 26 28  2  0
 26 27  1  0
M  END
$$$$
