IMF.pdb
     RDKit          3D

 28 28  0  0  1  0  0  0  0  0999 V2000
   18.7563  -14.4926  -16.8903 C   0  0  0  0  0  0  0  0  0  0  0  0
   19.4527  -15.7937  -16.4623 C   0  0  0  0  0  0  0  0  0  0  0  0
   20.5033  -16.1539  -17.4493 C   0  0  2  0  0  0  0  0  0  0  0  0
   20.0068  -17.2377  -18.4017 C   0  0  0  0  0  0  0  0  0  0  0  0
   21.8525  -16.4735  -16.9018 C   0  0  2  0  0  0  0  0  0  0  0  0
   21.6321  -17.6079  -15.9729 N   0  0  0  0  0  0  0  0  0  0  0  0
   22.4596  -15.4158  -16.0638 C   0  0  0  0  0  0  0  0  0  0  0  0
   21.9941  -15.0698  -14.9310 O   0  0  0  0  0  0  0  0  0  0  0  0
   28.8084  -13.5479  -16.0049 C   0  0  0  0  0  0  0  0  0  0  0  0
   28.0089  -12.0506  -15.4109 S   0  0  0  0  0  0  0  0  0  0  0  0
   26.2356  -12.2399  -15.2210 C   0  0  0  0  0  0  0  0  0  0  0  0
   25.6229  -13.3690  -15.9577 C   0  0  0  0  0  0  0  0  0  0  0  0
   24.1337  -13.5458  -15.7991 C   0  0  2  0  0  0  0  0  0  0  0  0
   23.6311  -14.6962  -16.4685 N   0  0  0  0  0  0  0  0  0  0  0  0
   23.4289  -12.2896  -16.1879 C   0  0  0  0  0  0  0  0  0  0  0  0
   23.1859  -12.0819  -17.4023 O   0  0  0  0  0  0  0  0  0  0  0  0
   23.0273  -11.3253  -15.2233 N   0  0  0  0  0  0  0  0  0  0  0  0
   22.3745  -10.0938  -15.5543 C   0  0  1  0  0  0  0  0  0  0  0  0
   21.1413  -10.3229  -16.3714 C   0  0  0  0  0  0  0  0  0  0  0  0
   20.3434   -9.1273  -16.6411 C   0  0  0  0  0  0  0  0  0  0  0  0
   19.1977   -8.8676  -15.9288 C   0  0  0  0  0  0  0  0  0  0  0  0
   18.4248   -7.7364  -16.1627 C   0  0  0  0  0  0  0  0  0  0  0  0
   18.7920   -6.8271  -17.1328 C   0  0  0  0  0  0  0  0  0  0  0  0
   19.9375   -7.0778  -17.8516 C   0  0  0  0  0  0  0  0  0  0  0  0
   20.7027   -8.2122  -17.6095 C   0  0  0  0  0  0  0  0  0  0  0  0
   22.1019   -9.3151  -14.3252 C   0  0  0  0  0  0  0  0  0  0  0  0
   21.9324   -7.9522  -14.3552 O   0  0  0  0  0  0  0  0  0  0  0  0
   22.0212   -9.9103  -13.2192 O   0  0  0  0  0  0  0  0  0  0  0  0
  2  1  1  0
  3  5  1  0
  3  2  1  0
  3  4  1  1
  5  7  1  0
  5  6  1  1
  7  8  2  0
  9 10  1  0
 10 11  1  0
 11 12  1  0
 13 12  1  6
 14 13  1  0
 14  7  1  0
 15 16  2  0
 15 13  1  0
 17 15  1  0
 18 17  1  0
 18 26  1  0
 18 19  1  1
 20 19  1  0
 20 25  2  0
 21 20  1  0
 22 21  2  0
 22 23  1  0
 23 24  2  0
 24 25  1  0
 26 28  2  0
 26 27  1  0
M  END
$$$$
