IMF.pdb
     RDKit          3D

 28 28  0  0  1  0  0  0  0  0999 V2000
   17.4076  -26.5562  -10.5089 C   0  0  0  0  0  0  0  0  0  0  0  0
   18.9278  -26.6490  -10.7121 C   0  0  0  0  0  0  0  0  0  0  0  0
   19.3718  -28.0602  -10.5736 C   0  0  2  0  0  0  0  0  0  0  0  0
   18.9635  -28.6286   -9.2177 C   0  0  0  0  0  0  0  0  0  0  0  0
   20.8016  -28.3440  -10.8851 C   0  0  2  0  0  0  0  0  0  0  0  0
   20.9586  -28.0012  -12.3190 N   0  0  0  0  0  0  0  0  0  0  0  0
   21.1960  -29.7673  -10.7951 C   0  0  0  0  0  0  0  0  0  0  0  0
   20.3564  -30.7229  -10.7534 O   0  0  0  0  0  0  0  0  0  0  0  0
   21.6045  -32.8371  -15.8753 C   0  0  0  0  0  0  0  0  0  0  0  0
   22.9093  -32.8615  -14.6381 S   0  0  0  0  0  0  0  0  0  0  0  0
   22.4335  -32.0481  -13.1121 C   0  0  0  0  0  0  0  0  0  0  0  0
   23.4332  -32.0851  -12.0202 C   0  0  0  0  0  0  0  0  0  0  0  0
   22.9922  -31.5371  -10.6864 C   0  0  2  0  0  0  0  0  0  0  0  0
   22.5676  -30.1806  -10.7502 N   0  0  0  0  0  0  0  0  0  0  0  0
   24.0553  -31.7687   -9.6656 C   0  0  0  0  0  0  0  0  0  0  0  0
   24.7805  -30.8048   -9.3161 O   0  0  0  0  0  0  0  0  0  0  0  0
   24.2681  -33.0471   -9.0809 N   0  0  0  0  0  0  0  0  0  0  0  0
   25.2970  -33.3216   -8.1225 C   0  0  1  0  0  0  0  0  0  0  0  0
   25.2748  -32.3425   -6.9904 C   0  0  0  0  0  0  0  0  0  0  0  0
   25.9727  -32.7755   -5.7804 C   0  0  0  0  0  0  0  0  0  0  0  0
   27.3419  -32.7054   -5.6917 C   0  0  0  0  0  0  0  0  0  0  0  0
   28.0283  -33.1061   -4.5515 C   0  0  0  0  0  0  0  0  0  0  0  0
   27.3429  -33.5938   -3.4581 C   0  0  0  0  0  0  0  0  0  0  0  0
   25.9717  -33.6680   -3.5367 C   0  0  0  0  0  0  0  0  0  0  0  0
   25.2957  -33.2648   -4.6819 C   0  0  0  0  0  0  0  0  0  0  0  0
   25.2006  -34.7242   -7.6590 C   0  0  0  0  0  0  0  0  0  0  0  0
   24.0796  -35.4853   -7.8853 O   0  0  0  0  0  0  0  0  0  0  0  0
   26.1674  -35.2408   -7.0406 O   0  0  0  0  0  0  0  0  0  0  0  0
  2  1  1  0
  3  5  1  0
  3  2  1  0
  3  4  1  1
  5  7  1  0
  5  6  1  6
  7  8  2  0
  9 10  1  0
 10 11  1  0
 11 12  1  0
 13 12  1  6
 14 13  1  0
 14  7  1  0
 15 16  2  0
 15 13  1  0
 17 15  1  0
 18 17  1  0
 18 26  1  0
 18 19  1  1
 20 19  1  0
 20 25  2  0
 21 20  1  0
 22 21  2  0
 22 23  1  0
 23 24  2  0
 24 25  1  0
 26 28  2  0
 26 27  1  0
M  END
$$$$
