IMF.pdb
     RDKit          3D

 28 28  0  0  1  0  0  0  0  0999 V2000
   26.8121  -22.7148  -20.3737 C   0  0  0  0  0  0  0  0  0  0  0  0
   27.7437  -22.4065  -19.1914 C   0  0  0  0  0  0  0  0  0  0  0  0
   27.0002  -21.6632  -18.1415 C   0  0  2  0  0  0  0  0  0  0  0  0
   26.1761  -20.5345  -18.7540 C   0  0  0  0  0  0  0  0  0  0  0  0
   27.7906  -21.1971  -16.9666 C   0  0  2  0  0  0  0  0  0  0  0  0
   28.3619  -22.4300  -16.3735 N   0  0  0  0  0  0  0  0  0  0  0  0
   26.9984  -20.5887  -15.8750 C   0  0  0  0  0  0  0  0  0  0  0  0
   26.7376  -19.3447  -15.8116 O   0  0  0  0  0  0  0  0  0  0  0  0
   20.9903  -21.8878  -14.4865 C   0  0  0  0  0  0  0  0  0  0  0  0
   21.5111  -20.2150  -14.0811 S   0  0  0  0  0  0  0  0  0  0  0  0
   23.2698  -19.9587  -14.3212 C   0  0  0  0  0  0  0  0  0  0  0  0
   24.1361  -21.1308  -14.0590 C   0  0  0  0  0  0  0  0  0  0  0  0
   25.5927  -20.8440  -13.7944 C   0  0  2  0  0  0  0  0  0  0  0  0
   26.4578  -21.3636  -14.7973 N   0  0  0  0  0  0  0  0  0  0  0  0
   25.9571  -21.2934  -12.4191 C   0  0  0  0  0  0  0  0  0  0  0  0
   26.6511  -22.3314  -12.2845 O   0  0  0  0  0  0  0  0  0  0  0  0
   25.5404  -20.5803  -11.2619 N   0  0  0  0  0  0  0  0  0  0  0  0
   26.1066  -20.7761   -9.9605 C   0  0  1  0  0  0  0  0  0  0  0  0
   27.3342  -19.9432   -9.7597 C   0  0  0  0  0  0  0  0  0  0  0  0
   27.8305  -19.8891   -8.3852 C   0  0  0  0  0  0  0  0  0  0  0  0
   27.3432  -18.9637   -7.4944 C   0  0  0  0  0  0  0  0  0  0  0  0
   27.7949  -18.8949   -6.1818 C   0  0  0  0  0  0  0  0  0  0  0  0
   28.7616  -19.7683   -5.7285 C   0  0  0  0  0  0  0  0  0  0  0  0
   29.2562  -20.6988   -6.6124 C   0  0  0  0  0  0  0  0  0  0  0  0
   28.7974  -20.7585   -7.9228 C   0  0  0  0  0  0  0  0  0  0  0  0
   25.0835  -20.5358   -8.9181 C   0  0  0  0  0  0  0  0  0  0  0  0
   25.1595  -21.1265   -7.6802 O   0  0  0  0  0  0  0  0  0  0  0  0
   24.1150  -19.7707   -9.1645 O   0  0  0  0  0  0  0  0  0  0  0  0
  2  1  1  0
  3  5  1  0
  3  2  1  0
  3  4  1  6
  5  7  1  0
  5  6  1  1
  7  8  2  0
  9 10  1  0
 10 11  1  0
 11 12  1  0
 13 12  1  6
 14 13  1  0
 14  7  1  0
 15 16  2  0
 15 13  1  0
 17 15  1  0
 18 17  1  0
 18 26  1  0
 18 19  1  1
 20 19  1  0
 20 25  2  0
 21 20  1  0
 22 21  2  0
 22 23  1  0
 23 24  2  0
 24 25  1  0
 26 28  2  0
 26 27  1  0
M  END
$$$$
