IMF.pdb
     RDKit          3D

 28 28  0  0  1  0  0  0  0  0999 V2000
   27.1542  -16.7120  -18.2140 C   0  0  0  0  0  0  0  0  0  0  0  0
   27.6486  -18.1180  -18.5878 C   0  0  0  0  0  0  0  0  0  0  0  0
   27.3507  -19.0690  -17.4857 C   0  0  2  0  0  0  0  0  0  0  0  0
   25.9141  -19.5749  -17.5768 C   0  0  0  0  0  0  0  0  0  0  0  0
   27.6934  -18.6207  -16.1059 C   0  0  2  0  0  0  0  0  0  0  0  0
   29.1333  -18.2716  -16.1610 N   0  0  0  0  0  0  0  0  0  0  0  0
   27.6012  -19.6656  -15.0623 C   0  0  0  0  0  0  0  0  0  0  0  0
   26.5966  -20.4363  -14.9332 O   0  0  0  0  0  0  0  0  0  0  0  0
   32.7116  -21.4449  -11.0270 C   0  0  0  0  0  0  0  0  0  0  0  0
   31.3016  -22.2977  -10.3069 S   0  0  0  0  0  0  0  0  0  0  0  0
   29.7366  -21.7500  -10.9906 C   0  0  0  0  0  0  0  0  0  0  0  0
   29.8111  -21.0353  -12.2855 C   0  0  0  0  0  0  0  0  0  0  0  0
   28.4968  -20.6602  -12.9226 C   0  0  2  0  0  0  0  0  0  0  0  0
   28.6483  -19.8918  -14.1104 N   0  0  0  0  0  0  0  0  0  0  0  0
   27.6116  -20.0078  -11.9142 C   0  0  0  0  0  0  0  0  0  0  0  0
   27.5964  -18.7542  -11.8417 O   0  0  0  0  0  0  0  0  0  0  0  0
   26.7885  -20.7654  -11.0366 N   0  0  0  0  0  0  0  0  0  0  0  0
   25.9206  -20.1809  -10.0580 C   0  0  1  0  0  0  0  0  0  0  0  0
   24.9549  -19.2196  -10.6779 C   0  0  0  0  0  0  0  0  0  0  0  0
   24.0051  -19.8124  -11.6187 C   0  0  0  0  0  0  0  0  0  0  0  0
   22.7846  -20.2765  -11.1916 C   0  0  0  0  0  0  0  0  0  0  0  0
   21.8629  -20.8397  -12.0663 C   0  0  0  0  0  0  0  0  0  0  0  0
   22.1521  -20.9506  -13.4106 C   0  0  0  0  0  0  0  0  0  0  0  0
   23.3715  -20.4889  -13.8484 C   0  0  0  0  0  0  0  0  0  0  0  0
   24.2857  -19.9278  -12.9650 C   0  0  0  0  0  0  0  0  0  0  0  0
   25.2417  -21.2419   -9.2804 C   0  0  0  0  0  0  0  0  0  0  0  0
   24.4186  -20.9476   -8.2206 O   0  0  0  0  0  0  0  0  0  0  0  0
   25.4179  -22.4485   -9.5922 O   0  0  0  0  0  0  0  0  0  0  0  0
  2  1  1  0
  3  5  1  0
  3  2  1  0
  3  4  1  1
  5  7  1  0
  5  6  1  6
  7  8  2  0
  9 10  1  0
 10 11  1  0
 11 12  1  0
 13 12  1  1
 14 13  1  0
 14  7  1  0
 15 16  2  0
 15 13  1  0
 17 15  1  0
 18 17  1  0
 18 26  1  0
 18 19  1  6
 20 19  1  0
 20 25  2  0
 21 20  1  0
 22 21  2  0
 22 23  1  0
 23 24  2  0
 24 25  1  0
 26 28  2  0
 26 27  1  0
M  END
$$$$
