IMF.pdb
     RDKit          3D

 28 28  0  0  1  0  0  0  0  0999 V2000
   21.7165  -18.1258  -15.2257 C   0  0  0  0  0  0  0  0  0  0  0  0
   21.8260  -19.3791  -14.3435 C   0  0  0  0  0  0  0  0  0  0  0  0
   23.2401  -19.8306  -14.2788 C   0  0  2  0  0  0  0  0  0  0  0  0
   23.8513  -19.9072  -15.6748 C   0  0  0  0  0  0  0  0  0  0  0  0
   23.5117  -21.0640  -13.4870 C   0  0  2  0  0  0  0  0  0  0  0  0
   22.9772  -20.7783  -12.1339 N   0  0  0  0  0  0  0  0  0  0  0  0
   24.9427  -21.3699  -13.2673 C   0  0  0  0  0  0  0  0  0  0  0  0
   25.6786  -21.9309  -14.1411 O   0  0  0  0  0  0  0  0  0  0  0  0
   28.9374  -17.0918  -13.4485 C   0  0  0  0  0  0  0  0  0  0  0  0
   28.3334  -18.2423  -14.6916 S   0  0  0  0  0  0  0  0  0  0  0  0
   27.6871  -19.7563  -13.9797 C   0  0  0  0  0  0  0  0  0  0  0  0
   27.6821  -19.8249  -12.5004 C   0  0  0  0  0  0  0  0  0  0  0  0
   27.0287  -21.0372  -11.8861 C   0  0  2  0  0  0  0  0  0  0  0  0
   25.6146  -21.0516  -12.0421 N   0  0  0  0  0  0  0  0  0  0  0  0
   27.4609  -21.1820  -10.4654 C   0  0  0  0  0  0  0  0  0  0  0  0
   28.5545  -20.6773  -10.1101 O   0  0  0  0  0  0  0  0  0  0  0  0
   26.6703  -21.8740   -9.5076 N   0  0  0  0  0  0  0  0  0  0  0  0
   26.1697  -21.2737   -8.3070 C   0  0  1  0  0  0  0  0  0  0  0  0
   26.7695  -19.9225   -8.0716 C   0  0  0  0  0  0  0  0  0  0  0  0
   27.5793  -19.8045   -6.8596 C   0  0  0  0  0  0  0  0  0  0  0  0
   28.4810  -18.7787   -6.7100 C   0  0  0  0  0  0  0  0  0  0  0  0
   29.2587  -18.6419   -5.5662 C   0  0  0  0  0  0  0  0  0  0  0  0
   29.1457  -19.5472   -4.5315 C   0  0  0  0  0  0  0  0  0  0  0  0
   28.2458  -20.5780   -4.6714 C   0  0  0  0  0  0  0  0  0  0  0  0
   27.4734  -20.7053   -5.8195 C   0  0  0  0  0  0  0  0  0  0  0  0
   24.6900  -21.2387   -8.3333 C   0  0  0  0  0  0  0  0  0  0  0  0
   23.9814  -21.4701   -9.4872 O   0  0  0  0  0  0  0  0  0  0  0  0
   24.0566  -20.9913   -7.2741 O   0  0  0  0  0  0  0  0  0  0  0  0
  2  1  1  0
  3  5  1  0
  3  2  1  0
  3  4  1  6
  5  7  1  0
  5  6  1  1
  7  8  2  0
  9 10  1  0
 10 11  1  0
 11 12  1  0
 13 12  1  1
 14 13  1  0
 14  7  1  0
 15 16  2  0
 15 13  1  0
 17 15  1  0
 18 17  1  0
 18 26  1  0
 18 19  1  6
 20 19  1  0
 20 25  2  0
 21 20  1  0
 22 21  2  0
 22 23  1  0
 23 24  2  0
 24 25  1  0
 26 28  2  0
 26 27  1  0
M  END
$$$$
