IMF.pdb
     RDKit          3D

 28 28  0  0  1  0  0  0  0  0999 V2000
   27.0920  -13.8952  -16.2072 C   0  0  0  0  0  0  0  0  0  0  0  0
   27.0157  -15.2142  -16.9917 C   0  0  0  0  0  0  0  0  0  0  0  0
   26.5240  -16.3018  -16.1068 C   0  0  2  0  0  0  0  0  0  0  0  0
   27.3928  -16.4220  -14.8582 C   0  0  0  0  0  0  0  0  0  0  0  0
   26.2871  -17.6274  -16.7463 C   0  0  2  0  0  0  0  0  0  0  0  0
   25.3020  -17.3648  -17.8228 N   0  0  0  0  0  0  0  0  0  0  0  0
   25.6370  -18.6372  -15.8819 C   0  0  0  0  0  0  0  0  0  0  0  0
   24.4152  -18.5732  -15.5314 O   0  0  0  0  0  0  0  0  0  0  0  0
   24.0970  -26.0765  -14.4691 C   0  0  0  0  0  0  0  0  0  0  0  0
   25.0034  -24.8231  -15.3863 S   0  0  0  0  0  0  0  0  0  0  0  0
   25.0229  -23.2339  -14.5552 C   0  0  0  0  0  0  0  0  0  0  0  0
   25.7454  -22.1468  -15.2547 C   0  0  0  0  0  0  0  0  0  0  0  0
   25.7443  -20.7975  -14.5814 C   0  0  2  0  0  0  0  0  0  0  0  0
   26.3415  -19.7760  -15.3715 N   0  0  0  0  0  0  0  0  0  0  0  0
   26.3446  -20.9087  -13.2201 C   0  0  0  0  0  0  0  0  0  0  0  0
   27.5952  -20.9397  -13.1098 O   0  0  0  0  0  0  0  0  0  0  0  0
   25.5411  -20.9807  -12.0494 N   0  0  0  0  0  0  0  0  0  0  0  0
   26.0747  -21.0378  -10.7211 C   0  0  1  0  0  0  0  0  0  0  0  0
   27.1160  -19.9860  -10.4969 C   0  0  0  0  0  0  0  0  0  0  0  0
   27.5692  -19.8450   -9.1137 C   0  0  0  0  0  0  0  0  0  0  0  0
   28.3734  -20.7961   -8.5337 C   0  0  0  0  0  0  0  0  0  0  0  0
   28.8212  -20.6829   -7.2228 C   0  0  0  0  0  0  0  0  0  0  0  0
   28.4650  -19.5943   -6.4539 C   0  0  0  0  0  0  0  0  0  0  0  0
   27.6602  -18.6364   -7.0252 C   0  0  0  0  0  0  0  0  0  0  0  0
   27.2180  -18.7599   -8.3368 C   0  0  0  0  0  0  0  0  0  0  0  0
   24.9788  -20.9693   -9.7282 C   0  0  0  0  0  0  0  0  0  0  0  0
   23.7238  -20.5242  -10.0658 O   0  0  0  0  0  0  0  0  0  0  0  0
   25.1945  -21.3270   -8.5409 O   0  0  0  0  0  0  0  0  0  0  0  0
  2  1  1  0
  3  5  1  0
  3  2  1  0
  3  4  1  1
  5  7  1  0
  5  6  1  6
  7  8  2  0
  9 10  1  0
 10 11  1  0
 11 12  1  0
 13 12  1  6
 14 13  1  0
 14  7  1  0
 15 16  2  0
 15 13  1  0
 17 15  1  0
 18 17  1  0
 18 26  1  0
 18 19  1  1
 20 19  1  0
 20 25  2  0
 21 20  1  0
 22 21  2  0
 22 23  1  0
 23 24  2  0
 24 25  1  0
 26 28  2  0
 26 27  1  0
M  END
$$$$
