IMF.pdb
     RDKit          3D

 28 28  0  0  1  0  0  0  0  0999 V2000
   15.3376  -21.6466    0.5178 C   0  0  0  0  0  0  0  0  0  0  0  0
   14.7645  -20.8774    1.7182 C   0  0  0  0  0  0  0  0  0  0  0  0
   15.8589  -20.1803    2.4420 C   0  0  2  0  0  0  0  0  0  0  0  0
   16.9569  -21.1609    2.8435 C   0  0  0  0  0  0  0  0  0  0  0  0
   15.4557  -19.3046    3.5791 C   0  0  2  0  0  0  0  0  0  0  0  0
   14.5596  -18.2858    2.9814 N   0  0  0  0  0  0  0  0  0  0  0  0
   16.5525  -18.5243    4.1936 C   0  0  0  0  0  0  0  0  0  0  0  0
   17.5520  -19.0605    4.7710 O   0  0  0  0  0  0  0  0  0  0  0  0
   19.5930  -11.9182    3.4474 C   0  0  0  0  0  0  0  0  0  0  0  0
   18.4033  -12.2341    4.7584 S   0  0  0  0  0  0  0  0  0  0  0  0
   18.3879  -13.9492    5.2825 C   0  0  0  0  0  0  0  0  0  0  0  0
   17.4467  -14.8373    4.5626 C   0  0  0  0  0  0  0  0  0  0  0  0
   17.4852  -16.2986    4.9326 C   0  0  2  0  0  0  0  0  0  0  0  0
   16.5725  -17.0914    4.1824 N   0  0  0  0  0  0  0  0  0  0  0  0
   17.3180  -16.4537    6.4071 C   0  0  0  0  0  0  0  0  0  0  0  0
   16.1662  -16.6445    6.8698 O   0  0  0  0  0  0  0  0  0  0  0  0
   18.4240  -16.3908    7.2982 N   0  0  0  0  0  0  0  0  0  0  0  0
   18.3144  -16.5700    8.7154 C   0  0  1  0  0  0  0  0  0  0  0  0
   18.5944  -17.9843    9.1180 C   0  0  0  0  0  0  0  0  0  0  0  0
   19.8441  -18.5417    8.6019 C   0  0  0  0  0  0  0  0  0  0  0  0
   21.0589  -18.0331    8.9935 C   0  0  0  0  0  0  0  0  0  0  0  0
   22.2604  -18.5481    8.5213 C   0  0  0  0  0  0  0  0  0  0  0  0
   22.2676  -19.6019    7.6311 C   0  0  0  0  0  0  0  0  0  0  0  0
   21.0567  -20.1183    7.2328 C   0  0  0  0  0  0  0  0  0  0  0  0
   19.8613  -19.5955    7.7112 C   0  0  0  0  0  0  0  0  0  0  0  0
   19.1813  -15.5991    9.4205 C   0  0  0  0  0  0  0  0  0  0  0  0
   19.1877  -15.4969   10.7904 O   0  0  0  0  0  0  0  0  0  0  0  0
   19.9361  -14.8438    8.7542 O   0  0  0  0  0  0  0  0  0  0  0  0
  2  1  1  0
  3  5  1  0
  3  2  1  0
  3  4  1  1
  5  7  1  0
  5  6  1  6
  7  8  2  0
  9 10  1  0
 10 11  1  0
 11 12  1  0
 13 12  1  1
 14 13  1  0
 14  7  1  0
 15 16  2  0
 15 13  1  0
 17 15  1  0
 18 17  1  0
 18 26  1  0
 18 19  1  6
 20 19  1  0
 20 25  2  0
 21 20  1  0
 22 21  2  0
 22 23  1  0
 23 24  2  0
 24 25  1  0
 26 28  2  0
 26 27  1  0
M  END
$$$$
