IMF.pdb
     RDKit          3D

 28 28  0  0  1  0  0  0  0  0999 V2000
   28.4546  -17.9713  -17.1533 C   0  0  0  0  0  0  0  0  0  0  0  0
   28.9948  -19.0485  -16.2000 C   0  0  0  0  0  0  0  0  0  0  0  0
   27.9165  -19.4995  -15.2827 C   0  0  2  0  0  0  0  0  0  0  0  0
   27.2577  -18.3098  -14.5906 C   0  0  0  0  0  0  0  0  0  0  0  0
   28.2701  -20.5767  -14.3149 C   0  0  2  0  0  0  0  0  0  0  0  0
   28.6161  -21.7494  -15.1537 N   0  0  0  0  0  0  0  0  0  0  0  0
   27.1582  -21.0444  -13.4579 C   0  0  0  0  0  0  0  0  0  0  0  0
   26.2160  -21.7879  -13.8811 O   0  0  0  0  0  0  0  0  0  0  0  0
   27.2575  -19.6891   -6.8754 C   0  0  0  0  0  0  0  0  0  0  0  0
   27.8100  -21.2846   -7.4942 S   0  0  0  0  0  0  0  0  0  0  0  0
   27.4961  -21.4951   -9.2474 C   0  0  0  0  0  0  0  0  0  0  0  0
   26.2618  -20.8609   -9.7644 C   0  0  0  0  0  0  0  0  0  0  0  0
   25.9703  -21.0547  -11.2311 C   0  0  2  0  0  0  0  0  0  0  0  0
   27.0595  -20.6931  -12.0719 N   0  0  0  0  0  0  0  0  0  0  0  0
   24.6991  -20.3620  -11.5921 C   0  0  0  0  0  0  0  0  0  0  0  0
   24.7251  -19.1273  -11.8198 O   0  0  0  0  0  0  0  0  0  0  0  0
   23.4642  -21.0605  -11.6842 N   0  0  0  0  0  0  0  0  0  0  0  0
   22.3900  -20.6661  -12.5462 C   0  0  1  0  0  0  0  0  0  0  0  0
   22.8487  -20.4979  -13.9612 C   0  0  0  0  0  0  0  0  0  0  0  0
   21.7976  -20.1563  -14.9189 C   0  0  0  0  0  0  0  0  0  0  0  0
   21.3663  -18.8597  -15.0612 C   0  0  0  0  0  0  0  0  0  0  0  0
   20.3725  -18.5087  -15.9673 C   0  0  0  0  0  0  0  0  0  0  0  0
   19.7811  -19.4681  -16.7627 C   0  0  0  0  0  0  0  0  0  0  0  0
   20.2058  -20.7694  -16.6280 C   0  0  0  0  0  0  0  0  0  0  0  0
   21.2001  -21.1091  -15.7186 C   0  0  0  0  0  0  0  0  0  0  0  0
   21.2640  -21.6194  -12.4264 C   0  0  0  0  0  0  0  0  0  0  0  0
   19.9640  -21.1919  -12.3057 O   0  0  0  0  0  0  0  0  0  0  0  0
   21.4953  -22.8566  -12.4347 O   0  0  0  0  0  0  0  0  0  0  0  0
  2  1  1  0
  3  5  1  0
  3  2  1  0
  3  4  1  1
  5  7  1  0
  5  6  1  6
  7  8  2  0
  9 10  1  0
 10 11  1  0
 11 12  1  0
 13 12  1  1
 14 13  1  0
 14  7  1  0
 15 16  2  0
 15 13  1  0
 17 15  1  0
 18 17  1  0
 18 26  1  0
 18 19  1  6
 20 19  1  0
 20 25  2  0
 21 20  1  0
 22 21  2  0
 22 23  1  0
 23 24  2  0
 24 25  1  0
 26 28  2  0
 26 27  1  0
M  END
$$$$
