IMF.pdb
     RDKit          3D

 28 28  0  0  1  0  0  0  0  0999 V2000
   28.9390  -16.1583  -16.1908 C   0  0  0  0  0  0  0  0  0  0  0  0
   28.1782  -17.4800  -16.3783 C   0  0  0  0  0  0  0  0  0  0  0  0
   27.5241  -17.8729  -15.1034 C   0  0  2  0  0  0  0  0  0  0  0  0
   28.5182  -17.8319  -13.9465 C   0  0  0  0  0  0  0  0  0  0  0  0
   26.7426  -19.1422  -15.1172 C   0  0  2  0  0  0  0  0  0  0  0  0
   25.7339  -18.9615  -16.1887 N   0  0  0  0  0  0  0  0  0  0  0  0
   25.9491  -19.4073  -13.8967 C   0  0  0  0  0  0  0  0  0  0  0  0
   24.9499  -18.7010  -13.5468 O   0  0  0  0  0  0  0  0  0  0  0  0
   23.7312  -25.0097  -12.8311 C   0  0  0  0  0  0  0  0  0  0  0  0
   22.8168  -23.5946  -13.4598 S   0  0  0  0  0  0  0  0  0  0  0  0
   23.6195  -22.0327  -13.0954 C   0  0  0  0  0  0  0  0  0  0  0  0
   24.6500  -22.0674  -12.0324 C   0  0  0  0  0  0  0  0  0  0  0  0
   25.4783  -20.8194  -11.8585 C   0  0  2  0  0  0  0  0  0  0  0  0
   26.2481  -20.4924  -13.0095 N   0  0  0  0  0  0  0  0  0  0  0  0
   26.2995  -20.9238  -10.6173 C   0  0  0  0  0  0  0  0  0  0  0  0
   27.5485  -21.0038  -10.7216 O   0  0  0  0  0  0  0  0  0  0  0  0
   25.7074  -20.9355   -9.3247 N   0  0  0  0  0  0  0  0  0  0  0  0
   26.4581  -21.0101   -8.1069 C   0  0  1  0  0  0  0  0  0  0  0  0
   27.5609  -19.9984   -8.0733 C   0  0  0  0  0  0  0  0  0  0  0  0
   28.2600  -19.8833   -6.7939 C   0  0  0  0  0  0  0  0  0  0  0  0
   28.1209  -18.7625   -6.0116 C   0  0  0  0  0  0  0  0  0  0  0  0
   28.7707  -18.6309   -4.7901 C   0  0  0  0  0  0  0  0  0  0  0  0
   29.5874  -19.6385   -4.3205 C   0  0  0  0  0  0  0  0  0  0  0  0
   29.7334  -20.7649   -5.0962 C   0  0  0  0  0  0  0  0  0  0  0  0
   29.0791  -20.8858   -6.3161 C   0  0  0  0  0  0  0  0  0  0  0  0
   25.5519  -20.8977   -6.9418 C   0  0  0  0  0  0  0  0  0  0  0  0
   25.9628  -21.2227   -5.6718 O   0  0  0  0  0  0  0  0  0  0  0  0
   24.3718  -20.4940   -7.1107 O   0  0  0  0  0  0  0  0  0  0  0  0
  2  1  1  0
  3  5  1  0
  3  2  1  0
  3  4  1  1
  5  7  1  0
  5  6  1  6
  7  8  2  0
  9 10  1  0
 10 11  1  0
 11 12  1  0
 13 12  1  6
 14 13  1  0
 14  7  1  0
 15 16  2  0
 15 13  1  0
 17 15  1  0
 18 17  1  0
 18 26  1  0
 18 19  1  6
 20 19  1  0
 20 25  2  0
 21 20  1  0
 22 21  2  0
 22 23  1  0
 23 24  2  0
 24 25  1  0
 26 28  2  0
 26 27  1  0
M  END
$$$$
