IMF.pdb
     RDKit          3D

 28 28  0  0  1  0  0  0  0  0999 V2000
   26.4138  -17.6056  -16.4573 C   0  0  0  0  0  0  0  0  0  0  0  0
   26.6525  -19.0421  -15.9671 C   0  0  0  0  0  0  0  0  0  0  0  0
   27.8416  -19.0823  -15.0771 C   0  0  2  0  0  0  0  0  0  0  0  0
   29.0775  -18.5489  -15.7958 C   0  0  0  0  0  0  0  0  0  0  0  0
   28.1167  -20.3751  -14.3879 C   0  0  2  0  0  0  0  0  0  0  0  0
   28.2771  -21.3663  -15.4788 N   0  0  0  0  0  0  0  0  0  0  0  0
   27.0045  -20.9003  -13.5653 C   0  0  0  0  0  0  0  0  0  0  0  0
   26.1336  -21.7158  -14.0081 O   0  0  0  0  0  0  0  0  0  0  0  0
   26.0537  -20.0005   -6.7604 C   0  0  0  0  0  0  0  0  0  0  0  0
   27.5093  -20.6011   -7.6289 S   0  0  0  0  0  0  0  0  0  0  0  0
   27.1308  -21.2272   -9.2663 C   0  0  0  0  0  0  0  0  0  0  0  0
   25.9319  -20.6517   -9.9178 C   0  0  0  0  0  0  0  0  0  0  0  0
   25.7439  -20.9693  -11.3799 C   0  0  2  0  0  0  0  0  0  0  0  0
   26.8245  -20.5276  -12.1932 N   0  0  0  0  0  0  0  0  0  0  0  0
   24.4193  -20.4626  -11.8435 C   0  0  0  0  0  0  0  0  0  0  0  0
   24.2675  -19.2273  -12.0108 O   0  0  0  0  0  0  0  0  0  0  0  0
   23.3288  -21.3384  -12.0991 N   0  0  0  0  0  0  0  0  0  0  0  0
   22.0693  -20.9064  -12.6278 C   0  0  1  0  0  0  0  0  0  0  0  0
   21.8704  -21.3735  -14.0361 C   0  0  0  0  0  0  0  0  0  0  0  0
   22.1985  -20.3914  -15.0688 C   0  0  0  0  0  0  0  0  0  0  0  0
   23.3217  -20.5336  -15.8471 C   0  0  0  0  0  0  0  0  0  0  0  0
   23.6529  -19.6169  -16.8379 C   0  0  0  0  0  0  0  0  0  0  0  0
   22.8500  -18.5199  -17.0720 C   0  0  0  0  0  0  0  0  0  0  0  0
   21.7230  -18.3683  -16.2983 C   0  0  0  0  0  0  0  0  0  0  0  0
   21.4015  -19.2909  -15.3102 C   0  0  0  0  0  0  0  0  0  0  0  0
   20.9690  -21.3276  -11.7317 C   0  0  0  0  0  0  0  0  0  0  0  0
   19.6704  -20.9340  -11.9464 O   0  0  0  0  0  0  0  0  0  0  0  0
   21.2215  -22.0664  -10.7445 O   0  0  0  0  0  0  0  0  0  0  0  0
  2  1  1  0
  3  5  1  0
  3  2  1  0
  3  4  1  6
  5  7  1  0
  5  6  1  6
  7  8  2  0
  9 10  1  0
 10 11  1  0
 11 12  1  0
 13 12  1  1
 14 13  1  0
 14  7  1  0
 15 16  2  0
 15 13  1  0
 17 15  1  0
 18 17  1  0
 18 26  1  0
 18 19  1  6
 20 19  1  0
 20 25  2  0
 21 20  1  0
 22 21  2  0
 22 23  1  0
 23 24  2  0
 24 25  1  0
 26 28  2  0
 26 27  1  0
M  END
$$$$
