NGT.pdb
     RDKit          3D

 20 19  0  0  1  0  0  0  0  0999 V2000
   11.9119  -17.5914   18.1464 N   0  0  0  0  0  0  0  0  0  0  0  0
   11.4037  -18.2462   19.2922 C   0  0  0  0  0  0  0  0  0  0  0  0
   11.9614  -19.3189   19.6393 O   0  0  0  0  0  0  0  0  0  0  0  0
   10.2407  -17.6707   20.0566 C   0  0  0  0  0  0  0  0  0  0  0  0
   10.6971  -17.3218   21.4792 C   0  0  2  0  0  0  0  0  0  0  0  0
   10.6715  -18.5680   22.2215 N   0  0  0  0  0  0  0  0  0  0  0  0
    9.6525  -16.3764   22.0143 C   0  0  0  0  0  0  0  0  0  0  0  0
    9.6172  -15.1670   21.6469 O   0  0  0  0  0  0  0  0  0  0  0  0
    8.6767  -16.8032   22.9431 N   0  0  0  0  0  0  0  0  0  0  0  0
    7.6825  -15.8758   23.4339 C   0  0  0  0  0  0  0  0  0  0  0  0
    8.1645  -15.0320   24.5233 C   0  0  0  0  0  0  0  0  0  0  0  0
    9.3611  -15.0682   24.8673 O   0  0  0  0  0  0  0  0  0  0  0  0
    6.3829  -11.2311   25.5405 C   0  0  0  0  0  0  0  0  0  0  0  0
    6.5987  -12.2568   26.5861 C   0  0  1  0  0  0  0  0  0  0  0  0
    5.4262  -12.9602   26.8795 O   0  0  0  0  0  0  0  0  0  0  0  0
    7.6630  -13.2710   26.2568 C   0  0  2  0  0  0  0  0  0  0  0  0
    7.2866  -14.1630   25.2040 N   0  0  0  0  0  0  0  0  0  0  0  0
    8.1393  -14.0051   27.4439 C   0  0  0  0  0  0  0  0  0  0  0  0
    8.7224  -13.3902   28.5343 O   0  0  0  0  0  0  0  0  0  0  0  0
    8.0160  -15.2496   27.4806 O   0  0  0  0  0  0  0  0  0  0  0  0
  2  1  1  0
  3  2  2  0
  4  2  1  0
  5  6  1  1
  5  4  1  0
  7  5  1  0
  8  7  2  0
  9  7  1  0
 10  9  1  0
 11 10  1  0
 11 17  1  0
 12 11  2  0
 14 13  1  6
 14 16  1  0
 15 14  1  0
 16 17  1  6
 16 18  1  0
 18 20  2  0
 18 19  1  0
M  END
$$$$
