NGT.pdb
     RDKit          3D

 20 19  0  0  1  0  0  0  0  0999 V2000
   13.1005  -15.2575   18.2634 N   0  0  0  0  0  0  0  0  0  0  0  0
   12.3768  -14.6445   19.3124 C   0  0  0  0  0  0  0  0  0  0  0  0
   12.0920  -13.4262   19.1826 O   0  0  0  0  0  0  0  0  0  0  0  0
   11.9700  -15.4311   20.5306 C   0  0  0  0  0  0  0  0  0  0  0  0
   10.8157  -16.3712   20.1598 C   0  0  2  0  0  0  0  0  0  0  0  0
   10.6594  -16.2604   18.7218 N   0  0  0  0  0  0  0  0  0  0  0  0
    9.6034  -15.8120   20.8591 C   0  0  0  0  0  0  0  0  0  0  0  0
    8.4868  -15.7375   20.2705 O   0  0  0  0  0  0  0  0  0  0  0  0
    9.6677  -15.3514   22.1935 N   0  0  0  0  0  0  0  0  0  0  0  0
    8.4586  -14.9945   22.9006 C   0  0  0  0  0  0  0  0  0  0  0  0
    8.7066  -14.4166   24.2180 C   0  0  0  0  0  0  0  0  0  0  0  0
    9.8597  -14.3893   24.6880 O   0  0  0  0  0  0  0  0  0  0  0  0
    6.2516  -11.3545   25.9748 C   0  0  0  0  0  0  0  0  0  0  0  0
    6.5478  -12.5824   26.7472 C   0  0  1  0  0  0  0  0  0  0  0  0
    5.4800  -13.4851   26.7253 O   0  0  0  0  0  0  0  0  0  0  0  0
    7.7767  -13.3259   26.2925 C   0  0  2  0  0  0  0  0  0  0  0  0
    7.6480  -13.8803   24.9804 N   0  0  0  0  0  0  0  0  0  0  0  0
    8.2247  -14.3386   27.2666 C   0  0  0  0  0  0  0  0  0  0  0  0
    8.7204  -14.0238   28.5164 O   0  0  0  0  0  0  0  0  0  0  0  0
    8.1586  -15.5498   26.9601 O   0  0  0  0  0  0  0  0  0  0  0  0
  2  1  1  0
  3  2  2  0
  4  2  1  0
  5  6  1  6
  5  4  1  0
  7  5  1  0
  8  7  2  0
  9  7  1  0
 10  9  1  0
 11 10  1  0
 11 17  1  0
 12 11  2  0
 14 13  1  6
 14 16  1  0
 15 14  1  0
 16 17  1  6
 16 18  1  0
 18 20  2  0
 18 19  1  0
M  END
$$$$
