NGT.pdb
     RDKit          3D

 20 19  0  0  1  0  0  0  0  0999 V2000
    8.6860  -12.8529   16.8812 N   0  0  0  0  0  0  0  0  0  0  0  0
    8.1092  -14.0868   17.2614 C   0  0  0  0  0  0  0  0  0  0  0  0
    8.1950  -15.0403   16.4455 O   0  0  0  0  0  0  0  0  0  0  0  0
    7.4226  -14.2389   18.5932 C   0  0  0  0  0  0  0  0  0  0  0  0
    8.4833  -14.3454   19.6966 C   0  0  2  0  0  0  0  0  0  0  0  0
    9.1297  -15.6297   19.5036 N   0  0  0  0  0  0  0  0  0  0  0  0
    7.7145  -14.3399   20.9929 C   0  0  0  0  0  0  0  0  0  0  0  0
    7.1197  -13.2988   21.3945 O   0  0  0  0  0  0  0  0  0  0  0  0
    7.6293  -15.4927   21.8057 N   0  0  0  0  0  0  0  0  0  0  0  0
    7.0174  -15.4191   23.1133 C   0  0  0  0  0  0  0  0  0  0  0  0
    7.8592  -14.7664   24.1114 C   0  0  0  0  0  0  0  0  0  0  0  0
    9.0343  -14.4554   23.8395 O   0  0  0  0  0  0  0  0  0  0  0  0
    6.8606  -11.4683   25.7798 C   0  0  0  0  0  0  0  0  0  0  0  0
    7.1299  -12.4896   26.8174 C   0  0  1  0  0  0  0  0  0  0  0  0
    5.9504  -13.0387   27.3302 O   0  0  0  0  0  0  0  0  0  0  0  0
    7.9979  -13.6326   26.3593 C   0  0  2  0  0  0  0  0  0  0  0  0
    7.3588  -14.4769   25.3978 N   0  0  0  0  0  0  0  0  0  0  0  0
    8.5535  -14.4130   27.4806 C   0  0  0  0  0  0  0  0  0  0  0  0
    9.3603  -13.8677   28.4597 O   0  0  0  0  0  0  0  0  0  0  0  0
    8.2897  -15.6331   27.5633 O   0  0  0  0  0  0  0  0  0  0  0  0
  2  1  1  0
  3  2  2  0
  4  2  1  0
  5  6  1  6
  5  4  1  0
  7  5  1  0
  8  7  2  0
  9  7  1  0
 10  9  1  0
 11 10  1  0
 11 17  1  0
 12 11  2  0
 14 13  1  6
 14 16  1  0
 15 14  1  0
 16 17  1  6
 16 18  1  0
 18 20  2  0
 18 19  1  0
M  END
$$$$
