NGT.pdb
     RDKit          3D

 20 19  0  0  1  0  0  0  0  0999 V2000
   10.8850  -13.7734   29.5365 N   0  0  0  0  0  0  0  0  0  0  0  0
   10.0545  -14.7416   28.9259 C   0  0  0  0  0  0  0  0  0  0  0  0
   10.1837  -15.9343   29.3038 O   0  0  0  0  0  0  0  0  0  0  0  0
    9.0595  -14.3460   27.8667 C   0  0  0  0  0  0  0  0  0  0  0  0
    8.8986  -15.5022   26.8711 C   0  0  2  0  0  0  0  0  0  0  0  0
   10.2127  -15.7162   26.2949 N   0  0  0  0  0  0  0  0  0  0  0  0
    7.9461  -14.9949   25.8191 C   0  0  0  0  0  0  0  0  0  0  0  0
    6.9188  -14.3289   26.1353 O   0  0  0  0  0  0  0  0  0  0  0  0
    8.1633  -15.2429   24.4449 N   0  0  0  0  0  0  0  0  0  0  0  0
    7.2065  -14.7877   23.4618 C   0  0  0  0  0  0  0  0  0  0  0  0
    7.5302  -15.2054   22.1010 C   0  0  0  0  0  0  0  0  0  0  0  0
    7.3080  -16.3735   21.7300 O   0  0  0  0  0  0  0  0  0  0  0  0
    7.0188  -12.5738   19.1218 C   0  0  0  0  0  0  0  0  0  0  0  0
    8.2535  -13.3658   18.9203 C   0  0  1  0  0  0  0  0  0  0  0  0
    9.4058  -12.5957   19.1066 O   0  0  0  0  0  0  0  0  0  0  0  0
    8.3714  -14.5769   19.8086 C   0  0  2  0  0  0  0  0  0  0  0  0
    8.0988  -14.2967   21.1844 N   0  0  0  0  0  0  0  0  0  0  0  0
    9.6557  -15.2829   19.6441 C   0  0  0  0  0  0  0  0  0  0  0  0
   10.0240  -15.9293   18.4807 O   0  0  0  0  0  0  0  0  0  0  0  0
   10.4644  -15.3068   20.5985 O   0  0  0  0  0  0  0  0  0  0  0  0
  2  1  1  0
  3  2  2  0
  4  2  1  0
  5  6  1  6
  5  4  1  0
  7  5  1  0
  8  7  2  0
  9  7  1  0
 10  9  1  0
 11 10  1  0
 11 17  1  0
 12 11  2  0
 14 13  1  1
 14 16  1  0
 15 14  1  0
 16 17  1  1
 16 18  1  0
 18 20  2  0
 18 19  1  0
M  END
$$$$
