NGT.pdb
     RDKit          3D

 20 19  0  0  1  0  0  0  0  0999 V2000
    9.7905  -20.2180   16.2977 N   0  0  0  0  0  0  0  0  0  0  0  0
    9.6534  -18.9661   16.9408 C   0  0  0  0  0  0  0  0  0  0  0  0
    8.6507  -18.2688   16.6396 O   0  0  0  0  0  0  0  0  0  0  0  0
   10.6749  -18.4989   17.9441 C   0  0  0  0  0  0  0  0  0  0  0  0
   10.2260  -18.9167   19.3504 C   0  0  2  0  0  0  0  0  0  0  0  0
    8.9579  -18.2497   19.5773 N   0  0  0  0  0  0  0  0  0  0  0  0
   11.2751  -18.3704   20.2843 C   0  0  0  0  0  0  0  0  0  0  0  0
   12.4607  -18.8096   20.2628 O   0  0  0  0  0  0  0  0  0  0  0  0
   10.9757  -17.3507   21.2158 N   0  0  0  0  0  0  0  0  0  0  0  0
   11.9892  -16.8806   22.1330 C   0  0  0  0  0  0  0  0  0  0  0  0
   11.4439  -16.3659   23.3855 C   0  0  0  0  0  0  0  0  0  0  0  0
   12.2044  -15.9835   24.2948 O   0  0  0  0  0  0  0  0  0  0  0  0
    8.4387  -13.7426   23.9558 C   0  0  0  0  0  0  0  0  0  0  0  0
    8.1830  -15.0562   24.5892 C   0  0  1  0  0  0  0  0  0  0  0  0
    7.2765  -15.8251   23.8524 O   0  0  0  0  0  0  0  0  0  0  0  0
    9.4148  -15.8959   24.8066 C   0  0  2  0  0  0  0  0  0  0  0  0
   10.0500  -16.2927   23.5881 N   0  0  0  0  0  0  0  0  0  0  0  0
    9.1701  -17.0507   25.6906 C   0  0  0  0  0  0  0  0  0  0  0  0
    8.6876  -16.9326   26.9791 O   0  0  0  0  0  0  0  0  0  0  0  0
    9.4067  -18.2036   25.2662 O   0  0  0  0  0  0  0  0  0  0  0  0
  2  1  1  0
  3  2  2  0
  4  2  1  0
  5  6  1  1
  5  4  1  0
  7  5  1  0
  8  7  2  0
  9  7  1  0
 10  9  1  0
 11 10  1  0
 11 17  1  0
 12 11  2  0
 14 13  1  6
 14 16  1  0
 15 14  1  0
 16 17  1  6
 16 18  1  0
 18 20  2  0
 18 19  1  0
M  END
$$$$
