NGT.pdb
     RDKit          3D

 20 19  0  0  1  0  0  0  0  0999 V2000
    8.2874  -20.0593   17.7795 N   0  0  0  0  0  0  0  0  0  0  0  0
    8.9721  -19.1082   18.5711 C   0  0  0  0  0  0  0  0  0  0  0  0
   10.2276  -19.1787   18.6015 O   0  0  0  0  0  0  0  0  0  0  0  0
    8.2154  -18.0586   19.3417 C   0  0  0  0  0  0  0  0  0  0  0  0
    9.2113  -17.1975   20.1295 C   0  0  2  0  0  0  0  0  0  0  0  0
    9.7788  -18.0702   21.1398 N   0  0  0  0  0  0  0  0  0  0  0  0
    8.3821  -16.1200   20.7796 C   0  0  0  0  0  0  0  0  0  0  0  0
    7.7542  -15.2707   20.0843 O   0  0  0  0  0  0  0  0  0  0  0  0
    8.2748  -16.0177   22.1850 N   0  0  0  0  0  0  0  0  0  0  0  0
    7.4578  -14.9846   22.7805 C   0  0  0  0  0  0  0  0  0  0  0  0
    8.0425  -14.4065   23.9867 C   0  0  0  0  0  0  0  0  0  0  0  0
    9.2650  -14.5040   24.2044 O   0  0  0  0  0  0  0  0  0  0  0  0
    6.3824  -10.9749   25.9891 C   0  0  0  0  0  0  0  0  0  0  0  0
    6.6934  -12.1982   26.7631 C   0  0  1  0  0  0  0  0  0  0  0  0
    5.5505  -12.9645   27.0128 O   0  0  0  0  0  0  0  0  0  0  0  0
    7.7118  -13.1031   26.1197 C   0  0  2  0  0  0  0  0  0  0  0  0
    7.2362  -13.7290   24.9249 N   0  0  0  0  0  0  0  0  0  0  0  0
    8.2745  -14.0896   27.0605 C   0  0  0  0  0  0  0  0  0  0  0  0
    8.9490  -13.7408   28.2139 O   0  0  0  0  0  0  0  0  0  0  0  0
    8.1426  -15.3093   26.8154 O   0  0  0  0  0  0  0  0  0  0  0  0
  2  1  1  0
  3  2  2  0
  4  2  1  0
  5  6  1  1
  5  4  1  0
  7  5  1  0
  8  7  2  0
  9  7  1  0
 10  9  1  0
 11 10  1  0
 11 17  1  0
 12 11  2  0
 14 13  1  6
 14 16  1  0
 15 14  1  0
 16 17  1  6
 16 18  1  0
 18 20  2  0
 18 19  1  0
M  END
$$$$
