NGT.pdb
     RDKit          3D

 20 19  0  0  1  0  0  0  0  0999 V2000
    8.7819  -19.9412   17.7421 N   0  0  0  0  0  0  0  0  0  0  0  0
    8.9129  -18.5675   18.0514 C   0  0  0  0  0  0  0  0  0  0  0  0
    9.3705  -17.8145   17.1537 O   0  0  0  0  0  0  0  0  0  0  0  0
    8.5164  -18.0410   19.4056 C   0  0  0  0  0  0  0  0  0  0  0  0
    9.0694  -16.6199   19.5743 C   0  0  2  0  0  0  0  0  0  0  0  0
   10.3446  -16.7674   20.2501 N   0  0  0  0  0  0  0  0  0  0  0  0
    8.0857  -15.9111   20.4693 C   0  0  0  0  0  0  0  0  0  0  0  0
    6.8848  -15.7394   20.1125 O   0  0  0  0  0  0  0  0  0  0  0  0
    8.4656  -15.4132   21.7361 N   0  0  0  0  0  0  0  0  0  0  0  0
    7.4885  -14.7828   22.5947 C   0  0  0  0  0  0  0  0  0  0  0  0
    8.0417  -14.3296   23.8673 C   0  0  0  0  0  0  0  0  0  0  0  0
    9.2355  -14.5460   24.1492 O   0  0  0  0  0  0  0  0  0  0  0  0
    6.5146  -10.8898   25.8919 C   0  0  0  0  0  0  0  0  0  0  0  0
    6.7209  -12.1354   26.6652 C   0  0  1  0  0  0  0  0  0  0  0  0
    5.5224  -12.8237   26.8787 O   0  0  0  0  0  0  0  0  0  0  0  0
    7.6929  -13.1039   26.0431 C   0  0  2  0  0  0  0  0  0  0  0  0
    7.2368  -13.6404   24.7982 N   0  0  0  0  0  0  0  0  0  0  0  0
    8.1098  -14.1707   26.9721 C   0  0  0  0  0  0  0  0  0  0  0  0
    8.8581  -13.9386   28.1092 O   0  0  0  0  0  0  0  0  0  0  0  0
    7.7764  -15.3524   26.7317 O   0  0  0  0  0  0  0  0  0  0  0  0
  2  1  1  0
  3  2  2  0
  4  2  1  0
  5  6  1  1
  5  4  1  0
  7  5  1  0
  8  7  2  0
  9  7  1  0
 10  9  1  0
 11 10  1  0
 11 17  1  0
 12 11  2  0
 14 13  1  6
 14 16  1  0
 15 14  1  0
 16 17  1  6
 16 18  1  0
 18 20  2  0
 18 19  1  0
M  END
$$$$
