NGT.pdb
     RDKit          3D

 20 19  0  0  1  0  0  0  0  0999 V2000
    9.9222  -13.3054   29.3308 N   0  0  0  0  0  0  0  0  0  0  0  0
    9.8575  -14.5087   28.5907 C   0  0  0  0  0  0  0  0  0  0  0  0
   10.3520  -15.5382   29.1177 O   0  0  0  0  0  0  0  0  0  0  0  0
    9.2190  -14.5415   27.2270 C   0  0  0  0  0  0  0  0  0  0  0  0
    9.6326  -15.8328   26.5091 C   0  0  2  0  0  0  0  0  0  0  0  0
   11.0790  -15.7857   26.4086 N   0  0  0  0  0  0  0  0  0  0  0  0
    9.0131  -15.7446   25.1381 C   0  0  0  0  0  0  0  0  0  0  0  0
    7.7628  -15.6232   24.9933 O   0  0  0  0  0  0  0  0  0  0  0  0
    9.8020  -15.7940   23.9667 N   0  0  0  0  0  0  0  0  0  0  0  0
    9.1779  -15.7341   22.6643 C   0  0  0  0  0  0  0  0  0  0  0  0
    9.0896  -17.0327   22.0034 C   0  0  0  0  0  0  0  0  0  0  0  0
    9.0949  -18.0830   22.6730 O   0  0  0  0  0  0  0  0  0  0  0  0
    6.6635  -17.6620   18.7986 C   0  0  0  0  0  0  0  0  0  0  0  0
    8.0422  -18.1611   18.5928 C   0  0  1  0  0  0  0  0  0  0  0  0
    8.7793  -17.3285   17.7448 O   0  0  0  0  0  0  0  0  0  0  0  0
    8.8395  -18.3354   19.8591 C   0  0  2  0  0  0  0  0  0  0  0  0
    8.9970  -17.1215   20.5989 N   0  0  0  0  0  0  0  0  0  0  0  0
   10.1350  -19.0023   19.6311 C   0  0  0  0  0  0  0  0  0  0  0  0
   10.2539  -20.2647   19.0840 O   0  0  0  0  0  0  0  0  0  0  0  0
   11.1900  -18.4071   19.9440 O   0  0  0  0  0  0  0  0  0  0  0  0
  2  1  1  0
  3  2  2  0
  4  2  1  0
  5  6  1  6
  5  4  1  0
  7  5  1  0
  8  7  2  0
  9  7  1  0
 10  9  1  0
 11 10  1  0
 11 17  1  0
 12 11  2  0
 14 13  1  1
 14 16  1  0
 15 14  1  0
 16 17  1  6
 16 18  1  0
 18 20  2  0
 18 19  1  0
M  END
$$$$
