NGT.pdb
     RDKit          3D

 20 19  0  0  1  0  0  0  0  0999 V2000
    6.8273  -12.7042   19.5176 N   0  0  0  0  0  0  0  0  0  0  0  0
    7.9473  -13.5154   19.2218 C   0  0  0  0  0  0  0  0  0  0  0  0
    8.1781  -13.7618   18.0101 O   0  0  0  0  0  0  0  0  0  0  0  0
    8.8201  -14.0558   20.3238 C   0  0  0  0  0  0  0  0  0  0  0  0
    8.5244  -15.5493   20.5129 C   0  0  2  0  0  0  0  0  0  0  0  0
    7.3852  -15.8395   19.6629 N   0  0  0  0  0  0  0  0  0  0  0  0
    8.1432  -15.7015   21.9630 C   0  0  0  0  0  0  0  0  0  0  0  0
    6.9689  -16.0296   22.2983 O   0  0  0  0  0  0  0  0  0  0  0  0
    9.0791  -15.4843   22.9993 N   0  0  0  0  0  0  0  0  0  0  0  0
    8.7425  -15.8121   24.3663 C   0  0  0  0  0  0  0  0  0  0  0  0
    9.8389  -15.5868   25.3033 C   0  0  0  0  0  0  0  0  0  0  0  0
   10.8610  -14.9730   24.9426 O   0  0  0  0  0  0  0  0  0  0  0  0
   10.1056  -13.1867   27.3767 C   0  0  0  0  0  0  0  0  0  0  0  0
   10.1542  -14.3258   28.3212 C   0  0  1  0  0  0  0  0  0  0  0  0
    8.9175  -14.5510   28.9340 O   0  0  0  0  0  0  0  0  0  0  0  0
   10.5976  -15.6284   27.7076 C   0  0  2  0  0  0  0  0  0  0  0  0
    9.7612  -16.0587   26.6302 N   0  0  0  0  0  0  0  0  0  0  0  0
   10.7849  -16.6962   28.7073 C   0  0  0  0  0  0  0  0  0  0  0  0
   11.7617  -16.6611   29.6828 O   0  0  0  0  0  0  0  0  0  0  0  0
   10.0279  -17.6921   28.6840 O   0  0  0  0  0  0  0  0  0  0  0  0
  2  1  1  0
  3  2  2  0
  4  2  1  0
  5  6  1  6
  5  4  1  0
  7  5  1  0
  8  7  2  0
  9  7  1  0
 10  9  1  0
 11 10  1  0
 11 17  1  0
 12 11  2  0
 14 13  1  6
 14 16  1  0
 15 14  1  0
 16 17  1  6
 16 18  1  0
 18 20  2  0
 18 19  1  0
M  END
$$$$
