NGT.pdb
     RDKit          3D

 20 19  0  0  1  0  0  0  0  0999 V2000
    8.8667  -12.3284   18.3504 N   0  0  0  0  0  0  0  0  0  0  0  0
    7.9083  -13.1913   18.9306 C   0  0  0  0  0  0  0  0  0  0  0  0
    6.9555  -13.5696   18.2018 O   0  0  0  0  0  0  0  0  0  0  0  0
    8.0359  -13.6317   20.3652 C   0  0  0  0  0  0  0  0  0  0  0  0
    8.2107  -15.1552   20.4100 C   0  0  2  0  0  0  0  0  0  0  0  0
    6.8958  -15.7136   20.1576 N   0  0  0  0  0  0  0  0  0  0  0  0
    8.6463  -15.4670   21.8186 C   0  0  0  0  0  0  0  0  0  0  0  0
    9.8457  -15.3010   22.1828 O   0  0  0  0  0  0  0  0  0  0  0  0
    7.7352  -15.9548   22.7824 N   0  0  0  0  0  0  0  0  0  0  0  0
    8.2139  -16.4514   24.0527 C   0  0  0  0  0  0  0  0  0  0  0  0
    8.9491  -15.4544   24.8250 C   0  0  0  0  0  0  0  0  0  0  0  0
    9.4058  -14.4373   24.2697 O   0  0  0  0  0  0  0  0  0  0  0  0
    8.7873  -12.6028   26.2991 C   0  0  0  0  0  0  0  0  0  0  0  0
    9.1178  -13.4974   27.4316 C   0  0  1  0  0  0  0  0  0  0  0  0
    7.9741  -13.9179   28.1177 O   0  0  0  0  0  0  0  0  0  0  0  0
    9.8932  -14.7309   27.0483 C   0  0  2  0  0  0  0  0  0  0  0  0
    9.1550  -15.6241   26.2099 N   0  0  0  0  0  0  0  0  0  0  0  0
   10.4657  -15.4307   28.2134 C   0  0  0  0  0  0  0  0  0  0  0  0
   11.4103  -14.8682   29.0490 O   0  0  0  0  0  0  0  0  0  0  0  0
   10.0863  -16.5946   28.4718 O   0  0  0  0  0  0  0  0  0  0  0  0
  2  1  1  0
  3  2  2  0
  4  2  1  0
  5  6  1  1
  5  4  1  0
  7  5  1  0
  8  7  2  0
  9  7  1  0
 10  9  1  0
 11 10  1  0
 11 17  1  0
 12 11  2  0
 14 13  1  6
 14 16  1  0
 15 14  1  0
 16 17  1  1
 16 18  1  0
 18 20  2  0
 18 19  1  0
M  END
$$$$
