NGT.pdb
     RDKit          3D

 20 19  0  0  1  0  0  0  0  0999 V2000
    7.5233  -14.4557   15.6129 N   0  0  0  0  0  0  0  0  0  0  0  0
    8.3101  -13.8801   16.6373 C   0  0  0  0  0  0  0  0  0  0  0  0
    9.5121  -13.6250   16.3681 O   0  0  0  0  0  0  0  0  0  0  0  0
    7.7194  -13.5895   17.9919 C   0  0  0  0  0  0  0  0  0  0  0  0
    8.5126  -14.3526   19.0607 C   0  0  2  0  0  0  0  0  0  0  0  0
    8.3323  -15.7603   18.7598 N   0  0  0  0  0  0  0  0  0  0  0  0
    7.8498  -14.0120   20.3706 C   0  0  0  0  0  0  0  0  0  0  0  0
    7.9369  -12.8508   20.8636 O   0  0  0  0  0  0  0  0  0  0  0  0
    7.1088  -14.9727   21.0951 N   0  0  0  0  0  0  0  0  0  0  0  0
    6.4655  -14.6116   22.3381 C   0  0  0  0  0  0  0  0  0  0  0  0
    7.4028  -14.4105   23.4390 C   0  0  0  0  0  0  0  0  0  0  0  0
    8.6251  -14.5748   23.2647 O   0  0  0  0  0  0  0  0  0  0  0  0
    7.0271  -11.3094   26.0899 C   0  0  0  0  0  0  0  0  0  0  0  0
    7.1838  -12.6385   26.7233 C   0  0  1  0  0  0  0  0  0  0  0  0
    5.9684  -13.1359   27.2039 O   0  0  0  0  0  0  0  0  0  0  0  0
    7.7796  -13.6922   25.8264 C   0  0  2  0  0  0  0  0  0  0  0  0
    6.9428  -14.0278   24.7161 N   0  0  0  0  0  0  0  0  0  0  0  0
    8.2078  -14.8950   26.5646 C   0  0  0  0  0  0  0  0  0  0  0  0
    7.7219  -16.1607   26.3023 O   0  0  0  0  0  0  0  0  0  0  0  0
    9.0544  -14.7796   27.4785 O   0  0  0  0  0  0  0  0  0  0  0  0
  2  1  1  0
  3  2  2  0
  4  2  1  0
  5  6  1  6
  5  4  1  0
  7  5  1  0
  8  7  2  0
  9  7  1  0
 10  9  1  0
 11 10  1  0
 11 17  1  0
 12 11  2  0
 14 13  1  6
 14 16  1  0
 15 14  1  0
 16 17  1  6
 16 18  1  0
 18 20  2  0
 18 19  1  0
M  END
$$$$
