NGT.pdb
     RDKit          3D

 20 19  0  0  1  0  0  0  0  0999 V2000
   12.9164  -19.6929   15.1451 N   0  0  0  0  0  0  0  0  0  0  0  0
   12.7393  -18.3904   14.6237 C   0  0  0  0  0  0  0  0  0  0  0  0
   13.3755  -18.0947   13.5796 O   0  0  0  0  0  0  0  0  0  0  0  0
   11.8223  -17.4067   15.3018 C   0  0  0  0  0  0  0  0  0  0  0  0
   11.2057  -18.0665   16.5421 C   0  0  2  0  0  0  0  0  0  0  0  0
    9.8145  -17.6559   16.5604 N   0  0  0  0  0  0  0  0  0  0  0  0
   11.9386  -17.4727   17.7176 C   0  0  0  0  0  0  0  0  0  0  0  0
   13.1995  -17.5263   17.7954 O   0  0  0  0  0  0  0  0  0  0  0  0
   11.2479  -16.8361   18.7733 N   0  0  0  0  0  0  0  0  0  0  0  0
   11.9673  -16.3621   19.9340 C   0  0  0  0  0  0  0  0  0  0  0  0
   11.1111  -15.7098   20.9202 C   0  0  0  0  0  0  0  0  0  0  0  0
   11.5879  -15.2950   21.9935 O   0  0  0  0  0  0  0  0  0  0  0  0
    7.2329  -12.7096   20.4678 C   0  0  0  0  0  0  0  0  0  0  0  0
    8.1005  -13.8256   20.0272 C   0  0  1  0  0  0  0  0  0  0  0  0
    8.9569  -13.4447   18.9893 O   0  0  0  0  0  0  0  0  0  0  0  0
    8.9509  -14.4243   21.1172 C   0  0  2  0  0  0  0  0  0  0  0  0
    9.7327  -15.5379   20.6762 N   0  0  0  0  0  0  0  0  0  0  0  0
    8.1780  -14.7518   22.3298 C   0  0  0  0  0  0  0  0  0  0  0  0
    7.4654  -13.8155   23.0527 O   0  0  0  0  0  0  0  0  0  0  0  0
    8.1566  -15.9343   22.7377 O   0  0  0  0  0  0  0  0  0  0  0  0
  2  1  1  0
  3  2  2  0
  4  2  1  0
  5  6  1  1
  5  4  1  0
  7  5  1  0
  8  7  2  0
  9  7  1  0
 10  9  1  0
 11 10  1  0
 11 17  1  0
 12 11  2  0
 14 13  1  1
 14 16  1  0
 15 14  1  0
 16 17  1  6
 16 18  1  0
 18 20  2  0
 18 19  1  0
M  END
$$$$
