NGT.pdb
     RDKit          3D

 20 19  0  0  1  0  0  0  0  0999 V2000
    9.2158  -19.4489   17.7932 N   0  0  0  0  0  0  0  0  0  0  0  0
    9.0215  -19.1667   19.1652 C   0  0  0  0  0  0  0  0  0  0  0  0
    9.9318  -19.5142   19.9608 O   0  0  0  0  0  0  0  0  0  0  0  0
    7.7699  -18.4772   19.6408 C   0  0  0  0  0  0  0  0  0  0  0  0
    7.9801  -16.9585   19.5848 C   0  0  2  0  0  0  0  0  0  0  0  0
    9.3946  -16.7441   19.8246 N   0  0  0  0  0  0  0  0  0  0  0  0
    7.1689  -16.3998   20.7255 C   0  0  0  0  0  0  0  0  0  0  0  0
    5.9113  -16.5283   20.7565 O   0  0  0  0  0  0  0  0  0  0  0  0
    7.7796  -15.7137   21.7994 N   0  0  0  0  0  0  0  0  0  0  0  0
    6.9709  -15.1281   22.8446 C   0  0  0  0  0  0  0  0  0  0  0  0
    7.7566  -14.5578   23.9347 C   0  0  0  0  0  0  0  0  0  0  0  0
    9.0013  -14.5877   23.8980 O   0  0  0  0  0  0  0  0  0  0  0  0
    6.6938  -11.0473   25.9307 C   0  0  0  0  0  0  0  0  0  0  0  0
    6.9551  -12.2341   26.7766 C   0  0  1  0  0  0  0  0  0  0  0  0
    5.7711  -12.8410   27.2073 O   0  0  0  0  0  0  0  0  0  0  0  0
    7.7944  -13.2982   26.1187 C   0  0  2  0  0  0  0  0  0  0  0  0
    7.1226  -13.9643   25.0460 N   0  0  0  0  0  0  0  0  0  0  0  0
    8.3578  -14.2597   27.0847 C   0  0  0  0  0  0  0  0  0  0  0  0
    9.2318  -13.9011   28.0919 O   0  0  0  0  0  0  0  0  0  0  0  0
    8.0372  -15.4661   27.0009 O   0  0  0  0  0  0  0  0  0  0  0  0
  2  1  1  0
  3  2  2  0
  4  2  1  0
  5  6  1  1
  5  4  1  0
  7  5  1  0
  8  7  2  0
  9  7  1  0
 10  9  1  0
 11 10  1  0
 11 17  1  0
 12 11  2  0
 14 13  1  6
 14 16  1  0
 15 14  1  0
 16 17  1  6
 16 18  1  0
 18 20  2  0
 18 19  1  0
M  END
$$$$
