NGT.pdb
     RDKit          3D

 20 19  0  0  1  0  0  0  0  0999 V2000
   10.8069  -19.0641   18.0850 N   0  0  0  0  0  0  0  0  0  0  0  0
   11.0677  -18.0972   19.0836 C   0  0  0  0  0  0  0  0  0  0  0  0
   12.2650  -17.9387   19.4353 O   0  0  0  0  0  0  0  0  0  0  0  0
    9.9470  -17.2966   19.6928 C   0  0  0  0  0  0  0  0  0  0  0  0
   10.1724  -17.1868   21.2063 C   0  0  2  0  0  0  0  0  0  0  0  0
    9.8290  -18.4853   21.7544 N   0  0  0  0  0  0  0  0  0  0  0  0
    9.1922  -16.1458   21.6826 C   0  0  0  0  0  0  0  0  0  0  0  0
    9.2520  -14.9536   21.2654 O   0  0  0  0  0  0  0  0  0  0  0  0
    8.1730  -16.4605   22.6097 N   0  0  0  0  0  0  0  0  0  0  0  0
    7.3432  -15.4147   23.1638 C   0  0  0  0  0  0  0  0  0  0  0  0
    7.9530  -14.7322   24.3010 C   0  0  0  0  0  0  0  0  0  0  0  0
    9.1666  -14.8722   24.5441 O   0  0  0  0  0  0  0  0  0  0  0  0
    6.4041  -11.0108   25.9038 C   0  0  0  0  0  0  0  0  0  0  0  0
    6.6949  -12.1573   26.7945 C   0  0  1  0  0  0  0  0  0  0  0  0
    5.5384  -12.8713   27.1235 O   0  0  0  0  0  0  0  0  0  0  0  0
    7.6912  -13.1424   26.2406 C   0  0  2  0  0  0  0  0  0  0  0  0
    7.1814  -13.9043   25.1427 N   0  0  0  0  0  0  0  0  0  0  0  0
    8.2723  -14.0125   27.2799 C   0  0  0  0  0  0  0  0  0  0  0  0
    8.9562  -13.5312   28.3787 O   0  0  0  0  0  0  0  0  0  0  0  0
    8.1479  -15.2530   27.1752 O   0  0  0  0  0  0  0  0  0  0  0  0
  2  1  1  0
  3  2  2  0
  4  2  1  0
  5  6  1  1
  5  4  1  0
  7  5  1  0
  8  7  2  0
  9  7  1  0
 10  9  1  0
 11 10  1  0
 11 17  1  0
 12 11  2  0
 14 13  1  6
 14 16  1  0
 15 14  1  0
 16 17  1  6
 16 18  1  0
 18 20  2  0
 18 19  1  0
M  END
$$$$
