FLK.pdb
     RDKit          3D

 29 29  0  0  1  0  0  0  0  0999 V2000
   15.7534  -19.6351    2.1030 N   0  0  0  0  0  0  0  0  0  0  0  0
   15.1815  -18.6698    3.0176 C   0  0  1  0  0  0  0  0  0  0  0  0
   14.1642  -19.4287    3.8608 C   0  0  0  0  0  0  0  0  0  0  0  0
   13.2911  -18.4186    4.5059 C   0  0  0  0  0  0  0  0  0  0  0  0
   13.5711  -17.9338    5.7530 C   0  0  0  0  0  0  0  0  0  0  0  0
   12.8001  -16.9938    6.3932 C   0  0  0  0  0  0  0  0  0  0  0  0
   11.6916  -16.5281    5.7277 C   0  0  0  0  0  0  0  0  0  0  0  0
   11.3679  -16.9839    4.4742 C   0  0  0  0  0  0  0  0  0  0  0  0
   12.1652  -17.9384    3.8428 C   0  0  0  0  0  0  0  0  0  0  0  0
   16.1498  -17.9491    3.8372 C   0  0  0  0  0  0  0  0  0  0  0  0
   17.1435  -18.5748    4.2713 O   0  0  0  0  0  0  0  0  0  0  0  0
   17.6446  -12.7836    2.6518 C   0  0  0  0  0  0  0  0  0  0  0  0
   17.7389  -14.2326    3.0954 C   0  0  1  0  0  0  0  0  0  0  0  0
   19.0931  -14.8356    2.9094 C   0  0  0  0  0  0  0  0  0  0  0  0
   17.1127  -14.4499    4.4222 C   0  0  0  0  0  0  0  0  0  0  0  0
   17.0672  -15.8712    4.9096 C   0  0  2  0  0  0  0  0  0  0  0  0
   16.0362  -16.5728    4.1760 N   0  0  0  0  0  0  0  0  0  0  0  0
   16.6607  -15.8883    6.3652 C   0  0  0  0  0  0  0  0  0  0  0  0
   15.4479  -15.8542    6.6981 O   0  0  0  0  0  0  0  0  0  0  0  0
   17.6039  -15.9422    7.4009 N   0  0  0  0  0  0  0  0  0  0  0  0
   17.1663  -15.8748    8.8350 C   0  0  1  0  0  0  0  0  0  0  0  0
   17.1228  -17.2433    9.3612 C   0  0  0  0  0  0  0  0  0  0  0  0
   16.6436  -17.4711   10.7239 C   0  0  0  0  0  0  0  0  0  0  0  0
   16.6053  -18.7770   11.3833 C   0  0  0  0  0  0  0  0  0  0  0  0
   16.0330  -18.8134   12.7742 C   0  0  0  0  0  0  0  0  0  0  0  0
   15.8700  -20.1330   13.3013 N   0  0  0  0  0  0  0  0  0  0  0  0
   18.1380  -14.9853    9.4628 C   0  0  0  0  0  0  0  0  0  0  0  0
   19.2007  -14.6971    8.7648 O   0  0  0  0  0  0  0  0  0  0  0  0
   18.1122  -14.3856   10.6868 O   0  0  0  0  0  0  0  0  0  0  0  0
  2  1  1  6
  3  2  1  0
  3  4  1  0
  4  5  2  0
  5  6  1  0
  7  6  2  0
  8  7  1  0
  9  4  1  0
  9  8  2  0
 10 17  1  0
 10  2  1  0
 11 10  2  0
 13 12  1  1
 14 13  1  0
 16 15  1  6
 15 13  1  0
 16 17  1  0
 18 16  1  0
 19 18  2  0
 20 18  1  0
 21 20  1  0
 21 22  1  1
 22 23  1  0
 23 24  1  0
 24 25  1  0
 26 25  1  0
 27 29  1  0
 27 21  1  0
 28 27  2  0
M  END
$$$$
