FLK.pdb
     RDKit          3D

 29 29  0  0  1  0  0  0  0  0999 V2000
   28.4339  -19.8784   -8.4697 N   0  0  0  0  0  0  0  0  0  0  0  0
   27.1759  -20.5875   -8.5703 C   0  0  1  0  0  0  0  0  0  0  0  0
   26.4710  -20.4018   -7.2323 C   0  0  0  0  0  0  0  0  0  0  0  0
   27.5099  -20.0412   -6.2376 C   0  0  0  0  0  0  0  0  0  0  0  0
   28.7975  -19.7865   -6.6196 C   0  0  0  0  0  0  0  0  0  0  0  0
   29.7964  -19.4423   -5.7410 C   0  0  0  0  0  0  0  0  0  0  0  0
   29.4634  -19.3548   -4.4106 C   0  0  0  0  0  0  0  0  0  0  0  0
   28.1847  -19.6013   -3.9772 C   0  0  0  0  0  0  0  0  0  0  0  0
   27.1861  -19.9489   -4.8869 C   0  0  0  0  0  0  0  0  0  0  0  0
   26.3355  -20.1938   -9.6961 C   0  0  0  0  0  0  0  0  0  0  0  0
   25.7216  -19.1049   -9.6272 O   0  0  0  0  0  0  0  0  0  0  0  0
   28.6686  -21.2554  -13.4044 C   0  0  0  0  0  0  0  0  0  0  0  0
   27.8309  -20.1599  -12.7693 C   0  0  1  0  0  0  0  0  0  0  0  0
   28.4343  -18.7973  -12.8767 C   0  0  0  0  0  0  0  0  0  0  0  0
   26.4006  -20.2637  -13.1474 C   0  0  0  0  0  0  0  0  0  0  0  0
   25.4311  -20.4891  -12.0208 C   0  0  2  0  0  0  0  0  0  0  0  0
   26.1685  -20.9729  -10.8738 N   0  0  0  0  0  0  0  0  0  0  0  0
   24.4571  -21.5775  -12.4090 C   0  0  0  0  0  0  0  0  0  0  0  0
   24.3728  -22.6388  -11.7386 O   0  0  0  0  0  0  0  0  0  0  0  0
   23.6115  -21.4580  -13.5207 N   0  0  0  0  0  0  0  0  0  0  0  0
   22.2467  -22.0825  -13.5113 C   0  0  1  0  0  0  0  0  0  0  0  0
   21.3187  -21.1362  -12.8831 C   0  0  0  0  0  0  0  0  0  0  0  0
   19.9035  -21.4879  -12.7732 C   0  0  0  0  0  0  0  0  0  0  0  0
   18.8578  -20.5831  -12.2941 C   0  0  0  0  0  0  0  0  0  0  0  0
   17.4465  -21.1031  -12.3333 C   0  0  0  0  0  0  0  0  0  0  0  0
   16.4740  -20.1833  -11.8293 N   0  0  0  0  0  0  0  0  0  0  0  0
   21.9856  -22.3896  -14.9139 C   0  0  0  0  0  0  0  0  0  0  0  0
   21.5104  -23.5757  -15.1724 O   0  0  0  0  0  0  0  0  0  0  0  0
   22.1545  -21.6175  -16.0247 O   0  0  0  0  0  0  0  0  0  0  0  0
  2  1  1  1
  3  2  1  0
  3  4  1  0
  4  5  2  0
  5  6  1  0
  7  6  2  0
  8  7  1  0
  9  4  1  0
  9  8  2  0
 10 17  1  0
 10  2  1  0
 11 10  2  0
 13 12  1  6
 14 13  1  0
 16 15  1  6
 15 13  1  0
 16 17  1  0
 18 16  1  0
 19 18  2  0
 20 18  1  0
 21 20  1  0
 21 22  1  6
 22 23  1  0
 23 24  1  0
 24 25  1  0
 26 25  1  0
 27 29  1  0
 27 21  1  0
 28 27  2  0
M  END
$$$$
