FLK.pdb
     RDKit          3D

 29 29  0  0  1  0  0  0  0  0999 V2000
   20.3673  -14.3762  -18.1751 N   0  0  0  0  0  0  0  0  0  0  0  0
   20.3302  -12.9320  -18.2668 C   0  0  1  0  0  0  0  0  0  0  0  0
   18.8596  -12.5465  -18.3684 C   0  0  0  0  0  0  0  0  0  0  0  0
   18.3496  -13.1018  -19.6452 C   0  0  0  0  0  0  0  0  0  0  0  0
   17.7021  -14.3051  -19.6853 C   0  0  0  0  0  0  0  0  0  0  0  0
   17.2047  -14.8618  -20.8388 C   0  0  0  0  0  0  0  0  0  0  0  0
   17.3776  -14.1559  -22.0051 C   0  0  0  0  0  0  0  0  0  0  0  0
   18.0212  -12.9437  -22.0170 C   0  0  0  0  0  0  0  0  0  0  0  0
   18.5180  -12.3970  -20.8338 C   0  0  0  0  0  0  0  0  0  0  0  0
   21.0117  -12.2286  -17.1854 C   0  0  0  0  0  0  0  0  0  0  0  0
   21.3186  -12.8739  -16.1573 O   0  0  0  0  0  0  0  0  0  0  0  0
   23.9459  -10.3631  -13.8122 C   0  0  0  0  0  0  0  0  0  0  0  0
   24.4918  -10.3027  -15.2278 C   0  0  1  0  0  0  0  0  0  0  0  0
   25.8932  -10.8038  -15.3580 C   0  0  0  0  0  0  0  0  0  0  0  0
   23.5235  -10.8295  -16.2201 C   0  0  0  0  0  0  0  0  0  0  0  0
   22.1493  -10.2205  -16.1940 C   0  0  2  0  0  0  0  0  0  0  0  0
   21.3519  -10.8485  -17.2250 N   0  0  0  0  0  0  0  0  0  0  0  0
   22.2454   -8.7534  -16.5443 C   0  0  0  0  0  0  0  0  0  0  0  0
   22.7070   -8.3828  -17.6544 O   0  0  0  0  0  0  0  0  0  0  0  0
   21.8298   -7.7482  -15.6600 N   0  0  0  0  0  0  0  0  0  0  0  0
   21.6830   -6.3308  -16.1315 C   0  0  1  0  0  0  0  0  0  0  0  0
   20.4473   -6.2392  -16.9166 C   0  0  0  0  0  0  0  0  0  0  0  0
   20.0086   -4.9347  -17.4108 C   0  0  0  0  0  0  0  0  0  0  0  0
   18.7704   -4.7024  -18.1554 C   0  0  0  0  0  0  0  0  0  0  0  0
   18.4221   -3.2695  -18.4541 C   0  0  0  0  0  0  0  0  0  0  0  0
   17.1025   -3.0886  -18.9751 N   0  0  0  0  0  0  0  0  0  0  0  0
   21.7138   -5.5419  -14.9042 C   0  0  0  0  0  0  0  0  0  0  0  0
   21.1774   -6.0859  -13.8478 O   0  0  0  0  0  0  0  0  0  0  0  0
   22.2309   -4.3017  -14.6741 O   0  0  0  0  0  0  0  0  0  0  0  0
  2  1  1  1
  3  2  1  0
  3  4  1  0
  4  5  2  0
  5  6  1  0
  7  6  2  0
  8  7  1  0
  9  4  1  0
  9  8  2  0
 10 17  1  0
 10  2  1  0
 11 10  2  0
 13 12  1  1
 14 13  1  0
 16 15  1  6
 15 13  1  0
 16 17  1  0
 18 16  1  0
 19 18  2  0
 20 18  1  0
 21 20  1  0
 21 22  1  1
 22 23  1  0
 23 24  1  0
 24 25  1  0
 26 25  1  0
 27 29  1  0
 27 21  1  0
 28 27  2  0
M  END
$$$$
