FLK.pdb
     RDKit          3D

 29 29  0  0  1  0  0  0  0  0999 V2000
   23.1819  -21.2585  -15.9642 N   0  0  0  0  0  0  0  0  0  0  0  0
   22.3697  -20.3199  -16.7090 C   0  0  1  0  0  0  0  0  0  0  0  0
   20.9912  -20.9555  -16.8399 C   0  0  0  0  0  0  0  0  0  0  0  0
   20.2149  -20.1233  -17.7904 C   0  0  0  0  0  0  0  0  0  0  0  0
   20.3068  -20.3182  -19.1403 C   0  0  0  0  0  0  0  0  0  0  0  0
   19.6057  -19.5807  -20.0637 C   0  0  0  0  0  0  0  0  0  0  0  0
   18.7724  -18.5984  -19.5847 C   0  0  0  0  0  0  0  0  0  0  0  0
   18.6459  -18.3638  -18.2383 C   0  0  0  0  0  0  0  0  0  0  0  0
   19.3671  -19.1251  -17.3185 C   0  0  0  0  0  0  0  0  0  0  0  0
   22.3065  -18.9763  -16.1437 C   0  0  0  0  0  0  0  0  0  0  0  0
   22.0538  -18.8563  -14.9234 O   0  0  0  0  0  0  0  0  0  0  0  0
   25.9986  -15.0302  -16.6282 C   0  0  0  0  0  0  0  0  0  0  0  0
   24.8536  -15.8089  -16.0051 C   0  0  1  0  0  0  0  0  0  0  0  0
   24.7386  -15.6361  -14.5256 C   0  0  0  0  0  0  0  0  0  0  0  0
   23.5938  -15.6548  -16.7725 C   0  0  0  0  0  0  0  0  0  0  0  0
   22.4244  -16.4721  -16.2990 C   0  0  2  0  0  0  0  0  0  0  0  0
   22.5152  -17.7873  -16.8951 N   0  0  0  0  0  0  0  0  0  0  0  0
   21.1423  -15.8489  -16.8012 C   0  0  0  0  0  0  0  0  0  0  0  0
   20.9252  -15.7211  -18.0339 O   0  0  0  0  0  0  0  0  0  0  0  0
   20.1463  -15.3893  -15.9284 N   0  0  0  0  0  0  0  0  0  0  0  0
   18.8521  -14.8503  -16.4644 C   0  0  1  0  0  0  0  0  0  0  0  0
   17.9115  -14.7314  -15.3452 C   0  0  0  0  0  0  0  0  0  0  0  0
   16.9833  -13.6021  -15.3074 C   0  0  0  0  0  0  0  0  0  0  0  0
   15.5344  -13.7233  -15.1413 C   0  0  0  0  0  0  0  0  0  0  0  0
   14.7348  -12.4534  -15.2499 C   0  0  0  0  0  0  0  0  0  0  0  0
   13.3681  -12.5913  -14.8517 N   0  0  0  0  0  0  0  0  0  0  0  0
   19.2284  -13.5976  -17.1115 C   0  0  0  0  0  0  0  0  0  0  0  0
   20.1621  -12.8983  -16.5296 O   0  0  0  0  0  0  0  0  0  0  0  0
   18.7569  -13.0285  -18.2571 O   0  0  0  0  0  0  0  0  0  0  0  0
  2  1  1  1
  3  2  1  0
  3  4  1  0
  4  5  2  0
  5  6  1  0
  7  6  2  0
  8  7  1  0
  9  4  1  0
  9  8  2  0
 10 17  1  0
 10  2  1  0
 11 10  2  0
 13 12  1  6
 14 13  1  0
 16 15  1  6
 15 13  1  0
 16 17  1  0
 18 16  1  0
 19 18  2  0
 20 18  1  0
 21 20  1  0
 21 22  1  1
 22 23  1  0
 23 24  1  0
 24 25  1  0
 26 25  1  0
 27 29  1  0
 27 21  1  0
 28 27  2  0
M  END
$$$$
