FLK.pdb
     RDKit          3D

 29 29  0  0  1  0  0  0  0  0999 V2000
   20.5448  -11.4953  -20.3112 N   0  0  0  0  0  0  0  0  0  0  0  0
   19.6009  -11.1909  -19.2568 C   0  0  1  0  0  0  0  0  0  0  0  0
   18.7905  -12.4606  -19.0273 C   0  0  0  0  0  0  0  0  0  0  0  0
   18.2096  -12.8503  -20.3348 C   0  0  0  0  0  0  0  0  0  0  0  0
   17.1744  -12.1488  -20.8867 C   0  0  0  0  0  0  0  0  0  0  0  0
   16.6040  -12.4626  -22.0968 C   0  0  0  0  0  0  0  0  0  0  0  0
   17.1155  -13.5438  -22.7735 C   0  0  0  0  0  0  0  0  0  0  0  0
   18.1542  -14.2803  -22.2610 C   0  0  0  0  0  0  0  0  0  0  0  0
   18.7184  -13.9434  -21.0307 C   0  0  0  0  0  0  0  0  0  0  0  0
   20.1962  -10.6859  -18.0242 C   0  0  0  0  0  0  0  0  0  0  0  0
   19.4487  -10.4935  -17.0385 O   0  0  0  0  0  0  0  0  0  0  0  0
   23.5501  -10.3356  -14.0111 C   0  0  0  0  0  0  0  0  0  0  0  0
   24.2963  -10.0245  -15.2963 C   0  0  1  0  0  0  0  0  0  0  0  0
   25.7396  -10.4092  -15.2666 C   0  0  0  0  0  0  0  0  0  0  0  0
   23.5388  -10.4538  -16.4970 C   0  0  0  0  0  0  0  0  0  0  0  0
   22.1357   -9.9284  -16.6191 C   0  0  2  0  0  0  0  0  0  0  0  0
   21.5799  -10.3969  -17.8701 N   0  0  0  0  0  0  0  0  0  0  0  0
   22.1710   -8.4192  -16.6909 C   0  0  0  0  0  0  0  0  0  0  0  0
   22.8779   -7.8291  -17.5482 O   0  0  0  0  0  0  0  0  0  0  0  0
   21.4269   -7.6148  -15.8166 N   0  0  0  0  0  0  0  0  0  0  0  0
   21.4353   -6.1208  -15.9614 C   0  0  1  0  0  0  0  0  0  0  0  0
   20.0434   -5.6636  -16.0321 C   0  0  0  0  0  0  0  0  0  0  0  0
   19.7575   -4.2304  -15.9805 C   0  0  0  0  0  0  0  0  0  0  0  0
   18.4252   -3.6436  -16.1299 C   0  0  0  0  0  0  0  0  0  0  0  0
   18.3505   -2.1413  -16.1663 C   0  0  0  0  0  0  0  0  0  0  0  0
   17.0251   -1.6291  -16.3291 N   0  0  0  0  0  0  0  0  0  0  0  0
   22.1973   -5.6552  -14.8072 C   0  0  0  0  0  0  0  0  0  0  0  0
   22.8628   -4.5443  -14.9575 O   0  0  0  0  0  0  0  0  0  0  0  0
   22.3244   -6.2013  -13.5646 O   0  0  0  0  0  0  0  0  0  0  0  0
  2  1  1  6
  3  2  1  0
  3  4  1  0
  4  5  2  0
  5  6  1  0
  7  6  2  0
  8  7  1  0
  9  4  1  0
  9  8  2  0
 10 17  1  0
 10  2  1  0
 11 10  2  0
 13 12  1  1
 14 13  1  0
 16 15  1  6
 15 13  1  0
 16 17  1  0
 18 16  1  0
 19 18  2  0
 20 18  1  0
 21 20  1  0
 21 22  1  1
 22 23  1  0
 23 24  1  0
 24 25  1  0
 26 25  1  0
 27 29  1  0
 27 21  1  0
 28 27  2  0
M  END
$$$$
