FLK.pdb
     RDKit          3D

 29 29  0  0  1  0  0  0  0  0999 V2000
   24.0524  -19.8673   -9.2549 N   0  0  0  0  0  0  0  0  0  0  0  0
   23.6817  -20.6616  -10.4069 C   0  0  1  0  0  0  0  0  0  0  0  0
   22.1615  -20.6064  -10.4943 C   0  0  0  0  0  0  0  0  0  0  0  0
   21.6296  -21.3177   -9.3070 C   0  0  0  0  0  0  0  0  0  0  0  0
   22.4510  -21.6966   -8.2820 C   0  0  0  0  0  0  0  0  0  0  0  0
   22.0097  -22.3514   -7.1575 C   0  0  0  0  0  0  0  0  0  0  0  0
   20.6668  -22.6319   -7.0774 C   0  0  0  0  0  0  0  0  0  0  0  0
   19.8015  -22.2725   -8.0803 C   0  0  0  0  0  0  0  0  0  0  0  0
   20.2714  -21.6079   -9.2131 C   0  0  0  0  0  0  0  0  0  0  0  0
   24.3211  -20.2679  -11.6579 C   0  0  0  0  0  0  0  0  0  0  0  0
   24.1021  -19.1176  -12.1009 O   0  0  0  0  0  0  0  0  0  0  0  0
   29.6292  -21.1547  -12.8585 C   0  0  0  0  0  0  0  0  0  0  0  0
   28.2760  -20.4663  -12.8404 C   0  0  1  0  0  0  0  0  0  0  0  0
   28.3387  -19.0006  -13.1232 C   0  0  0  0  0  0  0  0  0  0  0  0
   27.2550  -21.2269  -13.6011 C   0  0  0  0  0  0  0  0  0  0  0  0
   25.8649  -20.6547  -13.6011 C   0  0  2  0  0  0  0  0  0  0  0  0
   25.1826  -21.1126  -12.4103 N   0  0  0  0  0  0  0  0  0  0  0  0
   25.0992  -21.2002  -14.7845 C   0  0  0  0  0  0  0  0  0  0  0  0
   24.8495  -22.4294  -14.8819 O   0  0  0  0  0  0  0  0  0  0  0  0
   24.6364  -20.3728  -15.8171 N   0  0  0  0  0  0  0  0  0  0  0  0
   23.7859  -20.9329  -16.9198 C   0  0  1  0  0  0  0  0  0  0  0  0
   22.5629  -20.1274  -17.0037 C   0  0  0  0  0  0  0  0  0  0  0  0
   21.5480  -20.4690  -17.9995 C   0  0  0  0  0  0  0  0  0  0  0  0
   20.3436  -19.6802  -18.2620 C   0  0  0  0  0  0  0  0  0  0  0  0
   19.3972  -20.2199  -19.2996 C   0  0  0  0  0  0  0  0  0  0  0  0
   18.2883  -19.3605  -19.5779 N   0  0  0  0  0  0  0  0  0  0  0  0
   24.6524  -20.8933  -18.0934 C   0  0  0  0  0  0  0  0  0  0  0  0
   25.5030  -19.9075  -18.1571 O   0  0  0  0  0  0  0  0  0  0  0  0
   24.7247  -21.7435  -19.1566 O   0  0  0  0  0  0  0  0  0  0  0  0
  2  1  1  1
  3  2  1  0
  3  4  1  0
  4  5  2  0
  5  6  1  0
  7  6  2  0
  8  7  1  0
  9  4  1  0
  9  8  2  0
 10 17  1  0
 10  2  1  0
 11 10  2  0
 13 12  1  6
 14 13  1  0
 16 15  1  1
 15 13  1  0
 16 17  1  0
 18 16  1  0
 19 18  2  0
 20 18  1  0
 21 20  1  0
 21 22  1  6
 22 23  1  0
 23 24  1  0
 24 25  1  0
 26 25  1  0
 27 29  1  0
 27 21  1  0
 28 27  2  0
M  END
$$$$
