FLK.pdb
     RDKit          3D

 29 29  0  0  1  0  0  0  0  0999 V2000
   19.9954  -12.0606  -18.8894 N   0  0  0  0  0  0  0  0  0  0  0  0
   20.9614  -10.9982  -19.0729 C   0  0  1  0  0  0  0  0  0  0  0  0
   20.5650  -10.2750  -20.3541 C   0  0  0  0  0  0  0  0  0  0  0  0
   20.7971  -11.2158  -21.4765 C   0  0  0  0  0  0  0  0  0  0  0  0
   22.0536  -11.4349  -21.9681 C   0  0  0  0  0  0  0  0  0  0  0  0
   22.3250  -12.2996  -23.0009 C   0  0  0  0  0  0  0  0  0  0  0  0
   21.2626  -12.9709  -23.5569 C   0  0  0  0  0  0  0  0  0  0  0  0
   19.9822  -12.7849  -23.0988 C   0  0  0  0  0  0  0  0  0  0  0  0
   19.7297  -11.9022  -22.0487 C   0  0  0  0  0  0  0  0  0  0  0  0
   21.0951  -10.0854  -17.9426 C   0  0  0  0  0  0  0  0  0  0  0  0
   20.0626   -9.7688  -17.3092 O   0  0  0  0  0  0  0  0  0  0  0  0
   25.5869  -10.0603  -14.6265 C   0  0  0  0  0  0  0  0  0  0  0  0
   24.1213   -9.9831  -15.0155 C   0  0  1  0  0  0  0  0  0  0  0  0
   23.1808  -10.2843  -13.8945 C   0  0  0  0  0  0  0  0  0  0  0  0
   23.8182   -8.7623  -15.8015 C   0  0  0  0  0  0  0  0  0  0  0  0
   22.4258   -8.6607  -16.3587 C   0  0  2  0  0  0  0  0  0  0  0  0
   22.3308   -9.5294  -17.5118 N   0  0  0  0  0  0  0  0  0  0  0  0
   22.1843   -7.2514  -16.8482 C   0  0  0  0  0  0  0  0  0  0  0  0
   22.6420   -6.8639  -17.9543 O   0  0  0  0  0  0  0  0  0  0  0  0
   21.4479   -6.3203  -16.1026 N   0  0  0  0  0  0  0  0  0  0  0  0
   21.0301   -5.0141  -16.7128 C   0  0  1  0  0  0  0  0  0  0  0  0
   20.2782   -5.3054  -17.9382 C   0  0  0  0  0  0  0  0  0  0  0  0
   19.5940   -4.2162  -18.6338 C   0  0  0  0  0  0  0  0  0  0  0  0
   18.9660   -4.3366  -19.9502 C   0  0  0  0  0  0  0  0  0  0  0  0
   18.4115   -3.0734  -20.5505 C   0  0  0  0  0  0  0  0  0  0  0  0
   17.8745   -3.2419  -21.8654 N   0  0  0  0  0  0  0  0  0  0  0  0
   20.2799   -4.3491  -15.6523 C   0  0  0  0  0  0  0  0  0  0  0  0
   20.0190   -3.0840  -15.8279 O   0  0  0  0  0  0  0  0  0  0  0  0
   19.7889   -4.8483  -14.4826 O   0  0  0  0  0  0  0  0  0  0  0  0
  2  1  1  1
  3  2  1  0
  3  4  1  0
  4  5  2  0
  5  6  1  0
  7  6  2  0
  8  7  1  0
  9  4  1  0
  9  8  2  0
 10 17  1  0
 10  2  1  0
 11 10  2  0
 13 12  1  1
 14 13  1  0
 16 15  1  6
 15 13  1  0
 16 17  1  0
 18 16  1  0
 19 18  2  0
 20 18  1  0
 21 20  1  0
 21 22  1  6
 22 23  1  0
 23 24  1  0
 24 25  1  0
 26 25  1  0
 27 29  1  0
 27 21  1  0
 28 27  2  0
M  END
$$$$
