FLK.pdb
     RDKit          3D

 29 29  0  0  1  0  0  0  0  0999 V2000
   17.5344  -10.6607  -15.4987 N   0  0  0  0  0  0  0  0  0  0  0  0
   17.2494   -9.2718  -15.2066 C   0  0  1  0  0  0  0  0  0  0  0  0
   15.7712   -9.0641  -15.5121 C   0  0  0  0  0  0  0  0  0  0  0  0
   15.6516   -8.8646  -16.9766 C   0  0  0  0  0  0  0  0  0  0  0  0
   15.1117   -9.8292  -17.7806 C   0  0  0  0  0  0  0  0  0  0  0  0
   14.9717   -9.6935  -19.1408 C   0  0  0  0  0  0  0  0  0  0  0  0
   15.4040   -8.5172  -19.7048 C   0  0  0  0  0  0  0  0  0  0  0  0
   15.9534   -7.5186  -18.9401 C   0  0  0  0  0  0  0  0  0  0  0  0
   16.0856   -7.6778  -17.5607 C   0  0  0  0  0  0  0  0  0  0  0  0
   17.5997   -8.8419  -13.8571 C   0  0  0  0  0  0  0  0  0  0  0  0
   17.3036   -9.5914  -12.8990 O   0  0  0  0  0  0  0  0  0  0  0  0
   22.0921   -5.6769  -13.0732 C   0  0  0  0  0  0  0  0  0  0  0  0
   21.0725   -6.7862  -12.8852 C   0  0  1  0  0  0  0  0  0  0  0  0
   21.6293   -8.0191  -12.2513 C   0  0  0  0  0  0  0  0  0  0  0  0
   19.8022   -6.2819  -12.3091 C   0  0  0  0  0  0  0  0  0  0  0  0
   18.6759   -7.2732  -12.2168 C   0  0  2  0  0  0  0  0  0  0  0  0
   18.2604   -7.6186  -13.5590 N   0  0  0  0  0  0  0  0  0  0  0  0
   17.4902   -6.6221  -11.5428 C   0  0  0  0  0  0  0  0  0  0  0  0
   16.8159   -5.7388  -12.1327 O   0  0  0  0  0  0  0  0  0  0  0  0
   17.0900   -6.9672  -10.2444 N   0  0  0  0  0  0  0  0  0  0  0  0
   15.8433   -6.3800   -9.6494 C   0  0  1  0  0  0  0  0  0  0  0  0
   15.4017   -7.2594   -8.5616 C   0  0  0  0  0  0  0  0  0  0  0  0
   14.2135   -6.9000   -7.7886 C   0  0  0  0  0  0  0  0  0  0  0  0
   13.0500   -7.7679   -7.6027 C   0  0  0  0  0  0  0  0  0  0  0  0
   11.9201   -7.2132   -6.7784 C   0  0  0  0  0  0  0  0  0  0  0  0
   10.7518   -8.0381   -6.7639 N   0  0  0  0  0  0  0  0  0  0  0  0
   16.2381   -5.0320   -9.2536 C   0  0  0  0  0  0  0  0  0  0  0  0
   17.4818   -4.8692   -8.8987 O   0  0  0  0  0  0  0  0  0  0  0  0
   15.5027   -3.8853   -9.2001 O   0  0  0  0  0  0  0  0  0  0  0  0
  2  1  1  1
  3  2  1  0
  3  4  1  0
  4  5  2  0
  5  6  1  0
  7  6  2  0
  8  7  1  0
  9  4  1  0
  9  8  2  0
 10 17  1  0
 10  2  1  0
 11 10  2  0
 13 12  1  1
 14 13  1  0
 16 15  1  6
 15 13  1  0
 16 17  1  0
 18 16  1  0
 19 18  2  0
 20 18  1  0
 21 20  1  0
 21 22  1  1
 22 23  1  0
 23 24  1  0
 24 25  1  0
 26 25  1  0
 27 29  1  0
 27 21  1  0
 28 27  2  0
M  END
$$$$
