FLK.pdb
     RDKit          3D

 29 29  0  0  1  0  0  0  0  0999 V2000
   27.3343  -20.2297  -17.5570 N   0  0  0  0  0  0  0  0  0  0  0  0
   26.4474  -19.4817  -16.6913 C   0  0  1  0  0  0  0  0  0  0  0  0
   25.3690  -18.8900  -17.5905 C   0  0  0  0  0  0  0  0  0  0  0  0
   26.0110  -17.8272  -18.4012 C   0  0  0  0  0  0  0  0  0  0  0  0
   26.1465  -16.5548  -17.9204 C   0  0  0  0  0  0  0  0  0  0  0  0
   26.7383  -15.5352  -18.6263 C   0  0  0  0  0  0  0  0  0  0  0  0
   27.2132  -15.8302  -19.8817 C   0  0  0  0  0  0  0  0  0  0  0  0
   27.1007  -17.0925  -20.4089 C   0  0  0  0  0  0  0  0  0  0  0  0
   26.4964  -18.1127  -19.6743 C   0  0  0  0  0  0  0  0  0  0  0  0
   25.8839  -20.2428  -15.5813 C   0  0  0  0  0  0  0  0  0  0  0  0
   25.3657  -21.3558  -15.8263 O   0  0  0  0  0  0  0  0  0  0  0  0
   25.4541  -22.1399  -10.5387 C   0  0  0  0  0  0  0  0  0  0  0  0
   25.2302  -20.6408  -10.6275 C   0  0  1  0  0  0  0  0  0  0  0  0
   25.5136  -19.9101   -9.3556 C   0  0  0  0  0  0  0  0  0  0  0  0
   25.8316  -20.0605  -11.8527 C   0  0  0  0  0  0  0  0  0  0  0  0
   25.3013  -20.5773  -13.1609 C   0  0  2  0  0  0  0  0  0  0  0  0
   25.8863  -19.7983  -14.2306 N   0  0  0  0  0  0  0  0  0  0  0  0
   23.8078  -20.3530  -13.2191 C   0  0  0  0  0  0  0  0  0  0  0  0
   23.3309  -19.1909  -13.2903 O   0  0  0  0  0  0  0  0  0  0  0  0
   22.8940  -21.4158  -13.1968 N   0  0  0  0  0  0  0  0  0  0  0  0
   21.4166  -21.1517  -13.2166 C   0  0  1  0  0  0  0  0  0  0  0  0
   20.7810  -22.1884  -14.0370 C   0  0  0  0  0  0  0  0  0  0  0  0
   19.3298  -22.1693  -14.2162 C   0  0  0  0  0  0  0  0  0  0  0  0
   18.3760  -22.8504  -13.3399 C   0  0  0  0  0  0  0  0  0  0  0  0
   16.9193  -22.7063  -13.6877 C   0  0  0  0  0  0  0  0  0  0  0  0
   16.2151  -23.9487  -13.7674 N   0  0  0  0  0  0  0  0  0  0  0  0
   21.0380  -21.1385  -11.8073 C   0  0  0  0  0  0  0  0  0  0  0  0
   21.7495  -21.8804  -11.0054 O   0  0  0  0  0  0  0  0  0  0  0  0
   20.0422  -20.4549  -11.1752 O   0  0  0  0  0  0  0  0  0  0  0  0
  2  1  1  6
  3  2  1  0
  3  4  1  0
  4  5  2  0
  5  6  1  0
  7  6  2  0
  8  7  1  0
  9  4  1  0
  9  8  2  0
 10 17  1  0
 10  2  1  0
 11 10  2  0
 13 12  1  1
 14 13  1  0
 16 15  1  1
 15 13  1  0
 16 17  1  0
 18 16  1  0
 19 18  2  0
 20 18  1  0
 21 20  1  0
 21 22  1  6
 22 23  1  0
 23 24  1  0
 24 25  1  0
 26 25  1  0
 27 29  1  0
 27 21  1  0
 28 27  2  0
M  END
$$$$
