FLK.pdb
     RDKit          3D

 29 29  0  0  1  0  0  0  0  0999 V2000
   18.3254  -12.8961  -18.0397 N   0  0  0  0  0  0  0  0  0  0  0  0
   19.2289  -11.7866  -18.2596 C   0  0  1  0  0  0  0  0  0  0  0  0
   18.6637  -11.0001  -19.4359 C   0  0  0  0  0  0  0  0  0  0  0  0
   18.7992  -11.8561  -20.6390 C   0  0  0  0  0  0  0  0  0  0  0  0
   17.7143  -12.4781  -21.1910 C   0  0  0  0  0  0  0  0  0  0  0  0
   17.7828  -13.2759  -22.3077 C   0  0  0  0  0  0  0  0  0  0  0  0
   19.0176  -13.4457  -22.8865 C   0  0  0  0  0  0  0  0  0  0  0  0
   20.1370  -12.8426  -22.3697 C   0  0  0  0  0  0  0  0  0  0  0  0
   20.0441  -12.0364  -21.2352 C   0  0  0  0  0  0  0  0  0  0  0  0
   19.4629  -10.9425  -17.0928 C   0  0  0  0  0  0  0  0  0  0  0  0
   18.4752  -10.5785  -16.4149 O   0  0  0  0  0  0  0  0  0  0  0  0
   23.1159   -7.7281  -14.1639 C   0  0  0  0  0  0  0  0  0  0  0  0
   22.6130   -9.0928  -13.7280 C   0  0  1  0  0  0  0  0  0  0  0  0
   21.6268   -9.0446  -12.6067 C   0  0  0  0  0  0  0  0  0  0  0  0
   22.2344   -9.9412  -14.8841 C   0  0  0  0  0  0  0  0  0  0  0  0
   20.9315   -9.6057  -15.5547 C   0  0  2  0  0  0  0  0  0  0  0  0
   20.7491  -10.5045  -16.6737 N   0  0  0  0  0  0  0  0  0  0  0  0
   21.0062   -8.2067  -16.1216 C   0  0  0  0  0  0  0  0  0  0  0  0
   21.9024   -7.8901  -16.9458 O   0  0  0  0  0  0  0  0  0  0  0  0
   20.0916   -7.2075  -15.7606 N   0  0  0  0  0  0  0  0  0  0  0  0
   20.1982   -5.8290  -16.3449 C   0  0  1  0  0  0  0  0  0  0  0  0
   18.9537   -5.5447  -17.0674 C   0  0  0  0  0  0  0  0  0  0  0  0
   18.7984   -6.0225  -18.4407 C   0  0  0  0  0  0  0  0  0  0  0  0
   17.5124   -6.2827  -19.0889 C   0  0  0  0  0  0  0  0  0  0  0  0
   17.5617   -6.8049  -20.4990 C   0  0  0  0  0  0  0  0  0  0  0  0
   16.2799   -7.1317  -21.0430 N   0  0  0  0  0  0  0  0  0  0  0  0
   20.4723   -4.9743  -15.1943 C   0  0  0  0  0  0  0  0  0  0  0  0
   20.6660   -3.7089  -15.4409 O   0  0  0  0  0  0  0  0  0  0  0  0
   20.5537   -5.2889  -13.8703 O   0  0  0  0  0  0  0  0  0  0  0  0
  2  1  1  1
  3  2  1  0
  3  4  1  0
  4  5  2  0
  5  6  1  0
  7  6  2  0
  8  7  1  0
  9  4  1  0
  9  8  2  0
 10 17  1  0
 10  2  1  0
 11 10  2  0
 13 12  1  6
 14 13  1  0
 16 15  1  6
 15 13  1  0
 16 17  1  0
 18 16  1  0
 19 18  2  0
 20 18  1  0
 21 20  1  0
 21 22  1  1
 22 23  1  0
 23 24  1  0
 24 25  1  0
 26 25  1  0
 27 29  1  0
 27 21  1  0
 28 27  2  0
M  END
$$$$
