FLK.pdb
     RDKit          3D

 29 29  0  0  1  0  0  0  0  0999 V2000
   23.7442  -20.6770  -14.6684 N   0  0  0  0  0  0  0  0  0  0  0  0
   23.1599  -20.0467  -13.5036 C   0  0  1  0  0  0  0  0  0  0  0  0
   21.6559  -20.0099  -13.7453 C   0  0  0  0  0  0  0  0  0  0  0  0
   21.4266  -19.1679  -14.9440 C   0  0  0  0  0  0  0  0  0  0  0  0
   21.8883  -17.8827  -15.0052 C   0  0  0  0  0  0  0  0  0  0  0  0
   21.7093  -17.0622  -16.0928 C   0  0  0  0  0  0  0  0  0  0  0  0
   21.0265  -17.5797  -17.1673 C   0  0  0  0  0  0  0  0  0  0  0  0
   20.5430  -18.8641  -17.1543 C   0  0  0  0  0  0  0  0  0  0  0  0
   20.7366  -19.6797  -16.0394 C   0  0  0  0  0  0  0  0  0  0  0  0
   23.4990  -20.6720  -12.2298 C   0  0  0  0  0  0  0  0  0  0  0  0
   23.4483  -21.9203  -12.1484 O   0  0  0  0  0  0  0  0  0  0  0  0
   26.4321  -21.5402   -7.8807 C   0  0  0  0  0  0  0  0  0  0  0  0
   25.6483  -20.2455   -7.7584 C   0  0  1  0  0  0  0  0  0  0  0  0
   26.2831  -19.2364   -6.8579 C   0  0  0  0  0  0  0  0  0  0  0  0
   25.1998  -19.7402   -9.0788 C   0  0  0  0  0  0  0  0  0  0  0  0
   24.2287  -20.6102   -9.8270 C   0  0  2  0  0  0  0  0  0  0  0  0
   23.8861  -19.9496  -11.0678 N   0  0  0  0  0  0  0  0  0  0  0  0
   22.9518  -20.7364   -9.0284 C   0  0  0  0  0  0  0  0  0  0  0  0
   22.1906  -19.7479   -8.8659 O   0  0  0  0  0  0  0  0  0  0  0  0
   22.5595  -21.9458   -8.4381 N   0  0  0  0  0  0  0  0  0  0  0  0
   21.3316  -22.0112   -7.5775 C   0  0  1  0  0  0  0  0  0  0  0  0
   20.5724  -23.2067   -7.9597 C   0  0  0  0  0  0  0  0  0  0  0  0
   19.2433  -23.4230   -7.3895 C   0  0  0  0  0  0  0  0  0  0  0  0
   18.3555  -24.5295   -7.7488 C   0  0  0  0  0  0  0  0  0  0  0  0
   17.0373  -24.5979   -7.0268 C   0  0  0  0  0  0  0  0  0  0  0  0
   16.1727  -25.6376   -7.4928 N   0  0  0  0  0  0  0  0  0  0  0  0
   21.8511  -21.9998   -6.2138 C   0  0  0  0  0  0  0  0  0  0  0  0
   23.0739  -22.4219   -6.0522 O   0  0  0  0  0  0  0  0  0  0  0  0
   21.2549  -21.6033   -5.0537 O   0  0  0  0  0  0  0  0  0  0  0  0
  2  1  1  6
  3  2  1  0
  3  4  1  0
  4  5  2  0
  5  6  1  0
  7  6  2  0
  8  7  1  0
  9  4  1  0
  9  8  2  0
 10 17  1  0
 10  2  1  0
 11 10  2  0
 13 12  1  6
 14 13  1  0
 16 15  1  1
 15 13  1  0
 16 17  1  0
 18 16  1  0
 19 18  2  0
 20 18  1  0
 21 20  1  0
 21 22  1  6
 22 23  1  0
 23 24  1  0
 24 25  1  0
 26 25  1  0
 27 29  1  0
 27 21  1  0
 28 27  2  0
M  END
$$$$
