FLK.pdb
     RDKit          3D

 29 29  0  0  1  0  0  0  0  0999 V2000
   27.7378  -21.7110  -15.7846 N   0  0  0  0  0  0  0  0  0  0  0  0
   27.5801  -21.2599  -14.4181 C   0  0  1  0  0  0  0  0  0  0  0  0
   28.1045  -19.8299  -14.3757 C   0  0  0  0  0  0  0  0  0  0  0  0
   29.4484  -19.8759  -13.7508 C   0  0  0  0  0  0  0  0  0  0  0  0
   29.6003  -19.8179  -12.3935 C   0  0  0  0  0  0  0  0  0  0  0  0
   30.8205  -19.8630  -11.7632 C   0  0  0  0  0  0  0  0  0  0  0  0
   31.9367  -19.9722  -12.5573 C   0  0  0  0  0  0  0  0  0  0  0  0
   31.8365  -20.0336  -13.9248 C   0  0  0  0  0  0  0  0  0  0  0  0
   30.5874  -19.9865  -14.5436 C   0  0  0  0  0  0  0  0  0  0  0  0
   26.2255  -21.3670  -13.8867 C   0  0  0  0  0  0  0  0  0  0  0  0
   25.3793  -22.0158  -14.5428 O   0  0  0  0  0  0  0  0  0  0  0  0
   25.8041  -20.2381   -8.5196 C   0  0  0  0  0  0  0  0  0  0  0  0
   25.7637  -20.9569   -9.8565 C   0  0  1  0  0  0  0  0  0  0  0  0
   26.0978  -22.4107   -9.7723 C   0  0  0  0  0  0  0  0  0  0  0  0
   24.5464  -20.6185  -10.6332 C   0  0  0  0  0  0  0  0  0  0  0  0
   24.5219  -21.0815  -12.0632 C   0  0  2  0  0  0  0  0  0  0  0  0
   25.8028  -20.7780  -12.6635 N   0  0  0  0  0  0  0  0  0  0  0  0
   23.4809  -20.2948  -12.8260 C   0  0  0  0  0  0  0  0  0  0  0  0
   23.5579  -19.0426  -12.9205 O   0  0  0  0  0  0  0  0  0  0  0  0
   22.3936  -20.9152  -13.4569 N   0  0  0  0  0  0  0  0  0  0  0  0
   21.3764  -20.0994  -14.2003 C   0  0  1  0  0  0  0  0  0  0  0  0
   21.0824  -20.7827  -15.4645 C   0  0  0  0  0  0  0  0  0  0  0  0
   20.0978  -20.2046  -16.3782 C   0  0  0  0  0  0  0  0  0  0  0  0
   19.6533  -20.8305  -17.6241 C   0  0  0  0  0  0  0  0  0  0  0  0
   18.6642  -20.0560  -18.4521 C   0  0  0  0  0  0  0  0  0  0  0  0
   18.2540  -20.7276  -19.6464 N   0  0  0  0  0  0  0  0  0  0  0  0
   20.2601  -19.9853  -13.2673 C   0  0  0  0  0  0  0  0  0  0  0  0
   20.0850  -20.9802  -12.4432 O   0  0  0  0  0  0  0  0  0  0  0  0
   19.3526  -18.9806  -13.1075 O   0  0  0  0  0  0  0  0  0  0  0  0
  2  1  1  6
  3  2  1  0
  3  4  1  0
  4  5  2  0
  5  6  1  0
  7  6  2  0
  8  7  1  0
  9  4  1  0
  9  8  2  0
 10 17  1  0
 10  2  1  0
 11 10  2  0
 13 12  1  1
 14 13  1  0
 16 15  1  1
 15 13  1  0
 16 17  1  0
 18 16  1  0
 19 18  2  0
 20 18  1  0
 21 20  1  0
 21 22  1  6
 22 23  1  0
 23 24  1  0
 24 25  1  0
 26 25  1  0
 27 29  1  0
 27 21  1  0
 28 27  2  0
M  END
$$$$
