FLK.pdb
     RDKit          3D

 29 29  0  0  1  0  0  0  0  0999 V2000
   19.3437  -18.9703  -19.6894 N   0  0  0  0  0  0  0  0  0  0  0  0
   18.7325  -18.3306  -18.5436 C   0  0  1  0  0  0  0  0  0  0  0  0
   17.3729  -17.8247  -19.0097 C   0  0  0  0  0  0  0  0  0  0  0  0
   17.6179  -16.6383  -19.8647 C   0  0  0  0  0  0  0  0  0  0  0  0
   17.5289  -16.7167  -21.2265 C   0  0  0  0  0  0  0  0  0  0  0  0
   17.7395  -15.6480  -22.0642 C   0  0  0  0  0  0  0  0  0  0  0  0
   18.0558  -14.4437  -21.4825 C   0  0  0  0  0  0  0  0  0  0  0  0
   18.1574  -14.3141  -20.1199 C   0  0  0  0  0  0  0  0  0  0  0  0
   17.9391  -15.4125  -19.2884 C   0  0  0  0  0  0  0  0  0  0  0  0
   18.6315  -19.1670  -17.3525 C   0  0  0  0  0  0  0  0  0  0  0  0
   18.4748  -20.3999  -17.5036 O   0  0  0  0  0  0  0  0  0  0  0  0
   19.7878  -21.1898  -12.6764 C   0  0  0  0  0  0  0  0  0  0  0  0
   19.4644  -19.7176  -12.4930 C   0  0  1  0  0  0  0  0  0  0  0  0
   20.2049  -19.0707  -11.3682 C   0  0  0  0  0  0  0  0  0  0  0  0
   19.4753  -18.9814  -13.7805 C   0  0  0  0  0  0  0  0  0  0  0  0
   18.5959  -19.5331  -14.8677 C   0  0  2  0  0  0  0  0  0  0  0  0
   18.7005  -18.6681  -16.0227 N   0  0  0  0  0  0  0  0  0  0  0  0
   17.1545  -19.4907  -14.4151 C   0  0  0  0  0  0  0  0  0  0  0  0
   16.6333  -18.4171  -14.0168 O   0  0  0  0  0  0  0  0  0  0  0  0
   16.3396  -20.6314  -14.4176 N   0  0  0  0  0  0  0  0  0  0  0  0
   14.8883  -20.5324  -14.0477 C   0  0  1  0  0  0  0  0  0  0  0  0
   14.2229  -21.7637  -14.4869 C   0  0  0  0  0  0  0  0  0  0  0  0
   15.0175  -22.9754  -14.6836 C   0  0  0  0  0  0  0  0  0  0  0  0
   14.4983  -24.2291  -15.2316 C   0  0  0  0  0  0  0  0  0  0  0  0
   15.4766  -25.3647  -15.3608 C   0  0  0  0  0  0  0  0  0  0  0  0
   14.9488  -26.5133  -16.0300 N   0  0  0  0  0  0  0  0  0  0  0  0
   14.9028  -20.2994  -12.6071 C   0  0  0  0  0  0  0  0  0  0  0  0
   15.9068  -20.8026  -11.9452 O   0  0  0  0  0  0  0  0  0  0  0  0
   14.0203  -19.6185  -11.8221 O   0  0  0  0  0  0  0  0  0  0  0  0
  2  1  1  6
  3  2  1  0
  3  4  1  0
  4  5  2  0
  5  6  1  0
  7  6  2  0
  8  7  1  0
  9  4  1  0
  9  8  2  0
 10 17  1  0
 10  2  1  0
 11 10  2  0
 13 12  1  6
 14 13  1  0
 16 15  1  1
 15 13  1  0
 16 17  1  0
 18 16  1  0
 19 18  2  0
 20 18  1  0
 21 20  1  0
 21 22  1  1
 22 23  1  0
 23 24  1  0
 24 25  1  0
 26 25  1  0
 27 29  1  0
 27 21  1  0
 28 27  2  0
M  END
$$$$
