FLK.pdb
     RDKit          3D

 29 29  0  0  1  0  0  0  0  0999 V2000
   21.3242  -32.1725  -10.9935 N   0  0  0  0  0  0  0  0  0  0  0  0
   22.1664  -31.6061   -9.9613 C   0  0  1  0  0  0  0  0  0  0  0  0
   21.2462  -30.8039   -9.0495 C   0  0  0  0  0  0  0  0  0  0  0  0
   20.7186  -29.6715   -9.8483 C   0  0  0  0  0  0  0  0  0  0  0  0
   21.5418  -28.6750  -10.2931 C   0  0  0  0  0  0  0  0  0  0  0  0
   21.1067  -27.6076  -11.0412 C   0  0  0  0  0  0  0  0  0  0  0  0
   19.7682  -27.5568  -11.3483 C   0  0  0  0  0  0  0  0  0  0  0  0
   18.9012  -28.5329  -10.9247 C   0  0  0  0  0  0  0  0  0  0  0  0
   19.3649  -29.6079  -10.1664 C   0  0  0  0  0  0  0  0  0  0  0  0
   22.9693  -32.5741   -9.2216 C   0  0  0  0  0  0  0  0  0  0  0  0
   22.6119  -33.7739   -9.2317 O   0  0  0  0  0  0  0  0  0  0  0  0
   27.4215  -34.8668   -7.6004 C   0  0  0  0  0  0  0  0  0  0  0  0
   27.2427  -33.5698   -6.8314 C   0  0  1  0  0  0  0  0  0  0  0  0
   28.5266  -32.9442   -6.3929 C   0  0  0  0  0  0  0  0  0  0  0  0
   26.2746  -32.6607   -7.4917 C   0  0  0  0  0  0  0  0  0  0  0  0
   24.9136  -33.2330   -7.7743 C   0  0  2  0  0  0  0  0  0  0  0  0
   24.1391  -32.2395   -8.4859 N   0  0  0  0  0  0  0  0  0  0  0  0
   24.1998  -33.4947   -6.4680 C   0  0  0  0  0  0  0  0  0  0  0  0
   23.9663  -32.5589   -5.6601 O   0  0  0  0  0  0  0  0  0  0  0  0
   23.7691  -34.7767   -6.0989 N   0  0  0  0  0  0  0  0  0  0  0  0
   23.1456  -35.0138   -4.7543 C   0  0  1  0  0  0  0  0  0  0  0  0
   22.3936  -36.2716   -4.8181 C   0  0  0  0  0  0  0  0  0  0  0  0
   21.7560  -36.7863   -3.6069 C   0  0  0  0  0  0  0  0  0  0  0  0
   20.9698  -38.0189   -3.5420 C   0  0  0  0  0  0  0  0  0  0  0  0
   20.3290  -38.3409   -2.2194 C   0  0  0  0  0  0  0  0  0  0  0  0
   19.5123  -39.5149   -2.2398 N   0  0  0  0  0  0  0  0  0  0  0  0
   24.2747  -34.9969   -3.8299 C   0  0  0  0  0  0  0  0  0  0  0  0
   24.0498  -34.5044   -2.6439 O   0  0  0  0  0  0  0  0  0  0  0  0
   25.5556  -35.4291   -4.0053 O   0  0  0  0  0  0  0  0  0  0  0  0
  2  1  1  6
  3  2  1  0
  3  4  1  0
  4  5  2  0
  5  6  1  0
  7  6  2  0
  8  7  1  0
  9  4  1  0
  9  8  2  0
 10 17  1  0
 10  2  1  0
 11 10  2  0
 13 12  1  6
 14 13  1  0
 16 15  1  1
 15 13  1  0
 16 17  1  0
 18 16  1  0
 19 18  2  0
 20 18  1  0
 21 20  1  0
 21 22  1  6
 22 23  1  0
 23 24  1  0
 24 25  1  0
 26 25  1  0
 27 29  1  0
 27 21  1  0
 28 27  2  0
M  END
$$$$
