LTT.pdb
     RDKit          3D

 23 22  0  0  1  0  0  0  0  0999 V2000
    9.4650  -12.7876   19.7280 C   0  0  0  0  0  0  0  0  0  0  0  0
    8.0113  -13.2802   19.6745 C   0  0  2  0  0  0  0  0  0  0  0  0
    7.1612  -12.0555   19.6007 C   0  0  0  0  0  0  0  0  0  0  0  0
    7.8118  -14.1198   20.8998 C   0  0  0  0  0  0  0  0  0  0  0  0
    8.6108  -15.3849   20.8128 C   0  0  2  0  0  0  0  0  0  0  0  0
    8.0015  -16.2509   19.8280 N   0  0  0  0  0  0  0  0  0  0  0  0
    8.6045  -16.0392   22.1665 C   0  0  0  0  0  0  0  0  0  0  0  0
    7.5206  -16.4329   22.6690 O   0  0  0  0  0  0  0  0  0  0  0  0
    9.9243  -19.0474   23.1668 C   0  0  0  0  0  0  0  0  0  0  0  0
   10.5666  -18.0949   24.1716 C   0  0  1  0  0  0  0  0  0  0  0  0
   11.8515  -17.7800   23.7751 O   0  0  0  0  0  0  0  0  0  0  0  0
    9.7061  -16.8479   24.2271 C   0  0  2  0  0  0  0  0  0  0  0  0
    9.7929  -16.2358   22.9171 N   0  0  0  0  0  0  0  0  0  0  0  0
   10.2489  -15.8730   25.2008 C   0  0  0  0  0  0  0  0  0  0  0  0
   11.1922  -15.0805   24.9235 O   0  0  0  0  0  0  0  0  0  0  0  0
    8.9501  -12.9082   26.7263 C   0  0  0  0  0  0  0  0  0  0  0  0
    9.1539  -13.9120   27.8149 C   0  0  1  0  0  0  0  0  0  0  0  0
    7.9632  -14.6122   28.0018 O   0  0  0  0  0  0  0  0  0  0  0  0
   10.2483  -14.9075   27.5065 C   0  0  2  0  0  0  0  0  0  0  0  0
    9.7037  -15.8131   26.4914 N   0  0  0  0  0  0  0  0  0  0  0  0
   10.6830  -15.6689   28.6754 C   0  0  0  0  0  0  0  0  0  0  0  0
   10.5414  -16.9150   28.7046 O   0  0  0  0  0  0  0  0  0  0  0  0
   11.2580  -15.0617   29.7782 O   0  0  0  0  0  0  0  0  0  0  0  0
  2  1  1  1
  3  2  1  0
  4  2  1  0
  5  6  1  6
  5  4  1  0
  7  5  1  0
  8  7  2  0
 10  9  1  6
 10 12  1  0
 11 10  1  0
 12 14  1  0
 12 13  1  6
 13  7  1  0
 14 20  1  0
 15 14  2  0
 17 18  1  0
 17 16  1  6
 19 17  1  0
 19 21  1  0
 19 20  1  6
 21 22  2  0
 21 23  1  0
M  END
$$$$
