LTT.pdb
     RDKit          3D

 23 22  0  0  1  0  0  0  0  0999 V2000
    9.1561  -12.8733   19.4428 C   0  0  0  0  0  0  0  0  0  0  0  0
    7.7789  -13.5268   19.2556 C   0  0  2  0  0  0  0  0  0  0  0  0
    6.8996  -12.4774   18.6610 C   0  0  0  0  0  0  0  0  0  0  0  0
    7.3621  -14.0127   20.6106 C   0  0  0  0  0  0  0  0  0  0  0  0
    8.3743  -14.9679   21.1670 C   0  0  2  0  0  0  0  0  0  0  0  0
    8.3588  -16.1751   20.3712 N   0  0  0  0  0  0  0  0  0  0  0  0
    8.0019  -15.2707   22.5919 C   0  0  0  0  0  0  0  0  0  0  0  0
    7.2589  -14.4803   23.2287 O   0  0  0  0  0  0  0  0  0  0  0  0
    6.6641  -18.5028   23.9162 C   0  0  0  0  0  0  0  0  0  0  0  0
    7.8519  -18.1340   24.8010 C   0  0  1  0  0  0  0  0  0  0  0  0
    8.9719  -18.8436   24.4146 O   0  0  0  0  0  0  0  0  0  0  0  0
    8.0862  -16.6442   24.6462 C   0  0  2  0  0  0  0  0  0  0  0  0
    8.4619  -16.4335   23.2632 N   0  0  0  0  0  0  0  0  0  0  0  0
    9.2255  -16.1979   25.4805 C   0  0  0  0  0  0  0  0  0  0  0  0
   10.3901  -16.0359   25.0196 O   0  0  0  0  0  0  0  0  0  0  0  0
    9.3860  -13.0766   27.4397 C   0  0  0  0  0  0  0  0  0  0  0  0
    9.5974  -14.2170   28.3828 C   0  0  1  0  0  0  0  0  0  0  0  0
    8.3815  -14.5192   28.9936 O   0  0  0  0  0  0  0  0  0  0  0  0
   10.1103  -15.4640   27.7002 C   0  0  2  0  0  0  0  0  0  0  0  0
    9.0206  -15.9391   26.8434 N   0  0  0  0  0  0  0  0  0  0  0  0
   10.5058  -16.5140   28.6361 C   0  0  0  0  0  0  0  0  0  0  0  0
   11.3885  -16.2900   29.4987 O   0  0  0  0  0  0  0  0  0  0  0  0
    9.9359  -17.7750   28.6124 O   0  0  0  0  0  0  0  0  0  0  0  0
  2  1  1  1
  3  2  1  0
  4  2  1  0
  5  6  1  6
  5  4  1  0
  7  5  1  0
  8  7  2  0
 10  9  1  6
 10 12  1  0
 11 10  1  0
 12 14  1  0
 12 13  1  6
 13  7  1  0
 14 20  1  0
 15 14  2  0
 17 18  1  0
 17 16  1  6
 19 17  1  0
 19 21  1  0
 19 20  1  6
 21 22  2  0
 21 23  1  0
M  END
$$$$
