LTT.pdb
     RDKit          3D

 23 22  0  0  1  0  0  0  0  0999 V2000
    9.0911  -12.4492   18.5637 C   0  0  0  0  0  0  0  0  0  0  0  0
    7.8183  -13.2180   18.9477 C   0  0  2  0  0  0  0  0  0  0  0  0
    6.9659  -12.2558   19.7064 C   0  0  0  0  0  0  0  0  0  0  0  0
    8.2747  -14.4142   19.7266 C   0  0  0  0  0  0  0  0  0  0  0  0
    9.1334  -15.3038   18.8795 C   0  0  2  0  0  0  0  0  0  0  0  0
    8.2981  -15.9508   17.8922 N   0  0  0  0  0  0  0  0  0  0  0  0
    9.7796  -16.3248   19.7743 C   0  0  0  0  0  0  0  0  0  0  0  0
    9.0684  -17.1565   20.3947 O   0  0  0  0  0  0  0  0  0  0  0  0
   12.6650  -18.4101   18.7387 C   0  0  0  0  0  0  0  0  0  0  0  0
   13.0287  -17.8768   20.1218 C   0  0  1  0  0  0  0  0  0  0  0  0
   13.9039  -16.8146   20.0076 O   0  0  0  0  0  0  0  0  0  0  0  0
   11.7411  -17.4360   20.7898 C   0  0  2  0  0  0  0  0  0  0  0  0
   11.1860  -16.3921   19.9530 N   0  0  0  0  0  0  0  0  0  0  0  0
   12.0116  -16.8344   22.1158 C   0  0  0  0  0  0  0  0  0  0  0  0
   12.1912  -15.5954   22.2822 O   0  0  0  0  0  0  0  0  0  0  0  0
    9.9666  -17.7891   25.1264 C   0  0  0  0  0  0  0  0  0  0  0  0
   10.9699  -16.6812   25.1143 C   0  0  1  0  0  0  0  0  0  0  0  0
   11.1390  -16.2210   26.4191 O   0  0  0  0  0  0  0  0  0  0  0  0
   12.3183  -17.1078   24.5815 C   0  0  2  0  0  0  0  0  0  0  0  0
   12.0745  -17.6611   23.2467 N   0  0  0  0  0  0  0  0  0  0  0  0
   12.9836  -18.1011   25.4214 C   0  0  0  0  0  0  0  0  0  0  0  0
   13.1961  -19.2570   24.9831 O   0  0  0  0  0  0  0  0  0  0  0  0
   13.3998  -17.8163   26.7103 O   0  0  0  0  0  0  0  0  0  0  0  0
  2  1  1  1
  3  2  1  0
  4  2  1  0
  5  6  1  6
  5  4  1  0
  7  5  1  0
  8  7  2  0
 10  9  1  6
 10 12  1  0
 11 10  1  0
 12 14  1  0
 12 13  1  6
 13  7  1  0
 14 20  1  0
 15 14  2  0
 17 18  1  0
 17 16  1  1
 19 17  1  0
 19 21  1  0
 19 20  1  6
 21 22  2  0
 21 23  1  0
M  END
$$$$
