LTT.pdb
     RDKit          3D

 23 22  0  0  1  0  0  0  0  0999 V2000
    9.6431  -13.3788   19.3674 C   0  0  0  0  0  0  0  0  0  0  0  0
    8.2617  -13.6220   18.7420 C   0  0  2  0  0  0  0  0  0  0  0  0
    7.7659  -12.2854   18.2997 C   0  0  0  0  0  0  0  0  0  0  0  0
    7.4371  -14.2872   19.8019 C   0  0  0  0  0  0  0  0  0  0  0  0
    8.0391  -15.6019   20.1963 C   0  0  2  0  0  0  0  0  0  0  0  0
    7.4552  -16.6427   19.3796 N   0  0  0  0  0  0  0  0  0  0  0  0
    7.7373  -15.8404   21.6498 C   0  0  0  0  0  0  0  0  0  0  0  0
    6.5438  -15.9266   22.0377 O   0  0  0  0  0  0  0  0  0  0  0  0
    8.6221  -18.6840   23.3506 C   0  0  0  0  0  0  0  0  0  0  0  0
    9.1431  -17.6088   24.3004 C   0  0  1  0  0  0  0  0  0  0  0  0
   10.5027  -17.4389   24.1277 O   0  0  0  0  0  0  0  0  0  0  0  0
    8.4016  -16.3254   23.9816 C   0  0  2  0  0  0  0  0  0  0  0  0
    8.7616  -15.9751   22.6229 N   0  0  0  0  0  0  0  0  0  0  0  0
    8.8593  -15.2190   24.8531 C   0  0  0  0  0  0  0  0  0  0  0  0
    9.9076  -14.5536   24.6220 O   0  0  0  0  0  0  0  0  0  0  0  0
    6.9731  -12.1007   26.0467 C   0  0  0  0  0  0  0  0  0  0  0  0
    7.3499  -12.9764   27.1980 C   0  0  1  0  0  0  0  0  0  0  0  0
    6.2728  -13.8106   27.4924 O   0  0  0  0  0  0  0  0  0  0  0  0
    8.5578  -13.8399   26.9160 C   0  0  2  0  0  0  0  0  0  0  0  0
    8.1086  -14.8815   25.9883 N   0  0  0  0  0  0  0  0  0  0  0  0
    9.1254  -14.4494   28.1165 C   0  0  0  0  0  0  0  0  0  0  0  0
    9.5851  -13.7270   29.0332 O   0  0  0  0  0  0  0  0  0  0  0  0
    9.1795  -15.8212   28.2913 O   0  0  0  0  0  0  0  0  0  0  0  0
  2  1  1  1
  3  2  1  0
  4  2  1  0
  5  6  1  6
  5  4  1  0
  7  5  1  0
  8  7  2  0
 10  9  1  6
 10 12  1  0
 11 10  1  0
 12 14  1  0
 12 13  1  6
 13  7  1  0
 14 20  1  0
 15 14  2  0
 17 18  1  0
 17 16  1  6
 19 17  1  0
 19 21  1  0
 19 20  1  6
 21 22  2  0
 21 23  1  0
M  END
$$$$
