LTT.pdb
     RDKit          3D

 23 22  0  0  1  0  0  0  0  0999 V2000
    8.9385  -12.3543   19.1169 C   0  0  0  0  0  0  0  0  0  0  0  0
    7.8752  -13.4468   18.9311 C   0  0  2  0  0  0  0  0  0  0  0  0
    6.7563  -12.8116   18.1745 C   0  0  0  0  0  0  0  0  0  0  0  0
    7.5227  -13.9218   20.3081 C   0  0  0  0  0  0  0  0  0  0  0  0
    8.7315  -14.4647   21.0085 C   0  0  2  0  0  0  0  0  0  0  0  0
    9.2250  -15.6031   20.2658 N   0  0  0  0  0  0  0  0  0  0  0  0
    8.3257  -14.8763   22.3965 C   0  0  0  0  0  0  0  0  0  0  0  0
    7.5865  -14.1254   23.0836 O   0  0  0  0  0  0  0  0  0  0  0  0
    7.1560  -18.3840   23.3924 C   0  0  0  0  0  0  0  0  0  0  0  0
    8.2360  -17.9450   24.3776 C   0  0  1  0  0  0  0  0  0  0  0  0
    9.4500  -18.5074   24.0351 O   0  0  0  0  0  0  0  0  0  0  0  0
    8.3148  -16.4321   24.3182 C   0  0  2  0  0  0  0  0  0  0  0  0
    8.7494  -16.1002   22.9769 N   0  0  0  0  0  0  0  0  0  0  0  0
    9.3449  -15.9186   25.2501 C   0  0  0  0  0  0  0  0  0  0  0  0
   10.5606  -15.7994   24.9293 O   0  0  0  0  0  0  0  0  0  0  0  0
    9.3152  -12.6811   27.2404 C   0  0  0  0  0  0  0  0  0  0  0  0
    9.3865  -13.8497   28.1699 C   0  0  1  0  0  0  0  0  0  0  0  0
    8.0975  -14.1467   28.6093 O   0  0  0  0  0  0  0  0  0  0  0  0
    9.9663  -15.0868   27.5240 C   0  0  2  0  0  0  0  0  0  0  0  0
    8.9724  -15.5435   26.5489 N   0  0  0  0  0  0  0  0  0  0  0  0
   10.2587  -16.1539   28.4782 C   0  0  0  0  0  0  0  0  0  0  0  0
    9.6640  -17.2552   28.3944 O   0  0  0  0  0  0  0  0  0  0  0  0
   11.1850  -15.9998   29.4950 O   0  0  0  0  0  0  0  0  0  0  0  0
  2  1  1  1
  3  2  1  0
  4  2  1  0
  5  6  1  6
  5  4  1  0
  7  5  1  0
  8  7  2  0
 10  9  1  6
 10 12  1  0
 11 10  1  0
 12 14  1  0
 12 13  1  6
 13  7  1  0
 14 20  1  0
 15 14  2  0
 17 18  1  0
 17 16  1  6
 19 17  1  0
 19 21  1  0
 19 20  1  6
 21 22  2  0
 21 23  1  0
M  END
$$$$
