LTT.pdb
     RDKit          3D

 23 22  0  0  1  0  0  0  0  0999 V2000
    8.3545  -11.8678   18.2141 C   0  0  0  0  0  0  0  0  0  0  0  0
    7.6510  -13.1394   18.7104 C   0  0  2  0  0  0  0  0  0  0  0  0
    6.7038  -12.6996   19.7769 C   0  0  0  0  0  0  0  0  0  0  0  0
    8.7381  -14.0642   19.1674 C   0  0  0  0  0  0  0  0  0  0  0  0
    9.6064  -14.4733   18.0163 C   0  0  2  0  0  0  0  0  0  0  0  0
    8.8059  -15.2267   17.0768 N   0  0  0  0  0  0  0  0  0  0  0  0
   10.7284  -15.3195   18.5508 C   0  0  0  0  0  0  0  0  0  0  0  0
   10.5189  -16.5224   18.8535 O   0  0  0  0  0  0  0  0  0  0  0  0
   13.9325  -15.8031   16.9322 C   0  0  0  0  0  0  0  0  0  0  0  0
   14.2995  -15.4350   18.3673 C   0  0  1  0  0  0  0  0  0  0  0  0
   14.6718  -14.1069   18.4379 O   0  0  0  0  0  0  0  0  0  0  0  0
   13.0775  -15.6915   19.2270 C   0  0  2  0  0  0  0  0  0  0  0  0
   12.0404  -14.8094   18.7324 N   0  0  0  0  0  0  0  0  0  0  0  0
   13.3335  -15.3162   20.6366 C   0  0  0  0  0  0  0  0  0  0  0  0
   13.6600  -14.1473   20.9859 O   0  0  0  0  0  0  0  0  0  0  0  0
   11.1522  -16.1145   23.7885 C   0  0  0  0  0  0  0  0  0  0  0  0
   12.5188  -16.7135   23.8776 C   0  0  1  0  0  0  0  0  0  0  0  0
   12.4529  -18.0361   23.4426 O   0  0  0  0  0  0  0  0  0  0  0  0
   13.5415  -15.9858   23.0359 C   0  0  2  0  0  0  0  0  0  0  0  0
   13.2127  -16.2879   21.6403 N   0  0  0  0  0  0  0  0  0  0  0  0
   14.9170  -16.3855   23.3241 C   0  0  0  0  0  0  0  0  0  0  0  0
   15.5904  -16.9964   22.4599 O   0  0  0  0  0  0  0  0  0  0  0  0
   15.5245  -16.1133   24.5375 O   0  0  0  0  0  0  0  0  0  0  0  0
  2  1  1  1
  3  2  1  0
  4  2  1  0
  5  6  1  6
  5  4  1  0
  7  5  1  0
  8  7  2  0
 10  9  1  6
 10 12  1  0
 11 10  1  0
 12 14  1  0
 12 13  1  6
 13  7  1  0
 14 20  1  0
 15 14  2  0
 17 18  1  0
 17 16  1  6
 19 17  1  0
 19 21  1  0
 19 20  1  6
 21 22  2  0
 21 23  1  0
M  END
$$$$
