LTT.pdb
     RDKit          3D

 23 22  0  0  1  0  0  0  0  0999 V2000
    6.3278  -12.1275   26.0761 C   0  0  0  0  0  0  0  0  0  0  0  0
    7.3094  -12.8864   25.1710 C   0  0  2  0  0  0  0  0  0  0  0  0
    8.3590  -11.9001   24.7792 C   0  0  0  0  0  0  0  0  0  0  0  0
    6.4936  -13.4308   24.0379 C   0  0  0  0  0  0  0  0  0  0  0  0
    7.3581  -14.1907   23.0779 C   0  0  2  0  0  0  0  0  0  0  0  0
    6.5272  -14.7014   22.0103 N   0  0  0  0  0  0  0  0  0  0  0  0
    8.0102  -15.3207   23.8253 C   0  0  0  0  0  0  0  0  0  0  0  0
    7.3017  -16.1619   24.4357 O   0  0  0  0  0  0  0  0  0  0  0  0
    9.9362  -17.7181   22.2729 C   0  0  0  0  0  0  0  0  0  0  0  0
   10.8432  -17.3296   23.4375 C   0  0  1  0  0  0  0  0  0  0  0  0
   11.8249  -16.4591   23.0067 O   0  0  0  0  0  0  0  0  0  0  0  0
    9.9722  -16.6711   24.4892 C   0  0  2  0  0  0  0  0  0  0  0  0
    9.4195  -15.4824   23.8729 N   0  0  0  0  0  0  0  0  0  0  0  0
   10.7835  -16.2257   25.6455 C   0  0  0  0  0  0  0  0  0  0  0  0
   11.6937  -15.3556   25.5492 O   0  0  0  0  0  0  0  0  0  0  0  0
   10.0990  -14.3716   28.6240 C   0  0  0  0  0  0  0  0  0  0  0  0
   10.4870  -15.7498   29.0535 C   0  0  1  0  0  0  0  0  0  0  0  0
    9.3286  -16.5095   29.2073 O   0  0  0  0  0  0  0  0  0  0  0  0
   11.3868  -16.4492   28.0609 C   0  0  2  0  0  0  0  0  0  0  0  0
   10.5443  -16.7834   26.9096 N   0  0  0  0  0  0  0  0  0  0  0  0
   12.0069  -17.6592   28.5958 C   0  0  0  0  0  0  0  0  0  0  0  0
   11.7663  -18.7744   28.0744 O   0  0  0  0  0  0  0  0  0  0  0  0
   12.8688  -17.6287   29.6783 O   0  0  0  0  0  0  0  0  0  0  0  0
  2  1  1  1
  3  2  1  0
  4  2  1  0
  5  6  1  6
  5  4  1  0
  7  5  1  0
  8  7  2  0
 10  9  1  6
 10 12  1  0
 11 10  1  0
 12 14  1  0
 12 13  1  6
 13  7  1  0
 14 20  1  0
 15 14  2  0
 17 18  1  0
 17 16  1  6
 19 17  1  0
 19 21  1  0
 19 20  1  6
 21 22  2  0
 21 23  1  0
M  END
$$$$
