LTT.pdb
     RDKit          3D

 23 22  0  0  1  0  0  0  0  0999 V2000
    7.4047  -12.6563   20.0574 C   0  0  0  0  0  0  0  0  0  0  0  0
    8.6317  -13.3536   19.4518 C   0  0  2  0  0  0  0  0  0  0  0  0
    9.6572  -12.2876   19.2514 C   0  0  0  0  0  0  0  0  0  0  0  0
    8.1538  -14.0200   18.1974 C   0  0  0  0  0  0  0  0  0  0  0  0
    9.2716  -14.7648   17.5325 C   0  0  2  0  0  0  0  0  0  0  0  0
    8.7472  -15.4470   16.3703 N   0  0  0  0  0  0  0  0  0  0  0  0
    9.8292  -15.7543   18.5178 C   0  0  0  0  0  0  0  0  0  0  0  0
    9.0811  -16.6341   19.0164 O   0  0  0  0  0  0  0  0  0  0  0  0
   12.2237  -18.0197   17.7344 C   0  0  0  0  0  0  0  0  0  0  0  0
   12.8102  -17.4682   19.0311 C   0  0  1  0  0  0  0  0  0  0  0  0
   13.8190  -16.5672   18.7521 O   0  0  0  0  0  0  0  0  0  0  0  0
   11.6835  -16.7890   19.7846 C   0  0  2  0  0  0  0  0  0  0  0  0
   11.1908  -15.7381   18.9180 N   0  0  0  0  0  0  0  0  0  0  0  0
   12.1867  -16.1386   21.0162 C   0  0  0  0  0  0  0  0  0  0  0  0
   12.8267  -15.0499   21.0036 O   0  0  0  0  0  0  0  0  0  0  0  0
   10.1141  -16.0320   24.4820 C   0  0  0  0  0  0  0  0  0  0  0  0
   11.4874  -16.6124   24.5907 C   0  0  1  0  0  0  0  0  0  0  0  0
   11.3909  -18.0003   24.5044 O   0  0  0  0  0  0  0  0  0  0  0  0
   12.4221  -16.1317   23.5048 C   0  0  2  0  0  0  0  0  0  0  0  0
   11.9515  -16.7435   22.2592 N   0  0  0  0  0  0  0  0  0  0  0  0
   13.8181  -16.4912   23.7431 C   0  0  0  0  0  0  0  0  0  0  0  0
   14.3766  -17.3583   23.0292 O   0  0  0  0  0  0  0  0  0  0  0  0
   14.5695  -15.9034   24.7458 O   0  0  0  0  0  0  0  0  0  0  0  0
  2  1  1  6
  3  2  1  0
  4  2  1  0
  5  6  1  6
  5  4  1  0
  7  5  1  0
  8  7  2  0
 10  9  1  6
 10 12  1  0
 11 10  1  0
 12 14  1  0
 12 13  1  6
 13  7  1  0
 14 20  1  0
 15 14  2  0
 17 18  1  0
 17 16  1  6
 19 17  1  0
 19 21  1  0
 19 20  1  6
 21 22  2  0
 21 23  1  0
M  END
$$$$
