LTT.pdb
     RDKit          3D

 23 22  0  0  1  0  0  0  0  0999 V2000
    7.9494  -11.5336   25.8825 C   0  0  0  0  0  0  0  0  0  0  0  0
    6.6497  -12.0174   25.2228 C   0  0  2  0  0  0  0  0  0  0  0  0
    5.5362  -11.4946   26.0683 C   0  0  0  0  0  0  0  0  0  0  0  0
    6.7493  -13.5112   25.1550 C   0  0  0  0  0  0  0  0  0  0  0  0
    7.4514  -13.9405   23.9023 C   0  0  2  0  0  0  0  0  0  0  0  0
    6.5542  -13.7591   22.7828 N   0  0  0  0  0  0  0  0  0  0  0  0
    7.8280  -15.3889   24.0470 C   0  0  0  0  0  0  0  0  0  0  0  0
    6.9653  -16.2845   23.8575 O   0  0  0  0  0  0  0  0  0  0  0  0
   10.6614  -16.9279   22.4063 C   0  0  0  0  0  0  0  0  0  0  0  0
   10.7798  -17.4233   23.8452 C   0  0  1  0  0  0  0  0  0  0  0  0
   11.7642  -16.7203   24.5114 O   0  0  0  0  0  0  0  0  0  0  0  0
    9.4332  -17.2121   24.5088 C   0  0  2  0  0  0  0  0  0  0  0  0
    9.1418  -15.7977   24.3954 N   0  0  0  0  0  0  0  0  0  0  0  0
    9.4996  -17.5292   25.9539 C   0  0  0  0  0  0  0  0  0  0  0  0
    9.7795  -16.6662   26.8325 O   0  0  0  0  0  0  0  0  0  0  0  0
    6.8891  -19.9699   27.8103 C   0  0  0  0  0  0  0  0  0  0  0  0
    8.3239  -20.3572   27.9705 C   0  0  1  0  0  0  0  0  0  0  0  0
    8.6343  -21.3181   27.0097 O   0  0  0  0  0  0  0  0  0  0  0  0
    9.2743  -19.1939   27.8049 C   0  0  2  0  0  0  0  0  0  0  0  0
    9.2431  -18.8391   26.3835 N   0  0  0  0  0  0  0  0  0  0  0  0
   10.6425  -19.5028   28.2141 C   0  0  0  0  0  0  0  0  0  0  0  0
   11.5832  -19.4111   27.3893 O   0  0  0  0  0  0  0  0  0  0  0  0
   10.9541  -19.9018   29.5022 O   0  0  0  0  0  0  0  0  0  0  0  0
  2  1  1  1
  3  2  1  0
  4  2  1  0
  5  6  1  6
  5  4  1  0
  7  5  1  0
  8  7  2  0
 10  9  1  6
 10 12  1  0
 11 10  1  0
 12 14  1  0
 12 13  1  1
 13  7  1  0
 14 20  1  0
 15 14  2  0
 17 18  1  0
 17 16  1  6
 19 17  1  0
 19 21  1  0
 19 20  1  6
 21 22  2  0
 21 23  1  0
M  END
$$$$
