LTT.pdb
     RDKit          3D

 23 22  0  0  1  0  0  0  0  0999 V2000
    6.7084  -12.0263   24.3915 C   0  0  0  0  0  0  0  0  0  0  0  0
    6.0000  -12.7961   25.5158 C   0  0  2  0  0  0  0  0  0  0  0  0
    5.7763  -11.8116   26.6151 C   0  0  0  0  0  0  0  0  0  0  0  0
    6.8985  -13.9441   25.8633 C   0  0  0  0  0  0  0  0  0  0  0  0
    6.8708  -14.9855   24.7858 C   0  0  2  0  0  0  0  0  0  0  0  0
    5.5716  -15.6205   24.7882 N   0  0  0  0  0  0  0  0  0  0  0  0
    7.9499  -15.9915   25.0759 C   0  0  0  0  0  0  0  0  0  0  0  0
    7.8190  -16.7943   26.0354 O   0  0  0  0  0  0  0  0  0  0  0  0
    9.8755  -17.6972   22.2232 C   0  0  0  0  0  0  0  0  0  0  0  0
   10.8814  -17.3452   23.3159 C   0  0  1  0  0  0  0  0  0  0  0  0
   11.5853  -16.2093   22.9672 O   0  0  0  0  0  0  0  0  0  0  0  0
   10.0991  -17.1151   24.5940 C   0  0  2  0  0  0  0  0  0  0  0  0
    9.1342  -16.0760   24.2983 N   0  0  0  0  0  0  0  0  0  0  0  0
   10.9792  -16.6001   25.6680 C   0  0  0  0  0  0  0  0  0  0  0  0
   11.7770  -15.6361   25.4968 O   0  0  0  0  0  0  0  0  0  0  0  0
   10.6988  -14.6135   28.4247 C   0  0  0  0  0  0  0  0  0  0  0  0
   11.0592  -15.9591   28.9670 C   0  0  1  0  0  0  0  0  0  0  0  0
    9.8841  -16.6464   29.2662 O   0  0  0  0  0  0  0  0  0  0  0  0
   11.8648  -16.7929   27.9976 C   0  0  2  0  0  0  0  0  0  0  0  0
   10.9382  -17.1963   26.9365 N   0  0  0  0  0  0  0  0  0  0  0  0
   12.4666  -17.9738   28.6126 C   0  0  0  0  0  0  0  0  0  0  0  0
   12.1222  -19.1220   28.2431 O   0  0  0  0  0  0  0  0  0  0  0  0
   13.4229  -17.8794   29.6086 O   0  0  0  0  0  0  0  0  0  0  0  0
  2  1  1  6
  3  2  1  0
  4  2  1  0
  5  6  1  1
  5  4  1  0
  7  5  1  0
  8  7  2  0
 10  9  1  6
 10 12  1  0
 11 10  1  0
 12 14  1  0
 12 13  1  6
 13  7  1  0
 14 20  1  0
 15 14  2  0
 17 18  1  0
 17 16  1  6
 19 17  1  0
 19 21  1  0
 19 20  1  6
 21 22  2  0
 21 23  1  0
M  END
$$$$
