LTT.pdb
     RDKit          3D

 23 22  0  0  1  0  0  0  0  0999 V2000
    9.5459  -13.0310   19.1900 C   0  0  0  0  0  0  0  0  0  0  0  0
    8.0620  -13.3996   19.0456 C   0  0  2  0  0  0  0  0  0  0  0  0
    7.3499  -12.1301   18.7154 C   0  0  0  0  0  0  0  0  0  0  0  0
    7.6632  -14.0333   20.3438 C   0  0  0  0  0  0  0  0  0  0  0  0
    8.4434  -15.2904   20.5832 C   0  0  2  0  0  0  0  0  0  0  0  0
    7.9147  -16.3331   19.7321 N   0  0  0  0  0  0  0  0  0  0  0  0
    8.2964  -15.6667   22.0315 C   0  0  0  0  0  0  0  0  0  0  0  0
    7.1535  -15.7189   22.5542 O   0  0  0  0  0  0  0  0  0  0  0  0
    9.4721  -18.7365   23.3795 C   0  0  0  0  0  0  0  0  0  0  0  0
   10.0237  -17.7013   24.3561 C   0  0  1  0  0  0  0  0  0  0  0  0
   11.3505  -17.4409   24.0748 O   0  0  0  0  0  0  0  0  0  0  0  0
    9.1903  -16.4443   24.2018 C   0  0  2  0  0  0  0  0  0  0  0  0
    9.4144  -15.9716   22.8510 N   0  0  0  0  0  0  0  0  0  0  0  0
    9.6605  -15.3813   25.1195 C   0  0  0  0  0  0  0  0  0  0  0  0
   10.6867  -14.6821   24.8894 O   0  0  0  0  0  0  0  0  0  0  0  0
    7.6131  -12.4726   26.4522 C   0  0  0  0  0  0  0  0  0  0  0  0
    8.1276  -13.2987   27.5868 C   0  0  1  0  0  0  0  0  0  0  0  0
    7.1346  -14.2007   27.9652 O   0  0  0  0  0  0  0  0  0  0  0  0
    9.3720  -14.0807   27.2346 C   0  0  2  0  0  0  0  0  0  0  0  0
    8.9475  -15.1262   26.2997 N   0  0  0  0  0  0  0  0  0  0  0  0
   10.0247  -14.6818   28.3954 C   0  0  0  0  0  0  0  0  0  0  0  0
   10.5101  -13.9529   29.2936 O   0  0  0  0  0  0  0  0  0  0  0  0
   10.1336  -16.0526   28.5518 O   0  0  0  0  0  0  0  0  0  0  0  0
  2  1  1  1
  3  2  1  0
  4  2  1  0
  5  6  1  6
  5  4  1  0
  7  5  1  0
  8  7  2  0
 10  9  1  6
 10 12  1  0
 11 10  1  0
 12 14  1  0
 12 13  1  6
 13  7  1  0
 14 20  1  0
 15 14  2  0
 17 18  1  0
 17 16  1  6
 19 17  1  0
 19 21  1  0
 19 20  1  6
 21 22  2  0
 21 23  1  0
M  END
$$$$
