LTT.pdb
     RDKit          3D

 23 22  0  0  1  0  0  0  0  0999 V2000
    9.6056  -12.8894   19.5642 C   0  0  0  0  0  0  0  0  0  0  0  0
    8.1544  -13.3657   19.4040 C   0  0  2  0  0  0  0  0  0  0  0  0
    7.3293  -12.1327   19.2403 C   0  0  0  0  0  0  0  0  0  0  0  0
    7.8470  -14.1790   20.6247 C   0  0  0  0  0  0  0  0  0  0  0  0
    8.6681  -15.4326   20.6484 C   0  0  2  0  0  0  0  0  0  0  0  0
    8.1220  -16.3627   19.6852 N   0  0  0  0  0  0  0  0  0  0  0  0
    8.6039  -16.0109   22.0349 C   0  0  0  0  0  0  0  0  0  0  0  0
    7.4950  -16.3452   22.5255 O   0  0  0  0  0  0  0  0  0  0  0  0
    9.8261  -18.9909   23.1437 C   0  0  0  0  0  0  0  0  0  0  0  0
   10.4497  -18.0397   24.1615 C   0  0  1  0  0  0  0  0  0  0  0  0
   11.7605  -17.7700   23.8205 O   0  0  0  0  0  0  0  0  0  0  0  0
    9.6256  -16.7671   24.1557 C   0  0  2  0  0  0  0  0  0  0  0  0
    9.7642  -16.1995   22.8303 N   0  0  0  0  0  0  0  0  0  0  0  0
   10.1721  -15.7781   25.1131 C   0  0  0  0  0  0  0  0  0  0  0  0
   11.1919  -15.0757   24.8651 O   0  0  0  0  0  0  0  0  0  0  0  0
    8.6715  -12.7439   26.6409 C   0  0  0  0  0  0  0  0  0  0  0  0
    8.9676  -13.7366   27.7186 C   0  0  1  0  0  0  0  0  0  0  0  0
    7.8175  -14.4863   27.9597 O   0  0  0  0  0  0  0  0  0  0  0  0
   10.0878  -14.6853   27.3596 C   0  0  2  0  0  0  0  0  0  0  0  0
    9.5426  -15.6004   26.3534 N   0  0  0  0  0  0  0  0  0  0  0  0
   10.5931  -15.4418   28.5030 C   0  0  0  0  0  0  0  0  0  0  0  0
   10.5122  -16.6935   28.5165 O   0  0  0  0  0  0  0  0  0  0  0  0
   11.1710  -14.8236   29.5982 O   0  0  0  0  0  0  0  0  0  0  0  0
  2  1  1  1
  3  2  1  0
  4  2  1  0
  5  6  1  6
  5  4  1  0
  7  5  1  0
  8  7  2  0
 10  9  1  6
 10 12  1  0
 11 10  1  0
 12 14  1  0
 12 13  1  6
 13  7  1  0
 14 20  1  0
 15 14  2  0
 17 18  1  0
 17 16  1  6
 19 17  1  0
 19 21  1  0
 19 20  1  6
 21 22  2  0
 21 23  1  0
M  END
$$$$
