LTT.pdb
     RDKit          3D

 23 22  0  0  1  0  0  0  0  0999 V2000
    5.9831  -12.2038   25.9185 C   0  0  0  0  0  0  0  0  0  0  0  0
    7.0346  -12.9114   25.0512 C   0  0  2  0  0  0  0  0  0  0  0  0
    7.9160  -11.8360   24.5084 C   0  0  0  0  0  0  0  0  0  0  0  0
    6.2701  -13.6870   24.0217 C   0  0  0  0  0  0  0  0  0  0  0  0
    7.2043  -14.4146   23.1027 C   0  0  2  0  0  0  0  0  0  0  0  0
    6.4253  -15.0837   22.0847 N   0  0  0  0  0  0  0  0  0  0  0  0
    7.9799  -15.4140   23.9153 C   0  0  0  0  0  0  0  0  0  0  0  0
    7.3744  -16.2031   24.6854 O   0  0  0  0  0  0  0  0  0  0  0  0
   10.1563  -17.6172   22.2222 C   0  0  0  0  0  0  0  0  0  0  0  0
   11.0005  -17.2009   23.4237 C   0  0  1  0  0  0  0  0  0  0  0  0
   11.9286  -16.2500   23.0471 O   0  0  0  0  0  0  0  0  0  0  0  0
   10.0559  -16.6385   24.4675 C   0  0  2  0  0  0  0  0  0  0  0  0
    9.3947  -15.5074   23.8497 N   0  0  0  0  0  0  0  0  0  0  0  0
   10.8049  -16.1211   25.6356 C   0  0  0  0  0  0  0  0  0  0  0  0
   11.6957  -15.2310   25.5388 O   0  0  0  0  0  0  0  0  0  0  0  0
   10.3212  -14.1410   28.5733 C   0  0  0  0  0  0  0  0  0  0  0  0
   10.5721  -15.5421   29.0296 C   0  0  1  0  0  0  0  0  0  0  0  0
    9.3447  -16.1820   29.1938 O   0  0  0  0  0  0  0  0  0  0  0  0
   11.4005  -16.3446   28.0530 C   0  0  2  0  0  0  0  0  0  0  0  0
   10.5261  -16.6298   26.9123 N   0  0  0  0  0  0  0  0  0  0  0  0
   11.9109  -17.5921   28.6169 C   0  0  0  0  0  0  0  0  0  0  0  0
   11.5811  -18.6929   28.1139 O   0  0  0  0  0  0  0  0  0  0  0  0
   12.7626  -17.6136   29.7076 O   0  0  0  0  0  0  0  0  0  0  0  0
  2  1  1  1
  3  2  1  0
  4  2  1  0
  5  6  1  6
  5  4  1  0
  7  5  1  0
  8  7  2  0
 10  9  1  6
 10 12  1  0
 11 10  1  0
 12 14  1  0
 12 13  1  6
 13  7  1  0
 14 20  1  0
 15 14  2  0
 17 18  1  0
 17 16  1  6
 19 17  1  0
 19 21  1  0
 19 20  1  6
 21 22  2  0
 21 23  1  0
M  END
$$$$
