LTT.pdb
     RDKit          3D

 23 22  0  0  1  0  0  0  0  0999 V2000
    6.5592  -11.3639   25.6565 C   0  0  0  0  0  0  0  0  0  0  0  0
    6.4524  -12.0995   27.0004 C   0  0  2  0  0  0  0  0  0  0  0  0
    7.2105  -11.2740   27.9862 C   0  0  0  0  0  0  0  0  0  0  0  0
    7.0016  -13.4742   26.7664 C   0  0  0  0  0  0  0  0  0  0  0  0
    6.1830  -14.2067   25.7467 C   0  0  2  0  0  0  0  0  0  0  0  0
    5.0483  -14.8099   26.4097 N   0  0  0  0  0  0  0  0  0  0  0  0
    7.0495  -15.2628   25.1185 C   0  0  0  0  0  0  0  0  0  0  0  0
    7.2719  -16.3390   25.7306 O   0  0  0  0  0  0  0  0  0  0  0  0
    8.9918  -14.5715   21.5269 C   0  0  0  0  0  0  0  0  0  0  0  0
    8.3610  -15.9443   21.7445 C   0  0  1  0  0  0  0  0  0  0  0  0
    9.0934  -16.9142   21.0887 O   0  0  0  0  0  0  0  0  0  0  0  0
    8.3489  -16.2053   23.2378 C   0  0  2  0  0  0  0  0  0  0  0  0
    7.6395  -15.0945   23.8387 N   0  0  0  0  0  0  0  0  0  0  0  0
    9.7237  -16.1938   23.7885 C   0  0  0  0  0  0  0  0  0  0  0  0
   10.3488  -15.1276   24.0482 O   0  0  0  0  0  0  0  0  0  0  0  0
   11.1452  -18.2968   26.8310 C   0  0  0  0  0  0  0  0  0  0  0  0
   11.8046  -18.6005   25.5244 C   0  0  1  0  0  0  0  0  0  0  0  0
   11.1634  -19.6955   24.9475 O   0  0  0  0  0  0  0  0  0  0  0  0
   11.7480  -17.4474   24.5492 C   0  0  2  0  0  0  0  0  0  0  0  0
   10.3750  -17.4101   24.0388 N   0  0  0  0  0  0  0  0  0  0  0  0
   12.6908  -17.5811   23.4409 C   0  0  0  0  0  0  0  0  0  0  0  0
   12.2692  -17.7235   22.2682 O   0  0  0  0  0  0  0  0  0  0  0  0
   14.0613  -17.5569   23.6324 O   0  0  0  0  0  0  0  0  0  0  0  0
  2  1  1  6
  3  2  1  0
  4  2  1  0
  5  6  1  1
  5  4  1  0
  7  5  1  0
  8  7  2  0
 10  9  1  1
 10 12  1  0
 11 10  1  0
 12 14  1  0
 12 13  1  1
 13  7  1  0
 14 20  1  0
 15 14  2  0
 17 18  1  0
 17 16  1  1
 19 17  1  0
 19 21  1  0
 19 20  1  6
 21 22  2  0
 21 23  1  0
M  END
$$$$
