DAV.pdb
     RDKit          3D

 21 20  0  0  1  0  0  0  0  0999 V2000
   16.8820  -11.9562  -16.9010 N   0  0  0  0  0  0  0  0  0  0  0  0
   16.6174  -10.5650  -16.6366 C   0  0  1  0  0  0  0  0  0  0  0  0
   15.9948  -10.4141  -15.2661 C   0  0  0  0  0  0  0  0  0  0  0  0
   14.6523  -11.0267  -15.2009 C   0  0  0  0  0  0  0  0  0  0  0  0
   13.8274  -10.7990  -16.1326 O   0  0  0  0  0  0  0  0  0  0  0  0
   17.8548   -9.7486  -16.6514 C   0  0  0  0  0  0  0  0  0  0  0  0
   18.9226  -10.1912  -16.1487 O   0  0  0  0  0  0  0  0  0  0  0  0
   14.2952  -11.8303  -14.1526 O   0  0  0  0  0  0  0  0  0  0  0  0
   19.0503   -6.4800  -18.1691 C   0  0  0  0  0  0  0  0  0  0  0  0
   19.1721   -7.6804  -17.2772 C   0  0  2  0  0  0  0  0  0  0  0  0
   17.9319   -8.4437  -17.2157 N   0  0  0  0  0  0  0  0  0  0  0  0
   19.6430   -7.3155  -15.9101 C   0  0  0  0  0  0  0  0  0  0  0  0
   18.7997   -7.0058  -15.0313 O   0  0  0  0  0  0  0  0  0  0  0  0
   21.2837   -9.3046  -13.5257 C   0  0  0  0  0  0  0  0  0  0  0  0
   22.2217   -8.1492  -13.6407 C   0  0  1  0  0  0  0  0  0  0  0  0
   23.4516   -8.4150  -14.4398 C   0  0  0  0  0  0  0  0  0  0  0  0
   21.4234   -6.9520  -14.1662 C   0  0  2  0  0  0  0  0  0  0  0  0
   21.0106   -7.2933  -15.5242 N   0  0  0  0  0  0  0  0  0  0  0  0
   22.1699   -5.6955  -14.1113 C   0  0  0  0  0  0  0  0  0  0  0  0
   22.5655   -5.1063  -15.2975 O   0  0  0  0  0  0  0  0  0  0  0  0
   22.4866   -5.0976  -13.0508 O   0  0  0  0  0  0  0  0  0  0  0  0
  2  3  1  0
  2  1  1  1
  3  4  1  0
  4  5  2  0
  4  8  1  0
  6 11  1  0
  6  2  1  0
  7  6  2  0
 10 11  1  0
 10  9  1  6
 12 10  1  0
 12 18  1  0
 13 12  2  0
 15 14  1  6
 15 16  1  0
 17 18  1  6
 17 15  1  0
 19 17  1  0
 20 19  1  0
 21 19  2  0
M  END
$$$$
