DAV.pdb
     RDKit          3D

 21 20  0  0  1  0  0  0  0  0999 V2000
   17.9551  -12.3457  -16.7628 N   0  0  0  0  0  0  0  0  0  0  0  0
   17.3672  -11.0330  -16.6832 C   0  0  1  0  0  0  0  0  0  0  0  0
   16.6737  -10.8630  -15.3495 C   0  0  0  0  0  0  0  0  0  0  0  0
   15.5364  -11.7933  -15.1980 C   0  0  0  0  0  0  0  0  0  0  0  0
   14.6727  -11.8627  -16.1196 O   0  0  0  0  0  0  0  0  0  0  0  0
   18.3830   -9.9586  -16.7924 C   0  0  0  0  0  0  0  0  0  0  0  0
   19.4902  -10.0585  -16.1984 O   0  0  0  0  0  0  0  0  0  0  0  0
   15.4090  -12.5733  -14.0810 O   0  0  0  0  0  0  0  0  0  0  0  0
   18.9440   -6.8050  -18.8150 C   0  0  0  0  0  0  0  0  0  0  0  0
   19.2150   -7.7353  -17.6694 C   0  0  2  0  0  0  0  0  0  0  0  0
   18.1942   -8.7691  -17.5515 N   0  0  0  0  0  0  0  0  0  0  0  0
   19.3838   -7.0021  -16.3818 C   0  0  0  0  0  0  0  0  0  0  0  0
   18.3697   -6.7327  -15.6900 O   0  0  0  0  0  0  0  0  0  0  0  0
   20.9541   -7.8302  -13.3375 C   0  0  0  0  0  0  0  0  0  0  0  0
   21.6600   -6.5666  -13.7023 C   0  0  1  0  0  0  0  0  0  0  0  0
   23.0361   -6.7493  -14.2452 C   0  0  0  0  0  0  0  0  0  0  0  0
   20.7496   -5.7825  -14.6527 C   0  0  2  0  0  0  0  0  0  0  0  0
   20.6406   -6.5777  -15.8720 N   0  0  0  0  0  0  0  0  0  0  0  0
   21.2266   -4.4250  -14.9151 C   0  0  0  0  0  0  0  0  0  0  0  0
   21.0027   -3.4475  -13.9638 O   0  0  0  0  0  0  0  0  0  0  0  0
   21.8351   -4.0698  -15.9572 O   0  0  0  0  0  0  0  0  0  0  0  0
  2  3  1  0
  2  1  1  1
  3  4  1  0
  4  5  2  0
  4  8  1  0
  6 11  1  0
  6  2  1  0
  7  6  2  0
 10 11  1  0
 10  9  1  6
 12 10  1  0
 12 18  1  0
 13 12  2  0
 15 14  1  6
 15 16  1  0
 17 18  1  6
 17 15  1  0
 19 17  1  0
 20 19  1  0
 21 19  2  0
M  END
$$$$
