DAV.pdb
     RDKit          3D

 21 20  0  0  1  0  0  0  0  0999 V2000
   19.1566  -10.2835  -19.2229 N   0  0  0  0  0  0  0  0  0  0  0  0
   19.2915  -10.6400  -17.8337 C   0  0  1  0  0  0  0  0  0  0  0  0
   19.7695  -12.0705  -17.7167 C   0  0  0  0  0  0  0  0  0  0  0  0
   18.7343  -13.0335  -18.1443 C   0  0  0  0  0  0  0  0  0  0  0  0
   17.6036  -12.5984  -18.5083 O   0  0  0  0  0  0  0  0  0  0  0  0
   20.2792   -9.7860  -17.1314 C   0  0  0  0  0  0  0  0  0  0  0  0
   20.5393   -9.9738  -15.9125 O   0  0  0  0  0  0  0  0  0  0  0  0
   18.9837  -14.3789  -18.1504 O   0  0  0  0  0  0  0  0  0  0  0  0
   22.6812   -6.9582  -17.9539 C   0  0  0  0  0  0  0  0  0  0  0  0
   21.8864   -7.8338  -17.0305 C   0  0  2  0  0  0  0  0  0  0  0  0
   20.9881   -8.7219  -17.7576 N   0  0  0  0  0  0  0  0  0  0  0  0
   21.1427   -7.0404  -16.0101 C   0  0  0  0  0  0  0  0  0  0  0  0
   20.0181   -6.5619  -16.3029 O   0  0  0  0  0  0  0  0  0  0  0  0
   19.7191   -7.9136  -12.9789 C   0  0  0  0  0  0  0  0  0  0  0  0
   20.5986   -6.7919  -12.5355 C   0  0  1  0  0  0  0  0  0  0  0  0
   21.8284   -7.2087  -11.8038 C   0  0  0  0  0  0  0  0  0  0  0  0
   20.9058   -5.9282  -13.7629 C   0  0  2  0  0  0  0  0  0  0  0  0
   21.6291   -6.7824  -14.6999 N   0  0  0  0  0  0  0  0  0  0  0  0
   21.6458   -4.7095  -13.4366 C   0  0  0  0  0  0  0  0  0  0  0  0
   20.9825   -3.6834  -12.7902 O   0  0  0  0  0  0  0  0  0  0  0  0
   22.8601   -4.5173  -13.7030 O   0  0  0  0  0  0  0  0  0  0  0  0
  2  3  1  0
  2  1  1  6
  3  4  1  0
  4  5  2  0
  4  8  1  0
  6 11  1  0
  6  2  1  0
  7  6  2  0
 10 11  1  0
 10  9  1  6
 12 10  1  0
 12 18  1  0
 13 12  2  0
 15 14  1  6
 15 16  1  0
 17 18  1  6
 17 15  1  0
 19 17  1  0
 20 19  1  0
 21 19  2  0
M  END
$$$$
