DAV.pdb
     RDKit          3D

 21 20  0  0  1  0  0  0  0  0999 V2000
   17.4486  -11.7321  -16.1527 N   0  0  0  0  0  0  0  0  0  0  0  0
   18.3620  -10.8423  -16.8230 C   0  0  1  0  0  0  0  0  0  0  0  0
   17.5880   -9.8643  -17.6790 C   0  0  0  0  0  0  0  0  0  0  0  0
   16.8736  -10.5420  -18.7801 C   0  0  0  0  0  0  0  0  0  0  0  0
   15.7617  -10.0794  -19.1673 O   0  0  0  0  0  0  0  0  0  0  0  0
   19.1706  -10.0482  -15.8671 C   0  0  0  0  0  0  0  0  0  0  0  0
   18.6145   -9.2667  -15.0494 O   0  0  0  0  0  0  0  0  0  0  0  0
   17.3975  -11.6548  -19.3795 O   0  0  0  0  0  0  0  0  0  0  0  0
   22.7933   -9.7486  -14.7788 C   0  0  0  0  0  0  0  0  0  0  0  0
   21.3737   -9.2758  -14.8903 C   0  0  2  0  0  0  0  0  0  0  0  0
   20.5917  -10.1038  -15.7999 N   0  0  0  0  0  0  0  0  0  0  0  0
   21.2923   -7.8371  -15.2741 C   0  0  0  0  0  0  0  0  0  0  0  0
   21.3365   -7.5214  -16.4898 O   0  0  0  0  0  0  0  0  0  0  0  0
   19.8774   -3.3339  -14.7336 C   0  0  0  0  0  0  0  0  0  0  0  0
   19.8029   -4.8163  -14.5743 C   0  0  1  0  0  0  0  0  0  0  0  0
   18.8054   -5.4935  -15.4507 C   0  0  0  0  0  0  0  0  0  0  0  0
   21.2186   -5.3750  -14.7494 C   0  0  2  0  0  0  0  0  0  0  0  0
   21.1652   -6.7747  -14.3387 N   0  0  0  0  0  0  0  0  0  0  0  0
   22.2299   -4.6176  -14.0126 C   0  0  0  0  0  0  0  0  0  0  0  0
   22.4868   -4.9582  -12.6979 O   0  0  0  0  0  0  0  0  0  0  0  0
   22.8963   -3.6629  -14.4891 O   0  0  0  0  0  0  0  0  0  0  0  0
  2  3  1  0
  2  1  1  1
  3  4  1  0
  4  5  2  0
  4  8  1  0
  6 11  1  0
  6  2  1  0
  7  6  2  0
 10 11  1  0
 10  9  1  6
 12 10  1  0
 12 18  1  0
 13 12  2  0
 15 14  1  6
 15 16  1  0
 17 18  1  1
 17 15  1  0
 19 17  1  0
 20 19  1  0
 21 19  2  0
M  END
$$$$
