DAV.pdb
     RDKit          3D

 21 20  0  0  1  0  0  0  0  0999 V2000
   25.4891  -20.5362  -16.4738 N   0  0  0  0  0  0  0  0  0  0  0  0
   25.4802  -19.1773  -15.9955 C   0  0  1  0  0  0  0  0  0  0  0  0
   24.7719  -18.2883  -16.9938 C   0  0  0  0  0  0  0  0  0  0  0  0
   25.4128  -18.3345  -18.3238 C   0  0  0  0  0  0  0  0  0  0  0  0
   25.2042  -19.3333  -19.0717 O   0  0  0  0  0  0  0  0  0  0  0  0
   24.7666  -19.0450  -14.7027 C   0  0  0  0  0  0  0  0  0  0  0  0
   24.6297  -17.9171  -14.1569 O   0  0  0  0  0  0  0  0  0  0  0  0
   26.2224  -17.3175  -18.7509 O   0  0  0  0  0  0  0  0  0  0  0  0
   22.1339  -20.5612  -12.7424 C   0  0  0  0  0  0  0  0  0  0  0  0
   23.5251  -19.9996  -12.7149 C   0  0  2  0  0  0  0  0  0  0  0  0
   24.1986  -20.1448  -13.9993 N   0  0  0  0  0  0  0  0  0  0  0  0
   24.3426  -20.5855  -11.6138 C   0  0  0  0  0  0  0  0  0  0  0  0
   25.0301  -21.6134  -11.8382 O   0  0  0  0  0  0  0  0  0  0  0  0
   26.4627  -20.2244   -7.2303 C   0  0  0  0  0  0  0  0  0  0  0  0
   25.7947  -19.5899   -8.4048 C   0  0  1  0  0  0  0  0  0  0  0  0
   26.6707  -18.7049   -9.2240 C   0  0  0  0  0  0  0  0  0  0  0  0
   25.1454  -20.7056   -9.2297 C   0  0  2  0  0  0  0  0  0  0  0  0
   24.3990  -20.0494  -10.2989 N   0  0  0  0  0  0  0  0  0  0  0  0
   24.3045  -21.5958   -8.4300 C   0  0  0  0  0  0  0  0  0  0  0  0
   22.9310  -21.4945   -8.5479 O   0  0  0  0  0  0  0  0  0  0  0  0
   24.7400  -22.4619   -7.6284 O   0  0  0  0  0  0  0  0  0  0  0  0
  2  3  1  0
  2  1  1  6
  3  4  1  0
  4  5  2  0
  4  8  1  0
  6 11  1  0
  6  2  1  0
  7  6  2  0
 10 11  1  0
 10  9  1  6
 12 10  1  0
 12 18  1  0
 13 12  2  0
 15 14  1  1
 15 16  1  0
 17 18  1  6
 17 15  1  0
 19 17  1  0
 20 19  1  0
 21 19  2  0
M  END
$$$$
