DAV.pdb
     RDKit          3D

 21 20  0  0  1  0  0  0  0  0999 V2000
   14.1467  -13.1107  -13.8947 N   0  0  0  0  0  0  0  0  0  0  0  0
   15.4321  -12.6794  -13.4077 C   0  0  1  0  0  0  0  0  0  0  0  0
   16.5001  -12.9988  -14.4304 C   0  0  0  0  0  0  0  0  0  0  0  0
   16.6726  -14.4548  -14.6098 C   0  0  0  0  0  0  0  0  0  0  0  0
   16.9733  -15.1657  -13.6075 O   0  0  0  0  0  0  0  0  0  0  0  0
   15.4758  -11.2173  -13.1661 C   0  0  0  0  0  0  0  0  0  0  0  0
   15.0529  -10.4094  -14.0362 O   0  0  0  0  0  0  0  0  0  0  0  0
   16.5120  -15.0368  -15.8376 O   0  0  0  0  0  0  0  0  0  0  0  0
   16.3813   -8.8432  -10.3400 C   0  0  0  0  0  0  0  0  0  0  0  0
   16.0281   -9.1894  -11.7566 C   0  0  2  0  0  0  0  0  0  0  0  0
   15.9822  -10.6302  -11.9720 N   0  0  0  0  0  0  0  0  0  0  0  0
   16.9396   -8.5316  -12.7366 C   0  0  0  0  0  0  0  0  0  0  0  0
   18.0243   -9.0901  -13.0385 O   0  0  0  0  0  0  0  0  0  0  0  0
   15.3823   -6.2429  -15.5234 C   0  0  0  0  0  0  0  0  0  0  0  0
   16.7082   -6.8966  -15.7311 C   0  0  1  0  0  0  0  0  0  0  0  0
   17.4647   -6.4190  -16.9233 C   0  0  0  0  0  0  0  0  0  0  0  0
   17.5053   -6.7558  -14.4305 C   0  0  2  0  0  0  0  0  0  0  0  0
   16.6598   -7.2889  -13.3667 N   0  0  0  0  0  0  0  0  0  0  0  0
   17.9332   -5.3826  -14.1651 C   0  0  0  0  0  0  0  0  0  0  0  0
   19.1480   -4.9570  -14.6689 O   0  0  0  0  0  0  0  0  0  0  0  0
   17.2715   -4.5429  -13.5022 O   0  0  0  0  0  0  0  0  0  0  0  0
  2  3  1  0
  2  1  1  6
  3  4  1  0
  4  5  2  0
  4  8  1  0
  6 11  1  0
  6  2  1  0
  7  6  2  0
 10 11  1  0
 10  9  1  1
 12 10  1  0
 12 18  1  0
 13 12  2  0
 15 14  1  1
 15 16  1  0
 17 18  1  1
 17 15  1  0
 19 17  1  0
 20 19  1  0
 21 19  2  0
M  END
$$$$
