DAV.pdb
     RDKit          3D

 21 20  0  0  1  0  0  0  0  0999 V2000
   17.3215  -11.0938  -17.2358 N   0  0  0  0  0  0  0  0  0  0  0  0
   17.1432  -10.5092  -15.9312 C   0  0  1  0  0  0  0  0  0  0  0  0
   17.8585  -11.3458  -14.8936 C   0  0  0  0  0  0  0  0  0  0  0  0
   17.3082  -12.7144  -14.8152 C   0  0  0  0  0  0  0  0  0  0  0  0
   16.0675  -12.8674  -14.6213 O   0  0  0  0  0  0  0  0  0  0  0  0
   17.7007   -9.1377  -15.8530 C   0  0  0  0  0  0  0  0  0  0  0  0
   18.8135   -8.8655  -16.3788 O   0  0  0  0  0  0  0  0  0  0  0  0
   18.1195  -13.8081  -14.9488 O   0  0  0  0  0  0  0  0  0  0  0  0
   16.4804   -5.7004  -14.8136 C   0  0  0  0  0  0  0  0  0  0  0  0
   17.5171   -6.6793  -15.2809 C   0  0  2  0  0  0  0  0  0  0  0  0
   17.0450   -8.0560  -15.1995 N   0  0  0  0  0  0  0  0  0  0  0  0
   18.8093   -6.5140  -14.5551 C   0  0  0  0  0  0  0  0  0  0  0  0
   18.9592   -7.0612  -13.4337 O   0  0  0  0  0  0  0  0  0  0  0  0
   22.1224   -5.2045  -16.5288 C   0  0  0  0  0  0  0  0  0  0  0  0
   22.2724   -6.0584  -15.3136 C   0  0  1  0  0  0  0  0  0  0  0  0
   23.6287   -6.0398  -14.6956 C   0  0  0  0  0  0  0  0  0  0  0  0
   21.1687   -5.6629  -14.3276 C   0  0  2  0  0  0  0  0  0  0  0  0
   19.9074   -5.7635  -15.0556 N   0  0  0  0  0  0  0  0  0  0  0  0
   21.3690   -4.3372  -13.7431 C   0  0  0  0  0  0  0  0  0  0  0  0
   20.6268   -3.2780  -14.2307 O   0  0  0  0  0  0  0  0  0  0  0  0
   22.1785   -4.0797  -12.8153 O   0  0  0  0  0  0  0  0  0  0  0  0
  2  3  1  0
  2  1  1  6
  3  4  1  0
  4  5  2  0
  4  8  1  0
  6 11  1  0
  6  2  1  0
  7  6  2  0
 10 11  1  0
 10  9  1  1
 12 10  1  0
 12 18  1  0
 13 12  2  0
 15 14  1  6
 15 16  1  0
 17 18  1  6
 17 15  1  0
 19 17  1  0
 20 19  1  0
 21 19  2  0
M  END
$$$$
