DAV.pdb
     RDKit          3D

 21 20  0  0  1  0  0  0  0  0999 V2000
   20.3965  -11.5398  -18.1516 N   0  0  0  0  0  0  0  0  0  0  0  0
   19.4955  -10.4785  -17.7814 C   0  0  1  0  0  0  0  0  0  0  0  0
   18.1511  -11.0582  -17.4006 C   0  0  0  0  0  0  0  0  0  0  0  0
   17.3231  -11.3540  -18.5875 C   0  0  0  0  0  0  0  0  0  0  0  0
   17.8037  -11.1459  -19.7390 O   0  0  0  0  0  0  0  0  0  0  0  0
   19.9898   -9.7076  -16.6155 C   0  0  0  0  0  0  0  0  0  0  0  0
   19.2023   -8.9974  -15.9342 O   0  0  0  0  0  0  0  0  0  0  0  0
   16.0532  -11.8460  -18.4551 O   0  0  0  0  0  0  0  0  0  0  0  0
   23.1013   -9.5605  -14.4792 C   0  0  0  0  0  0  0  0  0  0  0  0
   21.8002   -9.0141  -14.9888 C   0  0  2  0  0  0  0  0  0  0  0  0
   21.3478   -9.7086  -16.1878 N   0  0  0  0  0  0  0  0  0  0  0  0
   21.8631   -7.5416  -15.2162 C   0  0  0  0  0  0  0  0  0  0  0  0
   22.3436   -7.1054  -16.2925 O   0  0  0  0  0  0  0  0  0  0  0  0
   19.6350   -5.1533  -16.0275 C   0  0  0  0  0  0  0  0  0  0  0  0
   20.1397   -4.5939  -14.7389 C   0  0  1  0  0  0  0  0  0  0  0  0
   19.2457   -4.8112  -13.5661 C   0  0  0  0  0  0  0  0  0  0  0  0
   21.5521   -5.1429  -14.5145 C   0  0  2  0  0  0  0  0  0  0  0  0
   21.4068   -6.5761  -14.2785 N   0  0  0  0  0  0  0  0  0  0  0  0
   22.2638   -4.4699  -13.4283 C   0  0  0  0  0  0  0  0  0  0  0  0
   22.8008   -3.2179  -13.6623 O   0  0  0  0  0  0  0  0  0  0  0  0
   22.4295   -4.9492  -12.2771 O   0  0  0  0  0  0  0  0  0  0  0  0
  2  3  1  0
  2  1  1  1
  3  4  1  0
  4  5  2  0
  4  8  1  0
  6 11  1  0
  6  2  1  0
  7  6  2  0
 10 11  1  0
 10  9  1  6
 12 10  1  0
 12 18  1  0
 13 12  2  0
 15 14  1  6
 15 16  1  0
 17 18  1  1
 17 15  1  0
 19 17  1  0
 20 19  1  0
 21 19  2  0
M  END
$$$$
