DAV.pdb
     RDKit          3D

 21 20  0  0  1  0  0  0  0  0999 V2000
   19.6365  -11.8123  -19.3407 N   0  0  0  0  0  0  0  0  0  0  0  0
   20.0234  -11.6374  -17.9641 C   0  0  1  0  0  0  0  0  0  0  0  0
   21.5004  -11.9244  -17.8074 C   0  0  0  0  0  0  0  0  0  0  0  0
   21.7993  -13.3642  -17.9477 C   0  0  0  0  0  0  0  0  0  0  0  0
   20.8411  -14.1819  -18.0638 O   0  0  0  0  0  0  0  0  0  0  0  0
   19.7904  -10.2521  -17.4902 C   0  0  0  0  0  0  0  0  0  0  0  0
   20.1557   -9.2655  -18.1845 O   0  0  0  0  0  0  0  0  0  0  0  0
   23.0901  -13.8179  -17.9531 O   0  0  0  0  0  0  0  0  0  0  0  0
   17.8128   -8.4914  -14.7990 C   0  0  0  0  0  0  0  0  0  0  0  0
   18.9123   -8.5687  -15.8170 C   0  0  2  0  0  0  0  0  0  0  0  0
   19.1567   -9.9374  -16.2547 N   0  0  0  0  0  0  0  0  0  0  0  0
   20.1697   -7.9308  -15.3311 C   0  0  0  0  0  0  0  0  0  0  0  0
   20.9743   -8.6052  -14.6402 O   0  0  0  0  0  0  0  0  0  0  0  0
   23.4667   -4.3416  -15.7747 C   0  0  0  0  0  0  0  0  0  0  0  0
   22.2674   -5.0760  -16.2751 C   0  0  1  0  0  0  0  0  0  0  0  0
   22.4558   -5.7732  -17.5790 C   0  0  0  0  0  0  0  0  0  0  0  0
   21.8020   -6.0203  -15.1622 C   0  0  2  0  0  0  0  0  0  0  0  0
   20.5286   -6.5826  -15.6016 N   0  0  0  0  0  0  0  0  0  0  0  0
   21.7001   -5.3652  -13.8585 C   0  0  0  0  0  0  0  0  0  0  0  0
   22.7985   -5.3827  -13.0195 O   0  0  0  0  0  0  0  0  0  0  0  0
   20.6733   -4.7767  -13.4322 O   0  0  0  0  0  0  0  0  0  0  0  0
  2  3  1  0
  2  1  1  6
  3  4  1  0
  4  5  2  0
  4  8  1  0
  6 11  1  0
  6  2  1  0
  7  6  2  0
 10 11  1  0
 10  9  1  1
 12 10  1  0
 12 18  1  0
 13 12  2  0
 15 14  1  1
 15 16  1  0
 17 18  1  6
 17 15  1  0
 19 17  1  0
 20 19  1  0
 21 19  2  0
M  END
$$$$
