DAV.pdb
     RDKit          3D

 21 20  0  0  1  0  0  0  0  0999 V2000
   18.1849   -8.6986  -17.1642 N   0  0  0  0  0  0  0  0  0  0  0  0
   19.3892   -7.9334  -17.3622 C   0  0  1  0  0  0  0  0  0  0  0  0
   19.4403   -7.4185  -18.7838 C   0  0  0  0  0  0  0  0  0  0  0  0
   19.5300   -8.5190  -19.7649 C   0  0  0  0  0  0  0  0  0  0  0  0
   18.9031   -8.4189  -20.8592 O   0  0  0  0  0  0  0  0  0  0  0  0
   19.4567   -6.7559  -16.4638 C   0  0  0  0  0  0  0  0  0  0  0  0
   18.4518   -6.0124  -16.3025 O   0  0  0  0  0  0  0  0  0  0  0  0
   20.2772   -9.6353  -19.5044 O   0  0  0  0  0  0  0  0  0  0  0  0
   21.8320   -5.2996  -13.8990 C   0  0  0  0  0  0  0  0  0  0  0  0
   20.6637   -5.2375  -14.8384 C   0  0  2  0  0  0  0  0  0  0  0  0
   20.6231   -6.3847  -15.7367 N   0  0  0  0  0  0  0  0  0  0  0  0
   20.6295   -3.9582  -15.6040 C   0  0  0  0  0  0  0  0  0  0  0  0
   21.3037   -3.8549  -16.6596 O   0  0  0  0  0  0  0  0  0  0  0  0
   17.8868   -2.4442  -17.2911 C   0  0  0  0  0  0  0  0  0  0  0  0
   18.3285   -1.3772  -16.3454 C   0  0  1  0  0  0  0  0  0  0  0  0
   17.4962   -1.2425  -15.1162 C   0  0  0  0  0  0  0  0  0  0  0  0
   19.8091   -1.6160  -16.0327 C   0  0  2  0  0  0  0  0  0  0  0  0
   19.8700   -2.8224  -15.2131 N   0  0  0  0  0  0  0  0  0  0  0  0
   20.4512   -0.4718  -15.3864 C   0  0  0  0  0  0  0  0  0  0  0  0
   20.8913    0.5748  -16.1748 O   0  0  0  0  0  0  0  0  0  0  0  0
   20.6386   -0.3629  -14.1473 O   0  0  0  0  0  0  0  0  0  0  0  0
  2  3  1  0
  2  1  1  6
  3  4  1  0
  4  5  2  0
  4  8  1  0
  6 11  1  0
  6  2  1  0
  7  6  2  0
 10 11  1  0
 10  9  1  6
 12 10  1  0
 12 18  1  0
 13 12  2  0
 15 14  1  1
 15 16  1  0
 17 18  1  1
 17 15  1  0
 19 17  1  0
 20 19  1  0
 21 19  2  0
M  END
$$$$
