DAV.pdb
     RDKit          3D

 21 20  0  0  1  0  0  0  0  0999 V2000
   15.9663  -10.3833  -16.8289 N   0  0  0  0  0  0  0  0  0  0  0  0
   16.2353   -9.9216  -15.4910 C   0  0  1  0  0  0  0  0  0  0  0  0
   17.0710  -10.9454  -14.7549 C   0  0  0  0  0  0  0  0  0  0  0  0
   16.3171  -12.1895  -14.4981 C   0  0  0  0  0  0  0  0  0  0  0  0
   15.0580  -12.1333  -14.3895 O   0  0  0  0  0  0  0  0  0  0  0  0
   16.9911   -8.6462  -15.4818 C   0  0  0  0  0  0  0  0  0  0  0  0
   18.1100   -8.5582  -16.0554 O   0  0  0  0  0  0  0  0  0  0  0  0
   16.9611  -13.3907  -14.3775 O   0  0  0  0  0  0  0  0  0  0  0  0
   16.3958   -5.0421  -14.4537 C   0  0  0  0  0  0  0  0  0  0  0  0
   17.2392   -6.1900  -14.9252 C   0  0  2  0  0  0  0  0  0  0  0  0
   16.5280   -7.4598  -14.8454 N   0  0  0  0  0  0  0  0  0  0  0  0
   18.5414   -6.2608  -14.2018 C   0  0  0  0  0  0  0  0  0  0  0  0
   18.5842   -6.7906  -13.0629 O   0  0  0  0  0  0  0  0  0  0  0  0
   22.0432   -6.1730  -16.1861 C   0  0  0  0  0  0  0  0  0  0  0  0
   21.9332   -6.7755  -14.8247 C   0  0  1  0  0  0  0  0  0  0  0  0
   23.2346   -7.0560  -14.1543 C   0  0  0  0  0  0  0  0  0  0  0  0
   21.0206   -5.8728  -13.9886 C   0  0  2  0  0  0  0  0  0  0  0  0
   19.7644   -5.7592  -14.7234 N   0  0  0  0  0  0  0  0  0  0  0  0
   21.6142   -4.5683  -13.6972 C   0  0  0  0  0  0  0  0  0  0  0  0
   21.1605   -3.4627  -14.3920 O   0  0  0  0  0  0  0  0  0  0  0  0
   22.5219   -4.3689  -12.8494 O   0  0  0  0  0  0  0  0  0  0  0  0
  2  3  1  0
  2  1  1  6
  3  4  1  0
  4  5  2  0
  4  8  1  0
  6 11  1  0
  6  2  1  0
  7  6  2  0
 10 11  1  0
 10  9  1  1
 12 10  1  0
 12 18  1  0
 13 12  2  0
 15 14  1  6
 15 16  1  0
 17 18  1  6
 17 15  1  0
 19 17  1  0
 20 19  1  0
 21 19  2  0
M  END
$$$$
