EFE.pdb
     RDKit          3D

 30 30  0  0  1  0  0  0  0  0999 V2000
   29.2358  -22.1289  -17.1895 N   0  0  0  0  0  0  0  0  0  0  0  0
   29.1128  -20.8605  -16.4504 C   0  0  1  0  0  0  0  0  0  0  0  0
   28.1998  -19.9295  -17.1714 C   0  0  0  0  0  0  0  0  0  0  0  0
   26.8843  -20.5825  -17.4756 C   0  0  0  0  0  0  0  0  0  0  0  0
   26.8536  -21.1334  -18.8338 C   0  0  0  0  0  0  0  0  0  0  0  0
   27.6052  -20.7081  -19.7343 O   0  0  0  0  0  0  0  0  0  0  0  0
   28.5326  -21.2154  -15.1364 C   0  0  0  0  0  0  0  0  0  0  0  0
   27.7013  -22.1275  -14.9805 O   0  0  0  0  0  0  0  0  0  0  0  0
   25.9701  -22.1544  -19.1417 O   0  0  0  0  0  0  0  0  0  0  0  0
   28.8929  -20.5257  -13.9443 N   0  0  0  0  0  0  0  0  0  0  0  0
   28.3674  -20.7618  -12.6500 C   0  0  1  0  0  0  0  0  0  0  0  0
   29.2000  -20.4160  -11.4890 C   0  0  0  0  0  0  0  0  0  0  0  0
   30.2772  -21.3585  -11.1588 C   0  0  0  0  0  0  0  0  0  0  0  0
   30.8839  -22.1910  -12.0689 C   0  0  0  0  0  0  0  0  0  0  0  0
   31.8993  -23.0246  -11.6098 C   0  0  0  0  0  0  0  0  0  0  0  0
   32.2902  -23.0174  -10.2721 C   0  0  0  0  0  0  0  0  0  0  0  0
   31.6730  -22.1766   -9.3722 C   0  0  0  0  0  0  0  0  0  0  0  0
   30.6688  -21.3485   -9.8144 C   0  0  0  0  0  0  0  0  0  0  0  0
   26.9297  -20.3328  -12.5423 C   0  0  0  0  0  0  0  0  0  0  0  0
   26.6176  -19.2020  -12.9705 O   0  0  0  0  0  0  0  0  0  0  0  0
   25.9439  -21.1570  -11.9871 N   0  0  0  0  0  0  0  0  0  0  0  0
   24.5194  -20.7609  -11.8182 C   0  0  1  0  0  0  0  0  0  0  0  0
   23.6927  -21.4602  -12.8162 C   0  0  0  0  0  0  0  0  0  0  0  0
   22.2233  -21.3042  -12.7642 C   0  0  0  0  0  0  0  0  0  0  0  0
   21.5572  -20.5012  -13.7893 C   0  0  0  0  0  0  0  0  0  0  0  0
   20.5892  -20.9525  -14.5023 O   0  0  0  0  0  0  0  0  0  0  0  0
   24.2303  -21.0533  -10.4087 C   0  0  0  0  0  0  0  0  0  0  0  0
   24.9599  -21.7873   -9.7207 O   0  0  0  0  0  0  0  0  0  0  0  0
   21.9180  -19.1697  -14.0787 O   0  0  0  0  0  0  0  0  0  0  0  0
   23.1170  -20.5293   -9.7407 O   0  0  0  0  0  0  0  0  0  0  0  0
  2  7  1  0
  2  1  1  6
  3  4  1  0
  3  2  1  0
  4  5  1  0
  5  6  2  0
  5  9  1  0
  7  8  2  0
 10  7  1  0
 10 11  1  0
 11 12  1  1
 12 13  1  0
 13 18  2  0
 14 13  1  0
 14 15  2  0
 15 16  1  0
 16 17  2  0
 18 17  1  0
 19 21  1  0
 19 11  1  0
 20 19  2  0
 22 23  1  6
 22 27  1  0
 22 21  1  0
 24 25  1  0
 24 23  1  0
 25 29  1  0
 26 25  2  0
 27 30  1  0
 28 27  2  0
M  END
$$$$
