EFE.pdb
     RDKit          3D

 30 30  0  0  1  0  0  0  0  0999 V2000
   19.7464  -12.7351  -17.7262 N   0  0  0  0  0  0  0  0  0  0  0  0
   20.0746  -11.3582  -18.1346 C   0  0  1  0  0  0  0  0  0  0  0  0
   18.8535  -10.6616  -18.6285 C   0  0  0  0  0  0  0  0  0  0  0  0
   18.3777  -11.2481  -19.9243 C   0  0  0  0  0  0  0  0  0  0  0  0
   17.2494  -10.4939  -20.4788 C   0  0  0  0  0  0  0  0  0  0  0  0
   16.2567  -11.0636  -20.9753 O   0  0  0  0  0  0  0  0  0  0  0  0
   20.5776  -10.6865  -16.9160 C   0  0  0  0  0  0  0  0  0  0  0  0
   20.1701  -10.9530  -15.7712 O   0  0  0  0  0  0  0  0  0  0  0  0
   17.2721   -9.1094  -20.4591 O   0  0  0  0  0  0  0  0  0  0  0  0
   21.5772   -9.6746  -16.9733 N   0  0  0  0  0  0  0  0  0  0  0  0
   22.1784   -9.0288  -15.8649 C   0  0  1  0  0  0  0  0  0  0  0  0
   23.5231   -9.4594  -15.4561 C   0  0  0  0  0  0  0  0  0  0  0  0
   23.6732  -10.8792  -15.1107 C   0  0  0  0  0  0  0  0  0  0  0  0
   23.2826  -11.4305  -13.9135 C   0  0  0  0  0  0  0  0  0  0  0  0
   23.4799  -12.7960  -13.7327 C   0  0  0  0  0  0  0  0  0  0  0  0
   24.0541  -13.5812  -14.7308 C   0  0  0  0  0  0  0  0  0  0  0  0
   24.4396  -13.0141  -15.9255 C   0  0  0  0  0  0  0  0  0  0  0  0
   24.2494  -11.6659  -16.1155 C   0  0  0  0  0  0  0  0  0  0  0  0
   21.9830   -7.5381  -15.9114 C   0  0  0  0  0  0  0  0  0  0  0  0
   22.4324   -6.9143  -16.8956 O   0  0  0  0  0  0  0  0  0  0  0  0
   21.3160   -6.8403  -14.8978 N   0  0  0  0  0  0  0  0  0  0  0  0
   21.0532   -5.3757  -14.9231 C   0  0  1  0  0  0  0  0  0  0  0  0
   19.6043   -5.1339  -14.8200 C   0  0  0  0  0  0  0  0  0  0  0  0
   19.1148   -3.7408  -14.7444 C   0  0  0  0  0  0  0  0  0  0  0  0
   17.6785   -3.4985  -14.6116 C   0  0  0  0  0  0  0  0  0  0  0  0
   16.8181   -4.4499  -14.5509 O   0  0  0  0  0  0  0  0  0  0  0  0
   21.8842   -4.8432  -13.8361 C   0  0  0  0  0  0  0  0  0  0  0  0
   22.1302   -5.4971  -12.8083 O   0  0  0  0  0  0  0  0  0  0  0  0
   17.1197   -2.2066  -14.5369 O   0  0  0  0  0  0  0  0  0  0  0  0
   22.4568   -3.5663  -13.8781 O   0  0  0  0  0  0  0  0  0  0  0  0
  2  7  1  0
  2  1  1  1
  3  4  1  0
  3  2  1  0
  4  5  1  0
  5  6  2  0
  5  9  1  0
  7  8  2  0
 10  7  1  0
 10 11  1  0
 11 12  1  6
 12 13  1  0
 13 18  2  0
 14 13  1  0
 14 15  2  0
 15 16  1  0
 16 17  2  0
 18 17  1  0
 19 21  1  0
 19 11  1  0
 20 19  2  0
 22 23  1  1
 22 27  1  0
 22 21  1  0
 24 25  1  0
 24 23  1  0
 25 29  1  0
 26 25  2  0
 27 30  1  0
 28 27  2  0
M  END
$$$$
