EFE.pdb
     RDKit          3D

 30 30  0  0  1  0  0  0  0  0999 V2000
   28.0970  -23.0001  -16.5620 N   0  0  0  0  0  0  0  0  0  0  0  0
   28.2924  -21.6808  -15.9361 C   0  0  1  0  0  0  0  0  0  0  0  0
   28.1486  -20.6011  -16.9528 C   0  0  0  0  0  0  0  0  0  0  0  0
   27.8980  -21.1679  -18.3186 C   0  0  0  0  0  0  0  0  0  0  0  0
   26.5378  -21.7005  -18.4434 C   0  0  0  0  0  0  0  0  0  0  0  0
   25.5579  -21.1343  -17.9181 O   0  0  0  0  0  0  0  0  0  0  0  0
   27.2262  -21.5570  -14.9178 C   0  0  0  0  0  0  0  0  0  0  0  0
   26.2822  -22.3606  -14.8156 O   0  0  0  0  0  0  0  0  0  0  0  0
   26.3186  -22.8647  -19.1606 O   0  0  0  0  0  0  0  0  0  0  0  0
   27.2095  -20.4930  -13.9721 N   0  0  0  0  0  0  0  0  0  0  0  0
   26.2484  -20.2975  -12.9498 C   0  0  1  0  0  0  0  0  0  0  0  0
   26.5906  -19.3990  -11.8379 C   0  0  0  0  0  0  0  0  0  0  0  0
   27.1238  -20.0379  -10.6274 C   0  0  0  0  0  0  0  0  0  0  0  0
   26.4848  -20.0458   -9.4103 C   0  0  0  0  0  0  0  0  0  0  0  0
   27.1095  -20.7012   -8.3536 C   0  0  0  0  0  0  0  0  0  0  0  0
   28.3421  -21.3298   -8.5210 C   0  0  0  0  0  0  0  0  0  0  0  0
   28.9695  -21.3138   -9.7473 C   0  0  0  0  0  0  0  0  0  0  0  0
   28.3617  -20.6695  -10.7986 C   0  0  0  0  0  0  0  0  0  0  0  0
   24.8657  -20.1055  -13.5100 C   0  0  0  0  0  0  0  0  0  0  0  0
   24.7128  -19.2795  -14.4342 O   0  0  0  0  0  0  0  0  0  0  0  0
   23.7610  -20.8212  -13.0340 N   0  0  0  0  0  0  0  0  0  0  0  0
   22.3827  -20.6946  -13.5810 C   0  0  1  0  0  0  0  0  0  0  0  0
   22.0152  -21.9370  -14.2808 C   0  0  0  0  0  0  0  0  0  0  0  0
   20.9780  -22.8104  -13.6913 C   0  0  0  0  0  0  0  0  0  0  0  0
   19.7915  -23.1378  -14.4815 C   0  0  0  0  0  0  0  0  0  0  0  0
   19.8083  -24.0026  -15.4307 O   0  0  0  0  0  0  0  0  0  0  0  0
   21.5658  -20.3341  -12.4156 C   0  0  0  0  0  0  0  0  0  0  0  0
   21.9626  -20.5027  -11.2500 O   0  0  0  0  0  0  0  0  0  0  0  0
   18.5347  -22.5365  -14.2679 O   0  0  0  0  0  0  0  0  0  0  0  0
   20.2865  -19.7772  -12.5320 O   0  0  0  0  0  0  0  0  0  0  0  0
  2  7  1  0
  2  1  1  6
  3  4  1  0
  3  2  1  0
  4  5  1  0
  5  6  2  0
  5  9  1  0
  7  8  2  0
 10  7  1  0
 10 11  1  0
 11 12  1  6
 12 13  1  0
 13 18  2  0
 14 13  1  0
 14 15  2  0
 15 16  1  0
 16 17  2  0
 18 17  1  0
 19 21  1  0
 19 11  1  0
 20 19  2  0
 22 23  1  1
 22 27  1  0
 22 21  1  0
 24 25  1  0
 24 23  1  0
 25 29  1  0
 26 25  2  0
 27 30  1  0
 28 27  2  0
M  END
$$$$
