EFE.pdb
     RDKit          3D

 30 30  0  0  1  0  0  0  0  0999 V2000
   20.3651  -14.0547  -17.5077 N   0  0  0  0  0  0  0  0  0  0  0  0
   20.7110  -12.8104  -18.2165 C   0  0  1  0  0  0  0  0  0  0  0  0
   19.7933  -12.6024  -19.3717 C   0  0  0  0  0  0  0  0  0  0  0  0
   20.0149  -13.6347  -20.4370 C   0  0  0  0  0  0  0  0  0  0  0  0
   19.1520  -13.4074  -21.6001 C   0  0  0  0  0  0  0  0  0  0  0  0
   18.1107  -14.0687  -21.7872 O   0  0  0  0  0  0  0  0  0  0  0  0
   20.5310  -11.7224  -17.2300 C   0  0  0  0  0  0  0  0  0  0  0  0
   19.4579  -11.5066  -16.6390 O   0  0  0  0  0  0  0  0  0  0  0  0
   19.4896  -12.4353  -22.5269 O   0  0  0  0  0  0  0  0  0  0  0  0
   21.5907  -10.8362  -16.8861 N   0  0  0  0  0  0  0  0  0  0  0  0
   21.4933   -9.7046  -16.0393 C   0  0  1  0  0  0  0  0  0  0  0  0
   22.6613   -9.3467  -15.2217 C   0  0  0  0  0  0  0  0  0  0  0  0
   22.5104   -8.1717  -14.3533 C   0  0  0  0  0  0  0  0  0  0  0  0
   22.0267   -8.2161  -13.0673 C   0  0  0  0  0  0  0  0  0  0  0  0
   21.9499   -7.0195  -12.3611 C   0  0  0  0  0  0  0  0  0  0  0  0
   22.3498   -5.8145  -12.9362 C   0  0  0  0  0  0  0  0  0  0  0  0
   22.8333   -5.7866  -14.2258 C   0  0  0  0  0  0  0  0  0  0  0  0
   22.9138   -6.9626  -14.9330 C   0  0  0  0  0  0  0  0  0  0  0  0
   20.8299   -8.5442  -16.7292 C   0  0  0  0  0  0  0  0  0  0  0  0
   21.2332   -8.2251  -17.8673 O   0  0  0  0  0  0  0  0  0  0  0  0
   19.7834   -7.8245  -16.1409 N   0  0  0  0  0  0  0  0  0  0  0  0
   19.0944   -6.6728  -16.7839 C   0  0  1  0  0  0  0  0  0  0  0  0
   17.7035   -7.0429  -17.0949 C   0  0  0  0  0  0  0  0  0  0  0  0
   16.7964   -6.0152  -17.6493 C   0  0  0  0  0  0  0  0  0  0  0  0
   15.4618   -6.4124  -18.0970 C   0  0  0  0  0  0  0  0  0  0  0  0
   15.0160   -7.6100  -17.9692 O   0  0  0  0  0  0  0  0  0  0  0  0
   19.2807   -5.5679  -15.8351 C   0  0  0  0  0  0  0  0  0  0  0  0
   19.4596   -5.7601  -14.6204 O   0  0  0  0  0  0  0  0  0  0  0  0
   14.5552   -5.5185  -18.7019 O   0  0  0  0  0  0  0  0  0  0  0  0
   19.2700   -4.2241  -16.2278 O   0  0  0  0  0  0  0  0  0  0  0  0
  2  7  1  0
  2  1  1  1
  3  4  1  0
  3  2  1  0
  4  5  1  0
  5  6  2  0
  5  9  1  0
  7  8  2  0
 10  7  1  0
 10 11  1  0
 11 12  1  6
 12 13  1  0
 13 18  2  0
 14 13  1  0
 14 15  2  0
 15 16  1  0
 16 17  2  0
 18 17  1  0
 19 21  1  0
 19 11  1  0
 20 19  2  0
 22 23  1  1
 22 27  1  0
 22 21  1  0
 24 25  1  0
 24 23  1  0
 25 29  1  0
 26 25  2  0
 27 30  1  0
 28 27  2  0
M  END
$$$$
