EFE.pdb
     RDKit          3D

 30 30  0  0  1  0  0  0  0  0999 V2000
   16.1874  -18.8160    3.5749 N   0  0  0  0  0  0  0  0  0  0  0  0
   15.6604  -17.7455    4.4390 C   0  0  1  0  0  0  0  0  0  0  0  0
   14.9539  -18.3309    5.6130 C   0  0  0  0  0  0  0  0  0  0  0  0
   13.6579  -18.9678    5.2076 C   0  0  0  0  0  0  0  0  0  0  0  0
   13.8315  -20.3841    4.8716 C   0  0  0  0  0  0  0  0  0  0  0  0
   14.7577  -21.0669    5.3540 O   0  0  0  0  0  0  0  0  0  0  0  0
   16.8410  -16.9788    4.8946 C   0  0  0  0  0  0  0  0  0  0  0  0
   17.9836  -17.4649    4.9709 O   0  0  0  0  0  0  0  0  0  0  0  0
   12.9513  -20.9954    3.9944 O   0  0  0  0  0  0  0  0  0  0  0  0
   16.7465  -15.6122    5.2820 N   0  0  0  0  0  0  0  0  0  0  0  0
   17.8052  -14.8048    5.7659 C   0  0  1  0  0  0  0  0  0  0  0  0
   17.8230  -13.3842    5.3889 C   0  0  0  0  0  0  0  0  0  0  0  0
   18.9511  -12.5919    5.8963 C   0  0  0  0  0  0  0  0  0  0  0  0
   20.1723  -12.4954    5.2727 C   0  0  0  0  0  0  0  0  0  0  0  0
   21.1440  -11.6972    5.8686 C   0  0  0  0  0  0  0  0  0  0  0  0
   20.8901  -11.0169    7.0582 C   0  0  0  0  0  0  0  0  0  0  0  0
   19.6607  -11.1231    7.6707 C   0  0  0  0  0  0  0  0  0  0  0  0
   18.6929  -11.9086    7.0910 C   0  0  0  0  0  0  0  0  0  0  0  0
   18.0965  -15.0736    7.2169 C   0  0  0  0  0  0  0  0  0  0  0  0
   17.1317  -15.2555    7.9888 O   0  0  0  0  0  0  0  0  0  0  0  0
   19.4020  -15.1295    7.7188 N   0  0  0  0  0  0  0  0  0  0  0  0
   19.7404  -15.3949    9.1435 C   0  0  1  0  0  0  0  0  0  0  0  0
   20.5853  -16.5976    9.2326 C   0  0  0  0  0  0  0  0  0  0  0  0
   21.0430  -17.0537   10.5625 C   0  0  0  0  0  0  0  0  0  0  0  0
   21.8672  -18.2584   10.6557 C   0  0  0  0  0  0  0  0  0  0  0  0
   22.1134  -19.0095    9.6435 O   0  0  0  0  0  0  0  0  0  0  0  0
   20.3399  -14.1384    9.6100 C   0  0  0  0  0  0  0  0  0  0  0  0
   21.0832  -13.4508    8.8895 O   0  0  0  0  0  0  0  0  0  0  0  0
   22.4602  -18.6941   11.8580 O   0  0  0  0  0  0  0  0  0  0  0  0
   20.1191  -13.6263   10.8942 O   0  0  0  0  0  0  0  0  0  0  0  0
  2  7  1  0
  2  1  1  6
  3  4  1  0
  3  2  1  0
  4  5  1  0
  5  6  2  0
  5  9  1  0
  7  8  2  0
 10  7  1  0
 10 11  1  0
 11 12  1  1
 12 13  1  0
 13 18  2  0
 14 13  1  0
 14 15  2  0
 15 16  1  0
 16 17  2  0
 18 17  1  0
 19 21  1  0
 19 11  1  0
 20 19  2  0
 22 23  1  6
 22 27  1  0
 22 21  1  0
 24 25  1  0
 24 23  1  0
 25 29  1  0
 26 25  2  0
 27 30  1  0
 28 27  2  0
M  END
$$$$
