EFE.pdb
     RDKit          3D

 30 30  0  0  1  0  0  0  0  0999 V2000
   26.9836  -21.5140  -13.7241 N   0  0  0  0  0  0  0  0  0  0  0  0
   26.3673  -20.3595  -13.0476 C   0  0  1  0  0  0  0  0  0  0  0  0
   25.0106  -20.0984  -13.6056 C   0  0  0  0  0  0  0  0  0  0  0  0
   25.0913  -19.5078  -14.9819 C   0  0  0  0  0  0  0  0  0  0  0  0
   25.4308  -20.5195  -15.9870 C   0  0  0  0  0  0  0  0  0  0  0  0
   24.7247  -21.5324  -16.1667 O   0  0  0  0  0  0  0  0  0  0  0  0
   26.2593  -20.7396  -11.6218 C   0  0  0  0  0  0  0  0  0  0  0  0
   25.5430  -21.6720  -11.2156 O   0  0  0  0  0  0  0  0  0  0  0  0
   26.5647  -20.3611  -16.7660 O   0  0  0  0  0  0  0  0  0  0  0  0
   26.9793  -20.0526  -10.6038 N   0  0  0  0  0  0  0  0  0  0  0  0
   26.8915  -20.2922   -9.2103 C   0  0  1  0  0  0  0  0  0  0  0  0
   27.9471  -19.7477   -8.3444 C   0  0  0  0  0  0  0  0  0  0  0  0
   27.7816  -19.9683   -6.9016 C   0  0  0  0  0  0  0  0  0  0  0  0
   28.0319  -21.1617   -6.2669 C   0  0  0  0  0  0  0  0  0  0  0  0
   27.8388  -21.2173   -4.8899 C   0  0  0  0  0  0  0  0  0  0  0  0
   27.4061  -20.1016   -4.1756 C   0  0  0  0  0  0  0  0  0  0  0  0
   27.1602  -18.9124   -4.8260 C   0  0  0  0  0  0  0  0  0  0  0  0
   27.3477  -18.8456   -6.1862 C   0  0  0  0  0  0  0  0  0  0  0  0
   25.4921  -20.0948   -8.6950 C   0  0  0  0  0  0  0  0  0  0  0  0
   24.9142  -19.0184   -8.9539 O   0  0  0  0  0  0  0  0  0  0  0  0
   24.8265  -21.0732   -7.9474 N   0  0  0  0  0  0  0  0  0  0  0  0
   23.3629  -21.0694   -7.6782 C   0  0  1  0  0  0  0  0  0  0  0  0
   22.6379  -21.4742   -8.8943 C   0  0  0  0  0  0  0  0  0  0  0  0
   21.1659  -21.6018   -8.8408 C   0  0  0  0  0  0  0  0  0  0  0  0
   20.3707  -21.1389   -9.9778 C   0  0  0  0  0  0  0  0  0  0  0  0
   20.3609  -19.9141  -10.3635 O   0  0  0  0  0  0  0  0  0  0  0  0
   23.2113  -21.9402   -6.5059 C   0  0  0  0  0  0  0  0  0  0  0  0
   23.9678  -22.9029   -6.2929 O   0  0  0  0  0  0  0  0  0  0  0  0
   19.5534  -21.9941  -10.7444 O   0  0  0  0  0  0  0  0  0  0  0  0
   22.2083  -21.7506   -5.5477 O   0  0  0  0  0  0  0  0  0  0  0  0
  2  7  1  0
  2  1  1  6
  3  4  1  0
  3  2  1  0
  4  5  1  0
  5  6  2  0
  5  9  1  0
  7  8  2  0
 10  7  1  0
 10 11  1  0
 11 12  1  1
 12 13  1  0
 13 18  2  0
 14 13  1  0
 14 15  2  0
 15 16  1  0
 16 17  2  0
 18 17  1  0
 19 21  1  0
 19 11  1  0
 20 19  2  0
 22 23  1  6
 22 27  1  0
 22 21  1  0
 24 25  1  0
 24 23  1  0
 25 29  1  0
 26 25  2  0
 27 30  1  0
 28 27  2  0
M  END
$$$$
