EFE.pdb
     RDKit          3D

 30 30  0  0  1  0  0  0  0  0999 V2000
   26.4263  -11.1287  -20.6488 N   0  0  0  0  0  0  0  0  0  0  0  0
   26.4011   -9.8914  -19.8495 C   0  0  1  0  0  0  0  0  0  0  0  0
   25.8498   -8.7668  -20.6567 C   0  0  0  0  0  0  0  0  0  0  0  0
   24.4635   -9.0717  -21.1413 C   0  0  0  0  0  0  0  0  0  0  0  0
   23.5493   -7.9493  -20.9099 C   0  0  0  0  0  0  0  0  0  0  0  0
   23.9664   -6.8040  -20.6436 O   0  0  0  0  0  0  0  0  0  0  0  0
   25.5086  -10.1714  -18.7032 C   0  0  0  0  0  0  0  0  0  0  0  0
   24.6012  -11.0217  -18.7354 O   0  0  0  0  0  0  0  0  0  0  0  0
   22.1812   -8.1506  -20.9846 O   0  0  0  0  0  0  0  0  0  0  0  0
   25.6308   -9.4753  -17.4674 N   0  0  0  0  0  0  0  0  0  0  0  0
   24.9047   -9.7435  -16.2809 C   0  0  1  0  0  0  0  0  0  0  0  0
   25.6613  -10.0459  -15.0574 C   0  0  0  0  0  0  0  0  0  0  0  0
   26.4033  -11.3136  -15.0495 C   0  0  0  0  0  0  0  0  0  0  0  0
   25.8804  -12.5145  -14.6324 C   0  0  0  0  0  0  0  0  0  0  0  0
   26.7024  -13.6358  -14.6915 C   0  0  0  0  0  0  0  0  0  0  0  0
   28.0128  -13.5470  -15.1578 C   0  0  0  0  0  0  0  0  0  0  0  0
   28.5221  -12.3363  -15.5731 C   0  0  0  0  0  0  0  0  0  0  0  0
   27.7192  -11.2218  -15.5194 C   0  0  0  0  0  0  0  0  0  0  0  0
   23.7639   -8.7814  -16.0926 C   0  0  0  0  0  0  0  0  0  0  0  0
   24.0156   -7.5582  -16.1035 O   0  0  0  0  0  0  0  0  0  0  0  0
   22.4446   -9.2131  -15.9127 N   0  0  0  0  0  0  0  0  0  0  0  0
   21.2753   -8.3012  -15.7868 C   0  0  1  0  0  0  0  0  0  0  0  0
   20.0312   -9.0699  -15.9585 C   0  0  0  0  0  0  0  0  0  0  0  0
   18.7345   -8.3802  -15.7885 C   0  0  0  0  0  0  0  0  0  0  0  0
   17.4970   -9.1347  -15.9852 C   0  0  0  0  0  0  0  0  0  0  0  0
   17.0814  -10.0146  -15.1472 O   0  0  0  0  0  0  0  0  0  0  0  0
   21.4670   -7.6494  -14.4852 C   0  0  0  0  0  0  0  0  0  0  0  0
   21.6541   -8.2964  -13.4408 O   0  0  0  0  0  0  0  0  0  0  0  0
   16.6586   -8.9596  -17.1047 O   0  0  0  0  0  0  0  0  0  0  0  0
   21.4529   -6.2584  -14.3268 O   0  0  0  0  0  0  0  0  0  0  0  0
  2  7  1  0
  2  1  1  6
  3  4  1  0
  3  2  1  0
  4  5  1  0
  5  6  2  0
  5  9  1  0
  7  8  2  0
 10  7  1  0
 10 11  1  0
 11 12  1  1
 12 13  1  0
 13 18  2  0
 14 13  1  0
 14 15  2  0
 15 16  1  0
 16 17  2  0
 18 17  1  0
 19 21  1  0
 19 11  1  0
 20 19  2  0
 22 23  1  1
 22 27  1  0
 22 21  1  0
 24 25  1  0
 24 23  1  0
 25 29  1  0
 26 25  2  0
 27 30  1  0
 28 27  2  0
M  END
$$$$
