EFE.pdb
     RDKit          3D

 30 30  0  0  1  0  0  0  0  0999 V2000
   28.7454  -21.7832  -14.9361 N   0  0  0  0  0  0  0  0  0  0  0  0
   27.8632  -20.6237  -14.7178 C   0  0  1  0  0  0  0  0  0  0  0  0
   27.3260  -20.1320  -16.0177 C   0  0  0  0  0  0  0  0  0  0  0  0
   28.1456  -18.9949  -16.5514 C   0  0  0  0  0  0  0  0  0  0  0  0
   28.0355  -17.8031  -15.7048 C   0  0  0  0  0  0  0  0  0  0  0  0
   29.0115  -17.3523  -15.0717 O   0  0  0  0  0  0  0  0  0  0  0  0
   26.7547  -21.1157  -13.8703 C   0  0  0  0  0  0  0  0  0  0  0  0
   26.1823  -22.2041  -14.0579 O   0  0  0  0  0  0  0  0  0  0  0  0
   26.8200  -17.1489  -15.5936 O   0  0  0  0  0  0  0  0  0  0  0  0
   26.2616  -20.3644  -12.7662 N   0  0  0  0  0  0  0  0  0  0  0  0
   25.2227  -20.7551  -11.8858 C   0  0  1  0  0  0  0  0  0  0  0  0
   25.2958  -20.3125  -10.4860 C   0  0  0  0  0  0  0  0  0  0  0  0
   26.5242  -20.6591   -9.7588 C   0  0  0  0  0  0  0  0  0  0  0  0
   27.3877  -21.6619  -10.1309 C   0  0  0  0  0  0  0  0  0  0  0  0
   28.5191  -21.8680   -9.3474 C   0  0  0  0  0  0  0  0  0  0  0  0
   28.7709  -21.0850   -8.2222 C   0  0  0  0  0  0  0  0  0  0  0  0
   27.8963  -20.0833   -7.8628 C   0  0  0  0  0  0  0  0  0  0  0  0
   26.7753  -19.8703   -8.6295 C   0  0  0  0  0  0  0  0  0  0  0  0
   23.8666  -20.6105  -12.5205 C   0  0  0  0  0  0  0  0  0  0  0  0
   23.6482  -19.6010  -13.2226 O   0  0  0  0  0  0  0  0  0  0  0  0
   22.8575  -21.5658  -12.3522 N   0  0  0  0  0  0  0  0  0  0  0  0
   21.5215  -21.4958  -13.0041 C   0  0  1  0  0  0  0  0  0  0  0  0
   20.9061  -22.8336  -13.0096 C   0  0  0  0  0  0  0  0  0  0  0  0
   19.5251  -22.9840  -13.5158 C   0  0  0  0  0  0  0  0  0  0  0  0
   18.9335  -24.3201  -13.5805 C   0  0  0  0  0  0  0  0  0  0  0  0
   17.8024  -24.6037  -13.0426 O   0  0  0  0  0  0  0  0  0  0  0  0
   20.8109  -20.4520  -12.2550 C   0  0  0  0  0  0  0  0  0  0  0  0
   21.0223  -20.2412  -11.0487 O   0  0  0  0  0  0  0  0  0  0  0  0
   19.5505  -25.4039  -14.2374 O   0  0  0  0  0  0  0  0  0  0  0  0
   19.8479  -19.6226  -12.8423 O   0  0  0  0  0  0  0  0  0  0  0  0
  2  7  1  0
  2  1  1  6
  3  4  1  0
  3  2  1  0
  4  5  1  0
  5  6  2  0
  5  9  1  0
  7  8  2  0
 10  7  1  0
 10 11  1  0
 11 12  1  1
 12 13  1  0
 13 18  2  0
 14 13  1  0
 14 15  2  0
 15 16  1  0
 16 17  2  0
 18 17  1  0
 19 21  1  0
 19 11  1  0
 20 19  2  0
 22 23  1  1
 22 27  1  0
 22 21  1  0
 24 25  1  0
 24 23  1  0
 25 29  1  0
 26 25  2  0
 27 30  1  0
 28 27  2  0
M  END
$$$$
