EFE.pdb
     RDKit          3D

 30 30  0  0  1  0  0  0  0  0999 V2000
   27.9189  -22.0925  -13.9254 N   0  0  0  0  0  0  0  0  0  0  0  0
   28.4555  -20.9731  -13.1320 C   0  0  1  0  0  0  0  0  0  0  0  0
   28.0227  -19.6725  -13.7162 C   0  0  0  0  0  0  0  0  0  0  0  0
   26.6164  -19.7476  -14.2323 C   0  0  0  0  0  0  0  0  0  0  0  0
   26.4826  -19.0953  -15.5383 C   0  0  0  0  0  0  0  0  0  0  0  0
   27.0623  -19.5298  -16.5541 O   0  0  0  0  0  0  0  0  0  0  0  0
   27.8831  -21.1301  -11.7768 C   0  0  0  0  0  0  0  0  0  0  0  0
   26.7831  -21.6682  -11.5577 O   0  0  0  0  0  0  0  0  0  0  0  0
   25.6949  -17.9632  -15.6637 O   0  0  0  0  0  0  0  0  0  0  0  0
   28.5639  -20.6686  -10.6148 N   0  0  0  0  0  0  0  0  0  0  0  0
   28.1026  -20.7705   -9.2792 C   0  0  1  0  0  0  0  0  0  0  0  0
   29.0763  -20.5908   -8.1928 C   0  0  0  0  0  0  0  0  0  0  0  0
   28.5253  -20.2263   -6.8808 C   0  0  0  0  0  0  0  0  0  0  0  0
   27.8389  -19.0630   -6.6252 C   0  0  0  0  0  0  0  0  0  0  0  0
   27.3666  -18.8589   -5.3323 C   0  0  0  0  0  0  0  0  0  0  0  0
   27.5809  -19.8012   -4.3279 C   0  0  0  0  0  0  0  0  0  0  0  0
   28.2699  -20.9625   -4.6001 C   0  0  0  0  0  0  0  0  0  0  0  0
   28.7411  -21.1750   -5.8739 C   0  0  0  0  0  0  0  0  0  0  0  0
   26.7986  -20.0475   -9.0802 C   0  0  0  0  0  0  0  0  0  0  0  0
   26.7187  -18.8597   -9.4579 O   0  0  0  0  0  0  0  0  0  0  0  0
   25.6852  -20.6623   -8.4957 N   0  0  0  0  0  0  0  0  0  0  0  0
   24.2779  -20.2349   -8.7224 C   0  0  1  0  0  0  0  0  0  0  0  0
   23.9003  -20.5065  -10.1196 C   0  0  0  0  0  0  0  0  0  0  0  0
   22.5280  -20.1839  -10.5657 C   0  0  0  0  0  0  0  0  0  0  0  0
   22.1526  -20.4452  -11.9549 C   0  0  0  0  0  0  0  0  0  0  0  0
   22.7017  -21.3680  -12.6592 O   0  0  0  0  0  0  0  0  0  0  0  0
   23.5158  -20.9466   -7.6888 C   0  0  0  0  0  0  0  0  0  0  0  0
   22.2916  -20.7908   -7.5423 O   0  0  0  0  0  0  0  0  0  0  0  0
   21.1595  -19.7113  -12.6348 O   0  0  0  0  0  0  0  0  0  0  0  0
   24.1099  -21.8480   -6.7973 O   0  0  0  0  0  0  0  0  0  0  0  0
  2  7  1  0
  2  1  1  6
  3  4  1  0
  3  2  1  0
  4  5  1  0
  5  6  2  0
  5  9  1  0
  7  8  2  0
 10  7  1  0
 10 11  1  0
 11 12  1  1
 12 13  1  0
 13 18  2  0
 14 13  1  0
 14 15  2  0
 15 16  1  0
 16 17  2  0
 18 17  1  0
 19 21  1  0
 19 11  1  0
 20 19  2  0
 22 23  1  6
 22 27  1  0
 22 21  1  0
 24 25  1  0
 24 23  1  0
 25 29  1  0
 26 25  2  0
 27 30  1  0
 28 27  2  0
M  END
$$$$
