EFE.pdb
     RDKit          3D

 30 30  0  0  1  0  0  0  0  0999 V2000
   14.8345  -22.5174    1.5513 N   0  0  0  0  0  0  0  0  0  0  0  0
   14.2171  -21.6541    2.5731 C   0  0  1  0  0  0  0  0  0  0  0  0
   13.8302  -22.4606    3.7647 C   0  0  0  0  0  0  0  0  0  0  0  0
   13.1516  -21.6133    4.7998 C   0  0  0  0  0  0  0  0  0  0  0  0
   11.8252  -21.1739    4.3561 C   0  0  0  0  0  0  0  0  0  0  0  0
   11.6700  -20.1559    3.6518 O   0  0  0  0  0  0  0  0  0  0  0  0
   15.2558  -20.6698    2.9488 C   0  0  0  0  0  0  0  0  0  0  0  0
   16.4207  -20.9866    3.2490 O   0  0  0  0  0  0  0  0  0  0  0  0
   10.7032  -21.8984    4.7220 O   0  0  0  0  0  0  0  0  0  0  0  0
   14.9871  -19.2724    2.9924 N   0  0  0  0  0  0  0  0  0  0  0  0
   15.9268  -18.2480    3.2653 C   0  0  1  0  0  0  0  0  0  0  0  0
   15.9105  -17.0472    2.4177 C   0  0  0  0  0  0  0  0  0  0  0  0
   16.9496  -16.0455    2.6908 C   0  0  0  0  0  0  0  0  0  0  0  0
   18.2636  -16.1680    2.3061 C   0  0  0  0  0  0  0  0  0  0  0  0
   19.1334  -15.1305    2.6278 C   0  0  0  0  0  0  0  0  0  0  0  0
   18.6896  -14.0034    3.3171 C   0  0  0  0  0  0  0  0  0  0  0  0
   17.3694  -13.8951    3.6950 C   0  0  0  0  0  0  0  0  0  0  0  0
   16.5009  -14.9138    3.3825 C   0  0  0  0  0  0  0  0  0  0  0  0
   16.0451  -17.9747    4.7398 C   0  0  0  0  0  0  0  0  0  0  0  0
   15.0037  -17.9929    5.4288 O   0  0  0  0  0  0  0  0  0  0  0  0
   17.2745  -17.7090    5.3538 N   0  0  0  0  0  0  0  0  0  0  0  0
   17.4370  -17.3886    6.7980 C   0  0  1  0  0  0  0  0  0  0  0  0
   18.6675  -18.0178    7.3062 C   0  0  0  0  0  0  0  0  0  0  0  0
   19.0090  -17.8692    8.7371 C   0  0  0  0  0  0  0  0  0  0  0  0
   20.2343  -18.4872    9.2431 C   0  0  0  0  0  0  0  0  0  0  0  0
   21.2800  -17.8060    9.5457 O   0  0  0  0  0  0  0  0  0  0  0  0
   17.3832  -15.9223    6.8486 C   0  0  0  0  0  0  0  0  0  0  0  0
   17.7747  -15.2115    5.9072 O   0  0  0  0  0  0  0  0  0  0  0  0
   20.3700  -19.8760    9.4429 O   0  0  0  0  0  0  0  0  0  0  0  0
   16.8897  -15.2214    7.9556 O   0  0  0  0  0  0  0  0  0  0  0  0
  2  7  1  0
  2  1  1  6
  3  4  1  0
  3  2  1  0
  4  5  1  0
  5  6  2  0
  5  9  1  0
  7  8  2  0
 10  7  1  0
 10 11  1  0
 11 12  1  6
 12 13  1  0
 13 18  2  0
 14 13  1  0
 14 15  2  0
 15 16  1  0
 16 17  2  0
 18 17  1  0
 19 21  1  0
 19 11  1  0
 20 19  2  0
 22 23  1  6
 22 27  1  0
 22 21  1  0
 24 25  1  0
 24 23  1  0
 25 29  1  0
 26 25  2  0
 27 30  1  0
 28 27  2  0
M  END
$$$$
