EFE.pdb
     RDKit          3D

 30 30  0  0  1  0  0  0  0  0999 V2000
   31.3276  -37.1113    1.0946 N   0  0  0  0  0  0  0  0  0  0  0  0
   30.2014  -36.4262    0.4368 C   0  0  1  0  0  0  0  0  0  0  0  0
   29.2817  -37.4222   -0.1815 C   0  0  0  0  0  0  0  0  0  0  0  0
   29.6329  -37.6704   -1.6184 C   0  0  0  0  0  0  0  0  0  0  0  0
   29.4019  -36.4826   -2.4459 C   0  0  0  0  0  0  0  0  0  0  0  0
   30.3395  -35.7536   -2.8282 O   0  0  0  0  0  0  0  0  0  0  0  0
   29.4966  -35.6902    1.5095 C   0  0  0  0  0  0  0  0  0  0  0  0
   29.3800  -36.1207    2.6707 O   0  0  0  0  0  0  0  0  0  0  0  0
   28.1119  -36.1465   -2.8211 O   0  0  0  0  0  0  0  0  0  0  0  0
   28.8956  -34.4202    1.2804 N   0  0  0  0  0  0  0  0  0  0  0  0
   28.2167  -33.6306    2.2410 C   0  0  1  0  0  0  0  0  0  0  0  0
   28.2147  -32.1713    2.0639 C   0  0  0  0  0  0  0  0  0  0  0  0
   27.4136  -31.4018    3.0250 C   0  0  0  0  0  0  0  0  0  0  0  0
   26.0982  -31.0522    2.8322 C   0  0  0  0  0  0  0  0  0  0  0  0
   25.4648  -30.3286    3.8381 C   0  0  0  0  0  0  0  0  0  0  0  0
   26.1395  -29.9691    5.0034 C   0  0  0  0  0  0  0  0  0  0  0  0
   27.4575  -30.3276    5.1821 C   0  0  0  0  0  0  0  0  0  0  0  0
   28.0934  -31.0427    4.1952 C   0  0  0  0  0  0  0  0  0  0  0  0
   26.8831  -34.2206    2.6097 C   0  0  0  0  0  0  0  0  0  0  0  0
   26.0966  -34.5233    1.6881 O   0  0  0  0  0  0  0  0  0  0  0  0
   26.5060  -34.4415    3.9394 N   0  0  0  0  0  0  0  0  0  0  0  0
   25.2210  -35.0686    4.3520 C   0  0  1  0  0  0  0  0  0  0  0  0
   25.4786  -36.4219    4.8721 C   0  0  0  0  0  0  0  0  0  0  0  0
   26.1648  -36.5698    6.1734 C   0  0  0  0  0  0  0  0  0  0  0  0
   26.3373  -37.9081    6.7377 C   0  0  0  0  0  0  0  0  0  0  0  0
   25.4316  -38.4850    7.4421 O   0  0  0  0  0  0  0  0  0  0  0  0
   24.6380  -34.1055    5.2945 C   0  0  0  0  0  0  0  0  0  0  0  0
   23.4377  -34.1351    5.6151 O   0  0  0  0  0  0  0  0  0  0  0  0
   27.5056  -38.6755    6.5554 O   0  0  0  0  0  0  0  0  0  0  0  0
   25.3882  -33.0888    5.8975 O   0  0  0  0  0  0  0  0  0  0  0  0
  2  7  1  0
  2  1  1  1
  3  4  1  0
  3  2  1  0
  4  5  1  0
  5  6  2  0
  5  9  1  0
  7  8  2  0
 10  7  1  0
 10 11  1  0
 11 12  1  6
 12 13  1  0
 13 18  2  0
 14 13  1  0
 14 15  2  0
 15 16  1  0
 16 17  2  0
 18 17  1  0
 19 21  1  0
 19 11  1  0
 20 19  2  0
 22 23  1  1
 22 27  1  0
 22 21  1  0
 24 25  1  0
 24 23  1  0
 25 29  1  0
 26 25  2  0
 27 30  1  0
 28 27  2  0
M  END
$$$$
