EFE.pdb
     RDKit          3D

 30 30  0  0  1  0  0  0  0  0999 V2000
   27.3071  -22.2903  -17.8672 N   0  0  0  0  0  0  0  0  0  0  0  0
   27.8465  -21.2714  -16.9499 C   0  0  1  0  0  0  0  0  0  0  0  0
   27.8050  -19.9267  -17.5905 C   0  0  0  0  0  0  0  0  0  0  0  0
   26.4398  -19.6223  -18.1318 C   0  0  0  0  0  0  0  0  0  0  0  0
   26.3768  -18.2816  -18.7214 C   0  0  0  0  0  0  0  0  0  0  0  0
   26.0658  -17.2792  -18.0468 O   0  0  0  0  0  0  0  0  0  0  0  0
   26.9623  -21.2899  -15.7637 C   0  0  0  0  0  0  0  0  0  0  0  0
   25.7935  -21.7149  -15.7893 O   0  0  0  0  0  0  0  0  0  0  0  0
   26.6671  -18.1070  -20.0642 O   0  0  0  0  0  0  0  0  0  0  0  0
   27.3974  -20.8152  -14.4940 N   0  0  0  0  0  0  0  0  0  0  0  0
   26.6489  -20.8373  -13.2914 C   0  0  1  0  0  0  0  0  0  0  0  0
   27.3549  -20.5738  -12.0294 C   0  0  0  0  0  0  0  0  0  0  0  0
   26.5165  -20.4536  -10.8293 C   0  0  0  0  0  0  0  0  0  0  0  0
   26.1548  -19.2587  -10.2537 C   0  0  0  0  0  0  0  0  0  0  0  0
   25.3463  -19.3020   -9.1220 C   0  0  0  0  0  0  0  0  0  0  0  0
   24.9160  -20.5152   -8.5876 C   0  0  0  0  0  0  0  0  0  0  0  0
   25.2864  -21.7042   -9.1764 C   0  0  0  0  0  0  0  0  0  0  0  0
   26.0847  -21.6738  -10.2951 C   0  0  0  0  0  0  0  0  0  0  0  0
   25.3338  -20.1218  -13.4369 C   0  0  0  0  0  0  0  0  0  0  0  0
   25.3495  -18.9234  -13.7882 O   0  0  0  0  0  0  0  0  0  0  0  0
   24.1085  -20.7548  -13.1975 N   0  0  0  0  0  0  0  0  0  0  0  0
   22.7928  -20.0595  -13.1987 C   0  0  1  0  0  0  0  0  0  0  0  0
   22.1400  -20.2439  -14.5057 C   0  0  0  0  0  0  0  0  0  0  0  0
   22.5150  -19.3535  -15.6249 C   0  0  0  0  0  0  0  0  0  0  0  0
   21.9047  -19.5657  -16.9370 C   0  0  0  0  0  0  0  0  0  0  0  0
   20.9697  -20.4234  -17.1357 O   0  0  0  0  0  0  0  0  0  0  0  0
   22.0925  -20.6146  -12.0337 C   0  0  0  0  0  0  0  0  0  0  0  0
   21.2762  -19.9507  -11.3723 O   0  0  0  0  0  0  0  0  0  0  0  0
   22.2874  -18.8490  -18.0889 O   0  0  0  0  0  0  0  0  0  0  0  0
   22.2926  -21.9257  -11.5852 O   0  0  0  0  0  0  0  0  0  0  0  0
  2  7  1  0
  2  1  1  6
  3  4  1  0
  3  2  1  0
  4  5  1  0
  5  6  2  0
  5  9  1  0
  7  8  2  0
 10  7  1  0
 10 11  1  0
 11 12  1  1
 12 13  1  0
 13 18  2  0
 14 13  1  0
 14 15  2  0
 15 16  1  0
 16 17  2  0
 18 17  1  0
 19 21  1  0
 19 11  1  0
 20 19  2  0
 22 23  1  6
 22 27  1  0
 22 21  1  0
 24 25  1  0
 24 23  1  0
 25 29  1  0
 26 25  2  0
 27 30  1  0
 28 27  2  0
M  END
$$$$
