SNQ.pdb
     RDKit          3D

 24 23  0  0  1  0  0  0  0  0999 V2000
   10.7818  -19.3152   19.7592 O   0  0  0  0  0  0  0  0  0  0  0  0
    9.8140  -19.1225   18.7552 C   0  0  0  0  0  0  0  0  0  0  0  0
   10.0828  -17.7738   18.1521 C   0  0  2  0  0  0  0  0  0  0  0  0
   11.3843  -17.8280   17.5013 N   0  0  0  0  0  0  0  0  0  0  0  0
   10.0857  -16.6629   19.1089 C   0  0  0  0  0  0  0  0  0  0  0  0
   11.1115  -16.0174   19.4441 O   0  0  0  0  0  0  0  0  0  0  0  0
    7.5901  -12.2227   21.6240 N   0  0  0  0  0  0  0  0  0  0  0  0
    7.2491  -13.5839   21.7975 C   0  0  0  0  0  0  0  0  0  0  0  0
    6.7419  -13.8971   22.9102 O   0  0  0  0  0  0  0  0  0  0  0  0
    7.4324  -14.6439   20.8083 C   0  0  0  0  0  0  0  0  0  0  0  0
    8.8009  -15.2623   20.7772 C   0  0  2  0  0  0  0  0  0  0  0  0
    8.8576  -16.2386   19.7390 N   0  0  0  0  0  0  0  0  0  0  0  0
    9.2455  -15.7752   22.0894 C   0  0  0  0  0  0  0  0  0  0  0  0
    9.3139  -17.0209   22.2442 O   0  0  0  0  0  0  0  0  0  0  0  0
    9.0522  -12.9297   27.5491 N   0  0  0  0  0  0  0  0  0  0  0  0
    9.7844  -14.0917   27.9731 C   0  0  0  0  0  0  0  0  0  0  0  0
   10.0986  -14.2881   29.1680 O   0  0  0  0  0  0  0  0  0  0  0  0
   10.1599  -15.0673   26.9187 C   0  0  0  0  0  0  0  0  0  0  0  0
    9.6246  -14.5997   25.5842 C   0  0  0  0  0  0  0  0  0  0  0  0
   10.0500  -15.5096   24.4601 C   0  0  2  0  0  0  0  0  0  0  0  0
    9.6016  -14.9581   23.1904 N   0  0  0  0  0  0  0  0  0  0  0  0
    9.3899  -16.8323   24.7307 C   0  0  0  0  0  0  0  0  0  0  0  0
   10.0017  -17.8049   25.1851 O   0  0  0  0  0  0  0  0  0  0  0  0
    8.0362  -16.9248   24.4454 O   0  0  0  0  0  0  0  0  0  0  0  0
  2  1  1  0
  2  3  1  0
  3  4  1  1
  5  3  1  0
  6  5  2  0
  7  8  1  0
  8  9  2  0
  8 10  1  0
 11 10  1  1
 11 12  1  0
 11 13  1  0
 12  5  1  0
 13 21  1  0
 13 14  2  0
 15 16  1  0
 16 18  1  0
 17 16  2  0
 19 18  1  0
 20 19  1  1
 21 20  1  0
 22 20  1  0
 22 24  1  0
 23 22  2  0
M  END
$$$$
