SNQ.pdb
     RDKit          3D

 24 23  0  0  1  0  0  0  0  0999 V2000
    4.2334  -18.6164   17.7501 O   0  0  0  0  0  0  0  0  0  0  0  0
    4.6432  -17.9930   16.5562 C   0  0  0  0  0  0  0  0  0  0  0  0
    4.8820  -19.0896   15.5585 C   0  0  2  0  0  0  0  0  0  0  0  0
    3.6112  -19.7594   15.3199 N   0  0  0  0  0  0  0  0  0  0  0  0
    5.8674  -20.0930   15.9731 C   0  0  0  0  0  0  0  0  0  0  0  0
    5.7257  -21.3330   15.8194 O   0  0  0  0  0  0  0  0  0  0  0  0
    9.4205  -23.4300   17.1966 N   0  0  0  0  0  0  0  0  0  0  0  0
    9.4995  -22.4974   16.1367 C   0  0  0  0  0  0  0  0  0  0  0  0
   10.5114  -22.5855   15.3871 O   0  0  0  0  0  0  0  0  0  0  0  0
    8.5197  -21.4543   15.8409 C   0  0  0  0  0  0  0  0  0  0  0  0
    8.1165  -20.6029   17.0109 C   0  0  2  0  0  0  0  0  0  0  0  0
    7.1011  -19.6875   16.6047 N   0  0  0  0  0  0  0  0  0  0  0  0
    9.2575  -19.9513   17.6861 C   0  0  0  0  0  0  0  0  0  0  0  0
   10.1366  -19.4090   16.9694 O   0  0  0  0  0  0  0  0  0  0  0  0
   11.1239  -21.7874   23.2193 N   0  0  0  0  0  0  0  0  0  0  0  0
   12.1901  -20.8525   22.9845 C   0  0  0  0  0  0  0  0  0  0  0  0
   13.1584  -20.7282   23.7669 O   0  0  0  0  0  0  0  0  0  0  0  0
   12.0958  -20.0252   21.7551 C   0  0  0  0  0  0  0  0  0  0  0  0
   10.8384  -20.3877   20.9977 C   0  0  0  0  0  0  0  0  0  0  0  0
   10.7193  -19.6160   19.7082 C   0  0  2  0  0  0  0  0  0  0  0  0
    9.4314  -19.8944   19.0908 N   0  0  0  0  0  0  0  0  0  0  0  0
   11.8447  -20.0976   18.8364 C   0  0  0  0  0  0  0  0  0  0  0  0
   11.9501  -21.2722   18.4677 O   0  0  0  0  0  0  0  0  0  0  0  0
   12.7841  -19.1534   18.4507 O   0  0  0  0  0  0  0  0  0  0  0  0
  2  1  1  0
  2  3  1  0
  3  4  1  1
  5  3  1  0
  6  5  2  0
  7  8  1  0
  8  9  2  0
  8 10  1  0
 11 10  1  6
 11 12  1  0
 11 13  1  0
 12  5  1  0
 13 21  1  0
 13 14  2  0
 15 16  1  0
 16 18  1  0
 17 16  2  0
 19 18  1  0
 20 19  1  1
 21 20  1  0
 22 20  1  0
 22 24  1  0
 23 22  2  0
M  END
$$$$
