SNQ.pdb
     RDKit          3D

 24 23  0  0  1  0  0  0  0  0999 V2000
    9.5569  -14.6629   17.1720 O   0  0  0  0  0  0  0  0  0  0  0  0
    8.2695  -14.1452   16.9345 C   0  0  0  0  0  0  0  0  0  0  0  0
    7.8148  -13.5166   18.2202 C   0  0  2  0  0  0  0  0  0  0  0  0
    8.4605  -12.2164   18.3334 N   0  0  0  0  0  0  0  0  0  0  0  0
    8.1187  -14.2947   19.4252 C   0  0  0  0  0  0  0  0  0  0  0  0
    9.0392  -14.0175   20.2358 O   0  0  0  0  0  0  0  0  0  0  0  0
    6.8893  -19.9328   21.6027 N   0  0  0  0  0  0  0  0  0  0  0  0
    6.9646  -18.5384   21.8242 C   0  0  0  0  0  0  0  0  0  0  0  0
    7.2972  -18.1726   22.9858 O   0  0  0  0  0  0  0  0  0  0  0  0
    6.6934  -17.4993   20.8330 C   0  0  0  0  0  0  0  0  0  0  0  0
    7.6700  -16.3582   20.8167 C   0  0  2  0  0  0  0  0  0  0  0  0
    7.3417  -15.4670   19.7527 N   0  0  0  0  0  0  0  0  0  0  0  0
    9.0822  -16.7915   20.8039 C   0  0  0  0  0  0  0  0  0  0  0  0
    9.5204  -17.3462   19.7642 O   0  0  0  0  0  0  0  0  0  0  0  0
   12.5084  -13.9600   18.8051 N   0  0  0  0  0  0  0  0  0  0  0  0
   13.6336  -14.5187   19.5036 C   0  0  0  0  0  0  0  0  0  0  0  0
   14.8158  -14.2855   19.1673 O   0  0  0  0  0  0  0  0  0  0  0  0
   13.3326  -15.3992   20.6607 C   0  0  0  0  0  0  0  0  0  0  0  0
   11.8395  -15.4302   20.8967 C   0  0  0  0  0  0  0  0  0  0  0  0
   11.4258  -16.6306   21.7095 C   0  0  2  0  0  0  0  0  0  0  0  0
    9.9814  -16.6254   21.8859 N   0  0  0  0  0  0  0  0  0  0  0  0
   12.1259  -16.4917   23.0320 C   0  0  0  0  0  0  0  0  0  0  0  0
   13.3530  -16.5742   23.1514 O   0  0  0  0  0  0  0  0  0  0  0  0
   11.3261  -16.2621   24.1411 O   0  0  0  0  0  0  0  0  0  0  0  0
  2  1  1  0
  2  3  1  0
  3  4  1  1
  5  3  1  0
  6  5  2  0
  7  8  1  0
  8  9  2  0
  8 10  1  0
 11 10  1  6
 11 12  1  0
 11 13  1  0
 12  5  1  0
 13 21  1  0
 13 14  2  0
 15 16  1  0
 16 18  1  0
 17 16  2  0
 19 18  1  0
 20 19  1  6
 21 20  1  0
 22 20  1  0
 22 24  1  0
 23 22  2  0
M  END
$$$$
