SNQ.pdb
     RDKit          3D

 24 23  0  0  1  0  0  0  0  0999 V2000
    9.3702  -19.6122   20.9463 O   0  0  0  0  0  0  0  0  0  0  0  0
    8.0806  -19.6093   20.3819 C   0  0  0  0  0  0  0  0  0  0  0  0
    8.2078  -18.9856   19.0218 C   0  0  2  0  0  0  0  0  0  0  0  0
    8.9996  -19.8829   18.1923 N   0  0  0  0  0  0  0  0  0  0  0  0
    8.8381  -17.6618   19.0099 C   0  0  0  0  0  0  0  0  0  0  0  0
    9.9983  -17.4318   18.5832 O   0  0  0  0  0  0  0  0  0  0  0  0
    9.3597  -12.3475   19.2903 N   0  0  0  0  0  0  0  0  0  0  0  0
    8.0242  -12.8012   19.1906 C   0  0  0  0  0  0  0  0  0  0  0  0
    7.1457  -11.9174   18.9884 O   0  0  0  0  0  0  0  0  0  0  0  0
    7.5826  -14.1899   19.3003 C   0  0  0  0  0  0  0  0  0  0  0  0
    8.6752  -15.1935   19.5357 C   0  0  2  0  0  0  0  0  0  0  0  0
    8.1255  -16.5093   19.5092 N   0  0  0  0  0  0  0  0  0  0  0  0
    9.4779  -14.9176   20.7448 C   0  0  0  0  0  0  0  0  0  0  0  0
   10.1641  -13.8645   20.7705 O   0  0  0  0  0  0  0  0  0  0  0  0
    7.7715  -17.6259   25.1271 N   0  0  0  0  0  0  0  0  0  0  0  0
    7.2441  -16.3151   24.8637 C   0  0  0  0  0  0  0  0  0  0  0  0
    6.0334  -16.0365   25.0111 O   0  0  0  0  0  0  0  0  0  0  0  0
    8.2095  -15.2860   24.4014 C   0  0  0  0  0  0  0  0  0  0  0  0
    9.5885  -15.8973   24.2984 C   0  0  0  0  0  0  0  0  0  0  0  0
   10.3158  -15.4336   23.0621 C   0  0  2  0  0  0  0  0  0  0  0  0
    9.5289  -15.7602   21.8824 N   0  0  0  0  0  0  0  0  0  0  0  0
   11.6236  -16.1740   23.0534 C   0  0  0  0  0  0  0  0  0  0  0  0
   11.8960  -17.0413   22.2166 O   0  0  0  0  0  0  0  0  0  0  0  0
   12.5365  -15.8408   24.0424 O   0  0  0  0  0  0  0  0  0  0  0  0
  2  1  1  0
  2  3  1  0
  3  4  1  6
  5  3  1  0
  6  5  2  0
  7  8  1  0
  8  9  2  0
  8 10  1  0
 11 10  1  1
 11 12  1  0
 11 13  1  0
 12  5  1  0
 13 21  1  0
 13 14  2  0
 15 16  1  0
 16 18  1  0
 17 16  2  0
 19 18  1  0
 20 19  1  1
 21 20  1  0
 22 20  1  0
 22 24  1  0
 23 22  2  0
M  END
$$$$
