SNQ.pdb
     RDKit          3D

 24 23  0  0  1  0  0  0  0  0999 V2000
    9.6038  -13.7453   16.9323 O   0  0  0  0  0  0  0  0  0  0  0  0
    9.2254  -13.2910   18.2099 C   0  0  0  0  0  0  0  0  0  0  0  0
    7.8643  -13.8630   18.4840 C   0  0  2  0  0  0  0  0  0  0  0  0
    6.9989  -12.7709   18.9070 N   0  0  0  0  0  0  0  0  0  0  0  0
    7.8330  -14.9077   19.5122 C   0  0  0  0  0  0  0  0  0  0  0  0
    7.6388  -14.6938   20.7360 O   0  0  0  0  0  0  0  0  0  0  0  0
    7.3325  -20.4892   20.9658 N   0  0  0  0  0  0  0  0  0  0  0  0
    8.3677  -19.8323   20.2616 C   0  0  0  0  0  0  0  0  0  0  0  0
    9.5289  -20.3078   20.3997 O   0  0  0  0  0  0  0  0  0  0  0  0
    8.2067  -18.6643   19.3981 C   0  0  0  0  0  0  0  0  0  0  0  0
    8.1811  -17.3407   20.1080 C   0  0  2  0  0  0  0  0  0  0  0  0
    8.0320  -16.2921   19.1528 N   0  0  0  0  0  0  0  0  0  0  0  0
    9.3228  -17.1415   21.0240 C   0  0  0  0  0  0  0  0  0  0  0  0
    9.4737  -17.9599   21.9663 O   0  0  0  0  0  0  0  0  0  0  0  0
   15.3283  -13.4507   19.6802 N   0  0  0  0  0  0  0  0  0  0  0  0
   14.5515  -14.5572   19.1923 C   0  0  0  0  0  0  0  0  0  0  0  0
   14.4145  -14.7950   17.9718 O   0  0  0  0  0  0  0  0  0  0  0  0
   13.9063  -15.4227   20.2119 C   0  0  0  0  0  0  0  0  0  0  0  0
   12.4040  -15.3531   20.0558 C   0  0  0  0  0  0  0  0  0  0  0  0
   11.6998  -16.3131   20.9804 C   0  0  2  0  0  0  0  0  0  0  0  0
   10.2636  -16.0881   20.9148 N   0  0  0  0  0  0  0  0  0  0  0  0
   12.2245  -16.0164   22.3571 C   0  0  0  0  0  0  0  0  0  0  0  0
   13.4220  -16.1011   22.6493 O   0  0  0  0  0  0  0  0  0  0  0  0
   11.2939  -15.6348   23.3114 O   0  0  0  0  0  0  0  0  0  0  0  0
  2  1  1  0
  2  3  1  0
  3  4  1  1
  5  3  1  0
  6  5  2  0
  7  8  1  0
  8  9  2  0
  8 10  1  0
 11 10  1  6
 11 12  1  0
 11 13  1  0
 12  5  1  0
 13 21  1  0
 13 14  2  0
 15 16  1  0
 16 18  1  0
 17 16  2  0
 19 18  1  0
 20 19  1  6
 21 20  1  0
 22 20  1  0
 22 24  1  0
 23 22  2  0
M  END
$$$$
