SNQ.pdb
     RDKit          3D

 24 23  0  0  1  0  0  0  0  0999 V2000
   11.3773  -18.8047   23.7181 O   0  0  0  0  0  0  0  0  0  0  0  0
   12.1877  -19.0684   22.5976 C   0  0  0  0  0  0  0  0  0  0  0  0
   12.2609  -20.5621   22.4619 C   0  0  2  0  0  0  0  0  0  0  0  0
   10.9166  -21.0513   22.1900 N   0  0  0  0  0  0  0  0  0  0  0  0
   12.7819  -21.2610   23.6408 C   0  0  0  0  0  0  0  0  0  0  0  0
   12.0716  -21.8978   24.4601 O   0  0  0  0  0  0  0  0  0  0  0  0
   17.0972  -24.1848   26.1414 N   0  0  0  0  0  0  0  0  0  0  0  0
   16.8883  -22.7947   25.9892 C   0  0  0  0  0  0  0  0  0  0  0  0
   17.3402  -22.0562   26.9078 O   0  0  0  0  0  0  0  0  0  0  0  0
   16.2023  -22.1507   24.8710 C   0  0  0  0  0  0  0  0  0  0  0  0
   14.7625  -21.8010   25.1178 C   0  0  2  0  0  0  0  0  0  0  0  0
   14.1968  -21.2510   23.9297 N   0  0  0  0  0  0  0  0  0  0  0  0
   14.5581  -20.9542   26.3109 C   0  0  0  0  0  0  0  0  0  0  0  0
   14.5661  -19.7064   26.1580 O   0  0  0  0  0  0  0  0  0  0  0  0
   11.2258  -22.4514   31.1855 N   0  0  0  0  0  0  0  0  0  0  0  0
   11.5909  -21.1297   31.6165 C   0  0  0  0  0  0  0  0  0  0  0  0
   11.1270  -20.6105   32.6559 O   0  0  0  0  0  0  0  0  0  0  0  0
   12.5574  -20.3913   30.7648 C   0  0  0  0  0  0  0  0  0  0  0  0
   13.0019  -21.2760   29.6220 C   0  0  0  0  0  0  0  0  0  0  0  0
   14.0131  -20.5874   28.7413 C   0  0  2  0  0  0  0  0  0  0  0  0
   14.3530  -21.4519   27.6213 N   0  0  0  0  0  0  0  0  0  0  0  0
   15.2145  -20.3418   29.6102 C   0  0  0  0  0  0  0  0  0  0  0  0
   16.1632  -21.1304   29.6786 O   0  0  0  0  0  0  0  0  0  0  0  0
   15.2205  -19.1697   30.3509 O   0  0  0  0  0  0  0  0  0  0  0  0
  2  1  1  0
  2  3  1  0
  3  4  1  1
  5  3  1  0
  6  5  2  0
  7  8  1  0
  8  9  2  0
  8 10  1  0
 11 10  1  6
 11 12  1  0
 11 13  1  0
 12  5  1  0
 13 21  1  0
 13 14  2  0
 15 16  1  0
 16 18  1  0
 17 16  2  0
 19 18  1  0
 20 19  1  1
 21 20  1  0
 22 20  1  0
 22 24  1  0
 23 22  2  0
M  END
$$$$
