SNQ.pdb
     RDKit          3D

 24 23  0  0  1  0  0  0  0  0999 V2000
    8.4952  -20.5600   17.2945 O   0  0  0  0  0  0  0  0  0  0  0  0
    9.6947  -19.8383   17.4435 C   0  0  0  0  0  0  0  0  0  0  0  0
   10.5442  -20.6109   18.4111 C   0  0  2  0  0  0  0  0  0  0  0  0
   10.3121  -22.0289   18.1742 N   0  0  0  0  0  0  0  0  0  0  0  0
   10.2796  -20.3249   19.8246 C   0  0  0  0  0  0  0  0  0  0  0  0
   10.4417  -19.2006   20.3638 O   0  0  0  0  0  0  0  0  0  0  0  0
    6.5880  -19.9615   21.0315 N   0  0  0  0  0  0  0  0  0  0  0  0
    7.0827  -21.2618   21.2838 C   0  0  0  0  0  0  0  0  0  0  0  0
    6.6389  -22.1837   20.5442 O   0  0  0  0  0  0  0  0  0  0  0  0
    8.0527  -21.6222   22.3158 C   0  0  0  0  0  0  0  0  0  0  0  0
    9.4565  -21.1476   22.0699 C   0  0  2  0  0  0  0  0  0  0  0  0
    9.7992  -21.3658   20.7027 N   0  0  0  0  0  0  0  0  0  0  0  0
   10.4419  -21.7069   23.0178 C   0  0  0  0  0  0  0  0  0  0  0  0
   10.1496  -21.7096   24.2406 O   0  0  0  0  0  0  0  0  0  0  0  0
   15.3313  -21.8618   20.6377 N   0  0  0  0  0  0  0  0  0  0  0  0
   15.9193  -21.0672   21.6812 C   0  0  0  0  0  0  0  0  0  0  0  0
   17.1565  -20.9267   21.8018 O   0  0  0  0  0  0  0  0  0  0  0  0
   14.9841  -20.4076   22.6273 C   0  0  0  0  0  0  0  0  0  0  0  0
   13.5600  -20.7465   22.2486 C   0  0  0  0  0  0  0  0  0  0  0  0
   12.9529  -21.7510   23.1945 C   0  0  2  0  0  0  0  0  0  0  0  0
   11.6989  -22.2428   22.6441 N   0  0  0  0  0  0  0  0  0  0  0  0
   12.7179  -21.0124   24.4820 C   0  0  0  0  0  0  0  0  0  0  0  0
   13.3548  -21.2478   25.5143 O   0  0  0  0  0  0  0  0  0  0  0  0
   11.7366  -20.0329   24.4701 O   0  0  0  0  0  0  0  0  0  0  0  0
  2  1  1  0
  2  3  1  0
  3  4  1  1
  5  3  1  0
  6  5  2  0
  7  8  1  0
  8  9  2  0
  8 10  1  0
 11 10  1  1
 11 12  1  0
 11 13  1  0
 12  5  1  0
 13 21  1  0
 13 14  2  0
 15 16  1  0
 16 18  1  0
 17 16  2  0
 19 18  1  0
 20 19  1  6
 21 20  1  0
 22 20  1  0
 22 24  1  0
 23 22  2  0
M  END
$$$$
