SNQ.pdb
     RDKit          3D

 24 23  0  0  1  0  0  0  0  0999 V2000
    6.6909  -13.8299   20.3726 O   0  0  0  0  0  0  0  0  0  0  0  0
    7.6003  -12.8020   20.0588 C   0  0  0  0  0  0  0  0  0  0  0  0
    8.6570  -13.4147   19.1854 C   0  0  2  0  0  0  0  0  0  0  0  0
    8.0946  -13.5763   17.8520 N   0  0  0  0  0  0  0  0  0  0  0  0
    9.1532  -14.7163   19.6431 C   0  0  0  0  0  0  0  0  0  0  0  0
    9.4457  -15.6726   18.8807 O   0  0  0  0  0  0  0  0  0  0  0  0
   11.8905  -18.5835   21.5821 N   0  0  0  0  0  0  0  0  0  0  0  0
   12.2747  -17.2470   21.3268 C   0  0  0  0  0  0  0  0  0  0  0  0
   13.4894  -16.9656   21.5240 O   0  0  0  0  0  0  0  0  0  0  0  0
   11.3938  -16.1786   20.8593 C   0  0  0  0  0  0  0  0  0  0  0  0
   10.0689  -16.0869   21.5611 C   0  0  2  0  0  0  0  0  0  0  0  0
    9.3379  -14.9730   21.0521 N   0  0  0  0  0  0  0  0  0  0  0  0
   10.1810  -16.0911   23.0341 C   0  0  0  0  0  0  0  0  0  0  0  0
   11.0980  -15.4096   23.5586 O   0  0  0  0  0  0  0  0  0  0  0  0
    6.4122  -17.7442   22.2985 N   0  0  0  0  0  0  0  0  0  0  0  0
    6.3283  -17.6132   23.7274 C   0  0  0  0  0  0  0  0  0  0  0  0
    5.9388  -18.5453   24.4653 O   0  0  0  0  0  0  0  0  0  0  0  0
    6.7291  -16.3048   24.3039 C   0  0  0  0  0  0  0  0  0  0  0  0
    7.5663  -16.5337   25.5419 C   0  0  0  0  0  0  0  0  0  0  0  0
    9.0387  -16.3760   25.2594 C   0  0  2  0  0  0  0  0  0  0  0  0
    9.3238  -16.8126   23.9010 N   0  0  0  0  0  0  0  0  0  0  0  0
    9.7442  -17.2477   26.2599 C   0  0  0  0  0  0  0  0  0  0  0  0
    9.6239  -17.0979   27.4804 O   0  0  0  0  0  0  0  0  0  0  0  0
   10.5550  -18.2512   25.7519 O   0  0  0  0  0  0  0  0  0  0  0  0
  2  1  1  0
  2  3  1  0
  3  4  1  6
  5  3  1  0
  6  5  2  0
  7  8  1  0
  8  9  2  0
  8 10  1  0
 11 10  1  6
 11 12  1  0
 11 13  1  0
 12  5  1  0
 13 21  1  0
 13 14  2  0
 15 16  1  0
 16 18  1  0
 17 16  2  0
 19 18  1  0
 20 19  1  1
 21 20  1  0
 22 20  1  0
 22 24  1  0
 23 22  2  0
M  END
$$$$
