SNQ.pdb
     RDKit          3D

 24 23  0  0  1  0  0  0  0  0999 V2000
    9.9536  -14.8221   18.8692 O   0  0  0  0  0  0  0  0  0  0  0  0
    8.5615  -14.8611   18.6632 C   0  0  0  0  0  0  0  0  0  0  0  0
    7.9937  -13.6419   19.3311 C   0  0  2  0  0  0  0  0  0  0  0  0
    8.4728  -12.4730   18.6067 N   0  0  0  0  0  0  0  0  0  0  0  0
    8.3521  -13.4934   20.7451 C   0  0  0  0  0  0  0  0  0  0  0  0
    9.0530  -12.5562   21.2052 O   0  0  0  0  0  0  0  0  0  0  0  0
    7.1884  -13.0592   26.1179 N   0  0  0  0  0  0  0  0  0  0  0  0
    6.9593  -14.1985   25.3125 C   0  0  0  0  0  0  0  0  0  0  0  0
    6.8378  -15.2987   25.9194 O   0  0  0  0  0  0  0  0  0  0  0  0
    6.8523  -14.2076   23.8550 C   0  0  0  0  0  0  0  0  0  0  0  0
    8.1535  -14.3466   23.1175 C   0  0  2  0  0  0  0  0  0  0  0  0
    7.8972  -14.4579   21.7188 N   0  0  0  0  0  0  0  0  0  0  0  0
    9.0162  -15.4244   23.6431 C   0  0  0  0  0  0  0  0  0  0  0  0
    8.6168  -16.6107   23.5261 O   0  0  0  0  0  0  0  0  0  0  0  0
    9.7124  -13.6179   28.6674 N   0  0  0  0  0  0  0  0  0  0  0  0
   10.1276  -14.9474   29.0223 C   0  0  0  0  0  0  0  0  0  0  0  0
   10.5439  -15.2380   30.1656 O   0  0  0  0  0  0  0  0  0  0  0  0
   10.0417  -15.9810   27.9597 C   0  0  0  0  0  0  0  0  0  0  0  0
    9.7440  -15.3186   26.6336 C   0  0  0  0  0  0  0  0  0  0  0  0
   10.6255  -15.8493   25.5320 C   0  0  2  0  0  0  0  0  0  0  0  0
   10.2677  -15.2141   24.2727 N   0  0  0  0  0  0  0  0  0  0  0  0
   10.3670  -17.3287   25.4763 C   0  0  0  0  0  0  0  0  0  0  0  0
   10.9692  -18.1404   26.1871 O   0  0  0  0  0  0  0  0  0  0  0  0
    9.4047  -17.7612   24.5767 O   0  0  0  0  0  0  0  0  0  0  0  0
  2  1  1  0
  2  3  1  0
  3  4  1  6
  5  3  1  0
  6  5  2  0
  7  8  1  0
  8  9  2  0
  8 10  1  0
 11 10  1  1
 11 12  1  0
 11 13  1  0
 12  5  1  0
 13 21  1  0
 13 14  2  0
 15 16  1  0
 16 18  1  0
 17 16  2  0
 19 18  1  0
 20 19  1  1
 21 20  1  0
 22 20  1  0
 22 24  1  0
 23 22  2  0
M  END
$$$$
