SNQ.pdb
     RDKit          3D

 24 23  0  0  1  0  0  0  0  0999 V2000
   13.1698  -19.9288   24.9625 O   0  0  0  0  0  0  0  0  0  0  0  0
   13.5953  -20.5823   26.1346 C   0  0  0  0  0  0  0  0  0  0  0  0
   13.6433  -22.0490   25.8160 C   0  0  2  0  0  0  0  0  0  0  0  0
   12.2968  -22.4712   25.4566 N   0  0  0  0  0  0  0  0  0  0  0  0
   14.1223  -22.8996   26.9099 C   0  0  0  0  0  0  0  0  0  0  0  0
   13.4181  -23.7547   27.5049 O   0  0  0  0  0  0  0  0  0  0  0  0
   18.6477  -26.0259   28.8998 N   0  0  0  0  0  0  0  0  0  0  0  0
   18.1959  -24.6976   29.0752 C   0  0  0  0  0  0  0  0  0  0  0  0
   18.4360  -24.1672   30.1953 O   0  0  0  0  0  0  0  0  0  0  0  0
   17.4838  -23.8984   28.0802 C   0  0  0  0  0  0  0  0  0  0  0  0
   16.0394  -23.6267   28.3903 C   0  0  2  0  0  0  0  0  0  0  0  0
   15.4848  -22.7912   27.3762 N   0  0  0  0  0  0  0  0  0  0  0  0
   15.8168  -23.1152   29.7582 C   0  0  0  0  0  0  0  0  0  0  0  0
   16.1331  -21.9231   30.0017 O   0  0  0  0  0  0  0  0  0  0  0  0
   11.5019  -20.8524   31.0748 N   0  0  0  0  0  0  0  0  0  0  0  0
   11.2732  -22.2532   30.8483 C   0  0  0  0  0  0  0  0  0  0  0  0
   10.1891  -22.6935   30.4056 O   0  0  0  0  0  0  0  0  0  0  0  0
   12.3939  -23.1739   31.1658 C   0  0  0  0  0  0  0  0  0  0  0  0
   13.5735  -22.3768   31.6751 C   0  0  0  0  0  0  0  0  0  0  0  0
   14.7391  -23.2651   32.0285 C   0  0  2  0  0  0  0  0  0  0  0  0
   15.2695  -23.8772   30.8197 N   0  0  0  0  0  0  0  0  0  0  0  0
   14.1914  -24.3095   32.9600 C   0  0  0  0  0  0  0  0  0  0  0  0
   14.0218  -25.4856   32.6211 O   0  0  0  0  0  0  0  0  0  0  0  0
   13.8753  -23.8963   34.2452 O   0  0  0  0  0  0  0  0  0  0  0  0
  2  1  1  0
  2  3  1  0
  3  4  1  1
  5  3  1  0
  6  5  2  0
  7  8  1  0
  8  9  2  0
  8 10  1  0
 11 10  1  6
 11 12  1  0
 11 13  1  0
 12  5  1  0
 13 21  1  0
 13 14  2  0
 15 16  1  0
 16 18  1  0
 17 16  2  0
 19 18  1  0
 20 19  1  6
 21 20  1  0
 22 20  1  0
 22 24  1  0
 23 22  2  0
M  END
$$$$
