SNQ.pdb
     RDKit          3D

 24 23  0  0  1  0  0  0  0  0999 V2000
    8.7210  -22.6745   21.2518 O   0  0  0  0  0  0  0  0  0  0  0  0
    9.5221  -22.9396   22.3786 C   0  0  0  0  0  0  0  0  0  0  0  0
   10.0878  -21.6216   22.8236 C   0  0  2  0  0  0  0  0  0  0  0  0
   10.5290  -20.9025   21.6368 N   0  0  0  0  0  0  0  0  0  0  0  0
   11.2158  -21.7207   23.7550 C   0  0  0  0  0  0  0  0  0  0  0  0
   12.3708  -22.1000   23.4334 O   0  0  0  0  0  0  0  0  0  0  0  0
   14.5757  -21.5847   27.6771 N   0  0  0  0  0  0  0  0  0  0  0  0
   14.4107  -20.6924   26.5928 C   0  0  0  0  0  0  0  0  0  0  0  0
   15.3649  -19.8959   26.3721 O   0  0  0  0  0  0  0  0  0  0  0  0
   13.2426  -20.6171   25.7178 C   0  0  0  0  0  0  0  0  0  0  0  0
   12.0842  -21.4854   26.1185 C   0  0  2  0  0  0  0  0  0  0  0  0
   11.0470  -21.3722   25.1462 N   0  0  0  0  0  0  0  0  0  0  0  0
   11.6206  -21.2479   27.5009 C   0  0  0  0  0  0  0  0  0  0  0  0
   11.6928  -20.0779   27.9552 O   0  0  0  0  0  0  0  0  0  0  0  0
   11.9045  -24.3482   32.4460 N   0  0  0  0  0  0  0  0  0  0  0  0
   11.8952  -25.1487   31.2522 C   0  0  0  0  0  0  0  0  0  0  0  0
   11.6098  -26.3666   31.2627 O   0  0  0  0  0  0  0  0  0  0  0  0
   12.2437  -24.4612   29.9831 C   0  0  0  0  0  0  0  0  0  0  0  0
   12.4238  -22.9826   30.2426 C   0  0  0  0  0  0  0  0  0  0  0  0
   11.2218  -22.1862   29.8028 C   0  0  2  0  0  0  0  0  0  0  0  0
   11.0980  -22.2505   28.3544 N   0  0  0  0  0  0  0  0  0  0  0  0
   11.4762  -20.7757   30.2550 C   0  0  0  0  0  0  0  0  0  0  0  0
   12.3732  -20.0719   29.7789 O   0  0  0  0  0  0  0  0  0  0  0  0
   10.6479  -20.2800   31.2503 O   0  0  0  0  0  0  0  0  0  0  0  0
  2  1  1  0
  2  3  1  0
  3  4  1  6
  5  3  1  0
  6  5  2  0
  7  8  1  0
  8  9  2  0
  8 10  1  0
 11 10  1  6
 11 12  1  0
 11 13  1  0
 12  5  1  0
 13 21  1  0
 13 14  2  0
 15 16  1  0
 16 18  1  0
 17 16  2  0
 19 18  1  0
 20 19  1  6
 21 20  1  0
 22 20  1  0
 22 24  1  0
 23 22  2  0
M  END
$$$$
