SNQ.pdb
     RDKit          3D

 24 23  0  0  1  0  0  0  0  0999 V2000
   16.5130  -24.8152   28.3194 O   0  0  0  0  0  0  0  0  0  0  0  0
   15.3055  -24.9797   27.6146 C   0  0  0  0  0  0  0  0  0  0  0  0
   15.0012  -23.6586   26.9689 C   0  0  2  0  0  0  0  0  0  0  0  0
   16.2679  -23.0287   26.6240 N   0  0  0  0  0  0  0  0  0  0  0  0
   14.2308  -22.7306   27.8027 C   0  0  0  0  0  0  0  0  0  0  0  0
   14.1413  -21.4941   27.5922 O   0  0  0  0  0  0  0  0  0  0  0  0
   10.7212  -21.6489   27.9061 N   0  0  0  0  0  0  0  0  0  0  0  0
   10.4463  -22.4857   29.0122 C   0  0  0  0  0  0  0  0  0  0  0  0
    9.2655  -22.9225   29.1048 O   0  0  0  0  0  0  0  0  0  0  0  0
   11.4034  -22.8821   30.0431 C   0  0  0  0  0  0  0  0  0  0  0  0
   12.8001  -22.3623   29.8553 C   0  0  2  0  0  0  0  0  0  0  0  0
   13.5068  -23.2134   28.9551 N   0  0  0  0  0  0  0  0  0  0  0  0
   13.5171  -22.1277   31.1254 C   0  0  0  0  0  0  0  0  0  0  0  0
   13.0502  -21.2703   31.9175 O   0  0  0  0  0  0  0  0  0  0  0  0
   19.1449  -20.8688   31.6332 N   0  0  0  0  0  0  0  0  0  0  0  0
   18.8903  -20.8594   33.0478 C   0  0  0  0  0  0  0  0  0  0  0  0
   19.6901  -20.3611   33.8706 O   0  0  0  0  0  0  0  0  0  0  0  0
   17.6181  -21.4754   33.5027 C   0  0  0  0  0  0  0  0  0  0  0  0
   16.7815  -21.8524   32.3009 C   0  0  0  0  0  0  0  0  0  0  0  0
   15.4526  -22.4381   32.7051 C   0  0  2  0  0  0  0  0  0  0  0  0
   14.6992  -22.8040   31.5152 N   0  0  0  0  0  0  0  0  0  0  0  0
   14.7450  -21.3582   33.4742 C   0  0  0  0  0  0  0  0  0  0  0  0
   15.1263  -20.9665   34.5824 O   0  0  0  0  0  0  0  0  0  0  0  0
   13.6212  -20.8031   32.8815 O   0  0  0  0  0  0  0  0  0  0  0  0
  2  1  1  0
  2  3  1  0
  3  4  1  1
  5  3  1  0
  6  5  2  0
  7  8  1  0
  8  9  2  0
  8 10  1  0
 11 10  1  1
 11 12  1  0
 11 13  1  0
 12  5  1  0
 13 21  1  0
 13 14  2  0
 15 16  1  0
 16 18  1  0
 17 16  2  0
 19 18  1  0
 20 19  1  6
 21 20  1  0
 22 20  1  0
 22 24  1  0
 23 22  2  0
M  END
$$$$
