SNQ.pdb
     RDKit          3D

 24 23  0  0  1  0  0  0  0  0999 V2000
   10.1501  -11.8106   18.2563 O   0  0  0  0  0  0  0  0  0  0  0  0
    9.4912  -12.4943   19.2956 C   0  0  0  0  0  0  0  0  0  0  0  0
    9.0725  -13.8242   18.7378 C   0  0  2  0  0  0  0  0  0  0  0  0
    7.9307  -13.6006   17.8621 N   0  0  0  0  0  0  0  0  0  0  0  0
    8.6994  -14.8224   19.7447 C   0  0  0  0  0  0  0  0  0  0  0  0
    7.5329  -15.2618   19.9107 O   0  0  0  0  0  0  0  0  0  0  0  0
    8.9270  -19.6323   22.3755 N   0  0  0  0  0  0  0  0  0  0  0  0
    9.9463  -18.6524   22.3796 C   0  0  0  0  0  0  0  0  0  0  0  0
   10.7659  -18.7004   23.3385 O   0  0  0  0  0  0  0  0  0  0  0  0
   10.1275  -17.6031   21.3787 C   0  0  0  0  0  0  0  0  0  0  0  0
    9.4030  -16.3175   21.6593 C   0  0  2  0  0  0  0  0  0  0  0  0
    9.6970  -15.3726   20.6322 N   0  0  0  0  0  0  0  0  0  0  0  0
    9.6365  -15.7949   23.0212 C   0  0  0  0  0  0  0  0  0  0  0  0
   10.7924  -15.3935   23.3096 O   0  0  0  0  0  0  0  0  0  0  0  0
    5.3903  -13.2889   26.5503 N   0  0  0  0  0  0  0  0  0  0  0  0
    6.5637  -12.4801   26.7370 C   0  0  0  0  0  0  0  0  0  0  0  0
    6.5124  -11.3197   27.2016 O   0  0  0  0  0  0  0  0  0  0  0  0
    7.8627  -13.0866   26.3500 C   0  0  0  0  0  0  0  0  0  0  0  0
    7.6353  -14.5003   25.8645 C   0  0  0  0  0  0  0  0  0  0  0  0
    8.9022  -15.1205   25.3329 C   0  0  2  0  0  0  0  0  0  0  0  0
    8.6448  -15.7139   24.0295 N   0  0  0  0  0  0  0  0  0  0  0  0
    9.2939  -16.1735   26.3312 C   0  0  0  0  0  0  0  0  0  0  0  0
    9.1455  -17.3821   26.1219 O   0  0  0  0  0  0  0  0  0  0  0  0
    9.8414  -15.7294   27.5251 O   0  0  0  0  0  0  0  0  0  0  0  0
  2  1  1  0
  2  3  1  0
  3  4  1  6
  5  3  1  0
  6  5  2  0
  7  8  1  0
  8  9  2  0
  8 10  1  0
 11 10  1  6
 11 12  1  0
 11 13  1  0
 12  5  1  0
 13 21  1  0
 13 14  2  0
 15 16  1  0
 16 18  1  0
 17 16  2  0
 19 18  1  0
 20 19  1  1
 21 20  1  0
 22 20  1  0
 22 24  1  0
 23 22  2  0
M  END
$$$$
