KPD.pdb
     RDKit          3D

 25 25  0  0  1  0  0  0  0  0999 V2000
   18.3121  -12.6631  -16.0539 N   0  0  0  0  0  0  0  0  0  0  0  0
   19.4478  -12.0002  -16.6092 C   0  0  1  0  0  0  0  0  0  0  0  0
   19.2238  -11.3342  -17.9387 C   0  0  0  0  0  0  0  0  0  0  0  0
   19.7172  -12.0618  -19.1258 C   0  0  0  0  0  0  0  0  0  0  0  0
   18.7548  -12.7952  -19.9652 C   0  0  0  0  0  0  0  0  0  0  0  0
   19.2945  -13.5319  -21.1419 C   0  0  0  0  0  0  0  0  0  0  0  0
   18.2539  -14.4035  -21.7020 N   0  0  0  0  0  0  0  0  0  0  0  0
   20.1026  -11.0545  -15.6730 C   0  0  0  0  0  0  0  0  0  0  0  0
   19.3099  -10.4340  -14.8730 O   0  0  0  0  0  0  0  0  0  0  0  0
   21.4710  -10.7738  -15.5730 N   0  0  0  0  0  0  0  0  0  0  0  0
   22.5356  -11.3476  -16.3432 C   0  0  0  0  0  0  0  0  0  0  0  0
   23.7541  -11.2663  -15.4349 C   0  0  0  0  0  0  0  0  0  0  0  0
   23.3006  -10.5489  -14.1866 C   0  0  0  0  0  0  0  0  0  0  0  0
   22.0670   -9.8382  -14.6491 C   0  0  1  0  0  0  0  0  0  0  0  0
   22.4187   -8.5556  -15.2467 C   0  0  0  0  0  0  0  0  0  0  0  0
   22.6355   -8.4566  -16.4697 O   0  0  0  0  0  0  0  0  0  0  0  0
   22.5197   -7.4001  -14.4372 N   0  0  0  0  0  0  0  0  0  0  0  0
   22.0601   -6.0877  -14.8465 C   0  0  1  0  0  0  0  0  0  0  0  0
   20.5791   -6.0478  -15.1474 C   0  0  0  0  0  0  0  0  0  0  0  0
   20.0943   -4.7274  -15.5439 C   0  0  0  0  0  0  0  0  0  0  0  0
   20.4646   -4.2279  -16.6267 O   0  0  0  0  0  0  0  0  0  0  0  0
   22.3593   -5.0620  -13.8186 C   0  0  0  0  0  0  0  0  0  0  0  0
   22.6576   -3.9000  -14.1896 O   0  0  0  0  0  0  0  0  0  0  0  0
   19.2293   -4.0253  -14.7297 O   0  0  0  0  0  0  0  0  0  0  0  0
   22.3285   -5.3175  -12.4628 O   0  0  0  0  0  0  0  0  0  0  0  0
  2  1  1  1
  2  3  1  0
  3  4  1  0
  4  5  1  0
  6  5  1  0
  6  7  1  0
  8  2  1  0
  9  8  2  0
 10  8  1  0
 10 14  1  0
 11 12  1  0
 11 10  1  0
 12 13  1  0
 13 14  1  0
 14 15  1  6
 15 16  2  0
 17 15  1  0
 18 17  1  0
 18 22  1  0
 18 19  1  1
 20 19  1  0
 21 20  2  0
 22 23  2  0
 22 25  1  0
 24 20  1  0
M  END
$$$$
