KPD.pdb
     RDKit          3D

 25 25  0  0  1  0  0  0  0  0999 V2000
   21.9019  -13.9966  -17.3004 N   0  0  0  0  0  0  0  0  0  0  0  0
   22.7193  -12.8561  -17.5629 C   0  0  1  0  0  0  0  0  0  0  0  0
   22.4773  -12.1749  -18.8815 C   0  0  0  0  0  0  0  0  0  0  0  0
   21.9555  -13.0253  -19.9708 C   0  0  0  0  0  0  0  0  0  0  0  0
   20.7966  -12.5574  -20.7496 C   0  0  0  0  0  0  0  0  0  0  0  0
   20.2743  -13.4624  -21.8111 C   0  0  0  0  0  0  0  0  0  0  0  0
   21.3472  -14.3485  -22.2801 N   0  0  0  0  0  0  0  0  0  0  0  0
   22.7160  -11.8558  -16.4679 C   0  0  0  0  0  0  0  0  0  0  0  0
   21.6486  -11.8272  -15.7514 O   0  0  0  0  0  0  0  0  0  0  0  0
   23.7380  -10.9561  -16.1405 N   0  0  0  0  0  0  0  0  0  0  0  0
   24.9867  -10.7724  -16.8208 C   0  0  0  0  0  0  0  0  0  0  0  0
   25.9383  -10.2646  -15.7472 C   0  0  0  0  0  0  0  0  0  0  0  0
   25.1128  -10.1104  -14.4927 C   0  0  0  0  0  0  0  0  0  0  0  0
   23.7169  -10.0358  -15.0284 C   0  0  1  0  0  0  0  0  0  0  0  0
   23.3922   -8.6636  -15.3991 C   0  0  0  0  0  0  0  0  0  0  0  0
   23.7875   -8.1806  -16.4774 O   0  0  0  0  0  0  0  0  0  0  0  0
   22.6194   -7.8583  -14.5301 N   0  0  0  0  0  0  0  0  0  0  0  0
   22.0198   -6.5978  -14.9210 C   0  0  1  0  0  0  0  0  0  0  0  0
   20.5207   -6.6855  -15.0951 C   0  0  0  0  0  0  0  0  0  0  0  0
   19.9078   -5.4417  -15.5566 C   0  0  0  0  0  0  0  0  0  0  0  0
   20.3494   -4.8711  -16.5757 O   0  0  0  0  0  0  0  0  0  0  0  0
   22.3178   -5.5268  -13.9399 C   0  0  0  0  0  0  0  0  0  0  0  0
   22.0627   -4.3359  -14.2454 O   0  0  0  0  0  0  0  0  0  0  0  0
   18.8432   -4.8900  -14.8737 O   0  0  0  0  0  0  0  0  0  0  0  0
   22.8665   -5.7699  -12.6972 O   0  0  0  0  0  0  0  0  0  0  0  0
  2  1  1  1
  2  3  1  0
  3  4  1  0
  4  5  1  0
  6  5  1  0
  6  7  1  0
  8  2  1  0
  9  8  2  0
 10  8  1  0
 10 14  1  0
 11 12  1  0
 11 10  1  0
 12 13  1  0
 13 14  1  0
 14 15  1  6
 15 16  2  0
 17 15  1  0
 18 17  1  0
 18 22  1  0
 18 19  1  1
 20 19  1  0
 21 20  2  0
 22 23  2  0
 22 25  1  0
 24 20  1  0
M  END
$$$$
