KPD.pdb
     RDKit          3D

 25 25  0  0  1  0  0  0  0  0999 V2000
   11.9807  -24.4640   -5.9276 N   0  0  0  0  0  0  0  0  0  0  0  0
   12.8337  -23.5663   -5.2175 C   0  0  1  0  0  0  0  0  0  0  0  0
   12.6048  -22.1047   -5.4872 C   0  0  0  0  0  0  0  0  0  0  0  0
   12.9307  -21.6321   -6.8482 C   0  0  0  0  0  0  0  0  0  0  0  0
   11.8325  -21.2857   -7.7663 C   0  0  0  0  0  0  0  0  0  0  0  0
   12.2019  -20.8383   -9.1381 C   0  0  0  0  0  0  0  0  0  0  0  0
   10.9868  -20.6161   -9.9320 N   0  0  0  0  0  0  0  0  0  0  0  0
   12.8719  -23.8116   -3.7553 C   0  0  0  0  0  0  0  0  0  0  0  0
   11.7725  -24.2339   -3.2389 O   0  0  0  0  0  0  0  0  0  0  0  0
   13.9629  -23.6337   -2.8956 N   0  0  0  0  0  0  0  0  0  0  0  0
   15.2552  -23.1082   -3.2268 C   0  0  0  0  0  0  0  0  0  0  0  0
   16.2005  -23.7507   -2.2220 C   0  0  0  0  0  0  0  0  0  0  0  0
   15.3354  -24.5716   -1.2965 C   0  0  0  0  0  0  0  0  0  0  0  0
   13.9818  -23.9623   -1.4899 C   0  0  1  0  0  0  0  0  0  0  0  0
   13.8163  -22.8123   -0.6089 C   0  0  0  0  0  0  0  0  0  0  0  0
   14.2650  -21.6937   -0.9246 O   0  0  0  0  0  0  0  0  0  0  0  0
   13.1399  -22.9560    0.6251 N   0  0  0  0  0  0  0  0  0  0  0  0
   12.5878  -21.8449    1.3745 C   0  0  1  0  0  0  0  0  0  0  0  0
   11.1786  -21.4923    0.9562 C   0  0  0  0  0  0  0  0  0  0  0  0
   10.9749  -20.0650    0.7178 C   0  0  0  0  0  0  0  0  0  0  0  0
   11.5587  -19.5033   -0.2325 O   0  0  0  0  0  0  0  0  0  0  0  0
   12.5918  -22.1171    2.8320 C   0  0  0  0  0  0  0  0  0  0  0  0
   12.5060  -23.3058    3.2276 O   0  0  0  0  0  0  0  0  0  0  0  0
   10.1419  -19.3299    1.5363 O   0  0  0  0  0  0  0  0  0  0  0  0
   12.6848  -21.1253    3.7871 O   0  0  0  0  0  0  0  0  0  0  0  0
  2  1  1  6
  2  3  1  0
  3  4  1  0
  4  5  1  0
  6  5  1  0
  6  7  1  0
  8  2  1  0
  9  8  2  0
 10  8  1  0
 10 14  1  0
 11 12  1  0
 11 10  1  0
 12 13  1  0
 13 14  1  0
 14 15  1  1
 15 16  2  0
 17 15  1  0
 18 17  1  0
 18 22  1  0
 18 19  1  6
 20 19  1  0
 21 20  2  0
 22 23  2  0
 22 25  1  0
 24 20  1  0
M  END
$$$$
