KPD.pdb
     RDKit          3D

 25 25  0  0  1  0  0  0  0  0999 V2000
   28.3014  -20.5495  -17.4022 N   0  0  0  0  0  0  0  0  0  0  0  0
   28.6307  -19.9027  -16.1730 C   0  0  1  0  0  0  0  0  0  0  0  0
   28.4751  -18.4070  -16.1657 C   0  0  0  0  0  0  0  0  0  0  0  0
   27.5379  -17.8422  -17.1580 C   0  0  0  0  0  0  0  0  0  0  0  0
   27.4366  -18.4731  -18.4848 C   0  0  0  0  0  0  0  0  0  0  0  0
   26.5280  -17.8362  -19.4784 C   0  0  0  0  0  0  0  0  0  0  0  0
   26.4690  -18.6568  -20.6947 N   0  0  0  0  0  0  0  0  0  0  0  0
   27.9527  -20.4883  -14.9911 C   0  0  0  0  0  0  0  0  0  0  0  0
   26.8747  -21.1427  -15.2427 O   0  0  0  0  0  0  0  0  0  0  0  0
   28.3593  -20.4030  -13.6537 N   0  0  0  0  0  0  0  0  0  0  0  0
   29.4871  -19.6885  -13.1308 C   0  0  0  0  0  0  0  0  0  0  0  0
   29.8696  -20.4455  -11.8673 C   0  0  0  0  0  0  0  0  0  0  0  0
   28.8417  -21.5391  -11.7051 C   0  0  0  0  0  0  0  0  0  0  0  0
   27.7019  -21.0409  -12.5379 C   0  0  1  0  0  0  0  0  0  0  0  0
   26.8589  -20.1457  -11.7543 C   0  0  0  0  0  0  0  0  0  0  0  0
   27.0035  -18.9099  -11.8186 O   0  0  0  0  0  0  0  0  0  0  0  0
   25.8601  -20.6755  -10.9042 N   0  0  0  0  0  0  0  0  0  0  0  0
   24.4458  -20.3940  -11.0512 C   0  0  1  0  0  0  0  0  0  0  0  0
   23.9265  -20.6864  -12.4404 C   0  0  0  0  0  0  0  0  0  0  0  0
   22.4903  -20.4622  -12.5914 C   0  0  0  0  0  0  0  0  0  0  0  0
   21.9358  -19.5355  -11.9646 O   0  0  0  0  0  0  0  0  0  0  0  0
   23.6349  -21.1602  -10.0746 C   0  0  0  0  0  0  0  0  0  0  0  0
   22.5668  -20.6578   -9.6460 O   0  0  0  0  0  0  0  0  0  0  0  0
   21.7391  -21.2685  -13.4220 O   0  0  0  0  0  0  0  0  0  0  0  0
   23.9939  -22.4075   -9.6058 O   0  0  0  0  0  0  0  0  0  0  0  0
  2  1  1  6
  2  3  1  0
  3  4  1  0
  4  5  1  0
  6  5  1  0
  6  7  1  0
  8  2  1  0
  9  8  2  0
 10  8  1  0
 10 14  1  0
 11 12  1  0
 11 10  1  0
 12 13  1  0
 13 14  1  0
 14 15  1  1
 15 16  2  0
 17 15  1  0
 18 17  1  0
 18 22  1  0
 18 19  1  6
 20 19  1  0
 21 20  2  0
 22 23  2  0
 22 25  1  0
 24 20  1  0
M  END
$$$$
