KPD.pdb
     RDKit          3D

 25 25  0  0  1  0  0  0  0  0999 V2000
   23.4634  -18.8095  -18.0557 N   0  0  0  0  0  0  0  0  0  0  0  0
   24.1937  -18.1468  -17.0237 C   0  0  1  0  0  0  0  0  0  0  0  0
   23.4732  -17.0155  -16.3437 C   0  0  0  0  0  0  0  0  0  0  0  0
   23.1931  -15.8260  -17.1735 C   0  0  0  0  0  0  0  0  0  0  0  0
   21.8360  -15.6344  -17.7123 C   0  0  0  0  0  0  0  0  0  0  0  0
   21.6165  -14.4727  -18.6183 C   0  0  0  0  0  0  0  0  0  0  0  0
   20.2654  -14.5369  -19.1897 N   0  0  0  0  0  0  0  0  0  0  0  0
   24.7615  -19.0680  -16.0095 C   0  0  0  0  0  0  0  0  0  0  0  0
   24.1000  -20.1545  -15.8208 O   0  0  0  0  0  0  0  0  0  0  0  0
   25.9232  -18.8791  -15.2506 N   0  0  0  0  0  0  0  0  0  0  0  0
   26.8920  -17.8311  -15.3887 C   0  0  0  0  0  0  0  0  0  0  0  0
   28.1908  -18.4387  -14.8788 C   0  0  0  0  0  0  0  0  0  0  0  0
   27.8432  -19.8238  -14.3895 C   0  0  0  0  0  0  0  0  0  0  0  0
   26.3650  -19.7312  -14.1722 C   0  0  1  0  0  0  0  0  0  0  0  0
   26.0834  -19.2015  -12.8433 C   0  0  0  0  0  0  0  0  0  0  0  0
   25.6426  -18.0457  -12.6944 O   0  0  0  0  0  0  0  0  0  0  0  0
   26.3110  -20.0008  -11.6986 N   0  0  0  0  0  0  0  0  0  0  0  0
   25.2733  -20.3725  -10.7571 C   0  0  1  0  0  0  0  0  0  0  0  0
   24.1018  -21.0670  -11.4131 C   0  0  0  0  0  0  0  0  0  0  0  0
   22.8736  -20.2751  -11.4148 C   0  0  0  0  0  0  0  0  0  0  0  0
   22.8321  -19.1898  -10.7986 O   0  0  0  0  0  0  0  0  0  0  0  0
   25.8012  -21.2507   -9.6854 C   0  0  0  0  0  0  0  0  0  0  0  0
   26.2734  -22.3717   -9.9971 O   0  0  0  0  0  0  0  0  0  0  0  0
   21.7558  -20.7176  -12.0922 O   0  0  0  0  0  0  0  0  0  0  0  0
   25.8009  -20.9001   -8.3507 O   0  0  0  0  0  0  0  0  0  0  0  0
  2  1  1  6
  2  3  1  0
  3  4  1  0
  4  5  1  0
  6  5  1  0
  6  7  1  0
  8  2  1  0
  9  8  2  0
 10  8  1  0
 10 14  1  0
 11 12  1  0
 11 10  1  0
 12 13  1  0
 13 14  1  0
 14 15  1  1
 15 16  2  0
 17 15  1  0
 18 17  1  0
 18 22  1  0
 18 19  1  6
 20 19  1  0
 21 20  2  0
 22 23  2  0
 22 25  1  0
 24 20  1  0
M  END
$$$$
