KPD.pdb
     RDKit          3D

 25 25  0  0  1  0  0  0  0  0999 V2000
   23.7630  -19.8683  -18.9129 N   0  0  0  0  0  0  0  0  0  0  0  0
   23.0824  -19.4463  -17.7312 C   0  0  1  0  0  0  0  0  0  0  0  0
   22.0254  -18.3958  -17.9322 C   0  0  0  0  0  0  0  0  0  0  0  0
   22.4455  -17.1742  -18.6485 C   0  0  0  0  0  0  0  0  0  0  0  0
   22.1213  -17.0374  -20.0785 C   0  0  0  0  0  0  0  0  0  0  0  0
   22.5835  -15.8020  -20.7704 C   0  0  0  0  0  0  0  0  0  0  0  0
   22.1875  -15.8468  -22.1837 N   0  0  0  0  0  0  0  0  0  0  0  0
   22.5372  -20.5658  -16.9255 C   0  0  0  0  0  0  0  0  0  0  0  0
   22.3836  -21.6753  -17.5573 O   0  0  0  0  0  0  0  0  0  0  0  0
   22.1795  -20.5385  -15.5718 N   0  0  0  0  0  0  0  0  0  0  0  0
   22.1163  -19.3933  -14.7113 C   0  0  0  0  0  0  0  0  0  0  0  0
   22.3730  -19.9458  -13.3168 C   0  0  0  0  0  0  0  0  0  0  0  0
   22.4909  -21.4426  -13.4728 C   0  0  0  0  0  0  0  0  0  0  0  0
   21.8081  -21.6885  -14.7820 C   0  0  1  0  0  0  0  0  0  0  0  0
   20.3710  -21.8323  -14.5816 C   0  0  0  0  0  0  0  0  0  0  0  0
   19.6291  -20.8330  -14.5237 O   0  0  0  0  0  0  0  0  0  0  0  0
   19.7990  -23.1191  -14.4482 N   0  0  0  0  0  0  0  0  0  0  0  0
   18.3719  -23.3618  -14.3737 C   0  0  1  0  0  0  0  0  0  0  0  0
   17.7860  -23.0299  -13.0202 C   0  0  0  0  0  0  0  0  0  0  0  0
   16.3589  -23.3236  -12.9083 C   0  0  0  0  0  0  0  0  0  0  0  0
   15.7965  -24.0192  -13.7796 O   0  0  0  0  0  0  0  0  0  0  0  0
   17.6354  -22.5939  -15.4064 C   0  0  0  0  0  0  0  0  0  0  0  0
   17.4571  -23.1125  -16.5360 O   0  0  0  0  0  0  0  0  0  0  0  0
   15.6248  -22.8369  -11.8460 O   0  0  0  0  0  0  0  0  0  0  0  0
   17.1310  -21.3275  -15.1918 O   0  0  0  0  0  0  0  0  0  0  0  0
  2  1  1  6
  2  3  1  0
  3  4  1  0
  4  5  1  0
  6  5  1  0
  6  7  1  0
  8  2  1  0
  9  8  2  0
 10  8  1  0
 10 14  1  0
 11 12  1  0
 11 10  1  0
 12 13  1  0
 13 14  1  0
 14 15  1  1
 15 16  2  0
 17 15  1  0
 18 17  1  0
 18 22  1  0
 18 19  1  1
 20 19  1  0
 21 20  2  0
 22 23  2  0
 22 25  1  0
 24 20  1  0
M  END
$$$$
