KPD.pdb
     RDKit          3D

 25 25  0  0  1  0  0  0  0  0999 V2000
   23.3644  -16.4393  -16.6810 N   0  0  0  0  0  0  0  0  0  0  0  0
   24.0695  -17.2571  -15.7474 C   0  0  1  0  0  0  0  0  0  0  0  0
   23.2786  -17.7016  -14.5482 C   0  0  0  0  0  0  0  0  0  0  0  0
   22.0323  -18.4444  -14.8256 C   0  0  0  0  0  0  0  0  0  0  0  0
   21.8186  -19.7488  -14.1762 C   0  0  0  0  0  0  0  0  0  0  0  0
   20.7147  -19.8456  -13.1809 C   0  0  0  0  0  0  0  0  0  0  0  0
   20.5186  -21.2478  -12.7916 N   0  0  0  0  0  0  0  0  0  0  0  0
   24.7464  -18.4218  -16.3678 C   0  0  0  0  0  0  0  0  0  0  0  0
   24.4323  -18.6530  -17.5932 O   0  0  0  0  0  0  0  0  0  0  0  0
   25.6758  -19.2796  -15.7665 N   0  0  0  0  0  0  0  0  0  0  0  0
   26.0894  -19.2899  -14.3936 C   0  0  0  0  0  0  0  0  0  0  0  0
   27.5020  -19.8553  -14.4220 C   0  0  0  0  0  0  0  0  0  0  0  0
   27.7803  -20.2191  -15.8604 C   0  0  0  0  0  0  0  0  0  0  0  0
   26.4049  -20.3273  -16.4411 C   0  0  1  0  0  0  0  0  0  0  0  0
   25.8672  -21.6640  -16.2172 C   0  0  0  0  0  0  0  0  0  0  0  0
   25.8091  -22.1473  -15.0703 O   0  0  0  0  0  0  0  0  0  0  0  0
   25.4030  -22.4336  -17.3095 N   0  0  0  0  0  0  0  0  0  0  0  0
   24.0445  -22.9252  -17.4283 C   0  0  1  0  0  0  0  0  0  0  0  0
   23.0325  -22.0363  -16.7421 C   0  0  0  0  0  0  0  0  0  0  0  0
   22.0352  -22.7697  -15.9655 C   0  0  0  0  0  0  0  0  0  0  0  0
   22.3354  -23.8625  -15.4411 O   0  0  0  0  0  0  0  0  0  0  0  0
   23.6460  -23.0835  -18.8476 C   0  0  0  0  0  0  0  0  0  0  0  0
   24.2061  -22.3725  -19.7180 O   0  0  0  0  0  0  0  0  0  0  0  0
   20.7608  -22.2648  -15.8070 O   0  0  0  0  0  0  0  0  0  0  0  0
   22.6830  -23.9780  -19.2683 O   0  0  0  0  0  0  0  0  0  0  0  0
  2  1  1  6
  2  3  1  0
  3  4  1  0
  4  5  1  0
  6  5  1  0
  6  7  1  0
  8  2  1  0
  9  8  2  0
 10  8  1  0
 10 14  1  0
 11 12  1  0
 11 10  1  0
 12 13  1  0
 13 14  1  0
 14 15  1  1
 15 16  2  0
 17 15  1  0
 18 17  1  0
 18 22  1  0
 18 19  1  6
 20 19  1  0
 21 20  2  0
 22 23  2  0
 22 25  1  0
 24 20  1  0
M  END
$$$$
