KPD.pdb
     RDKit          3D

 25 25  0  0  1  0  0  0  0  0999 V2000
   27.0707  -23.8635  -15.2392 N   0  0  0  0  0  0  0  0  0  0  0  0
   26.9116  -22.7035  -14.4227 C   0  0  1  0  0  0  0  0  0  0  0  0
   27.2013  -21.3912  -15.0973 C   0  0  0  0  0  0  0  0  0  0  0  0
   26.5162  -21.1521  -16.3840 C   0  0  0  0  0  0  0  0  0  0  0  0
   26.7135  -19.8639  -17.0698 C   0  0  0  0  0  0  0  0  0  0  0  0
   25.9733  -19.6459  -18.3438 C   0  0  0  0  0  0  0  0  0  0  0  0
   26.2945  -18.3187  -18.8838 N   0  0  0  0  0  0  0  0  0  0  0  0
   25.6025  -22.6382  -13.7288 C   0  0  0  0  0  0  0  0  0  0  0  0
   24.7497  -23.5358  -14.0762 O   0  0  0  0  0  0  0  0  0  0  0  0
   25.2076  -21.7159  -12.7517 N   0  0  0  0  0  0  0  0  0  0  0  0
   25.9448  -20.5812  -12.2776 C   0  0  0  0  0  0  0  0  0  0  0  0
   25.4516  -20.3701  -10.8534 C   0  0  0  0  0  0  0  0  0  0  0  0
   24.3633  -21.3921  -10.6298 C   0  0  0  0  0  0  0  0  0  0  0  0
   23.9598  -21.7493  -12.0264 C   0  0  1  0  0  0  0  0  0  0  0  0
   22.9613  -20.8078  -12.5187 C   0  0  0  0  0  0  0  0  0  0  0  0
   23.3008  -19.7305  -13.0445 O   0  0  0  0  0  0  0  0  0  0  0  0
   21.5842  -21.1096  -12.4025 N   0  0  0  0  0  0  0  0  0  0  0  0
   20.5580  -20.5232  -13.2418 C   0  0  1  0  0  0  0  0  0  0  0  0
   19.4346  -21.4835  -13.5594 C   0  0  0  0  0  0  0  0  0  0  0  0
   19.8311  -22.5847  -14.4345 C   0  0  0  0  0  0  0  0  0  0  0  0
   20.8940  -22.5105  -15.0855 O   0  0  0  0  0  0  0  0  0  0  0  0
   19.9773  -19.3082  -12.6214 C   0  0  0  0  0  0  0  0  0  0  0  0
   20.0716  -19.1573  -11.3784 O   0  0  0  0  0  0  0  0  0  0  0  0
   19.0386  -23.7085  -14.5490 O   0  0  0  0  0  0  0  0  0  0  0  0
   19.3317  -18.3247  -13.3427 O   0  0  0  0  0  0  0  0  0  0  0  0
  2  1  1  6
  2  3  1  0
  3  4  1  0
  4  5  1  0
  6  5  1  0
  6  7  1  0
  8  2  1  0
  9  8  2  0
 10  8  1  0
 10 14  1  0
 11 12  1  0
 11 10  1  0
 12 13  1  0
 13 14  1  0
 14 15  1  6
 15 16  2  0
 17 15  1  0
 18 17  1  0
 18 22  1  0
 18 19  1  1
 20 19  1  0
 21 20  2  0
 22 23  2  0
 22 25  1  0
 24 20  1  0
M  END
$$$$
