KPD.pdb
     RDKit          3D

 25 25  0  0  1  0  0  0  0  0999 V2000
   20.7703  -12.4629  -19.6835 N   0  0  0  0  0  0  0  0  0  0  0  0
   20.6700  -11.0572  -19.9109 C   0  0  1  0  0  0  0  0  0  0  0  0
   19.2737  -10.5264  -20.0831 C   0  0  0  0  0  0  0  0  0  0  0  0
   18.2738  -11.4762  -20.6123 C   0  0  0  0  0  0  0  0  0  0  0  0
   17.5236  -12.3229  -19.6693 C   0  0  0  0  0  0  0  0  0  0  0  0
   16.4819  -13.2235  -20.2370 C   0  0  0  0  0  0  0  0  0  0  0  0
   15.9937  -14.1364  -19.1956 N   0  0  0  0  0  0  0  0  0  0  0  0
   21.4039  -10.2386  -18.9154 C   0  0  0  0  0  0  0  0  0  0  0  0
   21.7022  -10.8413  -17.8193 O   0  0  0  0  0  0  0  0  0  0  0  0
   21.7980   -8.9010  -19.0450 N   0  0  0  0  0  0  0  0  0  0  0  0
   21.5473   -8.0231  -20.1506 C   0  0  0  0  0  0  0  0  0  0  0  0
   22.6981   -7.0278  -20.1197 C   0  0  0  0  0  0  0  0  0  0  0  0
   23.5181   -7.3712  -18.8997 C   0  0  0  0  0  0  0  0  0  0  0  0
   22.5509   -8.1529  -18.0664 C   0  0  1  0  0  0  0  0  0  0  0  0
   21.7407   -7.2514  -17.2561 C   0  0  0  0  0  0  0  0  0  0  0  0
   20.6482   -6.8217  -17.6736 O   0  0  0  0  0  0  0  0  0  0  0  0
   22.1908   -6.8502  -15.9765 N   0  0  0  0  0  0  0  0  0  0  0  0
   21.3042   -6.5030  -14.8836 C   0  0  1  0  0  0  0  0  0  0  0  0
   20.9769   -7.6791  -13.9920 C   0  0  0  0  0  0  0  0  0  0  0  0
   20.0111   -7.3695  -12.9399 C   0  0  0  0  0  0  0  0  0  0  0  0
   19.3594   -6.3054  -12.9869 O   0  0  0  0  0  0  0  0  0  0  0  0
   21.8733   -5.4207  -14.0450 C   0  0  0  0  0  0  0  0  0  0  0  0
   21.1341   -4.8525  -13.2039 O   0  0  0  0  0  0  0  0  0  0  0  0
   19.8130   -8.2445  -11.8914 O   0  0  0  0  0  0  0  0  0  0  0  0
   23.1838   -4.9990  -14.1402 O   0  0  0  0  0  0  0  0  0  0  0  0
  2  1  1  1
  2  3  1  0
  3  4  1  0
  4  5  1  0
  6  5  1  0
  6  7  1  0
  8  2  1  0
  9  8  2  0
 10  8  1  0
 10 14  1  0
 11 12  1  0
 11 10  1  0
 12 13  1  0
 13 14  1  0
 14 15  1  6
 15 16  2  0
 17 15  1  0
 18 17  1  0
 18 22  1  0
 18 19  1  1
 20 19  1  0
 21 20  2  0
 22 23  2  0
 22 25  1  0
 24 20  1  0
M  END
$$$$
