KPD.pdb
     RDKit          3D

 25 25  0  0  1  0  0  0  0  0999 V2000
   16.3318  -12.5127  -14.7745 N   0  0  0  0  0  0  0  0  0  0  0  0
   15.9372  -11.1926  -15.1475 C   0  0  1  0  0  0  0  0  0  0  0  0
   14.8790  -10.5638  -14.2837 C   0  0  0  0  0  0  0  0  0  0  0  0
   13.6918  -11.3941  -13.9954 C   0  0  0  0  0  0  0  0  0  0  0  0
   12.6224  -10.8414  -13.1471 C   0  0  0  0  0  0  0  0  0  0  0  0
   11.5280  -11.7645  -12.7363 C   0  0  0  0  0  0  0  0  0  0  0  0
   10.6659  -11.1038  -11.7482 N   0  0  0  0  0  0  0  0  0  0  0  0
   17.0747  -10.2562  -15.3173 C   0  0  0  0  0  0  0  0  0  0  0  0
   18.1526  -10.5806  -14.6957 O   0  0  0  0  0  0  0  0  0  0  0  0
   17.0944   -9.0765  -16.0718 N   0  0  0  0  0  0  0  0  0  0  0  0
   15.9886   -8.4487  -16.7343 C   0  0  0  0  0  0  0  0  0  0  0  0
   16.6158   -7.6931  -17.8970 C   0  0  0  0  0  0  0  0  0  0  0  0
   18.1075   -7.8840  -17.7665 C   0  0  0  0  0  0  0  0  0  0  0  0
   18.2623   -8.2674  -16.3278 C   0  0  1  0  0  0  0  0  0  0  0  0
   18.3520   -7.0738  -15.4952 C   0  0  0  0  0  0  0  0  0  0  0  0
   17.6932   -6.9763  -14.4421 O   0  0  0  0  0  0  0  0  0  0  0  0
   19.1942   -6.0038  -15.8781 N   0  0  0  0  0  0  0  0  0  0  0  0
   19.9712   -5.2161  -14.9417 C   0  0  1  0  0  0  0  0  0  0  0  0
   20.8954   -6.0547  -14.0886 C   0  0  0  0  0  0  0  0  0  0  0  0
   21.6265   -5.2871  -13.0827 C   0  0  0  0  0  0  0  0  0  0  0  0
   21.1537   -4.2138  -12.6541 O   0  0  0  0  0  0  0  0  0  0  0  0
   20.7787   -4.1855  -15.6375 C   0  0  0  0  0  0  0  0  0  0  0  0
   21.2691   -3.2439  -14.9668 O   0  0  0  0  0  0  0  0  0  0  0  0
   22.8385   -5.7385  -12.6016 O   0  0  0  0  0  0  0  0  0  0  0  0
   21.0224   -4.2043  -16.9957 O   0  0  0  0  0  0  0  0  0  0  0  0
  2  1  1  1
  2  3  1  0
  3  4  1  0
  4  5  1  0
  6  5  1  0
  6  7  1  0
  8  2  1  0
  9  8  2  0
 10  8  1  0
 10 14  1  0
 11 12  1  0
 11 10  1  0
 12 13  1  0
 13 14  1  0
 14 15  1  1
 15 16  2  0
 17 15  1  0
 18 17  1  0
 18 22  1  0
 18 19  1  6
 20 19  1  0
 21 20  2  0
 22 23  2  0
 22 25  1  0
 24 20  1  0
M  END
$$$$
