ELF.pdb
     RDKit          3D

 29 29  0  0  1  0  0  0  0  0999 V2000
    9.0280  -18.3965   20.1349 N   0  0  0  0  0  0  0  0  0  0  0  0
   10.4178  -17.9471   20.2218 C   0  0  1  0  0  0  0  0  0  0  0  0
   11.1121  -18.0548   18.9142 C   0  0  0  0  0  0  0  0  0  0  0  0
   10.1647  -17.9389   17.7522 C   0  0  0  0  0  0  0  0  0  0  0  0
   10.9224  -18.0213   16.4566 C   0  0  0  0  0  0  0  0  0  0  0  0
   12.1667  -18.1483   16.5048 O   0  0  0  0  0  0  0  0  0  0  0  0
   10.4345  -16.6329   20.8724 C   0  0  0  0  0  0  0  0  0  0  0  0
   11.5001  -15.9956   21.0843 O   0  0  0  0  0  0  0  0  0  0  0  0
   10.3092  -17.9632   15.2260 O   0  0  0  0  0  0  0  0  0  0  0  0
    9.1287  -12.6973   19.7982 C   0  0  0  0  0  0  0  0  0  0  0  0
    7.8916  -13.5122   20.2174 C   0  0  2  0  0  0  0  0  0  0  0  0
    6.6602  -12.6951   19.9365 C   0  0  0  0  0  0  0  0  0  0  0  0
    8.0427  -13.8298   21.6786 C   0  0  0  0  0  0  0  0  0  0  0  0
    9.1400  -14.7547   21.9944 C   0  0  2  0  0  0  0  0  0  0  0  0
    9.2130  -15.9942   21.3091 N   0  0  0  0  0  0  0  0  0  0  0  0
    9.2349  -14.9686   23.4714 C   0  0  0  0  0  0  0  0  0  0  0  0
    9.8020  -14.0675   24.1699 O   0  0  0  0  0  0  0  0  0  0  0  0
    8.7185  -16.1225   24.0875 N   0  0  0  0  0  0  0  0  0  0  0  0
    8.8628  -16.2709   25.5343 C   0  0  1  0  0  0  0  0  0  0  0  0
    7.5436  -16.0864   26.2241 C   0  0  0  0  0  0  0  0  0  0  0  0
    7.2460  -14.6774   26.4403 C   0  0  0  0  0  0  0  0  0  0  0  0
    6.0180  -14.1660   25.9996 C   0  0  0  0  0  0  0  0  0  0  0  0
    5.6833  -12.8448   26.2012 C   0  0  0  0  0  0  0  0  0  0  0  0
    6.5416  -11.9840   26.8410 C   0  0  0  0  0  0  0  0  0  0  0  0
    7.7740  -12.4684   27.2915 C   0  0  0  0  0  0  0  0  0  0  0  0
    8.1073  -13.7904   27.0891 C   0  0  0  0  0  0  0  0  0  0  0  0
    9.3733  -17.6407   25.7739 C   0  0  0  0  0  0  0  0  0  0  0  0
    9.6857  -18.1311   27.0375 O   0  0  0  0  0  0  0  0  0  0  0  0
    9.5545  -18.4441   24.8177 O   0  0  0  0  0  0  0  0  0  0  0  0
  2  1  1  6
  2  3  1  0
  3  4  1  0
  4  5  1  0
  5  6  2  0
  5  9  1  0
  7  2  1  0
  8  7  2  0
 11 10  1  1
 11 13  1  0
 12 11  1  0
 14 13  1  1
 14 15  1  0
 15  7  1  0
 16 14  1  0
 16 17  2  0
 18 16  1  0
 19 18  1  0
 20 21  1  0
 19 20  1  1
 21 26  2  0
 22 21  1  0
 22 23  2  0
 23 24  1  0
 24 25  2  0
 26 25  1  0
 27 19  1  0
 28 27  1  0
 29 27  2  0
M  END
$$$$
