ELF.pdb
     RDKit          3D

 29 29  0  0  1  0  0  0  0  0999 V2000
    8.1762  -18.7933   21.2622 N   0  0  0  0  0  0  0  0  0  0  0  0
    9.3451  -18.0767   20.7513 C   0  0  1  0  0  0  0  0  0  0  0  0
    9.4438  -18.1712   19.2730 C   0  0  0  0  0  0  0  0  0  0  0  0
    8.3251  -18.9791   18.6755 C   0  0  0  0  0  0  0  0  0  0  0  0
    8.4551  -19.0151   17.1785 C   0  0  0  0  0  0  0  0  0  0  0  0
    9.4472  -19.5961   16.6836 O   0  0  0  0  0  0  0  0  0  0  0  0
    9.3445  -16.7286   21.3285 C   0  0  0  0  0  0  0  0  0  0  0  0
   10.1767  -15.8461   20.9890 O   0  0  0  0  0  0  0  0  0  0  0  0
    7.5345  -18.4392   16.3333 O   0  0  0  0  0  0  0  0  0  0  0  0
    6.1850  -13.3419   25.5726 C   0  0  0  0  0  0  0  0  0  0  0  0
    7.3617  -13.4365   24.5844 C   0  0  2  0  0  0  0  0  0  0  0  0
    7.2962  -12.2631   23.6454 C   0  0  0  0  0  0  0  0  0  0  0  0
    7.2332  -14.7495   23.8644 C   0  0  0  0  0  0  0  0  0  0  0  0
    8.4095  -15.1308   23.0707 C   0  0  2  0  0  0  0  0  0  0  0  0
    8.3762  -16.3394   22.3294 N   0  0  0  0  0  0  0  0  0  0  0  0
    9.6479  -15.0651   23.9065 C   0  0  0  0  0  0  0  0  0  0  0  0
   10.1909  -13.9265   24.0807 O   0  0  0  0  0  0  0  0  0  0  0  0
   10.2091  -16.2147   24.4907 N   0  0  0  0  0  0  0  0  0  0  0  0
   10.7268  -16.1282   25.8547 C   0  0  1  0  0  0  0  0  0  0  0  0
    9.6053  -16.0944   26.8503 C   0  0  0  0  0  0  0  0  0  0  0  0
   10.0633  -15.6414   28.1562 C   0  0  0  0  0  0  0  0  0  0  0  0
   10.4474  -16.5932   29.1103 C   0  0  0  0  0  0  0  0  0  0  0  0
   10.9080  -16.2115   30.3515 C   0  0  0  0  0  0  0  0  0  0  0  0
   11.0063  -14.8853   30.6959 C   0  0  0  0  0  0  0  0  0  0  0  0
   10.6298  -13.9143   29.7622 C   0  0  0  0  0  0  0  0  0  0  0  0
   10.1694  -14.2978   28.5209 C   0  0  0  0  0  0  0  0  0  0  0  0
   11.5614  -17.3328   26.0714 C   0  0  0  0  0  0  0  0  0  0  0  0
   12.6779  -17.3513   26.9007 O   0  0  0  0  0  0  0  0  0  0  0  0
   11.2913  -18.4235   25.4970 O   0  0  0  0  0  0  0  0  0  0  0  0
  2  1  1  6
  2  3  1  0
  3  4  1  0
  4  5  1  0
  5  6  2  0
  5  9  1  0
  7  2  1  0
  8  7  2  0
 11 10  1  1
 11 13  1  0
 12 11  1  0
 14 13  1  1
 14 15  1  0
 15  7  1  0
 16 14  1  0
 16 17  2  0
 18 16  1  0
 19 18  1  0
 20 21  1  0
 19 20  1  1
 21 26  2  0
 22 21  1  0
 22 23  2  0
 23 24  1  0
 24 25  2  0
 26 25  1  0
 27 19  1  0
 28 27  1  0
 29 27  2  0
M  END
$$$$
