ELF.pdb
     RDKit          3D

 29 29  0  0  1  0  0  0  0  0999 V2000
    9.4294  -19.6493   21.0285 N   0  0  0  0  0  0  0  0  0  0  0  0
   10.6757  -18.9567   20.6997 C   0  0  1  0  0  0  0  0  0  0  0  0
   11.0913  -19.2108   19.2974 C   0  0  0  0  0  0  0  0  0  0  0  0
   12.4326  -19.8851   19.2115 C   0  0  0  0  0  0  0  0  0  0  0  0
   13.3125  -19.1635   18.2295 C   0  0  0  0  0  0  0  0  0  0  0  0
   14.4951  -18.9209   18.5603 O   0  0  0  0  0  0  0  0  0  0  0  0
   10.5407  -17.5537   21.1048 C   0  0  0  0  0  0  0  0  0  0  0  0
   11.5049  -16.7438   21.0732 O   0  0  0  0  0  0  0  0  0  0  0  0
   12.8753  -18.7604   16.9885 O   0  0  0  0  0  0  0  0  0  0  0  0
    6.2595  -13.1296   21.3613 C   0  0  0  0  0  0  0  0  0  0  0  0
    7.6732  -13.5774   21.7745 C   0  0  2  0  0  0  0  0  0  0  0  0
    8.6760  -12.8549   20.9170 C   0  0  0  0  0  0  0  0  0  0  0  0
    7.7383  -15.0680   21.5931 C   0  0  0  0  0  0  0  0  0  0  0  0
    9.0403  -15.6682   21.9148 C   0  0  2  0  0  0  0  0  0  0  0  0
    9.2778  -17.0224   21.5669 N   0  0  0  0  0  0  0  0  0  0  0  0
    9.3856  -15.4298   23.3501 C   0  0  0  0  0  0  0  0  0  0  0  0
   10.1045  -14.4169   23.6310 O   0  0  0  0  0  0  0  0  0  0  0  0
    8.9384  -16.2866   24.3717 N   0  0  0  0  0  0  0  0  0  0  0  0
    9.3564  -16.0188   25.7464 C   0  0  1  0  0  0  0  0  0  0  0  0
    8.1722  -15.7115   26.6143 C   0  0  0  0  0  0  0  0  0  0  0  0
    7.7327  -14.3330   26.4503 C   0  0  0  0  0  0  0  0  0  0  0  0
    8.6171  -13.2943   26.7708 C   0  0  0  0  0  0  0  0  0  0  0  0
    8.2536  -11.9749   26.6114 C   0  0  0  0  0  0  0  0  0  0  0  0
    7.0122  -11.6327   26.1331 C   0  0  0  0  0  0  0  0  0  0  0  0
    6.1098  -12.6499   25.8051 C   0  0  0  0  0  0  0  0  0  0  0  0
    6.4750  -13.9693   25.9650 C   0  0  0  0  0  0  0  0  0  0  0  0
   10.0370  -17.2420   26.2313 C   0  0  0  0  0  0  0  0  0  0  0  0
   10.5623  -17.3687   27.5130 O   0  0  0  0  0  0  0  0  0  0  0  0
   10.1763  -18.2490   25.4835 O   0  0  0  0  0  0  0  0  0  0  0  0
  2  1  1  6
  2  3  1  0
  3  4  1  0
  4  5  1  0
  5  6  2  0
  5  9  1  0
  7  2  1  0
  8  7  2  0
 11 10  1  6
 11 13  1  0
 12 11  1  0
 14 13  1  1
 14 15  1  0
 15  7  1  0
 16 14  1  0
 16 17  2  0
 18 16  1  0
 19 18  1  0
 20 21  1  0
 19 20  1  1
 21 26  2  0
 22 21  1  0
 22 23  2  0
 23 24  1  0
 24 25  2  0
 26 25  1  0
 27 19  1  0
 28 27  1  0
 29 27  2  0
M  END
$$$$
