ELF.pdb
     RDKit          3D

 29 29  0  0  1  0  0  0  0  0999 V2000
    8.4805  -18.5542   20.4802 N   0  0  0  0  0  0  0  0  0  0  0  0
    9.8529  -18.1380   20.1896 C   0  0  1  0  0  0  0  0  0  0  0  0
   10.1539  -18.2145   18.7380 C   0  0  0  0  0  0  0  0  0  0  0  0
   10.1789  -19.6306   18.2328 C   0  0  0  0  0  0  0  0  0  0  0  0
   10.6326  -19.6609   16.8001 C   0  0  0  0  0  0  0  0  0  0  0  0
    9.8285  -19.2891   15.9159 O   0  0  0  0  0  0  0  0  0  0  0  0
   10.0891  -16.8481   20.8461 C   0  0  0  0  0  0  0  0  0  0  0  0
   11.2445  -16.3761   21.0160 O   0  0  0  0  0  0  0  0  0  0  0  0
   11.8881  -20.0781   16.4213 O   0  0  0  0  0  0  0  0  0  0  0  0
    8.9026  -12.8358   19.5495 C   0  0  0  0  0  0  0  0  0  0  0  0
    7.7557  -13.5934   20.2430 C   0  0  2  0  0  0  0  0  0  0  0  0
    6.4830  -12.8132   20.0573 C   0  0  0  0  0  0  0  0  0  0  0  0
    8.1294  -13.7365   21.6917 C   0  0  0  0  0  0  0  0  0  0  0  0
    9.1280  -14.7787   21.9669 C   0  0  2  0  0  0  0  0  0  0  0  0
    8.9936  -16.0427   21.3381 N   0  0  0  0  0  0  0  0  0  0  0  0
    9.3159  -14.9464   23.4410 C   0  0  0  0  0  0  0  0  0  0  0  0
    9.8389  -13.9834   24.0896 O   0  0  0  0  0  0  0  0  0  0  0  0
    8.9322  -16.1239   24.1074 N   0  0  0  0  0  0  0  0  0  0  0  0
    9.0659  -16.1835   25.5616 C   0  0  1  0  0  0  0  0  0  0  0  0
    7.7251  -16.0771   26.2258 C   0  0  0  0  0  0  0  0  0  0  0  0
    7.3037  -14.6897   26.3600 C   0  0  0  0  0  0  0  0  0  0  0  0
    8.1804  -13.7658   26.9444 C   0  0  0  0  0  0  0  0  0  0  0  0
    7.8342  -12.4385   27.0729 C   0  0  0  0  0  0  0  0  0  0  0  0
    6.6181  -11.9755   26.6325 C   0  0  0  0  0  0  0  0  0  0  0  0
    5.7240  -12.8764   26.0449 C   0  0  0  0  0  0  0  0  0  0  0  0
    6.0719  -14.2040   25.9170 C   0  0  0  0  0  0  0  0  0  0  0  0
    9.6873  -17.4901   25.8797 C   0  0  0  0  0  0  0  0  0  0  0  0
   10.1043  -18.3958   24.9098 O   0  0  0  0  0  0  0  0  0  0  0  0
    9.8689  -17.8503   27.0754 O   0  0  0  0  0  0  0  0  0  0  0  0
  2  1  1  6
  2  3  1  0
  3  4  1  0
  4  5  1  0
  5  6  2  0
  5  9  1  0
  7  2  1  0
  8  7  2  0
 11 10  1  6
 11 13  1  0
 12 11  1  0
 14 13  1  1
 14 15  1  0
 15  7  1  0
 16 14  1  0
 16 17  2  0
 18 16  1  0
 19 18  1  0
 20 21  1  0
 19 20  1  1
 21 26  2  0
 22 21  1  0
 22 23  2  0
 23 24  1  0
 24 25  2  0
 26 25  1  0
 27 19  1  0
 28 27  1  0
 29 27  2  0
M  END
$$$$
