ELF.pdb
     RDKit          3D

 29 29  0  0  1  0  0  0  0  0999 V2000
   10.6212  -18.5186   19.0042 N   0  0  0  0  0  0  0  0  0  0  0  0
   11.8162  -17.8399   19.5065 C   0  0  1  0  0  0  0  0  0  0  0  0
   12.4682  -17.0240   18.4515 C   0  0  0  0  0  0  0  0  0  0  0  0
   13.7925  -17.5939   18.0243 C   0  0  0  0  0  0  0  0  0  0  0  0
   14.0386  -17.2980   16.5712 C   0  0  0  0  0  0  0  0  0  0  0  0
   15.1127  -17.6881   16.0606 O   0  0  0  0  0  0  0  0  0  0  0  0
   11.4621  -17.1498   20.7510 C   0  0  0  0  0  0  0  0  0  0  0  0
   12.3287  -16.7339   21.5651 O   0  0  0  0  0  0  0  0  0  0  0  0
   13.1375  -16.6198   15.7826 O   0  0  0  0  0  0  0  0  0  0  0  0
    8.6819  -13.5119   21.1088 C   0  0  0  0  0  0  0  0  0  0  0  0
    7.9014  -14.8375   21.0476 C   0  0  2  0  0  0  0  0  0  0  0  0
    6.4299  -14.5275   21.0083 C   0  0  0  0  0  0  0  0  0  0  0  0
    8.2828  -15.6345   22.2634 C   0  0  0  0  0  0  0  0  0  0  0  0
    9.6515  -16.1686   22.2415 C   0  0  2  0  0  0  0  0  0  0  0  0
   10.0826  -16.9087   21.1112 N   0  0  0  0  0  0  0  0  0  0  0  0
    9.9384  -16.9235   23.5001 C   0  0  0  0  0  0  0  0  0  0  0  0
    9.9240  -18.1958   23.4496 O   0  0  0  0  0  0  0  0  0  0  0  0
   10.2186  -16.2655   24.7110 N   0  0  0  0  0  0  0  0  0  0  0  0
   10.4547  -17.0689   25.9088 C   0  0  1  0  0  0  0  0  0  0  0  0
   11.1163  -16.2512   26.9784 C   0  0  0  0  0  0  0  0  0  0  0  0
   10.4234  -14.9882   27.1909 C   0  0  0  0  0  0  0  0  0  0  0  0
   11.1267  -13.9117   27.7479 C   0  0  0  0  0  0  0  0  0  0  0  0
   10.5193  -12.6912   27.9474 C   0  0  0  0  0  0  0  0  0  0  0  0
    9.2040  -12.4880   27.6074 C   0  0  0  0  0  0  0  0  0  0  0  0
    8.4786  -13.5458   27.0494 C   0  0  0  0  0  0  0  0  0  0  0  0
    9.0877  -14.7661   26.8501 C   0  0  0  0  0  0  0  0  0  0  0  0
    9.1296  -17.5383   26.3758 C   0  0  0  0  0  0  0  0  0  0  0  0
    7.9320  -17.1798   25.7660 O   0  0  0  0  0  0  0  0  0  0  0  0
    9.0249  -18.3023   27.3749 O   0  0  0  0  0  0  0  0  0  0  0  0
  2  1  1  6
  2  3  1  0
  3  4  1  0
  4  5  1  0
  5  6  2  0
  5  9  1  0
  7  2  1  0
  8  7  2  0
 11 10  1  1
 11 13  1  0
 12 11  1  0
 14 13  1  6
 14 15  1  0
 15  7  1  0
 16 14  1  0
 16 17  2  0
 18 16  1  0
 19 18  1  0
 20 21  1  0
 19 20  1  1
 21 26  2  0
 22 21  1  0
 22 23  2  0
 23 24  1  0
 24 25  2  0
 26 25  1  0
 27 19  1  0
 28 27  1  0
 29 27  2  0
M  END
$$$$
