ELF.pdb
     RDKit          3D

 29 29  0  0  1  0  0  0  0  0999 V2000
    8.3047  -18.9155   21.1220 N   0  0  0  0  0  0  0  0  0  0  0  0
    9.5561  -18.4636   20.5131 C   0  0  1  0  0  0  0  0  0  0  0  0
    9.5824  -18.7277   19.0525 C   0  0  0  0  0  0  0  0  0  0  0  0
   10.9455  -18.5097   18.4562 C   0  0  0  0  0  0  0  0  0  0  0  0
   10.8939  -18.6951   16.9654 C   0  0  0  0  0  0  0  0  0  0  0  0
   10.3140  -19.7084   16.5140 O   0  0  0  0  0  0  0  0  0  0  0  0
    9.7999  -17.0817   20.9390 C   0  0  0  0  0  0  0  0  0  0  0  0
   10.9205  -16.5210   20.8105 O   0  0  0  0  0  0  0  0  0  0  0  0
   11.4542  -17.8027   16.0804 O   0  0  0  0  0  0  0  0  0  0  0  0
    8.8888  -13.1290   19.5751 C   0  0  0  0  0  0  0  0  0  0  0  0
    7.6413  -13.7988   20.1793 C   0  0  2  0  0  0  0  0  0  0  0  0
    6.4442  -12.9350   19.8898 C   0  0  0  0  0  0  0  0  0  0  0  0
    7.8892  -13.9522   21.6538 C   0  0  0  0  0  0  0  0  0  0  0  0
    8.9072  -14.9526   22.0032 C   0  0  2  0  0  0  0  0  0  0  0  0
    8.7529  -16.2826   21.5357 N   0  0  0  0  0  0  0  0  0  0  0  0
    9.1650  -14.9437   23.4762 C   0  0  0  0  0  0  0  0  0  0  0  0
    9.3713  -13.8204   24.0395 O   0  0  0  0  0  0  0  0  0  0  0  0
    9.1819  -16.1293   24.2324 N   0  0  0  0  0  0  0  0  0  0  0  0
    9.3670  -16.0373   25.6792 C   0  0  1  0  0  0  0  0  0  0  0  0
    8.0602  -15.7806   26.3694 C   0  0  0  0  0  0  0  0  0  0  0  0
    7.7406  -14.3602   26.3978 C   0  0  0  0  0  0  0  0  0  0  0  0
    8.7058  -13.4548   26.8585 C   0  0  0  0  0  0  0  0  0  0  0  0
    8.4568  -12.0999   26.8832 C   0  0  0  0  0  0  0  0  0  0  0  0
    7.2543  -11.5906   26.4572 C   0  0  0  0  0  0  0  0  0  0  0  0
    6.2730  -12.4722   25.9921 C   0  0  0  0  0  0  0  0  0  0  0  0
    6.5237  -13.8273   25.9678 C   0  0  0  0  0  0  0  0  0  0  0  0
    9.9278  -17.3352   26.1210 C   0  0  0  0  0  0  0  0  0  0  0  0
   10.2241  -17.6292   27.4479 O   0  0  0  0  0  0  0  0  0  0  0  0
   10.1703  -18.2553   25.2920 O   0  0  0  0  0  0  0  0  0  0  0  0
  2  1  1  6
  2  3  1  0
  3  4  1  0
  4  5  1  0
  5  6  2  0
  5  9  1  0
  7  2  1  0
  8  7  2  0
 11 10  1  6
 11 13  1  0
 12 11  1  0
 14 13  1  1
 14 15  1  0
 15  7  1  0
 16 14  1  0
 16 17  2  0
 18 16  1  0
 19 18  1  0
 20 21  1  0
 19 20  1  1
 21 26  2  0
 22 21  1  0
 22 23  2  0
 23 24  1  0
 24 25  2  0
 26 25  1  0
 27 19  1  0
 28 27  1  0
 29 27  2  0
M  END
$$$$
