ELF.pdb
     RDKit          3D

 29 29  0  0  1  0  0  0  0  0999 V2000
   10.9011  -17.9380   19.6822 N   0  0  0  0  0  0  0  0  0  0  0  0
   11.8550  -17.4387   20.6730 C   0  0  1  0  0  0  0  0  0  0  0  0
   13.0192  -16.7790   20.0302 C   0  0  0  0  0  0  0  0  0  0  0  0
   14.2129  -17.6888   19.9374 C   0  0  0  0  0  0  0  0  0  0  0  0
   15.3650  -16.9671   19.2961 C   0  0  0  0  0  0  0  0  0  0  0  0
   15.5869  -17.1673   18.0806 O   0  0  0  0  0  0  0  0  0  0  0  0
   11.1152  -16.6524   21.6655 C   0  0  0  0  0  0  0  0  0  0  0  0
   11.6572  -16.1909   22.7047 O   0  0  0  0  0  0  0  0  0  0  0  0
   16.1818  -16.1001   19.9851 O   0  0  0  0  0  0  0  0  0  0  0  0
    8.5403  -12.9748   21.0866 C   0  0  0  0  0  0  0  0  0  0  0  0
    7.7369  -14.2373   20.7250 C   0  0  2  0  0  0  0  0  0  0  0  0
    6.3879  -13.8170   20.2088 C   0  0  0  0  0  0  0  0  0  0  0  0
    7.6349  -15.0714   21.9711 C   0  0  0  0  0  0  0  0  0  0  0  0
    8.9062  -15.6506   22.4266 C   0  0  2  0  0  0  0  0  0  0  0  0
    9.7082  -16.3635   21.4993 N   0  0  0  0  0  0  0  0  0  0  0  0
    8.6975  -16.4599   23.6666 C   0  0  0  0  0  0  0  0  0  0  0  0
    9.0301  -17.6889   23.6405 O   0  0  0  0  0  0  0  0  0  0  0  0
    8.1531  -15.8978   24.8352 N   0  0  0  0  0  0  0  0  0  0  0  0
    7.9058  -16.7672   25.9837 C   0  0  1  0  0  0  0  0  0  0  0  0
    7.5587  -15.9600   27.1994 C   0  0  0  0  0  0  0  0  0  0  0  0
    8.6159  -15.0162   27.5341 C   0  0  0  0  0  0  0  0  0  0  0  0
    9.6922  -15.4506   28.3194 C   0  0  0  0  0  0  0  0  0  0  0  0
   10.7264  -14.5998   28.6434 C   0  0  0  0  0  0  0  0  0  0  0  0
   10.7377  -13.2971   28.2079 C   0  0  0  0  0  0  0  0  0  0  0  0
    9.6757  -12.8374   27.4222 C   0  0  0  0  0  0  0  0  0  0  0  0
    8.6420  -13.6898   27.0987 C   0  0  0  0  0  0  0  0  0  0  0  0
    6.7709  -17.6459   25.6171 C   0  0  0  0  0  0  0  0  0  0  0  0
    6.3902  -18.7560   26.3637 O   0  0  0  0  0  0  0  0  0  0  0  0
    6.0824  -17.4224   24.5835 O   0  0  0  0  0  0  0  0  0  0  0  0
  2  1  1  6
  2  3  1  0
  3  4  1  0
  4  5  1  0
  5  6  2  0
  5  9  1  0
  7  2  1  0
  8  7  2  0
 11 10  1  1
 11 13  1  0
 12 11  1  0
 14 13  1  6
 14 15  1  0
 15  7  1  0
 16 14  1  0
 16 17  2  0
 18 16  1  0
 19 18  1  0
 20 21  1  0
 19 20  1  1
 21 26  2  0
 22 21  1  0
 22 23  2  0
 23 24  1  0
 24 25  2  0
 26 25  1  0
 27 19  1  0
 28 27  1  0
 29 27  2  0
M  END
$$$$
