ELF.pdb
     RDKit          3D

 29 29  0  0  1  0  0  0  0  0999 V2000
    9.0714  -18.5167   20.4343 N   0  0  0  0  0  0  0  0  0  0  0  0
   10.4617  -18.0629   20.4798 C   0  0  1  0  0  0  0  0  0  0  0  0
   11.1259  -18.1961   19.1588 C   0  0  0  0  0  0  0  0  0  0  0  0
   10.3701  -19.1027   18.2273 C   0  0  0  0  0  0  0  0  0  0  0  0
   11.1024  -19.2290   16.9207 C   0  0  0  0  0  0  0  0  0  0  0  0
   10.5873  -19.9260   16.0176 O   0  0  0  0  0  0  0  0  0  0  0  0
   10.4903  -16.7356   21.1027 C   0  0  0  0  0  0  0  0  0  0  0  0
   11.5541  -16.0759   21.2427 O   0  0  0  0  0  0  0  0  0  0  0  0
   12.3091  -18.6141   16.6766 O   0  0  0  0  0  0  0  0  0  0  0  0
    9.0457  -12.7776   19.9637 C   0  0  0  0  0  0  0  0  0  0  0  0
    7.8867  -13.6815   20.4216 C   0  0  2  0  0  0  0  0  0  0  0  0
    6.5878  -12.9765   20.1410 C   0  0  0  0  0  0  0  0  0  0  0  0
    8.0839  -13.9490   21.8874 C   0  0  0  0  0  0  0  0  0  0  0  0
    9.2171  -14.8298   22.2025 C   0  0  2  0  0  0  0  0  0  0  0  0
    9.2832  -16.1092   21.5941 N   0  0  0  0  0  0  0  0  0  0  0  0
    9.3930  -14.9462   23.6829 C   0  0  0  0  0  0  0  0  0  0  0  0
    9.9587  -13.9830   24.2945 O   0  0  0  0  0  0  0  0  0  0  0  0
    8.9527  -16.0764   24.3947 N   0  0  0  0  0  0  0  0  0  0  0  0
    9.0619  -16.0753   25.8521 C   0  0  1  0  0  0  0  0  0  0  0  0
    7.7064  -15.9909   26.4890 C   0  0  0  0  0  0  0  0  0  0  0  0
    7.1956  -14.6272   26.4800 C   0  0  0  0  0  0  0  0  0  0  0  0
    7.9841  -13.6018   27.0192 C   0  0  0  0  0  0  0  0  0  0  0  0
    7.5523  -12.2935   27.0133 C   0  0  0  0  0  0  0  0  0  0  0  0
    6.3344  -11.9496   26.4789 C   0  0  0  0  0  0  0  0  0  0  0  0
    5.5273  -12.9535   25.9338 C   0  0  0  0  0  0  0  0  0  0  0  0
    5.9608  -14.2619   25.9403 C   0  0  0  0  0  0  0  0  0  0  0  0
    9.7223  -17.3458   26.2314 C   0  0  0  0  0  0  0  0  0  0  0  0
   10.1504  -18.2921   25.3062 O   0  0  0  0  0  0  0  0  0  0  0  0
    9.9296  -17.6353   27.4422 O   0  0  0  0  0  0  0  0  0  0  0  0
  2  1  1  6
  2  3  1  0
  3  4  1  0
  4  5  1  0
  5  6  2  0
  5  9  1  0
  7  2  1  0
  8  7  2  0
 11 10  1  1
 11 13  1  0
 12 11  1  0
 14 13  1  1
 14 15  1  0
 15  7  1  0
 16 14  1  0
 16 17  2  0
 18 16  1  0
 19 18  1  0
 20 21  1  0
 19 20  1  1
 21 26  2  0
 22 21  1  0
 22 23  2  0
 23 24  1  0
 24 25  2  0
 26 25  1  0
 27 19  1  0
 28 27  1  0
 29 27  2  0
M  END
$$$$
