ELF.pdb
     RDKit          3D

 29 29  0  0  1  0  0  0  0  0999 V2000
    8.7896  -18.5034   20.4117 N   0  0  0  0  0  0  0  0  0  0  0  0
   10.1139  -17.9584   20.1112 C   0  0  1  0  0  0  0  0  0  0  0  0
   10.3767  -17.9291   18.6504 C   0  0  0  0  0  0  0  0  0  0  0  0
   10.8446  -19.2587   18.1266 C   0  0  0  0  0  0  0  0  0  0  0  0
   11.1230  -19.1652   16.6524 C   0  0  0  0  0  0  0  0  0  0  0  0
   11.9883  -18.3487   16.2634 O   0  0  0  0  0  0  0  0  0  0  0  0
   10.2629  -16.6916   20.8347 C   0  0  0  0  0  0  0  0  0  0  0  0
   11.3791  -16.1301   20.9945 O   0  0  0  0  0  0  0  0  0  0  0  0
   10.4703  -19.9353   15.7172 O   0  0  0  0  0  0  0  0  0  0  0  0
    8.8439  -12.9266   19.6223 C   0  0  0  0  0  0  0  0  0  0  0  0
    7.7016  -13.6624   20.3461 C   0  0  2  0  0  0  0  0  0  0  0  0
    6.4320  -12.8765   20.1635 C   0  0  0  0  0  0  0  0  0  0  0  0
    8.0948  -13.7807   21.7920 C   0  0  0  0  0  0  0  0  0  0  0  0
    9.1620  -14.7548   22.0591 C   0  0  2  0  0  0  0  0  0  0  0  0
    9.1215  -16.0144   21.4087 N   0  0  0  0  0  0  0  0  0  0  0  0
    9.3500  -14.9336   23.5318 C   0  0  0  0  0  0  0  0  0  0  0  0
    9.7968  -13.9464   24.2009 O   0  0  0  0  0  0  0  0  0  0  0  0
    9.0473  -16.1468   24.1753 N   0  0  0  0  0  0  0  0  0  0  0  0
    9.3204  -16.2706   25.6058 C   0  0  1  0  0  0  0  0  0  0  0  0
    8.0631  -16.1006   26.4060 C   0  0  0  0  0  0  0  0  0  0  0  0
    7.6858  -14.6986   26.5173 C   0  0  0  0  0  0  0  0  0  0  0  0
    6.4473  -14.2848   26.0086 C   0  0  0  0  0  0  0  0  0  0  0  0
    6.0380  -12.9732   26.1103 C   0  0  0  0  0  0  0  0  0  0  0  0
    6.8297  -12.0265   26.7137 C   0  0  0  0  0  0  0  0  0  0  0  0
    8.0709  -12.4125   27.2304 C   0  0  0  0  0  0  0  0  0  0  0  0
    8.4789  -13.7251   27.1280 C   0  0  0  0  0  0  0  0  0  0  0  0
    9.8773  -17.6268   25.8180 C   0  0  0  0  0  0  0  0  0  0  0  0
   10.1560  -18.5108   24.7809 O   0  0  0  0  0  0  0  0  0  0  0  0
   10.1283  -18.0528   26.9791 O   0  0  0  0  0  0  0  0  0  0  0  0
  2  1  1  6
  2  3  1  0
  3  4  1  0
  4  5  1  0
  5  6  2  0
  5  9  1  0
  7  2  1  0
  8  7  2  0
 11 10  1  6
 11 13  1  0
 12 11  1  0
 14 13  1  1
 14 15  1  0
 15  7  1  0
 16 14  1  0
 16 17  2  0
 18 16  1  0
 19 18  1  0
 20 21  1  0
 19 20  1  1
 21 26  2  0
 22 21  1  0
 22 23  2  0
 23 24  1  0
 24 25  2  0
 26 25  1  0
 27 19  1  0
 28 27  1  0
 29 27  2  0
M  END
$$$$
