ELF.pdb
     RDKit          3D

 29 29  0  0  1  0  0  0  0  0999 V2000
   11.0491  -17.6431   19.4788 N   0  0  0  0  0  0  0  0  0  0  0  0
   11.9246  -17.5013   20.6426 C   0  0  1  0  0  0  0  0  0  0  0  0
   13.2455  -16.9356   20.2700 C   0  0  0  0  0  0  0  0  0  0  0  0
   13.7667  -17.5022   18.9782 C   0  0  0  0  0  0  0  0  0  0  0  0
   15.2667  -17.5893   19.0192 C   0  0  0  0  0  0  0  0  0  0  0  0
   15.7925  -18.3711   19.8433 O   0  0  0  0  0  0  0  0  0  0  0  0
   11.1792  -16.8017   21.6941 C   0  0  0  0  0  0  0  0  0  0  0  0
   11.7100  -16.4497   22.7808 O   0  0  0  0  0  0  0  0  0  0  0  0
   16.0822  -16.8498   18.1935 O   0  0  0  0  0  0  0  0  0  0  0  0
    8.7130  -13.0137   21.1648 C   0  0  0  0  0  0  0  0  0  0  0  0
    7.8930  -14.2551   20.7691 C   0  0  2  0  0  0  0  0  0  0  0  0
    6.5607  -13.8017   20.2376 C   0  0  0  0  0  0  0  0  0  0  0  0
    7.7547  -15.1072   21.9995 C   0  0  0  0  0  0  0  0  0  0  0  0
    9.0046  -15.7292   22.4578 C   0  0  2  0  0  0  0  0  0  0  0  0
    9.7794  -16.4765   21.5344 N   0  0  0  0  0  0  0  0  0  0  0  0
    8.7679  -16.5227   23.7030 C   0  0  0  0  0  0  0  0  0  0  0  0
    9.0828  -17.7565   23.6937 O   0  0  0  0  0  0  0  0  0  0  0  0
    8.2163  -15.9408   24.8585 N   0  0  0  0  0  0  0  0  0  0  0  0
    8.0057  -16.7806   26.0359 C   0  0  1  0  0  0  0  0  0  0  0  0
    7.6699  -15.9443   27.2351 C   0  0  0  0  0  0  0  0  0  0  0  0
    8.7226  -14.9813   27.5268 C   0  0  0  0  0  0  0  0  0  0  0  0
    8.5629  -13.6523   27.1121 C   0  0  0  0  0  0  0  0  0  0  0  0
    9.5219  -12.7013   27.3845 C   0  0  0  0  0  0  0  0  0  0  0  0
   10.6669  -13.0233   28.0717 C   0  0  0  0  0  0  0  0  0  0  0  0
   10.8516  -14.3428   28.4975 C   0  0  0  0  0  0  0  0  0  0  0  0
    9.8912  -15.2930   28.2244 C   0  0  0  0  0  0  0  0  0  0  0  0
    6.8779  -17.6867   25.7175 C   0  0  0  0  0  0  0  0  0  0  0  0
    6.1083  -17.5751   24.5643 O   0  0  0  0  0  0  0  0  0  0  0  0
    6.5550  -18.6233   26.4993 O   0  0  0  0  0  0  0  0  0  0  0  0
  2  1  1  6
  2  3  1  0
  3  4  1  0
  4  5  1  0
  5  6  2  0
  5  9  1  0
  7  2  1  0
  8  7  2  0
 11 10  1  1
 11 13  1  0
 12 11  1  0
 14 13  1  6
 14 15  1  0
 15  7  1  0
 16 14  1  0
 16 17  2  0
 18 16  1  0
 19 18  1  0
 20 21  1  0
 19 20  1  1
 21 26  2  0
 22 21  1  0
 22 23  2  0
 23 24  1  0
 24 25  2  0
 26 25  1  0
 27 19  1  0
 28 27  1  0
 29 27  2  0
M  END
$$$$
