ELF.pdb
     RDKit          3D

 29 29  0  0  1  0  0  0  0  0999 V2000
    8.5008  -18.7945   20.6285 N   0  0  0  0  0  0  0  0  0  0  0  0
    9.9104  -18.4511   20.4378 C   0  0  1  0  0  0  0  0  0  0  0  0
   10.3533  -18.7047   19.0438 C   0  0  0  0  0  0  0  0  0  0  0  0
    9.2048  -18.7248   18.0734 C   0  0  0  0  0  0  0  0  0  0  0  0
    9.7077  -18.9897   16.6819 C   0  0  0  0  0  0  0  0  0  0  0  0
    8.8723  -19.0532   15.7519 O   0  0  0  0  0  0  0  0  0  0  0  0
   10.1280  -17.0999   20.9646 C   0  0  0  0  0  0  0  0  0  0  0  0
   11.2716  -16.5770   21.0365 O   0  0  0  0  0  0  0  0  0  0  0  0
   11.0408  -19.1644   16.3885 O   0  0  0  0  0  0  0  0  0  0  0  0
    9.1520  -13.1242   19.5745 C   0  0  0  0  0  0  0  0  0  0  0  0
    7.8917  -13.7929   20.1530 C   0  0  2  0  0  0  0  0  0  0  0  0
    6.7067  -12.9106   19.8696 C   0  0  0  0  0  0  0  0  0  0  0  0
    8.1235  -13.9788   21.6263 C   0  0  0  0  0  0  0  0  0  0  0  0
    9.1453  -14.9792   21.9643 C   0  0  2  0  0  0  0  0  0  0  0  0
    9.0265  -16.2893   21.4343 N   0  0  0  0  0  0  0  0  0  0  0  0
    9.3559  -15.0320   23.4439 C   0  0  0  0  0  0  0  0  0  0  0  0
    9.9861  -14.0706   23.9919 O   0  0  0  0  0  0  0  0  0  0  0  0
    8.8791  -16.1018   24.2223 N   0  0  0  0  0  0  0  0  0  0  0  0
    9.0785  -16.0611   25.6696 C   0  0  1  0  0  0  0  0  0  0  0  0
    7.7766  -15.8424   26.3820 C   0  0  0  0  0  0  0  0  0  0  0  0
    7.3707  -14.4447   26.3364 C   0  0  0  0  0  0  0  0  0  0  0  0
    8.2306  -13.4691   26.8584 C   0  0  0  0  0  0  0  0  0  0  0  0
    7.8991  -12.1324   26.8179 C   0  0  0  0  0  0  0  0  0  0  0  0
    6.7147  -11.7105   26.2646 C   0  0  0  0  0  0  0  0  0  0  0  0
    5.8378  -12.6635   25.7360 C   0  0  0  0  0  0  0  0  0  0  0  0
    6.1710  -14.0003   25.7771 C   0  0  0  0  0  0  0  0  0  0  0  0
    9.6556  -17.3691   26.0577 C   0  0  0  0  0  0  0  0  0  0  0  0
    9.8749  -18.4065   25.1574 O   0  0  0  0  0  0  0  0  0  0  0  0
    9.9805  -17.6079   27.2536 O   0  0  0  0  0  0  0  0  0  0  0  0
  2  1  1  6
  2  3  1  0
  3  4  1  0
  4  5  1  0
  5  6  2  0
  5  9  1  0
  7  2  1  0
  8  7  2  0
 11 10  1  1
 11 13  1  0
 12 11  1  0
 14 13  1  1
 14 15  1  0
 15  7  1  0
 16 14  1  0
 16 17  2  0
 18 16  1  0
 19 18  1  0
 20 21  1  0
 19 20  1  1
 21 26  2  0
 22 21  1  0
 22 23  2  0
 23 24  1  0
 24 25  2  0
 26 25  1  0
 27 19  1  0
 28 27  1  0
 29 27  2  0
M  END
$$$$
