ELF.pdb
     RDKit          3D

 29 29  0  0  1  0  0  0  0  0999 V2000
    8.9092  -18.9748   20.5549 N   0  0  0  0  0  0  0  0  0  0  0  0
   10.2091  -18.3772   20.2479 C   0  0  1  0  0  0  0  0  0  0  0  0
   10.5521  -18.5179   18.8105 C   0  0  0  0  0  0  0  0  0  0  0  0
   11.5380  -19.6261   18.5635 C   0  0  0  0  0  0  0  0  0  0  0  0
   11.9071  -19.6753   17.1072 C   0  0  0  0  0  0  0  0  0  0  0  0
   13.0724  -19.3564   16.7800 O   0  0  0  0  0  0  0  0  0  0  0  0
   10.2317  -17.0199   20.8026 C   0  0  0  0  0  0  0  0  0  0  0  0
   11.2467  -16.2771   20.7342 O   0  0  0  0  0  0  0  0  0  0  0  0
   11.0226  -20.0542   16.1234 O   0  0  0  0  0  0  0  0  0  0  0  0
    8.4905  -13.2628   19.7824 C   0  0  0  0  0  0  0  0  0  0  0  0
    7.4198  -14.1525   20.4398 C   0  0  2  0  0  0  0  0  0  0  0  0
    6.0844  -13.4721   20.3113 C   0  0  0  0  0  0  0  0  0  0  0  0
    7.8235  -14.3476   21.8744 C   0  0  0  0  0  0  0  0  0  0  0  0
    9.0222  -15.1754   22.0666 C   0  0  2  0  0  0  0  0  0  0  0  0
    9.0753  -16.4584   21.4647 N   0  0  0  0  0  0  0  0  0  0  0  0
    9.3682  -15.2653   23.5186 C   0  0  0  0  0  0  0  0  0  0  0  0
   10.3610  -14.5876   23.9389 O   0  0  0  0  0  0  0  0  0  0  0  0
    8.6307  -16.0676   24.4075 N   0  0  0  0  0  0  0  0  0  0  0  0
    9.1241  -16.2405   25.7723 C   0  0  1  0  0  0  0  0  0  0  0  0
    8.0928  -15.8072   26.7718 C   0  0  0  0  0  0  0  0  0  0  0  0
    7.9199  -14.3613   26.7687 C   0  0  0  0  0  0  0  0  0  0  0  0
    6.7000  -13.8228   26.3379 C   0  0  0  0  0  0  0  0  0  0  0  0
    6.4825  -12.4623   26.3379 C   0  0  0  0  0  0  0  0  0  0  0  0
    7.4538  -11.5875   26.7603 C   0  0  0  0  0  0  0  0  0  0  0  0
    8.6809  -12.0982   27.1958 C   0  0  0  0  0  0  0  0  0  0  0  0
    8.8969  -13.4595   27.1953 C   0  0  0  0  0  0  0  0  0  0  0  0
    9.4186  -17.6825   25.9401 C   0  0  0  0  0  0  0  0  0  0  0  0
    9.3279  -18.6078   24.9056 O   0  0  0  0  0  0  0  0  0  0  0  0
    9.7720  -18.1487   27.0584 O   0  0  0  0  0  0  0  0  0  0  0  0
  2  1  1  6
  2  3  1  0
  3  4  1  0
  4  5  1  0
  5  6  2  0
  5  9  1  0
  7  2  1  0
  8  7  2  0
 11 10  1  6
 11 13  1  0
 12 11  1  0
 14 13  1  1
 14 15  1  0
 15  7  1  0
 16 14  1  0
 16 17  2  0
 18 16  1  0
 19 18  1  0
 20 21  1  0
 19 20  1  1
 21 26  2  0
 22 21  1  0
 22 23  2  0
 23 24  1  0
 24 25  2  0
 26 25  1  0
 27 19  1  0
 28 27  1  0
 29 27  2  0
M  END
$$$$
