ELF.pdb
     RDKit          3D

 29 29  0  0  1  0  0  0  0  0999 V2000
    9.4979  -18.3519   18.6293 N   0  0  0  0  0  0  0  0  0  0  0  0
   10.7946  -17.7934   19.0135 C   0  0  1  0  0  0  0  0  0  0  0  0
   11.6007  -17.4112   17.8269 C   0  0  0  0  0  0  0  0  0  0  0  0
   12.5896  -18.4759   17.4402 C   0  0  0  0  0  0  0  0  0  0  0  0
   13.5184  -17.9581   16.3778 C   0  0  0  0  0  0  0  0  0  0  0  0
   14.3959  -18.7304   15.9301 O   0  0  0  0  0  0  0  0  0  0  0  0
   10.5646  -16.7513   20.0193 C   0  0  0  0  0  0  0  0  0  0  0  0
   11.5013  -16.2297   20.6806 O   0  0  0  0  0  0  0  0  0  0  0  0
   13.4453  -16.6776   15.8791 O   0  0  0  0  0  0  0  0  0  0  0  0
    8.5109  -12.6349   19.6558 C   0  0  0  0  0  0  0  0  0  0  0  0
    7.4673  -13.7660   19.6976 C   0  0  2  0  0  0  0  0  0  0  0  0
    6.0971  -13.1610   19.5585 C   0  0  0  0  0  0  0  0  0  0  0  0
    7.6422  -14.4841   21.0064 C   0  0  0  0  0  0  0  0  0  0  0  0
    8.9313  -15.1723   21.1602 C   0  0  2  0  0  0  0  0  0  0  0  0
    9.2340  -16.2637   20.3066 N   0  0  0  0  0  0  0  0  0  0  0  0
    9.1550  -15.5501   22.5897 C   0  0  0  0  0  0  0  0  0  0  0  0
    8.8982  -16.7478   22.9379 O   0  0  0  0  0  0  0  0  0  0  0  0
    9.6344  -14.6249   23.5341 N   0  0  0  0  0  0  0  0  0  0  0  0
    9.7659  -15.0471   24.9271 C   0  0  1  0  0  0  0  0  0  0  0  0
   10.5105  -14.0204   25.7282 C   0  0  0  0  0  0  0  0  0  0  0  0
   10.6068  -14.4029   27.1299 C   0  0  0  0  0  0  0  0  0  0  0  0
    9.6725  -13.8913   28.0405 C   0  0  0  0  0  0  0  0  0  0  0  0
    9.7105  -14.2420   29.3723 C   0  0  0  0  0  0  0  0  0  0  0  0
   10.6653  -15.1048   29.8530 C   0  0  0  0  0  0  0  0  0  0  0  0
   11.6100  -15.6305   28.9655 C   0  0  0  0  0  0  0  0  0  0  0  0
   11.5705  -15.2789   27.6333 C   0  0  0  0  0  0  0  0  0  0  0  0
    8.3915  -15.2047   25.4567 C   0  0  0  0  0  0  0  0  0  0  0  0
    8.0420  -16.1586   26.4068 O   0  0  0  0  0  0  0  0  0  0  0  0
    7.4515  -14.4632   25.0579 O   0  0  0  0  0  0  0  0  0  0  0  0
  2  1  1  6
  2  3  1  0
  3  4  1  0
  4  5  1  0
  5  6  2  0
  5  9  1  0
  7  2  1  0
  8  7  2  0
 11 10  1  1
 11 13  1  0
 12 11  1  0
 14 13  1  1
 14 15  1  0
 15  7  1  0
 16 14  1  0
 16 17  2  0
 18 16  1  0
 19 18  1  0
 20 21  1  0
 19 20  1  1
 21 26  2  0
 22 21  1  0
 22 23  2  0
 23 24  1  0
 24 25  2  0
 26 25  1  0
 27 19  1  0
 28 27  1  0
 29 27  2  0
M  END
$$$$
