NWF.pdb
     RDKit          3D

 34 36  0  0  1  0  0  0  0  0999 V2000
   30.6232  -22.9478  -16.8114 N   0  0  0  0  0  0  0  0  0  0  0  0
   29.6148  -21.9773  -17.0781 C   0  0  0  0  0  0  0  0  0  0  0  0
   29.1077  -21.9583  -18.2249 O   0  0  0  0  0  0  0  0  0  0  0  0
   29.1514  -21.0040  -16.0627 C   0  0  0  0  0  0  0  0  0  0  0  0
   27.9710  -21.5598  -15.3499 C   0  0  2  0  0  0  0  0  0  0  0  0
   26.8838  -21.7372  -16.2599 N   0  0  0  0  0  0  0  0  0  0  0  0
   27.6051  -20.8265  -14.1230 C   0  0  0  0  0  0  0  0  0  0  0  0
   28.1559  -19.7097  -13.9110 O   0  0  0  0  0  0  0  0  0  0  0  0
   26.6820  -21.2770  -13.1595 N   0  0  0  0  0  0  0  0  0  0  0  0
   26.1161  -20.4308  -12.1211 C   0  0  1  0  0  0  0  0  0  0  0  0
   24.6596  -20.2325  -12.2630 C   0  0  0  0  0  0  0  0  0  0  0  0
   24.2071  -19.4593  -13.4342 C   0  0  0  0  0  0  0  0  0  0  0  0
   23.0415  -19.7920  -14.1724 C   0  0  0  0  0  0  0  0  0  0  0  0
   22.8646  -18.8867  -15.1377 N   0  0  0  0  0  0  0  0  0  0  0  0
   23.8318  -17.9611  -15.1066 C   0  0  0  0  0  0  0  0  0  0  0  0
   24.0985  -16.8429  -15.8840 C   0  0  0  0  0  0  0  0  0  0  0  0
   25.2119  -16.0932  -15.5844 C   0  0  0  0  0  0  0  0  0  0  0  0
   26.0406  -16.4342  -14.5490 C   0  0  0  0  0  0  0  0  0  0  0  0
   25.7818  -17.5440  -13.7718 C   0  0  0  0  0  0  0  0  0  0  0  0
   24.6705  -18.3210  -14.0419 C   0  0  0  0  0  0  0  0  0  0  0  0
   26.4998  -20.9150  -10.7968 C   0  0  0  0  0  0  0  0  0  0  0  0
   26.5705  -22.1498  -10.5741 O   0  0  0  0  0  0  0  0  0  0  0  0
   26.8018  -20.0243   -9.7303 N   0  0  0  0  0  0  0  0  0  0  0  0
   27.1214  -20.5823   -8.4258 C   0  0  1  0  0  0  0  0  0  0  0  0
   28.1525  -19.6815   -7.7905 C   0  0  0  0  0  0  0  0  0  0  0  0
   28.3640  -19.9331   -6.3492 C   0  0  0  0  0  0  0  0  0  0  0  0
   27.6625  -19.2674   -5.3686 C   0  0  0  0  0  0  0  0  0  0  0  0
   27.8539  -19.5052   -4.0300 C   0  0  0  0  0  0  0  0  0  0  0  0
   28.7867  -20.4495   -3.6417 C   0  0  0  0  0  0  0  0  0  0  0  0
   29.4895  -21.1162   -4.6276 C   0  0  0  0  0  0  0  0  0  0  0  0
   29.3021  -20.8822   -5.9738 C   0  0  0  0  0  0  0  0  0  0  0  0
   25.9184  -20.6521   -7.5619 C   0  0  0  0  0  0  0  0  0  0  0  0
   25.8063  -21.4683   -6.4517 O   0  0  0  0  0  0  0  0  0  0  0  0
   24.9371  -19.9244   -7.8573 O   0  0  0  0  0  0  0  0  0  0  0  0
  2  1  1  0
  2  3  2  0
  4  2  1  0
  5  7  1  0
  5  4  1  0
  5  6  1  6
  7  8  2  0
  9 10  1  0
  9  7  1  0
 10 11  1  1
 11 12  1  0
 12 20  1  0
 13 14  1  0
 13 12  2  0
 14 15  1  0
 15 20  2  0
 15 16  1  0
 16 17  2  0
 17 18  1  0
 19 18  2  0
 20 19  1  0
 21 10  1  0
 22 21  2  0
 23 21  1  0
 24 25  1  1
 24 23  1  0
 25 26  1  0
 26 27  2  0
 27 28  1  0
 29 28  2  0
 30 29  1  0
 31 26  1  0
 31 30  2  0
 32 24  1  0
 32 33  1  0
 34 32  2  0
M  END
$$$$
