NWF.pdb
     RDKit          3D

 34 36  0  0  1  0  0  0  0  0999 V2000
   29.4736  -18.0017  -14.0085 N   0  0  0  0  0  0  0  0  0  0  0  0
   28.3991  -18.7918  -14.5096 C   0  0  0  0  0  0  0  0  0  0  0  0
   27.8908  -18.4621  -15.6074 O   0  0  0  0  0  0  0  0  0  0  0  0
   27.8694  -19.9723  -13.7891 C   0  0  0  0  0  0  0  0  0  0  0  0
   28.5951  -20.1302  -12.5011 C   0  0  2  0  0  0  0  0  0  0  0  0
   29.8595  -20.7582  -12.7212 N   0  0  0  0  0  0  0  0  0  0  0  0
   27.7975  -20.7593  -11.4310 C   0  0  0  0  0  0  0  0  0  0  0  0
   27.9038  -22.0070  -11.2653 O   0  0  0  0  0  0  0  0  0  0  0  0
   26.9182  -20.0729  -10.5714 N   0  0  0  0  0  0  0  0  0  0  0  0
   25.6972  -20.6497  -10.0318 C   0  0  1  0  0  0  0  0  0  0  0  0
   25.3609  -20.1431   -8.6859 C   0  0  0  0  0  0  0  0  0  0  0  0
   26.4909  -19.7438   -7.8268 C   0  0  0  0  0  0  0  0  0  0  0  0
   26.9102  -18.3954   -7.6843 C   0  0  0  0  0  0  0  0  0  0  0  0
   27.9171  -18.3431   -6.8091 N   0  0  0  0  0  0  0  0  0  0  0  0
   28.2117  -19.5650   -6.3473 C   0  0  0  0  0  0  0  0  0  0  0  0
   29.1597  -20.0356   -5.4496 C   0  0  0  0  0  0  0  0  0  0  0  0
   29.2047  -21.3874   -5.2006 C   0  0  0  0  0  0  0  0  0  0  0  0
   28.3414  -22.2528   -5.8178 C   0  0  0  0  0  0  0  0  0  0  0  0
   27.3963  -21.7924   -6.7109 C   0  0  0  0  0  0  0  0  0  0  0  0
   27.3199  -20.4394   -6.9851 C   0  0  0  0  0  0  0  0  0  0  0  0
   24.5979  -20.5116  -10.9847 C   0  0  0  0  0  0  0  0  0  0  0  0
   24.7848  -19.9262  -12.0809 O   0  0  0  0  0  0  0  0  0  0  0  0
   23.2999  -21.0245  -10.7126 N   0  0  0  0  0  0  0  0  0  0  0  0
   22.2569  -20.8456  -11.7103 C   0  0  1  0  0  0  0  0  0  0  0  0
   22.6980  -21.5705  -12.9586 C   0  0  0  0  0  0  0  0  0  0  0  0
   21.6787  -21.5989  -14.0290 C   0  0  0  0  0  0  0  0  0  0  0  0
   20.8790  -22.6953  -14.2637 C   0  0  0  0  0  0  0  0  0  0  0  0
   19.9278  -22.7198  -15.2535 C   0  0  0  0  0  0  0  0  0  0  0  0
   19.7593  -21.6031  -16.0517 C   0  0  0  0  0  0  0  0  0  0  0  0
   20.5632  -20.5041  -15.8144 C   0  0  0  0  0  0  0  0  0  0  0  0
   21.5204  -20.4728  -14.8219 C   0  0  0  0  0  0  0  0  0  0  0  0
   20.9641  -21.3995  -11.2412 C   0  0  0  0  0  0  0  0  0  0  0  0
   19.7272  -20.9158  -11.6253 O   0  0  0  0  0  0  0  0  0  0  0  0
   20.9930  -22.3696  -10.4426 O   0  0  0  0  0  0  0  0  0  0  0  0
  2  1  1  0
  2  3  2  0
  4  2  1  0
  5  7  1  0
  5  4  1  0
  5  6  1  6
  7  8  2  0
  9 10  1  0
  9  7  1  0
 10 11  1  1
 11 12  1  0
 12 20  1  0
 13 14  1  0
 13 12  2  0
 14 15  1  0
 15 20  2  0
 15 16  1  0
 16 17  2  0
 17 18  1  0
 19 18  2  0
 20 19  1  0
 21 10  1  0
 22 21  2  0
 23 21  1  0
 24 25  1  6
 24 23  1  0
 25 26  1  0
 26 27  2  0
 27 28  1  0
 29 28  2  0
 30 29  1  0
 31 26  1  0
 31 30  2  0
 32 24  1  0
 32 33  1  0
 34 32  2  0
M  END
$$$$
