NWF.pdb
     RDKit          3D

 34 36  0  0  1  0  0  0  0  0999 V2000
   28.9867  -27.2730  -17.5047 N   0  0  0  0  0  0  0  0  0  0  0  0
   28.5597  -25.9663  -17.8790 C   0  0  0  0  0  0  0  0  0  0  0  0
   28.7765  -25.5933  -19.0565 O   0  0  0  0  0  0  0  0  0  0  0  0
   27.8786  -25.0465  -16.9393 C   0  0  0  0  0  0  0  0  0  0  0  0
   28.1736  -23.6411  -17.3244 C   0  0  2  0  0  0  0  0  0  0  0  0
   29.5713  -23.3762  -17.1912 N   0  0  0  0  0  0  0  0  0  0  0  0
   27.3137  -22.6402  -16.6642 C   0  0  0  0  0  0  0  0  0  0  0  0
   27.5582  -22.3477  -15.4600 O   0  0  0  0  0  0  0  0  0  0  0  0
   26.2311  -21.9787  -17.2756 N   0  0  0  0  0  0  0  0  0  0  0  0
   25.3906  -21.0035  -16.5994 C   0  0  1  0  0  0  0  0  0  0  0  0
   24.8042  -20.0063  -17.5173 C   0  0  0  0  0  0  0  0  0  0  0  0
   23.8986  -19.0076  -16.9199 C   0  0  0  0  0  0  0  0  0  0  0  0
   24.3317  -18.0477  -15.9685 C   0  0  0  0  0  0  0  0  0  0  0  0
   23.3049  -17.2554  -15.6514 N   0  0  0  0  0  0  0  0  0  0  0  0
   22.2022  -17.6122  -16.3222 C   0  0  0  0  0  0  0  0  0  0  0  0
   20.9034  -17.1237  -16.3385 C   0  0  0  0  0  0  0  0  0  0  0  0
   19.9853  -17.7445  -17.1527 C   0  0  0  0  0  0  0  0  0  0  0  0
   20.3348  -18.8168  -17.9294 C   0  0  0  0  0  0  0  0  0  0  0  0
   21.6239  -19.3077  -17.9188 C   0  0  0  0  0  0  0  0  0  0  0  0
   22.5748  -18.7081  -17.1139 C   0  0  0  0  0  0  0  0  0  0  0  0
   24.3909  -21.6729  -15.7698 C   0  0  0  0  0  0  0  0  0  0  0  0
   23.6829  -22.5910  -16.2548 O   0  0  0  0  0  0  0  0  0  0  0  0
   24.1853  -21.3174  -14.4085 N   0  0  0  0  0  0  0  0  0  0  0  0
   23.1625  -22.0216  -13.6514 C   0  0  1  0  0  0  0  0  0  0  0  0
   23.8501  -22.7120  -12.4987 C   0  0  0  0  0  0  0  0  0  0  0  0
   24.6737  -21.8118  -11.6639 C   0  0  0  0  0  0  0  0  0  0  0  0
   26.0093  -21.5848  -11.9116 C   0  0  0  0  0  0  0  0  0  0  0  0
   26.7731  -20.7438  -11.1406 C   0  0  0  0  0  0  0  0  0  0  0  0
   26.1858  -20.0946  -10.0699 C   0  0  0  0  0  0  0  0  0  0  0  0
   24.8453  -20.3242   -9.8232 C   0  0  0  0  0  0  0  0  0  0  0  0
   24.0725  -21.1675  -10.5938 C   0  0  0  0  0  0  0  0  0  0  0  0
   22.1371  -21.0845  -13.1329 C   0  0  0  0  0  0  0  0  0  0  0  0
   20.8869  -21.4710  -12.6869 O   0  0  0  0  0  0  0  0  0  0  0  0
   22.4207  -19.8606  -13.0973 O   0  0  0  0  0  0  0  0  0  0  0  0
  2  1  1  0
  2  3  2  0
  4  2  1  0
  5  7  1  0
  5  4  1  0
  5  6  1  1
  7  8  2  0
  9 10  1  0
  9  7  1  0
 10 11  1  6
 11 12  1  0
 12 20  1  0
 13 14  1  0
 13 12  2  0
 14 15  1  0
 15 20  2  0
 15 16  1  0
 16 17  2  0
 17 18  1  0
 19 18  2  0
 20 19  1  0
 21 10  1  0
 22 21  2  0
 23 21  1  0
 24 25  1  1
 24 23  1  0
 25 26  1  0
 26 27  2  0
 27 28  1  0
 29 28  2  0
 30 29  1  0
 31 26  1  0
 31 30  2  0
 32 24  1  0
 32 33  1  0
 34 32  2  0
M  END
$$$$
