NWF.pdb
     RDKit          3D

 34 36  0  0  1  0  0  0  0  0999 V2000
   31.0345  -23.1228  -18.2469 N   0  0  0  0  0  0  0  0  0  0  0  0
   30.4446  -21.9109  -18.7088 C   0  0  0  0  0  0  0  0  0  0  0  0
   31.0617  -21.2531  -19.5800 O   0  0  0  0  0  0  0  0  0  0  0  0
   29.1466  -21.4084  -18.2031 C   0  0  0  0  0  0  0  0  0  0  0  0
   28.6785  -22.2811  -17.0942 C   0  0  2  0  0  0  0  0  0  0  0  0
   28.1959  -23.5218  -17.6129 N   0  0  0  0  0  0  0  0  0  0  0  0
   27.7439  -21.6236  -16.1608 C   0  0  0  0  0  0  0  0  0  0  0  0
   28.1512  -20.6100  -15.5267 O   0  0  0  0  0  0  0  0  0  0  0  0
   26.4208  -22.0404  -15.9178 N   0  0  0  0  0  0  0  0  0  0  0  0
   25.5073  -21.3548  -15.0178 C   0  0  1  0  0  0  0  0  0  0  0  0
   24.0890  -21.6789  -15.2720 C   0  0  0  0  0  0  0  0  0  0  0  0
   23.0907  -20.9816  -14.4404 C   0  0  0  0  0  0  0  0  0  0  0  0
   22.9948  -19.5670  -14.3772 C   0  0  0  0  0  0  0  0  0  0  0  0
   21.9718  -19.2352  -13.5859 N   0  0  0  0  0  0  0  0  0  0  0  0
   21.3660  -20.3287  -13.1057 C   0  0  0  0  0  0  0  0  0  0  0  0
   20.2867  -20.5171  -12.2540 C   0  0  0  0  0  0  0  0  0  0  0  0
   19.9205  -21.8059  -11.9437 C   0  0  0  0  0  0  0  0  0  0  0  0
   20.5975  -22.8800  -12.4566 C   0  0  0  0  0  0  0  0  0  0  0  0
   21.6709  -22.7005  -13.3041 C   0  0  0  0  0  0  0  0  0  0  0  0
   22.0672  -21.4193  -13.6401 C   0  0  0  0  0  0  0  0  0  0  0  0
   25.9004  -21.5663  -13.6263 C   0  0  0  0  0  0  0  0  0  0  0  0
   26.3966  -22.6653  -13.2723 O   0  0  0  0  0  0  0  0  0  0  0  0
   25.7392  -20.5558  -12.6389 N   0  0  0  0  0  0  0  0  0  0  0  0
   26.0753  -20.8699  -11.2592 C   0  0  1  0  0  0  0  0  0  0  0  0
   27.4148  -20.2388  -10.9666 C   0  0  0  0  0  0  0  0  0  0  0  0
   27.8233  -20.3259   -9.5485 C   0  0  0  0  0  0  0  0  0  0  0  0
   28.6287  -21.3347   -9.0685 C   0  0  0  0  0  0  0  0  0  0  0  0
   29.0136  -21.4126   -7.7529 C   0  0  0  0  0  0  0  0  0  0  0  0
   28.5795  -20.4433   -6.8670 C   0  0  0  0  0  0  0  0  0  0  0  0
   27.7711  -19.4321   -7.3510 C   0  0  0  0  0  0  0  0  0  0  0  0
   27.3809  -19.3479   -8.6712 C   0  0  0  0  0  0  0  0  0  0  0  0
   25.0564  -20.3366  -10.3233 C   0  0  0  0  0  0  0  0  0  0  0  0
   24.6414  -20.9858   -9.1754 O   0  0  0  0  0  0  0  0  0  0  0  0
   24.5352  -19.2244  -10.5900 O   0  0  0  0  0  0  0  0  0  0  0  0
  2  1  1  0
  2  3  2  0
  4  2  1  0
  5  7  1  0
  5  4  1  0
  5  6  1  6
  7  8  2  0
  9 10  1  0
  9  7  1  0
 10 11  1  1
 11 12  1  0
 12 20  1  0
 13 14  1  0
 13 12  2  0
 14 15  1  0
 15 20  2  0
 15 16  1  0
 16 17  2  0
 17 18  1  0
 19 18  2  0
 20 19  1  0
 21 10  1  0
 22 21  2  0
 23 21  1  0
 24 25  1  1
 24 23  1  0
 25 26  1  0
 26 27  2  0
 27 28  1  0
 29 28  2  0
 30 29  1  0
 31 26  1  0
 31 30  2  0
 32 24  1  0
 32 33  1  0
 34 32  2  0
M  END
$$$$
