NWF.pdb
     RDKit          3D

 34 36  0  0  1  0  0  0  0  0999 V2000
   28.0307  -22.0212  -17.4084 N   0  0  0  0  0  0  0  0  0  0  0  0
   28.7165  -22.6568  -16.3334 C   0  0  0  0  0  0  0  0  0  0  0  0
   29.7890  -23.2525  -16.5926 O   0  0  0  0  0  0  0  0  0  0  0  0
   28.2138  -22.6385  -14.9406 C   0  0  0  0  0  0  0  0  0  0  0  0
   26.8957  -21.9519  -14.9013 C   0  0  2  0  0  0  0  0  0  0  0  0
   27.0217  -20.6140  -15.3867 N   0  0  0  0  0  0  0  0  0  0  0  0
   26.2015  -22.0498  -13.6031 C   0  0  0  0  0  0  0  0  0  0  0  0
   25.8771  -23.1976  -13.1871 O   0  0  0  0  0  0  0  0  0  0  0  0
   25.8679  -20.9548  -12.7826 N   0  0  0  0  0  0  0  0  0  0  0  0
   25.1196  -21.0704  -11.5411 C   0  0  1  0  0  0  0  0  0  0  0  0
   25.5937  -20.1487  -10.4892 C   0  0  0  0  0  0  0  0  0  0  0  0
   26.8833  -20.4759   -9.8535 C   0  0  0  0  0  0  0  0  0  0  0  0
   27.9098  -21.1940  -10.5206 C   0  0  0  0  0  0  0  0  0  0  0  0
   28.9679  -21.2923   -9.7122 N   0  0  0  0  0  0  0  0  0  0  0  0
   28.7301  -20.6904   -8.5399 C   0  0  0  0  0  0  0  0  0  0  0  0
   29.4870  -20.5262   -7.3883 C   0  0  0  0  0  0  0  0  0  0  0  0
   28.9242  -19.8503   -6.3311 C   0  0  0  0  0  0  0  0  0  0  0  0
   27.6516  -19.3499   -6.4042 C   0  0  0  0  0  0  0  0  0  0  0  0
   26.8935  -19.5088   -7.5456 C   0  0  0  0  0  0  0  0  0  0  0  0
   27.4264  -20.1814   -8.6296 C   0  0  0  0  0  0  0  0  0  0  0  0
   23.6844  -20.9590  -11.7931 C   0  0  0  0  0  0  0  0  0  0  0  0
   22.9066  -20.6221  -10.8653 O   0  0  0  0  0  0  0  0  0  0  0  0
   23.1244  -21.2227  -13.0732 N   0  0  0  0  0  0  0  0  0  0  0  0
   21.6891  -21.0682  -13.2510 C   0  0  1  0  0  0  0  0  0  0  0  0
   21.4631  -20.5233  -14.6403 C   0  0  0  0  0  0  0  0  0  0  0  0
   21.8980  -19.1211  -14.8140 C   0  0  0  0  0  0  0  0  0  0  0  0
   21.1453  -18.0515  -14.3824 C   0  0  0  0  0  0  0  0  0  0  0  0
   21.5517  -16.7493  -14.5377 C   0  0  0  0  0  0  0  0  0  0  0  0
   22.7641  -16.4920  -15.1512 C   0  0  0  0  0  0  0  0  0  0  0  0
   23.5176  -17.5671  -15.5836 C   0  0  0  0  0  0  0  0  0  0  0  0
   23.1154  -18.8774  -15.4307 C   0  0  0  0  0  0  0  0  0  0  0  0
   20.9867  -22.3655  -13.1026 C   0  0  0  0  0  0  0  0  0  0  0  0
   21.6150  -23.5965  -13.1346 O   0  0  0  0  0  0  0  0  0  0  0  0
   19.7407  -22.3462  -12.9384 O   0  0  0  0  0  0  0  0  0  0  0  0
  2  1  1  0
  2  3  2  0
  4  2  1  0
  5  7  1  0
  5  4  1  0
  5  6  1  1
  7  8  2  0
  9 10  1  0
  9  7  1  0
 10 11  1  1
 11 12  1  0
 12 20  1  0
 13 14  1  0
 13 12  2  0
 14 15  1  0
 15 20  2  0
 15 16  1  0
 16 17  2  0
 17 18  1  0
 19 18  2  0
 20 19  1  0
 21 10  1  0
 22 21  2  0
 23 21  1  0
 24 25  1  6
 24 23  1  0
 25 26  1  0
 26 27  2  0
 27 28  1  0
 29 28  2  0
 30 29  1  0
 31 26  1  0
 31 30  2  0
 32 24  1  0
 32 33  1  0
 34 32  2  0
M  END
$$$$
