NWF.pdb
     RDKit          3D

 34 36  0  0  1  0  0  0  0  0999 V2000
   23.8608  -16.5222  -19.7597 N   0  0  0  0  0  0  0  0  0  0  0  0
   22.5898  -17.1358  -19.5652 C   0  0  0  0  0  0  0  0  0  0  0  0
   21.5892  -16.5911  -20.0892 O   0  0  0  0  0  0  0  0  0  0  0  0
   22.4119  -18.3769  -18.7770 C   0  0  0  0  0  0  0  0  0  0  0  0
   23.6937  -18.7243  -18.1088 C   0  0  2  0  0  0  0  0  0  0  0  0
   24.6267  -19.2316  -19.0647 N   0  0  0  0  0  0  0  0  0  0  0  0
   23.5413  -19.5793  -16.9160 C   0  0  0  0  0  0  0  0  0  0  0  0
   23.4635  -20.8285  -17.0857 O   0  0  0  0  0  0  0  0  0  0  0  0
   23.4746  -19.1089  -15.5902 N   0  0  0  0  0  0  0  0  0  0  0  0
   23.2203  -19.9610  -14.4396 C   0  0  1  0  0  0  0  0  0  0  0  0
   24.2489  -19.8381  -13.3871 C   0  0  0  0  0  0  0  0  0  0  0  0
   25.6268  -20.2070  -13.7609 C   0  0  0  0  0  0  0  0  0  0  0  0
   26.1986  -21.4670  -13.4453 C   0  0  0  0  0  0  0  0  0  0  0  0
   27.4319  -21.5247  -13.9536 N   0  0  0  0  0  0  0  0  0  0  0  0
   27.7380  -20.3885  -14.5928 C   0  0  0  0  0  0  0  0  0  0  0  0
   28.8720  -19.9558  -15.2657 C   0  0  0  0  0  0  0  0  0  0  0  0
   28.8624  -18.6934  -15.8112 C   0  0  0  0  0  0  0  0  0  0  0  0
   27.7677  -17.8786  -15.6977 C   0  0  0  0  0  0  0  0  0  0  0  0
   26.6369  -18.3019  -15.0308 C   0  0  0  0  0  0  0  0  0  0  0  0
   26.6090  -19.5657  -14.4707 C   0  0  0  0  0  0  0  0  0  0  0  0
   21.8631  -19.7566  -13.9378 C   0  0  0  0  0  0  0  0  0  0  0  0
   21.4902  -18.6112  -13.5796 O   0  0  0  0  0  0  0  0  0  0  0  0
   20.9310  -20.8257  -13.8375 N   0  0  0  0  0  0  0  0  0  0  0  0
   19.5312  -20.5593  -14.1294 C   0  0  1  0  0  0  0  0  0  0  0  0
   19.4621  -19.9912  -15.5261 C   0  0  0  0  0  0  0  0  0  0  0  0
   18.0870  -19.7269  -16.0000 C   0  0  0  0  0  0  0  0  0  0  0  0
   17.3121  -18.7051  -15.4978 C   0  0  0  0  0  0  0  0  0  0  0  0
   16.0373  -18.4552  -15.9421 C   0  0  0  0  0  0  0  0  0  0  0  0
   15.5017  -19.2571  -16.9334 C   0  0  0  0  0  0  0  0  0  0  0  0
   16.2812  -20.2821  -17.4357 C   0  0  0  0  0  0  0  0  0  0  0  0
   17.5623  -20.5384  -16.9940 C   0  0  0  0  0  0  0  0  0  0  0  0
   18.7213  -21.7988  -14.0533 C   0  0  0  0  0  0  0  0  0  0  0  0
   17.4557  -21.8665  -13.5009 O   0  0  0  0  0  0  0  0  0  0  0  0
   19.2160  -22.8562  -14.5191 O   0  0  0  0  0  0  0  0  0  0  0  0
  2  1  1  0
  2  3  2  0
  4  2  1  0
  5  7  1  0
  5  4  1  0
  5  6  1  6
  7  8  2  0
  9 10  1  0
  9  7  1  0
 10 11  1  1
 11 12  1  0
 12 20  1  0
 13 14  1  0
 13 12  2  0
 14 15  1  0
 15 20  2  0
 15 16  1  0
 16 17  2  0
 17 18  1  0
 19 18  2  0
 20 19  1  0
 21 10  1  0
 22 21  2  0
 23 21  1  0
 24 25  1  6
 24 23  1  0
 25 26  1  0
 26 27  2  0
 27 28  1  0
 29 28  2  0
 30 29  1  0
 31 26  1  0
 31 30  2  0
 32 24  1  0
 32 33  1  0
 34 32  2  0
M  END
$$$$
