NWF.pdb
     RDKit          3D

 34 36  0  0  1  0  0  0  0  0999 V2000
   16.0107  -12.4292  -16.5353 N   0  0  0  0  0  0  0  0  0  0  0  0
   17.1176  -12.1716  -15.6760 C   0  0  0  0  0  0  0  0  0  0  0  0
   17.5124  -13.1016  -14.9333 O   0  0  0  0  0  0  0  0  0  0  0  0
   17.8081  -10.8624  -15.6303 C   0  0  0  0  0  0  0  0  0  0  0  0
   18.3511  -10.5442  -16.9773 C   0  0  2  0  0  0  0  0  0  0  0  0
   19.1603  -11.6226  -17.4503 N   0  0  0  0  0  0  0  0  0  0  0  0
   19.0062   -9.2254  -17.0690 C   0  0  0  0  0  0  0  0  0  0  0  0
   20.2606   -9.1734  -16.9299 O   0  0  0  0  0  0  0  0  0  0  0  0
   18.3380   -8.0076  -17.3011 N   0  0  0  0  0  0  0  0  0  0  0  0
   18.9924   -6.7091  -17.2912 C   0  0  1  0  0  0  0  0  0  0  0  0
   18.4135   -5.7594  -18.2628 C   0  0  0  0  0  0  0  0  0  0  0  0
   18.7065   -6.0071  -19.6866 C   0  0  0  0  0  0  0  0  0  0  0  0
   18.2743   -7.1737  -20.3696 C   0  0  0  0  0  0  0  0  0  0  0  0
   18.6454   -7.0911  -21.6495 N   0  0  0  0  0  0  0  0  0  0  0  0
   19.3018   -5.9475  -21.8830 C   0  0  0  0  0  0  0  0  0  0  0  0
   19.8866   -5.4055  -23.0189 C   0  0  0  0  0  0  0  0  0  0  0  0
   20.5090   -4.1840  -22.9101 C   0  0  0  0  0  0  0  0  0  0  0  0
   20.5555   -3.5140  -21.7168 C   0  0  0  0  0  0  0  0  0  0  0  0
   19.9762   -4.0462  -20.5837 C   0  0  0  0  0  0  0  0  0  0  0  0
   19.3399   -5.2716  -20.6549 C   0  0  0  0  0  0  0  0  0  0  0  0
   19.0500   -6.1721  -15.9333 C   0  0  0  0  0  0  0  0  0  0  0  0
   18.1194   -6.4089  -15.1226 O   0  0  0  0  0  0  0  0  0  0  0  0
   20.1404   -5.3763  -15.4865 N   0  0  0  0  0  0  0  0  0  0  0  0
   20.2290   -5.0467  -14.0727 C   0  0  1  0  0  0  0  0  0  0  0  0
   20.4053   -6.3419  -13.3180 C   0  0  0  0  0  0  0  0  0  0  0  0
   20.6078   -6.1674  -11.8640 C   0  0  0  0  0  0  0  0  0  0  0  0
   19.5606   -6.0733  -10.9745 C   0  0  0  0  0  0  0  0  0  0  0  0
   19.7482   -5.9178   -9.6234 C   0  0  0  0  0  0  0  0  0  0  0  0
   21.0373   -5.8518   -9.1269 C   0  0  0  0  0  0  0  0  0  0  0  0
   22.0866   -5.9463  -10.0215 C   0  0  0  0  0  0  0  0  0  0  0  0
   21.9052   -6.1027  -11.3797 C   0  0  0  0  0  0  0  0  0  0  0  0
   21.3780   -4.1497  -13.8012 C   0  0  0  0  0  0  0  0  0  0  0  0
   22.3486   -3.8282  -14.7317 O   0  0  0  0  0  0  0  0  0  0  0  0
   21.4778   -3.6502  -12.6522 O   0  0  0  0  0  0  0  0  0  0  0  0
  2  1  1  0
  2  3  2  0
  4  2  1  0
  5  7  1  0
  5  4  1  0
  5  6  1  1
  7  8  2  0
  9 10  1  0
  9  7  1  0
 10 11  1  6
 11 12  1  0
 12 20  1  0
 13 14  1  0
 13 12  2  0
 14 15  1  0
 15 20  2  0
 15 16  1  0
 16 17  2  0
 17 18  1  0
 19 18  2  0
 20 19  1  0
 21 10  1  0
 22 21  2  0
 23 21  1  0
 24 25  1  1
 24 23  1  0
 25 26  1  0
 26 27  2  0
 27 28  1  0
 29 28  2  0
 30 29  1  0
 31 26  1  0
 31 30  2  0
 32 24  1  0
 32 33  1  0
 34 32  2  0
M  END
$$$$
