NWF.pdb
     RDKit          3D

 34 36  0  0  1  0  0  0  0  0999 V2000
   27.4175  -21.8079  -19.1546 N   0  0  0  0  0  0  0  0  0  0  0  0
   26.0609  -22.1484  -18.8833 C   0  0  0  0  0  0  0  0  0  0  0  0
   25.2388  -22.0796  -19.8277 O   0  0  0  0  0  0  0  0  0  0  0  0
   25.5947  -22.5747  -17.5439 C   0  0  0  0  0  0  0  0  0  0  0  0
   26.7231  -22.4909  -16.5796 C   0  0  2  0  0  0  0  0  0  0  0  0
   27.5872  -23.6186  -16.7321 N   0  0  0  0  0  0  0  0  0  0  0  0
   26.3095  -22.2438  -15.1850 C   0  0  0  0  0  0  0  0  0  0  0  0
   25.8770  -23.2207  -14.5110 O   0  0  0  0  0  0  0  0  0  0  0  0
   26.3583  -20.9933  -14.5391 N   0  0  0  0  0  0  0  0  0  0  0  0
   25.8603  -20.7558  -13.1937 C   0  0  1  0  0  0  0  0  0  0  0  0
   26.6266  -19.7256  -12.4641 C   0  0  0  0  0  0  0  0  0  0  0  0
   27.4554  -20.1907  -11.3366 C   0  0  0  0  0  0  0  0  0  0  0  0
   28.7229  -20.8039  -11.5149 C   0  0  0  0  0  0  0  0  0  0  0  0
   29.2503  -21.0688  -10.3173 N   0  0  0  0  0  0  0  0  0  0  0  0
   28.4268  -20.6781   -9.3363 C   0  0  0  0  0  0  0  0  0  0  0  0
   28.5062  -20.7382   -7.9522 C   0  0  0  0  0  0  0  0  0  0  0  0
   27.4521  -20.2466   -7.2183 C   0  0  0  0  0  0  0  0  0  0  0  0
   26.3498  -19.7109   -7.8291 C   0  0  0  0  0  0  0  0  0  0  0  0
   26.2638  -19.6474   -9.2043 C   0  0  0  0  0  0  0  0  0  0  0  0
   27.3050  -20.1303   -9.9752 C   0  0  0  0  0  0  0  0  0  0  0  0
   24.4236  -20.4891  -13.2164 C   0  0  0  0  0  0  0  0  0  0  0  0
   23.9690  -19.5475  -13.9136 O   0  0  0  0  0  0  0  0  0  0  0  0
   23.5033  -21.2700  -12.4646 N   0  0  0  0  0  0  0  0  0  0  0  0
   22.1070  -20.8642  -12.4347 C   0  0  1  0  0  0  0  0  0  0  0  0
   21.3124  -21.9301  -13.1494 C   0  0  0  0  0  0  0  0  0  0  0  0
   21.3758  -21.8398  -14.6236 C   0  0  0  0  0  0  0  0  0  0  0  0
   22.3127  -22.5199  -15.3695 C   0  0  0  0  0  0  0  0  0  0  0  0
   22.3680  -22.4415  -16.7391 C   0  0  0  0  0  0  0  0  0  0  0  0
   21.4498  -21.6499  -17.4047 C   0  0  0  0  0  0  0  0  0  0  0  0
   20.5107  -20.9681  -16.6540 C   0  0  0  0  0  0  0  0  0  0  0  0
   20.4496  -21.0426  -15.2782 C   0  0  0  0  0  0  0  0  0  0  0  0
   21.6176  -20.7255  -11.0420 C   0  0  0  0  0  0  0  0  0  0  0  0
   22.4006  -20.9258   -9.9204 O   0  0  0  0  0  0  0  0  0  0  0  0
   20.4142  -20.4067  -10.8687 O   0  0  0  0  0  0  0  0  0  0  0  0
  2  1  1  0
  2  3  2  0
  4  2  1  0
  5  7  1  0
  5  4  1  0
  5  6  1  1
  7  8  2  0
  9 10  1  0
  9  7  1  0
 10 11  1  6
 11 12  1  0
 12 20  1  0
 13 14  1  0
 13 12  2  0
 14 15  1  0
 15 20  2  0
 15 16  1  0
 16 17  2  0
 17 18  1  0
 19 18  2  0
 20 19  1  0
 21 10  1  0
 22 21  2  0
 23 21  1  0
 24 25  1  6
 24 23  1  0
 25 26  1  0
 26 27  2  0
 27 28  1  0
 29 28  2  0
 30 29  1  0
 31 26  1  0
 31 30  2  0
 32 24  1  0
 32 33  1  0
 34 32  2  0
M  END
$$$$
