NWF.pdb
     RDKit          3D

 34 36  0  0  1  0  0  0  0  0999 V2000
   28.9261  -21.9624  -18.2287 N   0  0  0  0  0  0  0  0  0  0  0  0
   29.1897  -21.2185  -17.0425 C   0  0  0  0  0  0  0  0  0  0  0  0
   29.7658  -20.1110  -17.1606 O   0  0  0  0  0  0  0  0  0  0  0  0
   28.8122  -21.7009  -15.6942 C   0  0  0  0  0  0  0  0  0  0  0  0
   27.8713  -20.7336  -15.0702 C   0  0  2  0  0  0  0  0  0  0  0  0
   28.4133  -19.4127  -15.1255 N   0  0  0  0  0  0  0  0  0  0  0  0
   27.4015  -21.1272  -13.7281 C   0  0  0  0  0  0  0  0  0  0  0  0
   26.6784  -22.1582  -13.6298 O   0  0  0  0  0  0  0  0  0  0  0  0
   27.6976  -20.4382  -12.5360 N   0  0  0  0  0  0  0  0  0  0  0  0
   27.0761  -20.7313  -11.2545 C   0  0  1  0  0  0  0  0  0  0  0  0
   27.7722  -20.1024  -10.1139 C   0  0  0  0  0  0  0  0  0  0  0  0
   27.1419  -20.2513   -8.7892 C   0  0  0  0  0  0  0  0  0  0  0  0
   25.8054  -20.6970   -8.6187 C   0  0  0  0  0  0  0  0  0  0  0  0
   25.5366  -20.7770   -7.3133 N   0  0  0  0  0  0  0  0  0  0  0  0
   26.5999  -20.4148   -6.5843 C   0  0  0  0  0  0  0  0  0  0  0  0
   26.8240  -20.3190   -5.2181 C   0  0  0  0  0  0  0  0  0  0  0  0
   28.0584  -19.8897   -4.7901 C   0  0  0  0  0  0  0  0  0  0  0  0
   29.0454  -19.5631   -5.6813 C   0  0  0  0  0  0  0  0  0  0  0  0
   28.8302  -19.6561   -7.0406 C   0  0  0  0  0  0  0  0  0  0  0  0
   27.6021  -20.0856   -7.5084 C   0  0  0  0  0  0  0  0  0  0  0  0
   25.6483  -20.4224  -11.2923 C   0  0  0  0  0  0  0  0  0  0  0  0
   25.2627  -19.2263  -11.2918 O   0  0  0  0  0  0  0  0  0  0  0  0
   24.6600  -21.4441  -11.3301 N   0  0  0  0  0  0  0  0  0  0  0  0
   23.2985  -21.0833  -11.6928 C   0  0  1  0  0  0  0  0  0  0  0  0
   22.7227  -22.2332  -12.4830 C   0  0  0  0  0  0  0  0  0  0  0  0
   21.3004  -22.0599  -12.8467 C   0  0  0  0  0  0  0  0  0  0  0  0
   20.2774  -22.6681  -12.1537 C   0  0  0  0  0  0  0  0  0  0  0  0
   18.9559  -22.5023  -12.4871 C   0  0  0  0  0  0  0  0  0  0  0  0
   18.6298  -21.6939  -13.5608 C   0  0  0  0  0  0  0  0  0  0  0  0
   19.6582  -21.0848  -14.2549 C   0  0  0  0  0  0  0  0  0  0  0  0
   20.9875  -21.2470  -13.9252 C   0  0  0  0  0  0  0  0  0  0  0  0
   22.4686  -20.8391  -10.4887 C   0  0  0  0  0  0  0  0  0  0  0  0
   21.5364  -19.8239  -10.3812 O   0  0  0  0  0  0  0  0  0  0  0  0
   22.6222  -21.6021   -9.5017 O   0  0  0  0  0  0  0  0  0  0  0  0
  2  1  1  0
  2  3  2  0
  4  2  1  0
  5  7  1  0
  5  4  1  0
  5  6  1  1
  7  8  2  0
  9 10  1  0
  9  7  1  0
 10 11  1  1
 11 12  1  0
 12 20  1  0
 13 14  1  0
 13 12  2  0
 14 15  1  0
 15 20  2  0
 15 16  1  0
 16 17  2  0
 17 18  1  0
 19 18  2  0
 20 19  1  0
 21 10  1  0
 22 21  2  0
 23 21  1  0
 24 25  1  1
 24 23  1  0
 25 26  1  0
 26 27  2  0
 27 28  1  0
 29 28  2  0
 30 29  1  0
 31 26  1  0
 31 30  2  0
 32 24  1  0
 32 33  1  0
 34 32  2  0
M  END
$$$$
