NWF.pdb
     RDKit          3D

 34 36  0  0  1  0  0  0  0  0999 V2000
   24.5511  -18.4989  -20.3546 N   0  0  0  0  0  0  0  0  0  0  0  0
   25.8584  -18.3421  -19.8103 C   0  0  0  0  0  0  0  0  0  0  0  0
   26.8342  -18.4338  -20.5925 O   0  0  0  0  0  0  0  0  0  0  0  0
   26.1013  -18.0784  -18.3734 C   0  0  0  0  0  0  0  0  0  0  0  0
   24.8033  -18.0644  -17.6486 C   0  0  2  0  0  0  0  0  0  0  0  0
   24.0964  -16.8540  -17.9261 N   0  0  0  0  0  0  0  0  0  0  0  0
   24.9109  -18.3730  -16.2098 C   0  0  0  0  0  0  0  0  0  0  0  0
   25.8525  -17.8418  -15.5565 O   0  0  0  0  0  0  0  0  0  0  0  0
   24.0393  -19.2212  -15.4998 N   0  0  0  0  0  0  0  0  0  0  0  0
   24.1458  -19.4825  -14.0733 C   0  0  1  0  0  0  0  0  0  0  0  0
   22.8670  -19.8964  -13.4615 C   0  0  0  0  0  0  0  0  0  0  0  0
   22.9188  -20.3467  -12.0583 C   0  0  0  0  0  0  0  0  0  0  0  0
   23.9165  -19.9124  -11.1472 C   0  0  0  0  0  0  0  0  0  0  0  0
   23.6739  -20.4480   -9.9485 N   0  0  0  0  0  0  0  0  0  0  0  0
   22.5790  -21.2182   -9.9830 C   0  0  0  0  0  0  0  0  0  0  0  0
   21.9284  -21.9837   -9.0255 C   0  0  0  0  0  0  0  0  0  0  0  0
   20.8066  -22.6832   -9.4045 C   0  0  0  0  0  0  0  0  0  0  0  0
   20.3377  -22.6316  -10.6900 C   0  0  0  0  0  0  0  0  0  0  0  0
   20.9787  -21.8727  -11.6470 C   0  0  0  0  0  0  0  0  0  0  0  0
   22.1088  -21.1544  -11.3026 C   0  0  0  0  0  0  0  0  0  0  0  0
   25.2371  -20.4155  -13.8010 C   0  0  0  0  0  0  0  0  0  0  0  0
   25.2778  -21.5255  -14.3888 O   0  0  0  0  0  0  0  0  0  0  0  0
   26.2744  -20.1086  -12.8782 N   0  0  0  0  0  0  0  0  0  0  0  0
   27.3486  -21.0713  -12.6919 C   0  0  1  0  0  0  0  0  0  0  0  0
   28.5058  -20.3385  -12.0578 C   0  0  0  0  0  0  0  0  0  0  0  0
   28.2747  -19.9550  -10.6489 C   0  0  0  0  0  0  0  0  0  0  0  0
   27.5691  -18.8272  -10.2925 C   0  0  0  0  0  0  0  0  0  0  0  0
   27.3487  -18.4741   -8.9842 C   0  0  0  0  0  0  0  0  0  0  0  0
   27.8521  -19.2773   -7.9772 C   0  0  0  0  0  0  0  0  0  0  0  0
   28.5600  -20.4085   -8.3372 C   0  0  0  0  0  0  0  0  0  0  0  0
   28.7849  -20.7690   -9.6494 C   0  0  0  0  0  0  0  0  0  0  0  0
   26.9229  -22.1880  -11.8144 C   0  0  0  0  0  0  0  0  0  0  0  0
   27.6746  -23.3255  -11.5858 O   0  0  0  0  0  0  0  0  0  0  0  0
   25.8075  -22.0965  -11.2423 O   0  0  0  0  0  0  0  0  0  0  0  0
  2  1  1  0
  2  3  2  0
  4  2  1  0
  5  7  1  0
  5  4  1  0
  5  6  1  1
  7  8  2  0
  9 10  1  0
  9  7  1  0
 10 11  1  6
 11 12  1  0
 12 20  1  0
 13 14  1  0
 13 12  2  0
 14 15  1  0
 15 20  2  0
 15 16  1  0
 16 17  2  0
 17 18  1  0
 19 18  2  0
 20 19  1  0
 21 10  1  0
 22 21  2  0
 23 21  1  0
 24 25  1  1
 24 23  1  0
 25 26  1  0
 26 27  2  0
 27 28  1  0
 29 28  2  0
 30 29  1  0
 31 26  1  0
 31 30  2  0
 32 24  1  0
 32 33  1  0
 34 32  2  0
M  END
$$$$
