NWF.pdb
     RDKit          3D

 34 36  0  0  1  0  0  0  0  0999 V2000
   28.9408  -27.7751  -17.3242 N   0  0  0  0  0  0  0  0  0  0  0  0
   28.1226  -26.6444  -17.6100 C   0  0  0  0  0  0  0  0  0  0  0  0
   27.5413  -26.6067  -18.7205 O   0  0  0  0  0  0  0  0  0  0  0  0
   27.9373  -25.5279  -16.6549 C   0  0  0  0  0  0  0  0  0  0  0  0
   27.9824  -24.2370  -17.3909 C   0  0  2  0  0  0  0  0  0  0  0  0
   29.2949  -24.0094  -17.9077 N   0  0  0  0  0  0  0  0  0  0  0  0
   27.4335  -23.0926  -16.6385 C   0  0  0  0  0  0  0  0  0  0  0  0
   28.0100  -22.7540  -15.5668 O   0  0  0  0  0  0  0  0  0  0  0  0
   26.3067  -22.3405  -17.0234 N   0  0  0  0  0  0  0  0  0  0  0  0
   25.7920  -21.2082  -16.2701 C   0  0  1  0  0  0  0  0  0  0  0  0
   25.3322  -20.0991  -17.1301 C   0  0  0  0  0  0  0  0  0  0  0  0
   24.9654  -18.8425  -16.4513 C   0  0  0  0  0  0  0  0  0  0  0  0
   23.6206  -18.4774  -16.1823 C   0  0  0  0  0  0  0  0  0  0  0  0
   23.6087  -17.3189  -15.5187 N   0  0  0  0  0  0  0  0  0  0  0  0
   24.8547  -16.8708  -15.3189 C   0  0  0  0  0  0  0  0  0  0  0  0
   25.3667  -15.7369  -14.7042 C   0  0  0  0  0  0  0  0  0  0  0  0
   26.7315  -15.5687  -14.6831 C   0  0  0  0  0  0  0  0  0  0  0  0
   27.5698  -16.4902  -15.2515 C   0  0  0  0  0  0  0  0  0  0  0  0
   27.0683  -17.6198  -15.8640 C   0  0  0  0  0  0  0  0  0  0  0  0
   25.7014  -17.8239  -15.9032 C   0  0  0  0  0  0  0  0  0  0  0  0
   24.7787  -21.6453  -15.3121 C   0  0  0  0  0  0  0  0  0  0  0  0
   23.8992  -22.4730  -15.6596 O   0  0  0  0  0  0  0  0  0  0  0  0
   24.7500  -21.1598  -13.9760 N   0  0  0  0  0  0  0  0  0  0  0  0
   23.7846  -21.7284  -13.0486 C   0  0  1  0  0  0  0  0  0  0  0  0
   24.5577  -22.2835  -11.8771 C   0  0  0  0  0  0  0  0  0  0  0  0
   25.3344  -21.2683  -11.1344 C   0  0  0  0  0  0  0  0  0  0  0  0
   26.6046  -20.8871  -11.5058 C   0  0  0  0  0  0  0  0  0  0  0  0
   27.3238  -19.9397  -10.8202 C   0  0  0  0  0  0  0  0  0  0  0  0
   26.7578  -19.3389   -9.7106 C   0  0  0  0  0  0  0  0  0  0  0  0
   25.4830  -19.7232   -9.3396 C   0  0  0  0  0  0  0  0  0  0  0  0
   24.7551  -20.6740  -10.0239 C   0  0  0  0  0  0  0  0  0  0  0  0
   22.8266  -20.7013  -12.5737 C   0  0  0  0  0  0  0  0  0  0  0  0
   22.9754  -19.3434  -12.7866 O   0  0  0  0  0  0  0  0  0  0  0  0
   21.8151  -21.0883  -11.9357 O   0  0  0  0  0  0  0  0  0  0  0  0
  2  1  1  0
  2  3  2  0
  4  2  1  0
  5  7  1  0
  5  4  1  0
  5  6  1  1
  7  8  2  0
  9 10  1  0
  9  7  1  0
 10 11  1  6
 11 12  1  0
 12 20  1  0
 13 14  1  0
 13 12  2  0
 14 15  1  0
 15 20  2  0
 15 16  1  0
 16 17  2  0
 17 18  1  0
 19 18  2  0
 20 19  1  0
 21 10  1  0
 22 21  2  0
 23 21  1  0
 24 25  1  1
 24 23  1  0
 25 26  1  0
 26 27  2  0
 27 28  1  0
 29 28  2  0
 30 29  1  0
 31 26  1  0
 31 30  2  0
 32 24  1  0
 32 33  1  0
 34 32  2  0
M  END
$$$$
