QGW.pdb
     RDKit          3D

 28 29  0  0  1  0  0  0  0  0999 V2000
    6.9789  -19.8684   26.5936 N   0  0  0  0  0  0  0  0  0  0  0  0
    6.3005  -20.9100   25.8937 C   0  0  0  0  0  0  0  0  0  0  0  0
    6.0259  -21.9858   26.4820 O   0  0  0  0  0  0  0  0  0  0  0  0
    5.9206  -20.7170   24.4779 C   0  0  0  0  0  0  0  0  0  0  0  0
    6.2691  -19.4149   23.8746 C   0  0  0  0  0  0  0  0  0  0  0  0
    7.3359  -19.3951   22.8376 C   0  0  2  0  0  0  0  0  0  0  0  0
    8.6741  -19.4961   23.2779 N   0  0  0  0  0  0  0  0  0  0  0  0
    7.0917  -18.3025   21.8397 C   0  0  0  0  0  0  0  0  0  0  0  0
    6.5975  -18.6509   20.7409 O   0  0  0  0  0  0  0  0  0  0  0  0
    7.3734  -16.9411   22.0469 N   0  0  0  0  0  0  0  0  0  0  0  0
    8.5698  -16.2847   21.5668 C   0  0  0  0  0  0  0  0  0  0  0  0
    9.4157  -15.7849   22.6856 C   0  0  0  0  0  0  0  0  0  0  0  0
   10.4088  -15.0494   22.4540 O   0  0  0  0  0  0  0  0  0  0  0  0
    9.1035  -16.1379   24.0234 N   0  0  0  0  0  0  0  0  0  0  0  0
   10.1137  -16.1944   25.0793 C   0  0  1  0  0  0  0  0  0  0  0  0
    9.6292  -15.2824   26.1664 C   0  0  0  0  0  0  0  0  0  0  0  0
    8.2626  -14.7915   26.0755 C   0  0  0  0  0  0  0  0  0  0  0  0
    7.1567  -15.6482   25.9616 C   0  0  0  0  0  0  0  0  0  0  0  0
    6.0463  -14.9054   25.8614 N   0  0  0  0  0  0  0  0  0  0  0  0
    6.3482  -13.6019   25.9028 C   0  0  0  0  0  0  0  0  0  0  0  0
    5.5725  -12.4489   25.8548 C   0  0  0  0  0  0  0  0  0  0  0  0
    6.1533  -11.2025   25.9402 C   0  0  0  0  0  0  0  0  0  0  0  0
    7.5275  -11.1478   26.0744 C   0  0  0  0  0  0  0  0  0  0  0  0
    8.3081  -12.2799   26.1227 C   0  0  0  0  0  0  0  0  0  0  0  0
    7.7178  -13.5335   26.0354 C   0  0  0  0  0  0  0  0  0  0  0  0
   10.3539  -17.5386   25.5629 C   0  0  0  0  0  0  0  0  0  0  0  0
   11.3698  -17.7238   26.5243 O   0  0  0  0  0  0  0  0  0  0  0  0
    9.7343  -18.5438   25.1969 O   0  0  0  0  0  0  0  0  0  0  0  0
  2  1  1  0
  3  2  2  0
  4  2  1  0
  5  4  1  0
  6  5  1  0
  6  7  1  1
  8  6  1  0
  8  9  2  0
 10  8  1  0
 11 10  1  0
 11 12  1  0
 12 14  1  0
 13 12  2  0
 14 15  1  0
 15 26  1  0
 16 17  1  0
 15 16  1  1
 17 18  2  0
 19 18  1  0
 20 19  1  0
 21 20  2  0
 22 21  1  0
 23 22  2  0
 23 24  1  0
 24 25  2  0
 25 20  1  0
 25 17  1  0
 26 28  2  0
 26 27  1  0
M  END
$$$$
