QGW.pdb
     RDKit          3D

 28 29  0  0  1  0  0  0  0  0999 V2000
    7.3326  -15.5026   16.3506 N   0  0  0  0  0  0  0  0  0  0  0  0
    7.8589  -14.1870   16.1857 C   0  0  0  0  0  0  0  0  0  0  0  0
    8.3955  -13.8577   15.0982 O   0  0  0  0  0  0  0  0  0  0  0  0
    7.7676  -13.2148   17.2959 C   0  0  0  0  0  0  0  0  0  0  0  0
    7.6478  -13.7783   18.6558 C   0  0  0  0  0  0  0  0  0  0  0  0
    8.9041  -14.0881   19.3905 C   0  0  2  0  0  0  0  0  0  0  0  0
   10.0295  -14.4663   18.6255 N   0  0  0  0  0  0  0  0  0  0  0  0
    8.6296  -14.9728   20.5700 C   0  0  0  0  0  0  0  0  0  0  0  0
    7.8600  -14.5113   21.4462 O   0  0  0  0  0  0  0  0  0  0  0  0
    9.1654  -16.2586   20.7577 N   0  0  0  0  0  0  0  0  0  0  0  0
    8.9386  -17.0601   21.9406 C   0  0  0  0  0  0  0  0  0  0  0  0
    9.6246  -16.4937   23.1346 C   0  0  0  0  0  0  0  0  0  0  0  0
   10.6110  -15.7262   22.9983 O   0  0  0  0  0  0  0  0  0  0  0  0
    9.1663  -16.8192   24.4368 N   0  0  0  0  0  0  0  0  0  0  0  0
    9.9165  -16.4765   25.6444 C   0  0  1  0  0  0  0  0  0  0  0  0
    8.8925  -16.1717   26.6966 C   0  0  0  0  0  0  0  0  0  0  0  0
    7.8201  -15.2526   26.3475 C   0  0  0  0  0  0  0  0  0  0  0  0
    6.6171  -15.6798   25.7640 C   0  0  0  0  0  0  0  0  0  0  0  0
    5.8495  -14.6075   25.5278 N   0  0  0  0  0  0  0  0  0  0  0  0
    6.4714  -13.4893   25.9212 C   0  0  0  0  0  0  0  0  0  0  0  0
    6.1041  -12.1482   25.9099 C   0  0  0  0  0  0  0  0  0  0  0  0
    6.9487  -11.1800   26.4075 C   0  0  0  0  0  0  0  0  0  0  0  0
    8.1655  -11.5952   26.9138 C   0  0  0  0  0  0  0  0  0  0  0  0
    8.5430  -12.9183   26.9310 C   0  0  0  0  0  0  0  0  0  0  0  0
    7.6884  -13.8898   26.4276 C   0  0  0  0  0  0  0  0  0  0  0  0
   10.8301  -17.5209   26.0601 C   0  0  0  0  0  0  0  0  0  0  0  0
   11.6947  -17.2512   27.1419 O   0  0  0  0  0  0  0  0  0  0  0  0
   10.9126  -18.6383   25.5376 O   0  0  0  0  0  0  0  0  0  0  0  0
  2  1  1  0
  3  2  2  0
  4  2  1  0
  5  4  1  0
  6  5  1  0
  6  7  1  6
  8  6  1  0
  8  9  2  0
 10  8  1  0
 11 10  1  0
 11 12  1  0
 12 14  1  0
 13 12  2  0
 14 15  1  0
 15 26  1  0
 16 17  1  0
 15 16  1  1
 17 18  2  0
 19 18  1  0
 20 19  1  0
 21 20  2  0
 22 21  1  0
 23 22  2  0
 23 24  1  0
 24 25  2  0
 25 20  1  0
 25 17  1  0
 26 28  2  0
 26 27  1  0
M  END
$$$$
