QGW.pdb
     RDKit          3D

 28 29  0  0  1  0  0  0  0  0999 V2000
    7.3901  -12.5099   19.7546 N   0  0  0  0  0  0  0  0  0  0  0  0
    7.7244  -13.5413   18.8276 C   0  0  0  0  0  0  0  0  0  0  0  0
    6.9063  -13.8695   17.9322 O   0  0  0  0  0  0  0  0  0  0  0  0
    9.0356  -14.2181   18.9232 C   0  0  0  0  0  0  0  0  0  0  0  0
    9.4176  -14.7274   20.2558 C   0  0  0  0  0  0  0  0  0  0  0  0
    9.5792  -16.1980   20.4152 C   0  0  2  0  0  0  0  0  0  0  0  0
    8.4611  -17.0112   20.1263 N   0  0  0  0  0  0  0  0  0  0  0  0
   10.2660  -16.5235   21.7081 C   0  0  0  0  0  0  0  0  0  0  0  0
   11.3562  -15.9416   21.9225 O   0  0  0  0  0  0  0  0  0  0  0  0
    9.7816  -17.4189   22.6773 N   0  0  0  0  0  0  0  0  0  0  0  0
   10.5893  -17.9590   23.7490 C   0  0  0  0  0  0  0  0  0  0  0  0
   10.7199  -17.0019   24.8822 C   0  0  0  0  0  0  0  0  0  0  0  0
   11.6331  -16.1377   24.8840 O   0  0  0  0  0  0  0  0  0  0  0  0
    9.8109  -17.0613   25.9692 N   0  0  0  0  0  0  0  0  0  0  0  0
   10.0217  -16.3225   27.2135 C   0  0  1  0  0  0  0  0  0  0  0  0
    8.6562  -15.9725   27.7248 C   0  0  0  0  0  0  0  0  0  0  0  0
    7.7659  -15.2495   26.8296 C   0  0  0  0  0  0  0  0  0  0  0  0
    6.8205  -15.8956   26.0179 C   0  0  0  0  0  0  0  0  0  0  0  0
    6.1818  -14.9739   25.2850 N   0  0  0  0  0  0  0  0  0  0  0  0
    6.6465  -13.7494   25.5621 C   0  0  0  0  0  0  0  0  0  0  0  0
    6.3130  -12.4827   25.0955 C   0  0  0  0  0  0  0  0  0  0  0  0
    6.9523  -11.3613   25.5770 C   0  0  0  0  0  0  0  0  0  0  0  0
    7.9304  -11.5478   26.5351 C   0  0  0  0  0  0  0  0  0  0  0  0
    8.2717  -12.7949   27.0059 C   0  0  0  0  0  0  0  0  0  0  0  0
    7.6248  -13.9217   26.5166 C   0  0  0  0  0  0  0  0  0  0  0  0
   10.7950  -17.0634   28.1890 C   0  0  0  0  0  0  0  0  0  0  0  0
   11.1409  -18.3968   27.8841 O   0  0  0  0  0  0  0  0  0  0  0  0
   11.1785  -16.6161   29.2758 O   0  0  0  0  0  0  0  0  0  0  0  0
  2  1  1  0
  3  2  2  0
  4  2  1  0
  5  4  1  0
  6  5  1  0
  6  7  1  1
  8  6  1  0
  8  9  2  0
 10  8  1  0
 11 10  1  0
 11 12  1  0
 12 14  1  0
 13 12  2  0
 14 15  1  0
 15 26  1  0
 16 17  1  0
 15 16  1  1
 17 18  2  0
 19 18  1  0
 20 19  1  0
 21 20  2  0
 22 21  1  0
 23 22  2  0
 23 24  1  0
 24 25  2  0
 25 20  1  0
 25 17  1  0
 26 28  2  0
 26 27  1  0
M  END
$$$$
