QGW.pdb
     RDKit          3D

 28 29  0  0  1  0  0  0  0  0999 V2000
    8.6450  -13.0513   19.6646 N   0  0  0  0  0  0  0  0  0  0  0  0
    7.3414  -13.4238   20.1082 C   0  0  0  0  0  0  0  0  0  0  0  0
    6.4459  -12.5505   20.2276 O   0  0  0  0  0  0  0  0  0  0  0  0
    7.0490  -14.8386   20.4229 C   0  0  0  0  0  0  0  0  0  0  0  0
    8.1817  -15.7816   20.3278 C   0  0  0  0  0  0  0  0  0  0  0  0
    8.4520  -16.6600   21.4980 C   0  0  2  0  0  0  0  0  0  0  0  0
    7.4654  -16.7230   22.5067 N   0  0  0  0  0  0  0  0  0  0  0  0
    9.8482  -16.4580   22.0072 C   0  0  0  0  0  0  0  0  0  0  0  0
   10.7374  -16.2797   21.1409 O   0  0  0  0  0  0  0  0  0  0  0  0
   10.2216  -16.4554   23.3622 N   0  0  0  0  0  0  0  0  0  0  0  0
   11.5847  -16.2992   23.8209 C   0  0  0  0  0  0  0  0  0  0  0  0
   11.6633  -16.2016   25.3047 C   0  0  0  0  0  0  0  0  0  0  0  0
   12.7788  -16.1963   25.8845 O   0  0  0  0  0  0  0  0  0  0  0  0
   10.4747  -16.1140   26.0737 N   0  0  0  0  0  0  0  0  0  0  0  0
   10.4836  -16.0739   27.5355 C   0  0  1  0  0  0  0  0  0  0  0  0
    9.1981  -15.4165   27.9404 C   0  0  0  0  0  0  0  0  0  0  0  0
    8.2801  -15.0224   26.8828 C   0  0  0  0  0  0  0  0  0  0  0  0
    7.5556  -15.9542   26.1231 C   0  0  0  0  0  0  0  0  0  0  0  0
    6.8305  -15.2937   25.2105 N   0  0  0  0  0  0  0  0  0  0  0  0
    7.0291  -13.9743   25.3186 C   0  0  0  0  0  0  0  0  0  0  0  0
    6.5121  -12.8803   24.6335 C   0  0  0  0  0  0  0  0  0  0  0  0
    6.8807  -11.5965   24.9712 C   0  0  0  0  0  0  0  0  0  0  0  0
    7.7783  -11.4440   26.0107 C   0  0  0  0  0  0  0  0  0  0  0  0
    8.2990  -12.5169   26.6972 C   0  0  0  0  0  0  0  0  0  0  0  0
    7.9247  -13.8086   26.3523 C   0  0  0  0  0  0  0  0  0  0  0  0
   10.6396  -17.3821   28.1378 C   0  0  0  0  0  0  0  0  0  0  0  0
   10.6225  -18.5078   27.2876 O   0  0  0  0  0  0  0  0  0  0  0  0
   10.7875  -17.5913   29.3472 O   0  0  0  0  0  0  0  0  0  0  0  0
  2  1  1  0
  3  2  2  0
  4  2  1  0
  5  4  1  0
  6  5  1  0
  6  7  1  1
  8  6  1  0
  8  9  2  0
 10  8  1  0
 11 10  1  0
 11 12  1  0
 12 14  1  0
 13 12  2  0
 14 15  1  0
 15 26  1  0
 16 17  1  0
 15 16  1  1
 17 18  2  0
 19 18  1  0
 20 19  1  0
 21 20  2  0
 22 21  1  0
 23 22  2  0
 23 24  1  0
 24 25  2  0
 25 20  1  0
 25 17  1  0
 26 28  2  0
 26 27  1  0
M  END
$$$$
