QGW.pdb
     RDKit          3D

 28 29  0  0  1  0  0  0  0  0999 V2000
    4.4663  -19.7118   19.9976 N   0  0  0  0  0  0  0  0  0  0  0  0
    4.9059  -19.9749   18.6663 C   0  0  0  0  0  0  0  0  0  0  0  0
    4.2773  -20.7919   17.9479 O   0  0  0  0  0  0  0  0  0  0  0  0
    6.0994  -19.2814   18.1363 C   0  0  0  0  0  0  0  0  0  0  0  0
    6.7185  -18.2706   19.0173 C   0  0  0  0  0  0  0  0  0  0  0  0
    7.6236  -18.7525   20.0956 C   0  0  2  0  0  0  0  0  0  0  0  0
    7.0302  -19.1554   21.3123 N   0  0  0  0  0  0  0  0  0  0  0  0
    8.8024  -17.8386   20.2526 C   0  0  0  0  0  0  0  0  0  0  0  0
    9.7578  -18.0196   19.4604 O   0  0  0  0  0  0  0  0  0  0  0  0
    8.9084  -16.8133   21.2081 N   0  0  0  0  0  0  0  0  0  0  0  0
   10.0801  -15.9800   21.3678 C   0  0  0  0  0  0  0  0  0  0  0  0
   10.5352  -15.9279   22.7846 C   0  0  0  0  0  0  0  0  0  0  0  0
   11.4999  -15.1933   23.1171 O   0  0  0  0  0  0  0  0  0  0  0  0
    9.8797  -16.7101   23.7694 N   0  0  0  0  0  0  0  0  0  0  0  0
   10.3079  -16.7369   25.1675 C   0  0  1  0  0  0  0  0  0  0  0  0
   10.1122  -15.3444   25.6881 C   0  0  0  0  0  0  0  0  0  0  0  0
    8.7466  -14.8624   25.8276 C   0  0  0  0  0  0  0  0  0  0  0  0
    7.6299  -15.6472   25.5005 C   0  0  0  0  0  0  0  0  0  0  0  0
    6.5215  -14.9214   25.6991 N   0  0  0  0  0  0  0  0  0  0  0  0
    6.8350  -13.6973   26.1409 C   0  0  0  0  0  0  0  0  0  0  0  0
    6.0666  -12.5966   26.5037 C   0  0  0  0  0  0  0  0  0  0  0  0
    6.6603  -11.4381   26.9548 C   0  0  0  0  0  0  0  0  0  0  0  0
    8.0399  -11.4171   27.0307 C   0  0  0  0  0  0  0  0  0  0  0  0
    8.8134  -12.4980   26.6747 C   0  0  0  0  0  0  0  0  0  0  0  0
    8.2100  -13.6628   26.2199 C   0  0  0  0  0  0  0  0  0  0  0  0
    9.5968  -17.7193   25.9597 C   0  0  0  0  0  0  0  0  0  0  0  0
   10.0598  -17.9745   27.2678 O   0  0  0  0  0  0  0  0  0  0  0  0
    8.6090  -18.3566   25.5770 O   0  0  0  0  0  0  0  0  0  0  0  0
  2  1  1  0
  3  2  2  0
  4  2  1  0
  5  4  1  0
  6  5  1  0
  6  7  1  1
  8  6  1  0
  8  9  2  0
 10  8  1  0
 11 10  1  0
 11 12  1  0
 12 14  1  0
 13 12  2  0
 14 15  1  0
 15 26  1  0
 16 17  1  0
 15 16  1  1
 17 18  2  0
 19 18  1  0
 20 19  1  0
 21 20  2  0
 22 21  1  0
 23 22  2  0
 23 24  1  0
 24 25  2  0
 25 20  1  0
 25 17  1  0
 26 28  2  0
 26 27  1  0
M  END
$$$$
