QGW.pdb
     RDKit          3D

 28 29  0  0  1  0  0  0  0  0999 V2000
    7.2954  -21.7682   27.0665 N   0  0  0  0  0  0  0  0  0  0  0  0
    7.0249  -20.7207   26.1368 C   0  0  0  0  0  0  0  0  0  0  0  0
    7.6226  -19.6202   26.2400 O   0  0  0  0  0  0  0  0  0  0  0  0
    6.0431  -20.9364   25.0525 C   0  0  0  0  0  0  0  0  0  0  0  0
    6.5677  -21.5000   23.7922 C   0  0  0  0  0  0  0  0  0  0  0  0
    7.7857  -20.8759   23.2083 C   0  0  2  0  0  0  0  0  0  0  0  0
    8.9511  -20.8515   24.0059 N   0  0  0  0  0  0  0  0  0  0  0  0
    7.4549  -19.5683   22.5526 C   0  0  0  0  0  0  0  0  0  0  0  0
    6.7358  -19.6251   21.5265 O   0  0  0  0  0  0  0  0  0  0  0  0
    7.8871  -18.3078   22.9999 N   0  0  0  0  0  0  0  0  0  0  0  0
    7.7179  -17.0849   22.2458 C   0  0  0  0  0  0  0  0  0  0  0  0
    8.9838  -16.3056   22.1610 C   0  0  0  0  0  0  0  0  0  0  0  0
    9.8320  -16.5632   21.2694 O   0  0  0  0  0  0  0  0  0  0  0  0
    9.2396  -15.2646   23.0898 N   0  0  0  0  0  0  0  0  0  0  0  0
   10.1307  -15.4340   24.2369 C   0  0  1  0  0  0  0  0  0  0  0  0
    9.2774  -15.9630   25.3507 C   0  0  0  0  0  0  0  0  0  0  0  0
    8.0357  -15.2620   25.6401 C   0  0  0  0  0  0  0  0  0  0  0  0
    6.7871  -15.9031   25.6403 C   0  0  0  0  0  0  0  0  0  0  0  0
    5.8379  -14.9950   25.9036 N   0  0  0  0  0  0  0  0  0  0  0  0
    6.3822  -13.7848   26.0800 C   0  0  0  0  0  0  0  0  0  0  0  0
    5.8427  -12.5398   26.3838 C   0  0  0  0  0  0  0  0  0  0  0  0
    6.6533  -11.4356   26.5322 C   0  0  0  0  0  0  0  0  0  0  0  0
    8.0132  -11.6169   26.3678 C   0  0  0  0  0  0  0  0  0  0  0  0
    8.5615  -12.8425   26.0664 C   0  0  0  0  0  0  0  0  0  0  0  0
    7.7400  -13.9518   25.9170 C   0  0  0  0  0  0  0  0  0  0  0  0
   11.2580  -16.2994   23.9565 C   0  0  0  0  0  0  0  0  0  0  0  0
   12.2903  -16.3724   24.9155 O   0  0  0  0  0  0  0  0  0  0  0  0
   11.3878  -16.9840   22.9353 O   0  0  0  0  0  0  0  0  0  0  0  0
  2  1  1  0
  3  2  2  0
  4  2  1  0
  5  4  1  0
  6  5  1  0
  6  7  1  1
  8  6  1  0
  8  9  2  0
 10  8  1  0
 11 10  1  0
 11 12  1  0
 12 14  1  0
 13 12  2  0
 14 15  1  0
 15 26  1  0
 16 17  1  0
 15 16  1  1
 17 18  2  0
 19 18  1  0
 20 19  1  0
 21 20  2  0
 22 21  1  0
 23 22  2  0
 23 24  1  0
 24 25  2  0
 25 20  1  0
 25 17  1  0
 26 28  2  0
 26 27  1  0
M  END
$$$$
