QGW.pdb
     RDKit          3D

 28 29  0  0  1  0  0  0  0  0999 V2000
    8.1200  -12.2673   17.9467 N   0  0  0  0  0  0  0  0  0  0  0  0
    7.9337  -13.6816   17.9378 C   0  0  0  0  0  0  0  0  0  0  0  0
    7.6726  -14.2733   16.8605 O   0  0  0  0  0  0  0  0  0  0  0  0
    8.0522  -14.4459   19.1979 C   0  0  0  0  0  0  0  0  0  0  0  0
    7.6042  -15.8527   19.1589 C   0  0  0  0  0  0  0  0  0  0  0  0
    7.8108  -16.6796   20.3785 C   0  0  2  0  0  0  0  0  0  0  0  0
    6.8532  -16.5684   21.4107 N   0  0  0  0  0  0  0  0  0  0  0  0
    9.2350  -16.6022   20.8423 C   0  0  0  0  0  0  0  0  0  0  0  0
   10.0976  -17.0999   20.0799 O   0  0  0  0  0  0  0  0  0  0  0  0
    9.6614  -16.0219   22.0494 N   0  0  0  0  0  0  0  0  0  0  0  0
   11.0506  -15.8766   22.4258 C   0  0  0  0  0  0  0  0  0  0  0  0
   11.2578  -16.1055   23.8825 C   0  0  0  0  0  0  0  0  0  0  0  0
   12.4116  -16.0483   24.3785 O   0  0  0  0  0  0  0  0  0  0  0  0
   10.1495  -16.3905   24.7204 N   0  0  0  0  0  0  0  0  0  0  0  0
   10.3023  -16.8093   26.1132 C   0  0  1  0  0  0  0  0  0  0  0  0
    9.5486  -15.8055   26.9334 C   0  0  0  0  0  0  0  0  0  0  0  0
    8.2467  -15.3770   26.4454 C   0  0  0  0  0  0  0  0  0  0  0  0
    7.2741  -16.2808   25.9901 C   0  0  0  0  0  0  0  0  0  0  0  0
    6.2051  -15.5885   25.5745 N   0  0  0  0  0  0  0  0  0  0  0  0
    6.4087  -14.2743   25.7273 C   0  0  0  0  0  0  0  0  0  0  0  0
    5.6205  -13.1583   25.4690 C   0  0  0  0  0  0  0  0  0  0  0  0
    6.0797  -11.8893   25.7464 C   0  0  0  0  0  0  0  0  0  0  0  0
    7.3459  -11.7742   26.2875 C   0  0  0  0  0  0  0  0  0  0  0  0
    8.1377  -12.8691   26.5479 C   0  0  0  0  0  0  0  0  0  0  0  0
    7.6703  -14.1457   26.2657 C   0  0  0  0  0  0  0  0  0  0  0  0
    9.8434  -18.1624   26.3521 C   0  0  0  0  0  0  0  0  0  0  0  0
   10.1376  -18.7497   27.6007 O   0  0  0  0  0  0  0  0  0  0  0  0
    9.2097  -18.8483   25.5419 O   0  0  0  0  0  0  0  0  0  0  0  0
  2  1  1  0
  3  2  2  0
  4  2  1  0
  5  4  1  0
  6  5  1  0
  6  7  1  1
  8  6  1  0
  8  9  2  0
 10  8  1  0
 11 10  1  0
 11 12  1  0
 12 14  1  0
 13 12  2  0
 14 15  1  0
 15 26  1  0
 16 17  1  0
 15 16  1  1
 17 18  2  0
 19 18  1  0
 20 19  1  0
 21 20  2  0
 22 21  1  0
 23 22  2  0
 23 24  1  0
 24 25  2  0
 25 20  1  0
 25 17  1  0
 26 28  2  0
 26 27  1  0
M  END
$$$$
