QGW.pdb
     RDKit          3D

 28 29  0  0  1  0  0  0  0  0999 V2000
    7.8836  -22.3269   18.0034 N   0  0  0  0  0  0  0  0  0  0  0  0
    9.1164  -22.1432   18.6972 C   0  0  0  0  0  0  0  0  0  0  0  0
    9.9288  -23.0967   18.7963 O   0  0  0  0  0  0  0  0  0  0  0  0
    9.4342  -20.8286   19.2946 C   0  0  0  0  0  0  0  0  0  0  0  0
    8.4114  -19.7736   19.1458 C   0  0  0  0  0  0  0  0  0  0  0  0
    8.8724  -18.4100   18.7689 C   0  0  2  0  0  0  0  0  0  0  0  0
   10.1423  -18.2966   18.1612 N   0  0  0  0  0  0  0  0  0  0  0  0
    8.6281  -17.4359   19.8828 C   0  0  0  0  0  0  0  0  0  0  0  0
    7.4901  -17.4644   20.4092 O   0  0  0  0  0  0  0  0  0  0  0  0
    9.5685  -16.5108   20.3680 N   0  0  0  0  0  0  0  0  0  0  0  0
    9.2843  -15.5432   21.4052 C   0  0  0  0  0  0  0  0  0  0  0  0
    9.8542  -15.9534   22.7182 C   0  0  0  0  0  0  0  0  0  0  0  0
   10.3922  -17.0815   22.8546 O   0  0  0  0  0  0  0  0  0  0  0  0
    9.7923  -15.0695   23.8256 N   0  0  0  0  0  0  0  0  0  0  0  0
   10.3251  -15.4178   25.1422 C   0  0  1  0  0  0  0  0  0  0  0  0
    9.1546  -15.8892   25.9522 C   0  0  0  0  0  0  0  0  0  0  0  0
    7.9285  -15.1091   25.8825 C   0  0  0  0  0  0  0  0  0  0  0  0
    6.6869  -15.6779   25.5582 C   0  0  0  0  0  0  0  0  0  0  0  0
    5.7623  -14.7086   25.5383 N   0  0  0  0  0  0  0  0  0  0  0  0
    6.3160  -13.5257   25.8317 C   0  0  0  0  0  0  0  0  0  0  0  0
    5.7959  -12.2420   25.9548 C   0  0  0  0  0  0  0  0  0  0  0  0
    6.6062  -11.1810   26.2952 C   0  0  0  0  0  0  0  0  0  0  0  0
    7.9459  -11.4449   26.5071 C   0  0  0  0  0  0  0  0  0  0  0  0
    8.4750  -12.7096   26.3883 C   0  0  0  0  0  0  0  0  0  0  0  0
    7.6541  -13.7752   26.0442 C   0  0  0  0  0  0  0  0  0  0  0  0
   11.3805  -16.4083   25.0829 C   0  0  0  0  0  0  0  0  0  0  0  0
   11.8004  -16.8519   23.8111 O   0  0  0  0  0  0  0  0  0  0  0  0
   11.9465  -16.8992   26.0663 O   0  0  0  0  0  0  0  0  0  0  0  0
  2  1  1  0
  3  2  2  0
  4  2  1  0
  5  4  1  0
  6  5  1  0
  6  7  1  1
  8  6  1  0
  8  9  2  0
 10  8  1  0
 11 10  1  0
 11 12  1  0
 12 14  1  0
 13 12  2  0
 14 15  1  0
 15 26  1  0
 16 17  1  0
 15 16  1  1
 17 18  2  0
 19 18  1  0
 20 19  1  0
 21 20  2  0
 22 21  1  0
 23 22  2  0
 23 24  1  0
 24 25  2  0
 25 20  1  0
 25 17  1  0
 26 28  2  0
 26 27  1  0
M  END
$$$$
