QGW.pdb
     RDKit          3D

 28 29  0  0  1  0  0  0  0  0999 V2000
    8.4578  -12.5198   18.1417 N   0  0  0  0  0  0  0  0  0  0  0  0
    7.5466  -13.4574   17.5712 C   0  0  0  0  0  0  0  0  0  0  0  0
    7.0401  -13.2335   16.4433 O   0  0  0  0  0  0  0  0  0  0  0  0
    7.2044  -14.6917   18.3098 C   0  0  0  0  0  0  0  0  0  0  0  0
    7.9140  -14.9131   19.5859 C   0  0  0  0  0  0  0  0  0  0  0  0
    8.1617  -16.3188   20.0062 C   0  0  2  0  0  0  0  0  0  0  0  0
    7.1940  -16.9316   20.8325 N   0  0  0  0  0  0  0  0  0  0  0  0
    9.5767  -16.4970   20.4702 C   0  0  0  0  0  0  0  0  0  0  0  0
   10.4506  -16.5836   19.5748 O   0  0  0  0  0  0  0  0  0  0  0  0
    9.9831  -16.5724   21.8137 N   0  0  0  0  0  0  0  0  0  0  0  0
   11.2844  -16.1523   22.2855 C   0  0  0  0  0  0  0  0  0  0  0  0
   11.4328  -16.3497   23.7539 C   0  0  0  0  0  0  0  0  0  0  0  0
   12.5460  -16.1740   24.3110 O   0  0  0  0  0  0  0  0  0  0  0  0
   10.3138  -16.7387   24.5339 N   0  0  0  0  0  0  0  0  0  0  0  0
   10.3735  -16.8628   25.9898 C   0  0  1  0  0  0  0  0  0  0  0  0
    9.9156  -15.5444   26.5378 C   0  0  0  0  0  0  0  0  0  0  0  0
    8.5665  -15.1096   26.2094 C   0  0  0  0  0  0  0  0  0  0  0  0
    7.5685  -15.9982   25.7800 C   0  0  0  0  0  0  0  0  0  0  0  0
    6.4543  -15.3007   25.5216 N   0  0  0  0  0  0  0  0  0  0  0  0
    6.6518  -13.9974   25.7550 C   0  0  0  0  0  0  0  0  0  0  0  0
    5.8257  -12.8831   25.6588 C   0  0  0  0  0  0  0  0  0  0  0  0
    6.2902  -11.6285   25.9882 C   0  0  0  0  0  0  0  0  0  0  0  0
    7.6006  -11.5261   26.4144 C   0  0  0  0  0  0  0  0  0  0  0  0
    8.4301  -12.6195   26.5140 C   0  0  0  0  0  0  0  0  0  0  0  0
    7.9571  -13.8814   26.1800 C   0  0  0  0  0  0  0  0  0  0  0  0
    9.5852  -17.9670   26.4977 C   0  0  0  0  0  0  0  0  0  0  0  0
    9.7029  -18.2891   27.8662 O   0  0  0  0  0  0  0  0  0  0  0  0
    8.8118  -18.6544   25.8213 O   0  0  0  0  0  0  0  0  0  0  0  0
  2  1  1  0
  3  2  2  0
  4  2  1  0
  5  4  1  0
  6  5  1  0
  6  7  1  1
  8  6  1  0
  8  9  2  0
 10  8  1  0
 11 10  1  0
 11 12  1  0
 12 14  1  0
 13 12  2  0
 14 15  1  0
 15 26  1  0
 16 17  1  0
 15 16  1  1
 17 18  2  0
 19 18  1  0
 20 19  1  0
 21 20  2  0
 22 21  1  0
 23 22  2  0
 23 24  1  0
 24 25  2  0
 25 20  1  0
 25 17  1  0
 26 28  2  0
 26 27  1  0
M  END
$$$$
