QGW.pdb
     RDKit          3D

 28 29  0  0  1  0  0  0  0  0999 V2000
    6.6931  -17.7318   16.6519 N   0  0  0  0  0  0  0  0  0  0  0  0
    6.0932  -18.6623   17.5515 C   0  0  0  0  0  0  0  0  0  0  0  0
    4.9936  -19.1963   17.2607 O   0  0  0  0  0  0  0  0  0  0  0  0
    6.7709  -18.9968   18.8223 C   0  0  0  0  0  0  0  0  0  0  0  0
    8.1021  -18.3942   19.0365 C   0  0  0  0  0  0  0  0  0  0  0  0
    8.7978  -18.6889   20.3183 C   0  0  2  0  0  0  0  0  0  0  0  0
    8.0364  -19.2768   21.3525 N   0  0  0  0  0  0  0  0  0  0  0  0
    9.6376  -17.5240   20.7512 C   0  0  0  0  0  0  0  0  0  0  0  0
   10.1823  -16.8592   19.8378 O   0  0  0  0  0  0  0  0  0  0  0  0
    9.8524  -17.1339   22.0844 N   0  0  0  0  0  0  0  0  0  0  0  0
   10.6513  -15.9911   22.4696 C   0  0  0  0  0  0  0  0  0  0  0  0
   10.6492  -15.7841   23.9442 C   0  0  0  0  0  0  0  0  0  0  0  0
   11.3286  -14.8597   24.4586 O   0  0  0  0  0  0  0  0  0  0  0  0
    9.8775  -16.6327   24.7784 N   0  0  0  0  0  0  0  0  0  0  0  0
    9.9721  -16.6007   26.2374 C   0  0  1  0  0  0  0  0  0  0  0  0
    8.5640  -16.4972   26.7424 C   0  0  0  0  0  0  0  0  0  0  0  0
    7.6685  -15.5765   26.0588 C   0  0  0  0  0  0  0  0  0  0  0  0
    6.8715  -15.9638   24.9703 C   0  0  0  0  0  0  0  0  0  0  0  0
    6.1891  -14.8959   24.5359 N   0  0  0  0  0  0  0  0  0  0  0  0
    6.4848  -13.8184   25.2730 C   0  0  0  0  0  0  0  0  0  0  0  0
    6.0436  -12.5001   25.2413 C   0  0  0  0  0  0  0  0  0  0  0  0
    6.5081  -11.5774   26.1529 C   0  0  0  0  0  0  0  0  0  0  0  0
    7.4230  -12.0143   27.0917 C   0  0  0  0  0  0  0  0  0  0  0  0
    7.8694  -13.3152   27.1350 C   0  0  0  0  0  0  0  0  0  0  0  0
    7.3986  -14.2408   26.2134 C   0  0  0  0  0  0  0  0  0  0  0  0
   10.6644  -17.7487   26.7862 C   0  0  0  0  0  0  0  0  0  0  0  0
   10.9586  -17.7461   28.1660 O   0  0  0  0  0  0  0  0  0  0  0  0
   11.0204  -18.7380   26.1358 O   0  0  0  0  0  0  0  0  0  0  0  0
  2  1  1  0
  3  2  2  0
  4  2  1  0
  5  4  1  0
  6  5  1  0
  6  7  1  1
  8  6  1  0
  8  9  2  0
 10  8  1  0
 11 10  1  0
 11 12  1  0
 12 14  1  0
 13 12  2  0
 14 15  1  0
 15 26  1  0
 16 17  1  0
 15 16  1  1
 17 18  2  0
 19 18  1  0
 20 19  1  0
 21 20  2  0
 22 21  1  0
 23 22  2  0
 23 24  1  0
 24 25  2  0
 25 20  1  0
 25 17  1  0
 26 28  2  0
 26 27  1  0
M  END
$$$$
