QGW.pdb
     RDKit          3D

 28 29  0  0  1  0  0  0  0  0999 V2000
    7.8977  -13.4750   15.6938 N   0  0  0  0  0  0  0  0  0  0  0  0
    8.2068  -13.1071   17.0370 C   0  0  0  0  0  0  0  0  0  0  0  0
    9.3771  -12.7651   17.3403 O   0  0  0  0  0  0  0  0  0  0  0  0
    7.1458  -13.1271   18.0666 C   0  0  0  0  0  0  0  0  0  0  0  0
    7.3727  -14.0102   19.2283 C   0  0  0  0  0  0  0  0  0  0  0  0
    8.3974  -15.0809   19.0950 C   0  0  2  0  0  0  0  0  0  0  0  0
    8.3293  -15.9089   17.9528 N   0  0  0  0  0  0  0  0  0  0  0  0
    8.5697  -15.8204   20.3883 C   0  0  0  0  0  0  0  0  0  0  0  0
    8.6490  -15.1194   21.4253 O   0  0  0  0  0  0  0  0  0  0  0  0
    8.6472  -17.2180   20.5159 N   0  0  0  0  0  0  0  0  0  0  0  0
    8.7223  -17.9073   21.7855 C   0  0  0  0  0  0  0  0  0  0  0  0
    9.7052  -17.2708   22.7053 C   0  0  0  0  0  0  0  0  0  0  0  0
   10.9138  -17.1688   22.3744 O   0  0  0  0  0  0  0  0  0  0  0  0
    9.2804  -16.7748   23.9644 N   0  0  0  0  0  0  0  0  0  0  0  0
   10.2150  -16.2578   24.9632 C   0  0  1  0  0  0  0  0  0  0  0  0
    9.8353  -14.8240   25.1838 C   0  0  0  0  0  0  0  0  0  0  0  0
    8.4727  -14.5454   25.6108 C   0  0  0  0  0  0  0  0  0  0  0  0
    7.4921  -15.5446   25.7124 C   0  0  0  0  0  0  0  0  0  0  0  0
    6.3388  -14.9779   26.0914 N   0  0  0  0  0  0  0  0  0  0  0  0
    6.4942  -13.6577   26.2493 C   0  0  0  0  0  0  0  0  0  0  0  0
    5.6273  -12.6428   26.6389 C   0  0  0  0  0  0  0  0  0  0  0  0
    6.0645  -11.3402   26.7405 C   0  0  0  0  0  0  0  0  0  0  0  0
    7.3897  -11.0879   26.4413 C   0  0  0  0  0  0  0  0  0  0  0  0
    8.2591  -12.0816   26.0538 C   0  0  0  0  0  0  0  0  0  0  0  0
    7.8131  -13.3925   25.9522 C   0  0  0  0  0  0  0  0  0  0  0  0
   10.2065  -17.0191   26.1956 C   0  0  0  0  0  0  0  0  0  0  0  0
    9.3072  -18.1014   26.2981 O   0  0  0  0  0  0  0  0  0  0  0  0
   10.9306  -16.7935   27.1719 O   0  0  0  0  0  0  0  0  0  0  0  0
  2  1  1  0
  3  2  2  0
  4  2  1  0
  5  4  1  0
  6  5  1  0
  6  7  1  6
  8  6  1  0
  8  9  2  0
 10  8  1  0
 11 10  1  0
 11 12  1  0
 12 14  1  0
 13 12  2  0
 14 15  1  0
 15 26  1  0
 16 17  1  0
 15 16  1  1
 17 18  2  0
 19 18  1  0
 20 19  1  0
 21 20  2  0
 22 21  1  0
 23 22  2  0
 23 24  1  0
 24 25  2  0
 25 20  1  0
 25 17  1  0
 26 28  2  0
 26 27  1  0
M  END
$$$$
