QGW.pdb
     RDKit          3D

 28 29  0  0  1  0  0  0  0  0999 V2000
    6.5406  -20.3704   15.7552 N   0  0  0  0  0  0  0  0  0  0  0  0
    6.6608  -19.1485   16.4816 C   0  0  0  0  0  0  0  0  0  0  0  0
    6.5633  -18.0492   15.8809 O   0  0  0  0  0  0  0  0  0  0  0  0
    6.8969  -19.1818   17.9408 C   0  0  0  0  0  0  0  0  0  0  0  0
    8.2029  -18.6746   18.4080 C   0  0  0  0  0  0  0  0  0  0  0  0
    8.4242  -18.5795   19.8763 C   0  0  2  0  0  0  0  0  0  0  0  0
    7.4338  -19.1276   20.7210 N   0  0  0  0  0  0  0  0  0  0  0  0
    8.8753  -17.2019   20.2611 C   0  0  0  0  0  0  0  0  0  0  0  0
    9.8693  -16.7482   19.6455 O   0  0  0  0  0  0  0  0  0  0  0  0
    8.2725  -16.3998   21.2455 N   0  0  0  0  0  0  0  0  0  0  0  0
    8.7242  -15.0684   21.5862 C   0  0  0  0  0  0  0  0  0  0  0  0
    9.5022  -15.0542   22.8557 C   0  0  0  0  0  0  0  0  0  0  0  0
   10.3673  -14.1657   23.0626 O   0  0  0  0  0  0  0  0  0  0  0  0
    9.2698  -16.0473   23.8412 N   0  0  0  0  0  0  0  0  0  0  0  0
   10.2686  -16.4082   24.8465 C   0  0  1  0  0  0  0  0  0  0  0  0
    9.8548  -15.7152   26.1102 C   0  0  0  0  0  0  0  0  0  0  0  0
    8.5080  -15.1679   26.1691 C   0  0  0  0  0  0  0  0  0  0  0  0
    7.3638  -15.9464   25.9348 C   0  0  0  0  0  0  0  0  0  0  0  0
    6.2832  -15.1595   26.0233 N   0  0  0  0  0  0  0  0  0  0  0  0
    6.6411  -13.9006   26.3041 C   0  0  0  0  0  0  0  0  0  0  0  0
    5.9136  -12.7336   26.5100 C   0  0  0  0  0  0  0  0  0  0  0  0
    6.5489  -11.5489   26.8120 C   0  0  0  0  0  0  0  0  0  0  0  0
    7.9277  -11.5701   26.9008 C   0  0  0  0  0  0  0  0  0  0  0  0
    8.6610  -12.7168   26.6990 C   0  0  0  0  0  0  0  0  0  0  0  0
    8.0158  -13.9078   26.3940 C   0  0  0  0  0  0  0  0  0  0  0  0
   10.3991  -17.8394   25.0281 C   0  0  0  0  0  0  0  0  0  0  0  0
   11.4805  -18.3121   25.8012 O   0  0  0  0  0  0  0  0  0  0  0  0
    9.6318  -18.6857   24.5553 O   0  0  0  0  0  0  0  0  0  0  0  0
  2  1  1  0
  3  2  2  0
  4  2  1  0
  5  4  1  0
  6  5  1  0
  6  7  1  1
  8  6  1  0
  8  9  2  0
 10  8  1  0
 11 10  1  0
 11 12  1  0
 12 14  1  0
 13 12  2  0
 14 15  1  0
 15 26  1  0
 16 17  1  0
 15 16  1  1
 17 18  2  0
 19 18  1  0
 20 19  1  0
 21 20  2  0
 22 21  1  0
 23 22  2  0
 23 24  1  0
 24 25  2  0
 25 20  1  0
 25 17  1  0
 26 28  2  0
 26 27  1  0
M  END
$$$$
