FCP.pdb
     RDKit          3D

 25 26  0  0  1  0  0  0  0  0999 V2000
    7.0670  -18.8752   27.0709 N   0  0  0  0  0  0  0  0  0  0  0  0
    7.5922  -17.5339   27.0098 C   0  0  1  0  0  0  0  0  0  0  0  0
    9.1032  -17.5965   27.0783 C   0  0  0  0  0  0  0  0  0  0  0  0
    9.5687  -16.4107   27.8142 C   0  0  0  0  0  0  0  0  0  0  0  0
    9.7302  -16.4376   29.1776 C   0  0  0  0  0  0  0  0  0  0  0  0
   10.1686  -15.3262   29.8834 C   0  0  0  0  0  0  0  0  0  0  0  0
   10.4522  -14.1617   29.2147 C   0  0  0  0  0  0  0  0  0  0  0  0
   10.2965  -14.1091   27.8331 C   0  0  0  0  0  0  0  0  0  0  0  0
    9.8534  -15.2435   27.1475 C   0  0  0  0  0  0  0  0  0  0  0  0
    7.1188  -16.8662   25.7777 C   0  0  0  0  0  0  0  0  0  0  0  0
    6.7625  -17.5498   24.7838 O   0  0  0  0  0  0  0  0  0  0  0  0
    7.0464  -15.4554   25.6627 N   0  0  0  0  0  0  0  0  0  0  0  0
    6.7168  -14.8052   24.3540 C   0  0  1  0  0  0  0  0  0  0  0  0
    6.6903  -13.3144   24.6496 C   0  0  0  0  0  0  0  0  0  0  0  0
    8.0343  -12.6793   25.6156 S   0  0  0  0  0  0  0  0  0  0  0  0
    7.7748  -15.2132   23.4266 C   0  0  0  0  0  0  0  0  0  0  0  0
    8.5826  -16.1225   23.8416 O   0  0  0  0  0  0  0  0  0  0  0  0
    8.0336  -14.7472   22.1289 N   0  0  0  0  0  0  0  0  0  0  0  0
    7.6134  -13.4456   21.5568 C   0  0  0  0  0  0  0  0  0  0  0  0
    6.8282  -13.9792   20.3490 C   0  0  0  0  0  0  0  0  0  0  0  0
    7.7813  -15.0730   19.8557 C   0  0  0  0  0  0  0  0  0  0  0  0
    8.7124  -15.3546   21.0051 C   0  0  1  0  0  0  0  0  0  0  0  0
   10.0156  -14.6432   20.7088 C   0  0  0  0  0  0  0  0  0  0  0  0
   10.8407  -15.1707   19.9239 O   0  0  0  0  0  0  0  0  0  0  0  0
   10.3496  -13.4263   21.2676 O   0  0  0  0  0  0  0  0  0  0  0  0
  2  1  1  6
  2 10  1  0
  3  2  1  0
  4  5  2  0
  4  3  1  0
  6  5  1  0
  7  8  1  0
  7  6  2  0
  8  9  2  0
  9  4  1  0
 10 12  1  0
 10 11  2  0
 12 13  1  0
 13 14  1  1
 15 14  1  0
 16 13  1  0
 16 17  2  0
 18 22  1  0
 18 16  1  0
 19 20  1  0
 19 18  1  0
 20 21  1  0
 21 22  1  0
 22 23  1  6
 24 23  2  0
 25 23  1  0
M  END
$$$$
