FCP.pdb
     RDKit          3D

 25 26  0  0  1  0  0  0  0  0999 V2000
    7.7682  -16.3006   26.9202 N   0  0  0  0  0  0  0  0  0  0  0  0
    7.2335  -16.1950   25.5854 C   0  0  1  0  0  0  0  0  0  0  0  0
    5.9951  -15.3253   25.6218 C   0  0  0  0  0  0  0  0  0  0  0  0
    6.3812  -14.0171   26.1731 C   0  0  0  0  0  0  0  0  0  0  0  0
    6.1302  -13.6956   27.4843 C   0  0  0  0  0  0  0  0  0  0  0  0
    6.4894  -12.4654   28.0165 C   0  0  0  0  0  0  0  0  0  0  0  0
    7.1128  -11.5349   27.2234 C   0  0  0  0  0  0  0  0  0  0  0  0
    7.3782  -11.8367   25.8914 C   0  0  0  0  0  0  0  0  0  0  0  0
    7.0055  -13.0835   25.3816 C   0  0  0  0  0  0  0  0  0  0  0  0
    8.2655  -15.6550   24.6736 C   0  0  0  0  0  0  0  0  0  0  0  0
    9.0896  -14.7988   25.0858 O   0  0  0  0  0  0  0  0  0  0  0  0
    8.3710  -16.0685   23.3220 N   0  0  0  0  0  0  0  0  0  0  0  0
    9.1596  -15.2683   22.3310 C   0  0  1  0  0  0  0  0  0  0  0  0
   10.5232  -15.9377   22.2792 C   0  0  0  0  0  0  0  0  0  0  0  0
   10.7673  -17.3130   23.3709 S   0  0  0  0  0  0  0  0  0  0  0  0
    8.4104  -15.3372   21.0740 C   0  0  0  0  0  0  0  0  0  0  0  0
    7.4469  -16.1864   21.0260 O   0  0  0  0  0  0  0  0  0  0  0  0
    8.5964  -14.5945   19.8985 N   0  0  0  0  0  0  0  0  0  0  0  0
    9.5813  -13.5069   19.6865 C   0  0  0  0  0  0  0  0  0  0  0  0
    8.5994  -12.3962   19.2840 C   0  0  0  0  0  0  0  0  0  0  0  0
    7.6795  -13.1665   18.3310 C   0  0  0  0  0  0  0  0  0  0  0  0
    7.9155  -14.6248   18.6225 C   0  0  1  0  0  0  0  0  0  0  0  0
    8.8245  -15.1563   17.5345 C   0  0  0  0  0  0  0  0  0  0  0  0
   10.0683  -15.1148   17.6964 O   0  0  0  0  0  0  0  0  0  0  0  0
    8.3487  -15.6905   16.3543 O   0  0  0  0  0  0  0  0  0  0  0  0
  2  1  1  1
  2 10  1  0
  3  2  1  0
  4  5  2  0
  4  3  1  0
  6  5  1  0
  7  8  1  0
  7  6  2  0
  8  9  2  0
  9  4  1  0
 10 12  1  0
 10 11  2  0
 12 13  1  0
 13 14  1  6
 15 14  1  0
 16 13  1  0
 16 17  2  0
 18 22  1  0
 18 16  1  0
 19 20  1  0
 19 18  1  0
 20 21  1  0
 21 22  1  0
 22 23  1  6
 24 23  2  0
 25 23  1  0
M  END
$$$$
