FCP.pdb
     RDKit          3D

 25 26  0  0  1  0  0  0  0  0999 V2000
    5.6710  -17.5872   25.4280 N   0  0  0  0  0  0  0  0  0  0  0  0
    6.2700  -16.3108   25.1269 C   0  0  1  0  0  0  0  0  0  0  0  0
    7.2403  -15.9526   26.2323 C   0  0  0  0  0  0  0  0  0  0  0  0
    7.1318  -14.5054   26.4734 C   0  0  0  0  0  0  0  0  0  0  0  0
    5.9090  -13.8829   26.5274 C   0  0  0  0  0  0  0  0  0  0  0  0
    5.7930  -12.5188   26.7541 C   0  0  0  0  0  0  0  0  0  0  0  0
    6.9218  -11.7583   26.9309 C   0  0  0  0  0  0  0  0  0  0  0  0
    8.1726  -12.3657   26.8806 C   0  0  0  0  0  0  0  0  0  0  0  0
    8.2600  -13.7415   26.6507 C   0  0  0  0  0  0  0  0  0  0  0  0
    6.9301  -16.3666   23.8043 C   0  0  0  0  0  0  0  0  0  0  0  0
    7.4889  -17.4258   23.4195 O   0  0  0  0  0  0  0  0  0  0  0  0
    6.9627  -15.2529   22.9283 N   0  0  0  0  0  0  0  0  0  0  0  0
    7.6218  -15.3475   21.5863 C   0  0  1  0  0  0  0  0  0  0  0  0
    7.5087  -13.9531   20.9919 C   0  0  0  0  0  0  0  0  0  0  0  0
    8.4606  -13.6411   19.5293 S   0  0  0  0  0  0  0  0  0  0  0  0
    8.9978  -15.7781   21.8457 C   0  0  0  0  0  0  0  0  0  0  0  0
    9.4612  -15.5420   23.0210 O   0  0  0  0  0  0  0  0  0  0  0  0
    9.8940  -16.4241   20.9811 N   0  0  0  0  0  0  0  0  0  0  0  0
    9.6128  -16.8871   19.6011 C   0  0  0  0  0  0  0  0  0  0  0  0
    9.9704  -18.3693   19.7891 C   0  0  0  0  0  0  0  0  0  0  0  0
   11.2640  -18.2451   20.6010 C   0  0  0  0  0  0  0  0  0  0  0  0
   11.2667  -16.8455   21.1565 C   0  0  1  0  0  0  0  0  0  0  0  0
   12.2013  -16.0244   20.2935 C   0  0  0  0  0  0  0  0  0  0  0  0
   11.9186  -15.8371   19.0852 O   0  0  0  0  0  0  0  0  0  0  0  0
   13.3675  -15.4641   20.7737 O   0  0  0  0  0  0  0  0  0  0  0  0
  2  1  1  1
  2 10  1  0
  3  2  1  0
  4  5  2  0
  4  3  1  0
  6  5  1  0
  7  8  1  0
  7  6  2  0
  8  9  2  0
  9  4  1  0
 10 12  1  0
 10 11  2  0
 12 13  1  0
 13 14  1  1
 15 14  1  0
 16 13  1  0
 16 17  2  0
 18 22  1  0
 18 16  1  0
 19 20  1  0
 19 18  1  0
 20 21  1  0
 21 22  1  0
 22 23  1  6
 24 23  2  0
 25 23  1  0
M  END
$$$$
