FCP.pdb
     RDKit          3D

 25 26  0  0  1  0  0  0  0  0999 V2000
    5.7203  -17.7994   25.9353 N   0  0  0  0  0  0  0  0  0  0  0  0
    6.3090  -16.5282   25.5943 C   0  0  1  0  0  0  0  0  0  0  0  0
    7.2605  -16.1178   26.6980 C   0  0  0  0  0  0  0  0  0  0  0  0
    7.3227  -14.6481   26.7135 C   0  0  0  0  0  0  0  0  0  0  0  0
    6.1804  -13.8882   26.7703 C   0  0  0  0  0  0  0  0  0  0  0  0
    6.2254  -12.5014   26.7855 C   0  0  0  0  0  0  0  0  0  0  0  0
    7.4369  -11.8577   26.7431 C   0  0  0  0  0  0  0  0  0  0  0  0
    8.6089  -12.6054   26.6852 C   0  0  0  0  0  0  0  0  0  0  0  0
    8.5340  -14.0009   26.6711 C   0  0  0  0  0  0  0  0  0  0  0  0
    6.9873  -16.6258   24.2834 C   0  0  0  0  0  0  0  0  0  0  0  0
    7.6556  -17.6504   23.9907 O   0  0  0  0  0  0  0  0  0  0  0  0
    6.9169  -15.5911   23.3172 N   0  0  0  0  0  0  0  0  0  0  0  0
    7.6540  -15.6996   22.0175 C   0  0  1  0  0  0  0  0  0  0  0  0
    7.2866  -14.4406   21.2493 C   0  0  0  0  0  0  0  0  0  0  0  0
    8.2467  -14.0944   19.7997 S   0  0  0  0  0  0  0  0  0  0  0  0
    9.0730  -15.7942   22.3687 C   0  0  0  0  0  0  0  0  0  0  0  0
    9.4239  -15.2669   23.4870 O   0  0  0  0  0  0  0  0  0  0  0  0
   10.1186  -16.3904   21.6481 N   0  0  0  0  0  0  0  0  0  0  0  0
    9.9971  -17.1572   20.3851 C   0  0  0  0  0  0  0  0  0  0  0  0
   10.6441  -18.4672   20.8598 C   0  0  0  0  0  0  0  0  0  0  0  0
   11.8491  -17.9210   21.6330 C   0  0  0  0  0  0  0  0  0  0  0  0
   11.5401  -16.4723   21.9038 C   0  0  1  0  0  0  0  0  0  0  0  0
   12.3209  -15.6535   20.8976 C   0  0  0  0  0  0  0  0  0  0  0  0
   13.5396  -15.4307   21.0979 O   0  0  0  0  0  0  0  0  0  0  0  0
   11.7523  -15.1293   19.7546 O   0  0  0  0  0  0  0  0  0  0  0  0
  2  1  1  1
  2 10  1  0
  3  2  1  0
  4  5  2  0
  4  3  1  0
  6  5  1  0
  7  8  1  0
  7  6  2  0
  8  9  2  0
  9  4  1  0
 10 12  1  0
 10 11  2  0
 12 13  1  0
 13 14  1  6
 15 14  1  0
 16 13  1  0
 16 17  2  0
 18 22  1  0
 18 16  1  0
 19 20  1  0
 19 18  1  0
 20 21  1  0
 21 22  1  0
 22 23  1  6
 24 23  2  0
 25 23  1  0
M  END
$$$$
