FCP.pdb
     RDKit          3D

 25 26  0  0  1  0  0  0  0  0999 V2000
    6.7977  -16.3720   19.5704 N   0  0  0  0  0  0  0  0  0  0  0  0
    7.5436  -15.5700   20.5081 C   0  0  1  0  0  0  0  0  0  0  0  0
    7.4200  -14.1138   20.1133 C   0  0  0  0  0  0  0  0  0  0  0  0
    8.6003  -13.7655   19.3073 C   0  0  0  0  0  0  0  0  0  0  0  0
    9.8440  -13.6536   19.8786 C   0  0  0  0  0  0  0  0  0  0  0  0
   10.9653  -13.3257   19.1296 C   0  0  0  0  0  0  0  0  0  0  0  0
   10.8436  -13.1044   17.7806 C   0  0  0  0  0  0  0  0  0  0  0  0
    9.5940  -13.2117   17.1781 C   0  0  0  0  0  0  0  0  0  0  0  0
    8.4817  -13.5434   17.9566 C   0  0  0  0  0  0  0  0  0  0  0  0
    7.0519  -15.8173   21.8811 C   0  0  0  0  0  0  0  0  0  0  0  0
    5.8347  -16.0609   22.0837 O   0  0  0  0  0  0  0  0  0  0  0  0
    7.9115  -15.7918   23.0077 N   0  0  0  0  0  0  0  0  0  0  0  0
    7.3585  -15.8305   24.3995 C   0  0  1  0  0  0  0  0  0  0  0  0
    7.1616  -17.3065   24.7049 C   0  0  0  0  0  0  0  0  0  0  0  0
    7.1492  -17.7611   26.4184 S   0  0  0  0  0  0  0  0  0  0  0  0
    8.3569  -15.1719   25.2454 C   0  0  0  0  0  0  0  0  0  0  0  0
    9.5809  -15.2605   24.8637 O   0  0  0  0  0  0  0  0  0  0  0  0
    8.1632  -14.4446   26.4293 N   0  0  0  0  0  0  0  0  0  0  0  0
    6.8642  -14.1276   27.0696 C   0  0  0  0  0  0  0  0  0  0  0  0
    6.9983  -12.5975   27.0937 C   0  0  0  0  0  0  0  0  0  0  0  0
    8.4507  -12.4504   27.5595 C   0  0  0  0  0  0  0  0  0  0  0  0
    9.0957  -13.7899   27.3207 C   0  0  1  0  0  0  0  0  0  0  0  0
    9.1591  -14.4995   28.6567 C   0  0  0  0  0  0  0  0  0  0  0  0
    8.2970  -15.3683   28.9341 O   0  0  0  0  0  0  0  0  0  0  0  0
   10.1301  -14.2349   29.6010 O   0  0  0  0  0  0  0  0  0  0  0  0
  2  1  1  6
  2 10  1  0
  3  2  1  0
  4  5  2  0
  4  3  1  0
  6  5  1  0
  7  8  1  0
  7  6  2  0
  8  9  2  0
  9  4  1  0
 10 12  1  0
 10 11  2  0
 12 13  1  0
 13 14  1  1
 15 14  1  0
 16 13  1  0
 16 17  2  0
 18 22  1  0
 18 16  1  0
 19 20  1  0
 19 18  1  0
 20 21  1  0
 21 22  1  0
 22 23  1  1
 24 23  2  0
 25 23  1  0
M  END
$$$$
