FCP.pdb
     RDKit          3D

 25 26  0  0  1  0  0  0  0  0999 V2000
    6.0184  -17.7876   25.7408 N   0  0  0  0  0  0  0  0  0  0  0  0
    6.6279  -16.5111   25.4619 C   0  0  1  0  0  0  0  0  0  0  0  0
    7.2941  -16.0013   26.7220 C   0  0  0  0  0  0  0  0  0  0  0  0
    7.0922  -14.5452   26.7789 C   0  0  0  0  0  0  0  0  0  0  0  0
    5.8317  -14.0006   26.7635 C   0  0  0  0  0  0  0  0  0  0  0  0
    5.6277  -12.6291   26.8166 C   0  0  0  0  0  0  0  0  0  0  0  0
    6.7048  -11.7814   26.8868 C   0  0  0  0  0  0  0  0  0  0  0  0
    7.9923  -12.3087   26.9039 C   0  0  0  0  0  0  0  0  0  0  0  0
    8.1686  -13.6941   26.8493 C   0  0  0  0  0  0  0  0  0  0  0  0
    7.5856  -16.6470   24.3428 C   0  0  0  0  0  0  0  0  0  0  0  0
    8.3232  -17.6626   24.2602 O   0  0  0  0  0  0  0  0  0  0  0  0
    7.7137  -15.6602   23.3336 N   0  0  0  0  0  0  0  0  0  0  0  0
    8.6564  -15.8509   22.1850 C   0  0  1  0  0  0  0  0  0  0  0  0
    8.4594  -14.6271   21.3054 C   0  0  0  0  0  0  0  0  0  0  0  0
    6.9265  -14.5324   20.4199 S   0  0  0  0  0  0  0  0  0  0  0  0
    9.9925  -15.9543   22.7767 C   0  0  0  0  0  0  0  0  0  0  0  0
   10.1564  -15.3997   23.9244 O   0  0  0  0  0  0  0  0  0  0  0  0
   11.1350  -16.5850   22.2619 N   0  0  0  0  0  0  0  0  0  0  0  0
   11.2202  -17.3758   21.0108 C   0  0  0  0  0  0  0  0  0  0  0  0
   11.7447  -18.6873   21.6147 C   0  0  0  0  0  0  0  0  0  0  0  0
   12.8069  -18.1477   22.5783 C   0  0  0  0  0  0  0  0  0  0  0  0
   12.4873  -16.6881   22.7653 C   0  0  1  0  0  0  0  0  0  0  0  0
   13.4506  -15.9054   21.8981 C   0  0  0  0  0  0  0  0  0  0  0  0
   13.1746  -15.7141   20.6889 O   0  0  0  0  0  0  0  0  0  0  0  0
   14.6362  -15.3849   22.3756 O   0  0  0  0  0  0  0  0  0  0  0  0
  2  1  1  1
  2 10  1  0
  3  2  1  0
  4  5  2  0
  4  3  1  0
  6  5  1  0
  7  8  1  0
  7  6  2  0
  8  9  2  0
  9  4  1  0
 10 12  1  0
 10 11  2  0
 12 13  1  0
 13 14  1  6
 15 14  1  0
 16 13  1  0
 16 17  2  0
 18 22  1  0
 18 16  1  0
 19 20  1  0
 19 18  1  0
 20 21  1  0
 21 22  1  0
 22 23  1  6
 24 23  2  0
 25 23  1  0
M  END
$$$$
