FCP.pdb
     RDKit          3D

 25 26  0  0  1  0  0  0  0  0999 V2000
    5.9236  -17.7113   25.5810 N   0  0  0  0  0  0  0  0  0  0  0  0
    6.6085  -16.4617   25.3614 C   0  0  1  0  0  0  0  0  0  0  0  0
    7.2284  -16.0077   26.6658 C   0  0  0  0  0  0  0  0  0  0  0  0
    7.0333  -14.5536   26.7734 C   0  0  0  0  0  0  0  0  0  0  0  0
    5.7760  -14.0096   26.8676 C   0  0  0  0  0  0  0  0  0  0  0  0
    5.5784  -12.6398   26.9696 C   0  0  0  0  0  0  0  0  0  0  0  0
    6.6588  -11.7935   26.9779 C   0  0  0  0  0  0  0  0  0  0  0  0
    7.9432  -12.3203   26.8836 C   0  0  0  0  0  0  0  0  0  0  0  0
    8.1130  -13.7038   26.7819 C   0  0  0  0  0  0  0  0  0  0  0  0
    7.6184  -16.6249   24.2931 C   0  0  0  0  0  0  0  0  0  0  0  0
    8.2870  -17.6871   24.2105 O   0  0  0  0  0  0  0  0  0  0  0  0
    7.8739  -15.6134   23.3336 N   0  0  0  0  0  0  0  0  0  0  0  0
    8.8325  -15.8458   22.2062 C   0  0  1  0  0  0  0  0  0  0  0  0
    8.6712  -14.6391   21.2960 C   0  0  0  0  0  0  0  0  0  0  0  0
    7.0854  -14.4377   20.5293 S   0  0  0  0  0  0  0  0  0  0  0  0
   10.1565  -15.9577   22.8231 C   0  0  0  0  0  0  0  0  0  0  0  0
   10.3061  -15.3922   23.9674 O   0  0  0  0  0  0  0  0  0  0  0  0
   11.3007  -16.6070   22.3361 N   0  0  0  0  0  0  0  0  0  0  0  0
   11.3987  -17.4147   21.0967 C   0  0  0  0  0  0  0  0  0  0  0  0
   11.8986  -18.7239   21.7262 C   0  0  0  0  0  0  0  0  0  0  0  0
   12.9500  -18.1831   22.7010 C   0  0  0  0  0  0  0  0  0  0  0  0
   12.6430  -16.7180   22.8639 C   0  0  1  0  0  0  0  0  0  0  0  0
   13.6294  -15.9567   22.0036 C   0  0  0  0  0  0  0  0  0  0  0  0
   13.6080  -16.1114   20.7583 O   0  0  0  0  0  0  0  0  0  0  0  0
   14.5670  -15.0894   22.5262 O   0  0  0  0  0  0  0  0  0  0  0  0
  2  1  1  1
  2 10  1  0
  3  2  1  0
  4  5  2  0
  4  3  1  0
  6  5  1  0
  7  8  1  0
  7  6  2  0
  8  9  2  0
  9  4  1  0
 10 12  1  0
 10 11  2  0
 12 13  1  0
 13 14  1  6
 15 14  1  0
 16 13  1  0
 16 17  2  0
 18 22  1  0
 18 16  1  0
 19 20  1  0
 19 18  1  0
 20 21  1  0
 21 22  1  0
 22 23  1  6
 24 23  2  0
 25 23  1  0
M  END
$$$$
