FCP.pdb
     RDKit          3D

 25 26  0  0  1  0  0  0  0  0999 V2000
    6.2671  -16.9970   25.5290 N   0  0  0  0  0  0  0  0  0  0  0  0
    6.7084  -15.7587   24.9368 C   0  0  1  0  0  0  0  0  0  0  0  0
    7.8619  -15.2111   25.7501 C   0  0  0  0  0  0  0  0  0  0  0  0
    7.4033  -13.9758   26.4043 C   0  0  0  0  0  0  0  0  0  0  0  0
    6.3210  -13.2779   25.9275 C   0  0  0  0  0  0  0  0  0  0  0  0
    5.8784  -12.1115   26.5353 C   0  0  0  0  0  0  0  0  0  0  0  0
    6.5297  -11.6302   27.6433 C   0  0  0  0  0  0  0  0  0  0  0  0
    7.6291  -12.3193   28.1457 C   0  0  0  0  0  0  0  0  0  0  0  0
    8.0532  -13.4914   27.5137 C   0  0  0  0  0  0  0  0  0  0  0  0
    7.0826  -15.9846   23.5237 C   0  0  0  0  0  0  0  0  0  0  0  0
    7.4250  -17.1307   23.1345 O   0  0  0  0  0  0  0  0  0  0  0  0
    7.0727  -14.9422   22.5633 N   0  0  0  0  0  0  0  0  0  0  0  0
    7.5525  -15.1794   21.1642 C   0  0  1  0  0  0  0  0  0  0  0  0
    7.4815  -13.8205   20.4869 C   0  0  0  0  0  0  0  0  0  0  0  0
    8.3363  -13.6653   18.9416 S   0  0  0  0  0  0  0  0  0  0  0  0
    8.9102  -15.7147   21.2919 C   0  0  0  0  0  0  0  0  0  0  0  0
    9.5305  -15.4510   22.3861 O   0  0  0  0  0  0  0  0  0  0  0  0
    9.6393  -16.4885   20.3766 N   0  0  0  0  0  0  0  0  0  0  0  0
    9.1628  -16.9884   19.0647 C   0  0  0  0  0  0  0  0  0  0  0  0
    9.3988  -18.4878   19.3016 C   0  0  0  0  0  0  0  0  0  0  0  0
   10.7812  -18.4535   19.9618 C   0  0  0  0  0  0  0  0  0  0  0  0
   10.9774  -17.0356   20.4292 C   0  0  1  0  0  0  0  0  0  0  0  0
   11.8821  -16.3551   19.4236 C   0  0  0  0  0  0  0  0  0  0  0  0
   13.1217  -16.3447   19.6187 O   0  0  0  0  0  0  0  0  0  0  0  0
   11.4063  -15.7341   18.2867 O   0  0  0  0  0  0  0  0  0  0  0  0
  2  1  1  1
  2 10  1  0
  3  2  1  0
  4  5  2  0
  4  3  1  0
  6  5  1  0
  7  8  1  0
  7  6  2  0
  8  9  2  0
  9  4  1  0
 10 12  1  0
 10 11  2  0
 12 13  1  0
 13 14  1  6
 15 14  1  0
 16 13  1  0
 16 17  2  0
 18 22  1  0
 18 16  1  0
 19 20  1  0
 19 18  1  0
 20 21  1  0
 21 22  1  0
 22 23  1  6
 24 23  2  0
 25 23  1  0
M  END
$$$$
