FCP.pdb
     RDKit          3D

 25 26  0  0  1  0  0  0  0  0999 V2000
    7.1390  -19.1778   27.1910 N   0  0  0  0  0  0  0  0  0  0  0  0
    7.6330  -17.8253   27.2642 C   0  0  1  0  0  0  0  0  0  0  0  0
    9.1463  -17.8548   27.2351 C   0  0  0  0  0  0  0  0  0  0  0  0
    9.6315  -16.6082   27.8472 C   0  0  0  0  0  0  0  0  0  0  0  0
    9.8070  -16.5038   29.2051 C   0  0  0  0  0  0  0  0  0  0  0  0
   10.2640  -15.3337   29.7949 C   0  0  0  0  0  0  0  0  0  0  0  0
   10.5525  -14.2433   29.0130 C   0  0  0  0  0  0  0  0  0  0  0  0
   10.3829  -14.3240   27.6344 C   0  0  0  0  0  0  0  0  0  0  0  0
    9.9212  -15.5149   27.0671 C   0  0  0  0  0  0  0  0  0  0  0  0
    7.0712  -17.0259   26.1537 C   0  0  0  0  0  0  0  0  0  0  0  0
    6.9196  -17.5407   25.0162 O   0  0  0  0  0  0  0  0  0  0  0  0
    6.6860  -15.6716   26.3167 N   0  0  0  0  0  0  0  0  0  0  0  0
    6.5876  -14.7517   25.1385 C   0  0  1  0  0  0  0  0  0  0  0  0
    6.6545  -13.3509   25.7249 C   0  0  0  0  0  0  0  0  0  0  0  0
    6.9129  -12.0272   24.5744 S   0  0  0  0  0  0  0  0  0  0  0  0
    7.7170  -15.0918   24.2697 C   0  0  0  0  0  0  0  0  0  0  0  0
    8.5963  -15.8917   24.7582 O   0  0  0  0  0  0  0  0  0  0  0  0
    7.9773  -14.6641   22.9593 N   0  0  0  0  0  0  0  0  0  0  0  0
    7.3416  -13.5222   22.2593 C   0  0  0  0  0  0  0  0  0  0  0  0
    6.7872  -14.2875   21.0481 C   0  0  0  0  0  0  0  0  0  0  0  0
    7.9855  -15.1796   20.7073 C   0  0  0  0  0  0  0  0  0  0  0  0
    8.8579  -15.1811   21.9346 C   0  0  1  0  0  0  0  0  0  0  0  0
   10.0026  -14.2261   21.6699 C   0  0  0  0  0  0  0  0  0  0  0  0
   10.9453  -14.5864   20.9239 O   0  0  0  0  0  0  0  0  0  0  0  0
   10.0652  -12.9606   22.2169 O   0  0  0  0  0  0  0  0  0  0  0  0
  2  1  1  6
  2 10  1  0
  3  2  1  0
  4  5  2  0
  4  3  1  0
  6  5  1  0
  7  8  1  0
  7  6  2  0
  8  9  2  0
  9  4  1  0
 10 12  1  0
 10 11  2  0
 12 13  1  0
 13 14  1  1
 15 14  1  0
 16 13  1  0
 16 17  2  0
 18 22  1  0
 18 16  1  0
 19 20  1  0
 19 18  1  0
 20 21  1  0
 21 22  1  0
 22 23  1  6
 24 23  2  0
 25 23  1  0
M  END
$$$$
