FCP.pdb
     RDKit          3D

 25 26  0  0  1  0  0  0  0  0999 V2000
    7.5187  -19.1752   27.4668 N   0  0  0  0  0  0  0  0  0  0  0  0
    7.9082  -17.7876   27.4256 C   0  0  1  0  0  0  0  0  0  0  0  0
    9.4096  -17.6957   27.5961 C   0  0  0  0  0  0  0  0  0  0  0  0
    9.7122  -16.3967   28.2169 C   0  0  0  0  0  0  0  0  0  0  0  0
    9.8457  -15.2597   27.4585 C   0  0  0  0  0  0  0  0  0  0  0  0
   10.1310  -14.0286   28.0317 C   0  0  0  0  0  0  0  0  0  0  0  0
   10.2866  -13.9289   29.3917 C   0  0  0  0  0  0  0  0  0  0  0  0
   10.1562  -15.0667   30.1819 C   0  0  0  0  0  0  0  0  0  0  0  0
    9.8686  -16.2938   29.5781 C   0  0  0  0  0  0  0  0  0  0  0  0
    7.4545  -17.1773   26.1569 C   0  0  0  0  0  0  0  0  0  0  0  0
    7.2107  -17.9011   25.1575 O   0  0  0  0  0  0  0  0  0  0  0  0
    7.2772  -15.7786   26.0120 N   0  0  0  0  0  0  0  0  0  0  0  0
    6.8068  -15.1920   24.7163 C   0  0  1  0  0  0  0  0  0  0  0  0
    6.6310  -13.7082   24.9957 C   0  0  0  0  0  0  0  0  0  0  0  0
    7.9569  -12.9067   25.8573 S   0  0  0  0  0  0  0  0  0  0  0  0
    7.8517  -15.4971   23.7360 C   0  0  0  0  0  0  0  0  0  0  0  0
    8.6981  -16.4069   24.0638 O   0  0  0  0  0  0  0  0  0  0  0  0
    8.0610  -14.9306   22.4698 N   0  0  0  0  0  0  0  0  0  0  0  0
    7.5902  -13.6034   22.0063 C   0  0  0  0  0  0  0  0  0  0  0  0
    6.7855  -14.0699   20.7837 C   0  0  0  0  0  0  0  0  0  0  0  0
    7.7529  -15.0971   20.1862 C   0  0  0  0  0  0  0  0  0  0  0  0
    8.7235  -15.4350   21.2868 C   0  0  1  0  0  0  0  0  0  0  0  0
    9.9984  -14.6668   21.0093 C   0  0  0  0  0  0  0  0  0  0  0  0
   10.8017  -15.0978   20.1468 O   0  0  0  0  0  0  0  0  0  0  0  0
   10.3290  -13.4997   21.6675 O   0  0  0  0  0  0  0  0  0  0  0  0
  2  1  1  6
  2 10  1  0
  3  2  1  0
  4  5  2  0
  4  3  1  0
  6  5  1  0
  7  8  1  0
  7  6  2  0
  8  9  2  0
  9  4  1  0
 10 12  1  0
 10 11  2  0
 12 13  1  0
 13 14  1  1
 15 14  1  0
 16 13  1  0
 16 17  2  0
 18 22  1  0
 18 16  1  0
 19 20  1  0
 19 18  1  0
 20 21  1  0
 21 22  1  0
 22 23  1  6
 24 23  2  0
 25 23  1  0
M  END
$$$$
