FCP.pdb
     RDKit          3D

 25 26  0  0  1  0  0  0  0  0999 V2000
    5.6141  -17.3702   25.3152 N   0  0  0  0  0  0  0  0  0  0  0  0
    6.3041  -16.1488   24.9825 C   0  0  1  0  0  0  0  0  0  0  0  0
    7.3465  -15.8708   26.0445 C   0  0  0  0  0  0  0  0  0  0  0  0
    7.2947  -14.4347   26.3594 C   0  0  0  0  0  0  0  0  0  0  0  0
    6.0966  -13.7899   26.5452 C   0  0  0  0  0  0  0  0  0  0  0  0
    6.0341  -12.4359   26.8426 C   0  0  0  0  0  0  0  0  0  0  0  0
    7.1923  -11.7085   26.9573 C   0  0  0  0  0  0  0  0  0  0  0  0
    8.4190  -12.3389   26.7736 C   0  0  0  0  0  0  0  0  0  0  0  0
    8.4525  -13.7038   26.4749 C   0  0  0  0  0  0  0  0  0  0  0  0
    6.9010  -16.2619   23.6339 C   0  0  0  0  0  0  0  0  0  0  0  0
    7.3872  -17.3552   23.2461 O   0  0  0  0  0  0  0  0  0  0  0  0
    6.9516  -15.1668   22.7355 N   0  0  0  0  0  0  0  0  0  0  0  0
    7.5630  -15.3136   21.3758 C   0  0  1  0  0  0  0  0  0  0  0  0
    7.4508  -13.9367   20.7418 C   0  0  0  0  0  0  0  0  0  0  0  0
    8.4123  -13.6632   19.2777 S   0  0  0  0  0  0  0  0  0  0  0  0
    8.9404  -15.7582   21.6021 C   0  0  0  0  0  0  0  0  0  0  0  0
    9.4560  -15.4706   22.7437 O   0  0  0  0  0  0  0  0  0  0  0  0
    9.7882  -16.4667   20.7377 N   0  0  0  0  0  0  0  0  0  0  0  0
    9.4338  -17.0197   19.4086 C   0  0  0  0  0  0  0  0  0  0  0  0
    9.7964  -18.4881   19.6774 C   0  0  0  0  0  0  0  0  0  0  0  0
   11.1310  -18.3179   20.4107 C   0  0  0  0  0  0  0  0  0  0  0  0
   11.1670  -16.8842   20.8695 C   0  0  1  0  0  0  0  0  0  0  0  0
   12.0575  -16.1291   19.9055 C   0  0  0  0  0  0  0  0  0  0  0  0
   13.2997  -16.1309   20.0842 O   0  0  0  0  0  0  0  0  0  0  0  0
   11.5660  -15.4259   18.8244 O   0  0  0  0  0  0  0  0  0  0  0  0
  2  1  1  1
  2 10  1  0
  3  2  1  0
  4  5  2  0
  4  3  1  0
  6  5  1  0
  7  8  1  0
  7  6  2  0
  8  9  2  0
  9  4  1  0
 10 12  1  0
 10 11  2  0
 12 13  1  0
 13 14  1  1
 15 14  1  0
 16 13  1  0
 16 17  2  0
 18 22  1  0
 18 16  1  0
 19 20  1  0
 19 18  1  0
 20 21  1  0
 21 22  1  0
 22 23  1  6
 24 23  2  0
 25 23  1  0
M  END
$$$$
