FCP.pdb
     RDKit          3D

 25 26  0  0  1  0  0  0  0  0999 V2000
    7.1491  -18.8107   27.6217 N   0  0  0  0  0  0  0  0  0  0  0  0
    7.7328  -17.5045   27.4436 C   0  0  1  0  0  0  0  0  0  0  0  0
    9.2404  -17.6407   27.4240 C   0  0  0  0  0  0  0  0  0  0  0  0
    9.8107  -16.3947   27.9591 C   0  0  0  0  0  0  0  0  0  0  0  0
   10.3231  -16.3358   29.2318 C   0  0  0  0  0  0  0  0  0  0  0  0
   10.8639  -15.1668   29.7483 C   0  0  0  0  0  0  0  0  0  0  0  0
   10.8943  -14.0310   28.9785 C   0  0  0  0  0  0  0  0  0  0  0  0
   10.3812  -14.0650   27.6856 C   0  0  0  0  0  0  0  0  0  0  0  0
    9.8426  -15.2559   27.1909 C   0  0  0  0  0  0  0  0  0  0  0  0
    7.2142  -16.8890   26.2025 C   0  0  0  0  0  0  0  0  0  0  0  0
    6.9140  -17.6092   25.2159 O   0  0  0  0  0  0  0  0  0  0  0  0
    7.0354  -15.4892   26.0706 N   0  0  0  0  0  0  0  0  0  0  0  0
    6.7760  -14.8685   24.7320 C   0  0  1  0  0  0  0  0  0  0  0  0
    6.6680  -13.3768   25.0030 C   0  0  0  0  0  0  0  0  0  0  0  0
    5.5947  -12.8930   26.3284 S   0  0  0  0  0  0  0  0  0  0  0  0
    7.9145  -15.2433   23.8897 C   0  0  0  0  0  0  0  0  0  0  0  0
    8.7469  -16.0845   24.3909 O   0  0  0  0  0  0  0  0  0  0  0  0
    8.2281  -14.8101   22.5928 N   0  0  0  0  0  0  0  0  0  0  0  0
    7.6748  -13.6221   21.8996 C   0  0  0  0  0  0  0  0  0  0  0  0
    7.1045  -14.3342   20.6637 C   0  0  0  0  0  0  0  0  0  0  0  0
    8.2569  -15.2884   20.3328 C   0  0  0  0  0  0  0  0  0  0  0  0
    9.1002  -15.3604   21.5782 C   0  0  1  0  0  0  0  0  0  0  0  0
   10.3035  -14.4690   21.3549 C   0  0  0  0  0  0  0  0  0  0  0  0
   10.1513  -13.2235   21.3309 O   0  0  0  0  0  0  0  0  0  0  0  0
   11.5790  -14.9630   21.1713 O   0  0  0  0  0  0  0  0  0  0  0  0
  2  1  1  6
  2 10  1  0
  3  2  1  0
  4  5  2  0
  4  3  1  0
  6  5  1  0
  7  8  1  0
  7  6  2  0
  8  9  2  0
  9  4  1  0
 10 12  1  0
 10 11  2  0
 12 13  1  0
 13 14  1  1
 15 14  1  0
 16 13  1  0
 16 17  2  0
 18 22  1  0
 18 16  1  0
 19 20  1  0
 19 18  1  0
 20 21  1  0
 21 22  1  0
 22 23  1  6
 24 23  2  0
 25 23  1  0
M  END
$$$$
