FCP.pdb
     RDKit          3D

 25 26  0  0  1  0  0  0  0  0999 V2000
    7.3626  -19.2203   27.6302 N   0  0  0  0  0  0  0  0  0  0  0  0
    7.8101  -17.8510   27.6882 C   0  0  1  0  0  0  0  0  0  0  0  0
    9.3015  -17.8341   27.9471 C   0  0  0  0  0  0  0  0  0  0  0  0
    9.6786  -16.4593   28.3105 C   0  0  0  0  0  0  0  0  0  0  0  0
   10.3028  -15.6313   27.4103 C   0  0  0  0  0  0  0  0  0  0  0  0
   10.6636  -14.3327   27.7405 C   0  0  0  0  0  0  0  0  0  0  0  0
   10.3959  -13.8488   28.9967 C   0  0  0  0  0  0  0  0  0  0  0  0
    9.7641  -14.6683   29.9269 C   0  0  0  0  0  0  0  0  0  0  0  0
    9.4119  -15.9721   29.5673 C   0  0  0  0  0  0  0  0  0  0  0  0
    7.4562  -17.1546   26.4321 C   0  0  0  0  0  0  0  0  0  0  0  0
    7.3956  -17.7924   25.3497 O   0  0  0  0  0  0  0  0  0  0  0  0
    7.1749  -15.7660   26.3911 N   0  0  0  0  0  0  0  0  0  0  0  0
    6.8859  -15.0766   25.0929 C   0  0  1  0  0  0  0  0  0  0  0  0
    6.8706  -13.5942   25.4281 C   0  0  0  0  0  0  0  0  0  0  0  0
    6.3526  -13.1630   27.0678 S   0  0  0  0  0  0  0  0  0  0  0  0
    7.9616  -15.4734   24.1809 C   0  0  0  0  0  0  0  0  0  0  0  0
    8.7385  -16.4141   24.5846 O   0  0  0  0  0  0  0  0  0  0  0  0
    8.2667  -14.9664   22.9089 N   0  0  0  0  0  0  0  0  0  0  0  0
    8.0775  -13.5712   22.4446 C   0  0  0  0  0  0  0  0  0  0  0  0
    7.1757  -13.8621   21.2354 C   0  0  0  0  0  0  0  0  0  0  0  0
    7.8982  -15.0705   20.6306 C   0  0  0  0  0  0  0  0  0  0  0  0
    8.7921  -15.6012   21.7200 C   0  0  1  0  0  0  0  0  0  0  0  0
   10.1954  -15.1176   21.4213 C   0  0  0  0  0  0  0  0  0  0  0  0
   10.8575  -15.6727   20.5111 O   0  0  0  0  0  0  0  0  0  0  0  0
   10.7946  -14.0828   22.1103 O   0  0  0  0  0  0  0  0  0  0  0  0
  2  1  1  6
  2 10  1  0
  3  2  1  0
  4  5  2  0
  4  3  1  0
  6  5  1  0
  7  8  1  0
  7  6  2  0
  8  9  2  0
  9  4  1  0
 10 12  1  0
 10 11  2  0
 12 13  1  0
 13 14  1  1
 15 14  1  0
 16 13  1  0
 16 17  2  0
 18 22  1  0
 18 16  1  0
 19 20  1  0
 19 18  1  0
 20 21  1  0
 21 22  1  0
 22 23  1  6
 24 23  2  0
 25 23  1  0
M  END
$$$$
