NGK.pdb
     RDKit          3D

 22 21  0  0  1  0  0  0  0  0999 V2000
   17.7934   -8.7738  -17.1696 N   0  0  0  0  0  0  0  0  0  0  0  0
   18.8943   -8.4781  -16.3050 C   0  0  0  0  0  0  0  0  0  0  0  0
   20.0593   -8.6314  -16.6996 O   0  0  0  0  0  0  0  0  0  0  0  0
   18.5804   -7.9917  -14.9482 C   0  0  0  0  0  0  0  0  0  0  0  0
   19.3406   -8.7431  -13.8859 C   0  0  2  0  0  0  0  0  0  0  0  0
   19.0386  -10.1476  -13.9315 N   0  0  0  0  0  0  0  0  0  0  0  0
   19.0383   -8.1080  -12.5920 C   0  0  0  0  0  0  0  0  0  0  0  0
   19.2774   -6.8752  -12.4598 O   0  0  0  0  0  0  0  0  0  0  0  0
   18.4947   -8.7612  -11.4604 N   0  0  0  0  0  0  0  0  0  0  0  0
   18.1485   -8.0435  -10.2480 C   0  0  0  0  0  0  0  0  0  0  0  0
   16.7547   -7.5231  -10.3166 C   0  0  0  0  0  0  0  0  0  0  0  0
   16.2130   -7.3243  -11.4348 O   0  0  0  0  0  0  0  0  0  0  0  0
   16.0465   -7.2546   -9.1249 N   0  0  0  0  0  0  0  0  0  0  0  0
   14.6948   -6.7389   -9.0640 C   0  0  1  0  0  0  0  0  0  0  0  0
   13.8852   -7.5779   -8.1541 C   0  0  0  0  0  0  0  0  0  0  0  0
   12.4391   -7.2508   -8.0437 C   0  0  0  0  0  0  0  0  0  0  0  0
   11.6350   -8.0990   -7.1236 C   0  0  0  0  0  0  0  0  0  0  0  0
   10.1668   -7.8322   -7.1017 C   0  0  0  0  0  0  0  0  0  0  0  0
    9.4120   -8.7366   -6.3011 N   0  0  0  0  0  0  0  0  0  0  0  0
   14.6539   -5.2772   -8.7894 C   0  0  0  0  0  0  0  0  0  0  0  0
   13.6760   -4.4313   -9.2340 O   0  0  0  0  0  0  0  0  0  0  0  0
   15.5780   -4.7757   -8.1026 O   0  0  0  0  0  0  0  0  0  0  0  0
  1  2  1  0
  2  3  2  0
  4  2  1  0
  5  4  1  0
  5  6  1  1
  7  5  1  0
  7  8  2  0
  9  7  1  0
 10  9  1  0
 10 11  1  0
 11 13  1  0
 12 11  2  0
 13 14  1  0
 14 15  1  1
 15 16  1  0
 16 17  1  0
 17 18  1  0
 18 19  1  0
 20 14  1  0
 20 21  1  0
 22 20  2  0
M  END
$$$$
