NGK.pdb
     RDKit          3D

 22 21  0  0  1  0  0  0  0  0999 V2000
   24.4391  -20.8805   -9.4451 N   0  0  0  0  0  0  0  0  0  0  0  0
   25.6077  -20.1686   -9.0274 C   0  0  0  0  0  0  0  0  0  0  0  0
   25.6948  -19.7313   -7.8708 O   0  0  0  0  0  0  0  0  0  0  0  0
   26.6821  -19.9847  -10.0213 C   0  0  0  0  0  0  0  0  0  0  0  0
   26.3630  -20.6551  -11.3328 C   0  0  2  0  0  0  0  0  0  0  0  0
   26.5696  -22.0751  -11.2498 N   0  0  0  0  0  0  0  0  0  0  0  0
   27.1659  -19.9938  -12.3753 C   0  0  0  0  0  0  0  0  0  0  0  0
   28.2682  -19.4751  -12.0430 O   0  0  0  0  0  0  0  0  0  0  0  0
   26.8122  -19.8820  -13.7409 N   0  0  0  0  0  0  0  0  0  0  0  0
   27.7281  -19.3532  -14.7340 C   0  0  0  0  0  0  0  0  0  0  0  0
   27.0746  -19.2683  -16.0697 C   0  0  0  0  0  0  0  0  0  0  0  0
   27.2990  -20.1529  -16.9360 O   0  0  0  0  0  0  0  0  0  0  0  0
   26.2049  -18.1940  -16.3583 N   0  0  0  0  0  0  0  0  0  0  0  0
   25.2724  -18.1589  -17.4655 C   0  0  1  0  0  0  0  0  0  0  0  0
   23.8918  -18.3020  -16.9549 C   0  0  0  0  0  0  0  0  0  0  0  0
   23.5875  -19.5265  -16.1686 C   0  0  0  0  0  0  0  0  0  0  0  0
   22.1630  -19.7403  -15.7976 C   0  0  0  0  0  0  0  0  0  0  0  0
   21.8792  -20.9349  -14.9493 C   0  0  0  0  0  0  0  0  0  0  0  0
   20.5216  -21.0598  -14.5369 N   0  0  0  0  0  0  0  0  0  0  0  0
   25.5017  -16.9983  -18.3678 C   0  0  0  0  0  0  0  0  0  0  0  0
   25.7129  -17.0929  -19.7153 O   0  0  0  0  0  0  0  0  0  0  0  0
   25.5039  -15.8470  -17.8659 O   0  0  0  0  0  0  0  0  0  0  0  0
  1  2  1  0
  2  3  2  0
  4  2  1  0
  5  4  1  0
  5  6  1  1
  7  5  1  0
  7  8  2  0
  9  7  1  0
 10  9  1  0
 10 11  1  0
 11 13  1  0
 12 11  2  0
 13 14  1  0
 14 15  1  1
 15 16  1  0
 16 17  1  0
 17 18  1  0
 18 19  1  0
 20 14  1  0
 20 21  1  0
 22 20  2  0
M  END
$$$$
