NGK.pdb
     RDKit          3D

 22 21  0  0  1  0  0  0  0  0999 V2000
   25.7051  -20.4009   -8.4035 N   0  0  0  0  0  0  0  0  0  0  0  0
   24.9816  -20.3055   -9.6341 C   0  0  0  0  0  0  0  0  0  0  0  0
   23.7502  -20.4463   -9.6494 O   0  0  0  0  0  0  0  0  0  0  0  0
   25.7582  -20.0366  -10.8592 C   0  0  0  0  0  0  0  0  0  0  0  0
   25.5318  -21.0863  -11.9166 C   0  0  2  0  0  0  0  0  0  0  0  0
   25.8072  -22.4011  -11.4054 N   0  0  0  0  0  0  0  0  0  0  0  0
   26.3448  -20.7176  -13.0879 C   0  0  0  0  0  0  0  0  0  0  0  0
   26.1577  -19.5851  -13.6140 O   0  0  0  0  0  0  0  0  0  0  0  0
   27.3352  -21.5283  -13.6918 N   0  0  0  0  0  0  0  0  0  0  0  0
   28.0116  -21.1374  -14.9143 C   0  0  0  0  0  0  0  0  0  0  0  0
   27.2278  -21.5493  -16.1118 C   0  0  0  0  0  0  0  0  0  0  0  0
   27.1236  -22.7685  -16.4053 O   0  0  0  0  0  0  0  0  0  0  0  0
   26.6041  -20.5685  -16.9137 N   0  0  0  0  0  0  0  0  0  0  0  0
   25.3152  -20.7217  -17.5556 C   0  0  1  0  0  0  0  0  0  0  0  0
   24.2393  -20.4817  -16.5697 C   0  0  0  0  0  0  0  0  0  0  0  0
   23.1775  -21.5171  -16.4655 C   0  0  0  0  0  0  0  0  0  0  0  0
   22.0574  -21.2276  -15.5305 C   0  0  0  0  0  0  0  0  0  0  0  0
   20.9369  -22.2133  -15.5254 C   0  0  0  0  0  0  0  0  0  0  0  0
   19.8990  -21.9259  -14.5932 N   0  0  0  0  0  0  0  0  0  0  0  0
   25.2101  -19.9403  -18.8174 C   0  0  0  0  0  0  0  0  0  0  0  0
   25.5462  -18.6210  -18.9433 O   0  0  0  0  0  0  0  0  0  0  0  0
   24.7831  -20.5244  -19.8440 O   0  0  0  0  0  0  0  0  0  0  0  0
  1  2  1  0
  2  3  2  0
  4  2  1  0
  5  4  1  0
  5  6  1  1
  7  5  1  0
  7  8  2  0
  9  7  1  0
 10  9  1  0
 10 11  1  0
 11 13  1  0
 12 11  2  0
 13 14  1  0
 14 15  1  1
 15 16  1  0
 16 17  1  0
 17 18  1  0
 18 19  1  0
 20 14  1  0
 20 21  1  0
 22 20  2  0
M  END
$$$$
