NGK.pdb
     RDKit          3D

 22 21  0  0  1  0  0  0  0  0999 V2000
   15.6171  -11.1724  -17.3256 N   0  0  0  0  0  0  0  0  0  0  0  0
   16.7609  -11.5359  -16.5469 C   0  0  0  0  0  0  0  0  0  0  0  0
   17.9018  -11.4193  -17.0173 O   0  0  0  0  0  0  0  0  0  0  0  0
   16.5200  -12.0462  -15.1839 C   0  0  0  0  0  0  0  0  0  0  0  0
   15.0505  -12.1230  -14.8581 C   0  0  2  0  0  0  0  0  0  0  0  0
   14.2537  -11.6416  -15.9531 N   0  0  0  0  0  0  0  0  0  0  0  0
   14.8377  -11.3927  -13.5971 C   0  0  0  0  0  0  0  0  0  0  0  0
   15.2608  -11.9112  -12.5262 O   0  0  0  0  0  0  0  0  0  0  0  0
   14.1911  -10.1404  -13.4690 N   0  0  0  0  0  0  0  0  0  0  0  0
   14.0001   -9.4992  -12.1816 C   0  0  0  0  0  0  0  0  0  0  0  0
   12.5742   -9.5700  -11.7576 C   0  0  0  0  0  0  0  0  0  0  0  0
   11.7423  -10.2059  -12.4555 O   0  0  0  0  0  0  0  0  0  0  0  0
   12.1615   -8.9225  -10.5726 N   0  0  0  0  0  0  0  0  0  0  0  0
   10.7962   -8.8647  -10.0936 C   0  0  1  0  0  0  0  0  0  0  0  0
   10.7449   -9.3212   -8.6878 C   0  0  0  0  0  0  0  0  0  0  0  0
    9.4048   -9.3797   -8.0467 C   0  0  0  0  0  0  0  0  0  0  0  0
    9.3773   -9.6965   -6.5936 C   0  0  0  0  0  0  0  0  0  0  0  0
    8.0339   -9.6759   -5.9439 C   0  0  0  0  0  0  0  0  0  0  0  0
    8.0296  -10.0822   -4.5787 N   0  0  0  0  0  0  0  0  0  0  0  0
   10.1529   -7.5502  -10.3614 C   0  0  0  0  0  0  0  0  0  0  0  0
    8.8154   -7.3714  -10.5813 O   0  0  0  0  0  0  0  0  0  0  0  0
   10.8811   -6.5273  -10.3901 O   0  0  0  0  0  0  0  0  0  0  0  0
  1  2  1  0
  2  3  2  0
  4  2  1  0
  5  4  1  0
  5  6  1  6
  7  5  1  0
  7  8  2  0
  9  7  1  0
 10  9  1  0
 10 11  1  0
 11 13  1  0
 12 11  2  0
 13 14  1  0
 14 15  1  1
 15 16  1  0
 16 17  1  0
 17 18  1  0
 18 19  1  0
 20 14  1  0
 20 21  1  0
 22 20  2  0
M  END
$$$$
