NGK.pdb
     RDKit          3D

 22 21  0  0  1  0  0  0  0  0999 V2000
   21.1938  -18.3927  -15.2268 N   0  0  0  0  0  0  0  0  0  0  0  0
   21.5515  -19.5771  -15.9452 C   0  0  0  0  0  0  0  0  0  0  0  0
   20.8581  -19.9664  -16.8961 O   0  0  0  0  0  0  0  0  0  0  0  0
   22.7620  -20.2974  -15.5071 C   0  0  0  0  0  0  0  0  0  0  0  0
   23.3159  -19.7454  -14.2188 C   0  0  2  0  0  0  0  0  0  0  0  0
   23.6663  -18.3587  -14.3603 N   0  0  0  0  0  0  0  0  0  0  0  0
   24.4389  -20.6078  -13.8139 C   0  0  0  0  0  0  0  0  0  0  0  0
   24.2046  -21.8270  -13.5832 O   0  0  0  0  0  0  0  0  0  0  0  0
   25.7822  -20.1916  -13.6556 N   0  0  0  0  0  0  0  0  0  0  0  0
   26.8315  -21.1090  -13.2530 C   0  0  0  0  0  0  0  0  0  0  0  0
   26.6390  -21.5532  -11.8445 C   0  0  0  0  0  0  0  0  0  0  0  0
   26.3321  -22.7487  -11.5994 O   0  0  0  0  0  0  0  0  0  0  0  0
   26.8021  -20.6297  -10.7889 N   0  0  0  0  0  0  0  0  0  0  0  0
   26.5711  -20.9228   -9.3898 C   0  0  1  0  0  0  0  0  0  0  0  0
   27.2943  -19.9417   -8.5523 C   0  0  0  0  0  0  0  0  0  0  0  0
   27.2326  -20.1373   -7.0798 C   0  0  0  0  0  0  0  0  0  0  0  0
   27.9207  -19.1163   -6.2450 C   0  0  0  0  0  0  0  0  0  0  0  0
   27.9333  -19.3725   -4.7748 C   0  0  0  0  0  0  0  0  0  0  0  0
   28.6566  -18.4113   -4.0121 N   0  0  0  0  0  0  0  0  0  0  0  0
   25.1271  -21.0903   -9.0731 C   0  0  0  0  0  0  0  0  0  0  0  0
   24.6385  -21.8930   -8.0799 O   0  0  0  0  0  0  0  0  0  0  0  0
   24.2904  -20.4546   -9.7610 O   0  0  0  0  0  0  0  0  0  0  0  0
  1  2  1  0
  2  3  2  0
  4  2  1  0
  5  4  1  0
  5  6  1  6
  7  5  1  0
  7  8  2  0
  9  7  1  0
 10  9  1  0
 10 11  1  0
 11 13  1  0
 12 11  2  0
 13 14  1  0
 14 15  1  1
 15 16  1  0
 16 17  1  0
 17 18  1  0
 18 19  1  0
 20 14  1  0
 20 21  1  0
 22 20  2  0
M  END
$$$$
