NGK.pdb
     RDKit          3D

 22 21  0  0  1  0  0  0  0  0999 V2000
   26.7379  -22.0700  -15.4930 N   0  0  0  0  0  0  0  0  0  0  0  0
   25.5928  -22.1446  -16.3475 C   0  0  0  0  0  0  0  0  0  0  0  0
   25.6576  -22.7432  -17.4310 O   0  0  0  0  0  0  0  0  0  0  0  0
   24.3562  -21.4869  -15.8844 C   0  0  0  0  0  0  0  0  0  0  0  0
   24.5188  -20.8692  -14.5194 C   0  0  2  0  0  0  0  0  0  0  0  0
   25.3080  -21.7114  -13.6629 N   0  0  0  0  0  0  0  0  0  0  0  0
   23.1710  -20.5828  -13.9995 C   0  0  0  0  0  0  0  0  0  0  0  0
   22.4194  -19.8222  -14.6711 O   0  0  0  0  0  0  0  0  0  0  0  0
   22.6277  -21.0889  -12.7948 N   0  0  0  0  0  0  0  0  0  0  0  0
   21.2787  -20.7727  -12.3644 C   0  0  0  0  0  0  0  0  0  0  0  0
   20.4697  -22.0116  -12.1946 C   0  0  0  0  0  0  0  0  0  0  0  0
   20.7027  -23.0174  -12.9139 O   0  0  0  0  0  0  0  0  0  0  0  0
   19.4432  -22.0519  -11.2258 N   0  0  0  0  0  0  0  0  0  0  0  0
   18.7160  -23.2432  -10.8399 C   0  0  1  0  0  0  0  0  0  0  0  0
   18.6014  -23.2979   -9.3664 C   0  0  0  0  0  0  0  0  0  0  0  0
   18.0726  -24.5565   -8.7777 C   0  0  0  0  0  0  0  0  0  0  0  0
   17.9075  -24.5800   -7.2996 C   0  0  0  0  0  0  0  0  0  0  0  0
   17.3461  -25.8368   -6.7231 C   0  0  0  0  0  0  0  0  0  0  0  0
   17.1990  -25.8249   -5.3064 N   0  0  0  0  0  0  0  0  0  0  0  0
   17.4377  -23.3976  -11.5853 C   0  0  0  0  0  0  0  0  0  0  0  0
   16.9189  -24.5940  -11.9965 O   0  0  0  0  0  0  0  0  0  0  0  0
   16.7823  -22.3625  -11.8614 O   0  0  0  0  0  0  0  0  0  0  0  0
  1  2  1  0
  2  3  2  0
  4  2  1  0
  5  4  1  0
  5  6  1  1
  7  5  1  0
  7  8  2  0
  9  7  1  0
 10  9  1  0
 10 11  1  0
 11 13  1  0
 12 11  2  0
 13 14  1  0
 14 15  1  1
 15 16  1  0
 16 17  1  0
 17 18  1  0
 18 19  1  0
 20 14  1  0
 20 21  1  0
 22 20  2  0
M  END
$$$$
