NGK.pdb
     RDKit          3D

 22 21  0  0  1  0  0  0  0  0999 V2000
   27.5104  -22.7178  -16.0798 N   0  0  0  0  0  0  0  0  0  0  0  0
   27.7331  -21.5832  -15.2371 C   0  0  0  0  0  0  0  0  0  0  0  0
   28.8816  -21.1542  -15.0547 O   0  0  0  0  0  0  0  0  0  0  0  0
   26.5518  -20.9620  -14.6088 C   0  0  0  0  0  0  0  0  0  0  0  0
   25.2676  -21.6266  -15.0333 C   0  0  2  0  0  0  0  0  0  0  0  0
   25.2258  -21.8047  -16.4589 N   0  0  0  0  0  0  0  0  0  0  0  0
   24.1552  -20.8236  -14.4979 C   0  0  0  0  0  0  0  0  0  0  0  0
   23.8316  -20.9809  -13.2875 O   0  0  0  0  0  0  0  0  0  0  0  0
   23.3996  -19.8738  -15.2256 N   0  0  0  0  0  0  0  0  0  0  0  0
   22.2334  -19.2204  -14.6617 C   0  0  0  0  0  0  0  0  0  0  0  0
   21.1107  -19.1971  -15.6400 C   0  0  0  0  0  0  0  0  0  0  0  0
   21.2621  -19.7038  -16.7818 O   0  0  0  0  0  0  0  0  0  0  0  0
   19.8797  -18.6057  -15.2814 N   0  0  0  0  0  0  0  0  0  0  0  0
   18.7555  -18.4274  -16.1765 C   0  0  1  0  0  0  0  0  0  0  0  0
   17.5460  -18.0958  -15.3926 C   0  0  0  0  0  0  0  0  0  0  0  0
   16.6191  -19.2147  -15.0777 C   0  0  0  0  0  0  0  0  0  0  0  0
   16.9477  -20.0315  -13.8788 C   0  0  0  0  0  0  0  0  0  0  0  0
   16.0759  -21.2182  -13.6357 C   0  0  0  0  0  0  0  0  0  0  0  0
   16.5329  -22.0879  -12.6044 N   0  0  0  0  0  0  0  0  0  0  0  0
   19.0618  -17.5006  -17.2994 C   0  0  0  0  0  0  0  0  0  0  0  0
   18.6276  -17.6690  -18.5849 O   0  0  0  0  0  0  0  0  0  0  0  0
   19.7685  -16.4904  -17.0599 O   0  0  0  0  0  0  0  0  0  0  0  0
  1  2  1  0
  2  3  2  0
  4  2  1  0
  5  4  1  0
  5  6  1  6
  7  5  1  0
  7  8  2  0
  9  7  1  0
 10  9  1  0
 10 11  1  0
 11 13  1  0
 12 11  2  0
 13 14  1  0
 14 15  1  1
 15 16  1  0
 16 17  1  0
 17 18  1  0
 18 19  1  0
 20 14  1  0
 20 21  1  0
 22 20  2  0
M  END
$$$$
