NGK.pdb
     RDKit          3D

 22 21  0  0  1  0  0  0  0  0999 V2000
   28.3249  -20.5790  -16.0547 N   0  0  0  0  0  0  0  0  0  0  0  0
   27.1664  -21.3261  -15.6717 C   0  0  0  0  0  0  0  0  0  0  0  0
   27.1377  -22.5566  -15.8187 O   0  0  0  0  0  0  0  0  0  0  0  0
   26.0307  -20.5745  -15.1046 C   0  0  0  0  0  0  0  0  0  0  0  0
   24.7028  -21.1355  -15.5441 C   0  0  2  0  0  0  0  0  0  0  0  0
   24.3957  -20.7389  -16.8911 N   0  0  0  0  0  0  0  0  0  0  0  0
   23.6960  -20.7183  -14.5535 C   0  0  0  0  0  0  0  0  0  0  0  0
   23.1608  -19.5822  -14.6858 O   0  0  0  0  0  0  0  0  0  0  0  0
   23.2632  -21.4848  -13.4455 N   0  0  0  0  0  0  0  0  0  0  0  0
   22.1820  -21.0493  -12.5817 C   0  0  0  0  0  0  0  0  0  0  0  0
   21.0185  -21.9743  -12.6770 C   0  0  0  0  0  0  0  0  0  0  0  0
   20.9766  -22.8385  -13.5906 O   0  0  0  0  0  0  0  0  0  0  0  0
   19.9663  -21.8771  -11.7404 N   0  0  0  0  0  0  0  0  0  0  0  0
   18.8036  -22.7397  -11.7098 C   0  0  1  0  0  0  0  0  0  0  0  0
   18.1647  -22.6624  -10.3782 C   0  0  0  0  0  0  0  0  0  0  0  0
   17.8830  -23.9498   -9.6901 C   0  0  0  0  0  0  0  0  0  0  0  0
   18.1555  -23.9949   -8.2285 C   0  0  0  0  0  0  0  0  0  0  0  0
   17.9086  -25.3042   -7.5561 C   0  0  0  0  0  0  0  0  0  0  0  0
   18.3515  -25.3688   -6.2039 N   0  0  0  0  0  0  0  0  0  0  0  0
   17.8958  -22.5146  -12.8669 C   0  0  0  0  0  0  0  0  0  0  0  0
   17.6549  -21.2962  -13.4385 O   0  0  0  0  0  0  0  0  0  0  0  0
   17.3043  -23.5069  -13.3596 O   0  0  0  0  0  0  0  0  0  0  0  0
  1  2  1  0
  2  3  2  0
  4  2  1  0
  5  4  1  0
  5  6  1  6
  7  5  1  0
  7  8  2  0
  9  7  1  0
 10  9  1  0
 10 11  1  0
 11 13  1  0
 12 11  2  0
 13 14  1  0
 14 15  1  1
 15 16  1  0
 16 17  1  0
 17 18  1  0
 18 19  1  0
 20 14  1  0
 20 21  1  0
 22 20  2  0
M  END
$$$$
