NGK.pdb
     RDKit          3D

 22 21  0  0  1  0  0  0  0  0999 V2000
   18.7002  -10.5442  -14.8166 N   0  0  0  0  0  0  0  0  0  0  0  0
   19.5634   -9.5353  -14.2836 C   0  0  0  0  0  0  0  0  0  0  0  0
   20.6321   -9.2626  -14.8493 O   0  0  0  0  0  0  0  0  0  0  0  0
   19.1272   -8.8497  -13.0525 C   0  0  0  0  0  0  0  0  0  0  0  0
   17.8143   -9.3837  -12.5401 C   0  0  2  0  0  0  0  0  0  0  0  0
   16.7447   -9.0849  -13.4524 N   0  0  0  0  0  0  0  0  0  0  0  0
   17.6141   -8.8418  -11.1855 C   0  0  0  0  0  0  0  0  0  0  0  0
   18.3950   -9.2197  -10.2680 O   0  0  0  0  0  0  0  0  0  0  0  0
   16.6095   -7.9197  -10.8070 N   0  0  0  0  0  0  0  0  0  0  0  0
   16.5628   -7.3310   -9.4818 C   0  0  0  0  0  0  0  0  0  0  0  0
   15.5404   -6.2500   -9.4149 C   0  0  0  0  0  0  0  0  0  0  0  0
   15.2035   -5.6386  -10.4619 O   0  0  0  0  0  0  0  0  0  0  0  0
   14.9529   -5.9156   -8.1753 N   0  0  0  0  0  0  0  0  0  0  0  0
   13.8689   -4.9714   -8.0012 C   0  0  1  0  0  0  0  0  0  0  0  0
   13.2643   -5.1526   -6.6637 C   0  0  0  0  0  0  0  0  0  0  0  0
   11.7814   -5.2379   -6.6003 C   0  0  0  0  0  0  0  0  0  0  0  0
   11.2113   -6.5066   -6.0732 C   0  0  0  0  0  0  0  0  0  0  0  0
    9.7266   -6.5465   -5.9265 C   0  0  0  0  0  0  0  0  0  0  0  0
    9.2187   -7.7538   -5.3667 N   0  0  0  0  0  0  0  0  0  0  0  0
   14.2668   -3.5779   -8.3379 C   0  0  0  0  0  0  0  0  0  0  0  0
   13.4461   -2.6581   -8.9293 O   0  0  0  0  0  0  0  0  0  0  0  0
   15.4365   -3.2115   -8.0642 O   0  0  0  0  0  0  0  0  0  0  0  0
  1  2  1  0
  2  3  2  0
  4  2  1  0
  5  4  1  0
  5  6  1  6
  7  5  1  0
  7  8  2  0
  9  7  1  0
 10  9  1  0
 10 11  1  0
 11 13  1  0
 12 11  2  0
 13 14  1  0
 14 15  1  1
 15 16  1  0
 16 17  1  0
 17 18  1  0
 18 19  1  0
 20 14  1  0
 20 21  1  0
 22 20  2  0
M  END
$$$$
