NGK.pdb
     RDKit          3D

 22 21  0  0  1  0  0  0  0  0999 V2000
   28.3887  -18.4302  -14.9265 N   0  0  0  0  0  0  0  0  0  0  0  0
   27.6139  -19.5948  -15.2270 C   0  0  0  0  0  0  0  0  0  0  0  0
   28.0395  -20.7223  -14.9370 O   0  0  0  0  0  0  0  0  0  0  0  0
   26.3099  -19.3913  -15.8859 C   0  0  0  0  0  0  0  0  0  0  0  0
   26.0504  -17.9392  -16.1945 C   0  0  2  0  0  0  0  0  0  0  0  0
   25.8593  -17.1817  -14.9881 N   0  0  0  0  0  0  0  0  0  0  0  0
   24.9098  -17.8809  -17.1244 C   0  0  0  0  0  0  0  0  0  0  0  0
   25.0361  -18.4161  -18.2611 O   0  0  0  0  0  0  0  0  0  0  0  0
   23.6612  -17.2698  -16.8597 N   0  0  0  0  0  0  0  0  0  0  0  0
   22.8985  -17.5616  -15.6605 C   0  0  0  0  0  0  0  0  0  0  0  0
   22.0724  -18.7877  -15.8399 C   0  0  0  0  0  0  0  0  0  0  0  0
   21.2735  -18.8705  -16.8086 O   0  0  0  0  0  0  0  0  0  0  0  0
   22.1895  -19.8534  -14.9209 N   0  0  0  0  0  0  0  0  0  0  0  0
   21.4286  -21.0840  -14.9797 C   0  0  1  0  0  0  0  0  0  0  0  0
   22.3271  -22.2337  -14.7385 C   0  0  0  0  0  0  0  0  0  0  0  0
   23.4154  -22.4575  -15.7263 C   0  0  0  0  0  0  0  0  0  0  0  0
   24.2110  -23.7041  -15.5666 C   0  0  0  0  0  0  0  0  0  0  0  0
   25.3523  -23.8786  -16.5123 C   0  0  0  0  0  0  0  0  0  0  0  0
   26.1184  -25.0613  -16.3047 N   0  0  0  0  0  0  0  0  0  0  0  0
   20.2070  -21.0403  -14.1316 C   0  0  0  0  0  0  0  0  0  0  0  0
   19.1371  -21.8807  -14.2682 O   0  0  0  0  0  0  0  0  0  0  0  0
   20.1442  -20.1740  -13.2245 O   0  0  0  0  0  0  0  0  0  0  0  0
  1  2  1  0
  2  3  2  0
  4  2  1  0
  5  4  1  0
  5  6  1  1
  7  5  1  0
  7  8  2  0
  9  7  1  0
 10  9  1  0
 10 11  1  0
 11 13  1  0
 12 11  2  0
 13 14  1  0
 14 15  1  1
 15 16  1  0
 16 17  1  0
 17 18  1  0
 18 19  1  0
 20 14  1  0
 20 21  1  0
 22 20  2  0
M  END
$$$$
