QGC.pdb
     RDKit          3D

 20 19  0  0  1  0  0  0  0  0999 V2000
    9.0915  -18.9302   18.6761 N   0  0  0  0  0  0  0  0  0  0  0  0
    8.2112  -17.8758   18.3305 C   0  0  0  0  0  0  0  0  0  0  0  0
    7.7629  -17.8167   17.1676 O   0  0  0  0  0  0  0  0  0  0  0  0
    7.8367  -16.8714   19.3303 C   0  0  0  0  0  0  0  0  0  0  0  0
    8.5721  -16.9563   20.6221 C   0  0  0  0  0  0  0  0  0  0  0  0
    8.0435  -17.9723   21.5768 C   0  0  2  0  0  0  0  0  0  0  0  0
    6.6863  -18.3217   21.1263 N   0  0  0  0  0  0  0  0  0  0  0  0
    7.9447  -17.4410   22.9520 C   0  0  0  0  0  0  0  0  0  0  0  0
    8.9388  -17.0514   23.6165 O   0  0  0  0  0  0  0  0  0  0  0  0
    6.6885  -17.3425   23.6061 N   0  0  0  0  0  0  0  0  0  0  0  0
    6.5281  -16.7001   24.8954 C   0  0  0  0  0  0  0  0  0  0  0  0
    7.0741  -15.3296   24.8599 C   0  0  0  0  0  0  0  0  0  0  0  0
    7.9316  -15.0466   23.9842 O   0  0  0  0  0  0  0  0  0  0  0  0
    6.7013  -14.3012   25.7458 N   0  0  0  0  0  0  0  0  0  0  0  0
    7.5514  -13.1754   26.0738 C   0  0  1  0  0  0  0  0  0  0  0  0
    6.8106  -12.1293   26.8803 C   0  0  0  0  0  0  0  0  0  0  0  0
    5.0318  -12.5089   26.7187 S   0  0  0  0  0  0  0  0  0  0  0  0
    8.6927  -13.6253   26.8915 C   0  0  0  0  0  0  0  0  0  0  0  0
    8.6716  -14.7591   27.4052 O   0  0  0  0  0  0  0  0  0  0  0  0
    9.7700  -12.7994   27.0843 O   0  0  0  0  0  0  0  0  0  0  0  0
  2  3  2  0
  2  1  1  0
  4  2  1  0
  5  4  1  0
  6  5  1  0
  6  7  1  6
  8  6  1  0
  8 10  1  0
  9  8  2  0
 11 10  1  0
 12 11  1  0
 13 12  2  0
 14 12  1  0
 15 14  1  0
 15 16  1  1
 16 17  1  0
 18 15  1  0
 19 18  2  0
 20 18  1  0
M  END
$$$$
