QGC.pdb
     RDKit          3D

 20 19  0  0  1  0  0  0  0  0999 V2000
   11.7633  -14.6899   17.3680 N   0  0  0  0  0  0  0  0  0  0  0  0
   11.4833  -13.8280   18.4566 C   0  0  0  0  0  0  0  0  0  0  0  0
   12.4263  -13.4163   19.1622 O   0  0  0  0  0  0  0  0  0  0  0  0
   10.1021  -13.4298   18.7444 C   0  0  0  0  0  0  0  0  0  0  0  0
    9.6622  -13.6356   20.1518 C   0  0  0  0  0  0  0  0  0  0  0  0
    8.4296  -14.4600   20.3074 C   0  0  2  0  0  0  0  0  0  0  0  0
    7.3396  -13.7369   19.6322 N   0  0  0  0  0  0  0  0  0  0  0  0
    8.0533  -14.6308   21.7260 C   0  0  0  0  0  0  0  0  0  0  0  0
    7.2335  -13.8843   22.3193 O   0  0  0  0  0  0  0  0  0  0  0  0
    8.6149  -15.6746   22.5077 N   0  0  0  0  0  0  0  0  0  0  0  0
    8.1998  -15.9386   23.8710 C   0  0  0  0  0  0  0  0  0  0  0  0
    9.2616  -15.5473   24.8181 C   0  0  0  0  0  0  0  0  0  0  0  0
   10.4440  -15.9014   24.5755 O   0  0  0  0  0  0  0  0  0  0  0  0
    9.0464  -14.7966   25.9893 N   0  0  0  0  0  0  0  0  0  0  0  0
   10.0852  -14.4936   26.9520 C   0  0  1  0  0  0  0  0  0  0  0  0
    9.8077  -13.1995   27.6881 C   0  0  0  0  0  0  0  0  0  0  0  0
    7.9924  -13.0551   27.8233 S   0  0  0  0  0  0  0  0  0  0  0  0
   10.1616  -15.5613   27.9659 C   0  0  0  0  0  0  0  0  0  0  0  0
    9.2749  -16.4342   28.0072 O   0  0  0  0  0  0  0  0  0  0  0  0
   11.2031  -15.5916   28.8571 O   0  0  0  0  0  0  0  0  0  0  0  0
  2  3  2  0
  2  1  1  0
  4  2  1  0
  5  4  1  0
  6  5  1  0
  6  7  1  6
  8  6  1  0
  8 10  1  0
  9  8  2  0
 11 10  1  0
 12 11  1  0
 13 12  2  0
 14 12  1  0
 15 14  1  0
 15 16  1  1
 16 17  1  0
 18 15  1  0
 19 18  2  0
 20 18  1  0
M  END
$$$$
