QGC.pdb
     RDKit          3D

 20 19  0  0  1  0  0  0  0  0999 V2000
    7.9642  -12.6428   17.8581 N   0  0  0  0  0  0  0  0  0  0  0  0
    7.8926  -13.9828   17.4047 C   0  0  0  0  0  0  0  0  0  0  0  0
    7.0403  -14.2877   16.5460 O   0  0  0  0  0  0  0  0  0  0  0  0
    8.8101  -14.9921   17.9418 C   0  0  0  0  0  0  0  0  0  0  0  0
    9.7882  -14.4907   18.9461 C   0  0  0  0  0  0  0  0  0  0  0  0
    9.8036  -15.2428   20.2334 C   0  0  2  0  0  0  0  0  0  0  0  0
    9.3076  -16.5987   19.9461 N   0  0  0  0  0  0  0  0  0  0  0  0
    8.9101  -14.6344   21.2408 C   0  0  0  0  0  0  0  0  0  0  0  0
    8.9916  -13.4327   21.6025 O   0  0  0  0  0  0  0  0  0  0  0  0
    7.8894  -15.3986   21.8651 N   0  0  0  0  0  0  0  0  0  0  0  0
    6.9126  -14.8121   22.7609 C   0  0  0  0  0  0  0  0  0  0  0  0
    7.5557  -14.3912   24.0206 C   0  0  0  0  0  0  0  0  0  0  0  0
    8.7224  -14.7939   24.2639 O   0  0  0  0  0  0  0  0  0  0  0  0
    6.9520  -13.5607   24.9837 N   0  0  0  0  0  0  0  0  0  0  0  0
    7.5576  -13.2371   26.2590 C   0  0  1  0  0  0  0  0  0  0  0  0
    6.5869  -12.5221   27.1755 C   0  0  0  0  0  0  0  0  0  0  0  0
    5.9374  -11.0963   26.2375 S   0  0  0  0  0  0  0  0  0  0  0  0
    7.9750  -14.4719   26.9480 C   0  0  0  0  0  0  0  0  0  0  0  0
    8.7142  -14.3985   27.9469 O   0  0  0  0  0  0  0  0  0  0  0  0
    7.5510  -15.6930   26.4904 O   0  0  0  0  0  0  0  0  0  0  0  0
  2  3  2  0
  2  1  1  0
  4  2  1  0
  5  4  1  0
  6  5  1  0
  6  7  1  6
  8  6  1  0
  8 10  1  0
  9  8  2  0
 11 10  1  0
 12 11  1  0
 13 12  2  0
 14 12  1  0
 15 14  1  0
 15 16  1  1
 16 17  1  0
 18 15  1  0
 19 18  2  0
 20 18  1  0
M  END
$$$$
