QGC.pdb
     RDKit          3D

 20 19  0  0  1  0  0  0  0  0999 V2000
    9.0654  -13.6959   18.0368 N   0  0  0  0  0  0  0  0  0  0  0  0
    7.6581  -13.6606   18.1936 C   0  0  0  0  0  0  0  0  0  0  0  0
    6.9341  -13.6824   17.1777 O   0  0  0  0  0  0  0  0  0  0  0  0
    7.0677  -13.5990   19.5339 C   0  0  0  0  0  0  0  0  0  0  0  0
    8.0224  -13.8019   20.6583 C   0  0  0  0  0  0  0  0  0  0  0  0
    8.4877  -15.2071   20.8373 C   0  0  2  0  0  0  0  0  0  0  0  0
    7.3470  -15.9751   21.3626 N   0  0  0  0  0  0  0  0  0  0  0  0
    9.5916  -15.3044   21.8146 C   0  0  0  0  0  0  0  0  0  0  0  0
   10.6862  -14.6989   21.6849 O   0  0  0  0  0  0  0  0  0  0  0  0
    9.4654  -16.1082   22.9781 N   0  0  0  0  0  0  0  0  0  0  0  0
   10.6017  -16.4785   23.7979 C   0  0  0  0  0  0  0  0  0  0  0  0
   10.6563  -15.6413   25.0119 C   0  0  0  0  0  0  0  0  0  0  0  0
   11.7198  -15.6249   25.6836 O   0  0  0  0  0  0  0  0  0  0  0  0
    9.5916  -14.8487   25.4806 N   0  0  0  0  0  0  0  0  0  0  0  0
    9.5951  -14.1749   26.7627 C   0  0  1  0  0  0  0  0  0  0  0  0
    8.3245  -13.3806   26.9823 C   0  0  0  0  0  0  0  0  0  0  0  0
    8.2007  -12.2000   25.5946 S   0  0  0  0  0  0  0  0  0  0  0  0
    9.6822  -15.1636   27.8529 C   0  0  0  0  0  0  0  0  0  0  0  0
    9.4850  -16.3681   27.6076 O   0  0  0  0  0  0  0  0  0  0  0  0
    9.9786  -14.7579   29.1287 O   0  0  0  0  0  0  0  0  0  0  0  0
  2  3  2  0
  2  1  1  0
  4  2  1  0
  5  4  1  0
  6  5  1  0
  6  7  1  1
  8  6  1  0
  8 10  1  0
  9  8  2  0
 11 10  1  0
 12 11  1  0
 13 12  2  0
 14 12  1  0
 15 14  1  0
 15 16  1  1
 16 17  1  0
 18 15  1  0
 19 18  2  0
 20 18  1  0
M  END
$$$$
