QGC.pdb
     RDKit          3D

 20 19  0  0  1  0  0  0  0  0999 V2000
   13.2638  -18.7590   22.4131 N   0  0  0  0  0  0  0  0  0  0  0  0
   13.0005  -18.2976   21.1001 C   0  0  0  0  0  0  0  0  0  0  0  0
   13.9171  -18.3209   20.2539 O   0  0  0  0  0  0  0  0  0  0  0  0
   11.6671  -17.8008   20.7475 C   0  0  0  0  0  0  0  0  0  0  0  0
   10.6804  -17.7845   21.8623 C   0  0  0  0  0  0  0  0  0  0  0  0
    9.2549  -17.8857   21.4370 C   0  0  2  0  0  0  0  0  0  0  0  0
    9.1161  -17.0947   20.2034 N   0  0  0  0  0  0  0  0  0  0  0  0
    8.3347  -17.3218   22.4462 C   0  0  0  0  0  0  0  0  0  0  0  0
    8.0980  -17.8728   23.5516 O   0  0  0  0  0  0  0  0  0  0  0  0
    7.6557  -16.0977   22.2091 N   0  0  0  0  0  0  0  0  0  0  0  0
    6.7961  -15.4779   23.1978 C   0  0  0  0  0  0  0  0  0  0  0  0
    7.5986  -14.7128   24.1717 C   0  0  0  0  0  0  0  0  0  0  0  0
    8.8498  -14.7010   24.0423 O   0  0  0  0  0  0  0  0  0  0  0  0
    7.0603  -13.9852   25.2497 N   0  0  0  0  0  0  0  0  0  0  0  0
    7.8578  -13.1911   26.1615 C   0  0  1  0  0  0  0  0  0  0  0  0
    6.9935  -12.3282   27.0570 C   0  0  0  0  0  0  0  0  0  0  0  0
    5.6908  -11.6147   25.9947 S   0  0  0  0  0  0  0  0  0  0  0  0
    8.6482  -14.0724   27.0403 C   0  0  0  0  0  0  0  0  0  0  0  0
    8.3986  -15.2916   27.0734 O   0  0  0  0  0  0  0  0  0  0  0  0
    9.6518  -13.5513   27.8157 O   0  0  0  0  0  0  0  0  0  0  0  0
  2  3  2  0
  2  1  1  0
  4  2  1  0
  5  4  1  0
  6  5  1  0
  6  7  1  6
  8  6  1  0
  8 10  1  0
  9  8  2  0
 11 10  1  0
 12 11  1  0
 13 12  2  0
 14 12  1  0
 15 14  1  0
 15 16  1  1
 16 17  1  0
 18 15  1  0
 19 18  2  0
 20 18  1  0
M  END
$$$$
