QGC.pdb
     RDKit          3D

 20 19  0  0  1  0  0  0  0  0999 V2000
    7.5218  -18.5912   27.2905 N   0  0  0  0  0  0  0  0  0  0  0  0
    7.6169  -20.0013   27.1967 C   0  0  0  0  0  0  0  0  0  0  0  0
    8.0885  -20.6425   28.1575 O   0  0  0  0  0  0  0  0  0  0  0  0
    7.1658  -20.6909   25.9842 C   0  0  0  0  0  0  0  0  0  0  0  0
    6.4999  -19.8255   24.9721 C   0  0  0  0  0  0  0  0  0  0  0  0
    7.4101  -19.2653   23.9325 C   0  0  2  0  0  0  0  0  0  0  0  0
    8.6331  -18.8242   24.6230 N   0  0  0  0  0  0  0  0  0  0  0  0
    6.8208  -18.0921   23.2548 C   0  0  0  0  0  0  0  0  0  0  0  0
    5.9546  -18.1797   22.3473 O   0  0  0  0  0  0  0  0  0  0  0  0
    7.2154  -16.7741   23.6057 N   0  0  0  0  0  0  0  0  0  0  0  0
    6.7119  -15.6002   22.9208 C   0  0  0  0  0  0  0  0  0  0  0  0
    7.1359  -14.3729   23.6219 C   0  0  0  0  0  0  0  0  0  0  0  0
    7.7499  -13.4897   22.9698 O   0  0  0  0  0  0  0  0  0  0  0  0
    6.9009  -14.1136   24.9854 N   0  0  0  0  0  0  0  0  0  0  0  0
    7.8461  -13.4370   25.8494 C   0  0  1  0  0  0  0  0  0  0  0  0
    7.1464  -12.6264   26.9203 C   0  0  0  0  0  0  0  0  0  0  0  0
    5.5186  -12.1564   26.2391 S   0  0  0  0  0  0  0  0  0  0  0  0
    8.6965  -14.4243   26.5392 C   0  0  0  0  0  0  0  0  0  0  0  0
    8.4225  -15.6359   26.4565 O   0  0  0  0  0  0  0  0  0  0  0  0
    9.7821  -14.0094   27.2668 O   0  0  0  0  0  0  0  0  0  0  0  0
  2  3  2  0
  2  1  1  0
  4  2  1  0
  5  4  1  0
  6  5  1  0
  6  7  1  1
  8  6  1  0
  8 10  1  0
  9  8  2  0
 11 10  1  0
 12 11  1  0
 13 12  2  0
 14 12  1  0
 15 14  1  0
 15 16  1  1
 16 17  1  0
 18 15  1  0
 19 18  2  0
 20 18  1  0
M  END
$$$$
