QGC.pdb
     RDKit          3D

 20 19  0  0  1  0  0  0  0  0999 V2000
    0.0260  -28.8838   26.4461 N   0  0  0  0  0  0  0  0  0  0  0  0
   -0.4653  -29.2898   27.7109 C   0  0  0  0  0  0  0  0  0  0  0  0
   -0.4972  -30.5062   27.9871 O   0  0  0  0  0  0  0  0  0  0  0  0
   -0.9287  -28.2893   28.6770 C   0  0  0  0  0  0  0  0  0  0  0  0
   -0.9433  -26.8859   28.1799 C   0  0  0  0  0  0  0  0  0  0  0  0
   -1.4844  -25.8864   29.1450 C   0  0  2  0  0  0  0  0  0  0  0  0
   -1.3544  -26.4716   30.4895 N   0  0  0  0  0  0  0  0  0  0  0  0
   -2.9151  -25.6050   28.9066 C   0  0  0  0  0  0  0  0  0  0  0  0
   -3.3329  -24.9074   27.9472 O   0  0  0  0  0  0  0  0  0  0  0  0
   -3.9134  -26.1230   29.7732 N   0  0  0  0  0  0  0  0  0  0  0  0
   -5.3302  -25.9990   29.4939 C   0  0  0  0  0  0  0  0  0  0  0  0
   -5.8590  -24.7425   30.0590 C   0  0  0  0  0  0  0  0  0  0  0  0
   -5.7289  -24.5368   31.2932 O   0  0  0  0  0  0  0  0  0  0  0  0
   -6.5072  -23.7432   29.3089 N   0  0  0  0  0  0  0  0  0  0  0  0
   -7.0385  -22.5245   29.8834 C   0  0  1  0  0  0  0  0  0  0  0  0
   -6.7706  -21.3244   28.9994 C   0  0  0  0  0  0  0  0  0  0  0  0
   -4.9571  -21.1220   28.9297 S   0  0  0  0  0  0  0  0  0  0  0  0
   -8.5010  -22.6332   30.0354 C   0  0  0  0  0  0  0  0  0  0  0  0
   -9.1072  -23.5743   29.4907 O   0  0  0  0  0  0  0  0  0  0  0  0
   -9.1880  -21.7031   30.7722 O   0  0  0  0  0  0  0  0  0  0  0  0
  2  3  2  0
  2  1  1  0
  4  2  1  0
  5  4  1  0
  6  5  1  0
  6  7  1  1
  8  6  1  0
  8 10  1  0
  9  8  2  0
 11 10  1  0
 12 11  1  0
 13 12  2  0
 14 12  1  0
 15 14  1  0
 15 16  1  6
 16 17  1  0
 18 15  1  0
 19 18  2  0
 20 18  1  0
M  END
$$$$
