QGC.pdb
     RDKit          3D

 20 19  0  0  1  0  0  0  0  0999 V2000
    2.0794  -19.1349   20.1147 N   0  0  0  0  0  0  0  0  0  0  0  0
    2.3312  -19.5485   21.4457 C   0  0  0  0  0  0  0  0  0  0  0  0
    1.3929  -20.0134   22.1241 O   0  0  0  0  0  0  0  0  0  0  0  0
    3.6781  -19.4287   22.0119 C   0  0  0  0  0  0  0  0  0  0  0  0
    4.6802  -18.7669   21.1318 C   0  0  0  0  0  0  0  0  0  0  0  0
    5.9903  -19.4723   21.0355 C   0  0  2  0  0  0  0  0  0  0  0  0
    6.3189  -19.9570   22.3861 N   0  0  0  0  0  0  0  0  0  0  0  0
    7.0748  -18.5686   20.5990 C   0  0  0  0  0  0  0  0  0  0  0  0
    7.0231  -17.8837   19.5456 O   0  0  0  0  0  0  0  0  0  0  0  0
    8.2589  -18.4270   21.3694 N   0  0  0  0  0  0  0  0  0  0  0  0
    9.3456  -17.5522   20.9765 C   0  0  0  0  0  0  0  0  0  0  0  0
    9.6019  -16.5457   22.0249 C   0  0  0  0  0  0  0  0  0  0  0  0
   10.5460  -15.7312   21.8584 O   0  0  0  0  0  0  0  0  0  0  0  0
    8.8578  -16.4279   23.2140 N   0  0  0  0  0  0  0  0  0  0  0  0
    9.3600  -15.7973   24.4173 C   0  0  1  0  0  0  0  0  0  0  0  0
    8.4582  -14.6717   24.8790 C   0  0  0  0  0  0  0  0  0  0  0  0
    6.8409  -15.4251   25.2682 S   0  0  0  0  0  0  0  0  0  0  0  0
    9.4230  -16.7803   25.5143 C   0  0  0  0  0  0  0  0  0  0  0  0
    8.8164  -17.8621   25.4059 O   0  0  0  0  0  0  0  0  0  0  0  0
   10.1453  -16.5037   26.6464 O   0  0  0  0  0  0  0  0  0  0  0  0
  2  3  2  0
  2  1  1  0
  4  2  1  0
  5  4  1  0
  6  5  1  0
  6  7  1  1
  8  6  1  0
  8 10  1  0
  9  8  2  0
 11 10  1  0
 12 11  1  0
 13 12  2  0
 14 12  1  0
 15 14  1  0
 15 16  1  1
 16 17  1  0
 18 15  1  0
 19 18  2  0
 20 18  1  0
M  END
$$$$
