QGC.pdb
     RDKit          3D

 20 19  0  0  1  0  0  0  0  0999 V2000
    4.7566  -20.3494   22.3471 N   0  0  0  0  0  0  0  0  0  0  0  0
    5.5542  -20.8113   23.4226 C   0  0  0  0  0  0  0  0  0  0  0  0
    5.0299  -21.5198   24.3057 O   0  0  0  0  0  0  0  0  0  0  0  0
    6.9751  -20.4575   23.4907 C   0  0  0  0  0  0  0  0  0  0  0  0
    7.4826  -19.6453   22.3508 C   0  0  0  0  0  0  0  0  0  0  0  0
    8.2938  -18.4570   22.7420 C   0  0  2  0  0  0  0  0  0  0  0  0
    7.9740  -18.1611   24.1481 N   0  0  0  0  0  0  0  0  0  0  0  0
    7.9544  -17.2656   21.9367 C   0  0  0  0  0  0  0  0  0  0  0  0
    8.3049  -17.1176   20.7380 O   0  0  0  0  0  0  0  0  0  0  0  0
    7.1958  -16.2024   22.4933 N   0  0  0  0  0  0  0  0  0  0  0  0
    7.2583  -14.8478   21.9818 C   0  0  0  0  0  0  0  0  0  0  0  0
    7.4024  -13.8843   23.0902 C   0  0  0  0  0  0  0  0  0  0  0  0
    7.6093  -12.6750   22.8125 O   0  0  0  0  0  0  0  0  0  0  0  0
    7.3244  -14.2229   24.4543 N   0  0  0  0  0  0  0  0  0  0  0  0
    7.5227  -13.2742   25.5306 C   0  0  1  0  0  0  0  0  0  0  0  0
    6.2151  -12.8998   26.1964 C   0  0  0  0  0  0  0  0  0  0  0  0
    6.6240  -11.7024   27.5131 S   0  0  0  0  0  0  0  0  0  0  0  0
    8.3858  -13.8632   26.5707 C   0  0  0  0  0  0  0  0  0  0  0  0
    8.6368  -15.0822   26.5433 O   0  0  0  0  0  0  0  0  0  0  0  0
    8.9081  -13.0723   27.5615 O   0  0  0  0  0  0  0  0  0  0  0  0
  2  3  2  0
  2  1  1  0
  4  2  1  0
  5  4  1  0
  6  5  1  0
  6  7  1  1
  8  6  1  0
  8 10  1  0
  9  8  2  0
 11 10  1  0
 12 11  1  0
 13 12  2  0
 14 12  1  0
 15 14  1  0
 15 16  1  1
 16 17  1  0
 18 15  1  0
 19 18  2  0
 20 18  1  0
M  END
$$$$
