QGC.pdb
     RDKit          3D

 20 19  0  0  1  0  0  0  0  0999 V2000
    6.8914  -13.1283   18.9598 N   0  0  0  0  0  0  0  0  0  0  0  0
    8.1480  -13.7800   18.9131 C   0  0  0  0  0  0  0  0  0  0  0  0
    8.7370  -13.8839   17.8181 O   0  0  0  0  0  0  0  0  0  0  0  0
    8.7421  -14.3229   20.1384 C   0  0  0  0  0  0  0  0  0  0  0  0
    8.9819  -15.7923   20.1308 C   0  0  0  0  0  0  0  0  0  0  0  0
    7.8284  -16.6164   20.5928 C   0  0  2  0  0  0  0  0  0  0  0  0
    6.6068  -15.8464   20.3069 N   0  0  0  0  0  0  0  0  0  0  0  0
    7.8771  -16.8706   22.0475 C   0  0  0  0  0  0  0  0  0  0  0  0
    8.8045  -17.5089   22.6080 O   0  0  0  0  0  0  0  0  0  0  0  0
    6.8511  -16.3930   22.9049 N   0  0  0  0  0  0  0  0  0  0  0  0
    6.8703  -16.6053   24.3385 C   0  0  0  0  0  0  0  0  0  0  0  0
    7.6643  -15.5547   25.0046 C   0  0  0  0  0  0  0  0  0  0  0  0
    8.8189  -15.3078   24.5708 O   0  0  0  0  0  0  0  0  0  0  0  0
    7.2190  -14.7978   26.1048 N   0  0  0  0  0  0  0  0  0  0  0  0
    7.9955  -13.7417   26.7208 C   0  0  1  0  0  0  0  0  0  0  0  0
    7.1163  -12.7651   27.4737 C   0  0  0  0  0  0  0  0  0  0  0  0
    5.7060  -12.3817   26.3790 S   0  0  0  0  0  0  0  0  0  0  0  0
    8.9421  -14.3135   27.6958 C   0  0  0  0  0  0  0  0  0  0  0  0
    8.9168  -15.5353   27.9333 O   0  0  0  0  0  0  0  0  0  0  0  0
    9.8443  -13.5037   28.3364 O   0  0  0  0  0  0  0  0  0  0  0  0
  2  3  2  0
  2  1  1  0
  4  2  1  0
  5  4  1  0
  6  5  1  0
  6  7  1  1
  8  6  1  0
  8 10  1  0
  9  8  2  0
 11 10  1  0
 12 11  1  0
 13 12  2  0
 14 12  1  0
 15 14  1  0
 15 16  1  1
 16 17  1  0
 18 15  1  0
 19 18  2  0
 20 18  1  0
M  END
$$$$
