FLW.pdb
     RDKit          3D

 34 36  0  0  1  0  0  0  0  0999 V2000
   28.1717  -21.1126  -15.0374 N   0  0  0  0  0  0  0  0  0  0  0  0
   27.2728  -20.1788  -14.3648 C   0  0  1  0  0  0  0  0  0  0  0  0
   26.5176  -19.4014  -15.4186 C   0  0  0  0  0  0  0  0  0  0  0  0
   27.3472  -18.4631  -16.1832 C   0  0  0  0  0  0  0  0  0  0  0  0
   27.7246  -17.2527  -15.5988 C   0  0  0  0  0  0  0  0  0  0  0  0
   28.5015  -16.3628  -16.2956 C   0  0  0  0  0  0  0  0  0  0  0  0
   28.9036  -16.6683  -17.5650 C   0  0  0  0  0  0  0  0  0  0  0  0
   28.5557  -17.8469  -18.1785 C   0  0  0  0  0  0  0  0  0  0  0  0
   27.7722  -18.7335  -17.4631 C   0  0  0  0  0  0  0  0  0  0  0  0
   26.3662  -20.8825  -13.4495 C   0  0  0  0  0  0  0  0  0  0  0  0
   26.0798  -22.0882  -13.6528 O   0  0  0  0  0  0  0  0  0  0  0  0
   26.7103  -19.6032   -8.2309 C   0  0  0  0  0  0  0  0  0  0  0  0
   26.5230  -20.1846   -9.5958 C   0  0  1  0  0  0  0  0  0  0  0  0
   27.2081  -21.5652   -9.5654 C   0  0  0  0  0  0  0  0  0  0  0  0
   25.1126  -20.4311   -9.9904 C   0  0  0  0  0  0  0  0  0  0  0  0
   24.9058  -20.9274  -11.3722 C   0  0  2  0  0  0  0  0  0  0  0  0
   25.7784  -20.2606  -12.3169 N   0  0  0  0  0  0  0  0  0  0  0  0
   23.5195  -20.8670  -11.8554 C   0  0  0  0  0  0  0  0  0  0  0  0
   22.5993  -21.3922  -11.1726 O   0  0  0  0  0  0  0  0  0  0  0  0
   23.1950  -20.2313  -13.0732 N   0  0  0  0  0  0  0  0  0  0  0  0
   21.7850  -20.2000  -13.4823 C   0  0  1  0  0  0  0  0  0  0  0  0
   21.6350  -19.2796  -14.6528 C   0  0  0  0  0  0  0  0  0  0  0  0
   20.3061  -19.1828  -15.2201 C   0  0  0  0  0  0  0  0  0  0  0  0
   19.1466  -18.8137  -14.5133 C   0  0  0  0  0  0  0  0  0  0  0  0
   18.0837  -18.8646  -15.3286 N   0  0  0  0  0  0  0  0  0  0  0  0
   18.5297  -19.2590  -16.5551 C   0  0  0  0  0  0  0  0  0  0  0  0
   17.8252  -19.4449  -17.7364 C   0  0  0  0  0  0  0  0  0  0  0  0
   18.4720  -19.8303  -18.8835 C   0  0  0  0  0  0  0  0  0  0  0  0
   19.8472  -20.0332  -18.8471 C   0  0  0  0  0  0  0  0  0  0  0  0
   20.5388  -19.8483  -17.6745 C   0  0  0  0  0  0  0  0  0  0  0  0
   19.8902  -19.4586  -16.5078 C   0  0  0  0  0  0  0  0  0  0  0  0
   21.3358  -21.5636  -13.7761 C   0  0  0  0  0  0  0  0  0  0  0  0
   22.2473  -22.4562  -14.3617 O   0  0  0  0  0  0  0  0  0  0  0  0
   20.1931  -22.0223  -13.5514 O   0  0  0  0  0  0  0  0  0  0  0  0
  2  1  1  6
  3  2  1  0
  3  4  1  0
  4  5  2  0
  5  6  1  0
  7  6  2  0
  8  7  1  0
  9  8  2  0
  9  4  1  0
 10 11  2  0
 10  2  1  0
 13 14  1  1
 13 12  1  0
 15 13  1  0
 16 15  1  1
 16 17  1  0
 17 10  1  0
 18 16  1  0
 19 18  2  0
 20 18  1  0
 21 22  1  6
 21 20  1  0
 22 23  1  0
 23 31  1  0
 23 24  2  0
 24 25  1  0
 26 25  1  0
 26 27  2  0
 28 27  1  0
 29 28  2  0
 30 31  2  0
 30 29  1  0
 31 26  1  0
 32 21  1  0
 33 32  1  0
 34 32  2  0
M  END
$$$$
