FLW.pdb
     RDKit          3D

 34 36  0  0  1  0  0  0  0  0999 V2000
   30.3242  -18.3520  -17.4810 N   0  0  0  0  0  0  0  0  0  0  0  0
   29.1338  -18.2908  -16.6375 C   0  0  1  0  0  0  0  0  0  0  0  0
   28.5045  -16.9259  -16.7992 C   0  0  0  0  0  0  0  0  0  0  0  0
   27.3221  -16.7057  -15.9586 C   0  0  0  0  0  0  0  0  0  0  0  0
   26.9688  -17.6687  -15.0115 C   0  0  0  0  0  0  0  0  0  0  0  0
   25.8685  -17.4812  -14.2145 C   0  0  0  0  0  0  0  0  0  0  0  0
   25.1206  -16.3465  -14.3531 C   0  0  0  0  0  0  0  0  0  0  0  0
   25.4315  -15.3736  -15.2715 C   0  0  0  0  0  0  0  0  0  0  0  0
   26.5435  -15.5772  -16.0676 C   0  0  0  0  0  0  0  0  0  0  0  0
   28.1942  -19.3690  -16.9685 C   0  0  0  0  0  0  0  0  0  0  0  0
   27.5505  -19.3324  -18.0462 O   0  0  0  0  0  0  0  0  0  0  0  0
   29.2210  -24.4322  -15.9263 C   0  0  0  0  0  0  0  0  0  0  0  0
   29.1308  -23.0527  -16.4960 C   0  0  1  0  0  0  0  0  0  0  0  0
   30.1509  -23.0040  -17.6507 C   0  0  0  0  0  0  0  0  0  0  0  0
   27.8165  -22.6980  -17.0897 C   0  0  0  0  0  0  0  0  0  0  0  0
   27.0868  -21.5898  -16.4281 C   0  0  2  0  0  0  0  0  0  0  0  0
   27.9653  -20.4810  -16.1163 N   0  0  0  0  0  0  0  0  0  0  0  0
   26.3298  -21.9706  -15.2278 C   0  0  0  0  0  0  0  0  0  0  0  0
   26.2830  -23.1812  -14.8800 O   0  0  0  0  0  0  0  0  0  0  0  0
   25.6506  -21.0057  -14.4530 N   0  0  0  0  0  0  0  0  0  0  0  0
   24.8738  -21.4701  -13.2965 C   0  0  1  0  0  0  0  0  0  0  0  0
   25.7891  -22.1688  -12.3405 C   0  0  0  0  0  0  0  0  0  0  0  0
   26.3353  -21.3563  -11.2734 C   0  0  0  0  0  0  0  0  0  0  0  0
   25.5837  -20.5376  -10.4103 C   0  0  0  0  0  0  0  0  0  0  0  0
   26.4040  -19.8948   -9.5672 N   0  0  0  0  0  0  0  0  0  0  0  0
   27.6774  -20.2809   -9.8642 C   0  0  0  0  0  0  0  0  0  0  0  0
   28.8763  -19.9133   -9.2694 C   0  0  0  0  0  0  0  0  0  0  0  0
   30.0654  -20.4381   -9.7092 C   0  0  0  0  0  0  0  0  0  0  0  0
   30.0538  -21.3461  -10.7623 C   0  0  0  0  0  0  0  0  0  0  0  0
   28.8639  -21.7054  -11.3475 C   0  0  0  0  0  0  0  0  0  0  0  0
   27.6549  -21.1773  -10.9079 C   0  0  0  0  0  0  0  0  0  0  0  0
   24.1854  -20.3294  -12.6863 C   0  0  0  0  0  0  0  0  0  0  0  0
   23.1556  -20.5838  -11.7669 O   0  0  0  0  0  0  0  0  0  0  0  0
   24.4302  -19.1222  -12.9087 O   0  0  0  0  0  0  0  0  0  0  0  0
  2  1  1  6
  3  2  1  0
  3  4  1  0
  4  5  2  0
  5  6  1  0
  7  6  2  0
  8  7  1  0
  9  8  2  0
  9  4  1  0
 10 11  2  0
 10  2  1  0
 13 14  1  6
 13 12  1  0
 15 13  1  0
 16 15  1  1
 16 17  1  0
 17 10  1  0
 18 16  1  0
 19 18  2  0
 20 18  1  0
 21 22  1  1
 21 20  1  0
 22 23  1  0
 23 31  1  0
 23 24  2  0
 24 25  1  0
 26 25  1  0
 26 27  2  0
 28 27  1  0
 29 28  2  0
 30 31  2  0
 30 29  1  0
 31 26  1  0
 32 21  1  0
 33 32  1  0
 34 32  2  0
M  END
$$$$
