FLW.pdb
     RDKit          3D

 34 36  0  0  1  0  0  0  0  0999 V2000
   21.0131  -20.6414  -13.6735 N   0  0  0  0  0  0  0  0  0  0  0  0
   22.1157  -19.7815  -13.2525 C   0  0  1  0  0  0  0  0  0  0  0  0
   21.6434  -18.9338  -12.0935 C   0  0  0  0  0  0  0  0  0  0  0  0
   20.5893  -17.9740  -12.4412 C   0  0  0  0  0  0  0  0  0  0  0  0
   19.3955  -17.9790  -11.7174 C   0  0  0  0  0  0  0  0  0  0  0  0
   18.3984  -17.0889  -12.0250 C   0  0  0  0  0  0  0  0  0  0  0  0
   18.5809  -16.1973  -13.0440 C   0  0  0  0  0  0  0  0  0  0  0  0
   19.7386  -16.1573  -13.7819 C   0  0  0  0  0  0  0  0  0  0  0  0
   20.7343  -17.0610  -13.4597 C   0  0  0  0  0  0  0  0  0  0  0  0
   23.3014  -20.5734  -12.9034 C   0  0  0  0  0  0  0  0  0  0  0  0
   23.2242  -21.4652  -12.0225 O   0  0  0  0  0  0  0  0  0  0  0  0
   25.7005  -22.7904  -15.7937 C   0  0  0  0  0  0  0  0  0  0  0  0
   26.9059  -22.3674  -15.0166 C   0  0  1  0  0  0  0  0  0  0  0  0
   28.0189  -22.1315  -16.0568 C   0  0  0  0  0  0  0  0  0  0  0  0
   26.7614  -21.0924  -14.2689 C   0  0  0  0  0  0  0  0  0  0  0  0
   25.7723  -21.0999  -13.1643 C   0  0  2  0  0  0  0  0  0  0  0  0
   24.5651  -20.3833  -13.5216 N   0  0  0  0  0  0  0  0  0  0  0  0
   26.2742  -20.6063  -11.8746 C   0  0  0  0  0  0  0  0  0  0  0  0
   25.8755  -19.4936  -11.4366 O   0  0  0  0  0  0  0  0  0  0  0  0
   27.1976  -21.3543  -11.1129 N   0  0  0  0  0  0  0  0  0  0  0  0
   27.8096  -20.7116   -9.9428 C   0  0  1  0  0  0  0  0  0  0  0  0
   26.7652  -20.5178   -8.8885 C   0  0  0  0  0  0  0  0  0  0  0  0
   27.1724  -19.7649   -7.7204 C   0  0  0  0  0  0  0  0  0  0  0  0
   27.0194  -18.3758   -7.5560 C   0  0  0  0  0  0  0  0  0  0  0  0
   27.5379  -17.9992   -6.3785 N   0  0  0  0  0  0  0  0  0  0  0  0
   28.0251  -19.1185   -5.7713 C   0  0  0  0  0  0  0  0  0  0  0  0
   28.6401  -19.2595   -4.5352 C   0  0  0  0  0  0  0  0  0  0  0  0
   29.0450  -20.4933   -4.0918 C   0  0  0  0  0  0  0  0  0  0  0  0
   28.8306  -21.6045   -4.8998 C   0  0  0  0  0  0  0  0  0  0  0  0
   28.2220  -21.4583   -6.1228 C   0  0  0  0  0  0  0  0  0  0  0  0
   27.8096  -20.2111   -6.5793 C   0  0  0  0  0  0  0  0  0  0  0  0
   28.9362  -21.5252   -9.4776 C   0  0  0  0  0  0  0  0  0  0  0  0
   29.7348  -21.0278   -8.4359 O   0  0  0  0  0  0  0  0  0  0  0  0
   29.2648  -22.6460   -9.9277 O   0  0  0  0  0  0  0  0  0  0  0  0
  2  1  1  1
  3  2  1  0
  3  4  1  0
  4  5  2  0
  5  6  1  0
  7  6  2  0
  8  7  1  0
  9  8  2  0
  9  4  1  0
 10 11  2  0
 10  2  1  0
 13 14  1  6
 13 12  1  0
 15 13  1  0
 16 15  1  6
 16 17  1  0
 17 10  1  0
 18 16  1  0
 19 18  2  0
 20 18  1  0
 21 22  1  1
 21 20  1  0
 22 23  1  0
 23 31  1  0
 23 24  2  0
 24 25  1  0
 26 25  1  0
 26 27  2  0
 28 27  1  0
 29 28  2  0
 30 31  2  0
 30 29  1  0
 31 26  1  0
 32 21  1  0
 33 32  1  0
 34 32  2  0
M  END
$$$$
