FLW.pdb
     RDKit          3D

 34 36  0  0  1  0  0  0  0  0999 V2000
   17.5382  -28.9827  -10.2542 N   0  0  0  0  0  0  0  0  0  0  0  0
   18.5404  -28.8500   -9.2004 C   0  0  1  0  0  0  0  0  0  0  0  0
   19.1829  -27.4871   -9.3224 C   0  0  0  0  0  0  0  0  0  0  0  0
   19.8624  -27.2553  -10.6021 C   0  0  0  0  0  0  0  0  0  0  0  0
   19.4476  -26.1978  -11.4137 C   0  0  0  0  0  0  0  0  0  0  0  0
   20.0709  -25.9628  -12.6127 C   0  0  0  0  0  0  0  0  0  0  0  0
   21.1000  -26.7699  -13.0076 C   0  0  0  0  0  0  0  0  0  0  0  0
   21.5403  -27.8210  -12.2410 C   0  0  0  0  0  0  0  0  0  0  0  0
   20.9020  -28.0451  -11.0352 C   0  0  0  0  0  0  0  0  0  0  0  0
   17.9456  -29.0576   -7.8746 C   0  0  0  0  0  0  0  0  0  0  0  0
   16.6968  -29.0855   -7.7437 O   0  0  0  0  0  0  0  0  0  0  0  0
   19.3020  -32.9250   -3.5585 C   0  0  0  0  0  0  0  0  0  0  0  0
   18.2992  -32.1797   -4.3798 C   0  0  1  0  0  0  0  0  0  0  0  0
   17.5466  -31.2605   -3.3975 C   0  0  0  0  0  0  0  0  0  0  0  0
   18.8709  -31.2907   -5.4231 C   0  0  0  0  0  0  0  0  0  0  0  0
   18.2754  -29.9359   -5.5145 C   0  0  2  0  0  0  0  0  0  0  0  0
   18.7227  -29.2332   -6.6997 N   0  0  0  0  0  0  0  0  0  0  0  0
   18.4761  -29.0856   -4.3331 C   0  0  0  0  0  0  0  0  0  0  0  0
   18.1654  -29.5225   -3.1922 O   0  0  0  0  0  0  0  0  0  0  0  0
   19.0108  -27.7844   -4.4490 N   0  0  0  0  0  0  0  0  0  0  0  0
   18.1216  -26.6458   -4.1858 C   0  0  1  0  0  0  0  0  0  0  0  0
   17.4313  -26.2598   -5.4563 C   0  0  0  0  0  0  0  0  0  0  0  0
   16.3388  -25.3180   -5.3262 C   0  0  0  0  0  0  0  0  0  0  0  0
   16.2739  -24.2751   -4.3837 C   0  0  0  0  0  0  0  0  0  0  0  0
   15.1110  -23.6207   -4.5117 N   0  0  0  0  0  0  0  0  0  0  0  0
   14.4168  -24.2175   -5.5220 C   0  0  0  0  0  0  0  0  0  0  0  0
   13.1721  -23.9021   -6.0488 C   0  0  0  0  0  0  0  0  0  0  0  0
   12.6512  -24.6233   -7.0934 C   0  0  0  0  0  0  0  0  0  0  0  0
   13.3890  -25.6783   -7.6192 C   0  0  0  0  0  0  0  0  0  0  0  0
   14.6201  -25.9862   -7.0929 C   0  0  0  0  0  0  0  0  0  0  0  0
   15.1542  -25.2603   -6.0338 C   0  0  0  0  0  0  0  0  0  0  0  0
   17.1818  -27.0019   -3.1192 C   0  0  0  0  0  0  0  0  0  0  0  0
   17.1799  -26.2322   -1.9454 O   0  0  0  0  0  0  0  0  0  0  0  0
   16.3613  -27.9466   -3.1518 O   0  0  0  0  0  0  0  0  0  0  0  0
  2  1  1  6
  3  2  1  0
  3  4  1  0
  4  5  2  0
  5  6  1  0
  7  6  2  0
  8  7  1  0
  9  8  2  0
  9  4  1  0
 10 11  2  0
 10  2  1  0
 13 14  1  1
 13 12  1  0
 15 13  1  0
 16 15  1  1
 16 17  1  0
 17 10  1  0
 18 16  1  0
 19 18  2  0
 20 18  1  0
 21 22  1  6
 21 20  1  0
 22 23  1  0
 23 31  1  0
 23 24  2  0
 24 25  1  0
 26 25  1  0
 26 27  2  0
 28 27  1  0
 29 28  2  0
 30 31  2  0
 30 29  1  0
 31 26  1  0
 32 21  1  0
 33 32  1  0
 34 32  2  0
M  END
$$$$
