FLW.pdb
     RDKit          3D

 34 36  0  0  1  0  0  0  0  0999 V2000
   25.1623  -19.7035  -15.7294 N   0  0  0  0  0  0  0  0  0  0  0  0
   25.1146  -19.4213  -14.2975 C   0  0  1  0  0  0  0  0  0  0  0  0
   23.6704  -19.2186  -13.8994 C   0  0  0  0  0  0  0  0  0  0  0  0
   23.0609  -18.0018  -14.4480 C   0  0  0  0  0  0  0  0  0  0  0  0
   21.7514  -17.6738  -14.0919 C   0  0  0  0  0  0  0  0  0  0  0  0
   21.1639  -16.5399  -14.5920 C   0  0  0  0  0  0  0  0  0  0  0  0
   21.8682  -15.7334  -15.4406 C   0  0  0  0  0  0  0  0  0  0  0  0
   23.1580  -16.0177  -15.8174 C   0  0  0  0  0  0  0  0  0  0  0  0
   23.7363  -17.1643  -15.3050 C   0  0  0  0  0  0  0  0  0  0  0  0
   25.7494  -20.4958  -13.5245 C   0  0  0  0  0  0  0  0  0  0  0  0
   25.3982  -21.6886  -13.7012 O   0  0  0  0  0  0  0  0  0  0  0  0
   30.9010  -19.6437  -12.3119 C   0  0  0  0  0  0  0  0  0  0  0  0
   29.4746  -20.0096  -12.5716 C   0  0  1  0  0  0  0  0  0  0  0  0
   29.4636  -20.7290  -13.9349 C   0  0  0  0  0  0  0  0  0  0  0  0
   28.8776  -20.9590  -11.5979 C   0  0  0  0  0  0  0  0  0  0  0  0
   27.4486  -21.2911  -11.8127 C   0  0  2  0  0  0  0  0  0  0  0  0
   26.7652  -20.2569  -12.5621 N   0  0  0  0  0  0  0  0  0  0  0  0
   26.6896  -21.5980  -10.5926 C   0  0  0  0  0  0  0  0  0  0  0  0
   26.8242  -22.7244  -10.0431 O   0  0  0  0  0  0  0  0  0  0  0  0
   25.8089  -20.6546  -10.0208 N   0  0  0  0  0  0  0  0  0  0  0  0
   24.8962  -21.1123   -8.9653 C   0  0  1  0  0  0  0  0  0  0  0  0
   24.9342  -20.1390   -7.8291 C   0  0  0  0  0  0  0  0  0  0  0  0
   26.2468  -19.6690   -7.4375 C   0  0  0  0  0  0  0  0  0  0  0  0
   26.9571  -18.6286   -8.0645 C   0  0  0  0  0  0  0  0  0  0  0  0
   28.1527  -18.4783   -7.4773 N   0  0  0  0  0  0  0  0  0  0  0  0
   28.2344  -19.4014   -6.4773 C   0  0  0  0  0  0  0  0  0  0  0  0
   29.2589  -19.6383   -5.5716 C   0  0  0  0  0  0  0  0  0  0  0  0
   29.1356  -20.6146   -4.6153 C   0  0  0  0  0  0  0  0  0  0  0  0
   27.9669  -21.3665   -4.5653 C   0  0  0  0  0  0  0  0  0  0  0  0
   26.9566  -21.1277   -5.4652 C   0  0  0  0  0  0  0  0  0  0  0  0
   27.0745  -20.1406   -6.4376 C   0  0  0  0  0  0  0  0  0  0  0  0
   23.5513  -21.2737   -9.5247 C   0  0  0  0  0  0  0  0  0  0  0  0
   22.5286  -21.7389   -8.6832 O   0  0  0  0  0  0  0  0  0  0  0  0
   23.2161  -21.0323  -10.7062 O   0  0  0  0  0  0  0  0  0  0  0  0
  2  1  1  6
  3  2  1  0
  3  4  1  0
  4  5  2  0
  5  6  1  0
  7  6  2  0
  8  7  1  0
  9  8  2  0
  9  4  1  0
 10 11  2  0
 10  2  1  0
 13 14  1  6
 13 12  1  0
 15 13  1  0
 16 15  1  1
 16 17  1  0
 17 10  1  0
 18 16  1  0
 19 18  2  0
 20 18  1  0
 21 22  1  1
 21 20  1  0
 22 23  1  0
 23 31  1  0
 23 24  2  0
 24 25  1  0
 26 25  1  0
 26 27  2  0
 28 27  1  0
 29 28  2  0
 30 31  2  0
 30 29  1  0
 31 26  1  0
 32 21  1  0
 33 32  1  0
 34 32  2  0
M  END
$$$$
