FLW.pdb
     RDKit          3D

 34 36  0  0  1  0  0  0  0  0999 V2000
   27.4463  -21.9350  -17.4433 N   0  0  0  0  0  0  0  0  0  0  0  0
   26.5702  -21.0487  -16.6823 C   0  0  1  0  0  0  0  0  0  0  0  0
   25.2638  -20.9122  -17.4305 C   0  0  0  0  0  0  0  0  0  0  0  0
   25.3942  -20.3115  -18.7629 C   0  0  0  0  0  0  0  0  0  0  0  0
   25.0067  -21.0471  -19.8843 C   0  0  0  0  0  0  0  0  0  0  0  0
   25.1186  -20.5033  -21.1385 C   0  0  0  0  0  0  0  0  0  0  0  0
   25.6114  -19.2374  -21.2833 C   0  0  0  0  0  0  0  0  0  0  0  0
   26.0044  -18.4784  -20.2082 C   0  0  0  0  0  0  0  0  0  0  0  0
   25.8856  -19.0406  -18.9505 C   0  0  0  0  0  0  0  0  0  0  0  0
   26.3688  -21.5479  -15.3166 C   0  0  0  0  0  0  0  0  0  0  0  0
   26.0082  -22.7362  -15.1289 O   0  0  0  0  0  0  0  0  0  0  0  0
   29.6412  -19.8784  -11.3054 C   0  0  0  0  0  0  0  0  0  0  0  0
   28.7178  -20.6627  -12.1817 C   0  0  1  0  0  0  0  0  0  0  0  0
   29.0799  -22.1445  -11.9595 C   0  0  0  0  0  0  0  0  0  0  0  0
   27.2747  -20.5358  -11.8543 C   0  0  0  0  0  0  0  0  0  0  0  0
   26.3376  -21.1835  -12.8033 C   0  0  2  0  0  0  0  0  0  0  0  0
   26.5635  -20.7419  -14.1644 N   0  0  0  0  0  0  0  0  0  0  0  0
   24.9139  -21.0402  -12.4693 C   0  0  0  0  0  0  0  0  0  0  0  0
   24.4944  -21.4391  -11.3496 O   0  0  0  0  0  0  0  0  0  0  0  0
   24.0021  -20.4636  -13.3797 N   0  0  0  0  0  0  0  0  0  0  0  0
   22.5991  -20.3357  -12.9651 C   0  0  1  0  0  0  0  0  0  0  0  0
   22.1396  -18.9341  -13.2185 C   0  0  0  0  0  0  0  0  0  0  0  0
   22.2145  -18.4782  -14.5910 C   0  0  0  0  0  0  0  0  0  0  0  0
   21.3206  -18.8387  -15.6162 C   0  0  0  0  0  0  0  0  0  0  0  0
   21.7023  -18.2725  -16.7698 N   0  0  0  0  0  0  0  0  0  0  0  0
   22.8287  -17.5479  -16.5148 C   0  0  0  0  0  0  0  0  0  0  0  0
   23.5936  -16.7684  -17.3712 C   0  0  0  0  0  0  0  0  0  0  0  0
   24.6942  -16.0929  -16.9074 C   0  0  0  0  0  0  0  0  0  0  0  0
   25.0347  -16.2000  -15.5634 C   0  0  0  0  0  0  0  0  0  0  0  0
   24.2740  -16.9738  -14.7208 C   0  0  0  0  0  0  0  0  0  0  0  0
   23.1577  -17.6619  -15.1836 C   0  0  0  0  0  0  0  0  0  0  0  0
   21.7916  -21.3310  -13.6757 C   0  0  0  0  0  0  0  0  0  0  0  0
   20.4563  -21.5124  -13.2829 O   0  0  0  0  0  0  0  0  0  0  0  0
   22.1838  -22.0523  -14.6204 O   0  0  0  0  0  0  0  0  0  0  0  0
  2  1  1  6
  3  2  1  0
  3  4  1  0
  4  5  2  0
  5  6  1  0
  7  6  2  0
  8  7  1  0
  9  8  2  0
  9  4  1  0
 10 11  2  0
 10  2  1  0
 13 14  1  1
 13 12  1  0
 15 13  1  0
 16 15  1  1
 16 17  1  0
 17 10  1  0
 18 16  1  0
 19 18  2  0
 20 18  1  0
 21 22  1  6
 21 20  1  0
 22 23  1  0
 23 31  1  0
 23 24  2  0
 24 25  1  0
 26 25  1  0
 26 27  2  0
 28 27  1  0
 29 28  2  0
 30 31  2  0
 30 29  1  0
 31 26  1  0
 32 21  1  0
 33 32  1  0
 34 32  2  0
M  END
$$$$
