FLW.pdb
     RDKit          3D

 34 36  0  0  1  0  0  0  0  0999 V2000
   27.1919  -18.3090   -8.2901 N   0  0  0  0  0  0  0  0  0  0  0  0
   27.0811  -19.7544   -8.4661 C   0  0  1  0  0  0  0  0  0  0  0  0
   26.6633  -20.3645   -7.1477 C   0  0  0  0  0  0  0  0  0  0  0  0
   27.5955  -20.1074   -6.0441 C   0  0  0  0  0  0  0  0  0  0  0  0
   28.6081  -21.0306   -5.7766 C   0  0  0  0  0  0  0  0  0  0  0  0
   29.4911  -20.8081   -4.7509 C   0  0  0  0  0  0  0  0  0  0  0  0
   29.3735  -19.6777   -3.9929 C   0  0  0  0  0  0  0  0  0  0  0  0
   28.3929  -18.7434   -4.2207 C   0  0  0  0  0  0  0  0  0  0  0  0
   27.5105  -18.9819   -5.2581 C   0  0  0  0  0  0  0  0  0  0  0  0
   26.1421  -20.0861   -9.5445 C   0  0  0  0  0  0  0  0  0  0  0  0
   25.0396  -19.4897   -9.6230 O   0  0  0  0  0  0  0  0  0  0  0  0
   30.0961  -22.2348  -12.4545 C   0  0  0  0  0  0  0  0  0  0  0  0
   29.0090  -21.3446  -11.9430 C   0  0  1  0  0  0  0  0  0  0  0  0
   29.4188  -19.9101  -12.3312 C   0  0  0  0  0  0  0  0  0  0  0  0
   27.6705  -21.5700  -12.5458 C   0  0  0  0  0  0  0  0  0  0  0  0
   26.5543  -20.7995  -11.9469 C   0  0  2  0  0  0  0  0  0  0  0  0
   26.4164  -21.0699  -10.5304 N   0  0  0  0  0  0  0  0  0  0  0  0
   25.2537  -20.9690  -12.6092 C   0  0  0  0  0  0  0  0  0  0  0  0
   25.2034  -21.0690  -13.8647 O   0  0  0  0  0  0  0  0  0  0  0  0
   24.0545  -21.0218  -11.8665 N   0  0  0  0  0  0  0  0  0  0  0  0
   22.7841  -20.9326  -12.5978 C   0  0  1  0  0  0  0  0  0  0  0  0
   22.6579  -22.1154  -13.5060 C   0  0  0  0  0  0  0  0  0  0  0  0
   21.4209  -22.2154  -14.2524 C   0  0  0  0  0  0  0  0  0  0  0  0
   20.7305  -21.1329  -14.8284 C   0  0  0  0  0  0  0  0  0  0  0  0
   19.6053  -21.5714  -15.4104 N   0  0  0  0  0  0  0  0  0  0  0  0
   19.5502  -22.9210  -15.2253 C   0  0  0  0  0  0  0  0  0  0  0  0
   18.5969  -23.8356  -15.6508 C   0  0  0  0  0  0  0  0  0  0  0  0
   18.7379  -25.1724  -15.3755 C   0  0  0  0  0  0  0  0  0  0  0  0
   19.8520  -25.6006  -14.6620 C   0  0  0  0  0  0  0  0  0  0  0  0
   20.7918  -24.6904  -14.2429 C   0  0  0  0  0  0  0  0  0  0  0  0
   20.6555  -23.3339  -14.5174 C   0  0  0  0  0  0  0  0  0  0  0  0
   21.6796  -20.8372  -11.6394 C   0  0  0  0  0  0  0  0  0  0  0  0
   21.7708  -21.5606  -10.4399 O   0  0  0  0  0  0  0  0  0  0  0  0
   20.6383  -20.1587  -11.7878 O   0  0  0  0  0  0  0  0  0  0  0  0
  2  1  1  1
  3  2  1  0
  3  4  1  0
  4  5  2  0
  5  6  1  0
  7  6  2  0
  8  7  1  0
  9  8  2  0
  9  4  1  0
 10 11  2  0
 10  2  1  0
 13 14  1  6
 13 12  1  0
 15 13  1  0
 16 15  1  6
 16 17  1  0
 17 10  1  0
 18 16  1  0
 19 18  2  0
 20 18  1  0
 21 22  1  1
 21 20  1  0
 22 23  1  0
 23 31  1  0
 23 24  2  0
 24 25  1  0
 26 25  1  0
 26 27  2  0
 28 27  1  0
 29 28  2  0
 30 31  2  0
 30 29  1  0
 31 26  1  0
 32 21  1  0
 33 32  1  0
 34 32  2  0
M  END
$$$$
