FLW.pdb
     RDKit          3D

 34 36  0  0  1  0  0  0  0  0999 V2000
   25.3209  -19.0228   -8.5442 N   0  0  0  0  0  0  0  0  0  0  0  0
   26.3397  -19.9218   -9.0793 C   0  0  1  0  0  0  0  0  0  0  0  0
   26.7188  -20.9092   -7.9993 C   0  0  0  0  0  0  0  0  0  0  0  0
   27.4271  -20.3125   -6.8611 C   0  0  0  0  0  0  0  0  0  0  0  0
   27.9269  -21.1430   -5.8564 C   0  0  0  0  0  0  0  0  0  0  0  0
   28.5937  -20.6055   -4.7851 C   0  0  0  0  0  0  0  0  0  0  0  0
   28.7657  -19.2525   -4.7075 C   0  0  0  0  0  0  0  0  0  0  0  0
   28.2907  -18.3985   -5.6727 C   0  0  0  0  0  0  0  0  0  0  0  0
   27.6207  -18.9556   -6.7463 C   0  0  0  0  0  0  0  0  0  0  0  0
   25.8661  -20.5955  -10.2945 C   0  0  0  0  0  0  0  0  0  0  0  0
   24.6394  -20.6174  -10.5630 O   0  0  0  0  0  0  0  0  0  0  0  0
   29.5179  -18.8652  -14.0572 C   0  0  0  0  0  0  0  0  0  0  0  0
   28.2102  -19.2365  -13.4343 C   0  0  1  0  0  0  0  0  0  0  0  0
   27.1251  -18.8127  -14.4438 C   0  0  0  0  0  0  0  0  0  0  0  0
   28.0114  -20.6893  -13.1987 C   0  0  0  0  0  0  0  0  0  0  0  0
   26.6917  -21.0796  -12.6470 C   0  0  2  0  0  0  0  0  0  0  0  0
   26.7394  -21.2416  -11.2082 N   0  0  0  0  0  0  0  0  0  0  0  0
   26.0891  -22.2728  -13.2569 C   0  0  0  0  0  0  0  0  0  0  0  0
   26.5435  -22.7105  -14.3481 O   0  0  0  0  0  0  0  0  0  0  0  0
   25.0074  -22.9418  -12.6446 N   0  0  0  0  0  0  0  0  0  0  0  0
   23.6466  -22.5862  -13.0669 C   0  0  1  0  0  0  0  0  0  0  0  0
   23.1742  -21.4161  -12.2622 C   0  0  0  0  0  0  0  0  0  0  0  0
   21.8945  -20.8561  -12.6442 C   0  0  0  0  0  0  0  0  0  0  0  0
   20.6394  -21.3604  -12.2564 C   0  0  0  0  0  0  0  0  0  0  0  0
   19.6649  -20.6305  -12.8175 N   0  0  0  0  0  0  0  0  0  0  0  0
   20.2624  -19.6581  -13.5634 C   0  0  0  0  0  0  0  0  0  0  0  0
   19.6906  -18.6449  -14.3201 C   0  0  0  0  0  0  0  0  0  0  0  0
   20.4778  -17.7420  -14.9894 C   0  0  0  0  0  0  0  0  0  0  0  0
   21.8609  -17.8557  -14.8995 C   0  0  0  0  0  0  0  0  0  0  0  0
   22.4209  -18.8613  -14.1493 C   0  0  0  0  0  0  0  0  0  0  0  0
   21.6296  -19.7805  -13.4690 C   0  0  0  0  0  0  0  0  0  0  0  0
   23.6412  -22.3187  -14.5077 C   0  0  0  0  0  0  0  0  0  0  0  0
   22.6497  -22.9232  -15.2963 O   0  0  0  0  0  0  0  0  0  0  0  0
   24.4521  -21.5873  -15.1195 O   0  0  0  0  0  0  0  0  0  0  0  0
  2  1  1  1
  3  2  1  0
  3  4  1  0
  4  5  2  0
  5  6  1  0
  7  6  2  0
  8  7  1  0
  9  8  2  0
  9  4  1  0
 10 11  2  0
 10  2  1  0
 13 14  1  6
 13 12  1  0
 15 13  1  0
 16 15  1  6
 16 17  1  0
 17 10  1  0
 18 16  1  0
 19 18  2  0
 20 18  1  0
 21 22  1  1
 21 20  1  0
 22 23  1  0
 23 31  1  0
 23 24  2  0
 24 25  1  0
 26 25  1  0
 26 27  2  0
 28 27  1  0
 29 28  2  0
 30 31  2  0
 30 29  1  0
 31 26  1  0
 32 21  1  0
 33 32  1  0
 34 32  2  0
M  END
$$$$
