FLW.pdb
     RDKit          3D

 34 36  0  0  1  0  0  0  0  0999 V2000
   24.1842  -20.1013  -16.3118 N   0  0  0  0  0  0  0  0  0  0  0  0
   24.8146  -19.5133  -15.1331 C   0  0  1  0  0  0  0  0  0  0  0  0
   23.7275  -19.0965  -14.1690 C   0  0  0  0  0  0  0  0  0  0  0  0
   22.8524  -18.0321  -14.6735 C   0  0  0  0  0  0  0  0  0  0  0  0
   21.5131  -18.3197  -14.9429 C   0  0  0  0  0  0  0  0  0  0  0  0
   20.6778  -17.3387  -15.4131 C   0  0  0  0  0  0  0  0  0  0  0  0
   21.1648  -16.0785  -15.6161 C   0  0  0  0  0  0  0  0  0  0  0  0
   22.4748  -15.7515  -15.3646 C   0  0  0  0  0  0  0  0  0  0  0  0
   23.3042  -16.7513  -14.8911 C   0  0  0  0  0  0  0  0  0  0  0  0
   25.7626  -20.4496  -14.5170 C   0  0  0  0  0  0  0  0  0  0  0  0
   25.5608  -21.6870  -14.5902 O   0  0  0  0  0  0  0  0  0  0  0  0
   30.7658  -22.2492  -13.3785 C   0  0  0  0  0  0  0  0  0  0  0  0
   30.3113  -21.1049  -12.5301 C   0  0  1  0  0  0  0  0  0  0  0  0
   31.5356  -20.1812  -12.3741 C   0  0  0  0  0  0  0  0  0  0  0  0
   29.2346  -20.2688  -13.1194 C   0  0  0  0  0  0  0  0  0  0  0  0
   27.9052  -20.9151  -13.2353 C   0  0  2  0  0  0  0  0  0  0  0  0
   26.9262  -20.0243  -13.8239 N   0  0  0  0  0  0  0  0  0  0  0  0
   27.3728  -21.4746  -11.9853 C   0  0  0  0  0  0  0  0  0  0  0  0
   28.0792  -22.2702  -11.3094 O   0  0  0  0  0  0  0  0  0  0  0  0
   26.0816  -21.1393  -11.5238 N   0  0  0  0  0  0  0  0  0  0  0  0
   25.7783  -21.3532  -10.1030 C   0  0  1  0  0  0  0  0  0  0  0  0
   26.7007  -20.5155   -9.2739 C   0  0  0  0  0  0  0  0  0  0  0  0
   26.4292  -20.4872   -7.8517 C   0  0  0  0  0  0  0  0  0  0  0  0
   25.2652  -20.9849   -7.2374 C   0  0  0  0  0  0  0  0  0  0  0  0
   25.3200  -20.7633   -5.9164 N   0  0  0  0  0  0  0  0  0  0  0  0
   26.5000  -20.1311   -5.6581 C   0  0  0  0  0  0  0  0  0  0  0  0
   27.0308  -19.7053   -4.4485 C   0  0  0  0  0  0  0  0  0  0  0  0
   28.2608  -19.0992   -4.3988 C   0  0  0  0  0  0  0  0  0  0  0  0
   28.9712  -18.9162   -5.5802 C   0  0  0  0  0  0  0  0  0  0  0  0
   28.4400  -19.3392   -6.7745 C   0  0  0  0  0  0  0  0  0  0  0  0
   27.1938  -19.9535   -6.8330 C   0  0  0  0  0  0  0  0  0  0  0  0
   24.3661  -21.0478   -9.8581 C   0  0  0  0  0  0  0  0  0  0  0  0
   23.5690  -20.6546  -10.9446 O   0  0  0  0  0  0  0  0  0  0  0  0
   23.7864  -21.1041   -8.7502 O   0  0  0  0  0  0  0  0  0  0  0  0
  2  1  1  6
  3  2  1  0
  3  4  1  0
  4  5  2  0
  5  6  1  0
  7  6  2  0
  8  7  1  0
  9  8  2  0
  9  4  1  0
 10 11  2  0
 10  2  1  0
 13 14  1  6
 13 12  1  0
 15 13  1  0
 16 15  1  1
 16 17  1  0
 17 10  1  0
 18 16  1  0
 19 18  2  0
 20 18  1  0
 21 22  1  1
 21 20  1  0
 22 23  1  0
 23 31  1  0
 23 24  2  0
 24 25  1  0
 26 25  1  0
 26 27  2  0
 28 27  1  0
 29 28  2  0
 30 31  2  0
 30 29  1  0
 31 26  1  0
 32 21  1  0
 33 32  1  0
 34 32  2  0
M  END
$$$$
