FLW.pdb
     RDKit          3D

 34 36  0  0  1  0  0  0  0  0999 V2000
   23.6354  -19.6744  -15.8272 N   0  0  0  0  0  0  0  0  0  0  0  0
   24.1353  -19.3624  -14.4911 C   0  0  1  0  0  0  0  0  0  0  0  0
   22.9538  -19.2439  -13.5556 C   0  0  0  0  0  0  0  0  0  0  0  0
   22.0182  -18.1680  -13.9023 C   0  0  0  0  0  0  0  0  0  0  0  0
   20.6640  -18.4665  -14.0640 C   0  0  0  0  0  0  0  0  0  0  0  0
   19.7727  -17.4750  -14.3860 C   0  0  0  0  0  0  0  0  0  0  0  0
   20.2184  -16.1937  -14.5474 C   0  0  0  0  0  0  0  0  0  0  0  0
   21.5411  -15.8554  -14.3981 C   0  0  0  0  0  0  0  0  0  0  0  0
   22.4273  -16.8659  -14.0736 C   0  0  0  0  0  0  0  0  0  0  0  0
   25.0949  -20.3752  -14.0348 C   0  0  0  0  0  0  0  0  0  0  0  0
   24.8535  -21.5947  -14.2133 O   0  0  0  0  0  0  0  0  0  0  0  0
   30.4189  -19.1487  -14.2223 C   0  0  0  0  0  0  0  0  0  0  0  0
   29.0072  -19.6381  -14.1647 C   0  0  1  0  0  0  0  0  0  0  0  0
   28.8308  -20.5659  -15.3831 C   0  0  0  0  0  0  0  0  0  0  0  0
   28.6685  -20.4540  -12.9708 C   0  0  0  0  0  0  0  0  0  0  0  0
   27.2954  -21.0125  -12.9385 C   0  0  2  0  0  0  0  0  0  0  0  0
   26.3134  -20.0458  -13.3853 N   0  0  0  0  0  0  0  0  0  0  0  0
   26.8808  -21.5735  -11.6452 C   0  0  0  0  0  0  0  0  0  0  0  0
   27.4277  -22.6264  -11.2199 O   0  0  0  0  0  0  0  0  0  0  0  0
   25.8785  -20.9561  -10.8662 N   0  0  0  0  0  0  0  0  0  0  0  0
   25.4159  -21.6513   -9.6583 C   0  0  1  0  0  0  0  0  0  0  0  0
   26.5234  -21.6741   -8.6519 C   0  0  0  0  0  0  0  0  0  0  0  0
   26.8027  -20.4196   -7.9845 C   0  0  0  0  0  0  0  0  0  0  0  0
   26.3082  -19.1626   -8.3788 C   0  0  0  0  0  0  0  0  0  0  0  0
   26.7926  -18.2109   -7.5685 N   0  0  0  0  0  0  0  0  0  0  0  0
   27.5932  -18.8251   -6.6517 C   0  0  0  0  0  0  0  0  0  0  0  0
   28.3083  -18.2811   -5.5939 C   0  0  0  0  0  0  0  0  0  0  0  0
   29.0477  -19.0842   -4.7626 C   0  0  0  0  0  0  0  0  0  0  0  0
   29.0716  -20.4551   -4.9945 C   0  0  0  0  0  0  0  0  0  0  0  0
   28.3623  -20.9876   -6.0438 C   0  0  0  0  0  0  0  0  0  0  0  0
   27.6113  -20.1800   -6.8910 C   0  0  0  0  0  0  0  0  0  0  0  0
   24.2084  -20.9923   -9.1529 C   0  0  0  0  0  0  0  0  0  0  0  0
   23.6657  -21.4332   -7.9358 O   0  0  0  0  0  0  0  0  0  0  0  0
   23.5986  -20.0530   -9.7121 O   0  0  0  0  0  0  0  0  0  0  0  0
  2  1  1  6
  3  2  1  0
  3  4  1  0
  4  5  2  0
  5  6  1  0
  7  6  2  0
  8  7  1  0
  9  8  2  0
  9  4  1  0
 10 11  2  0
 10  2  1  0
 13 14  1  6
 13 12  1  0
 15 13  1  0
 16 15  1  1
 16 17  1  0
 17 10  1  0
 18 16  1  0
 19 18  2  0
 20 18  1  0
 21 22  1  1
 21 20  1  0
 22 23  1  0
 23 31  1  0
 23 24  2  0
 24 25  1  0
 26 25  1  0
 26 27  2  0
 28 27  1  0
 29 28  2  0
 30 31  2  0
 30 29  1  0
 31 26  1  0
 32 21  1  0
 33 32  1  0
 34 32  2  0
M  END
$$$$
