AQP.pdb
     RDKit          3D

 22 22  0  0  1  0  0  0  0  0999 V2000
   20.1804  -26.3001  -12.0928 C   0  0  0  0  0  0  0  0  0  0  0  0
   19.1465  -25.2171  -12.3230 C   0  0  2  0  0  0  0  0  0  0  0  0
   19.7930  -24.1722  -13.0929 N   0  0  0  0  0  0  0  0  0  0  0  0
   18.7140  -24.7014  -11.0083 C   0  0  0  0  0  0  0  0  0  0  0  0
   19.3540  -23.8510  -10.3484 O   0  0  0  0  0  0  0  0  0  0  0  0
   13.9735  -22.0022   -8.5731 N   0  0  0  0  0  0  0  0  0  0  0  0
   15.0225  -21.5852   -9.4304 C   0  0  0  0  0  0  0  0  0  0  0  0
   15.0739  -20.4023   -9.7537 O   0  0  0  0  0  0  0  0  0  0  0  0
   15.9785  -22.6174   -9.8670 C   0  0  0  0  0  0  0  0  0  0  0  0
   15.6905  -24.0078   -9.3672 C   0  0  0  0  0  0  0  0  0  0  0  0
   16.9881  -24.7473   -9.1651 C   0  0  2  0  0  0  0  0  0  0  0  0
   17.5149  -25.1808  -10.4457 N   0  0  0  0  0  0  0  0  0  0  0  0
   16.8882  -25.8514   -8.1940 C   0  0  0  0  0  0  0  0  0  0  0  0
   16.5281  -26.9756   -8.6416 O   0  0  0  0  0  0  0  0  0  0  0  0
   17.1643  -25.7426   -6.8128 N   0  0  0  0  0  0  0  0  0  0  0  0
   17.6902  -24.6004   -6.0701 C   0  0  0  0  0  0  0  0  0  0  0  0
   18.4393  -25.2333   -4.8846 C   0  0  0  0  0  0  0  0  0  0  0  0
   17.4495  -26.3125   -4.5230 C   0  0  0  0  0  0  0  0  0  0  0  0
   16.9744  -26.7970   -5.8327 C   0  0  1  0  0  0  0  0  0  0  0  0
   15.6023  -27.3025   -5.7890 C   0  0  0  0  0  0  0  0  0  0  0  0
   15.3908  -28.3944   -5.2045 O   0  0  0  0  0  0  0  0  0  0  0  0
   14.5117  -26.6620   -6.3485 O   0  0  0  0  0  0  0  0  0  0  0  0
  2  3  1  0
  2  1  1  1
  4  2  1  0
  5  4  2  0
  6  7  1  0
  7  9  1  0
  7  8  2  0
  9 10  1  0
 11 10  1  6
 11 12  1  0
 12  4  1  0
 13 15  1  0
 13 11  1  0
 14 13  2  0
 15 19  1  0
 16 17  1  0
 16 15  1  0
 17 18  1  0
 18 19  1  0
 19 20  1  1
 20 21  2  0
 20 22  1  0
M  END
$$$$
