AQP.pdb
     RDKit          3D

 22 22  0  0  1  0  0  0  0  0999 V2000
   26.8058  -11.0324  -15.3542 C   0  0  0  0  0  0  0  0  0  0  0  0
   25.5431  -11.8590  -15.4857 C   0  0  2  0  0  0  0  0  0  0  0  0
   25.9032  -13.0709  -16.1958 N   0  0  0  0  0  0  0  0  0  0  0  0
   24.5558  -11.0782  -16.2584 C   0  0  0  0  0  0  0  0  0  0  0  0
   24.1428  -11.4063  -17.3942 O   0  0  0  0  0  0  0  0  0  0  0  0
   19.4316  -11.8287  -16.3628 N   0  0  0  0  0  0  0  0  0  0  0  0
   19.2565  -10.4805  -16.7639 C   0  0  0  0  0  0  0  0  0  0  0  0
   18.1463  -10.1284  -17.1511 O   0  0  0  0  0  0  0  0  0  0  0  0
   20.4349   -9.6004  -16.6803 C   0  0  0  0  0  0  0  0  0  0  0  0
   21.6768  -10.2459  -16.1264 C   0  0  0  0  0  0  0  0  0  0  0  0
   22.8119   -9.2546  -16.1523 C   0  0  2  0  0  0  0  0  0  0  0  0
   24.0357   -9.8923  -15.7041 N   0  0  0  0  0  0  0  0  0  0  0  0
   22.5214   -8.0119  -15.4152 C   0  0  0  0  0  0  0  0  0  0  0  0
   22.4016   -8.1053  -14.1618 O   0  0  0  0  0  0  0  0  0  0  0  0
   22.3697   -6.7371  -16.0048 N   0  0  0  0  0  0  0  0  0  0  0  0
   22.4461   -6.3641  -17.4148 C   0  0  0  0  0  0  0  0  0  0  0  0
   22.9303   -4.9039  -17.3933 C   0  0  0  0  0  0  0  0  0  0  0  0
   22.0924   -4.3893  -16.2497 C   0  0  0  0  0  0  0  0  0  0  0  0
   22.1049   -5.5045  -15.2844 C   0  0  1  0  0  0  0  0  0  0  0  0
   20.8928   -5.5639  -14.4675 C   0  0  0  0  0  0  0  0  0  0  0  0
   20.6961   -4.6478  -13.6305 O   0  0  0  0  0  0  0  0  0  0  0  0
   19.9394   -6.5625  -14.5491 O   0  0  0  0  0  0  0  0  0  0  0  0
  2  3  1  0
  2  1  1  6
  4  2  1  0
  5  4  2  0
  6  7  1  0
  7  9  1  0
  7  8  2  0
  9 10  1  0
 11 10  1  1
 11 12  1  0
 12  4  1  0
 13 15  1  0
 13 11  1  0
 14 13  2  0
 15 19  1  0
 16 17  1  0
 16 15  1  0
 17 18  1  0
 18 19  1  0
 19 20  1  6
 20 21  2  0
 20 22  1  0
M  END
$$$$
