AQP.pdb
     RDKit          3D

 22 22  0  0  1  0  0  0  0  0999 V2000
   26.6458  -17.1716  -16.9547 C   0  0  0  0  0  0  0  0  0  0  0  0
   27.7176  -17.8335  -16.1133 C   0  0  2  0  0  0  0  0  0  0  0  0
   28.7614  -18.2663  -17.0220 N   0  0  0  0  0  0  0  0  0  0  0  0
   27.1160  -18.9928  -15.4236 C   0  0  0  0  0  0  0  0  0  0  0  0
   26.9489  -20.1125  -15.9591 O   0  0  0  0  0  0  0  0  0  0  0  0
   24.9583  -20.8633   -8.8042 N   0  0  0  0  0  0  0  0  0  0  0  0
   26.1367  -20.8016   -9.5897 C   0  0  0  0  0  0  0  0  0  0  0  0
   27.2120  -20.6602   -9.0151 O   0  0  0  0  0  0  0  0  0  0  0  0
   25.9730  -20.9158  -11.0492 C   0  0  0  0  0  0  0  0  0  0  0  0
   26.4874  -19.7453  -11.8437 C   0  0  0  0  0  0  0  0  0  0  0  0
   26.1272  -19.9272  -13.2959 C   0  0  2  0  0  0  0  0  0  0  0  0
   26.6989  -18.8525  -14.0856 N   0  0  0  0  0  0  0  0  0  0  0  0
   24.6801  -20.0866  -13.5251 C   0  0  0  0  0  0  0  0  0  0  0  0
   23.9849  -19.0329  -13.5445 O   0  0  0  0  0  0  0  0  0  0  0  0
   24.0227  -21.3212  -13.7230 N   0  0  0  0  0  0  0  0  0  0  0  0
   24.5805  -22.6708  -13.7017 C   0  0  0  0  0  0  0  0  0  0  0  0
   23.6682  -23.4714  -14.6473 C   0  0  0  0  0  0  0  0  0  0  0  0
   22.3324  -22.9167  -14.2196 C   0  0  0  0  0  0  0  0  0  0  0  0
   22.6074  -21.4837  -14.0043 C   0  0  1  0  0  0  0  0  0  0  0  0
   21.7453  -20.8854  -12.9850 C   0  0  0  0  0  0  0  0  0  0  0  0
   22.1834  -20.8047  -11.8103 O   0  0  0  0  0  0  0  0  0  0  0  0
   20.4726  -20.3981  -13.2211 O   0  0  0  0  0  0  0  0  0  0  0  0
  2  3  1  0
  2  1  1  6
  4  2  1  0
  5  4  2  0
  6  7  1  0
  7  9  1  0
  7  8  2  0
  9 10  1  0
 11 10  1  1
 11 12  1  0
 12  4  1  0
 13 15  1  0
 13 11  1  0
 14 13  2  0
 15 19  1  0
 16 17  1  0
 16 15  1  0
 17 18  1  0
 18 19  1  0
 19 20  1  1
 20 21  2  0
 20 22  1  0
M  END
$$$$
