AQP.pdb
     RDKit          3D

 22 22  0  0  1  0  0  0  0  0999 V2000
   17.0470  -12.2031  -17.8227 C   0  0  0  0  0  0  0  0  0  0  0  0
   18.4192  -12.8318  -17.9520 C   0  0  2  0  0  0  0  0  0  0  0  0
   18.2630  -14.2473  -17.6789 N   0  0  0  0  0  0  0  0  0  0  0  0
   19.3121  -12.2061  -16.9556 C   0  0  0  0  0  0  0  0  0  0  0  0
   19.1089  -12.2382  -15.7204 O   0  0  0  0  0  0  0  0  0  0  0  0
   25.8343   -9.5710  -16.9867 N   0  0  0  0  0  0  0  0  0  0  0  0
   25.2382  -10.7370  -16.4441 C   0  0  0  0  0  0  0  0  0  0  0  0
   25.9234  -11.7511  -16.3510 O   0  0  0  0  0  0  0  0  0  0  0  0
   23.8285  -10.6349  -16.0289 C   0  0  0  0  0  0  0  0  0  0  0  0
   22.8290  -11.1570  -17.0261 C   0  0  0  0  0  0  0  0  0  0  0  0
   21.4332  -10.9083  -16.5148 C   0  0  2  0  0  0  0  0  0  0  0  0
   20.4646  -11.5288  -17.3992 N   0  0  0  0  0  0  0  0  0  0  0  0
   21.1432   -9.4838  -16.2720 C   0  0  0  0  0  0  0  0  0  0  0  0
   20.8458   -8.7815  -17.2782 O   0  0  0  0  0  0  0  0  0  0  0  0
   21.1734   -8.8552  -15.0073 N   0  0  0  0  0  0  0  0  0  0  0  0
   21.5305   -9.4225  -13.7097 C   0  0  0  0  0  0  0  0  0  0  0  0
   20.7197   -8.5929  -12.6990 C   0  0  0  0  0  0  0  0  0  0  0  0
   20.9171   -7.2231  -13.2985 C   0  0  0  0  0  0  0  0  0  0  0  0
   20.8326   -7.4673  -14.7507 C   0  0  1  0  0  0  0  0  0  0  0  0
   21.6305   -6.5239  -15.5340 C   0  0  0  0  0  0  0  0  0  0  0  0
   22.7878   -6.8699  -15.8797 O   0  0  0  0  0  0  0  0  0  0  0  0
   21.2013   -5.2688  -15.9254 O   0  0  0  0  0  0  0  0  0  0  0  0
  2  3  1  0
  2  1  1  1
  4  2  1  0
  5  4  2  0
  6  7  1  0
  7  9  1  0
  7  8  2  0
  9 10  1  0
 11 10  1  6
 11 12  1  0
 12  4  1  0
 13 15  1  0
 13 11  1  0
 14 13  2  0
 15 19  1  0
 16 17  1  0
 16 15  1  0
 17 18  1  0
 18 19  1  0
 19 20  1  6
 20 21  2  0
 20 22  1  0
M  END
$$$$
