AQP.pdb
     RDKit          3D

 22 22  0  0  1  0  0  0  0  0999 V2000
   26.4850  -11.6658  -15.4190 C   0  0  0  0  0  0  0  0  0  0  0  0
   25.1674  -12.1856  -15.9562 C   0  0  2  0  0  0  0  0  0  0  0  0
   25.4827  -13.1028  -17.0342 N   0  0  0  0  0  0  0  0  0  0  0  0
   24.3875  -11.0379  -16.4623 C   0  0  0  0  0  0  0  0  0  0  0  0
   24.5864  -10.4960  -17.5737 O   0  0  0  0  0  0  0  0  0  0  0  0
   19.1730  -11.6784  -14.9946 N   0  0  0  0  0  0  0  0  0  0  0  0
   19.8711  -12.1106  -16.1501 C   0  0  0  0  0  0  0  0  0  0  0  0
   19.6290  -13.2302  -16.5910 O   0  0  0  0  0  0  0  0  0  0  0  0
   20.8404  -11.1687  -16.7360 C   0  0  0  0  0  0  0  0  0  0  0  0
   21.0329   -9.8889  -15.9674 C   0  0  0  0  0  0  0  0  0  0  0  0
   22.4669   -9.4411  -16.0894 C   0  0  2  0  0  0  0  0  0  0  0  0
   23.3556  -10.5064  -15.6645 N   0  0  0  0  0  0  0  0  0  0  0  0
   22.7437   -8.1679  -15.4006 C   0  0  0  0  0  0  0  0  0  0  0  0
   23.1742   -8.2406  -14.2160 O   0  0  0  0  0  0  0  0  0  0  0  0
   22.5641   -6.8856  -15.9656 N   0  0  0  0  0  0  0  0  0  0  0  0
   22.1377   -6.5305  -17.3166 C   0  0  0  0  0  0  0  0  0  0  0  0
   22.8021   -5.1672  -17.5761 C   0  0  0  0  0  0  0  0  0  0  0  0
   22.5640   -4.5239  -16.2329 C   0  0  0  0  0  0  0  0  0  0  0  0
   22.7875   -5.6261  -15.2785 C   0  0  1  0  0  0  0  0  0  0  0  0
   21.9968   -5.4891  -14.0554 C   0  0  0  0  0  0  0  0  0  0  0  0
   20.9269   -6.1414  -13.9645 O   0  0  0  0  0  0  0  0  0  0  0  0
   22.3431   -4.6878  -12.9826 O   0  0  0  0  0  0  0  0  0  0  0  0
  2  3  1  0
  2  1  1  6
  4  2  1  0
  5  4  2  0
  6  7  1  0
  7  9  1  0
  7  8  2  0
  9 10  1  0
 11 10  1  1
 11 12  1  0
 12  4  1  0
 13 15  1  0
 13 11  1  0
 14 13  2  0
 15 19  1  0
 16 17  1  0
 16 15  1  0
 17 18  1  0
 18 19  1  0
 19 20  1  1
 20 21  2  0
 20 22  1  0
M  END
$$$$
