AQP.pdb
     RDKit          3D

 22 22  0  0  1  0  0  0  0  0999 V2000
-1387.1351 -652.7133  441.9594 C   0  0  0  0  0  0  0  0  0  0  0  0
-1388.5898 -652.9985  441.6418 C   0  0  2  0  0  0  0  0  0  0  0  0
-1388.8275 -654.3931  441.9618 N   0  0  0  0  0  0  0  0  0  0  0  0
-1388.8073 -652.7523  440.2016 C   0  0  0  0  0  0  0  0  0  0  0  0
-1389.8146 -652.1702  439.7387 O   0  0  0  0  0  0  0  0  0  0  0  0
-1388.6182 -652.1393  434.0760 N   0  0  0  0  0  0  0  0  0  0  0  0
-1388.7235 -652.1075  435.4890 C   0  0  0  0  0  0  0  0  0  0  0  0
-1389.4888 -652.8985  436.0333 O   0  0  0  0  0  0  0  0  0  0  0  0
-1387.8955 -651.1174  436.1988 C   0  0  0  0  0  0  0  0  0  0  0  0
-1387.3887 -651.5567  437.5466 C   0  0  0  0  0  0  0  0  0  0  0  0
-1387.9044 -652.9399  437.8506 C   0  0  2  0  0  0  0  0  0  0  0  0
-1387.8375 -653.1899  439.2784 N   0  0  0  0  0  0  0  0  0  0  0  0
-1387.2469 -653.9971  437.0621 C   0  0  0  0  0  0  0  0  0  0  0  0
-1386.1943 -654.4994  437.5454 O   0  0  0  0  0  0  0  0  0  0  0  0
-1387.7057 -654.4834  435.8175 N   0  0  0  0  0  0  0  0  0  0  0  0
-1388.0315 -655.8540  435.4326 C   0  0  0  0  0  0  0  0  0  0  0  0
-1387.7523 -655.8978  433.9203 C   0  0  0  0  0  0  0  0  0  0  0  0
-1388.3391 -654.5650  433.5282 C   0  0  0  0  0  0  0  0  0  0  0  0
-1387.9413 -653.6743  434.6349 C   0  0  1  0  0  0  0  0  0  0  0  0
-1388.8939 -652.5872  434.8611 C   0  0  0  0  0  0  0  0  0  0  0  0
-1388.7012 -651.4970  434.2668 O   0  0  0  0  0  0  0  0  0  0  0  0
-1389.9988 -652.6712  435.6877 O   0  0  0  0  0  0  0  0  0  0  0  0
  2  3  1  0
  2  1  1  6
  4  2  1  0
  5  4  2  0
  6  7  1  0
  7  9  1  0
  7  8  2  0
  9 10  1  0
 11 10  1  1
 11 12  1  0
 12  4  1  0
 13 15  1  0
 13 11  1  0
 14 13  2  0
 15 19  1  0
 16 17  1  0
 16 15  1  0
 17 18  1  0
 18 19  1  0
 19 20  1  1
 20 21  2  0
 20 22  1  0
M  END
$$$$
