AQP.pdb
     RDKit          3D

 22 22  0  0  1  0  0  0  0  0999 V2000
   15.7997   -9.1240  -15.6235 C   0  0  0  0  0  0  0  0  0  0  0  0
   16.8919  -10.1730  -15.6644 C   0  0  2  0  0  0  0  0  0  0  0  0
   16.4759  -11.2508  -14.7881 N   0  0  0  0  0  0  0  0  0  0  0  0
   18.1431   -9.5595  -15.1751 C   0  0  0  0  0  0  0  0  0  0  0  0
   18.3436   -9.2439  -13.9799 O   0  0  0  0  0  0  0  0  0  0  0  0
   23.5140  -10.7316  -17.9355 N   0  0  0  0  0  0  0  0  0  0  0  0
   22.9211  -11.4336  -16.8561 C   0  0  0  0  0  0  0  0  0  0  0  0
   23.2951  -12.5812  -16.6333 O   0  0  0  0  0  0  0  0  0  0  0  0
   21.8937  -10.7193  -16.0789 C   0  0  0  0  0  0  0  0  0  0  0  0
   21.5560   -9.3409  -16.5805 C   0  0  0  0  0  0  0  0  0  0  0  0
   20.4708   -8.7457  -15.7204 C   0  0  2  0  0  0  0  0  0  0  0  0
   19.1842   -9.3058  -16.0893 N   0  0  0  0  0  0  0  0  0  0  0  0
   20.4649   -7.2719  -15.7211 C   0  0  0  0  0  0  0  0  0  0  0  0
   19.7346   -6.7036  -16.5801 O   0  0  0  0  0  0  0  0  0  0  0  0
   21.2096   -6.4585  -14.8383 N   0  0  0  0  0  0  0  0  0  0  0  0
   22.0593   -6.8582  -13.7196 C   0  0  0  0  0  0  0  0  0  0  0  0
   21.9908   -5.6666  -12.7488 C   0  0  0  0  0  0  0  0  0  0  0  0
   22.0861   -4.5384  -13.7454 C   0  0  0  0  0  0  0  0  0  0  0  0
   21.2647   -5.0080  -14.8769 C   0  0  1  0  0  0  0  0  0  0  0  0
   21.7171   -4.4830  -16.1653 C   0  0  0  0  0  0  0  0  0  0  0  0
   21.4358   -3.2926  -16.4524 O   0  0  0  0  0  0  0  0  0  0  0  0
   22.4374   -5.2063  -17.0983 O   0  0  0  0  0  0  0  0  0  0  0  0
  2  3  1  0
  2  1  1  1
  4  2  1  0
  5  4  2  0
  6  7  1  0
  7  9  1  0
  7  8  2  0
  9 10  1  0
 11 10  1  6
 11 12  1  0
 12  4  1  0
 13 15  1  0
 13 11  1  0
 14 13  2  0
 15 19  1  0
 16 17  1  0
 16 15  1  0
 17 18  1  0
 18 19  1  0
 19 20  1  6
 20 21  2  0
 20 22  1  0
M  END
$$$$
