AQP.pdb
     RDKit          3D

 22 22  0  0  1  0  0  0  0  0999 V2000
   24.0646  -11.7494  -16.2746 C   0  0  0  0  0  0  0  0  0  0  0  0
   22.5584  -11.9102  -16.2568 C   0  0  2  0  0  0  0  0  0  0  0  0
   22.2166  -12.8114  -17.3401 N   0  0  0  0  0  0  0  0  0  0  0  0
   21.9474  -10.5830  -16.4730 C   0  0  0  0  0  0  0  0  0  0  0  0
   21.9512   -9.9851  -17.5734 O   0  0  0  0  0  0  0  0  0  0  0  0
   18.2312  -11.2266  -14.3671 N   0  0  0  0  0  0  0  0  0  0  0  0
   17.8614  -10.7263  -15.6408 C   0  0  0  0  0  0  0  0  0  0  0  0
   17.1294  -11.4144  -16.3458 O   0  0  0  0  0  0  0  0  0  0  0  0
   18.3903   -9.4043  -16.0183 C   0  0  0  0  0  0  0  0  0  0  0  0
   19.2525   -8.7400  -14.9785 C   0  0  0  0  0  0  0  0  0  0  0  0
   20.6675   -8.6415  -15.4881 C   0  0  2  0  0  0  0  0  0  0  0  0
   21.3188   -9.9345  -15.3922 N   0  0  0  0  0  0  0  0  0  0  0  0
   21.4479   -7.5684  -14.8467 C   0  0  0  0  0  0  0  0  0  0  0  0
   22.1015   -7.8773  -13.8115 O   0  0  0  0  0  0  0  0  0  0  0  0
   21.5165   -6.2332  -15.3029 N   0  0  0  0  0  0  0  0  0  0  0  0
   20.9331   -5.6440  -16.5052 C   0  0  0  0  0  0  0  0  0  0  0  0
   21.8795   -4.4821  -16.8537 C   0  0  0  0  0  0  0  0  0  0  0  0
   22.1144   -3.9386  -15.4665 C   0  0  0  0  0  0  0  0  0  0  0  0
   22.2180   -5.1519  -14.6342 C   0  0  1  0  0  0  0  0  0  0  0  0
   21.7694   -4.9384  -13.2583 C   0  0  0  0  0  0  0  0  0  0  0  0
   20.6167   -5.3264  -12.9431 O   0  0  0  0  0  0  0  0  0  0  0  0
   22.5268   -4.3357  -12.2704 O   0  0  0  0  0  0  0  0  0  0  0  0
  2  3  1  0
  2  1  1  6
  4  2  1  0
  5  4  2  0
  6  7  1  0
  7  9  1  0
  7  8  2  0
  9 10  1  0
 11 10  1  1
 11 12  1  0
 12  4  1  0
 13 15  1  0
 13 11  1  0
 14 13  2  0
 15 19  1  0
 16 17  1  0
 16 15  1  0
 17 18  1  0
 18 19  1  0
 19 20  1  1
 20 21  2  0
 20 22  1  0
M  END
$$$$
