AQP.pdb
     RDKit          3D

 22 22  0  0  1  0  0  0  0  0999 V2000
   44.2238   -4.2627   -8.5641 C   0  0  0  0  0  0  0  0  0  0  0  0
   42.8698   -4.2997   -7.8856 C   0  0  2  0  0  0  0  0  0  0  0  0
   42.8790   -3.2674   -6.8672 N   0  0  0  0  0  0  0  0  0  0  0  0
   42.6941   -5.6320   -7.2729 C   0  0  0  0  0  0  0  0  0  0  0  0
   43.4350   -6.0880   -6.3721 O   0  0  0  0  0  0  0  0  0  0  0  0
   37.2935   -8.9744   -7.2424 N   0  0  0  0  0  0  0  0  0  0  0  0
   38.2089   -9.8007   -6.5434 C   0  0  0  0  0  0  0  0  0  0  0  0
   37.7775  -10.8069   -5.9886 O   0  0  0  0  0  0  0  0  0  0  0  0
   39.6208   -9.3806   -6.5416 C   0  0  0  0  0  0  0  0  0  0  0  0
   39.8865   -8.0294   -7.1495 C   0  0  0  0  0  0  0  0  0  0  0  0
   41.3727   -7.7828   -7.1943 C   0  0  2  0  0  0  0  0  0  0  0  0
   41.6381   -6.4538   -7.7127 N   0  0  0  0  0  0  0  0  0  0  0  0
   42.1187   -8.8287   -7.9166 C   0  0  0  0  0  0  0  0  0  0  0  0
   42.1689   -8.7300   -9.1743 O   0  0  0  0  0  0  0  0  0  0  0  0
   42.7751   -9.9218   -7.3084 N   0  0  0  0  0  0  0  0  0  0  0  0
   42.9135  -10.2334   -5.8882 C   0  0  0  0  0  0  0  0  0  0  0  0
   44.2363  -11.0143   -5.8002 C   0  0  0  0  0  0  0  0  0  0  0  0
   44.0833  -11.8855   -7.0219 C   0  0  0  0  0  0  0  0  0  0  0  0
   43.4716  -10.9822   -8.0146 C   0  0  1  0  0  0  0  0  0  0  0  0
   42.6248  -11.6853   -8.9783 C   0  0  0  0  0  0  0  0  0  0  0  0
   43.1835  -12.3884   -9.8569 O   0  0  0  0  0  0  0  0  0  0  0  0
   41.2428  -11.6326   -8.9938 O   0  0  0  0  0  0  0  0  0  0  0  0
  2  3  1  0
  2  1  1  1
  4  2  1  0
  5  4  2  0
  6  7  1  0
  7  9  1  0
  7  8  2  0
  9 10  1  0
 11 10  1  6
 11 12  1  0
 12  4  1  0
 13 15  1  0
 13 11  1  0
 14 13  2  0
 15 19  1  0
 16 17  1  0
 16 15  1  0
 17 18  1  0
 18 19  1  0
 19 20  1  1
 20 21  2  0
 20 22  1  0
M  END
$$$$
