AQP.pdb
     RDKit          3D

 22 22  0  0  1  0  0  0  0  0999 V2000
   24.4883  -20.1132  -20.0107 C   0  0  0  0  0  0  0  0  0  0  0  0
   24.2607  -21.0387  -18.8333 C   0  0  2  0  0  0  0  0  0  0  0  0
   22.8271  -21.2145  -18.7046 N   0  0  0  0  0  0  0  0  0  0  0  0
   24.8157  -20.3967  -17.6244 C   0  0  0  0  0  0  0  0  0  0  0  0
   26.0093  -20.0345  -17.5133 O   0  0  0  0  0  0  0  0  0  0  0  0
   20.7171  -17.8953  -15.5978 N   0  0  0  0  0  0  0  0  0  0  0  0
   21.7251  -17.1472  -16.2563 C   0  0  0  0  0  0  0  0  0  0  0  0
   21.3795  -16.2970  -17.0713 O   0  0  0  0  0  0  0  0  0  0  0  0
   23.1220  -17.4533  -15.9032 C   0  0  0  0  0  0  0  0  0  0  0  0
   23.2981  -18.5315  -14.8677 C   0  0  0  0  0  0  0  0  0  0  0  0
   24.3812  -19.4812  -15.3112 C   0  0  2  0  0  0  0  0  0  0  0  0
   23.9706  -20.1695  -16.5207 N   0  0  0  0  0  0  0  0  0  0  0  0
   24.8144  -20.4112  -14.2531 C   0  0  0  0  0  0  0  0  0  0  0  0
   24.0575  -21.3918  -14.0089 O   0  0  0  0  0  0  0  0  0  0  0  0
   26.0036  -20.2852  -13.5011 N   0  0  0  0  0  0  0  0  0  0  0  0
   27.1050  -19.3426  -13.6784 C   0  0  0  0  0  0  0  0  0  0  0  0
   28.3344  -20.0921  -13.1363 C   0  0  0  0  0  0  0  0  0  0  0  0
   27.7157  -20.7134  -11.9091 C   0  0  0  0  0  0  0  0  0  0  0  0
   26.3710  -21.1122  -12.3655 C   0  0  1  0  0  0  0  0  0  0  0  0
   25.3766  -21.0922  -11.2928 C   0  0  0  0  0  0  0  0  0  0  0  0
   24.5099  -20.1827  -11.3042 O   0  0  0  0  0  0  0  0  0  0  0  0
   25.3196  -22.0084  -10.2583 O   0  0  0  0  0  0  0  0  0  0  0  0
  2  3  1  0
  2  1  1  6
  4  2  1  0
  5  4  2  0
  6  7  1  0
  7  9  1  0
  7  8  2  0
  9 10  1  0
 11 10  1  1
 11 12  1  0
 12  4  1  0
 13 15  1  0
 13 11  1  0
 14 13  2  0
 15 19  1  0
 16 17  1  0
 16 15  1  0
 17 18  1  0
 18 19  1  0
 19 20  1  1
 20 21  2  0
 20 22  1  0
M  END
$$$$
