AQP.pdb
     RDKit          3D

 22 22  0  0  1  0  0  0  0  0999 V2000
   29.1177  -18.6544  -17.6477 C   0  0  0  0  0  0  0  0  0  0  0  0
   27.6674  -18.9435  -17.9759 C   0  0  2  0  0  0  0  0  0  0  0  0
   27.2539  -17.9644  -18.9624 N   0  0  0  0  0  0  0  0  0  0  0  0
   26.8741  -18.8005  -16.7383 C   0  0  0  0  0  0  0  0  0  0  0  0
   27.0822  -17.9173  -15.8753 O   0  0  0  0  0  0  0  0  0  0  0  0
   20.8023  -19.2504  -16.4825 N   0  0  0  0  0  0  0  0  0  0  0  0
   21.1143  -19.2184  -15.1001 C   0  0  0  0  0  0  0  0  0  0  0  0
   20.1893  -19.1468  -14.2966 O   0  0  0  0  0  0  0  0  0  0  0  0
   22.5405  -19.2764  -14.7359 C   0  0  0  0  0  0  0  0  0  0  0  0
   23.4937  -19.3670  -15.8974 C   0  0  0  0  0  0  0  0  0  0  0  0
   24.8933  -19.5849  -15.3822 C   0  0  2  0  0  0  0  0  0  0  0  0
   25.8175  -19.6996  -16.4948 N   0  0  0  0  0  0  0  0  0  0  0  0
   25.0019  -20.7134  -14.4406 C   0  0  0  0  0  0  0  0  0  0  0  0
   24.8622  -21.8732  -14.9197 O   0  0  0  0  0  0  0  0  0  0  0  0
   25.2492  -20.5914  -13.0551 N   0  0  0  0  0  0  0  0  0  0  0  0
   25.4978  -19.3846  -12.2709 C   0  0  0  0  0  0  0  0  0  0  0  0
   26.3768  -19.8670  -11.1039 C   0  0  0  0  0  0  0  0  0  0  0  0
   25.6655  -21.1582  -10.7847 C   0  0  0  0  0  0  0  0  0  0  0  0
   25.3120  -21.6942  -12.1126 C   0  0  1  0  0  0  0  0  0  0  0  0
   24.0949  -22.5055  -12.0935 C   0  0  0  0  0  0  0  0  0  0  0  0
   24.1501  -23.6454  -11.5680 O   0  0  0  0  0  0  0  0  0  0  0  0
   22.8778  -22.1070  -12.6155 O   0  0  0  0  0  0  0  0  0  0  0  0
  2  3  1  0
  2  1  1  1
  4  2  1  0
  5  4  2  0
  6  7  1  0
  7  9  1  0
  7  8  2  0
  9 10  1  0
 11 10  1  6
 11 12  1  0
 12  4  1  0
 13 15  1  0
 13 11  1  0
 14 13  2  0
 15 19  1  0
 16 17  1  0
 16 15  1  0
 17 18  1  0
 18 19  1  0
 19 20  1  1
 20 21  2  0
 20 22  1  0
M  END
$$$$
