AQP.pdb
     RDKit          3D

 22 22  0  0  1  0  0  0  0  0999 V2000
   28.1304  -22.7556  -18.0226 C   0  0  0  0  0  0  0  0  0  0  0  0
   28.4888  -23.1482  -16.6041 C   0  0  2  0  0  0  0  0  0  0  0  0
   28.8365  -24.5557  -16.6300 N   0  0  0  0  0  0  0  0  0  0  0  0
   27.3074  -22.9209  -15.7472 C   0  0  0  0  0  0  0  0  0  0  0  0
   26.3690  -23.7406  -15.6223 O   0  0  0  0  0  0  0  0  0  0  0  0
   26.4763  -21.9625  -10.7126 N   0  0  0  0  0  0  0  0  0  0  0  0
   25.4099  -21.0453  -10.8887 C   0  0  0  0  0  0  0  0  0  0  0  0
   24.5230  -21.0149  -10.0409 O   0  0  0  0  0  0  0  0  0  0  0  0
   25.4548  -20.1913  -12.0882 C   0  0  0  0  0  0  0  0  0  0  0  0
   26.5900  -20.4772  -13.0344 C   0  0  0  0  0  0  0  0  0  0  0  0
   26.1107  -21.3929  -14.1313 C   0  0  2  0  0  0  0  0  0  0  0  0
   27.2107  -21.7187  -15.0196 N   0  0  0  0  0  0  0  0  0  0  0  0
   24.9361  -20.8752  -14.8553 C   0  0  0  0  0  0  0  0  0  0  0  0
   25.1357  -19.9271  -15.6649 O   0  0  0  0  0  0  0  0  0  0  0  0
   23.6169  -21.3593  -14.7100 N   0  0  0  0  0  0  0  0  0  0  0  0
   23.1283  -22.4526  -13.8740 C   0  0  0  0  0  0  0  0  0  0  0  0
   21.8931  -22.9792  -14.6250 C   0  0  0  0  0  0  0  0  0  0  0  0
   21.2822  -21.6630  -15.0364 C   0  0  0  0  0  0  0  0  0  0  0  0
   22.4506  -20.8404  -15.4021 C   0  0  1  0  0  0  0  0  0  0  0  0
   22.2344  -19.4115  -15.1749 C   0  0  0  0  0  0  0  0  0  0  0  0
   22.9270  -18.8390  -14.2968 O   0  0  0  0  0  0  0  0  0  0  0  0
   21.3162  -18.6378  -15.8612 O   0  0  0  0  0  0  0  0  0  0  0  0
  2  3  1  0
  2  1  1  6
  4  2  1  0
  5  4  2  0
  6  7  1  0
  7  9  1  0
  7  8  2  0
  9 10  1  0
 11 10  1  1
 11 12  1  0
 12  4  1  0
 13 15  1  0
 13 11  1  0
 14 13  2  0
 15 19  1  0
 16 17  1  0
 16 15  1  0
 17 18  1  0
 18 19  1  0
 19 20  1  1
 20 21  2  0
 20 22  1  0
M  END
$$$$
