ENY.pdb
     RDKit          3D

 30 30  0  0  1  0  0  0  0  0999 V2000
   20.1575  -18.2247  -16.1513 N   0  0  0  0  0  0  0  0  0  0  0  0
   21.6314  -18.2127  -15.9722 C   0  0  1  0  0  0  0  0  0  0  0  0
   22.0125  -16.8157  -15.5410 C   0  0  0  0  0  0  0  0  0  0  0  0
   21.8455  -15.7611  -16.5762 C   0  0  0  0  0  0  0  0  0  0  0  0
   22.8867  -15.9587  -17.6445 C   0  0  0  0  0  0  0  0  0  0  0  0
   22.5007  -16.0453  -18.8313 O   0  0  0  0  0  0  0  0  0  0  0  0
   21.9325  -19.2619  -15.0070 C   0  0  0  0  0  0  0  0  0  0  0  0
   21.1994  -19.4500  -13.9721 O   0  0  0  0  0  0  0  0  0  0  0  0
   24.2365  -16.0483  -17.3794 O   0  0  0  0  0  0  0  0  0  0  0  0
   24.6613  -24.5201  -13.8498 N   0  0  0  0  0  0  0  0  0  0  0  0
   23.5857  -23.5632  -13.6775 C   0  0  0  0  0  0  0  0  0  0  0  0
   22.9272  -23.7346  -12.6196 O   0  0  0  0  0  0  0  0  0  0  0  0
   23.3313  -22.5150  -14.6702 C   0  0  0  0  0  0  0  0  0  0  0  0
   23.2911  -21.1659  -14.0592 C   0  0  2  0  0  0  0  0  0  0  0  0
   23.0334  -20.1812  -15.0830 N   0  0  0  0  0  0  0  0  0  0  0  0
   24.4918  -20.8342  -13.2555 C   0  0  0  0  0  0  0  0  0  0  0  0
   25.4875  -20.3703  -13.8719 O   0  0  0  0  0  0  0  0  0  0  0  0
   29.6768  -19.0045   -6.4181 O   0  0  0  0  0  0  0  0  0  0  0  0
   28.6952  -19.5419   -7.2435 C   0  0  0  0  0  0  0  0  0  0  0  0
   27.5281  -18.8108   -7.3762 C   0  0  0  0  0  0  0  0  0  0  0  0
   26.5198  -19.3059   -8.1889 C   0  0  0  0  0  0  0  0  0  0  0  0
   26.6777  -20.5050   -8.8526 C   0  0  0  0  0  0  0  0  0  0  0  0
   25.5744  -21.0002   -9.7029 C   0  0  0  0  0  0  0  0  0  0  0  0
   25.8350  -20.7356  -11.1646 C   0  0  2  0  0  0  0  0  0  0  0  0
   24.5833  -21.0037  -11.8711 N   0  0  0  0  0  0  0  0  0  0  0  0
   26.8989  -21.5624  -11.7418 C   0  0  0  0  0  0  0  0  0  0  0  0
   28.1188  -21.0004  -12.0519 O   0  0  0  0  0  0  0  0  0  0  0  0
   27.8464  -21.2170   -8.7069 C   0  0  0  0  0  0  0  0  0  0  0  0
   28.8589  -20.7305   -7.8976 C   0  0  0  0  0  0  0  0  0  0  0  0
   26.7064  -22.7783  -11.9556 O   0  0  0  0  0  0  0  0  0  0  0  0
  2  1  1  1
  2  3  1  0
  3  4  1  0
  4  5  1  0
  5  6  2  0
  5  9  1  0
  7  8  2  0
  7  2  1  0
 10 11  1  0
 11 12  2  0
 11 13  1  0
 14 13  1  6
 14 15  1  0
 15  7  1  0
 16 25  1  0
 16 14  1  0
 17 16  2  0
 19 18  1  0
 20 19  2  0
 21 20  1  0
 22 21  2  0
 22 28  1  0
 24 23  1  1
 23 22  1  0
 24 26  1  0
 24 25  1  0
 26 27  1  0
 28 29  2  0
 29 19  1  0
 30 26  2  0
M  END
$$$$
