ENY.pdb
     RDKit          3D

 30 30  0  0  1  0  0  0  0  0999 V2000
   28.6596  -14.2017  -23.5642 N   0  0  0  0  0  0  0  0  0  0  0  0
   28.2782  -14.5560  -22.1737 C   0  0  1  0  0  0  0  0  0  0  0  0
   27.5177  -13.3782  -21.6106 C   0  0  0  0  0  0  0  0  0  0  0  0
   26.2585  -13.0330  -22.3229 C   0  0  0  0  0  0  0  0  0  0  0  0
   25.6335  -11.8383  -21.6547 C   0  0  0  0  0  0  0  0  0  0  0  0
   26.1662  -10.7206  -21.8334 O   0  0  0  0  0  0  0  0  0  0  0  0
   27.5193  -15.7967  -22.2635 C   0  0  0  0  0  0  0  0  0  0  0  0
   26.9031  -16.1282  -23.3378 O   0  0  0  0  0  0  0  0  0  0  0  0
   24.5095  -11.9164  -20.8605 O   0  0  0  0  0  0  0  0  0  0  0  0
   25.5065  -20.4922  -21.8788 N   0  0  0  0  0  0  0  0  0  0  0  0
   26.8767  -20.4310  -21.4085 C   0  0  0  0  0  0  0  0  0  0  0  0
   27.4071  -21.5621  -21.2621 O   0  0  0  0  0  0  0  0  0  0  0  0
   27.5354  -19.1486  -21.1439 C   0  0  0  0  0  0  0  0  0  0  0  0
   26.6380  -17.9975  -21.3982 C   0  0  2  0  0  0  0  0  0  0  0  0
   27.3699  -16.7666  -21.2149 N   0  0  0  0  0  0  0  0  0  0  0  0
   25.3856  -18.0254  -20.6054 C   0  0  0  0  0  0  0  0  0  0  0  0
   25.4560  -17.6535  -19.4040 O   0  0  0  0  0  0  0  0  0  0  0  0
   16.9098  -18.2160  -18.3440 O   0  0  0  0  0  0  0  0  0  0  0  0
   18.1126  -18.2731  -19.0394 C   0  0  0  0  0  0  0  0  0  0  0  0
   18.6942  -17.0627  -19.3724 C   0  0  0  0  0  0  0  0  0  0  0  0
   19.8947  -17.0682  -20.0662 C   0  0  0  0  0  0  0  0  0  0  0  0
   20.4975  -18.2583  -20.4175 C   0  0  0  0  0  0  0  0  0  0  0  0
   21.7731  -18.2187  -21.1638 C   0  0  0  0  0  0  0  0  0  0  0  0
   22.9575  -18.4341  -20.2552 C   0  0  2  0  0  0  0  0  0  0  0  0
   24.1465  -18.4348  -21.1061 N   0  0  0  0  0  0  0  0  0  0  0  0
   22.9092  -19.6873  -19.4964 C   0  0  0  0  0  0  0  0  0  0  0  0
   22.3791  -19.7041  -18.2241 O   0  0  0  0  0  0  0  0  0  0  0  0
   19.9023  -19.4515  -20.0768 C   0  0  0  0  0  0  0  0  0  0  0  0
   18.7037  -19.4560  -19.3840 C   0  0  0  0  0  0  0  0  0  0  0  0
   23.3473  -20.7448  -19.9974 O   0  0  0  0  0  0  0  0  0  0  0  0
  2  1  1  6
  2  3  1  0
  3  4  1  0
  4  5  1  0
  5  6  2  0
  5  9  1  0
  7  8  2  0
  7  2  1  0
 10 11  1  0
 11 12  2  0
 11 13  1  0
 14 13  1  1
 14 15  1  0
 15  7  1  0
 16 25  1  0
 16 14  1  0
 17 16  2  0
 19 18  1  0
 20 19  2  0
 21 20  1  0
 22 21  2  0
 22 28  1  0
 24 23  1  6
 23 22  1  0
 24 26  1  0
 24 25  1  0
 26 27  1  0
 28 29  2  0
 29 19  1  0
 30 26  2  0
M  END
$$$$
