ENY.pdb
     RDKit          3D

 30 30  0  0  1  0  0  0  0  0999 V2000
   26.2445   -7.0394  -20.7724 N   0  0  0  0  0  0  0  0  0  0  0  0
   26.6633   -7.6866  -19.5034 C   0  0  1  0  0  0  0  0  0  0  0  0
   28.1735   -7.6596  -19.4712 C   0  0  0  0  0  0  0  0  0  0  0  0
   28.8451   -8.0324  -20.7447 C   0  0  0  0  0  0  0  0  0  0  0  0
   30.3341   -7.9146  -20.5621 C   0  0  0  0  0  0  0  0  0  0  0  0
   30.8923   -6.8661  -20.9546 O   0  0  0  0  0  0  0  0  0  0  0  0
   26.0083   -6.9455  -18.4333 C   0  0  0  0  0  0  0  0  0  0  0  0
   26.1669   -7.2665  -17.2023 O   0  0  0  0  0  0  0  0  0  0  0  0
   31.1071   -8.9004  -19.9869 O   0  0  0  0  0  0  0  0  0  0  0  0
   23.7035   -3.4405  -15.4238 N   0  0  0  0  0  0  0  0  0  0  0  0
   24.1862   -2.8222  -16.6432 C   0  0  0  0  0  0  0  0  0  0  0  0
   24.1878   -1.5651  -16.6010 O   0  0  0  0  0  0  0  0  0  0  0  0
   24.6193   -3.6294  -17.7876 C   0  0  0  0  0  0  0  0  0  0  0  0
   24.5955   -5.0802  -17.4878 C   0  0  2  0  0  0  0  0  0  0  0  0
   25.1434   -5.8118  -18.6053 N   0  0  0  0  0  0  0  0  0  0  0  0
   23.2620   -5.5892  -17.0875 C   0  0  0  0  0  0  0  0  0  0  0  0
   22.3879   -5.6862  -17.9892 O   0  0  0  0  0  0  0  0  0  0  0  0
   17.0044  -10.3061  -13.3295 O   0  0  0  0  0  0  0  0  0  0  0  0
   18.1882   -9.7292  -13.7758 C   0  0  0  0  0  0  0  0  0  0  0  0
   18.9625   -9.0881  -12.8251 C   0  0  0  0  0  0  0  0  0  0  0  0
   20.1525   -8.4974  -13.2221 C   0  0  0  0  0  0  0  0  0  0  0  0
   20.5564   -8.5481  -14.5403 C   0  0  0  0  0  0  0  0  0  0  0  0
   21.8282   -7.8984  -14.9220 C   0  0  0  0  0  0  0  0  0  0  0  0
   21.6020   -6.5176  -15.4850 C   0  0  2  0  0  0  0  0  0  0  0  0
   22.9214   -5.9634  -15.7845 N   0  0  0  0  0  0  0  0  0  0  0  0
   20.8946   -5.6100  -14.5771 C   0  0  0  0  0  0  0  0  0  0  0  0
   21.5767   -4.9857  -13.5548 O   0  0  0  0  0  0  0  0  0  0  0  0
   19.7714   -9.1906  -15.4704 C   0  0  0  0  0  0  0  0  0  0  0  0
   18.5817   -9.7835  -15.0834 C   0  0  0  0  0  0  0  0  0  0  0  0
   19.6721   -5.3976  -14.7243 O   0  0  0  0  0  0  0  0  0  0  0  0
  2  1  1  6
  2  3  1  0
  3  4  1  0
  4  5  1  0
  5  6  2  0
  5  9  1  0
  7  8  2  0
  7  2  1  0
 10 11  1  0
 11 12  2  0
 11 13  1  0
 14 13  1  6
 14 15  1  0
 15  7  1  0
 16 25  1  0
 16 14  1  0
 17 16  2  0
 19 18  1  0
 20 19  2  0
 21 20  1  0
 22 21  2  0
 22 28  1  0
 24 23  1  1
 23 22  1  0
 24 26  1  0
 24 25  1  0
 26 27  1  0
 28 29  2  0
 29 19  1  0
 30 26  2  0
M  END
$$$$
