ENY.pdb
     RDKit          3D

 30 30  0  0  1  0  0  0  0  0999 V2000
   16.5735  -10.0624  -18.6000 N   0  0  0  0  0  0  0  0  0  0  0  0
   16.8216   -9.2318  -17.3946 C   0  0  1  0  0  0  0  0  0  0  0  0
   17.2937  -10.1653  -16.3045 C   0  0  0  0  0  0  0  0  0  0  0  0
   16.2631  -11.0956  -15.7712 C   0  0  0  0  0  0  0  0  0  0  0  0
   16.9256  -12.0718  -14.8371 C   0  0  0  0  0  0  0  0  0  0  0  0
   18.1073  -11.8464  -14.4943 O   0  0  0  0  0  0  0  0  0  0  0  0
   17.7822   -8.2115  -17.7943 C   0  0  0  0  0  0  0  0  0  0  0  0
   18.2957   -8.1990  -18.9690 O   0  0  0  0  0  0  0  0  0  0  0  0
   16.2963  -13.1952  -14.3446 O   0  0  0  0  0  0  0  0  0  0  0  0
   19.6802   -4.3482  -20.4136 N   0  0  0  0  0  0  0  0  0  0  0  0
   18.9168   -4.2433  -19.1853 C   0  0  0  0  0  0  0  0  0  0  0  0
   18.9175   -3.0862  -18.6922 O   0  0  0  0  0  0  0  0  0  0  0  0
   18.2283   -5.4045  -18.6141 C   0  0  0  0  0  0  0  0  0  0  0  0
   18.9953   -6.0175  -17.5045 C   0  0  2  0  0  0  0  0  0  0  0  0
   18.2563   -7.1361  -16.9688 N   0  0  0  0  0  0  0  0  0  0  0  0
   19.3967   -5.0571  -16.4490 C   0  0  0  0  0  0  0  0  0  0  0  0
   18.4758   -4.5227  -15.7759 O   0  0  0  0  0  0  0  0  0  0  0  0
   20.7296   -9.9429  -12.7113 O   0  0  0  0  0  0  0  0  0  0  0  0
   21.0591   -8.6382  -13.0614 C   0  0  0  0  0  0  0  0  0  0  0  0
   21.9196   -8.4824  -14.1335 C   0  0  0  0  0  0  0  0  0  0  0  0
   22.2775   -7.1999  -14.5205 C   0  0  0  0  0  0  0  0  0  0  0  0
   21.7846   -6.1003  -13.8489 C   0  0  0  0  0  0  0  0  0  0  0  0
   22.1980   -4.7511  -14.2895 C   0  0  0  0  0  0  0  0  0  0  0  0
   21.0576   -3.9997  -14.9294 C   0  0  2  0  0  0  0  0  0  0  0  0
   20.7204   -4.7136  -16.1600 N   0  0  0  0  0  0  0  0  0  0  0  0
   21.3677   -2.6041  -15.2533 C   0  0  0  0  0  0  0  0  0  0  0  0
   21.5845   -1.6925  -14.2425 O   0  0  0  0  0  0  0  0  0  0  0  0
   20.9299   -6.2771  -12.7847 C   0  0  0  0  0  0  0  0  0  0  0  0
   20.5669   -7.5538  -12.3911 C   0  0  0  0  0  0  0  0  0  0  0  0
   21.4370   -2.2340  -16.4448 O   0  0  0  0  0  0  0  0  0  0  0  0
  2  1  1  6
  2  3  1  0
  3  4  1  0
  4  5  1  0
  5  6  2  0
  5  9  1  0
  7  8  2  0
  7  2  1  0
 10 11  1  0
 11 12  2  0
 11 13  1  0
 14 13  1  6
 14 15  1  0
 15  7  1  0
 16 25  1  0
 16 14  1  0
 17 16  2  0
 19 18  1  0
 20 19  2  0
 21 20  1  0
 22 21  2  0
 22 28  1  0
 24 23  1  6
 23 22  1  0
 24 26  1  0
 24 25  1  0
 26 27  1  0
 28 29  2  0
 29 19  1  0
 30 26  2  0
M  END
$$$$
