ENY.pdb
     RDKit          3D

 30 30  0  0  1  0  0  0  0  0999 V2000
   28.5356  -19.8768  -15.3924 N   0  0  0  0  0  0  0  0  0  0  0  0
   27.4115  -19.0821  -15.9487 C   0  0  1  0  0  0  0  0  0  0  0  0
   27.4687  -19.2280  -17.4514 C   0  0  0  0  0  0  0  0  0  0  0  0
   26.4450  -18.4572  -18.2062 C   0  0  0  0  0  0  0  0  0  0  0  0
   25.4404  -19.4176  -18.7831 C   0  0  0  0  0  0  0  0  0  0  0  0
   24.2516  -19.3201  -18.4060 O   0  0  0  0  0  0  0  0  0  0  0  0
   26.2005  -19.5968  -15.3228 C   0  0  0  0  0  0  0  0  0  0  0  0
   25.2927  -18.8105  -14.8740 O   0  0  0  0  0  0  0  0  0  0  0  0
   25.7656  -20.3932  -19.7011 O   0  0  0  0  0  0  0  0  0  0  0  0
   21.8789  -21.9298  -14.1039 N   0  0  0  0  0  0  0  0  0  0  0  0
   22.7271  -22.8924  -14.7793 C   0  0  0  0  0  0  0  0  0  0  0  0
   22.2090  -24.0343  -14.8783 O   0  0  0  0  0  0  0  0  0  0  0  0
   24.0536  -22.5205  -15.2802 C   0  0  0  0  0  0  0  0  0  0  0  0
   24.6545  -21.4138  -14.4997 C   0  0  2  0  0  0  0  0  0  0  0  0
   25.8766  -20.9836  -15.1366 N   0  0  0  0  0  0  0  0  0  0  0  0
   24.8542  -21.7297  -13.0651 C   0  0  0  0  0  0  0  0  0  0  0  0
   23.8224  -21.9158  -12.3671 O   0  0  0  0  0  0  0  0  0  0  0  0
   28.4015  -19.1669   -5.5587 O   0  0  0  0  0  0  0  0  0  0  0  0
   28.1948  -19.5472   -6.8801 C   0  0  0  0  0  0  0  0  0  0  0  0
   27.2350  -18.8428   -7.5852 C   0  0  0  0  0  0  0  0  0  0  0  0
   26.9931  -19.1854   -8.9067 C   0  0  0  0  0  0  0  0  0  0  0  0
   27.6963  -20.2093   -9.5070 C   0  0  0  0  0  0  0  0  0  0  0  0
   27.4013  -20.5470  -10.9157 C   0  0  0  0  0  0  0  0  0  0  0  0
   26.2655  -21.5330  -11.0267 C   0  0  2  0  0  0  0  0  0  0  0  0
   26.1046  -21.8321  -12.4487 N   0  0  0  0  0  0  0  0  0  0  0  0
   24.9923  -21.0414  -10.4921 C   0  0  0  0  0  0  0  0  0  0  0  0
   24.5359  -21.4915   -9.2718 O   0  0  0  0  0  0  0  0  0  0  0  0
   28.6467  -20.8977   -8.7880 C   0  0  0  0  0  0  0  0  0  0  0  0
   28.8953  -20.5627   -7.4679 C   0  0  0  0  0  0  0  0  0  0  0  0
   24.3149  -20.2137  -11.1382 O   0  0  0  0  0  0  0  0  0  0  0  0
  2  1  1  1
  2  3  1  0
  3  4  1  0
  4  5  1  0
  5  6  2  0
  5  9  1  0
  7  8  2  0
  7  2  1  0
 10 11  1  0
 11 12  2  0
 11 13  1  0
 14 13  1  6
 14 15  1  0
 15  7  1  0
 16 25  1  0
 16 14  1  0
 17 16  2  0
 19 18  1  0
 20 19  2  0
 21 20  1  0
 22 21  2  0
 22 28  1  0
 24 23  1  6
 23 22  1  0
 24 26  1  0
 24 25  1  0
 26 27  1  0
 28 29  2  0
 29 19  1  0
 30 26  2  0
M  END
$$$$
