ENY.pdb
     RDKit          3D

 30 30  0  0  1  0  0  0  0  0999 V2000
   20.3772  -33.1166  -14.1878 N   0  0  0  0  0  0  0  0  0  0  0  0
   21.7519  -32.7152  -14.5795 C   0  0  1  0  0  0  0  0  0  0  0  0
   21.6332  -31.9285  -15.8639 C   0  0  0  0  0  0  0  0  0  0  0  0
   21.2434  -32.7189  -17.0619 C   0  0  0  0  0  0  0  0  0  0  0  0
   21.3113  -31.8301  -18.2744 C   0  0  0  0  0  0  0  0  0  0  0  0
   21.4511  -30.6003  -18.0933 O   0  0  0  0  0  0  0  0  0  0  0  0
   22.2973  -31.9752  -13.4489 C   0  0  0  0  0  0  0  0  0  0  0  0
   23.4349  -31.3880  -13.5192 O   0  0  0  0  0  0  0  0  0  0  0  0
   21.2273  -32.3035  -19.5663 O   0  0  0  0  0  0  0  0  0  0  0  0
   20.0710  -28.8986  -12.2991 N   0  0  0  0  0  0  0  0  0  0  0  0
   20.9544  -28.9591  -11.1510 C   0  0  0  0  0  0  0  0  0  0  0  0
   21.4567  -27.8469  -10.8461 O   0  0  0  0  0  0  0  0  0  0  0  0
   21.2053  -30.2204  -10.4475 C   0  0  0  0  0  0  0  0  0  0  0  0
   22.2555  -31.0291  -11.1096 C   0  0  2  0  0  0  0  0  0  0  0  0
   21.6645  -31.8103  -12.1702 N   0  0  0  0  0  0  0  0  0  0  0  0
   23.0481  -31.8646  -10.1763 C   0  0  0  0  0  0  0  0  0  0  0  0
   23.9856  -32.5470  -10.6683 O   0  0  0  0  0  0  0  0  0  0  0  0
   28.4137  -34.8741   -4.3238 O   0  0  0  0  0  0  0  0  0  0  0  0
   27.5460  -34.1573   -5.1404 C   0  0  0  0  0  0  0  0  0  0  0  0
   27.5142  -34.5153   -6.4765 C   0  0  0  0  0  0  0  0  0  0  0  0
   26.6642  -33.8293   -7.3306 C   0  0  0  0  0  0  0  0  0  0  0  0
   25.8655  -32.8091   -6.8567 C   0  0  0  0  0  0  0  0  0  0  0  0
   24.9796  -32.0986   -7.8031 C   0  0  0  0  0  0  0  0  0  0  0  0
   23.6477  -32.7914   -7.9475 C   0  0  2  0  0  0  0  0  0  0  0  0
   22.8197  -31.9390   -8.7993 N   0  0  0  0  0  0  0  0  0  0  0  0
   22.9526  -33.0218   -6.6778 C   0  0  0  0  0  0  0  0  0  0  0  0
   23.3605  -34.0392   -5.8420 O   0  0  0  0  0  0  0  0  0  0  0  0
   25.9125  -32.4684   -5.5241 C   0  0  0  0  0  0  0  0  0  0  0  0
   26.7579  -33.1478   -4.6637 C   0  0  0  0  0  0  0  0  0  0  0  0
   21.9885  -32.2991   -6.3467 O   0  0  0  0  0  0  0  0  0  0  0  0
  2  1  1  1
  2  3  1  0
  3  4  1  0
  4  5  1  0
  5  6  2  0
  5  9  1  0
  7  8  2  0
  7  2  1  0
 10 11  1  0
 11 12  2  0
 11 13  1  0
 14 13  1  1
 14 15  1  0
 15  7  1  0
 16 25  1  0
 16 14  1  0
 17 16  2  0
 19 18  1  0
 20 19  2  0
 21 20  1  0
 22 21  2  0
 22 28  1  0
 24 23  1  1
 23 22  1  0
 24 26  1  0
 24 25  1  0
 26 27  1  0
 28 29  2  0
 29 19  1  0
 30 26  2  0
M  END
$$$$
