ENY.pdb
     RDKit          3D

 30 30  0  0  1  0  0  0  0  0999 V2000
   18.6483  -12.9918  -17.1549 N   0  0  0  0  0  0  0  0  0  0  0  0
   20.1307  -13.0336  -17.2264 C   0  0  1  0  0  0  0  0  0  0  0  0
   20.4916  -13.9161  -18.3984 C   0  0  0  0  0  0  0  0  0  0  0  0
   19.5670  -15.0539  -18.6482 C   0  0  0  0  0  0  0  0  0  0  0  0
   20.3793  -16.2995  -18.8781 C   0  0  0  0  0  0  0  0  0  0  0  0
   21.6074  -16.2506  -18.6449 O   0  0  0  0  0  0  0  0  0  0  0  0
   20.5719  -11.6491  -17.3356 C   0  0  0  0  0  0  0  0  0  0  0  0
   21.8166  -11.3433  -17.3640 O   0  0  0  0  0  0  0  0  0  0  0  0
   19.8382  -17.4840  -19.3304 O   0  0  0  0  0  0  0  0  0  0  0  0
   21.0379   -8.2310  -20.6695 N   0  0  0  0  0  0  0  0  0  0  0  0
   19.9213   -8.8903  -20.0208 C   0  0  0  0  0  0  0  0  0  0  0  0
   19.4118   -9.8094  -20.7120 O   0  0  0  0  0  0  0  0  0  0  0  0
   19.4683   -8.4868  -18.6864 C   0  0  0  0  0  0  0  0  0  0  0  0
   20.2294   -9.1639  -17.6105 C   0  0  2  0  0  0  0  0  0  0  0  0
   19.7150  -10.5000  -17.4244 N   0  0  0  0  0  0  0  0  0  0  0  0
   20.2788   -8.4029  -16.3392 C   0  0  0  0  0  0  0  0  0  0  0  0
   19.4148   -8.6826  -15.4664 O   0  0  0  0  0  0  0  0  0  0  0  0
   26.4790   -4.6610  -17.6087 O   0  0  0  0  0  0  0  0  0  0  0  0
   25.5059   -5.1426  -16.7400 C   0  0  0  0  0  0  0  0  0  0  0  0
   25.2415   -6.4996  -16.7961 C   0  0  0  0  0  0  0  0  0  0  0  0
   24.2790   -7.0270  -15.9488 C   0  0  0  0  0  0  0  0  0  0  0  0
   23.5980   -6.2137  -15.0667 C   0  0  0  0  0  0  0  0  0  0  0  0
   22.5741   -6.8158  -14.1866 C   0  0  0  0  0  0  0  0  0  0  0  0
   21.1913   -6.6963  -14.7770 C   0  0  2  0  0  0  0  0  0  0  0  0
   21.2162   -7.4057  -16.0552 N   0  0  0  0  0  0  0  0  0  0  0  0
   20.7544   -5.3154  -15.0024 C   0  0  0  0  0  0  0  0  0  0  0  0
   20.4540   -4.5026  -13.9304 O   0  0  0  0  0  0  0  0  0  0  0  0
   23.8759   -4.8664  -15.0269 C   0  0  0  0  0  0  0  0  0  0  0  0
   24.8354   -4.3308  -15.8689 C   0  0  0  0  0  0  0  0  0  0  0  0
   20.6520   -4.8684  -16.1647 O   0  0  0  0  0  0  0  0  0  0  0  0
  2  1  1  6
  2  3  1  0
  3  4  1  0
  4  5  1  0
  5  6  2  0
  5  9  1  0
  7  8  2  0
  7  2  1  0
 10 11  1  0
 11 12  2  0
 11 13  1  0
 14 13  1  6
 14 15  1  0
 15  7  1  0
 16 25  1  0
 16 14  1  0
 17 16  2  0
 19 18  1  0
 20 19  2  0
 21 20  1  0
 22 21  2  0
 22 28  1  0
 24 23  1  6
 23 22  1  0
 24 26  1  0
 24 25  1  0
 26 27  1  0
 28 29  2  0
 29 19  1  0
 30 26  2  0
M  END
$$$$
