ENY.pdb
     RDKit          3D

 30 30  0  0  1  0  0  0  0  0999 V2000
   21.8165  -10.4775  -17.1787 N   0  0  0  0  0  0  0  0  0  0  0  0
   20.7135   -9.7225  -17.8252 C   0  0  1  0  0  0  0  0  0  0  0  0
   19.5647  -10.6870  -18.0060 C   0  0  0  0  0  0  0  0  0  0  0  0
   19.9014  -11.9556  -18.7052 C   0  0  0  0  0  0  0  0  0  0  0  0
   20.2499  -12.9993  -17.6786 C   0  0  0  0  0  0  0  0  0  0  0  0
   21.1612  -13.8110  -17.9531 O   0  0  0  0  0  0  0  0  0  0  0  0
   20.4358   -8.5852  -16.9575 C   0  0  0  0  0  0  0  0  0  0  0  0
   19.4794   -7.7692  -17.2088 O   0  0  0  0  0  0  0  0  0  0  0  0
   19.6168  -13.1027  -16.4585 O   0  0  0  0  0  0  0  0  0  0  0  0
   18.9291   -8.4843  -13.7143 N   0  0  0  0  0  0  0  0  0  0  0  0
   20.0929   -8.0587  -12.9615 C   0  0  0  0  0  0  0  0  0  0  0  0
   20.0795   -8.4370  -11.7619 O   0  0  0  0  0  0  0  0  0  0  0  0
   21.1559   -7.2650  -13.5850 C   0  0  0  0  0  0  0  0  0  0  0  0
   20.9043   -7.0298  -15.0260 C   0  0  2  0  0  0  0  0  0  0  0  0
   21.1579   -8.2448  -15.7636 N   0  0  0  0  0  0  0  0  0  0  0  0
   21.6447   -5.8733  -15.5843 C   0  0  0  0  0  0  0  0  0  0  0  0
   22.8960   -5.8664  -15.4403 O   0  0  0  0  0  0  0  0  0  0  0  0
   23.8205    1.2666  -20.1461 O   0  0  0  0  0  0  0  0  0  0  0  0
   23.3061    0.0639  -19.6747 C   0  0  0  0  0  0  0  0  0  0  0  0
   22.0372    0.1053  -19.1246 C   0  0  0  0  0  0  0  0  0  0  0  0
   21.4814   -1.0692  -18.6408 C   0  0  0  0  0  0  0  0  0  0  0  0
   22.1808   -2.2566  -18.7069 C   0  0  0  0  0  0  0  0  0  0  0  0
   21.5540   -3.4841  -18.1723 C   0  0  0  0  0  0  0  0  0  0  0  0
   21.8369   -3.6594  -16.7013 C   0  0  2  0  0  0  0  0  0  0  0  0
   21.0438   -4.8030  -16.2530 N   0  0  0  0  0  0  0  0  0  0  0  0
   21.4991   -2.4906  -15.8838 C   0  0  0  0  0  0  0  0  0  0  0  0
   22.4335   -1.4982  -15.6784 O   0  0  0  0  0  0  0  0  0  0  0  0
   23.4419   -2.2762  -19.2578 C   0  0  0  0  0  0  0  0  0  0  0  0
   24.0050   -1.1084  -19.7435 C   0  0  0  0  0  0  0  0  0  0  0  0
   20.3649   -2.3875  -15.3695 O   0  0  0  0  0  0  0  0  0  0  0  0
  2  1  1  1
  2  3  1  0
  3  4  1  0
  4  5  1  0
  5  6  2  0
  5  9  1  0
  7  8  2  0
  7  2  1  0
 10 11  1  0
 11 12  2  0
 11 13  1  0
 14 13  1  1
 14 15  1  0
 15  7  1  0
 16 25  1  0
 16 14  1  0
 17 16  2  0
 19 18  1  0
 20 19  2  0
 21 20  1  0
 22 21  2  0
 22 28  1  0
 24 23  1  6
 23 22  1  0
 24 26  1  0
 24 25  1  0
 26 27  1  0
 28 29  2  0
 29 19  1  0
 30 26  2  0
M  END
$$$$
