ENY.pdb
     RDKit          3D

 30 30  0  0  1  0  0  0  0  0999 V2000
   27.4476   -9.4829  -17.5820 N   0  0  0  0  0  0  0  0  0  0  0  0
   26.6494   -8.4917  -18.3467 C   0  0  1  0  0  0  0  0  0  0  0  0
   26.0821   -9.2129  -19.5470 C   0  0  0  0  0  0  0  0  0  0  0  0
   27.0750   -9.6083  -20.5812 C   0  0  0  0  0  0  0  0  0  0  0  0
   26.3625  -10.3447  -21.6833 C   0  0  0  0  0  0  0  0  0  0  0  0
   26.8213  -11.4520  -22.0412 O   0  0  0  0  0  0  0  0  0  0  0  0
   25.6592   -7.9630  -17.4176 C   0  0  0  0  0  0  0  0  0  0  0  0
   25.1620   -8.6885  -16.4847 O   0  0  0  0  0  0  0  0  0  0  0  0
   25.2359   -9.8602  -22.3130 O   0  0  0  0  0  0  0  0  0  0  0  0
   22.2333   -5.1083  -14.7563 N   0  0  0  0  0  0  0  0  0  0  0  0
   22.9878   -4.2128  -15.6114 C   0  0  0  0  0  0  0  0  0  0  0  0
   22.7283   -2.9975  -15.4172 O   0  0  0  0  0  0  0  0  0  0  0  0
   23.9491   -4.7250  -16.5924 C   0  0  0  0  0  0  0  0  0  0  0  0
   24.1070   -6.1954  -16.5036 C   0  0  2  0  0  0  0  0  0  0  0  0
   25.1361   -6.6255  -17.4203 N   0  0  0  0  0  0  0  0  0  0  0  0
   22.8433   -6.9477  -16.6905 C   0  0  0  0  0  0  0  0  0  0  0  0
   22.3136   -6.9094  -17.8326 O   0  0  0  0  0  0  0  0  0  0  0  0
   16.5083  -12.9011  -16.1881 O   0  0  0  0  0  0  0  0  0  0  0  0
   17.6284  -12.1151  -15.9413 C   0  0  0  0  0  0  0  0  0  0  0  0
   18.5813  -12.0616  -16.9431 C   0  0  0  0  0  0  0  0  0  0  0  0
   19.7163  -11.2906  -16.7434 C   0  0  0  0  0  0  0  0  0  0  0  0
   19.8918  -10.5901  -15.5678 C   0  0  0  0  0  0  0  0  0  0  0  0
   21.1203   -9.7867  -15.3930 C   0  0  0  0  0  0  0  0  0  0  0  0
   20.9603   -8.3947  -15.9513 C   0  0  2  0  0  0  0  0  0  0  0  0
   22.2126   -7.6881  -15.6865 N   0  0  0  0  0  0  0  0  0  0  0  0
   19.8493   -7.6392  -15.3654 C   0  0  0  0  0  0  0  0  0  0  0  0
   18.6065   -7.6651  -15.9611 O   0  0  0  0  0  0  0  0  0  0  0  0
   18.9319  -10.6570  -14.5838 C   0  0  0  0  0  0  0  0  0  0  0  0
   17.7953  -11.4241  -14.7742 C   0  0  0  0  0  0  0  0  0  0  0  0
   20.0221   -6.9689  -14.3251 O   0  0  0  0  0  0  0  0  0  0  0  0
  2  1  1  1
  2  3  1  0
  3  4  1  0
  4  5  1  0
  5  6  2  0
  5  9  1  0
  7  8  2  0
  7  2  1  0
 10 11  1  0
 11 12  2  0
 11 13  1  0
 14 13  1  6
 14 15  1  0
 15  7  1  0
 16 25  1  0
 16 14  1  0
 17 16  2  0
 19 18  1  0
 20 19  2  0
 21 20  1  0
 22 21  2  0
 22 28  1  0
 24 23  1  1
 23 22  1  0
 24 26  1  0
 24 25  1  0
 26 27  1  0
 28 29  2  0
 29 19  1  0
 30 26  2  0
M  END
$$$$
