ENY.pdb
     RDKit          3D

 30 30  0  0  1  0  0  0  0  0999 V2000
   22.4379  -10.9037    6.5111 N   0  0  0  0  0  0  0  0  0  0  0  0
   22.0337  -10.2781    7.7955 C   0  0  1  0  0  0  0  0  0  0  0  0
   21.7561  -11.4020    8.7663 C   0  0  0  0  0  0  0  0  0  0  0  0
   20.5676  -12.2384    8.4504 C   0  0  0  0  0  0  0  0  0  0  0  0
   20.3943  -13.2670    9.5350 C   0  0  0  0  0  0  0  0  0  0  0  0
   21.2110  -13.2638   10.4826 O   0  0  0  0  0  0  0  0  0  0  0  0
   23.1230   -9.3878    8.1749 C   0  0  0  0  0  0  0  0  0  0  0  0
   23.7261   -9.5093    9.2998 O   0  0  0  0  0  0  0  0  0  0  0  0
   19.3853  -14.2062    9.5341 O   0  0  0  0  0  0  0  0  0  0  0  0
   27.2321   -7.0171    9.8494 N   0  0  0  0  0  0  0  0  0  0  0  0
   27.0885   -7.5805    8.5211 C   0  0  0  0  0  0  0  0  0  0  0  0
   28.0608   -7.3308    7.7632 O   0  0  0  0  0  0  0  0  0  0  0  0
   25.9041   -8.3589    8.1471 C   0  0  0  0  0  0  0  0  0  0  0  0
   24.7496   -7.4923    7.8132 C   0  0  2  0  0  0  0  0  0  0  0  0
   23.6427   -8.3111    7.3789 N   0  0  0  0  0  0  0  0  0  0  0  0
   25.0653   -6.4193    6.8403 C   0  0  0  0  0  0  0  0  0  0  0  0
   25.4054   -6.7748    5.6808 O   0  0  0  0  0  0  0  0  0  0  0  0
   24.9302    0.5922    1.8428 O   0  0  0  0  0  0  0  0  0  0  0  0
   24.7341   -0.3047    2.8871 C   0  0  0  0  0  0  0  0  0  0  0  0
   24.6297   -1.6413    2.5451 C   0  0  0  0  0  0  0  0  0  0  0  0
   24.4338   -2.5740    3.5521 C   0  0  0  0  0  0  0  0  0  0  0  0
   24.3447   -2.1764    4.8702 C   0  0  0  0  0  0  0  0  0  0  0  0
   24.1277   -3.2029    5.9116 C   0  0  0  0  0  0  0  0  0  0  0  0
   25.3535   -4.0574    6.1164 C   0  0  2  0  0  0  0  0  0  0  0  0
   25.0085   -5.0530    7.1300 N   0  0  0  0  0  0  0  0  0  0  0  0
   26.5355   -3.3116    6.5584 C   0  0  0  0  0  0  0  0  0  0  0  0
   26.7969   -3.1662    7.9040 O   0  0  0  0  0  0  0  0  0  0  0  0
   24.4509   -0.8418    5.1891 C   0  0  0  0  0  0  0  0  0  0  0  0
   24.6468    0.0967    4.1904 C   0  0  0  0  0  0  0  0  0  0  0  0
   27.3109   -2.8046    5.7199 O   0  0  0  0  0  0  0  0  0  0  0  0
  2  1  1  6
  2  3  1  0
  3  4  1  0
  4  5  1  0
  5  6  2  0
  5  9  1  0
  7  8  2  0
  7  2  1  0
 10 11  1  0
 11 12  2  0
 11 13  1  0
 14 13  1  6
 14 15  1  0
 15  7  1  0
 16 25  1  0
 16 14  1  0
 17 16  2  0
 19 18  1  0
 20 19  2  0
 21 20  1  0
 22 21  2  0
 22 28  1  0
 24 23  1  1
 23 22  1  0
 24 26  1  0
 24 25  1  0
 26 27  1  0
 28 29  2  0
 29 19  1  0
 30 26  2  0
M  END
$$$$
