ENY.pdb
     RDKit          3D

 30 30  0  0  1  0  0  0  0  0999 V2000
   19.4581  -12.4514  -17.5608 N   0  0  0  0  0  0  0  0  0  0  0  0
   20.6418  -11.8817  -16.8687 C   0  0  1  0  0  0  0  0  0  0  0  0
   21.7968  -11.9500  -17.8403 C   0  0  0  0  0  0  0  0  0  0  0  0
   22.2793  -13.3195  -18.1619 C   0  0  0  0  0  0  0  0  0  0  0  0
   21.7535  -13.7154  -19.5152 C   0  0  0  0  0  0  0  0  0  0  0  0
   22.1137  -14.8172  -19.9853 O   0  0  0  0  0  0  0  0  0  0  0  0
   20.2620  -10.5379  -16.4526 C   0  0  0  0  0  0  0  0  0  0  0  0
   20.0257   -9.6135  -17.3090 O   0  0  0  0  0  0  0  0  0  0  0  0
   20.8997  -12.9268  -20.2564 O   0  0  0  0  0  0  0  0  0  0  0  0
   18.4273   -6.3274  -14.3041 N   0  0  0  0  0  0  0  0  0  0  0  0
   18.1441   -7.4503  -13.4316 C   0  0  0  0  0  0  0  0  0  0  0  0
   17.2901   -7.1927  -12.5447 O   0  0  0  0  0  0  0  0  0  0  0  0
   18.8155   -8.7413  -13.6081 C   0  0  0  0  0  0  0  0  0  0  0  0
   19.7411   -8.7352  -14.7650 C   0  0  2  0  0  0  0  0  0  0  0  0
   20.1067  -10.0920  -15.0962 N   0  0  0  0  0  0  0  0  0  0  0  0
   20.9281   -7.8666  -14.5801 C   0  0  0  0  0  0  0  0  0  0  0  0
   21.9859   -8.4158  -14.1725 O   0  0  0  0  0  0  0  0  0  0  0  0
   27.4424   -3.3716  -17.6078 O   0  0  0  0  0  0  0  0  0  0  0  0
   26.3648   -4.1121  -17.1346 C   0  0  0  0  0  0  0  0  0  0  0  0
   25.8237   -5.0438  -18.0028 C   0  0  0  0  0  0  0  0  0  0  0  0
   24.7475   -5.8067  -17.5760 C   0  0  0  0  0  0  0  0  0  0  0  0
   24.2262   -5.6397  -16.3097 C   0  0  0  0  0  0  0  0  0  0  0  0
   23.0734   -6.4685  -15.8980 C   0  0  0  0  0  0  0  0  0  0  0  0
   22.2045   -5.7550  -14.8926 C   0  0  2  0  0  0  0  0  0  0  0  0
   20.9429   -6.4912  -14.8285 N   0  0  0  0  0  0  0  0  0  0  0  0
   21.9274   -4.3553  -15.2280 C   0  0  0  0  0  0  0  0  0  0  0  0
   21.0245   -4.0496  -16.2237 O   0  0  0  0  0  0  0  0  0  0  0  0
   24.7789   -4.7073  -15.4616 C   0  0  0  0  0  0  0  0  0  0  0  0
   25.8538   -3.9410  -15.8788 C   0  0  0  0  0  0  0  0  0  0  0  0
   22.5068   -3.4335  -14.6148 O   0  0  0  0  0  0  0  0  0  0  0  0
  2  1  1  6
  2  3  1  0
  3  4  1  0
  4  5  1  0
  5  6  2  0
  5  9  1  0
  7  8  2  0
  7  2  1  0
 10 11  1  0
 11 12  2  0
 11 13  1  0
 14 13  1  1
 14 15  1  0
 15  7  1  0
 16 25  1  0
 16 14  1  0
 17 16  2  0
 19 18  1  0
 20 19  2  0
 21 20  1  0
 22 21  2  0
 22 28  1  0
 24 23  1  6
 23 22  1  0
 24 26  1  0
 24 25  1  0
 26 27  1  0
 28 29  2  0
 29 19  1  0
 30 26  2  0
M  END
$$$$
