ENY.pdb
     RDKit          3D

 30 30  0  0  1  0  0  0  0  0999 V2000
   22.9468  -21.6264  -13.8265 N   0  0  0  0  0  0  0  0  0  0  0  0
   22.5729  -20.2617  -14.2765 C   0  0  1  0  0  0  0  0  0  0  0  0
   23.2116  -20.0523  -15.6295 C   0  0  0  0  0  0  0  0  0  0  0  0
   22.7808  -21.0003  -16.6914 C   0  0  0  0  0  0  0  0  0  0  0  0
   23.5458  -20.6993  -17.9519 C   0  0  0  0  0  0  0  0  0  0  0  0
   23.3115  -21.3994  -18.9618 O   0  0  0  0  0  0  0  0  0  0  0  0
   21.1166  -20.2146  -14.2658 C   0  0  0  0  0  0  0  0  0  0  0  0
   20.4789  -19.1475  -14.5794 O   0  0  0  0  0  0  0  0  0  0  0  0
   24.4860  -19.6956  -18.0460 O   0  0  0  0  0  0  0  0  0  0  0  0
   16.7187  -19.9456  -16.8164 N   0  0  0  0  0  0  0  0  0  0  0  0
   17.3109  -21.1033  -16.1752 C   0  0  0  0  0  0  0  0  0  0  0  0
   16.5115  -22.0650  -16.0399 O   0  0  0  0  0  0  0  0  0  0  0  0
   18.7120  -21.1027  -15.7443 C   0  0  0  0  0  0  0  0  0  0  0  0
   18.8469  -21.3179  -14.2846 C   0  0  2  0  0  0  0  0  0  0  0  0
   20.2444  -21.3029  -13.9228 N   0  0  0  0  0  0  0  0  0  0  0  0
   18.1554  -22.5323  -13.7899 C   0  0  0  0  0  0  0  0  0  0  0  0
   16.9067  -22.5878  -13.9454 O   0  0  0  0  0  0  0  0  0  0  0  0
   18.0633  -25.9297   -5.8234 O   0  0  0  0  0  0  0  0  0  0  0  0
   18.4260  -25.5599   -7.1137 C   0  0  0  0  0  0  0  0  0  0  0  0
   18.5426  -24.2034   -7.3603 C   0  0  0  0  0  0  0  0  0  0  0  0
   18.9023  -23.7854   -8.6325 C   0  0  0  0  0  0  0  0  0  0  0  0
   19.1394  -24.7050   -9.6332 C   0  0  0  0  0  0  0  0  0  0  0  0
   19.5130  -24.2158  -10.9773 C   0  0  0  0  0  0  0  0  0  0  0  0
   18.3171  -24.1321  -11.8925 C   0  0  2  0  0  0  0  0  0  0  0  0
   18.7992  -23.6062  -13.1687 N   0  0  0  0  0  0  0  0  0  0  0  0
   17.2413  -23.2705  -11.3936 C   0  0  0  0  0  0  0  0  0  0  0  0
   16.0801  -23.8292  -10.9040 O   0  0  0  0  0  0  0  0  0  0  0  0
   19.0178  -26.0498   -9.3672 C   0  0  0  0  0  0  0  0  0  0  0  0
   18.6592  -26.4767   -8.0999 C   0  0  0  0  0  0  0  0  0  0  0  0
   17.3703  -22.0278  -11.4094 O   0  0  0  0  0  0  0  0  0  0  0  0
  2  1  1  6
  2  3  1  0
  3  4  1  0
  4  5  1  0
  5  6  2  0
  5  9  1  0
  7  8  2  0
  7  2  1  0
 10 11  1  0
 11 12  2  0
 11 13  1  0
 14 13  1  6
 14 15  1  0
 15  7  1  0
 16 25  1  0
 16 14  1  0
 17 16  2  0
 19 18  1  0
 20 19  2  0
 21 20  1  0
 22 21  2  0
 22 28  1  0
 24 23  1  1
 23 22  1  0
 24 26  1  0
 24 25  1  0
 26 27  1  0
 28 29  2  0
 29 19  1  0
 30 26  2  0
M  END
$$$$
