EVT.pdb
     RDKit          3D

 24 23  0  0  1  0  0  0  0  0999 V2000
    9.2983  -16.8478   16.0218 N   0  0  0  0  0  0  0  0  0  0  0  0
    8.5079  -16.9824   17.1752 C   0  0  1  0  0  0  0  0  0  0  0  0
    7.9551  -18.3014   17.5256 C   0  0  0  0  0  0  0  0  0  0  0  0
    7.4802  -19.2003   16.4541 C   0  0  0  0  0  0  0  0  0  0  0  0
    6.8526  -20.4419   16.9050 C   0  0  0  0  0  0  0  0  0  0  0  0
    5.9211  -20.4324   17.7356 O   0  0  0  0  0  0  0  0  0  0  0  0
    9.1761  -16.3151   18.3684 C   0  0  0  0  0  0  0  0  0  0  0  0
   10.4064  -16.4760   18.5309 O   0  0  0  0  0  0  0  0  0  0  0  0
    7.2923  -21.6553   16.4071 O   0  0  0  0  0  0  0  0  0  0  0  0
    7.9564  -12.6510   19.9643 C   0  0  0  0  0  0  0  0  0  0  0  0
    8.0360  -13.7622   20.9774 C   0  0  1  0  0  0  0  0  0  0  0  0
    6.6860  -14.1059   21.5226 C   0  0  0  0  0  0  0  0  0  0  0  0
    8.8303  -14.9039   20.4427 C   0  0  2  0  0  0  0  0  0  0  0  0
    8.4233  -15.5507   19.2488 N   0  0  0  0  0  0  0  0  0  0  0  0
    9.1156  -15.8760   21.5258 C   0  0  0  0  0  0  0  0  0  0  0  0
    8.5281  -16.9761   21.5009 O   0  0  0  0  0  0  0  0  0  0  0  0
   10.4788  -18.3049   21.6767 C   0  0  0  0  0  0  0  0  0  0  0  0
   11.2624  -17.6708   22.8244 C   0  0  1  0  0  0  0  0  0  0  0  0
   12.3265  -16.9884   22.2347 O   0  0  0  0  0  0  0  0  0  0  0  0
   10.4153  -16.6486   23.5204 C   0  0  2  0  0  0  0  0  0  0  0  0
   10.0177  -15.6072   22.5767 N   0  0  0  0  0  0  0  0  0  0  0  0
   11.3086  -16.0061   24.5491 C   0  0  0  0  0  0  0  0  0  0  0  0
   11.6347  -16.6511   25.7250 O   0  0  0  0  0  0  0  0  0  0  0  0
   11.7523  -14.8609   24.3095 O   0  0  0  0  0  0  0  0  0  0  0  0
  2  1  1  6
  2  3  1  0
  3  4  1  0
  4  5  1  0
  5  9  1  0
  5  6  2  0
  7 14  1  0
  7  2  1  0
  8  7  2  0
 11 10  1  6
 11 13  1  0
 12 11  1  0
 13 15  1  0
 13 14  1  6
 15 21  1  0
 16 15  2  0
 18 17  1  6
 18 19  1  0
 20 18  1  0
 20 21  1  6
 22 23  1  0
 22 20  1  0
 24 22  2  0
M  END
$$$$
