EVT.pdb
     RDKit          3D

 24 23  0  0  1  0  0  0  0  0999 V2000
    8.3578  -14.3097   20.5362 N   0  0  0  0  0  0  0  0  0  0  0  0
    7.5246  -14.7989   21.5558 C   0  0  1  0  0  0  0  0  0  0  0  0
    6.9597  -16.1539   21.4430 C   0  0  0  0  0  0  0  0  0  0  0  0
    7.8465  -17.2878   21.1120 C   0  0  0  0  0  0  0  0  0  0  0  0
    7.4486  -18.5817   21.6657 C   0  0  0  0  0  0  0  0  0  0  0  0
    6.4304  -18.6958   22.3783 O   0  0  0  0  0  0  0  0  0  0  0  0
    8.1472  -14.5587   22.9234 C   0  0  0  0  0  0  0  0  0  0  0  0
    9.3841  -14.7003   23.0495 O   0  0  0  0  0  0  0  0  0  0  0  0
    8.2084  -19.7067   21.3998 O   0  0  0  0  0  0  0  0  0  0  0  0
    7.5345  -12.6685   27.4619 C   0  0  0  0  0  0  0  0  0  0  0  0
    6.8543  -13.0087   26.1623 C   0  0  1  0  0  0  0  0  0  0  0  0
    6.3185  -11.7862   25.4867 C   0  0  0  0  0  0  0  0  0  0  0  0
    7.7250  -13.8832   25.3274 C   0  0  2  0  0  0  0  0  0  0  0  0
    7.3469  -14.1940   23.9970 N   0  0  0  0  0  0  0  0  0  0  0  0
    8.1062  -15.0971   26.0893 C   0  0  0  0  0  0  0  0  0  0  0  0
    7.2188  -15.9354   26.3458 O   0  0  0  0  0  0  0  0  0  0  0  0
   10.5768  -17.6859   25.2008 C   0  0  0  0  0  0  0  0  0  0  0  0
   10.9470  -17.2208   26.6079 C   0  0  1  0  0  0  0  0  0  0  0  0
   11.9270  -16.2415   26.4455 O   0  0  0  0  0  0  0  0  0  0  0  0
    9.7678  -16.5605   27.2563 C   0  0  2  0  0  0  0  0  0  0  0  0
    9.4231  -15.3389   26.5338 N   0  0  0  0  0  0  0  0  0  0  0  0
   10.2290  -16.1545   28.6318 C   0  0  0  0  0  0  0  0  0  0  0  0
   10.5215  -17.0930   29.6007 O   0  0  0  0  0  0  0  0  0  0  0  0
   10.3414  -14.9328   28.8774 O   0  0  0  0  0  0  0  0  0  0  0  0
  2  1  1  6
  2  3  1  0
  3  4  1  0
  4  5  1  0
  5  9  1  0
  5  6  2  0
  7 14  1  0
  7  2  1  0
  8  7  2  0
 11 10  1  1
 11 13  1  0
 12 11  1  0
 13 15  1  0
 13 14  1  6
 15 21  1  0
 16 15  2  0
 18 17  1  6
 18 19  1  0
 20 18  1  0
 20 21  1  6
 22 23  1  0
 22 20  1  0
 24 22  2  0
M  END
$$$$
