EVT.pdb
     RDKit          3D

 24 23  0  0  1  0  0  0  0  0999 V2000
    6.7383  -17.5218   17.0027 N   0  0  0  0  0  0  0  0  0  0  0  0
    8.1206  -17.6865   16.8152 C   0  0  1  0  0  0  0  0  0  0  0  0
    8.6530  -17.8504   15.4523 C   0  0  0  0  0  0  0  0  0  0  0  0
    9.2275  -16.6852   14.7495 C   0  0  0  0  0  0  0  0  0  0  0  0
   10.5440  -16.8974   14.1491 C   0  0  0  0  0  0  0  0  0  0  0  0
   11.1252  -17.9986   14.2346 O   0  0  0  0  0  0  0  0  0  0  0  0
    8.9003  -16.6452   17.6047 C   0  0  0  0  0  0  0  0  0  0  0  0
   10.1495  -16.7188   17.6187 O   0  0  0  0  0  0  0  0  0  0  0  0
   11.1655  -15.8643   13.4708 O   0  0  0  0  0  0  0  0  0  0  0  0
    6.4682  -14.2272   20.3583 C   0  0  0  0  0  0  0  0  0  0  0  0
    7.8224  -13.7530   19.9014 C   0  0  1  0  0  0  0  0  0  0  0  0
    8.4678  -12.8698   20.9218 C   0  0  0  0  0  0  0  0  0  0  0  0
    8.6450  -14.8986   19.4206 C   0  0  2  0  0  0  0  0  0  0  0  0
    8.2261  -15.6445   18.2903 N   0  0  0  0  0  0  0  0  0  0  0  0
    9.0051  -15.7787   20.5586 C   0  0  0  0  0  0  0  0  0  0  0  0
    8.1913  -16.6588   20.9042 O   0  0  0  0  0  0  0  0  0  0  0  0
   12.3548  -18.1005   23.1871 C   0  0  0  0  0  0  0  0  0  0  0  0
   11.9084  -17.2277   22.0157 C   0  0  1  0  0  0  0  0  0  0  0  0
   11.7144  -18.0945   20.9402 O   0  0  0  0  0  0  0  0  0  0  0  0
   10.5817  -16.6000   22.3204 C   0  0  2  0  0  0  0  0  0  0  0  0
   10.2222  -15.6600   21.2620 N   0  0  0  0  0  0  0  0  0  0  0  0
   10.7848  -15.8013   23.5814 C   0  0  0  0  0  0  0  0  0  0  0  0
   10.6379  -16.3732   24.8290 O   0  0  0  0  0  0  0  0  0  0  0  0
   11.0929  -14.5937   23.4693 O   0  0  0  0  0  0  0  0  0  0  0  0
  2  1  1  6
  2  3  1  0
  3  4  1  0
  4  5  1  0
  5  9  1  0
  5  6  2  0
  7 14  1  0
  7  2  1  0
  8  7  2  0
 11 10  1  1
 11 13  1  0
 12 11  1  0
 13 15  1  0
 13 14  1  6
 15 21  1  0
 16 15  2  0
 18 17  1  1
 18 19  1  0
 20 18  1  0
 20 21  1  6
 22 23  1  0
 22 20  1  0
 24 22  2  0
M  END
$$$$
