EVT.pdb
     RDKit          3D

 24 23  0  0  1  0  0  0  0  0999 V2000
    8.5107  -16.9852   16.1981 N   0  0  0  0  0  0  0  0  0  0  0  0
    8.2262  -17.3955   17.5110 C   0  0  1  0  0  0  0  0  0  0  0  0
    8.2726  -18.8278   17.8492 C   0  0  0  0  0  0  0  0  0  0  0  0
    8.8209  -19.7899   16.8716 C   0  0  0  0  0  0  0  0  0  0  0  0
    8.7748  -21.1946   17.2759 C   0  0  0  0  0  0  0  0  0  0  0  0
    7.7255  -21.8631   17.1768 O   0  0  0  0  0  0  0  0  0  0  0  0
    8.9939  -16.5522   18.5185 C   0  0  0  0  0  0  0  0  0  0  0  0
   10.2388  -16.4817   18.4126 O   0  0  0  0  0  0  0  0  0  0  0  0
    9.9107  -21.8034   17.7785 O   0  0  0  0  0  0  0  0  0  0  0  0
    7.7534  -12.9587   19.8540 C   0  0  0  0  0  0  0  0  0  0  0  0
    8.0589  -13.8692   21.0138 C   0  0  1  0  0  0  0  0  0  0  0  0
    6.8341  -14.1574   21.8230 C   0  0  0  0  0  0  0  0  0  0  0  0
    8.8307  -15.0593   20.5577 C   0  0  2  0  0  0  0  0  0  0  0  0
    8.3139  -15.8848   19.5276 N   0  0  0  0  0  0  0  0  0  0  0  0
    9.2786  -15.8535   21.7273 C   0  0  0  0  0  0  0  0  0  0  0  0
    8.5774  -16.8203   22.0872 O   0  0  0  0  0  0  0  0  0  0  0  0
   12.9652  -17.6258   24.3612 C   0  0  0  0  0  0  0  0  0  0  0  0
   12.4398  -16.6538   23.3065 C   0  0  1  0  0  0  0  0  0  0  0  0
   12.6339  -17.2788   22.0747 O   0  0  0  0  0  0  0  0  0  0  0  0
   10.9626  -16.4630   23.4757 C   0  0  2  0  0  0  0  0  0  0  0  0
   10.4572  -15.5600   22.4450 N   0  0  0  0  0  0  0  0  0  0  0  0
   10.7867  -15.7734   24.8034 C   0  0  0  0  0  0  0  0  0  0  0  0
   10.8059  -16.4779   25.9902 O   0  0  0  0  0  0  0  0  0  0  0  0
   10.6204  -14.5333   24.8043 O   0  0  0  0  0  0  0  0  0  0  0  0
  2  1  1  6
  2  3  1  0
  3  4  1  0
  4  5  1  0
  5  9  1  0
  5  6  2  0
  7 14  1  0
  7  2  1  0
  8  7  2  0
 11 10  1  6
 11 13  1  0
 12 11  1  0
 13 15  1  0
 13 14  1  6
 15 21  1  0
 16 15  2  0
 18 17  1  1
 18 19  1  0
 20 18  1  0
 20 21  1  6
 22 23  1  0
 22 20  1  0
 24 22  2  0
M  END
$$$$
