EVT.pdb
     RDKit          3D

 24 23  0  0  1  0  0  0  0  0999 V2000
    9.0524  -17.0110   15.3734 N   0  0  0  0  0  0  0  0  0  0  0  0
    8.1026  -16.9105   16.4034 C   0  0  1  0  0  0  0  0  0  0  0  0
    7.2088  -18.0476   16.6791 C   0  0  0  0  0  0  0  0  0  0  0  0
    7.7738  -19.4075   16.7930 C   0  0  0  0  0  0  0  0  0  0  0  0
    7.4886  -20.1057   18.0460 C   0  0  0  0  0  0  0  0  0  0  0  0
    8.4083  -20.5353   18.7721 O   0  0  0  0  0  0  0  0  0  0  0  0
    8.7409  -16.3725   17.6757 C   0  0  0  0  0  0  0  0  0  0  0  0
    9.8648  -16.8092   18.0105 O   0  0  0  0  0  0  0  0  0  0  0  0
    6.1776  -20.2984   18.4431 O   0  0  0  0  0  0  0  0  0  0  0  0
    6.3614  -14.1260   20.6196 C   0  0  0  0  0  0  0  0  0  0  0  0
    7.7074  -13.6275   20.1646 C   0  0  1  0  0  0  0  0  0  0  0  0
    8.3744  -12.8054   21.2216 C   0  0  0  0  0  0  0  0  0  0  0  0
    8.5181  -14.7441   19.6025 C   0  0  2  0  0  0  0  0  0  0  0  0
    8.0772  -15.4212   18.4377 N   0  0  0  0  0  0  0  0  0  0  0  0
    8.8957  -15.6906   20.6799 C   0  0  0  0  0  0  0  0  0  0  0  0
    8.0284  -16.4828   21.0999 O   0  0  0  0  0  0  0  0  0  0  0  0
   11.4528  -18.3603   20.6930 C   0  0  0  0  0  0  0  0  0  0  0  0
   11.7612  -17.4567   21.8853 C   0  0  1  0  0  0  0  0  0  0  0  0
   12.6913  -16.5218   21.4309 O   0  0  0  0  0  0  0  0  0  0  0  0
   10.5321  -16.6970   22.2843 C   0  0  2  0  0  0  0  0  0  0  0  0
   10.1874  -15.7294   21.2459 N   0  0  0  0  0  0  0  0  0  0  0  0
   10.9122  -15.9182   23.5164 C   0  0  0  0  0  0  0  0  0  0  0  0
   11.0592  -14.5461   23.4857 O   0  0  0  0  0  0  0  0  0  0  0  0
   11.0939  -16.5521   24.5799 O   0  0  0  0  0  0  0  0  0  0  0  0
  2  1  1  6
  2  3  1  0
  3  4  1  0
  4  5  1  0
  5  9  1  0
  5  6  2  0
  7 14  1  0
  7  2  1  0
  8  7  2  0
 11 10  1  1
 11 13  1  0
 12 11  1  0
 13 15  1  0
 13 14  1  6
 15 21  1  0
 16 15  2  0
 18 17  1  6
 18 19  1  0
 20 18  1  0
 20 21  1  6
 22 23  1  0
 22 20  1  0
 24 22  2  0
M  END
$$$$
