EVT.pdb
     RDKit          3D

 24 23  0  0  1  0  0  0  0  0999 V2000
    8.1210  -14.0715   20.5885 N   0  0  0  0  0  0  0  0  0  0  0  0
    7.5833  -14.8562   21.6221 C   0  0  1  0  0  0  0  0  0  0  0  0
    7.4629  -16.3123   21.4395 C   0  0  0  0  0  0  0  0  0  0  0  0
    8.6300  -17.0868   20.9710 C   0  0  0  0  0  0  0  0  0  0  0  0
    8.4097  -18.5237   20.8107 C   0  0  0  0  0  0  0  0  0  0  0  0
    9.3354  -19.2865   20.4657 O   0  0  0  0  0  0  0  0  0  0  0  0
    8.2260  -14.5056   22.9562 C   0  0  0  0  0  0  0  0  0  0  0  0
    9.4731  -14.4199   23.0139 O   0  0  0  0  0  0  0  0  0  0  0  0
    7.1550  -19.0575   21.0438 O   0  0  0  0  0  0  0  0  0  0  0  0
    7.5591  -12.7879   27.5558 C   0  0  0  0  0  0  0  0  0  0  0  0
    6.9194  -13.0907   26.2267 C   0  0  1  0  0  0  0  0  0  0  0  0
    6.3917  -11.8512   25.5763 C   0  0  0  0  0  0  0  0  0  0  0  0
    7.8218  -13.9298   25.3890 C   0  0  2  0  0  0  0  0  0  0  0  0
    7.4328  -14.2914   24.0747 N   0  0  0  0  0  0  0  0  0  0  0  0
    8.2925  -15.1019   26.1660 C   0  0  0  0  0  0  0  0  0  0  0  0
    7.5502  -16.1022   26.2327 O   0  0  0  0  0  0  0  0  0  0  0  0
   10.6575  -17.4493   25.5162 C   0  0  0  0  0  0  0  0  0  0  0  0
   11.0991  -16.9804   26.9012 C   0  0  1  0  0  0  0  0  0  0  0  0
   12.0856  -16.0179   26.6867 O   0  0  0  0  0  0  0  0  0  0  0  0
    9.9613  -16.2972   27.5981 C   0  0  2  0  0  0  0  0  0  0  0  0
    9.5372  -15.1299   26.8296 N   0  0  0  0  0  0  0  0  0  0  0  0
   10.5205  -15.7968   28.9044 C   0  0  0  0  0  0  0  0  0  0  0  0
   10.9136  -16.6668   29.9012 O   0  0  0  0  0  0  0  0  0  0  0  0
   10.6206  -14.5600   29.0658 O   0  0  0  0  0  0  0  0  0  0  0  0
  2  1  1  6
  2  3  1  0
  3  4  1  0
  4  5  1  0
  5  9  1  0
  5  6  2  0
  7 14  1  0
  7  2  1  0
  8  7  2  0
 11 10  1  1
 11 13  1  0
 12 11  1  0
 13 15  1  0
 13 14  1  6
 15 21  1  0
 16 15  2  0
 18 17  1  6
 18 19  1  0
 20 18  1  0
 20 21  1  6
 22 23  1  0
 22 20  1  0
 24 22  2  0
M  END
$$$$
