EVT.pdb
     RDKit          3D

 24 23  0  0  1  0  0  0  0  0999 V2000
    8.3980  -14.1416   20.3389 N   0  0  0  0  0  0  0  0  0  0  0  0
    7.7163  -14.8878   21.3144 C   0  0  1  0  0  0  0  0  0  0  0  0
    7.4832  -16.3251   21.0961 C   0  0  0  0  0  0  0  0  0  0  0  0
    6.9976  -16.7932   19.7820 C   0  0  0  0  0  0  0  0  0  0  0  0
    6.7844  -18.2353   19.6660 C   0  0  0  0  0  0  0  0  0  0  0  0
    7.5402  -18.9485   18.9747 O   0  0  0  0  0  0  0  0  0  0  0  0
    8.2832  -14.6115   22.6993 C   0  0  0  0  0  0  0  0  0  0  0  0
    9.5262  -14.5917   22.8424 O   0  0  0  0  0  0  0  0  0  0  0  0
    5.7277  -18.8302   20.3317 O   0  0  0  0  0  0  0  0  0  0  0  0
    7.4750  -13.0364   27.3113 C   0  0  0  0  0  0  0  0  0  0  0  0
    6.8824  -13.2442   25.9427 C   0  0  1  0  0  0  0  0  0  0  0  0
    6.5139  -11.9441   25.3009 C   0  0  0  0  0  0  0  0  0  0  0  0
    7.7432  -14.1488   25.1299 C   0  0  2  0  0  0  0  0  0  0  0  0
    7.4274  -14.3912   23.7694 N   0  0  0  0  0  0  0  0  0  0  0  0
    7.9969  -15.4090   25.8693 C   0  0  0  0  0  0  0  0  0  0  0  0
    7.0160  -16.0976   26.2153 O   0  0  0  0  0  0  0  0  0  0  0  0
    9.8052  -18.3464   24.6885 C   0  0  0  0  0  0  0  0  0  0  0  0
   10.4567  -17.9744   26.0191 C   0  0  1  0  0  0  0  0  0  0  0  0
   11.5436  -17.1596   25.7023 O   0  0  0  0  0  0  0  0  0  0  0  0
    9.5119  -17.1491   26.8395 C   0  0  2  0  0  0  0  0  0  0  0  0
    9.2945  -15.8561   26.1960 N   0  0  0  0  0  0  0  0  0  0  0  0
   10.2196  -16.8890   28.1437 C   0  0  0  0  0  0  0  0  0  0  0  0
   10.4282  -17.8959   29.0645 O   0  0  0  0  0  0  0  0  0  0  0  0
   10.6176  -15.7254   28.3748 O   0  0  0  0  0  0  0  0  0  0  0  0
  2  1  1  6
  2  3  1  0
  3  4  1  0
  4  5  1  0
  5  9  1  0
  5  6  2  0
  7 14  1  0
  7  2  1  0
  8  7  2  0
 11 10  1  1
 11 13  1  0
 12 11  1  0
 13 15  1  0
 13 14  1  6
 15 21  1  0
 16 15  2  0
 18 17  1  6
 18 19  1  0
 20 18  1  0
 20 21  1  6
 22 23  1  0
 22 20  1  0
 24 22  2  0
M  END
$$$$
