EVT.pdb
     RDKit          3D

 24 23  0  0  1  0  0  0  0  0999 V2000
    8.1765  -14.4557   20.5964 N   0  0  0  0  0  0  0  0  0  0  0  0
    7.3548  -14.8192   21.6761 C   0  0  1  0  0  0  0  0  0  0  0  0
    6.5542  -16.0522   21.5950 C   0  0  0  0  0  0  0  0  0  0  0  0
    7.2360  -17.3612   21.5378 C   0  0  0  0  0  0  0  0  0  0  0  0
    6.6422  -18.3420   20.6300 C   0  0  0  0  0  0  0  0  0  0  0  0
    5.4741  -18.7506   20.7918 O   0  0  0  0  0  0  0  0  0  0  0  0
    8.1171  -14.7262   22.9898 C   0  0  0  0  0  0  0  0  0  0  0  0
    9.2725  -15.2036   23.0447 O   0  0  0  0  0  0  0  0  0  0  0  0
    7.3810  -18.8322   19.5680 O   0  0  0  0  0  0  0  0  0  0  0  0
    7.3746  -11.5402   25.5687 C   0  0  0  0  0  0  0  0  0  0  0  0
    7.4664  -12.8677   26.2736 C   0  0  1  0  0  0  0  0  0  0  0  0
    6.1649  -13.2436   26.9081 C   0  0  0  0  0  0  0  0  0  0  0  0
    8.0745  -13.8946   25.3815 C   0  0  2  0  0  0  0  0  0  0  0  0
    7.5289  -14.1247   24.0936 N   0  0  0  0  0  0  0  0  0  0  0  0
    8.2774  -15.1601   26.1277 C   0  0  0  0  0  0  0  0  0  0  0  0
    7.3060  -15.9322   26.2547 O   0  0  0  0  0  0  0  0  0  0  0  0
   10.2169  -18.0256   25.3393 C   0  0  0  0  0  0  0  0  0  0  0  0
   10.7097  -17.6302   26.7300 C   0  0  1  0  0  0  0  0  0  0  0  0
   11.8334  -16.8288   26.5279 O   0  0  0  0  0  0  0  0  0  0  0  0
    9.6817  -16.7824   27.4164 C   0  0  2  0  0  0  0  0  0  0  0  0
    9.5165  -15.5221   26.6969 N   0  0  0  0  0  0  0  0  0  0  0  0
   10.2559  -16.4555   28.7701 C   0  0  0  0  0  0  0  0  0  0  0  0
   10.4846  -17.4373   29.7129 O   0  0  0  0  0  0  0  0  0  0  0  0
   10.5230  -15.2593   29.0222 O   0  0  0  0  0  0  0  0  0  0  0  0
  2  1  1  6
  2  3  1  0
  3  4  1  0
  4  5  1  0
  5  9  1  0
  5  6  2  0
  7 14  1  0
  7  2  1  0
  8  7  2  0
 11 10  1  6
 11 13  1  0
 12 11  1  0
 13 15  1  0
 13 14  1  6
 15 21  1  0
 16 15  2  0
 18 17  1  6
 18 19  1  0
 20 18  1  0
 20 21  1  6
 22 23  1  0
 22 20  1  0
 24 22  2  0
M  END
$$$$
