EVT.pdb
     RDKit          3D

 24 23  0  0  1  0  0  0  0  0999 V2000
    6.2436  -15.5212   21.5115 N   0  0  0  0  0  0  0  0  0  0  0  0
    7.4989  -16.1336   21.6612 C   0  0  1  0  0  0  0  0  0  0  0  0
    8.3502  -16.3411   20.4780 C   0  0  0  0  0  0  0  0  0  0  0  0
    7.9753  -15.7180   19.1923 C   0  0  0  0  0  0  0  0  0  0  0  0
    8.2972  -16.4966   17.9970 C   0  0  0  0  0  0  0  0  0  0  0  0
    7.7014  -17.5624   17.7382 O   0  0  0  0  0  0  0  0  0  0  0  0
    8.2728  -15.5044   22.8105 C   0  0  0  0  0  0  0  0  0  0  0  0
    9.5113  -15.6761   22.8610 O   0  0  0  0  0  0  0  0  0  0  0  0
    9.2789  -16.0517   17.1298 O   0  0  0  0  0  0  0  0  0  0  0  0
    5.9726  -13.3716   25.9201 C   0  0  0  0  0  0  0  0  0  0  0  0
    7.4372  -13.1213   25.6758 C   0  0  1  0  0  0  0  0  0  0  0  0
    8.1177  -12.6032   26.9031 C   0  0  0  0  0  0  0  0  0  0  0  0
    8.0719  -14.3058   25.0323 C   0  0  2  0  0  0  0  0  0  0  0  0
    7.6048  -14.7619   23.7740 N   0  0  0  0  0  0  0  0  0  0  0  0
    8.1891  -15.4139   26.0108 C   0  0  0  0  0  0  0  0  0  0  0  0
    7.1399  -15.9189   26.4585 O   0  0  0  0  0  0  0  0  0  0  0  0
    9.4566  -18.7399   25.5098 C   0  0  0  0  0  0  0  0  0  0  0  0
   10.2691  -18.1776   26.6746 C   0  0  1  0  0  0  0  0  0  0  0  0
   11.4104  -17.6082   26.1099 O   0  0  0  0  0  0  0  0  0  0  0  0
    9.5095  -17.0713   27.3427 C   0  0  2  0  0  0  0  0  0  0  0  0
    9.4312  -15.9152   26.4537 N   0  0  0  0  0  0  0  0  0  0  0  0
   10.3366  -16.6666   28.5350 C   0  0  0  0  0  0  0  0  0  0  0  0
   10.4805  -17.4968   29.6283 O   0  0  0  0  0  0  0  0  0  0  0  0
   10.8956  -15.5475   28.5102 O   0  0  0  0  0  0  0  0  0  0  0  0
  2  1  1  6
  2  3  1  0
  3  4  1  0
  4  5  1  0
  5  9  1  0
  5  6  2  0
  7 14  1  0
  7  2  1  0
  8  7  2  0
 11 10  1  1
 11 13  1  0
 12 11  1  0
 13 15  1  0
 13 14  1  6
 15 21  1  0
 16 15  2  0
 18 17  1  6
 18 19  1  0
 20 18  1  0
 20 21  1  6
 22 23  1  0
 22 20  1  0
 24 22  2  0
M  END
$$$$
