EVT.pdb
     RDKit          3D

 24 23  0  0  1  0  0  0  0  0999 V2000
    8.0490  -13.7194   19.9950 N   0  0  0  0  0  0  0  0  0  0  0  0
    7.2547  -14.1731   21.0610 C   0  0  1  0  0  0  0  0  0  0  0  0
    6.5151  -15.4392   20.9265 C   0  0  0  0  0  0  0  0  0  0  0  0
    7.1939  -16.6230   20.3611 C   0  0  0  0  0  0  0  0  0  0  0  0
    6.8564  -17.9014   20.9860 C   0  0  0  0  0  0  0  0  0  0  0  0
    7.7342  -18.6195   21.5071 O   0  0  0  0  0  0  0  0  0  0  0  0
    8.0217  -14.1038   22.3734 C   0  0  0  0  0  0  0  0  0  0  0  0
    9.2302  -14.4289   22.3765 O   0  0  0  0  0  0  0  0  0  0  0  0
    5.5419  -18.3318   21.0055 O   0  0  0  0  0  0  0  0  0  0  0  0
    5.8288  -13.0127   26.0653 C   0  0  0  0  0  0  0  0  0  0  0  0
    7.2719  -12.6563   25.8250 C   0  0  1  0  0  0  0  0  0  0  0  0
    8.0123  -12.4680   27.1112 C   0  0  0  0  0  0  0  0  0  0  0  0
    7.8905  -13.5998   24.8518 C   0  0  2  0  0  0  0  0  0  0  0  0
    7.3802  -13.6899   23.5323 N   0  0  0  0  0  0  0  0  0  0  0  0
    8.0515  -14.9371   25.4723 C   0  0  0  0  0  0  0  0  0  0  0  0
    7.0245  -15.5515   25.8245 O   0  0  0  0  0  0  0  0  0  0  0  0
   10.1069  -17.8074   23.9844 C   0  0  0  0  0  0  0  0  0  0  0  0
   10.5057  -17.6322   25.4485 C   0  0  1  0  0  0  0  0  0  0  0  0
   11.6317  -16.8089   25.4460 O   0  0  0  0  0  0  0  0  0  0  0  0
    9.4272  -16.9011   26.1897 C   0  0  2  0  0  0  0  0  0  0  0  0
    9.3112  -15.5372   25.6802 N   0  0  0  0  0  0  0  0  0  0  0  0
    9.8993  -16.8093   27.6173 C   0  0  0  0  0  0  0  0  0  0  0  0
    9.9896  -17.9281   28.4205 O   0  0  0  0  0  0  0  0  0  0  0  0
   10.2105  -15.6820   28.0622 O   0  0  0  0  0  0  0  0  0  0  0  0
  2  1  1  6
  2  3  1  0
  3  4  1  0
  4  5  1  0
  5  9  1  0
  5  6  2  0
  7 14  1  0
  7  2  1  0
  8  7  2  0
 11 10  1  1
 11 13  1  0
 12 11  1  0
 13 15  1  0
 13 14  1  6
 15 21  1  0
 16 15  2  0
 18 17  1  6
 18 19  1  0
 20 18  1  0
 20 21  1  6
 22 23  1  0
 22 20  1  0
 24 22  2  0
M  END
$$$$
