EVT.pdb
     RDKit          3D

 24 23  0  0  1  0  0  0  0  0999 V2000
    6.0156  -15.6633   21.9254 N   0  0  0  0  0  0  0  0  0  0  0  0
    7.3742  -15.8099   21.6003 C   0  0  1  0  0  0  0  0  0  0  0  0
    7.8487  -15.4034   20.2670 C   0  0  0  0  0  0  0  0  0  0  0  0
    7.1878  -15.9450   19.0621 C   0  0  0  0  0  0  0  0  0  0  0  0
    8.0500  -16.7056   18.1583 C   0  0  0  0  0  0  0  0  0  0  0  0
    8.7149  -16.1386   17.2672 O   0  0  0  0  0  0  0  0  0  0  0  0
    8.2573  -15.2536   22.7077 C   0  0  0  0  0  0  0  0  0  0  0  0
    9.4979  -15.2647   22.5443 O   0  0  0  0  0  0  0  0  0  0  0  0
    8.1376  -18.0803   18.2856 O   0  0  0  0  0  0  0  0  0  0  0  0
    6.9160  -12.2549   24.8720 C   0  0  0  0  0  0  0  0  0  0  0  0
    7.7277  -13.1287   25.7913 C   0  0  1  0  0  0  0  0  0  0  0  0
    6.9639  -13.4832   27.0278 C   0  0  0  0  0  0  0  0  0  0  0  0
    8.3178  -14.2734   25.0420 C   0  0  2  0  0  0  0  0  0  0  0  0
    7.6841  -14.7515   23.8676 N   0  0  0  0  0  0  0  0  0  0  0  0
    8.6493  -15.3760   25.9767 C   0  0  0  0  0  0  0  0  0  0  0  0
    7.7108  -15.9706   26.5439 O   0  0  0  0  0  0  0  0  0  0  0  0
   11.8854  -18.8566   27.2892 C   0  0  0  0  0  0  0  0  0  0  0  0
   11.6069  -17.5356   26.5746 C   0  0  1  0  0  0  0  0  0  0  0  0
   11.5410  -17.8387   25.2147 O   0  0  0  0  0  0  0  0  0  0  0  0
   10.2612  -17.0101   26.9745 C   0  0  2  0  0  0  0  0  0  0  0  0
    9.9747  -15.7752   26.2492 N   0  0  0  0  0  0  0  0  0  0  0  0
   10.3748  -16.6580   28.4348 C   0  0  0  0  0  0  0  0  0  0  0  0
   10.5705  -15.3562   28.8497 O   0  0  0  0  0  0  0  0  0  0  0  0
   10.2871  -17.5842   29.2715 O   0  0  0  0  0  0  0  0  0  0  0  0
  2  1  1  1
  2  3  1  0
  3  4  1  0
  4  5  1  0
  5  9  1  0
  5  6  2  0
  7 14  1  0
  7  2  1  0
  8  7  2  0
 11 10  1  6
 11 13  1  0
 12 11  1  0
 13 15  1  0
 13 14  1  6
 15 21  1  0
 16 15  2  0
 18 17  1  1
 18 19  1  0
 20 18  1  0
 20 21  1  6
 22 23  1  0
 22 20  1  0
 24 22  2  0
M  END
$$$$
