EVT.pdb
     RDKit          3D

 24 23  0  0  1  0  0  0  0  0999 V2000
    9.1304  -15.4285   20.9545 N   0  0  0  0  0  0  0  0  0  0  0  0
    8.6987  -16.1046   22.1076 C   0  0  1  0  0  0  0  0  0  0  0  0
    9.0112  -17.5343   22.2696 C   0  0  0  0  0  0  0  0  0  0  0  0
    8.5853  -18.4953   21.2319 C   0  0  0  0  0  0  0  0  0  0  0  0
    8.9441  -19.8911   21.4801 C   0  0  0  0  0  0  0  0  0  0  0  0
    9.6092  -20.2205   22.4836 O   0  0  0  0  0  0  0  0  0  0  0  0
    9.0365  -15.3074   23.3590 C   0  0  0  0  0  0  0  0  0  0  0  0
   10.2224  -14.9494   23.5369 O   0  0  0  0  0  0  0  0  0  0  0  0
    8.5432  -20.8729   20.5919 O   0  0  0  0  0  0  0  0  0  0  0  0
    7.4561  -12.7355   27.2655 C   0  0  0  0  0  0  0  0  0  0  0  0
    7.1225  -13.3290   25.9225 C   0  0  1  0  0  0  0  0  0  0  0  0
    6.8167  -12.2674   24.9138 C   0  0  0  0  0  0  0  0  0  0  0  0
    8.1508  -14.3296   25.5208 C   0  0  2  0  0  0  0  0  0  0  0  0
    8.0408  -14.9949   24.2739 N   0  0  0  0  0  0  0  0  0  0  0  0
    8.3966  -15.2802   26.6322 C   0  0  0  0  0  0  0  0  0  0  0  0
    7.4344  -15.9490   27.0600 O   0  0  0  0  0  0  0  0  0  0  0  0
   10.3595  -18.2724   26.6744 C   0  0  0  0  0  0  0  0  0  0  0  0
   10.9062  -17.4443   27.8357 C   0  0  1  0  0  0  0  0  0  0  0  0
   11.9875  -16.7274   27.3233 O   0  0  0  0  0  0  0  0  0  0  0  0
    9.8828  -16.4420   28.2772 C   0  0  2  0  0  0  0  0  0  0  0  0
    9.6661  -15.4557   27.2220 N   0  0  0  0  0  0  0  0  0  0  0  0
   10.4939  -15.7196   29.4494 C   0  0  0  0  0  0  0  0  0  0  0  0
   10.7143  -16.3566   30.6539 O   0  0  0  0  0  0  0  0  0  0  0  0
   10.7998  -14.5152   29.3033 O   0  0  0  0  0  0  0  0  0  0  0  0
  2  1  1  6
  2  3  1  0
  3  4  1  0
  4  5  1  0
  5  9  1  0
  5  6  2  0
  7 14  1  0
  7  2  1  0
  8  7  2  0
 11 10  1  1
 11 13  1  0
 12 11  1  0
 13 15  1  0
 13 14  1  6
 15 21  1  0
 16 15  2  0
 18 17  1  6
 18 19  1  0
 20 18  1  0
 20 21  1  6
 22 23  1  0
 22 20  1  0
 24 22  2  0
M  END
$$$$
