TTW.pdb
     RDKit          3D

 29 30  0  0  1  0  0  0  0  0999 V2000
    9.2658  -12.7507   17.8473 C   0  0  0  0  0  0  0  0  0  0  0  0
    9.1763  -13.6139   19.0614 C   0  0  1  0  0  0  0  0  0  0  0  0
    9.1786  -12.9091   20.2621 O   0  0  0  0  0  0  0  0  0  0  0  0
    7.9824  -14.5403   18.9602 C   0  0  2  0  0  0  0  0  0  0  0  0
    6.7430  -13.7894   18.9178 N   0  0  0  0  0  0  0  0  0  0  0  0
    7.9746  -15.4358   20.1415 C   0  0  0  0  0  0  0  0  0  0  0  0
    7.1964  -15.2516   21.1258 O   0  0  0  0  0  0  0  0  0  0  0  0
    9.7312  -19.6203   22.1917 C   0  0  0  0  0  0  0  0  0  0  0  0
    9.6404  -18.6588   21.0480 C   0  0  1  0  0  0  0  0  0  0  0  0
    9.0565  -19.3194   19.9732 O   0  0  0  0  0  0  0  0  0  0  0  0
    8.9068  -17.3793   21.3867 C   0  0  2  0  0  0  0  0  0  0  0  0
    8.8716  -16.5654   20.2047 N   0  0  0  0  0  0  0  0  0  0  0  0
    9.5576  -16.6623   22.5161 C   0  0  0  0  0  0  0  0  0  0  0  0
   10.3173  -15.7177   22.1973 O   0  0  0  0  0  0  0  0  0  0  0  0
    9.2778  -17.0872   23.8245 N   0  0  0  0  0  0  0  0  0  0  0  0
    9.9764  -16.4104   24.9359 C   0  0  1  0  0  0  0  0  0  0  0  0
    9.5758  -14.9836   24.8830 C   0  0  0  0  0  0  0  0  0  0  0  0
    8.2330  -14.6790   25.3868 C   0  0  0  0  0  0  0  0  0  0  0  0
    7.1666  -15.5901   25.4387 C   0  0  0  0  0  0  0  0  0  0  0  0
    6.0984  -14.9692   25.9188 N   0  0  0  0  0  0  0  0  0  0  0  0
    6.3660  -13.6881   26.2000 C   0  0  0  0  0  0  0  0  0  0  0  0
    5.6162  -12.6523   26.7209 C   0  0  0  0  0  0  0  0  0  0  0  0
    6.2051  -11.4193   26.9145 C   0  0  0  0  0  0  0  0  0  0  0  0
    7.5297  -11.2061   26.5960 C   0  0  0  0  0  0  0  0  0  0  0  0
    8.2409  -12.2593   26.0804 C   0  0  0  0  0  0  0  0  0  0  0  0
    7.6861  -13.5058   25.8722 C   0  0  0  0  0  0  0  0  0  0  0  0
    9.7244  -17.1141   26.1842 C   0  0  0  0  0  0  0  0  0  0  0  0
   10.4131  -16.8341   27.3429 O   0  0  0  0  0  0  0  0  0  0  0  0
    8.8586  -18.0201   26.2440 O   0  0  0  0  0  0  0  0  0  0  0  0
  2  1  1  6
  3  2  1  0
  4  5  1  1
  4  2  1  0
  4  6  1  0
  6  7  2  0
  9 11  1  0
  9  8  1  1
 10  9  1  0
 11 13  1  0
 12  6  1  0
 11 12  1  6
 13 14  2  0
 15 13  1  0
 15 16  1  0
 16 27  1  0
 16 17  1  1
 18 17  1  0
 19 18  2  0
 20 21  1  0
 20 19  1  0
 21 26  2  0
 22 21  1  0
 22 23  2  0
 23 24  1  0
 24 25  2  0
 26 18  1  0
 26 25  1  0
 27 28  1  0
 29 27  2  0
M  END
$$$$
