TTW.pdb
     RDKit          3D

 29 30  0  0  1  0  0  0  0  0999 V2000
   11.2319  -14.0859   19.6003 C   0  0  0  0  0  0  0  0  0  0  0  0
   10.1675  -13.2142   19.0220 C   0  0  1  0  0  0  0  0  0  0  0  0
   10.6002  -12.4073   17.9732 O   0  0  0  0  0  0  0  0  0  0  0  0
    8.9648  -14.0458   18.6270 C   0  0  2  0  0  0  0  0  0  0  0  0
    7.9009  -13.2088   18.1083 N   0  0  0  0  0  0  0  0  0  0  0  0
    8.4784  -14.7751   19.8224 C   0  0  0  0  0  0  0  0  0  0  0  0
    7.6739  -14.2538   20.6528 O   0  0  0  0  0  0  0  0  0  0  0  0
    7.3809  -18.5631   19.8099 C   0  0  0  0  0  0  0  0  0  0  0  0
    8.3379  -18.2791   20.9254 C   0  0  1  0  0  0  0  0  0  0  0  0
    9.5660  -18.8403   20.5946 O   0  0  0  0  0  0  0  0  0  0  0  0
    8.4638  -16.8084   21.2584 C   0  0  2  0  0  0  0  0  0  0  0  0
    8.9164  -16.1266   20.0790 N   0  0  0  0  0  0  0  0  0  0  0  0
    9.3925  -16.5870   22.3993 C   0  0  0  0  0  0  0  0  0  0  0  0
   10.5885  -16.3685   22.0947 O   0  0  0  0  0  0  0  0  0  0  0  0
    8.8714  -16.6373   23.7019 N   0  0  0  0  0  0  0  0  0  0  0  0
    9.8051  -16.4384   24.8287 C   0  0  1  0  0  0  0  0  0  0  0  0
    9.6054  -15.0484   25.3052 C   0  0  0  0  0  0  0  0  0  0  0  0
    8.2463  -14.7124   25.7403 C   0  0  0  0  0  0  0  0  0  0  0  0
    7.2000  -15.6347   25.8979 C   0  0  0  0  0  0  0  0  0  0  0  0
    6.1085  -14.9816   26.2711 N   0  0  0  0  0  0  0  0  0  0  0  0
    6.3413  -13.6679   26.3799 C   0  0  0  0  0  0  0  0  0  0  0  0
    5.5577  -12.5903   26.7424 C   0  0  0  0  0  0  0  0  0  0  0  0
    6.1144  -11.3280   26.7763 C   0  0  0  0  0  0  0  0  0  0  0  0
    7.4400  -11.1265   26.4540 C   0  0  0  0  0  0  0  0  0  0  0  0
    8.1852  -12.2216   26.0984 C   0  0  0  0  0  0  0  0  0  0  0  0
    7.6632  -13.4984   26.0524 C   0  0  0  0  0  0  0  0  0  0  0  0
    9.6321  -17.4974   25.8114 C   0  0  0  0  0  0  0  0  0  0  0  0
   10.4808  -17.6570   26.8835 O   0  0  0  0  0  0  0  0  0  0  0  0
    8.6889  -18.3182   25.7075 O   0  0  0  0  0  0  0  0  0  0  0  0
  2  1  1  6
  3  2  1  0
  4  5  1  1
  4  2  1  0
  4  6  1  0
  6  7  2  0
  9 11  1  0
  9  8  1  6
 10  9  1  0
 11 13  1  0
 12  6  1  0
 11 12  1  6
 13 14  2  0
 15 13  1  0
 15 16  1  0
 16 27  1  0
 16 17  1  1
 18 17  1  0
 19 18  2  0
 20 21  1  0
 20 19  1  0
 21 26  2  0
 22 21  1  0
 22 23  2  0
 23 24  1  0
 24 25  2  0
 26 18  1  0
 26 25  1  0
 27 28  1  0
 29 27  2  0
M  END
$$$$
