TTW.pdb
     RDKit          3D

 29 30  0  0  1  0  0  0  0  0999 V2000
   10.2935  -13.7154   16.8577 C   0  0  0  0  0  0  0  0  0  0  0  0
    9.9003  -14.2132   18.2085 C   0  0  1  0  0  0  0  0  0  0  0  0
   10.4711  -13.5065   19.2637 O   0  0  0  0  0  0  0  0  0  0  0  0
    8.3917  -14.2726   18.3278 C   0  0  2  0  0  0  0  0  0  0  0  0
    7.8077  -12.9511   18.2082 N   0  0  0  0  0  0  0  0  0  0  0  0
    8.0419  -14.8470   19.6488 C   0  0  0  0  0  0  0  0  0  0  0  0
    7.8147  -14.1217   20.6640 O   0  0  0  0  0  0  0  0  0  0  0  0
    6.4385  -18.6902   19.9392 C   0  0  0  0  0  0  0  0  0  0  0  0
    7.4674  -18.3152   20.9598 C   0  0  1  0  0  0  0  0  0  0  0  0
    8.6577  -18.9520   20.6278 O   0  0  0  0  0  0  0  0  0  0  0  0
    7.6537  -16.8214   21.1143 C   0  0  2  0  0  0  0  0  0  0  0  0
    7.9485  -16.2777   19.8189 N   0  0  0  0  0  0  0  0  0  0  0  0
    8.7318  -16.5062   22.0897 C   0  0  0  0  0  0  0  0  0  0  0  0
    9.7863  -16.0341   21.6037 O   0  0  0  0  0  0  0  0  0  0  0  0
    8.4925  -16.7546   23.4505 N   0  0  0  0  0  0  0  0  0  0  0  0
    9.5587  -16.4135   24.4139 C   0  0  1  0  0  0  0  0  0  0  0  0
    9.3846  -14.9796   24.7498 C   0  0  0  0  0  0  0  0  0  0  0  0
    8.1108  -14.6227   25.3817 C   0  0  0  0  0  0  0  0  0  0  0  0
    7.0496  -15.5118   25.6132 C   0  0  0  0  0  0  0  0  0  0  0  0
    6.0484  -14.8450   26.1701 N   0  0  0  0  0  0  0  0  0  0  0  0
    6.3571  -13.5530   26.3355 C   0  0  0  0  0  0  0  0  0  0  0  0
    5.6803  -12.4745   26.8698 C   0  0  0  0  0  0  0  0  0  0  0  0
    6.2978  -11.2411   26.9150 C   0  0  0  0  0  0  0  0  0  0  0  0
    7.5792  -11.0694   26.4352 C   0  0  0  0  0  0  0  0  0  0  0  0
    8.2181  -12.1643   25.9117 C   0  0  0  0  0  0  0  0  0  0  0  0
    7.6327  -13.4126   25.8489 C   0  0  0  0  0  0  0  0  0  0  0  0
    9.5434  -17.3517   25.5260 C   0  0  0  0  0  0  0  0  0  0  0  0
    8.6124  -18.3606   25.6294 O   0  0  0  0  0  0  0  0  0  0  0  0
   10.3911  -17.2657   26.4468 O   0  0  0  0  0  0  0  0  0  0  0  0
  2  1  1  6
  3  2  1  0
  4  5  1  1
  4  2  1  0
  4  6  1  0
  6  7  2  0
  9 11  1  0
  9  8  1  6
 10  9  1  0
 11 13  1  0
 12  6  1  0
 11 12  1  6
 13 14  2  0
 15 13  1  0
 15 16  1  0
 16 27  1  0
 16 17  1  1
 18 17  1  0
 19 18  2  0
 20 21  1  0
 20 19  1  0
 21 26  2  0
 22 21  1  0
 22 23  2  0
 23 24  1  0
 24 25  2  0
 26 18  1  0
 26 25  1  0
 27 28  1  0
 29 27  2  0
M  END
$$$$
