TTW.pdb
     RDKit          3D

 29 30  0  0  1  0  0  0  0  0999 V2000
   10.4904  -13.6089   17.1648 C   0  0  0  0  0  0  0  0  0  0  0  0
    9.9996  -14.1064   18.4835 C   0  0  1  0  0  0  0  0  0  0  0  0
   10.5398  -13.4398   19.5800 O   0  0  0  0  0  0  0  0  0  0  0  0
    8.4854  -14.0999   18.5168 C   0  0  2  0  0  0  0  0  0  0  0  0
    7.9667  -12.7574   18.3424 N   0  0  0  0  0  0  0  0  0  0  0  0
    8.0368  -14.6344   19.8246 C   0  0  0  0  0  0  0  0  0  0  0  0
    7.7289  -13.8787   20.7954 O   0  0  0  0  0  0  0  0  0  0  0  0
    6.1787  -18.3183   20.1623 C   0  0  0  0  0  0  0  0  0  0  0  0
    7.2454  -18.0357   21.1739 C   0  0  1  0  0  0  0  0  0  0  0  0
    8.3713  -18.7764   20.8332 O   0  0  0  0  0  0  0  0  0  0  0  0
    7.5653  -16.5643   21.3245 C   0  0  2  0  0  0  0  0  0  0  0  0
    7.9362  -16.0595   20.0329 N   0  0  0  0  0  0  0  0  0  0  0  0
    8.6472  -16.3426   22.3213 C   0  0  0  0  0  0  0  0  0  0  0  0
    9.5681  -15.5709   21.9644 O   0  0  0  0  0  0  0  0  0  0  0  0
    8.5572  -16.9988   23.5590 N   0  0  0  0  0  0  0  0  0  0  0  0
    9.5514  -16.6579   24.5966 C   0  0  1  0  0  0  0  0  0  0  0  0
    9.4480  -15.1954   24.8195 C   0  0  0  0  0  0  0  0  0  0  0  0
    8.1590  -14.7174   25.3289 C   0  0  0  0  0  0  0  0  0  0  0  0
    7.0168  -15.5142   25.5042 C   0  0  0  0  0  0  0  0  0  0  0  0
    6.0288  -14.7511   25.9499 N   0  0  0  0  0  0  0  0  0  0  0  0
    6.4226  -13.4796   26.0919 C   0  0  0  0  0  0  0  0  0  0  0  0
    5.7908  -12.3315   26.5268 C   0  0  0  0  0  0  0  0  0  0  0  0
    6.4966  -11.1466   26.5771 C   0  0  0  0  0  0  0  0  0  0  0  0
    7.8219  -11.0917   26.2000 C   0  0  0  0  0  0  0  0  0  0  0  0
    8.4138  -12.2529   25.7732 C   0  0  0  0  0  0  0  0  0  0  0  0
    7.7403  -13.4558   25.7087 C   0  0  0  0  0  0  0  0  0  0  0  0
    9.3681  -17.5109   25.7610 C   0  0  0  0  0  0  0  0  0  0  0  0
    8.3572  -18.4418   25.8438 O   0  0  0  0  0  0  0  0  0  0  0  0
   10.1369  -17.4193   26.7482 O   0  0  0  0  0  0  0  0  0  0  0  0
  2  1  1  6
  3  2  1  0
  4  5  1  1
  4  2  1  0
  4  6  1  0
  6  7  2  0
  9 11  1  0
  9  8  1  6
 10  9  1  0
 11 13  1  0
 12  6  1  0
 11 12  1  6
 13 14  2  0
 15 13  1  0
 15 16  1  0
 16 27  1  0
 16 17  1  1
 18 17  1  0
 19 18  2  0
 20 21  1  0
 20 19  1  0
 21 26  2  0
 22 21  1  0
 22 23  2  0
 23 24  1  0
 24 25  2  0
 26 18  1  0
 26 25  1  0
 27 28  1  0
 29 27  2  0
M  END
$$$$
