TTW.pdb
     RDKit          3D

 29 30  0  0  1  0  0  0  0  0999 V2000
   11.3204  -14.2197   19.9094 C   0  0  0  0  0  0  0  0  0  0  0  0
   10.3315  -13.2549   19.3451 C   0  0  1  0  0  0  0  0  0  0  0  0
   10.8660  -12.3753   18.4074 O   0  0  0  0  0  0  0  0  0  0  0  0
    9.1305  -13.9955   18.7946 C   0  0  2  0  0  0  0  0  0  0  0  0
    8.2010  -13.0813   18.1606 N   0  0  0  0  0  0  0  0  0  0  0  0
    8.4497  -14.6929   19.9114 C   0  0  0  0  0  0  0  0  0  0  0  0
    7.7819  -14.0706   20.7919 O   0  0  0  0  0  0  0  0  0  0  0  0
    6.9429  -18.4890   19.7175 C   0  0  0  0  0  0  0  0  0  0  0  0
    7.8368  -18.2413   20.8924 C   0  0  1  0  0  0  0  0  0  0  0  0
    9.0479  -18.8818   20.6567 O   0  0  0  0  0  0  0  0  0  0  0  0
    8.0297  -16.7745   21.2105 C   0  0  2  0  0  0  0  0  0  0  0  0
    8.5303  -16.1296   20.0297 N   0  0  0  0  0  0  0  0  0  0  0  0
    8.9533  -16.5848   22.3613 C   0  0  0  0  0  0  0  0  0  0  0  0
    9.9253  -15.8194   22.1603 O   0  0  0  0  0  0  0  0  0  0  0  0
    8.6727  -17.2611   23.5591 N   0  0  0  0  0  0  0  0  0  0  0  0
    9.5432  -16.9975   24.7226 C   0  0  1  0  0  0  0  0  0  0  0  0
    9.5300  -15.5304   24.9390 C   0  0  0  0  0  0  0  0  0  0  0  0
    8.2449  -14.9582   25.3521 C   0  0  0  0  0  0  0  0  0  0  0  0
    7.0597  -15.6878   25.5337 C   0  0  0  0  0  0  0  0  0  0  0  0
    6.0913  -14.8498   25.8760 N   0  0  0  0  0  0  0  0  0  0  0  0
    6.5390  -13.5899   25.9410 C   0  0  0  0  0  0  0  0  0  0  0  0
    5.9449  -12.3850   26.2601 C   0  0  0  0  0  0  0  0  0  0  0  0
    6.7037  -11.2323   26.2544 C   0  0  0  0  0  0  0  0  0  0  0  0
    8.0448  -11.2652   25.9352 C   0  0  0  0  0  0  0  0  0  0  0  0
    8.5981  -12.4807   25.6233 C   0  0  0  0  0  0  0  0  0  0  0  0
    7.8713  -13.6540   25.6176 C   0  0  0  0  0  0  0  0  0  0  0  0
    9.1369  -17.8275   25.8465 C   0  0  0  0  0  0  0  0  0  0  0  0
    9.9138  -17.9787   26.9729 O   0  0  0  0  0  0  0  0  0  0  0  0
    8.0470  -18.4484   25.8216 O   0  0  0  0  0  0  0  0  0  0  0  0
  2  1  1  6
  3  2  1  0
  4  5  1  1
  4  2  1  0
  4  6  1  0
  6  7  2  0
  9 11  1  0
  9  8  1  6
 10  9  1  0
 11 13  1  0
 12  6  1  0
 11 12  1  6
 13 14  2  0
 15 13  1  0
 15 16  1  0
 16 27  1  0
 16 17  1  1
 18 17  1  0
 19 18  2  0
 20 21  1  0
 20 19  1  0
 21 26  2  0
 22 21  1  0
 22 23  2  0
 23 24  1  0
 24 25  2  0
 26 18  1  0
 26 25  1  0
 27 28  1  0
 29 27  2  0
M  END
$$$$
