TTW.pdb
     RDKit          3D

 29 30  0  0  1  0  0  0  0  0999 V2000
    8.5849  -12.2631   18.8659 C   0  0  0  0  0  0  0  0  0  0  0  0
    8.6192  -13.2212   20.0096 C   0  0  1  0  0  0  0  0  0  0  0  0
    7.8140  -12.8535   21.0842 O   0  0  0  0  0  0  0  0  0  0  0  0
    8.3043  -14.6229   19.5301 C   0  0  2  0  0  0  0  0  0  0  0  0
    6.9855  -14.6842   18.9312 N   0  0  0  0  0  0  0  0  0  0  0  0
    8.3615  -15.5454   20.6890 C   0  0  0  0  0  0  0  0  0  0  0  0
    7.3320  -15.8479   21.3652 O   0  0  0  0  0  0  0  0  0  0  0  0
   10.3137  -18.9314   20.6105 C   0  0  0  0  0  0  0  0  0  0  0  0
   10.6590  -18.1458   21.8371 C   0  0  1  0  0  0  0  0  0  0  0  0
   11.9340  -17.6184   21.6679 O   0  0  0  0  0  0  0  0  0  0  0  0
    9.6475  -17.0725   22.1759 C   0  0  2  0  0  0  0  0  0  0  0  0
    9.6168  -16.1366   21.0878 N   0  0  0  0  0  0  0  0  0  0  0  0
    9.9808  -16.3971   23.4588 C   0  0  0  0  0  0  0  0  0  0  0  0
   10.5828  -15.3023   23.3588 O   0  0  0  0  0  0  0  0  0  0  0  0
    9.6040  -17.0220   24.6581 N   0  0  0  0  0  0  0  0  0  0  0  0
    9.9581  -16.3544   25.9270 C   0  0  1  0  0  0  0  0  0  0  0  0
    8.7334  -16.3548   26.7632 C   0  0  0  0  0  0  0  0  0  0  0  0
    7.6713  -15.4374   26.3391 C   0  0  0  0  0  0  0  0  0  0  0  0
    6.4763  -15.8236   25.7122 C   0  0  0  0  0  0  0  0  0  0  0  0
    5.7660  -14.7374   25.4424 N   0  0  0  0  0  0  0  0  0  0  0  0
    6.3995  -13.6294   25.8461 C   0  0  0  0  0  0  0  0  0  0  0  0
    6.0823  -12.2861   25.8099 C   0  0  0  0  0  0  0  0  0  0  0  0
    6.9636  -11.3666   26.3413 C   0  0  0  0  0  0  0  0  0  0  0  0
    8.1551  -11.7684   26.9073 C   0  0  0  0  0  0  0  0  0  0  0  0
    8.4345  -13.1110   26.9237 C   0  0  0  0  0  0  0  0  0  0  0  0
    7.5785  -14.0595   26.4016 C   0  0  0  0  0  0  0  0  0  0  0  0
   11.1422  -16.9745   26.5020 C   0  0  0  0  0  0  0  0  0  0  0  0
   11.7449  -18.0781   25.9417 O   0  0  0  0  0  0  0  0  0  0  0  0
   11.6581  -16.5175   27.5504 O   0  0  0  0  0  0  0  0  0  0  0  0
  2  1  1  6
  3  2  1  0
  4  5  1  1
  4  2  1  0
  4  6  1  0
  6  7  2  0
  9 11  1  0
  9  8  1  6
 10  9  1  0
 11 13  1  0
 12  6  1  0
 11 12  1  6
 13 14  2  0
 15 13  1  0
 15 16  1  0
 16 27  1  0
 16 17  1  1
 18 17  1  0
 19 18  2  0
 20 21  1  0
 20 19  1  0
 21 26  2  0
 22 21  1  0
 22 23  2  0
 23 24  1  0
 24 25  2  0
 26 18  1  0
 26 25  1  0
 27 28  1  0
 29 27  2  0
M  END
$$$$
