TTW.pdb
     RDKit          3D

 29 30  0  0  1  0  0  0  0  0999 V2000
   10.7951  -13.2880   19.8237 C   0  0  0  0  0  0  0  0  0  0  0  0
    9.5733  -12.8235   19.1035 C   0  0  1  0  0  0  0  0  0  0  0  0
    9.8313  -11.9522   18.0486 O   0  0  0  0  0  0  0  0  0  0  0  0
    8.7438  -14.0097   18.6575 C   0  0  2  0  0  0  0  0  0  0  0  0
    7.5472  -13.5765   17.9632 N   0  0  0  0  0  0  0  0  0  0  0  0
    8.3605  -14.7976   19.8531 C   0  0  0  0  0  0  0  0  0  0  0  0
    7.3886  -14.4682   20.5983 O   0  0  0  0  0  0  0  0  0  0  0  0
    7.7442  -18.5544   19.9169 C   0  0  0  0  0  0  0  0  0  0  0  0
    8.7223  -18.2054   20.9952 C   0  0  1  0  0  0  0  0  0  0  0  0
    9.9825  -18.6290   20.5891 O   0  0  0  0  0  0  0  0  0  0  0  0
    8.7161  -16.7393   21.3698 C   0  0  2  0  0  0  0  0  0  0  0  0
    9.0988  -15.9862   20.2092 N   0  0  0  0  0  0  0  0  0  0  0  0
    9.6270  -16.4669   22.5140 C   0  0  0  0  0  0  0  0  0  0  0  0
   10.8017  -16.1503   22.2128 O   0  0  0  0  0  0  0  0  0  0  0  0
    9.1140  -16.5814   23.8158 N   0  0  0  0  0  0  0  0  0  0  0  0
   10.0205  -16.2898   24.9447 C   0  0  1  0  0  0  0  0  0  0  0  0
    9.7258  -14.9027   25.3785 C   0  0  0  0  0  0  0  0  0  0  0  0
    8.3207  -14.6143   25.6820 C   0  0  0  0  0  0  0  0  0  0  0  0
    7.2939  -15.5702   25.7270 C   0  0  0  0  0  0  0  0  0  0  0  0
    6.1510  -14.9558   25.9983 N   0  0  0  0  0  0  0  0  0  0  0  0
    6.3303  -13.6371   26.1429 C   0  0  0  0  0  0  0  0  0  0  0  0
    5.4813  -12.5889   26.4382 C   0  0  0  0  0  0  0  0  0  0  0  0
    5.9918  -11.3107   26.5394 C   0  0  0  0  0  0  0  0  0  0  0  0
    7.3354  -11.0645   26.3504 C   0  0  0  0  0  0  0  0  0  0  0  0
    8.1460  -12.1315   26.0581 C   0  0  0  0  0  0  0  0  0  0  0  0
    7.6718  -13.4230   25.9481 C   0  0  0  0  0  0  0  0  0  0  0  0
    9.9057  -17.3293   25.9564 C   0  0  0  0  0  0  0  0  0  0  0  0
    9.0293  -18.3842   25.8365 O   0  0  0  0  0  0  0  0  0  0  0  0
   10.6115  -17.2933   26.9930 O   0  0  0  0  0  0  0  0  0  0  0  0
  2  1  1  6
  3  2  1  0
  4  5  1  1
  4  2  1  0
  4  6  1  0
  6  7  2  0
  9 11  1  0
  9  8  1  6
 10  9  1  0
 11 13  1  0
 12  6  1  0
 11 12  1  6
 13 14  2  0
 15 13  1  0
 15 16  1  0
 16 27  1  0
 16 17  1  1
 18 17  1  0
 19 18  2  0
 20 21  1  0
 20 19  1  0
 21 26  2  0
 22 21  1  0
 22 23  2  0
 23 24  1  0
 24 25  2  0
 26 18  1  0
 26 25  1  0
 27 28  1  0
 29 27  2  0
M  END
$$$$
