TTW.pdb
     RDKit          3D

 29 30  0  0  1  0  0  0  0  0999 V2000
   10.1018  -14.2318   16.0784 C   0  0  0  0  0  0  0  0  0  0  0  0
    9.7893  -14.3961   17.5284 C   0  0  1  0  0  0  0  0  0  0  0  0
   10.5419  -13.5799   18.3687 O   0  0  0  0  0  0  0  0  0  0  0  0
    8.3037  -14.2252   17.7681 C   0  0  2  0  0  0  0  0  0  0  0  0
    7.8805  -12.8713   17.4688 N   0  0  0  0  0  0  0  0  0  0  0  0
    8.0141  -14.5280   19.1900 C   0  0  0  0  0  0  0  0  0  0  0  0
    7.7249  -13.6227   20.0299 O   0  0  0  0  0  0  0  0  0  0  0  0
    5.7217  -17.5826   20.1195 C   0  0  0  0  0  0  0  0  0  0  0  0
    6.9434  -17.5385   20.9835 C   0  0  1  0  0  0  0  0  0  0  0  0
    7.8059  -18.5448   20.5640 O   0  0  0  0  0  0  0  0  0  0  0  0
    7.6245  -16.1874   21.0042 C   0  0  2  0  0  0  0  0  0  0  0  0
    8.0543  -15.8900   19.6673 N   0  0  0  0  0  0  0  0  0  0  0  0
    8.7685  -16.1699   21.9550 C   0  0  0  0  0  0  0  0  0  0  0  0
    9.9026  -16.3334   21.4471 O   0  0  0  0  0  0  0  0  0  0  0  0
    8.4983  -15.9752   23.3188 N   0  0  0  0  0  0  0  0  0  0  0  0
    9.6243  -16.0789   24.2688 C   0  0  1  0  0  0  0  0  0  0  0  0
    9.5161  -14.9170   25.1839 C   0  0  0  0  0  0  0  0  0  0  0  0
    8.1559  -14.5476   25.5876 C   0  0  0  0  0  0  0  0  0  0  0  0
    7.0693  -15.4330   25.6613 C   0  0  0  0  0  0  0  0  0  0  0  0
    5.9911  -14.7550   26.0287 N   0  0  0  0  0  0  0  0  0  0  0  0
    6.2708  -13.4589   26.2122 C   0  0  0  0  0  0  0  0  0  0  0  0
    5.5171  -12.3693   26.6012 C   0  0  0  0  0  0  0  0  0  0  0  0
    6.1211  -11.1340   26.7186 C   0  0  0  0  0  0  0  0  0  0  0  0
    7.4645  -10.9712   26.4537 C   0  0  0  0  0  0  0  0  0  0  0  0
    8.1790  -12.0770   26.0693 C   0  0  0  0  0  0  0  0  0  0  0  0
    7.6096  -13.3276   25.9403 C   0  0  0  0  0  0  0  0  0  0  0  0
    9.6360  -17.3971   24.8849 C   0  0  0  0  0  0  0  0  0  0  0  0
    8.6100  -18.2999   24.7189 O   0  0  0  0  0  0  0  0  0  0  0  0
   10.5975  -17.7575   25.6056 O   0  0  0  0  0  0  0  0  0  0  0  0
  2  1  1  6
  3  2  1  0
  4  5  1  1
  4  2  1  0
  4  6  1  0
  6  7  2  0
  9 11  1  0
  9  8  1  6
 10  9  1  0
 11 13  1  0
 12  6  1  0
 11 12  1  6
 13 14  2  0
 15 13  1  0
 15 16  1  0
 16 27  1  0
 16 17  1  1
 18 17  1  0
 19 18  2  0
 20 21  1  0
 20 19  1  0
 21 26  2  0
 22 21  1  0
 22 23  2  0
 23 24  1  0
 24 25  2  0
 26 18  1  0
 26 25  1  0
 27 28  1  0
 29 27  2  0
M  END
$$$$
