TTW.pdb
     RDKit          3D

 29 30  0  0  1  0  0  0  0  0999 V2000
   10.9928  -13.8711   16.9394 C   0  0  0  0  0  0  0  0  0  0  0  0
   10.4072  -14.1423   18.2851 C   0  0  1  0  0  0  0  0  0  0  0  0
   10.8582  -13.2851   19.2852 O   0  0  0  0  0  0  0  0  0  0  0  0
    8.8948  -14.1606   18.2057 C   0  0  2  0  0  0  0  0  0  0  0  0
    8.3781  -12.8621   17.8200 N   0  0  0  0  0  0  0  0  0  0  0  0
    8.3538  -14.5299   19.5354 C   0  0  0  0  0  0  0  0  0  0  0  0
    7.9530  -13.6616   20.3685 O   0  0  0  0  0  0  0  0  0  0  0  0
    5.9292  -17.6553   20.2357 C   0  0  0  0  0  0  0  0  0  0  0  0
    7.1215  -17.6198   21.1401 C   0  0  1  0  0  0  0  0  0  0  0  0
    8.0168  -18.5940   20.7135 O   0  0  0  0  0  0  0  0  0  0  0  0
    7.7747  -16.2578   21.2312 C   0  0  2  0  0  0  0  0  0  0  0  0
    8.2668  -15.9169   19.9265 N   0  0  0  0  0  0  0  0  0  0  0  0
    8.8678  -16.2456   22.2402 C   0  0  0  0  0  0  0  0  0  0  0  0
   10.0327  -16.3196   21.7834 O   0  0  0  0  0  0  0  0  0  0  0  0
    8.5207  -16.1534   23.5973 N   0  0  0  0  0  0  0  0  0  0  0  0
    9.6085  -16.2074   24.5948 C   0  0  1  0  0  0  0  0  0  0  0  0
    9.5121  -14.9632   25.3959 C   0  0  0  0  0  0  0  0  0  0  0  0
    8.1548  -14.5355   25.7488 C   0  0  0  0  0  0  0  0  0  0  0  0
    7.0418  -15.3854   25.8441 C   0  0  0  0  0  0  0  0  0  0  0  0
    5.9761  -14.6594   26.1510 N   0  0  0  0  0  0  0  0  0  0  0  0
    6.2890  -13.3635   26.2727 C   0  0  0  0  0  0  0  0  0  0  0  0
    5.5589  -12.2345   26.5871 C   0  0  0  0  0  0  0  0  0  0  0  0
    6.1956  -11.0119   26.6534 C   0  0  0  0  0  0  0  0  0  0  0  0
    7.5485  -10.9006   26.4108 C   0  0  0  0  0  0  0  0  0  0  0  0
    8.2388  -12.0445   26.1010 C   0  0  0  0  0  0  0  0  0  0  0  0
    7.6365  -13.2839   26.0247 C   0  0  0  0  0  0  0  0  0  0  0  0
    9.5498  -17.4629   25.3278 C   0  0  0  0  0  0  0  0  0  0  0  0
   10.5669  -17.8849   26.1541 O   0  0  0  0  0  0  0  0  0  0  0  0
    8.5534  -18.2181   25.2237 O   0  0  0  0  0  0  0  0  0  0  0  0
  2  1  1  6
  3  2  1  0
  4  5  1  1
  4  2  1  0
  4  6  1  0
  6  7  2  0
  9 11  1  0
  9  8  1  6
 10  9  1  0
 11 13  1  0
 12  6  1  0
 11 12  1  6
 13 14  2  0
 15 13  1  0
 15 16  1  0
 16 27  1  0
 16 17  1  1
 18 17  1  0
 19 18  2  0
 20 21  1  0
 20 19  1  0
 21 26  2  0
 22 21  1  0
 22 23  2  0
 23 24  1  0
 24 25  2  0
 26 18  1  0
 26 25  1  0
 27 28  1  0
 29 27  2  0
M  END
$$$$
