TTW.pdb
     RDKit          3D

 29 30  0  0  1  0  0  0  0  0999 V2000
   10.7800  -13.7588   16.7491 C   0  0  0  0  0  0  0  0  0  0  0  0
   10.2543  -14.1692   18.0842 C   0  0  1  0  0  0  0  0  0  0  0  0
   10.5961  -13.3045   19.1206 O   0  0  0  0  0  0  0  0  0  0  0  0
    8.7579  -14.3920   18.0137 C   0  0  2  0  0  0  0  0  0  0  0  0
    8.0659  -13.1692   17.6566 N   0  0  0  0  0  0  0  0  0  0  0  0
    8.2838  -14.8562   19.3392 C   0  0  0  0  0  0  0  0  0  0  0  0
    7.7667  -14.0680   20.1876 O   0  0  0  0  0  0  0  0  0  0  0  0
    6.6954  -18.5480   19.8462 C   0  0  0  0  0  0  0  0  0  0  0  0
    7.6717  -18.1693   20.9159 C   0  0  1  0  0  0  0  0  0  0  0  0
    8.8407  -18.8930   20.7101 O   0  0  0  0  0  0  0  0  0  0  0  0
    7.9387  -16.6819   20.9958 C   0  0  2  0  0  0  0  0  0  0  0  0
    8.4005  -16.2472   19.7080 N   0  0  0  0  0  0  0  0  0  0  0  0
    8.9290  -16.3639   22.0595 C   0  0  0  0  0  0  0  0  0  0  0  0
   10.0390  -15.9385   21.6619 O   0  0  0  0  0  0  0  0  0  0  0  0
    8.5544  -16.5588   23.3983 N   0  0  0  0  0  0  0  0  0  0  0  0
    9.5607  -16.2880   24.4447 C   0  0  1  0  0  0  0  0  0  0  0  0
    9.3419  -14.8914   24.8929 C   0  0  0  0  0  0  0  0  0  0  0  0
    8.0645  -14.6294   25.5630 C   0  0  0  0  0  0  0  0  0  0  0  0
    7.0358  -15.5693   25.7316 C   0  0  0  0  0  0  0  0  0  0  0  0
    6.0199  -14.9834   26.3494 N   0  0  0  0  0  0  0  0  0  0  0  0
    6.2881  -13.6993   26.6158 C   0  0  0  0  0  0  0  0  0  0  0  0
    5.5827  -12.6906   27.2415 C   0  0  0  0  0  0  0  0  0  0  0  0
    6.1600  -11.4448   27.3806 C   0  0  0  0  0  0  0  0  0  0  0  0
    7.4293  -11.1921   26.9047 C   0  0  0  0  0  0  0  0  0  0  0  0
    8.0975  -12.2193   26.2888 C   0  0  0  0  0  0  0  0  0  0  0  0
    7.5526  -13.4775   26.1307 C   0  0  0  0  0  0  0  0  0  0  0  0
    9.5035  -17.3197   25.4692 C   0  0  0  0  0  0  0  0  0  0  0  0
   10.4400  -17.4169   26.4736 O   0  0  0  0  0  0  0  0  0  0  0  0
    8.5843  -18.1734   25.4662 O   0  0  0  0  0  0  0  0  0  0  0  0
  2  1  1  6
  3  2  1  0
  4  5  1  1
  4  2  1  0
  4  6  1  0
  6  7  2  0
  9 11  1  0
  9  8  1  6
 10  9  1  0
 11 13  1  0
 12  6  1  0
 11 12  1  6
 13 14  2  0
 15 13  1  0
 15 16  1  0
 16 27  1  0
 16 17  1  1
 18 17  1  0
 19 18  2  0
 20 21  1  0
 20 19  1  0
 21 26  2  0
 22 21  1  0
 22 23  2  0
 23 24  1  0
 24 25  2  0
 26 18  1  0
 26 25  1  0
 27 28  1  0
 29 27  2  0
M  END
$$$$
