TTW.pdb
     RDKit          3D

 29 30  0  0  1  0  0  0  0  0999 V2000
    8.7328  -11.9093   18.6800 C   0  0  0  0  0  0  0  0  0  0  0  0
    8.3963  -12.9281   19.7174 C   0  0  1  0  0  0  0  0  0  0  0  0
    7.1495  -12.7465   20.3099 O   0  0  0  0  0  0  0  0  0  0  0  0
    8.5469  -14.3244   19.1505 C   0  0  2  0  0  0  0  0  0  0  0  0
    7.5620  -14.5755   18.1167 N   0  0  0  0  0  0  0  0  0  0  0  0
    8.3683  -15.3045   20.2482 C   0  0  0  0  0  0  0  0  0  0  0  0
    7.2251  -15.7245   20.6018 O   0  0  0  0  0  0  0  0  0  0  0  0
    9.5709  -18.7100   20.3114 C   0  0  0  0  0  0  0  0  0  0  0  0
   10.1117  -18.0515   21.5423 C   0  0  1  0  0  0  0  0  0  0  0  0
   11.4536  -17.7617   21.3232 O   0  0  0  0  0  0  0  0  0  0  0  0
    9.3341  -16.8247   21.9666 C   0  0  2  0  0  0  0  0  0  0  0  0
    9.5151  -15.8180   20.9595 N   0  0  0  0  0  0  0  0  0  0  0  0
    9.7739  -16.3373   23.3016 C   0  0  0  0  0  0  0  0  0  0  0  0
   10.5981  -15.3930   23.2933 O   0  0  0  0  0  0  0  0  0  0  0  0
    9.2443  -16.9569   24.4446 N   0  0  0  0  0  0  0  0  0  0  0  0
    9.8212  -16.5981   25.7560 C   0  0  1  0  0  0  0  0  0  0  0  0
    8.6870  -16.5014   26.7065 C   0  0  0  0  0  0  0  0  0  0  0  0
    7.6711  -15.4938   26.3869 C   0  0  0  0  0  0  0  0  0  0  0  0
    6.4339  -15.7618   25.7804 C   0  0  0  0  0  0  0  0  0  0  0  0
    5.7846  -14.6183   25.6129 N   0  0  0  0  0  0  0  0  0  0  0  0
    6.4996  -13.5820   26.0676 C   0  0  0  0  0  0  0  0  0  0  0  0
    6.2663  -12.2228   26.1357 C   0  0  0  0  0  0  0  0  0  0  0  0
    7.2209  -11.3981   26.6954 C   0  0  0  0  0  0  0  0  0  0  0  0
    8.4031  -11.9102   27.1871 C   0  0  0  0  0  0  0  0  0  0  0  0
    8.5980  -13.2650   27.1007 C   0  0  0  0  0  0  0  0  0  0  0  0
    7.6672  -14.1207   26.5473 C   0  0  0  0  0  0  0  0  0  0  0  0
   10.8865  -17.5268   26.1020 C   0  0  0  0  0  0  0  0  0  0  0  0
   11.7512  -17.3029   27.1496 O   0  0  0  0  0  0  0  0  0  0  0  0
   11.0578  -18.5786   25.4401 O   0  0  0  0  0  0  0  0  0  0  0  0
  2  1  1  6
  3  2  1  0
  4  5  1  6
  4  2  1  0
  4  6  1  0
  6  7  2  0
  9 11  1  0
  9  8  1  6
 10  9  1  0
 11 13  1  0
 12  6  1  0
 11 12  1  6
 13 14  2  0
 15 13  1  0
 15 16  1  0
 16 27  1  0
 16 17  1  1
 18 17  1  0
 19 18  2  0
 20 21  1  0
 20 19  1  0
 21 26  2  0
 22 21  1  0
 22 23  2  0
 23 24  1  0
 24 25  2  0
 26 18  1  0
 26 25  1  0
 27 28  1  0
 29 27  2  0
M  END
$$$$
