DNF.pdb
     RDKit          3D

 28 28  0  0  1  0  0  0  0  0999 V2000
    7.2688  -18.1581   20.4591 N   0  0  0  0  0  0  0  0  0  0  0  0
    8.6503  -18.0787   20.0413 C   0  0  1  0  0  0  0  0  0  0  0  0
    8.7866  -18.2776   18.5458 C   0  0  0  0  0  0  0  0  0  0  0  0
    7.9853  -19.4508   18.1450 C   0  0  0  0  0  0  0  0  0  0  0  0
    7.7730  -20.3953   18.9401 O   0  0  0  0  0  0  0  0  0  0  0  0
    9.2085  -16.7845   20.4763 C   0  0  0  0  0  0  0  0  0  0  0  0
   10.3491  -16.3890   20.0552 O   0  0  0  0  0  0  0  0  0  0  0  0
    7.4535  -19.5159   16.8645 O   0  0  0  0  0  0  0  0  0  0  0  0
    8.1548  -12.4005   19.2718 N   0  0  0  0  0  0  0  0  0  0  0  0
    7.7635  -13.4356   20.1437 C   0  0  0  0  0  0  0  0  0  0  0  0
    6.9829  -14.3296   19.7614 O   0  0  0  0  0  0  0  0  0  0  0  0
    8.2812  -13.4640   21.5230 C   0  0  0  0  0  0  0  0  0  0  0  0
    9.1099  -14.6628   21.8422 C   0  0  2  0  0  0  0  0  0  0  0  0
    8.5366  -15.9070   21.3713 N   0  0  0  0  0  0  0  0  0  0  0  0
    9.3060  -14.7039   23.3058 C   0  0  0  0  0  0  0  0  0  0  0  0
    9.9314  -13.7905   23.8776 O   0  0  0  0  0  0  0  0  0  0  0  0
    8.7869  -15.7752   24.0609 N   0  0  0  0  0  0  0  0  0  0  0  0
    9.0734  -15.8783   25.4943 C   0  0  1  0  0  0  0  0  0  0  0  0
    7.7315  -15.8783   26.1821 C   0  0  0  0  0  0  0  0  0  0  0  0
    7.2492  -14.4928   26.2936 C   0  0  0  0  0  0  0  0  0  0  0  0
    8.0564  -13.5102   26.7938 C   0  0  0  0  0  0  0  0  0  0  0  0
    7.5840  -12.2041   26.8899 C   0  0  0  0  0  0  0  0  0  0  0  0
    6.2894  -11.9037   26.4757 C   0  0  0  0  0  0  0  0  0  0  0  0
    5.4762  -12.8844   25.9738 C   0  0  0  0  0  0  0  0  0  0  0  0
    5.9588  -14.1662   25.8864 C   0  0  0  0  0  0  0  0  0  0  0  0
    9.8913  -17.0599   25.7277 C   0  0  0  0  0  0  0  0  0  0  0  0
   10.4142  -17.3382   26.9731 O   0  0  0  0  0  0  0  0  0  0  0  0
   10.1492  -17.8625   24.8071 O   0  0  0  0  0  0  0  0  0  0  0  0
  2  1  1  6
  2  3  1  0
  3  4  1  0
  4  8  1  0
  5  4  2  0
  6  2  1  0
  7  6  2  0
  9 10  1  0
 10 11  2  0
 10 12  1  0
 13 12  1  1
 13 15  1  0
 13 14  1  0
 14  6  1  0
 15 16  2  0
 17 18  1  0
 17 15  1  0
 18 19  1  1
 19 20  1  0
 20 25  2  0
 21 20  1  0
 21 22  2  0
 22 23  1  0
 23 24  2  0
 25 24  1  0
 26 27  1  0
 26 18  1  0
 28 26  2  0
M  END
$$$$
