DNF.pdb
     RDKit          3D

 28 28  0  0  1  0  0  0  0  0999 V2000
    9.3765  -13.4374   19.6163 N   0  0  0  0  0  0  0  0  0  0  0  0
    8.0028  -13.4403   20.0660 C   0  0  1  0  0  0  0  0  0  0  0  0
    7.0415  -13.5605   18.9016 C   0  0  0  0  0  0  0  0  0  0  0  0
    7.8120  -13.8315   17.6720 C   0  0  0  0  0  0  0  0  0  0  0  0
    8.6295  -12.9968   17.2199 O   0  0  0  0  0  0  0  0  0  0  0  0
    7.8210  -14.5304   21.0430 C   0  0  0  0  0  0  0  0  0  0  0  0
    6.6595  -14.8198   21.4921 O   0  0  0  0  0  0  0  0  0  0  0  0
    7.6331  -15.0319   16.9984 O   0  0  0  0  0  0  0  0  0  0  0  0
    7.8394  -18.7099   20.3805 N   0  0  0  0  0  0  0  0  0  0  0  0
    9.0570  -18.0693   20.6843 C   0  0  0  0  0  0  0  0  0  0  0  0
    9.8917  -17.8304   19.7894 O   0  0  0  0  0  0  0  0  0  0  0  0
    9.3490  -17.6766   22.0742 C   0  0  0  0  0  0  0  0  0  0  0  0
    8.7147  -16.3933   22.4948 C   0  0  2  0  0  0  0  0  0  0  0  0
    8.8955  -15.3169   21.5424 N   0  0  0  0  0  0  0  0  0  0  0  0
    9.2725  -16.0200   23.8107 C   0  0  0  0  0  0  0  0  0  0  0  0
   10.4141  -15.5267   23.8876 O   0  0  0  0  0  0  0  0  0  0  0  0
    8.5165  -16.2198   24.9838 N   0  0  0  0  0  0  0  0  0  0  0  0
    9.0936  -15.9199   26.2969 C   0  0  1  0  0  0  0  0  0  0  0  0
    7.9448  -15.4486   27.1523 C   0  0  0  0  0  0  0  0  0  0  0  0
    7.6019  -14.0679   26.7771 C   0  0  0  0  0  0  0  0  0  0  0  0
    8.4944  -13.0505   26.9655 C   0  0  0  0  0  0  0  0  0  0  0  0
    8.1536  -11.7504   26.6025 C   0  0  0  0  0  0  0  0  0  0  0  0
    6.9032  -11.4913   26.0482 C   0  0  0  0  0  0  0  0  0  0  0  0
    6.0048  -12.5070   25.8573 C   0  0  0  0  0  0  0  0  0  0  0  0
    6.3581  -13.7823   26.2211 C   0  0  0  0  0  0  0  0  0  0  0  0
    9.7893  -17.1013   26.7868 C   0  0  0  0  0  0  0  0  0  0  0  0
    9.8065  -18.2767   26.0656 O   0  0  0  0  0  0  0  0  0  0  0  0
   10.3940  -17.0918   27.8788 O   0  0  0  0  0  0  0  0  0  0  0  0
  2  1  1  6
  2  3  1  0
  3  4  1  0
  4  8  1  0
  5  4  2  0
  6  2  1  0
  7  6  2  0
  9 10  1  0
 10 11  2  0
 10 12  1  0
 13 12  1  6
 13 15  1  0
 13 14  1  0
 14  6  1  0
 15 16  2  0
 17 18  1  0
 17 15  1  0
 18 19  1  1
 19 20  1  0
 20 25  2  0
 21 20  1  0
 21 22  2  0
 22 23  1  0
 23 24  2  0
 25 24  1  0
 26 27  1  0
 26 18  1  0
 28 26  2  0
M  END
$$$$
