DNF.pdb
     RDKit          3D

 28 28  0  0  1  0  0  0  0  0999 V2000
    9.3990  -13.1269   19.8533 N   0  0  0  0  0  0  0  0  0  0  0  0
    8.0343  -13.3251   20.2864 C   0  0  1  0  0  0  0  0  0  0  0  0
    7.1003  -13.4957   19.1061 C   0  0  0  0  0  0  0  0  0  0  0  0
    7.7546  -14.3548   18.0995 C   0  0  0  0  0  0  0  0  0  0  0  0
    8.2217  -15.4758   18.4066 O   0  0  0  0  0  0  0  0  0  0  0  0
    7.9845  -14.4837   21.1979 C   0  0  0  0  0  0  0  0  0  0  0  0
    6.8698  -14.9039   21.6621 O   0  0  0  0  0  0  0  0  0  0  0  0
    7.8580  -13.9190   16.7857 O   0  0  0  0  0  0  0  0  0  0  0  0
   10.7425  -17.9095   19.7115 N   0  0  0  0  0  0  0  0  0  0  0  0
    9.7944  -18.0431   20.7450 C   0  0  0  0  0  0  0  0  0  0  0  0
    8.7323  -18.6690   20.5582 O   0  0  0  0  0  0  0  0  0  0  0  0
   10.0589  -17.4373   22.0619 C   0  0  0  0  0  0  0  0  0  0  0  0
    9.0862  -16.3765   22.4552 C   0  0  2  0  0  0  0  0  0  0  0  0
    9.1416  -15.1977   21.6150 N   0  0  0  0  0  0  0  0  0  0  0  0
    9.3465  -16.0206   23.8651 C   0  0  0  0  0  0  0  0  0  0  0  0
   10.3172  -15.2960   24.1570 O   0  0  0  0  0  0  0  0  0  0  0  0
    8.4989  -16.4985   24.8851 N   0  0  0  0  0  0  0  0  0  0  0  0
    8.7883  -16.1984   26.2899 C   0  0  1  0  0  0  0  0  0  0  0  0
    7.4804  -15.7507   26.8920 C   0  0  0  0  0  0  0  0  0  0  0  0
    7.2895  -14.3185   26.6148 C   0  0  0  0  0  0  0  0  0  0  0  0
    8.1154  -13.3830   27.1717 C   0  0  0  0  0  0  0  0  0  0  0  0
    7.9214  -12.0322   26.8964 C   0  0  0  0  0  0  0  0  0  0  0  0
    6.8853  -11.6389   26.0539 C   0  0  0  0  0  0  0  0  0  0  0  0
    6.0546  -12.5721   25.4932 C   0  0  0  0  0  0  0  0  0  0  0  0
    6.2610  -13.8991   25.7758 C   0  0  0  0  0  0  0  0  0  0  0  0
    9.3879  -17.3719   26.9087 C   0  0  0  0  0  0  0  0  0  0  0  0
    9.4472  -18.5817   26.2492 O   0  0  0  0  0  0  0  0  0  0  0  0
    9.8685  -17.3242   28.0598 O   0  0  0  0  0  0  0  0  0  0  0  0
  2  1  1  6
  2  3  1  0
  3  4  1  0
  4  8  1  0
  5  4  2  0
  6  2  1  0
  7  6  2  0
  9 10  1  0
 10 11  2  0
 10 12  1  0
 13 12  1  6
 13 15  1  0
 13 14  1  0
 14  6  1  0
 15 16  2  0
 17 18  1  0
 17 15  1  0
 18 19  1  1
 19 20  1  0
 20 25  2  0
 21 20  1  0
 21 22  2  0
 22 23  1  0
 23 24  2  0
 25 24  1  0
 26 27  1  0
 26 18  1  0
 28 26  2  0
M  END
$$$$
