DNF.pdb
     RDKit          3D

 28 28  0  0  1  0  0  0  0  0999 V2000
    8.2221  -16.0182   19.9702 N   0  0  0  0  0  0  0  0  0  0  0  0
    7.7788  -17.1552   20.7449 C   0  0  1  0  0  0  0  0  0  0  0  0
    7.5875  -18.3774   19.8708 C   0  0  0  0  0  0  0  0  0  0  0  0
    6.8254  -17.9896   18.6675 C   0  0  0  0  0  0  0  0  0  0  0  0
    7.4010  -17.5345   17.6522 O   0  0  0  0  0  0  0  0  0  0  0  0
    8.7468  -17.4022   21.8301 C   0  0  0  0  0  0  0  0  0  0  0  0
    8.6231  -18.4157   22.5994 O   0  0  0  0  0  0  0  0  0  0  0  0
    5.4444  -18.1289   18.6532 O   0  0  0  0  0  0  0  0  0  0  0  0
   13.5159  -17.7650   21.4909 N   0  0  0  0  0  0  0  0  0  0  0  0
   12.7444  -16.5908   21.5956 C   0  0  0  0  0  0  0  0  0  0  0  0
   12.5505  -15.8652   20.6003 O   0  0  0  0  0  0  0  0  0  0  0  0
   12.1593  -16.2144   22.8945 C   0  0  0  0  0  0  0  0  0  0  0  0
   10.8121  -16.8011   23.1531 C   0  0  2  0  0  0  0  0  0  0  0  0
    9.8577  -16.5536   22.0918 N   0  0  0  0  0  0  0  0  0  0  0  0
   10.3164  -16.2556   24.4333 C   0  0  0  0  0  0  0  0  0  0  0  0
   10.8039  -15.2060   24.8951 O   0  0  0  0  0  0  0  0  0  0  0  0
    9.2910  -16.9193   25.1372 N   0  0  0  0  0  0  0  0  0  0  0  0
    8.9438  -16.5099   26.5007 C   0  0  1  0  0  0  0  0  0  0  0  0
    7.5118  -16.0417   26.4366 C   0  0  0  0  0  0  0  0  0  0  0  0
    7.4918  -14.5813   26.2598 C   0  0  0  0  0  0  0  0  0  0  0  0
    7.2514  -14.0293   25.0330 C   0  0  0  0  0  0  0  0  0  0  0  0
    7.2340  -12.6451   24.8848 C   0  0  0  0  0  0  0  0  0  0  0  0
    7.4618  -11.8274   25.9881 C   0  0  0  0  0  0  0  0  0  0  0  0
    7.7033  -12.3752   27.2197 C   0  0  0  0  0  0  0  0  0  0  0  0
    7.7167  -13.7416   27.3470 C   0  0  0  0  0  0  0  0  0  0  0  0
    9.1936  -17.6232   27.4050 C   0  0  0  0  0  0  0  0  0  0  0  0
    9.3167  -17.4313   28.7652 O   0  0  0  0  0  0  0  0  0  0  0  0
    9.3067  -18.7914   26.9800 O   0  0  0  0  0  0  0  0  0  0  0  0
  2  1  1  6
  2  3  1  0
  3  4  1  0
  4  8  1  0
  5  4  2  0
  6  2  1  0
  7  6  2  0
  9 10  1  0
 10 11  2  0
 10 12  1  0
 13 12  1  6
 13 15  1  0
 13 14  1  0
 14  6  1  0
 15 16  2  0
 17 18  1  0
 17 15  1  0
 18 19  1  6
 19 20  1  0
 20 25  2  0
 21 20  1  0
 21 22  2  0
 22 23  1  0
 23 24  2  0
 25 24  1  0
 26 27  1  0
 26 18  1  0
 28 26  2  0
M  END
$$$$
