DNF.pdb
     RDKit          3D

 28 28  0  0  1  0  0  0  0  0999 V2000
    9.6583  -13.3883   19.6148 N   0  0  0  0  0  0  0  0  0  0  0  0
    8.2952  -13.3485   20.0942 C   0  0  1  0  0  0  0  0  0  0  0  0
    7.3058  -13.3971   18.9483 C   0  0  0  0  0  0  0  0  0  0  0  0
    8.0110  -13.8317   17.7265 C   0  0  0  0  0  0  0  0  0  0  0  0
    9.1425  -13.3808   17.4338 O   0  0  0  0  0  0  0  0  0  0  0  0
    8.0894  -14.4574   21.0449 C   0  0  0  0  0  0  0  0  0  0  0  0
    6.9324  -14.6928   21.5353 O   0  0  0  0  0  0  0  0  0  0  0  0
    7.4155  -14.7574   16.8807 O   0  0  0  0  0  0  0  0  0  0  0  0
    8.4225  -18.8860   20.3488 N   0  0  0  0  0  0  0  0  0  0  0  0
    9.5330  -18.0924   20.6980 C   0  0  0  0  0  0  0  0  0  0  0  0
   10.3804  -17.7705   19.8419 O   0  0  0  0  0  0  0  0  0  0  0  0
    9.6967  -17.6367   22.0897 C   0  0  0  0  0  0  0  0  0  0  0  0
    8.9358  -16.3972   22.4225 C   0  0  2  0  0  0  0  0  0  0  0  0
    9.1348  -15.3215   21.4730 N   0  0  0  0  0  0  0  0  0  0  0  0
    9.3327  -15.9703   23.7798 C   0  0  0  0  0  0  0  0  0  0  0  0
   10.4002  -15.3512   23.9523 O   0  0  0  0  0  0  0  0  0  0  0  0
    8.5065  -16.2610   24.8845 N   0  0  0  0  0  0  0  0  0  0  0  0
    8.9274  -15.8974   26.2402 C   0  0  1  0  0  0  0  0  0  0  0  0
    7.6652  -15.5232   26.9754 C   0  0  0  0  0  0  0  0  0  0  0  0
    7.2919  -14.1457   26.6180 C   0  0  0  0  0  0  0  0  0  0  0  0
    8.1471  -13.1064   26.8543 C   0  0  0  0  0  0  0  0  0  0  0  0
    7.7780  -11.8097   26.5074 C   0  0  0  0  0  0  0  0  0  0  0  0
    6.5375  -11.5762   25.9204 C   0  0  0  0  0  0  0  0  0  0  0  0
    5.6766  -12.6139   25.6814 C   0  0  0  0  0  0  0  0  0  0  0  0
    6.0574  -13.8855   26.0299 C   0  0  0  0  0  0  0  0  0  0  0  0
    9.6756  -17.0064   26.8147 C   0  0  0  0  0  0  0  0  0  0  0  0
    9.8183  -18.2024   26.1431 O   0  0  0  0  0  0  0  0  0  0  0  0
   10.2135  -16.9135   27.9373 O   0  0  0  0  0  0  0  0  0  0  0  0
  2  1  1  6
  2  3  1  0
  3  4  1  0
  4  8  1  0
  5  4  2  0
  6  2  1  0
  7  6  2  0
  9 10  1  0
 10 11  2  0
 10 12  1  0
 13 12  1  6
 13 15  1  0
 13 14  1  0
 14  6  1  0
 15 16  2  0
 17 18  1  0
 17 15  1  0
 18 19  1  1
 19 20  1  0
 20 25  2  0
 21 20  1  0
 21 22  2  0
 22 23  1  0
 23 24  2  0
 25 24  1  0
 26 27  1  0
 26 18  1  0
 28 26  2  0
M  END
$$$$
