DNF.pdb
     RDKit          3D

 28 28  0  0  1  0  0  0  0  0999 V2000
    8.7811  -17.2156   18.6653 N   0  0  0  0  0  0  0  0  0  0  0  0
    8.5337  -15.8895   19.1845 C   0  0  1  0  0  0  0  0  0  0  0  0
    7.4995  -15.1565   18.3553 C   0  0  0  0  0  0  0  0  0  0  0  0
    7.9899  -15.0480   16.9671 C   0  0  0  0  0  0  0  0  0  0  0  0
    7.8353  -15.9832   16.1482 O   0  0  0  0  0  0  0  0  0  0  0  0
    8.1281  -15.9967   20.5986 C   0  0  0  0  0  0  0  0  0  0  0  0
    7.7516  -14.9641   21.2517 O   0  0  0  0  0  0  0  0  0  0  0  0
    8.6356  -13.8907   16.5540 O   0  0  0  0  0  0  0  0  0  0  0  0
    4.7875  -18.9627   23.1793 N   0  0  0  0  0  0  0  0  0  0  0  0
    5.9953  -19.1066   22.4683 C   0  0  0  0  0  0  0  0  0  0  0  0
    6.0029  -19.5795   21.3146 O   0  0  0  0  0  0  0  0  0  0  0  0
    7.2645  -18.6944   23.0931 C   0  0  0  0  0  0  0  0  0  0  0  0
    7.7233  -17.3286   22.7056 C   0  0  2  0  0  0  0  0  0  0  0  0
    8.1266  -17.2235   21.3183 N   0  0  0  0  0  0  0  0  0  0  0  0
    8.8380  -16.9525   23.5991 C   0  0  0  0  0  0  0  0  0  0  0  0
    9.9964  -17.3363   23.3475 O   0  0  0  0  0  0  0  0  0  0  0  0
    8.5962  -16.1587   24.7388 N   0  0  0  0  0  0  0  0  0  0  0  0
    9.6998  -15.7805   25.6256 C   0  0  1  0  0  0  0  0  0  0  0  0
    9.8512  -14.2875   25.4788 C   0  0  0  0  0  0  0  0  0  0  0  0
    8.6229  -13.6314   25.9535 C   0  0  0  0  0  0  0  0  0  0  0  0
    8.5203  -13.1896   27.2425 C   0  0  0  0  0  0  0  0  0  0  0  0
    7.3511  -12.5689   27.6737 C   0  0  0  0  0  0  0  0  0  0  0  0
    6.2895  -12.4006   26.7891 C   0  0  0  0  0  0  0  0  0  0  0  0
    6.3868  -12.8415   25.4963 C   0  0  0  0  0  0  0  0  0  0  0  0
    7.5470  -13.4510   25.0889 C   0  0  0  0  0  0  0  0  0  0  0  0
    9.4023  -16.2454   26.9728 C   0  0  0  0  0  0  0  0  0  0  0  0
   10.3231  -16.1306   27.9931 O   0  0  0  0  0  0  0  0  0  0  0  0
    8.3025  -16.7661   27.2513 O   0  0  0  0  0  0  0  0  0  0  0  0
  2  1  1  6
  2  3  1  0
  3  4  1  0
  4  8  1  0
  5  4  2  0
  6  2  1  0
  7  6  2  0
  9 10  1  0
 10 11  2  0
 10 12  1  0
 13 12  1  1
 13 15  1  0
 13 14  1  0
 14  6  1  0
 15 16  2  0
 17 18  1  0
 17 15  1  0
 18 19  1  1
 19 20  1  0
 20 25  2  0
 21 20  1  0
 21 22  2  0
 22 23  1  0
 23 24  2  0
 25 24  1  0
 26 27  1  0
 26 18  1  0
 28 26  2  0
M  END
$$$$
