DNF.pdb
     RDKit          3D

 28 28  0  0  1  0  0  0  0  0999 V2000
    8.9637  -18.2889   20.1761 N   0  0  0  0  0  0  0  0  0  0  0  0
   10.2204  -17.6122   19.9475 C   0  0  1  0  0  0  0  0  0  0  0  0
   10.5735  -17.5872   18.4747 C   0  0  0  0  0  0  0  0  0  0  0  0
   10.6212  -18.9741   17.9714 C   0  0  0  0  0  0  0  0  0  0  0  0
    9.7484  -19.4110   17.1860 O   0  0  0  0  0  0  0  0  0  0  0  0
   10.1433  -16.2537   20.5168 C   0  0  0  0  0  0  0  0  0  0  0  0
   11.1448  -15.4612   20.4570 O   0  0  0  0  0  0  0  0  0  0  0  0
   11.6495  -19.8163   18.3713 O   0  0  0  0  0  0  0  0  0  0  0  0
    7.6998  -12.5200   19.0605 N   0  0  0  0  0  0  0  0  0  0  0  0
    7.3942  -13.6703   19.8145 C   0  0  0  0  0  0  0  0  0  0  0  0
    6.9155  -14.6827   19.2662 O   0  0  0  0  0  0  0  0  0  0  0  0
    7.6421  -13.6790   21.2669 C   0  0  0  0  0  0  0  0  0  0  0  0
    8.8896  -14.3904   21.6716 C   0  0  2  0  0  0  0  0  0  0  0  0
    8.9809  -15.7411   21.1561 N   0  0  0  0  0  0  0  0  0  0  0  0
    8.9532  -14.3936   23.1475 C   0  0  0  0  0  0  0  0  0  0  0  0
    8.9411  -13.3174   23.7751 O   0  0  0  0  0  0  0  0  0  0  0  0
    9.0275  -15.6129   23.8512 N   0  0  0  0  0  0  0  0  0  0  0  0
    9.1822  -15.6187   25.3084 C   0  0  1  0  0  0  0  0  0  0  0  0
    7.7828  -15.6317   25.8697 C   0  0  0  0  0  0  0  0  0  0  0  0
    7.3643  -14.2489   26.1478 C   0  0  0  0  0  0  0  0  0  0  0  0
    8.2106  -13.3744   26.7694 C   0  0  0  0  0  0  0  0  0  0  0  0
    7.7984  -12.0689   27.0224 C   0  0  0  0  0  0  0  0  0  0  0  0
    6.5240  -11.6588   26.6410 C   0  0  0  0  0  0  0  0  0  0  0  0
    5.6718  -12.5309   26.0180 C   0  0  0  0  0  0  0  0  0  0  0  0
    6.0952  -13.8138   25.7766 C   0  0  0  0  0  0  0  0  0  0  0  0
   10.0151  -16.7504   25.6894 C   0  0  0  0  0  0  0  0  0  0  0  0
   10.5234  -17.6191   24.7465 O   0  0  0  0  0  0  0  0  0  0  0  0
   10.2973  -16.9750   26.8844 O   0  0  0  0  0  0  0  0  0  0  0  0
  2  1  1  6
  2  3  1  0
  3  4  1  0
  4  8  1  0
  5  4  2  0
  6  2  1  0
  7  6  2  0
  9 10  1  0
 10 11  2  0
 10 12  1  0
 13 12  1  1
 13 15  1  0
 13 14  1  0
 14  6  1  0
 15 16  2  0
 17 18  1  0
 17 15  1  0
 18 19  1  1
 19 20  1  0
 20 25  2  0
 21 20  1  0
 21 22  2  0
 22 23  1  0
 23 24  2  0
 25 24  1  0
 26 27  1  0
 26 18  1  0
 28 26  2  0
M  END
$$$$
