DNF.pdb
     RDKit          3D

 28 28  0  0  1  0  0  0  0  0999 V2000
    9.8644  -13.2231   18.4009 N   0  0  0  0  0  0  0  0  0  0  0  0
    8.5008  -13.4939   18.7967 C   0  0  1  0  0  0  0  0  0  0  0  0
    7.6120  -13.7237   17.5919 C   0  0  0  0  0  0  0  0  0  0  0  0
    8.3476  -14.5372   16.6039 C   0  0  0  0  0  0  0  0  0  0  0  0
    9.1500  -15.4291   16.9645 O   0  0  0  0  0  0  0  0  0  0  0  0
    8.4889  -14.6474   19.7159 C   0  0  0  0  0  0  0  0  0  0  0  0
    7.3924  -15.0756   20.2147 O   0  0  0  0  0  0  0  0  0  0  0  0
    8.1519  -14.3156   15.2476 O   0  0  0  0  0  0  0  0  0  0  0  0
   10.2414  -19.3527   19.8006 N   0  0  0  0  0  0  0  0  0  0  0  0
   10.9115  -18.1137   19.8283 C   0  0  0  0  0  0  0  0  0  0  0  0
   11.5484  -17.7116   18.8346 O   0  0  0  0  0  0  0  0  0  0  0  0
   10.8602  -17.2823   21.0437 C   0  0  0  0  0  0  0  0  0  0  0  0
    9.6745  -16.3798   21.1196 C   0  0  2  0  0  0  0  0  0  0  0  0
    9.6646  -15.3477   20.1032 N   0  0  0  0  0  0  0  0  0  0  0  0
    9.6457  -15.7788   22.4687 C   0  0  0  0  0  0  0  0  0  0  0  0
   10.6542  -15.1995   22.9157 O   0  0  0  0  0  0  0  0  0  0  0  0
    8.4785  -15.8580   23.2554 N   0  0  0  0  0  0  0  0  0  0  0  0
    8.3701  -15.0906   24.4990 C   0  0  1  0  0  0  0  0  0  0  0  0
    7.3403  -14.0216   24.2333 C   0  0  0  0  0  0  0  0  0  0  0  0
    7.1077  -13.2609   25.4710 C   0  0  0  0  0  0  0  0  0  0  0  0
    5.9989  -13.4925   26.2354 C   0  0  0  0  0  0  0  0  0  0  0  0
    5.7963  -12.7647   27.4048 C   0  0  0  0  0  0  0  0  0  0  0  0
    6.7250  -11.8025   27.7914 C   0  0  0  0  0  0  0  0  0  0  0  0
    7.8377  -11.5662   27.0292 C   0  0  0  0  0  0  0  0  0  0  0  0
    8.0210  -12.2933   25.8797 C   0  0  0  0  0  0  0  0  0  0  0  0
    8.0527  -16.0020   25.5890 C   0  0  0  0  0  0  0  0  0  0  0  0
    7.2409  -17.1000   25.3954 O   0  0  0  0  0  0  0  0  0  0  0  0
    8.5036  -15.8203   26.7387 O   0  0  0  0  0  0  0  0  0  0  0  0
  2  1  1  6
  2  3  1  0
  3  4  1  0
  4  8  1  0
  5  4  2  0
  6  2  1  0
  7  6  2  0
  9 10  1  0
 10 11  2  0
 10 12  1  0
 13 12  1  1
 13 15  1  0
 13 14  1  0
 14  6  1  0
 15 16  2  0
 17 18  1  0
 17 15  1  0
 18 19  1  6
 19 20  1  0
 20 25  2  0
 21 20  1  0
 21 22  2  0
 22 23  1  0
 23 24  2  0
 25 24  1  0
 26 27  1  0
 26 18  1  0
 28 26  2  0
M  END
$$$$
