DNF.pdb
     RDKit          3D

 28 28  0  0  1  0  0  0  0  0999 V2000
    9.4129  -15.3207   19.6381 N   0  0  0  0  0  0  0  0  0  0  0  0
    8.6438  -14.2509   20.2326 C   0  0  1  0  0  0  0  0  0  0  0  0
    7.6466  -13.6755   19.2482 C   0  0  0  0  0  0  0  0  0  0  0  0
    8.2861  -13.5801   17.9212 C   0  0  0  0  0  0  0  0  0  0  0  0
    9.1974  -12.7503   17.6970 O   0  0  0  0  0  0  0  0  0  0  0  0
    7.9836  -14.7556   21.4513 C   0  0  0  0  0  0  0  0  0  0  0  0
    7.2156  -14.0005   22.1402 O   0  0  0  0  0  0  0  0  0  0  0  0
    7.8753  -14.4224   16.8972 O   0  0  0  0  0  0  0  0  0  0  0  0
    5.7344  -17.5388   24.9947 N   0  0  0  0  0  0  0  0  0  0  0  0
    6.4757  -18.4802   24.2536 C   0  0  0  0  0  0  0  0  0  0  0  0
    6.2624  -19.7021   24.3813 O   0  0  0  0  0  0  0  0  0  0  0  0
    7.5148  -18.0179   23.3168 C   0  0  0  0  0  0  0  0  0  0  0  0
    7.6260  -16.5340   23.2082 C   0  0  2  0  0  0  0  0  0  0  0  0
    8.1493  -16.0827   21.9350 N   0  0  0  0  0  0  0  0  0  0  0  0
    8.4792  -16.0593   24.3167 C   0  0  0  0  0  0  0  0  0  0  0  0
    9.5031  -15.3919   24.0746 O   0  0  0  0  0  0  0  0  0  0  0  0
    8.1389  -16.3588   25.6516 N   0  0  0  0  0  0  0  0  0  0  0  0
    8.9056  -15.7811   26.7588 C   0  0  1  0  0  0  0  0  0  0  0  0
    7.8996  -15.0681   27.6267 C   0  0  0  0  0  0  0  0  0  0  0  0
    7.4778  -13.8294   26.9542 C   0  0  0  0  0  0  0  0  0  0  0  0
    6.1844  -13.6614   26.5464 C   0  0  0  0  0  0  0  0  0  0  0  0
    5.8026  -12.4816   25.9136 C   0  0  0  0  0  0  0  0  0  0  0  0
    6.7410  -11.4762   25.6981 C   0  0  0  0  0  0  0  0  0  0  0  0
    8.0384  -11.6392   26.1046 C   0  0  0  0  0  0  0  0  0  0  0  0
    8.3967  -12.8088   26.7268 C   0  0  0  0  0  0  0  0  0  0  0  0
    9.6538  -16.8419   27.4179 C   0  0  0  0  0  0  0  0  0  0  0  0
   10.6372  -16.5606   28.3430 O   0  0  0  0  0  0  0  0  0  0  0  0
    9.4319  -18.0444   27.1673 O   0  0  0  0  0  0  0  0  0  0  0  0
  2  1  1  6
  2  3  1  0
  3  4  1  0
  4  8  1  0
  5  4  2  0
  6  2  1  0
  7  6  2  0
  9 10  1  0
 10 11  2  0
 10 12  1  0
 13 12  1  6
 13 15  1  0
 13 14  1  0
 14  6  1  0
 15 16  2  0
 17 18  1  0
 17 15  1  0
 18 19  1  1
 19 20  1  0
 20 25  2  0
 21 20  1  0
 21 22  2  0
 22 23  1  0
 23 24  2  0
 25 24  1  0
 26 27  1  0
 26 18  1  0
 28 26  2  0
M  END
$$$$
