DNF.pdb
     RDKit          3D

 28 28  0  0  1  0  0  0  0  0999 V2000
    8.5295  -15.3304   20.2520 N   0  0  0  0  0  0  0  0  0  0  0  0
    7.7235  -16.1265   21.1498 C   0  0  1  0  0  0  0  0  0  0  0  0
    6.9415  -17.1839   20.3982 C   0  0  0  0  0  0  0  0  0  0  0  0
    7.1618  -17.0016   18.9499 C   0  0  0  0  0  0  0  0  0  0  0  0
    7.9973  -16.1737   18.5187 O   0  0  0  0  0  0  0  0  0  0  0  0
    8.5972  -16.7185   22.1803 C   0  0  0  0  0  0  0  0  0  0  0  0
    8.1924  -17.6952   22.8993 O   0  0  0  0  0  0  0  0  0  0  0  0
    6.4333  -17.7583   18.0425 O   0  0  0  0  0  0  0  0  0  0  0  0
   12.2248  -18.3733   21.2737 N   0  0  0  0  0  0  0  0  0  0  0  0
   12.5600  -17.0984   21.7712 C   0  0  0  0  0  0  0  0  0  0  0  0
   13.1418  -16.2654   21.0485 O   0  0  0  0  0  0  0  0  0  0  0  0
   12.2202  -16.7437   23.1604 C   0  0  0  0  0  0  0  0  0  0  0  0
   10.7636  -16.8204   23.4739 C   0  0  2  0  0  0  0  0  0  0  0  0
    9.9172  -16.2580   22.4416 N   0  0  0  0  0  0  0  0  0  0  0  0
   10.5383  -16.1315   24.7611 C   0  0  0  0  0  0  0  0  0  0  0  0
   11.1158  -15.0540   25.0018 O   0  0  0  0  0  0  0  0  0  0  0  0
    9.6700  -16.6894   25.7215 N   0  0  0  0  0  0  0  0  0  0  0  0
    9.4553  -16.0165   27.0053 C   0  0  1  0  0  0  0  0  0  0  0  0
    7.9616  -15.8629   27.1435 C   0  0  0  0  0  0  0  0  0  0  0  0
    7.5567  -14.5707   26.5685 C   0  0  0  0  0  0  0  0  0  0  0  0
    8.0290  -13.3972   27.0855 C   0  0  0  0  0  0  0  0  0  0  0  0
    7.6368  -12.1837   26.5271 C   0  0  0  0  0  0  0  0  0  0  0  0
    6.7637  -12.1701   25.4429 C   0  0  0  0  0  0  0  0  0  0  0  0
    6.2873  -13.3430   24.9209 C   0  0  0  0  0  0  0  0  0  0  0  0
    6.6848  -14.5297   25.4842 C   0  0  0  0  0  0  0  0  0  0  0  0
   10.1003  -16.7901   28.0566 C   0  0  0  0  0  0  0  0  0  0  0  0
   10.7399  -17.9811   27.7839 O   0  0  0  0  0  0  0  0  0  0  0  0
   10.0956  -16.4024   29.2431 O   0  0  0  0  0  0  0  0  0  0  0  0
  2  1  1  6
  2  3  1  0
  3  4  1  0
  4  8  1  0
  5  4  2  0
  6  2  1  0
  7  6  2  0
  9 10  1  0
 10 11  2  0
 10 12  1  0
 13 12  1  6
 13 15  1  0
 13 14  1  0
 14  6  1  0
 15 16  2  0
 17 18  1  0
 17 15  1  0
 18 19  1  1
 19 20  1  0
 20 25  2  0
 21 20  1  0
 21 22  2  0
 22 23  1  0
 23 24  2  0
 25 24  1  0
 26 27  1  0
 26 18  1  0
 28 26  2  0
M  END
$$$$
