DNF.pdb
     RDKit          3D

 28 28  0  0  1  0  0  0  0  0999 V2000
    9.2301  -18.4516   20.7072 N   0  0  0  0  0  0  0  0  0  0  0  0
   10.5759  -17.9240   20.6982 C   0  0  1  0  0  0  0  0  0  0  0  0
   11.2177  -18.0731   19.3343 C   0  0  0  0  0  0  0  0  0  0  0  0
   11.4228  -19.5085   19.0573 C   0  0  0  0  0  0  0  0  0  0  0  0
   10.9178  -20.3905   19.7896 O   0  0  0  0  0  0  0  0  0  0  0  0
   10.5415  -16.5165   21.1380 C   0  0  0  0  0  0  0  0  0  0  0  0
   11.6120  -15.8192   21.1853 O   0  0  0  0  0  0  0  0  0  0  0  0
   12.1885  -19.8962   17.9663 O   0  0  0  0  0  0  0  0  0  0  0  0
    7.8961  -15.5566   19.9269 N   0  0  0  0  0  0  0  0  0  0  0  0
    7.6175  -14.2244   20.2914 C   0  0  0  0  0  0  0  0  0  0  0  0
    6.7600  -13.5614   19.6751 O   0  0  0  0  0  0  0  0  0  0  0  0
    8.3463  -13.6062   21.4129 C   0  0  0  0  0  0  0  0  0  0  0  0
    9.3295  -14.5102   22.0778 C   0  0  2  0  0  0  0  0  0  0  0  0
    9.3472  -15.8514   21.5306 N   0  0  0  0  0  0  0  0  0  0  0  0
    9.0138  -14.5434   23.5205 C   0  0  0  0  0  0  0  0  0  0  0  0
    8.7315  -13.4894   24.1221 O   0  0  0  0  0  0  0  0  0  0  0  0
    9.0305  -15.7661   24.2221 N   0  0  0  0  0  0  0  0  0  0  0  0
    9.1936  -15.7823   25.6782 C   0  0  1  0  0  0  0  0  0  0  0  0
    7.7996  -15.7077   26.2483 C   0  0  0  0  0  0  0  0  0  0  0  0
    7.4022  -14.2956   26.3612 C   0  0  0  0  0  0  0  0  0  0  0  0
    8.1711  -13.4070   27.0587 C   0  0  0  0  0  0  0  0  0  0  0  0
    7.7806  -12.0741   27.1532 C   0  0  0  0  0  0  0  0  0  0  0  0
    6.6067  -11.6509   26.5361 C   0  0  0  0  0  0  0  0  0  0  0  0
    5.8323  -12.5370   25.8360 C   0  0  0  0  0  0  0  0  0  0  0  0
    6.2330  -13.8470   25.7535 C   0  0  0  0  0  0  0  0  0  0  0  0
    9.9561  -16.9643   26.0539 C   0  0  0  0  0  0  0  0  0  0  0  0
   10.2950  -17.2143   27.3672 O   0  0  0  0  0  0  0  0  0  0  0  0
   10.3313  -17.7930   25.1991 O   0  0  0  0  0  0  0  0  0  0  0  0
  2  1  1  6
  2  3  1  0
  3  4  1  0
  4  8  1  0
  5  4  2  0
  6  2  1  0
  7  6  2  0
  9 10  1  0
 10 11  2  0
 10 12  1  0
 13 12  1  6
 13 15  1  0
 13 14  1  0
 14  6  1  0
 15 16  2  0
 17 18  1  0
 17 15  1  0
 18 19  1  1
 19 20  1  0
 20 25  2  0
 21 20  1  0
 21 22  2  0
 22 23  1  0
 23 24  2  0
 25 24  1  0
 26 27  1  0
 26 18  1  0
 28 26  2  0
M  END
$$$$
