DNF.pdb
     RDKit          3D

 28 28  0  0  1  0  0  0  0  0999 V2000
    9.5038  -12.9370   19.6514 N   0  0  0  0  0  0  0  0  0  0  0  0
    8.1068  -13.1624   19.9464 C   0  0  1  0  0  0  0  0  0  0  0  0
    7.3068  -13.3966   18.6817 C   0  0  0  0  0  0  0  0  0  0  0  0
    8.0127  -14.3884   17.8467 C   0  0  0  0  0  0  0  0  0  0  0  0
    9.0591  -14.9486   18.2476 O   0  0  0  0  0  0  0  0  0  0  0  0
    7.9922  -14.2936   20.8861 C   0  0  0  0  0  0  0  0  0  0  0  0
    6.8474  -14.7004   21.2842 O   0  0  0  0  0  0  0  0  0  0  0  0
    7.5137  -14.7118   16.5925 O   0  0  0  0  0  0  0  0  0  0  0  0
    8.4360  -17.5905   19.9413 N   0  0  0  0  0  0  0  0  0  0  0  0
    9.5759  -17.9812   20.6713 C   0  0  0  0  0  0  0  0  0  0  0  0
   10.2849  -18.9314   20.2852 O   0  0  0  0  0  0  0  0  0  0  0  0
    9.9360  -17.2602   21.9049 C   0  0  0  0  0  0  0  0  0  0  0  0
    9.0011  -16.1542   22.2636 C   0  0  2  0  0  0  0  0  0  0  0  0
    9.1165  -14.9945   21.4032 N   0  0  0  0  0  0  0  0  0  0  0  0
    9.2544  -15.7826   23.6707 C   0  0  0  0  0  0  0  0  0  0  0  0
   10.2076  -15.0328   23.9564 O   0  0  0  0  0  0  0  0  0  0  0  0
    8.4198  -16.2741   24.6951 N   0  0  0  0  0  0  0  0  0  0  0  0
    8.7065  -15.9617   26.0978 C   0  0  1  0  0  0  0  0  0  0  0  0
    7.3823  -15.5863   26.7137 C   0  0  0  0  0  0  0  0  0  0  0  0
    7.1256  -14.1588   26.4666 C   0  0  0  0  0  0  0  0  0  0  0  0
    5.9426  -13.7459   25.9211 C   0  0  0  0  0  0  0  0  0  0  0  0
    5.7161  -12.3908   25.6964 C   0  0  0  0  0  0  0  0  0  0  0  0
    6.6967  -11.4603   26.0285 C   0  0  0  0  0  0  0  0  0  0  0  0
    7.8840  -11.8684   26.5753 C   0  0  0  0  0  0  0  0  0  0  0  0
    8.0897  -13.2083   26.7897 C   0  0  0  0  0  0  0  0  0  0  0  0
    9.3743  -17.1027   26.7077 C   0  0  0  0  0  0  0  0  0  0  0  0
    9.4840  -18.3089   26.0482 O   0  0  0  0  0  0  0  0  0  0  0  0
    9.8701  -17.0291   27.8509 O   0  0  0  0  0  0  0  0  0  0  0  0
  2  1  1  6
  2  3  1  0
  3  4  1  0
  4  8  1  0
  5  4  2  0
  6  2  1  0
  7  6  2  0
  9 10  1  0
 10 11  2  0
 10 12  1  0
 13 12  1  6
 13 15  1  0
 13 14  1  0
 14  6  1  0
 15 16  2  0
 17 18  1  0
 17 15  1  0
 18 19  1  1
 19 20  1  0
 20 25  2  0
 21 20  1  0
 21 22  2  0
 22 23  1  0
 23 24  2  0
 25 24  1  0
 26 27  1  0
 26 18  1  0
 28 26  2  0
M  END
$$$$
