DNF.pdb
     RDKit          3D

 28 28  0  0  1  0  0  0  0  0999 V2000
   10.2013  -18.7229   20.4230 N   0  0  0  0  0  0  0  0  0  0  0  0
   10.8890  -17.4522   20.4662 C   0  0  1  0  0  0  0  0  0  0  0  0
   11.5992  -17.1647   19.1596 C   0  0  0  0  0  0  0  0  0  0  0  0
   12.6404  -18.1892   18.9464 C   0  0  0  0  0  0  0  0  0  0  0  0
   13.6970  -17.9234   18.3281 O   0  0  0  0  0  0  0  0  0  0  0  0
    9.9197  -16.3944   20.8087 C   0  0  0  0  0  0  0  0  0  0  0  0
   10.2427  -15.1599   20.7293 O   0  0  0  0  0  0  0  0  0  0  0  0
   12.4523  -19.4739   19.4373 O   0  0  0  0  0  0  0  0  0  0  0  0
    6.7097  -18.0456   22.5889 N   0  0  0  0  0  0  0  0  0  0  0  0
    5.8261  -17.3280   21.7585 C   0  0  0  0  0  0  0  0  0  0  0  0
    4.7127  -17.7998   21.4548 O   0  0  0  0  0  0  0  0  0  0  0  0
    6.2203  -16.0054   21.2425 C   0  0  0  0  0  0  0  0  0  0  0  0
    7.6305  -15.6242   21.5460 C   0  0  2  0  0  0  0  0  0  0  0  0
    8.5916  -16.6640   21.2402 N   0  0  0  0  0  0  0  0  0  0  0  0
    7.7044  -15.2541   22.9743 C   0  0  0  0  0  0  0  0  0  0  0  0
    7.0347  -14.2964   23.4064 O   0  0  0  0  0  0  0  0  0  0  0  0
    8.5319  -15.9821   23.8534 N   0  0  0  0  0  0  0  0  0  0  0  0
    8.6658  -15.5726   25.2540 C   0  0  1  0  0  0  0  0  0  0  0  0
    7.2596  -15.3655   25.7574 C   0  0  0  0  0  0  0  0  0  0  0  0
    7.0412  -13.9301   25.9946 C   0  0  0  0  0  0  0  0  0  0  0  0
    8.0460  -13.0271   25.7886 C   0  0  0  0  0  0  0  0  0  0  0  0
    7.8206  -11.6722   26.0161 C   0  0  0  0  0  0  0  0  0  0  0  0
    6.5710  -11.2418   26.4533 C   0  0  0  0  0  0  0  0  0  0  0  0
    5.5606  -12.1423   26.6614 C   0  0  0  0  0  0  0  0  0  0  0  0
    5.8010  -13.4739   26.4319 C   0  0  0  0  0  0  0  0  0  0  0  0
    9.4393  -16.5789   25.9672 C   0  0  0  0  0  0  0  0  0  0  0  0
    9.7423  -17.7949   25.3914 O   0  0  0  0  0  0  0  0  0  0  0  0
    9.8545  -16.3764   27.1269 O   0  0  0  0  0  0  0  0  0  0  0  0
  2  1  1  6
  2  3  1  0
  3  4  1  0
  4  8  1  0
  5  4  2  0
  6  2  1  0
  7  6  2  0
  9 10  1  0
 10 11  2  0
 10 12  1  0
 13 12  1  1
 13 15  1  0
 13 14  1  0
 14  6  1  0
 15 16  2  0
 17 18  1  0
 17 15  1  0
 18 19  1  1
 19 20  1  0
 20 25  2  0
 21 20  1  0
 21 22  2  0
 22 23  1  0
 23 24  2  0
 25 24  1  0
 26 27  1  0
 26 18  1  0
 28 26  2  0
M  END
$$$$
