DNF.pdb
     RDKit          3D

 28 28  0  0  1  0  0  0  0  0999 V2000
    9.8766  -19.2191   17.6245 N   0  0  0  0  0  0  0  0  0  0  0  0
    9.9768  -17.8412   18.0497 C   0  0  1  0  0  0  0  0  0  0  0  0
    9.5420  -16.8922   16.9522 C   0  0  0  0  0  0  0  0  0  0  0  0
   10.6532  -16.7283   15.9944 C   0  0  0  0  0  0  0  0  0  0  0  0
   11.7375  -17.3370   16.1464 O   0  0  0  0  0  0  0  0  0  0  0  0
    9.1819  -17.6603   19.2790 C   0  0  0  0  0  0  0  0  0  0  0  0
    8.0216  -17.1253   19.2353 O   0  0  0  0  0  0  0  0  0  0  0  0
   10.5014  -15.8855   14.9019 O   0  0  0  0  0  0  0  0  0  0  0  0
    9.3664  -21.5282   21.3775 N   0  0  0  0  0  0  0  0  0  0  0  0
    8.4501  -20.5843   21.8820 C   0  0  0  0  0  0  0  0  0  0  0  0
    7.2216  -20.7720   21.7808 O   0  0  0  0  0  0  0  0  0  0  0  0
    8.9470  -19.3613   22.5367 C   0  0  0  0  0  0  0  0  0  0  0  0
    8.7732  -18.1194   21.7283 C   0  0  2  0  0  0  0  0  0  0  0  0
    9.6365  -18.0572   20.5668 N   0  0  0  0  0  0  0  0  0  0  0  0
    9.0130  -16.9623   22.6148 C   0  0  0  0  0  0  0  0  0  0  0  0
   10.1781  -16.5973   22.8634 O   0  0  0  0  0  0  0  0  0  0  0  0
    7.9261  -16.2667   23.1823 N   0  0  0  0  0  0  0  0  0  0  0  0
    8.1603  -15.1530   24.1055 C   0  0  1  0  0  0  0  0  0  0  0  0
    6.8610  -14.3902   24.1664 C   0  0  0  0  0  0  0  0  0  0  0  0
    7.0004  -13.2803   25.1221 C   0  0  0  0  0  0  0  0  0  0  0  0
    7.8572  -12.2458   24.8713 C   0  0  0  0  0  0  0  0  0  0  0  0
    7.9746  -11.2028   25.7859 C   0  0  0  0  0  0  0  0  0  0  0  0
    7.2177  -11.2176   26.9541 C   0  0  0  0  0  0  0  0  0  0  0  0
    6.3575  -12.2518   27.2106 C   0  0  0  0  0  0  0  0  0  0  0  0
    6.2549  -13.2713   26.2976 C   0  0  0  0  0  0  0  0  0  0  0  0
    8.6285  -15.6854   25.3771 C   0  0  0  0  0  0  0  0  0  0  0  0
    9.6836  -15.1097   26.0532 O   0  0  0  0  0  0  0  0  0  0  0  0
    8.0913  -16.6837   25.8996 O   0  0  0  0  0  0  0  0  0  0  0  0
  2  1  1  6
  2  3  1  0
  3  4  1  0
  4  8  1  0
  5  4  2  0
  6  2  1  0
  7  6  2  0
  9 10  1  0
 10 11  2  0
 10 12  1  0
 13 12  1  1
 13 15  1  0
 13 14  1  0
 14  6  1  0
 15 16  2  0
 17 18  1  0
 17 15  1  0
 18 19  1  1
 19 20  1  0
 20 25  2  0
 21 20  1  0
 21 22  2  0
 22 23  1  0
 23 24  2  0
 25 24  1  0
 26 27  1  0
 26 18  1  0
 28 26  2  0
M  END
$$$$
