IFA.pdb
     RDKit          3D

 25 25  0  0  1  0  0  0  0  0999 V2000
   34.6054  -13.6657  -23.4601 C   0  0  0  0  0  0  0  0  0  0  0  0
   34.1628  -13.6639  -22.0323 C   0  0  0  0  0  0  0  0  0  0  0  0
   32.8824  -12.8431  -21.8060 C   0  0  2  0  0  0  0  0  0  0  0  0
   33.2275  -11.4653  -22.3333 C   0  0  0  0  0  0  0  0  0  0  0  0
   32.4825  -12.8207  -20.3941 C   0  0  2  0  0  0  0  0  0  0  0  0
   32.1417  -14.1759  -19.9327 N   0  0  0  0  0  0  0  0  0  0  0  0
   31.4899  -11.8794  -19.9253 C   0  0  0  0  0  0  0  0  0  0  0  0
   30.2503  -12.2076  -20.0839 O   0  0  0  0  0  0  0  0  0  0  0  0
   31.6648  -10.6387  -19.3098 N   0  0  0  0  0  0  0  0  0  0  0  0
   30.5442   -9.8155  -18.8247 C   0  0  1  0  0  0  0  0  0  0  0  0
   30.5551   -9.9550  -17.3451 C   0  0  0  0  0  0  0  0  0  0  0  0
   29.9536  -11.1580  -16.7956 C   0  0  0  0  0  0  0  0  0  0  0  0
   28.6117  -11.3442  -16.5361 C   0  0  0  0  0  0  0  0  0  0  0  0
   28.1286  -12.5336  -16.0108 C   0  0  0  0  0  0  0  0  0  0  0  0
   28.9919  -13.5801  -15.7292 C   0  0  0  0  0  0  0  0  0  0  0  0
   30.3334  -13.3949  -15.9884 C   0  0  0  0  0  0  0  0  0  0  0  0
   30.7926  -12.2166  -16.5060 C   0  0  0  0  0  0  0  0  0  0  0  0
   30.7971   -8.4322  -19.2896 C   0  0  0  0  0  0  0  0  0  0  0  0
   31.9225   -7.8678  -19.1387 O   0  0  0  0  0  0  0  0  0  0  0  0
   29.1417   -6.0417  -21.6109 C   0  0  0  0  0  0  0  0  0  0  0  0
   30.0454   -6.3302  -20.4532 C   0  0  2  0  0  0  0  0  0  0  0  0
   29.7906   -7.6614  -19.9302 N   0  0  0  0  0  0  0  0  0  0  0  0
   29.9027   -5.3125  -19.3796 C   0  0  0  0  0  0  0  0  0  0  0  0
   30.5854   -4.1153  -19.4228 O   0  0  0  0  0  0  0  0  0  0  0  0
   29.1453   -5.5544  -18.4199 O   0  0  0  0  0  0  0  0  0  0  0  0
  2  3  1  0
  2  1  1  0
  3  5  1  0
  3  4  1  1
  5  7  1  0
  5  6  1  6
  7  8  2  0
  9 10  1  0
  9  7  1  0
 10 11  1  1
 11 12  1  0
 12 17  2  0
 13 14  2  0
 13 12  1  0
 14 15  1  0
 15 16  2  0
 17 16  1  0
 18 10  1  0
 19 18  2  0
 21 20  1  6
 21 22  1  0
 22 18  1  0
 23 21  1  0
 23 24  1  0
 25 23  2  0
M  END
$$$$
