IFA.pdb
     RDKit          3D

 25 25  0  0  1  0  0  0  0  0999 V2000
   22.3287  -20.8545  -13.9659 C   0  0  0  0  0  0  0  0  0  0  0  0
   23.6974  -20.3798  -13.5977 C   0  0  0  0  0  0  0  0  0  0  0  0
   24.1599  -20.8998  -12.2265 C   0  0  2  0  0  0  0  0  0  0  0  0
   23.1136  -20.3810  -11.2613 C   0  0  0  0  0  0  0  0  0  0  0  0
   25.5126  -20.4412  -11.8890 C   0  0  2  0  0  0  0  0  0  0  0  0
   26.4634  -20.8145  -12.9484 N   0  0  0  0  0  0  0  0  0  0  0  0
   26.0853  -20.7294  -10.5928 C   0  0  0  0  0  0  0  0  0  0  0  0
   26.6178  -21.8958  -10.4339 O   0  0  0  0  0  0  0  0  0  0  0  0
   26.1569  -19.9231   -9.4555 N   0  0  0  0  0  0  0  0  0  0  0  0
   26.7880  -20.3586   -8.1983 C   0  0  1  0  0  0  0  0  0  0  0  0
   27.5832  -19.1958   -7.7247 C   0  0  0  0  0  0  0  0  0  0  0  0
   28.2909  -19.3545   -6.4658 C   0  0  0  0  0  0  0  0  0  0  0  0
   29.3289  -20.2312   -6.2275 C   0  0  0  0  0  0  0  0  0  0  0  0
   29.9468  -20.3103   -4.9882 C   0  0  0  0  0  0  0  0  0  0  0  0
   29.5328  -19.5006   -3.9428 C   0  0  0  0  0  0  0  0  0  0  0  0
   28.4953  -18.6239   -4.1802 C   0  0  0  0  0  0  0  0  0  0  0  0
   27.8977  -18.5588   -5.4073 C   0  0  0  0  0  0  0  0  0  0  0  0
   25.6911  -20.7383   -7.2782 C   0  0  0  0  0  0  0  0  0  0  0  0
   24.6688  -20.0065   -7.1135 O   0  0  0  0  0  0  0  0  0  0  0  0
   24.8777  -23.7106   -5.1037 C   0  0  0  0  0  0  0  0  0  0  0  0
   24.6698  -22.3147   -5.6023 C   0  0  2  0  0  0  0  0  0  0  0  0
   25.7256  -21.9444   -6.5289 N   0  0  0  0  0  0  0  0  0  0  0  0
   24.5922  -21.3391   -4.4838 C   0  0  0  0  0  0  0  0  0  0  0  0
   23.4446  -21.1875   -3.7349 O   0  0  0  0  0  0  0  0  0  0  0  0
   25.5935  -20.6445   -4.2226 O   0  0  0  0  0  0  0  0  0  0  0  0
  2  3  1  0
  2  1  1  0
  3  5  1  0
  3  4  1  1
  5  7  1  0
  5  6  1  6
  7  8  2  0
  9 10  1  0
  9  7  1  0
 10 11  1  1
 11 12  1  0
 12 17  2  0
 13 14  2  0
 13 12  1  0
 14 15  1  0
 15 16  2  0
 17 16  1  0
 18 10  1  0
 19 18  2  0
 21 20  1  1
 21 22  1  0
 22 18  1  0
 23 21  1  0
 23 24  1  0
 25 23  2  0
M  END
$$$$
