IFA.pdb
     RDKit          3D

 25 25  0  0  1  0  0  0  0  0999 V2000
   16.9893  -12.3653  -19.0933 C   0  0  0  0  0  0  0  0  0  0  0  0
   18.2060  -12.1030  -18.2655 C   0  0  0  0  0  0  0  0  0  0  0  0
   17.9789  -11.0190  -17.1988 C   0  0  2  0  0  0  0  0  0  0  0  0
   17.6132   -9.7844  -17.9971 C   0  0  0  0  0  0  0  0  0  0  0  0
   19.1644  -10.8141  -16.3581 C   0  0  2  0  0  0  0  0  0  0  0  0
   19.5840  -12.0819  -15.7398 N   0  0  0  0  0  0  0  0  0  0  0  0
   19.1941   -9.7554  -15.3736 C   0  0  0  0  0  0  0  0  0  0  0  0
   18.3889   -9.8666  -14.3692 O   0  0  0  0  0  0  0  0  0  0  0  0
   19.9786   -8.6013  -15.3354 N   0  0  0  0  0  0  0  0  0  0  0  0
   19.8190   -7.5528  -14.3137 C   0  0  1  0  0  0  0  0  0  0  0  0
   21.0209   -7.6526  -13.4452 C   0  0  0  0  0  0  0  0  0  0  0  0
   22.3134   -7.6150  -14.1078 C   0  0  0  0  0  0  0  0  0  0  0  0
   22.9587   -6.4813  -14.5561 C   0  0  0  0  0  0  0  0  0  0  0  0
   24.1971   -6.5445  -15.1778 C   0  0  0  0  0  0  0  0  0  0  0  0
   24.8273   -7.7638  -15.3676 C   0  0  0  0  0  0  0  0  0  0  0  0
   24.1829   -8.8976  -14.9197 C   0  0  0  0  0  0  0  0  0  0  0  0
   22.9631   -8.8173  -14.3092 C   0  0  0  0  0  0  0  0  0  0  0  0
   19.7174   -6.2637  -15.0360 C   0  0  0  0  0  0  0  0  0  0  0  0
   20.3764   -6.0329  -16.0944 O   0  0  0  0  0  0  0  0  0  0  0  0
   17.5084   -3.2495  -14.9559 C   0  0  0  0  0  0  0  0  0  0  0  0
   18.8130   -3.9237  -15.2450 C   0  0  2  0  0  0  0  0  0  0  0  0
   18.8753   -5.2143  -14.5810 N   0  0  0  0  0  0  0  0  0  0  0  0
   19.9676   -3.0767  -14.8470 C   0  0  0  0  0  0  0  0  0  0  0  0
   20.4640   -2.0944  -15.6775 O   0  0  0  0  0  0  0  0  0  0  0  0
   20.4947   -3.2651  -13.7335 O   0  0  0  0  0  0  0  0  0  0  0  0
  2  3  1  0
  2  1  1  0
  3  5  1  0
  3  4  1  6
  5  7  1  0
  5  6  1  1
  7  8  2  0
  9 10  1  0
  9  7  1  0
 10 11  1  1
 11 12  1  0
 12 17  2  0
 13 14  2  0
 13 12  1  0
 14 15  1  0
 15 16  2  0
 17 16  1  0
 18 10  1  0
 19 18  2  0
 21 20  1  1
 21 22  1  0
 22 18  1  0
 23 21  1  0
 23 24  1  0
 25 23  2  0
M  END
$$$$
