IFA.pdb
     RDKit          3D

 25 25  0  0  1  0  0  0  0  0999 V2000
   26.5802  -20.0382  -15.5444 C   0  0  0  0  0  0  0  0  0  0  0  0
   25.5667  -20.9625  -14.9503 C   0  0  0  0  0  0  0  0  0  0  0  0
   25.9830  -21.4954  -13.5694 C   0  0  2  0  0  0  0  0  0  0  0  0
   25.5199  -22.9380  -13.5739 C   0  0  0  0  0  0  0  0  0  0  0  0
   25.3897  -20.7179  -12.4751 C   0  0  2  0  0  0  0  0  0  0  0  0
   25.4610  -19.2775  -12.7677 N   0  0  0  0  0  0  0  0  0  0  0  0
   25.7815  -20.9594  -11.1042 C   0  0  0  0  0  0  0  0  0  0  0  0
   25.6941  -22.1751  -10.6754 O   0  0  0  0  0  0  0  0  0  0  0  0
   26.2541  -20.0616  -10.1454 N   0  0  0  0  0  0  0  0  0  0  0  0
   26.5630  -20.4524   -8.7596 C   0  0  1  0  0  0  0  0  0  0  0  0
   27.6498  -19.5398   -8.3183 C   0  0  0  0  0  0  0  0  0  0  0  0
   27.9721  -19.5410   -6.9015 C   0  0  0  0  0  0  0  0  0  0  0  0
   27.6576  -18.5450   -6.0006 C   0  0  0  0  0  0  0  0  0  0  0  0
   28.0065  -18.6362   -4.6612 C   0  0  0  0  0  0  0  0  0  0  0  0
   28.6890  -19.7444   -4.1861 C   0  0  0  0  0  0  0  0  0  0  0  0
   29.0038  -20.7406   -5.0860 C   0  0  0  0  0  0  0  0  0  0  0  0
   28.6524  -20.6347   -6.4022 C   0  0  0  0  0  0  0  0  0  0  0  0
   25.3112  -20.2994   -7.9828 C   0  0  0  0  0  0  0  0  0  0  0  0
   24.5365  -19.3089   -8.1453 O   0  0  0  0  0  0  0  0  0  0  0  0
   22.6316  -22.0147   -6.6963 C   0  0  0  0  0  0  0  0  0  0  0  0
   23.7084  -21.0948   -6.2120 C   0  0  2  0  0  0  0  0  0  0  0  0
   24.9106  -21.2554   -7.0118 N   0  0  0  0  0  0  0  0  0  0  0  0
   24.0075  -21.3111   -4.7724 C   0  0  0  0  0  0  0  0  0  0  0  0
   23.0742  -21.0474   -3.7924 O   0  0  0  0  0  0  0  0  0  0  0  0
   25.1320  -21.7418   -4.4510 O   0  0  0  0  0  0  0  0  0  0  0  0
  2  3  1  0
  2  1  1  0
  3  5  1  0
  3  4  1  1
  5  7  1  0
  5  6  1  6
  7  8  2  0
  9 10  1  0
  9  7  1  0
 10 11  1  1
 11 12  1  0
 12 17  2  0
 13 14  2  0
 13 12  1  0
 14 15  1  0
 15 16  2  0
 17 16  1  0
 18 10  1  0
 19 18  2  0
 21 20  1  6
 21 22  1  0
 22 18  1  0
 23 21  1  0
 23 24  1  0
 25 23  2  0
M  END
$$$$
