IFA.pdb
     RDKit          3D

 25 25  0  0  1  0  0  0  0  0999 V2000
   26.6064  -37.4683   -7.9426 C   0  0  0  0  0  0  0  0  0  0  0  0
   25.7521  -36.2863   -7.6149 C   0  0  0  0  0  0  0  0  0  0  0  0
   26.0342  -35.7168   -6.2147 C   0  0  2  0  0  0  0  0  0  0  0  0
   25.6883  -36.8541   -5.2755 C   0  0  0  0  0  0  0  0  0  0  0  0
   25.2515  -34.5053   -5.9428 C   0  0  2  0  0  0  0  0  0  0  0  0
   25.5419  -33.4676   -6.9450 N   0  0  0  0  0  0  0  0  0  0  0  0
   25.2376  -33.9196   -4.6208 C   0  0  0  0  0  0  0  0  0  0  0  0
   26.1500  -33.0431   -4.3588 O   0  0  0  0  0  0  0  0  0  0  0  0
   24.3686  -34.1572   -3.5544 N   0  0  0  0  0  0  0  0  0  0  0  0
   24.4866  -33.4781   -2.2530 C   0  0  1  0  0  0  0  0  0  0  0  0
   23.1774  -32.8117   -2.0281 C   0  0  0  0  0  0  0  0  0  0  0  0
   23.2115  -31.4064   -1.6609 C   0  0  0  0  0  0  0  0  0  0  0  0
   23.6667  -30.8952   -0.4634 C   0  0  0  0  0  0  0  0  0  0  0  0
   23.6624  -29.5326   -0.2032 C   0  0  0  0  0  0  0  0  0  0  0  0
   23.1948  -28.6371   -1.1515 C   0  0  0  0  0  0  0  0  0  0  0  0
   22.7396  -29.1473   -2.3489 C   0  0  0  0  0  0  0  0  0  0  0  0
   22.7509  -30.4924   -2.5888 C   0  0  0  0  0  0  0  0  0  0  0  0
   24.7970  -34.5240   -1.2513 C   0  0  0  0  0  0  0  0  0  0  0  0
   24.2938  -35.6860   -1.3153 O   0  0  0  0  0  0  0  0  0  0  0  0
   24.6589  -35.6465    1.5608 C   0  0  0  0  0  0  0  0  0  0  0  0
   25.9317  -35.2736    0.8671 C   0  0  2  0  0  0  0  0  0  0  0  0
   25.6763  -34.2812   -0.1626 N   0  0  0  0  0  0  0  0  0  0  0  0
   26.6090  -36.4630    0.2880 C   0  0  0  0  0  0  0  0  0  0  0  0
   26.1688  -37.7435    0.5477 O   0  0  0  0  0  0  0  0  0  0  0  0
   27.5987  -36.2904   -0.4495 O   0  0  0  0  0  0  0  0  0  0  0  0
  2  3  1  0
  2  1  1  0
  3  5  1  0
  3  4  1  1
  5  7  1  0
  5  6  1  6
  7  8  2  0
  9 10  1  0
  9  7  1  0
 10 11  1  1
 11 12  1  0
 12 17  2  0
 13 14  2  0
 13 12  1  0
 14 15  1  0
 15 16  2  0
 17 16  1  0
 18 10  1  0
 19 18  2  0
 21 20  1  6
 21 22  1  0
 22 18  1  0
 23 21  1  0
 23 24  1  0
 25 23  2  0
M  END
$$$$
