IFA.pdb
     RDKit          3D

 25 25  0  0  1  0  0  0  0  0999 V2000
   28.3226  -17.4202  -16.9529 C   0  0  0  0  0  0  0  0  0  0  0  0
   28.6983  -18.2251  -15.7506 C   0  0  0  0  0  0  0  0  0  0  0  0
   27.5169  -19.0234  -15.1748 C   0  0  2  0  0  0  0  0  0  0  0  0
   26.4797  -17.9679  -14.8499 C   0  0  0  0  0  0  0  0  0  0  0  0
   27.9037  -19.8120  -13.9990 C   0  0  2  0  0  0  0  0  0  0  0  0
   28.9858  -20.7494  -14.3395 N   0  0  0  0  0  0  0  0  0  0  0  0
   26.9021  -20.4877  -13.2043 C   0  0  0  0  0  0  0  0  0  0  0  0
   26.6206  -21.7062  -13.5291 O   0  0  0  0  0  0  0  0  0  0  0  0
   26.1729  -20.0186  -12.1103 N   0  0  0  0  0  0  0  0  0  0  0  0
   25.1589  -20.8268  -11.4123 C   0  0  1  0  0  0  0  0  0  0  0  0
   25.1655  -20.3502  -10.0046 C   0  0  0  0  0  0  0  0  0  0  0  0
   26.4139  -20.4833   -9.2732 C   0  0  0  0  0  0  0  0  0  0  0  0
   27.4505  -21.3354   -9.5927 C   0  0  0  0  0  0  0  0  0  0  0  0
   28.6096  -21.3909   -8.8328 C   0  0  0  0  0  0  0  0  0  0  0  0
   28.7593  -20.5817   -7.7181 C   0  0  0  0  0  0  0  0  0  0  0  0
   27.7235  -19.7296   -7.3980 C   0  0  0  0  0  0  0  0  0  0  0  0
   26.5885  -19.6875   -8.1576 C   0  0  0  0  0  0  0  0  0  0  0  0
   23.8727  -20.5942  -12.1088 C   0  0  0  0  0  0  0  0  0  0  0  0
   23.4528  -19.4272  -12.3722 O   0  0  0  0  0  0  0  0  0  0  0  0
   21.4307  -22.7227  -13.9933 C   0  0  0  0  0  0  0  0  0  0  0  0
   21.8286  -21.4593  -13.2965 C   0  0  2  0  0  0  0  0  0  0  0  0
   23.0383  -21.6678  -12.5195 N   0  0  0  0  0  0  0  0  0  0  0  0
   20.7360  -20.9431  -12.4312 C   0  0  0  0  0  0  0  0  0  0  0  0
   19.5711  -20.4334  -12.9644 O   0  0  0  0  0  0  0  0  0  0  0  0
   20.8839  -20.9753  -11.1942 O   0  0  0  0  0  0  0  0  0  0  0  0
  2  3  1  0
  2  1  1  0
  3  5  1  0
  3  4  1  1
  5  7  1  0
  5  6  1  6
  7  8  2  0
  9 10  1  0
  9  7  1  0
 10 11  1  1
 11 12  1  0
 12 17  2  0
 13 14  2  0
 13 12  1  0
 14 15  1  0
 15 16  2  0
 17 16  1  0
 18 10  1  0
 19 18  2  0
 21 20  1  1
 21 22  1  0
 22 18  1  0
 23 21  1  0
 23 24  1  0
 25 23  2  0
M  END
$$$$
