IFA.pdb
     RDKit          3D

 25 25  0  0  1  0  0  0  0  0999 V2000
   28.8203  -18.3475  -16.9228 C   0  0  0  0  0  0  0  0  0  0  0  0
   29.0650  -18.9680  -15.5850 C   0  0  0  0  0  0  0  0  0  0  0  0
   27.7928  -19.5697  -14.9654 C   0  0  2  0  0  0  0  0  0  0  0  0
   26.8272  -18.4042  -14.8967 C   0  0  0  0  0  0  0  0  0  0  0  0
   28.0482  -20.1665  -13.6491 C   0  0  2  0  0  0  0  0  0  0  0  0
   29.0857  -21.2055  -13.7460 N   0  0  0  0  0  0  0  0  0  0  0  0
   26.9539  -20.6415  -12.8317 C   0  0  0  0  0  0  0  0  0  0  0  0
   26.6197  -21.8826  -12.9640 O   0  0  0  0  0  0  0  0  0  0  0  0
   26.1817  -19.9519  -11.8953 N   0  0  0  0  0  0  0  0  0  0  0  0
   25.0662  -20.5706  -11.1593 C   0  0  1  0  0  0  0  0  0  0  0  0
   24.8947  -19.7535   -9.9298 C   0  0  0  0  0  0  0  0  0  0  0  0
   25.8823  -19.9342   -8.8795 C   0  0  0  0  0  0  0  0  0  0  0  0
   26.6480  -18.9379   -8.3105 C   0  0  0  0  0  0  0  0  0  0  0  0
   27.5674  -19.2075   -7.3074 C   0  0  0  0  0  0  0  0  0  0  0  0
   27.7437  -20.5014   -6.8442 C   0  0  0  0  0  0  0  0  0  0  0  0
   26.9786  -21.4979   -7.4125 C   0  0  0  0  0  0  0  0  0  0  0  0
   26.0774  -21.2149   -8.3997 C   0  0  0  0  0  0  0  0  0  0  0  0
   23.8901  -20.5383  -12.0589 C   0  0  0  0  0  0  0  0  0  0  0  0
   23.5652  -19.4956  -12.7030 O   0  0  0  0  0  0  0  0  0  0  0  0
   21.7834  -23.0109  -13.8156 C   0  0  0  0  0  0  0  0  0  0  0  0
   21.9328  -21.6717  -13.1642 C   0  0  2  0  0  0  0  0  0  0  0  0
   23.0607  -21.6757  -12.2487 N   0  0  0  0  0  0  0  0  0  0  0  0
   20.6901  -21.2640  -12.4582 C   0  0  0  0  0  0  0  0  0  0  0  0
   19.5087  -21.0536  -13.1372 O   0  0  0  0  0  0  0  0  0  0  0  0
   20.7249  -21.1105  -11.2220 O   0  0  0  0  0  0  0  0  0  0  0  0
  2  3  1  0
  2  1  1  0
  3  5  1  0
  3  4  1  1
  5  7  1  0
  5  6  1  6
  7  8  2  0
  9 10  1  0
  9  7  1  0
 10 11  1  1
 11 12  1  0
 12 17  2  0
 13 14  2  0
 13 12  1  0
 14 15  1  0
 15 16  2  0
 17 16  1  0
 18 10  1  0
 19 18  2  0
 21 20  1  1
 21 22  1  0
 22 18  1  0
 23 21  1  0
 23 24  1  0
 25 23  2  0
M  END
$$$$
