IFA.pdb
     RDKit          3D

 25 25  0  0  1  0  0  0  0  0999 V2000
   56.5144  -35.3623  -52.8604 C   0  0  0  0  0  0  0  0  0  0  0  0
   55.0336  -35.2825  -52.6732 C   0  0  0  0  0  0  0  0  0  0  0  0
   54.3378  -36.6440  -52.8369 C   0  0  2  0  0  0  0  0  0  0  0  0
   54.5540  -36.9977  -54.2942 C   0  0  0  0  0  0  0  0  0  0  0  0
   52.9160  -36.5847  -52.4778 C   0  0  2  0  0  0  0  0  0  0  0  0
   52.7335  -36.8659  -51.0449 N   0  0  0  0  0  0  0  0  0  0  0  0
   51.9314  -37.3108  -53.2489 C   0  0  0  0  0  0  0  0  0  0  0  0
   51.8753  -37.0573  -54.5146 O   0  0  0  0  0  0  0  0  0  0  0  0
   51.0081  -38.2703  -52.8300 N   0  0  0  0  0  0  0  0  0  0  0  0
   49.6724  -38.4192  -53.4320 C   0  0  1  0  0  0  0  0  0  0  0  0
   49.9045  -38.9760  -54.7903 C   0  0  0  0  0  0  0  0  0  0  0  0
   51.1875  -39.6157  -55.0262 C   0  0  0  0  0  0  0  0  0  0  0  0
   52.3332  -38.9890  -55.4703 C   0  0  0  0  0  0  0  0  0  0  0  0
   53.5169  -39.6855  -55.6647 C   0  0  0  0  0  0  0  0  0  0  0  0
   53.5812  -41.0468  -55.4149 C   0  0  0  0  0  0  0  0  0  0  0  0
   52.4363  -41.6741  -54.9710 C   0  0  0  0  0  0  0  0  0  0  0  0
   51.2785  -40.9728  -54.7846 C   0  0  0  0  0  0  0  0  0  0  0  0
   48.9024  -39.3229  -52.5466 C   0  0  0  0  0  0  0  0  0  0  0  0
   47.6411  -39.4260  -52.6249 O   0  0  0  0  0  0  0  0  0  0  0  0
   51.7124  -40.8471  -50.7776 C   0  0  0  0  0  0  0  0  0  0  0  0
   50.7502  -39.7052  -50.8803 C   0  0  2  0  0  0  0  0  0  0  0  0
   49.5364  -40.1240  -51.5598 N   0  0  0  0  0  0  0  0  0  0  0  0
   51.3573  -38.5374  -51.5705 C   0  0  0  0  0  0  0  0  0  0  0  0
   52.7161  -38.4528  -51.7890 O   0  0  0  0  0  0  0  0  0  0  0  0
   50.6134  -37.6158  -51.9582 O   0  0  0  0  0  0  0  0  0  0  0  0
  2  3  1  0
  2  1  1  0
  3  5  1  0
  3  4  1  6
  5  7  1  0
  5  6  1  1
  7  8  2  0
  9 10  1  0
  9  7  1  0
 10 11  1  6
 11 12  1  0
 12 17  2  0
 13 14  2  0
 13 12  1  0
 14 15  1  0
 15 16  2  0
 17 16  1  0
 18 10  1  0
 19 18  2  0
 21 20  1  6
 21 22  1  0
 22 18  1  0
 23 21  1  0
 23 24  1  0
 25 23  2  0
M  END
$$$$
