IFA.pdb
     RDKit          3D

 25 25  0  0  1  0  0  0  0  0999 V2000
   13.1111  -14.6513  -14.4432 C   0  0  0  0  0  0  0  0  0  0  0  0
   13.3525  -14.3325  -13.0028 C   0  0  0  0  0  0  0  0  0  0  0  0
   13.1166  -12.8493  -12.6729 C   0  0  2  0  0  0  0  0  0  0  0  0
   14.0600  -12.1091  -13.5989 C   0  0  0  0  0  0  0  0  0  0  0  0
   13.3685  -12.5510  -11.2581 C   0  0  2  0  0  0  0  0  0  0  0  0
   12.5631  -13.4289  -10.3943 N   0  0  0  0  0  0  0  0  0  0  0  0
   13.3049  -11.1912  -10.7702 C   0  0  0  0  0  0  0  0  0  0  0  0
   12.1310  -10.6632  -10.6587 O   0  0  0  0  0  0  0  0  0  0  0  0
   14.3404  -10.3365  -10.3884 N   0  0  0  0  0  0  0  0  0  0  0  0
   14.1472   -8.8974  -10.1426 C   0  0  1  0  0  0  0  0  0  0  0  0
   14.3136   -8.7149   -8.6770 C   0  0  0  0  0  0  0  0  0  0  0  0
   14.2446   -7.3537   -8.1738 C   0  0  0  0  0  0  0  0  0  0  0  0
   15.3228   -6.5402   -7.8938 C   0  0  0  0  0  0  0  0  0  0  0  0
   15.1573   -5.2482   -7.4168 C   0  0  0  0  0  0  0  0  0  0  0  0
   13.8883   -4.7334   -7.2062 C   0  0  0  0  0  0  0  0  0  0  0  0
   12.8099   -5.5459   -7.4859 C   0  0  0  0  0  0  0  0  0  0  0  0
   12.9908   -6.8164   -7.9552 C   0  0  0  0  0  0  0  0  0  0  0  0
   15.1675   -8.1854  -10.9462 C   0  0  0  0  0  0  0  0  0  0  0  0
   16.3964   -8.4936  -10.8973 O   0  0  0  0  0  0  0  0  0  0  0  0
   15.4286   -6.2414  -13.9928 C   0  0  0  0  0  0  0  0  0  0  0  0
   15.8225   -6.3624  -12.5540 C   0  0  2  0  0  0  0  0  0  0  0  0
   14.8238   -7.1165  -11.8162 N   0  0  0  0  0  0  0  0  0  0  0  0
   16.0356   -5.0304  -11.9302 C   0  0  0  0  0  0  0  0  0  0  0  0
   17.1344   -4.2560  -12.2365 O   0  0  0  0  0  0  0  0  0  0  0  0
   15.1959   -4.6100  -11.1109 O   0  0  0  0  0  0  0  0  0  0  0  0
  2  3  1  0
  2  1  1  0
  3  5  1  0
  3  4  1  6
  5  7  1  0
  5  6  1  1
  7  8  2  0
  9 10  1  0
  9  7  1  0
 10 11  1  1
 11 12  1  0
 12 17  2  0
 13 14  2  0
 13 12  1  0
 14 15  1  0
 15 16  2  0
 17 16  1  0
 18 10  1  0
 19 18  2  0
 21 20  1  6
 21 22  1  0
 22 18  1  0
 23 21  1  0
 23 24  1  0
 25 23  2  0
M  END
$$$$
