IFA.pdb
     RDKit          3D

 25 25  0  0  1  0  0  0  0  0999 V2000
   28.7501  -17.7474  -16.7015 C   0  0  0  0  0  0  0  0  0  0  0  0
   29.0042  -18.5796  -15.4862 C   0  0  0  0  0  0  0  0  0  0  0  0
   27.7217  -19.2055  -14.9135 C   0  0  2  0  0  0  0  0  0  0  0  0
   26.8296  -18.0172  -14.6177 C   0  0  0  0  0  0  0  0  0  0  0  0
   27.9884  -20.0188  -13.7212 C   0  0  2  0  0  0  0  0  0  0  0  0
   28.9434  -21.0941  -14.0331 N   0  0  0  0  0  0  0  0  0  0  0  0
   26.8980  -20.5458  -12.9310 C   0  0  0  0  0  0  0  0  0  0  0  0
   26.4515  -21.7144  -13.2545 O   0  0  0  0  0  0  0  0  0  0  0  0
   26.2348  -19.9761  -11.8428 N   0  0  0  0  0  0  0  0  0  0  0  0
   25.1999  -20.6837  -11.0703 C   0  0  1  0  0  0  0  0  0  0  0  0
   25.0892  -19.9505   -9.7823 C   0  0  0  0  0  0  0  0  0  0  0  0
   26.2172  -20.0505   -8.8720 C   0  0  0  0  0  0  0  0  0  0  0  0
   26.6298  -19.0763   -7.9869 C   0  0  0  0  0  0  0  0  0  0  0  0
   27.7216  -19.2643   -7.1522 C   0  0  0  0  0  0  0  0  0  0  0  0
   28.4363  -20.4509   -7.1855 C   0  0  0  0  0  0  0  0  0  0  0  0
   28.0245  -21.4253   -8.0700 C   0  0  0  0  0  0  0  0  0  0  0  0
   26.9465  -21.2236   -8.8852 C   0  0  0  0  0  0  0  0  0  0  0  0
   23.9605  -20.6455  -11.8802 C   0  0  0  0  0  0  0  0  0  0  0  0
   23.5213  -19.5690  -12.3860 O   0  0  0  0  0  0  0  0  0  0  0  0
   21.8586  -23.0736  -13.7149 C   0  0  0  0  0  0  0  0  0  0  0  0
   21.9918  -21.7953  -12.9479 C   0  0  2  0  0  0  0  0  0  0  0  0
   23.1952  -21.8149  -12.1342 N   0  0  0  0  0  0  0  0  0  0  0  0
   20.7964  -21.5355  -12.1039 C   0  0  0  0  0  0  0  0  0  0  0  0
   20.8900  -21.4217  -10.7330 O   0  0  0  0  0  0  0  0  0  0  0  0
   19.6854  -21.4188  -12.6564 O   0  0  0  0  0  0  0  0  0  0  0  0
  2  3  1  0
  2  1  1  0
  3  5  1  0
  3  4  1  1
  5  7  1  0
  5  6  1  6
  7  8  2  0
  9 10  1  0
  9  7  1  0
 10 11  1  1
 11 12  1  0
 12 17  2  0
 13 14  2  0
 13 12  1  0
 14 15  1  0
 15 16  2  0
 17 16  1  0
 18 10  1  0
 19 18  2  0
 21 20  1  1
 21 22  1  0
 22 18  1  0
 23 21  1  0
 23 24  1  0
 25 23  2  0
M  END
$$$$
