IFA.pdb
     RDKit          3D

 25 25  0  0  1  0  0  0  0  0999 V2000
   28.8034  -20.1387  -17.9631 C   0  0  0  0  0  0  0  0  0  0  0  0
   28.4699  -21.5958  -17.9512 C   0  0  0  0  0  0  0  0  0  0  0  0
   27.4237  -21.9591  -16.8844 C   0  0  2  0  0  0  0  0  0  0  0  0
   26.2134  -21.1258  -17.2534 C   0  0  0  0  0  0  0  0  0  0  0  0
   27.9024  -21.6837  -15.5246 C   0  0  2  0  0  0  0  0  0  0  0  0
   29.1015  -22.4835  -15.2277 N   0  0  0  0  0  0  0  0  0  0  0  0
   26.9930  -21.7286  -14.4012 C   0  0  0  0  0  0  0  0  0  0  0  0
   26.5434  -22.8902  -14.0575 O   0  0  0  0  0  0  0  0  0  0  0  0
   26.5125  -20.6863  -13.6066 N   0  0  0  0  0  0  0  0  0  0  0  0
   25.6078  -20.8962  -12.4637 C   0  0  1  0  0  0  0  0  0  0  0  0
   26.0128  -19.8955  -11.4423 C   0  0  0  0  0  0  0  0  0  0  0  0
   26.8647  -20.3674  -10.3640 C   0  0  0  0  0  0  0  0  0  0  0  0
   28.0751  -21.0117  -10.5137 C   0  0  0  0  0  0  0  0  0  0  0  0
   28.8216  -21.4248   -9.4199 C   0  0  0  0  0  0  0  0  0  0  0  0
   28.3657  -21.1984   -8.1313 C   0  0  0  0  0  0  0  0  0  0  0  0
   27.1559  -20.5543   -7.9808 C   0  0  0  0  0  0  0  0  0  0  0  0
   26.4332  -20.1540   -9.0692 C   0  0  0  0  0  0  0  0  0  0  0  0
   24.2290  -20.7007  -12.9682 C   0  0  0  0  0  0  0  0  0  0  0  0
   23.8811  -19.6468  -13.5813 O   0  0  0  0  0  0  0  0  0  0  0  0
   21.2206  -22.8129  -13.5653 C   0  0  0  0  0  0  0  0  0  0  0  0
   21.8574  -21.4939  -13.2575 C   0  0  2  0  0  0  0  0  0  0  0  0
   23.2201  -21.6848  -12.7915 N   0  0  0  0  0  0  0  0  0  0  0  0
   21.0688  -20.7240  -12.2604 C   0  0  0  0  0  0  0  0  0  0  0  0
   19.8065  -20.2493  -12.5476 O   0  0  0  0  0  0  0  0  0  0  0  0
   21.5675  -20.5062  -11.1393 O   0  0  0  0  0  0  0  0  0  0  0  0
  2  3  1  0
  2  1  1  0
  3  5  1  0
  3  4  1  6
  5  7  1  0
  5  6  1  1
  7  8  2  0
  9 10  1  0
  9  7  1  0
 10 11  1  1
 11 12  1  0
 12 17  2  0
 13 14  2  0
 13 12  1  0
 14 15  1  0
 15 16  2  0
 17 16  1  0
 18 10  1  0
 19 18  2  0
 21 20  1  1
 21 22  1  0
 22 18  1  0
 23 21  1  0
 23 24  1  0
 25 23  2  0
M  END
$$$$
