IFA.pdb
     RDKit          3D

 25 25  0  0  1  0  0  0  0  0999 V2000
   17.0902  -20.2781  -15.9312 C   0  0  0  0  0  0  0  0  0  0  0  0
   18.4583  -20.8638  -16.0719 C   0  0  0  0  0  0  0  0  0  0  0  0
   19.4937  -20.1860  -15.1593 C   0  0  2  0  0  0  0  0  0  0  0  0
   19.9091  -18.9472  -15.9263 C   0  0  0  0  0  0  0  0  0  0  0  0
   20.6277  -21.0682  -14.8595 C   0  0  2  0  0  0  0  0  0  0  0  0
   20.1542  -22.3492  -14.3114 N   0  0  0  0  0  0  0  0  0  0  0  0
   21.7487  -20.5873  -14.0828 C   0  0  0  0  0  0  0  0  0  0  0  0
   21.6687  -19.3827  -13.6223 O   0  0  0  0  0  0  0  0  0  0  0  0
   22.9355  -21.2381  -13.7412 N   0  0  0  0  0  0  0  0  0  0  0  0
   24.0126  -20.5957  -12.9694 C   0  0  1  0  0  0  0  0  0  0  0  0
   24.6057  -21.6731  -12.1349 C   0  0  0  0  0  0  0  0  0  0  0  0
   25.6621  -21.2844  -11.2162 C   0  0  0  0  0  0  0  0  0  0  0  0
   25.4852  -20.6570  -10.0006 C   0  0  0  0  0  0  0  0  0  0  0  0
   26.5593  -20.3257   -9.1877 C   0  0  0  0  0  0  0  0  0  0  0  0
   27.8552  -20.6198   -9.5799 C   0  0  0  0  0  0  0  0  0  0  0  0
   28.0329  -21.2471  -10.7949 C   0  0  0  0  0  0  0  0  0  0  0  0
   26.9636  -21.5665  -11.5834 C   0  0  0  0  0  0  0  0  0  0  0  0
   24.9595  -20.0212  -13.9528 C   0  0  0  0  0  0  0  0  0  0  0  0
   25.2654  -20.6269  -15.0239 O   0  0  0  0  0  0  0  0  0  0  0  0
   26.8504  -16.7755  -14.3106 C   0  0  0  0  0  0  0  0  0  0  0  0
   26.4665  -18.1603  -14.7293 C   0  0  2  0  0  0  0  0  0  0  0  0
   25.5775  -18.7588  -13.7486 N   0  0  0  0  0  0  0  0  0  0  0  0
   27.6605  -19.0191  -14.9430 C   0  0  0  0  0  0  0  0  0  0  0  0
   28.3930  -18.9617  -16.1097 O   0  0  0  0  0  0  0  0  0  0  0  0
   28.0017  -19.8080  -14.0406 O   0  0  0  0  0  0  0  0  0  0  0  0
  2  3  1  0
  2  1  1  0
  3  5  1  0
  3  4  1  6
  5  7  1  0
  5  6  1  1
  7  8  2  0
  9 10  1  0
  9  7  1  0
 10 11  1  6
 11 12  1  0
 12 17  2  0
 13 14  2  0
 13 12  1  0
 14 15  1  0
 15 16  2  0
 17 16  1  0
 18 10  1  0
 19 18  2  0
 21 20  1  1
 21 22  1  0
 22 18  1  0
 23 21  1  0
 23 24  1  0
 25 23  2  0
M  END
$$$$
