IFA.pdb
     RDKit          3D

 25 25  0  0  1  0  0  0  0  0999 V2000
   27.9055  -22.2705  -20.6519 C   0  0  0  0  0  0  0  0  0  0  0  0
   28.3276  -21.6770  -19.3465 C   0  0  0  0  0  0  0  0  0  0  0  0
   27.3345  -21.9702  -18.2096 C   0  0  2  0  0  0  0  0  0  0  0  0
   26.5328  -20.6913  -18.0789 C   0  0  0  0  0  0  0  0  0  0  0  0
   28.0153  -22.3369  -16.9621 C   0  0  2  0  0  0  0  0  0  0  0  0
   28.7556  -23.5977  -17.1296 N   0  0  0  0  0  0  0  0  0  0  0  0
   27.2947  -22.3546  -15.7085 C   0  0  0  0  0  0  0  0  0  0  0  0
   26.5013  -23.3535  -15.5028 O   0  0  0  0  0  0  0  0  0  0  0  0
   27.3235  -21.4383  -14.6557 N   0  0  0  0  0  0  0  0  0  0  0  0
   26.4774  -21.5626  -13.4568 C   0  0  1  0  0  0  0  0  0  0  0  0
   27.2079  -20.8521  -12.3750 C   0  0  0  0  0  0  0  0  0  0  0  0
   26.5354  -20.7434  -11.0916 C   0  0  0  0  0  0  0  0  0  0  0  0
   26.0327  -21.7932  -10.3515 C   0  0  0  0  0  0  0  0  0  0  0  0
   25.4058  -21.5908   -9.1308 C   0  0  0  0  0  0  0  0  0  0  0  0
   25.2660  -20.3122   -8.6154 C   0  0  0  0  0  0  0  0  0  0  0  0
   25.7683  -19.2622   -9.3546 C   0  0  0  0  0  0  0  0  0  0  0  0
   26.3831  -19.4794  -10.5555 C   0  0  0  0  0  0  0  0  0  0  0  0
   25.1712  -20.9488  -13.7896 C   0  0  0  0  0  0  0  0  0  0  0  0
   25.0792  -19.7662  -14.2375 O   0  0  0  0  0  0  0  0  0  0  0  0
   21.7170  -22.0484  -14.4796 C   0  0  0  0  0  0  0  0  0  0  0  0
   22.6577  -21.0432  -13.8923 C   0  0  2  0  0  0  0  0  0  0  0  0
   23.9488  -21.6528  -13.6240 N   0  0  0  0  0  0  0  0  0  0  0  0
   22.1038  -20.4306  -12.6567 C   0  0  0  0  0  0  0  0  0  0  0  0
   22.6687  -20.6600  -11.4201 O   0  0  0  0  0  0  0  0  0  0  0  0
   21.1038  -19.6926  -12.7488 O   0  0  0  0  0  0  0  0  0  0  0  0
  2  3  1  0
  2  1  1  0
  3  5  1  0
  3  4  1  1
  5  7  1  0
  5  6  1  6
  7  8  2  0
  9 10  1  0
  9  7  1  0
 10 11  1  1
 11 12  1  0
 12 17  2  0
 13 14  2  0
 13 12  1  0
 14 15  1  0
 15 16  2  0
 17 16  1  0
 18 10  1  0
 19 18  2  0
 21 20  1  1
 21 22  1  0
 22 18  1  0
 23 21  1  0
 23 24  1  0
 25 23  2  0
M  END
$$$$
