GER.pdb
     RDKit          3D

 25 24  0  0  1  0  0  0  0  0999 V2000
   29.5789  -20.2731  -10.0287 N   0  0  0  0  0  0  0  0  0  0  0  0
   28.8282  -21.4068  -10.5197 C   0  0  0  0  0  0  0  0  0  0  0  0
   27.6520  -20.9029  -11.2708 C   0  0  0  0  0  0  0  0  0  0  0  0
   27.6260  -19.6886  -11.6153 O   0  0  0  0  0  0  0  0  0  0  0  0
   26.5546  -21.7209  -11.6212 N   0  0  0  0  0  0  0  0  0  0  0  0
   25.4502  -21.1655  -12.4546 C   0  0  1  0  0  0  0  0  0  0  0  0
   25.5277  -21.7768  -13.8029 C   0  0  0  0  0  0  0  0  0  0  0  0
   25.2060  -23.2308  -13.8547 C   0  0  0  0  0  0  0  0  0  0  0  0
   25.0912  -23.7214  -15.2609 C   0  0  0  0  0  0  0  0  0  0  0  0
   26.1058  -23.8576  -15.9653 O   0  0  0  0  0  0  0  0  0  0  0  0
   24.1905  -21.2437  -11.7277 C   0  0  0  0  0  0  0  0  0  0  0  0
   23.7866  -22.4157  -11.3991 O   0  0  0  0  0  0  0  0  0  0  0  0
   23.8466  -24.0173  -15.7562 O   0  0  0  0  0  0  0  0  0  0  0  0
   19.4938  -16.5218  -15.7035 N   0  0  0  0  0  0  0  0  0  0  0  0
   18.3746  -16.8225  -14.8832 C   0  0  0  0  0  0  0  0  0  0  0  0
   17.1528  -16.6868  -15.3335 N   0  0  0  0  0  0  0  0  0  0  0  0
   18.6266  -17.2723  -13.5681 N   0  0  0  0  0  0  0  0  0  0  0  0
   19.9687  -17.4419  -13.0750 C   0  0  0  0  0  0  0  0  0  0  0  0
   20.5117  -18.7989  -13.4703 C   0  0  0  0  0  0  0  0  0  0  0  0
   21.9134  -19.0083  -12.9574 C   0  0  0  0  0  0  0  0  0  0  0  0
   22.0227  -19.9599  -11.8236 C   0  0  2  0  0  0  0  0  0  0  0  0
   23.3653  -20.1854  -11.3373 N   0  0  0  0  0  0  0  0  0  0  0  0
   21.3129  -21.2203  -12.1233 C   0  0  0  0  0  0  0  0  0  0  0  0
   20.1728  -21.5460  -11.4348 O   0  0  0  0  0  0  0  0  0  0  0  0
   21.7578  -21.9787  -13.0044 O   0  0  0  0  0  0  0  0  0  0  0  0
  2  1  1  0
  3  2  1  0
  4  3  2  0
  5  3  1  0
  6 11  1  0
  6  5  1  0
  6  7  1  6
  8  7  1  0
  9  8  1  0
 10  9  2  0
 11 12  2  0
 13  9  1  0
 15 16  2  0
 15 14  1  0
 17 15  1  0
 18 17  1  0
 19 20  1  0
 19 18  1  0
 21 20  1  6
 22 11  1  0
 22 21  1  0
 23 21  1  0
 23 24  1  0
 25 23  2  0
M  END
$$$$
