GER.pdb
     RDKit          3D

 25 24  0  0  1  0  0  0  0  0999 V2000
   26.8245  -21.7844  -10.1318 N   0  0  0  0  0  0  0  0  0  0  0  0
   27.0501  -21.8948  -11.5554 C   0  0  0  0  0  0  0  0  0  0  0  0
   26.1180  -20.9745  -12.2525 C   0  0  0  0  0  0  0  0  0  0  0  0
   25.3231  -20.2777  -11.5623 O   0  0  0  0  0  0  0  0  0  0  0  0
   26.0775  -20.8397  -13.6583 N   0  0  0  0  0  0  0  0  0  0  0  0
   25.0769  -19.9322  -14.2891 C   0  0  1  0  0  0  0  0  0  0  0  0
   25.7436  -19.1889  -15.3848 C   0  0  0  0  0  0  0  0  0  0  0  0
   26.8239  -18.2595  -14.9493 C   0  0  0  0  0  0  0  0  0  0  0  0
   27.4647  -17.5739  -16.1114 C   0  0  0  0  0  0  0  0  0  0  0  0
   27.0366  -16.4776  -16.5102 O   0  0  0  0  0  0  0  0  0  0  0  0
   23.8573  -20.6689  -14.5910 C   0  0  0  0  0  0  0  0  0  0  0  0
   24.0010  -21.8352  -15.1050 O   0  0  0  0  0  0  0  0  0  0  0  0
   28.5316  -18.1780  -16.7267 O   0  0  0  0  0  0  0  0  0  0  0  0
   17.7737  -25.2080  -12.2264 N   0  0  0  0  0  0  0  0  0  0  0  0
   18.8872  -24.7949  -11.4483 C   0  0  0  0  0  0  0  0  0  0  0  0
   19.5333  -25.6453  -10.6911 N   0  0  0  0  0  0  0  0  0  0  0  0
   19.2715  -23.4376  -11.5210 N   0  0  0  0  0  0  0  0  0  0  0  0
   18.5838  -22.5055  -12.3764 C   0  0  0  0  0  0  0  0  0  0  0  0
   19.3737  -22.2685  -13.6463 C   0  0  0  0  0  0  0  0  0  0  0  0
   20.5324  -21.3330  -13.4142 C   0  0  0  0  0  0  0  0  0  0  0  0
   21.3689  -21.0733  -14.6126 C   0  0  2  0  0  0  0  0  0  0  0  0
   22.5387  -20.2562  -14.3808 N   0  0  0  0  0  0  0  0  0  0  0  0
   20.5448  -20.5728  -15.7318 C   0  0  0  0  0  0  0  0  0  0  0  0
   19.9995  -21.4539  -16.6298 O   0  0  0  0  0  0  0  0  0  0  0  0
   20.3503  -19.3489  -15.8492 O   0  0  0  0  0  0  0  0  0  0  0  0
  2  1  1  0
  3  2  1  0
  4  3  2  0
  5  3  1  0
  6 11  1  0
  6  5  1  0
  6  7  1  6
  8  7  1  0
  9  8  1  0
 10  9  2  0
 11 12  2  0
 13  9  1  0
 15 16  2  0
 15 14  1  0
 17 15  1  0
 18 17  1  0
 19 20  1  0
 19 18  1  0
 21 20  1  1
 22 11  1  0
 22 21  1  0
 23 21  1  0
 23 24  1  0
 25 23  2  0
M  END
$$$$
