GER.pdb
     RDKit          3D

 25 24  0  0  1  0  0  0  0  0999 V2000
   26.8943  -21.2345  -14.8817 N   0  0  0  0  0  0  0  0  0  0  0  0
   25.7488  -21.0021  -15.7325 C   0  0  0  0  0  0  0  0  0  0  0  0
   24.6891  -20.3471  -14.9266 C   0  0  0  0  0  0  0  0  0  0  0  0
   24.9384  -19.2342  -14.3852 O   0  0  0  0  0  0  0  0  0  0  0  0
   23.4080  -20.9115  -14.7356 N   0  0  0  0  0  0  0  0  0  0  0  0
   22.2814  -20.0553  -14.2664 C   0  0  1  0  0  0  0  0  0  0  0  0
   22.0362  -19.0047  -15.2831 C   0  0  0  0  0  0  0  0  0  0  0  0
   20.8856  -18.1034  -14.9928 C   0  0  0  0  0  0  0  0  0  0  0  0
   20.5921  -17.1948  -16.1414 C   0  0  0  0  0  0  0  0  0  0  0  0
   21.0565  -16.0425  -16.1676 O   0  0  0  0  0  0  0  0  0  0  0  0
   21.1639  -20.8895  -13.8460 C   0  0  0  0  0  0  0  0  0  0  0  0
   20.8033  -21.8191  -14.6527 O   0  0  0  0  0  0  0  0  0  0  0  0
   19.8020  -17.6577  -17.1628 O   0  0  0  0  0  0  0  0  0  0  0  0
   18.7951  -24.6843   -7.7335 N   0  0  0  0  0  0  0  0  0  0  0  0
   17.3861  -24.6744   -7.9085 C   0  0  0  0  0  0  0  0  0  0  0  0
   16.6591  -25.7136   -7.5835 N   0  0  0  0  0  0  0  0  0  0  0  0
   16.7993  -23.5064   -8.4438 N   0  0  0  0  0  0  0  0  0  0  0  0
   17.6031  -22.4111   -8.9208 C   0  0  0  0  0  0  0  0  0  0  0  0
   18.0410  -22.6570  -10.3493 C   0  0  0  0  0  0  0  0  0  0  0  0
   18.8643  -21.5131  -10.8835 C   0  0  0  0  0  0  0  0  0  0  0  0
   19.3898  -21.7161  -12.2567 C   0  0  2  0  0  0  0  0  0  0  0  0
   20.4352  -20.8012  -12.6566 N   0  0  0  0  0  0  0  0  0  0  0  0
   18.2879  -21.7766  -13.2388 C   0  0  0  0  0  0  0  0  0  0  0  0
   17.6601  -22.9687  -13.4929 O   0  0  0  0  0  0  0  0  0  0  0  0
   17.9362  -20.7385  -13.8289 O   0  0  0  0  0  0  0  0  0  0  0  0
  2  1  1  0
  3  2  1  0
  4  3  2  0
  5  3  1  0
  6 11  1  0
  6  5  1  0
  6  7  1  6
  8  7  1  0
  9  8  1  0
 10  9  2  0
 11 12  2  0
 13  9  1  0
 15 16  2  0
 15 14  1  0
 17 15  1  0
 18 17  1  0
 19 20  1  0
 19 18  1  0
 21 20  1  1
 22 11  1  0
 22 21  1  0
 23 21  1  0
 23 24  1  0
 25 23  2  0
M  END
$$$$
