GER.pdb
     RDKit          3D

 25 24  0  0  1  0  0  0  0  0999 V2000
   24.0669  -20.0632   -8.8420 N   0  0  0  0  0  0  0  0  0  0  0  0
   24.6779  -21.0933   -9.6517 C   0  0  0  0  0  0  0  0  0  0  0  0
   24.7853  -20.5949  -11.0451 C   0  0  0  0  0  0  0  0  0  0  0  0
   24.3427  -19.4436  -11.3142 O   0  0  0  0  0  0  0  0  0  0  0  0
   25.3623  -21.3505  -12.0903 N   0  0  0  0  0  0  0  0  0  0  0  0
   25.4737  -20.7647  -13.4566 C   0  0  1  0  0  0  0  0  0  0  0  0
   26.5734  -21.4533  -14.1736 C   0  0  0  0  0  0  0  0  0  0  0  0
   26.7929  -20.9990  -15.5757 C   0  0  0  0  0  0  0  0  0  0  0  0
   27.9210  -21.7327  -16.2239 C   0  0  0  0  0  0  0  0  0  0  0  0
   27.8920  -22.9709  -16.3244 O   0  0  0  0  0  0  0  0  0  0  0  0
   24.1604  -20.7127  -14.0845 C   0  0  0  0  0  0  0  0  0  0  0  0
   23.3667  -21.6905  -13.8419 O   0  0  0  0  0  0  0  0  0  0  0  0
   28.9857  -21.0131  -16.7040 O   0  0  0  0  0  0  0  0  0  0  0  0
   20.1135  -13.6169  -16.9368 N   0  0  0  0  0  0  0  0  0  0  0  0
   19.8022  -13.9730  -15.5981 C   0  0  0  0  0  0  0  0  0  0  0  0
   19.1409  -13.1544  -14.8191 N   0  0  0  0  0  0  0  0  0  0  0  0
   20.2301  -15.2384  -15.1390 N   0  0  0  0  0  0  0  0  0  0  0  0
   20.9231  -16.1578  -16.0036 C   0  0  0  0  0  0  0  0  0  0  0  0
   21.2498  -17.4381  -15.2640 C   0  0  0  0  0  0  0  0  0  0  0  0
   21.9350  -18.4384  -16.1592 C   0  0  0  0  0  0  0  0  0  0  0  0
   22.3260  -19.7039  -15.4892 C   0  0  2  0  0  0  0  0  0  0  0  0
   23.6555  -19.7140  -14.9217 N   0  0  0  0  0  0  0  0  0  0  0  0
   22.0805  -20.8640  -16.3702 C   0  0  0  0  0  0  0  0  0  0  0  0
   20.8440  -21.4559  -16.3966 O   0  0  0  0  0  0  0  0  0  0  0  0
   23.0032  -21.2950  -17.0861 O   0  0  0  0  0  0  0  0  0  0  0  0
  2  1  1  0
  3  2  1  0
  4  3  2  0
  5  3  1  0
  6 11  1  0
  6  5  1  0
  6  7  1  6
  8  7  1  0
  9  8  1  0
 10  9  2  0
 11 12  2  0
 13  9  1  0
 15 16  2  0
 15 14  1  0
 17 15  1  0
 18 17  1  0
 19 20  1  0
 19 18  1  0
 21 20  1  6
 22 11  1  0
 22 21  1  0
 23 21  1  0
 23 24  1  0
 25 23  2  0
M  END
$$$$
