GER.pdb
     RDKit          3D

 25 24  0  0  1  0  0  0  0  0999 V2000
   26.5274  -22.2921  -13.8822 N   0  0  0  0  0  0  0  0  0  0  0  0
   25.4566  -22.1411  -14.8417 C   0  0  0  0  0  0  0  0  0  0  0  0
   24.3471  -21.3972  -14.1959 C   0  0  0  0  0  0  0  0  0  0  0  0
   24.3703  -21.2384  -12.9437 O   0  0  0  0  0  0  0  0  0  0  0  0
   23.2609  -20.8550  -14.9186 N   0  0  0  0  0  0  0  0  0  0  0  0
   22.1496  -20.1770  -14.1920 C   0  0  1  0  0  0  0  0  0  0  0  0
   21.7313  -18.9910  -14.9768 C   0  0  0  0  0  0  0  0  0  0  0  0
   20.6094  -18.2084  -14.3860 C   0  0  0  0  0  0  0  0  0  0  0  0
   20.1430  -17.1293  -15.3075 C   0  0  0  0  0  0  0  0  0  0  0  0
   20.1903  -15.9380  -14.9573 O   0  0  0  0  0  0  0  0  0  0  0  0
   21.1359  -21.1514  -13.8120 C   0  0  0  0  0  0  0  0  0  0  0  0
   20.7910  -22.0030  -14.7069 O   0  0  0  0  0  0  0  0  0  0  0  0
   19.6632  -17.4801  -16.5439 O   0  0  0  0  0  0  0  0  0  0  0  0
   16.9435  -25.7321   -9.5069 N   0  0  0  0  0  0  0  0  0  0  0  0
   18.0220  -26.0894   -8.6554 C   0  0  0  0  0  0  0  0  0  0  0  0
   18.1937  -27.3284   -8.2685 N   0  0  0  0  0  0  0  0  0  0  0  0
   18.9003  -25.0631   -8.2426 N   0  0  0  0  0  0  0  0  0  0  0  0
   18.8028  -23.7293   -8.7763 C   0  0  0  0  0  0  0  0  0  0  0  0
   19.0478  -23.7365  -10.2705 C   0  0  0  0  0  0  0  0  0  0  0  0
   19.0998  -22.3390  -10.8324 C   0  0  0  0  0  0  0  0  0  0  0  0
   19.4835  -22.2606  -12.2641 C   0  0  2  0  0  0  0  0  0  0  0  0
   20.4929  -21.2742  -12.5771 N   0  0  0  0  0  0  0  0  0  0  0  0
   18.2886  -22.1363  -13.1238 C   0  0  0  0  0  0  0  0  0  0  0  0
   17.8734  -20.8999  -13.5467 O   0  0  0  0  0  0  0  0  0  0  0  0
   17.6670  -23.1611  -13.4597 O   0  0  0  0  0  0  0  0  0  0  0  0
  2  1  1  0
  3  2  1  0
  4  3  2  0
  5  3  1  0
  6 11  1  0
  6  5  1  0
  6  7  1  6
  8  7  1  0
  9  8  1  0
 10  9  2  0
 11 12  2  0
 13  9  1  0
 15 16  2  0
 15 14  1  0
 17 15  1  0
 18 17  1  0
 19 20  1  0
 19 18  1  0
 21 20  1  1
 22 11  1  0
 22 21  1  0
 23 21  1  0
 23 24  1  0
 25 23  2  0
M  END
$$$$
