GER.pdb
     RDKit          3D

 25 24  0  0  1  0  0  0  0  0999 V2000
   17.5508  -12.0661  -14.3239 N   0  0  0  0  0  0  0  0  0  0  0  0
   17.8413  -10.7660  -14.8857 C   0  0  0  0  0  0  0  0  0  0  0  0
   18.3842   -9.8994  -13.8106 C   0  0  0  0  0  0  0  0  0  0  0  0
   18.3646  -10.3225  -12.6214 O   0  0  0  0  0  0  0  0  0  0  0  0
   18.9251   -8.6173  -14.0553 N   0  0  0  0  0  0  0  0  0  0  0  0
   19.3467   -7.7582  -12.9121 C   0  0  1  0  0  0  0  0  0  0  0  0
   20.3507   -6.7844  -13.4030 C   0  0  0  0  0  0  0  0  0  0  0  0
   20.8704   -5.8419  -12.3725 C   0  0  0  0  0  0  0  0  0  0  0  0
   21.9248   -4.9417  -12.9286 C   0  0  0  0  0  0  0  0  0  0  0  0
   22.8584   -5.4072  -13.6036 O   0  0  0  0  0  0  0  0  0  0  0  0
   18.1746   -7.2535  -12.2101 C   0  0  0  0  0  0  0  0  0  0  0  0
   17.2063   -6.8292  -12.9364 O   0  0  0  0  0  0  0  0  0  0  0  0
   21.8407   -3.5954  -12.6791 O   0  0  0  0  0  0  0  0  0  0  0  0
   11.4733   -9.4343   -7.7888 N   0  0  0  0  0  0  0  0  0  0  0  0
   11.4396   -8.0344   -7.5545 C   0  0  0  0  0  0  0  0  0  0  0  0
   10.3567   -7.4520   -7.1048 N   0  0  0  0  0  0  0  0  0  0  0  0
   12.6131   -7.2955   -7.8230 N   0  0  0  0  0  0  0  0  0  0  0  0
   13.7377   -7.8885   -8.4988 C   0  0  0  0  0  0  0  0  0  0  0  0
   14.8741   -6.8941   -8.6107 C   0  0  0  0  0  0  0  0  0  0  0  0
   16.0865   -7.5060   -9.2643 C   0  0  0  0  0  0  0  0  0  0  0  0
   16.8142   -6.6021  -10.1899 C   0  0  2  0  0  0  0  0  0  0  0  0
   17.9747   -7.1808  -10.8288 N   0  0  0  0  0  0  0  0  0  0  0  0
   17.1151   -5.3113   -9.5376 C   0  0  0  0  0  0  0  0  0  0  0  0
   16.1043   -4.4220   -9.2776 O   0  0  0  0  0  0  0  0  0  0  0  0
   18.2899   -5.0418   -9.2265 O   0  0  0  0  0  0  0  0  0  0  0  0
  2  1  1  0
  3  2  1  0
  4  3  2  0
  5  3  1  0
  6 11  1  0
  6  5  1  0
  6  7  1  6
  8  7  1  0
  9  8  1  0
 10  9  2  0
 11 12  2  0
 13  9  1  0
 15 16  2  0
 15 14  1  0
 17 15  1  0
 18 17  1  0
 19 20  1  0
 19 18  1  0
 21 20  1  1
 22 11  1  0
 22 21  1  0
 23 21  1  0
 23 24  1  0
 25 23  2  0
M  END
$$$$
