GER.pdb
     RDKit          3D

 25 24  0  0  1  0  0  0  0  0999 V2000
   16.6245  -11.7863  -14.2884 N   0  0  0  0  0  0  0  0  0  0  0  0
   16.9465  -10.4663  -14.7822 C   0  0  0  0  0  0  0  0  0  0  0  0
   17.5843   -9.6962  -13.6860 C   0  0  0  0  0  0  0  0  0  0  0  0
   17.6346  -10.2086  -12.5333 O   0  0  0  0  0  0  0  0  0  0  0  0
   18.1412   -8.4110  -13.8713 N   0  0  0  0  0  0  0  0  0  0  0  0
   18.7534   -7.6931  -12.7170 C   0  0  1  0  0  0  0  0  0  0  0  0
   19.8658   -6.8543  -13.2235 C   0  0  0  0  0  0  0  0  0  0  0  0
   20.5723   -6.0514  -12.1858 C   0  0  0  0  0  0  0  0  0  0  0  0
   21.6909   -5.2534  -12.7715 C   0  0  0  0  0  0  0  0  0  0  0  0
   21.5019   -4.0832  -13.1443 O   0  0  0  0  0  0  0  0  0  0  0  0
   17.7143   -7.0597  -11.9169 C   0  0  0  0  0  0  0  0  0  0  0  0
   16.6218   -6.7644  -12.5205 O   0  0  0  0  0  0  0  0  0  0  0  0
   22.9265   -5.8378  -12.8888 O   0  0  0  0  0  0  0  0  0  0  0  0
   11.9406  -10.4035   -9.5672 N   0  0  0  0  0  0  0  0  0  0  0  0
   11.8374   -9.1809   -8.8527 C   0  0  0  0  0  0  0  0  0  0  0  0
   10.6832   -8.7593   -8.4010 N   0  0  0  0  0  0  0  0  0  0  0  0
   13.0216   -8.4387   -8.6473 N   0  0  0  0  0  0  0  0  0  0  0  0
   14.3022   -8.9278   -9.0877 C   0  0  0  0  0  0  0  0  0  0  0  0
   15.3920   -7.9274   -8.7645 C   0  0  0  0  0  0  0  0  0  0  0  0
   15.4224   -6.7967   -9.7605 C   0  0  0  0  0  0  0  0  0  0  0  0
   16.7120   -6.0649   -9.8282 C   0  0  2  0  0  0  0  0  0  0  0  0
   17.7632   -6.7377  -10.5577 N   0  0  0  0  0  0  0  0  0  0  0  0
   17.1454   -5.6357   -8.4828 C   0  0  0  0  0  0  0  0  0  0  0  0
   16.3400   -4.8202   -7.7303 O   0  0  0  0  0  0  0  0  0  0  0  0
   18.2432   -6.0220   -8.0412 O   0  0  0  0  0  0  0  0  0  0  0  0
  2  1  1  0
  3  2  1  0
  4  3  2  0
  5  3  1  0
  6 11  1  0
  6  5  1  0
  6  7  1  6
  8  7  1  0
  9  8  1  0
 10  9  2  0
 11 12  2  0
 13  9  1  0
 15 16  2  0
 15 14  1  0
 17 15  1  0
 18 17  1  0
 19 20  1  0
 19 18  1  0
 21 20  1  1
 22 11  1  0
 22 21  1  0
 23 21  1  0
 23 24  1  0
 25 23  2  0
M  END
$$$$
