GER.pdb
     RDKit          3D

 25 24  0  0  1  0  0  0  0  0999 V2000
   26.6871  -22.9337  -15.2865 N   0  0  0  0  0  0  0  0  0  0  0  0
   25.6673  -22.3956  -16.1585 C   0  0  0  0  0  0  0  0  0  0  0  0
   24.7599  -21.5430  -15.3515 C   0  0  0  0  0  0  0  0  0  0  0  0
   24.9081  -21.5146  -14.0981 O   0  0  0  0  0  0  0  0  0  0  0  0
   23.7332  -20.7572  -15.9213 N   0  0  0  0  0  0  0  0  0  0  0  0
   22.8270  -19.9665  -15.0403 C   0  0  1  0  0  0  0  0  0  0  0  0
   22.4867  -18.7009  -15.7332 C   0  0  0  0  0  0  0  0  0  0  0  0
   21.5546  -17.8069  -14.9900 C   0  0  0  0  0  0  0  0  0  0  0  0
   21.2544  -16.5611  -15.7575 C   0  0  0  0  0  0  0  0  0  0  0  0
   21.6092  -16.4510  -16.9432 O   0  0  0  0  0  0  0  0  0  0  0  0
   21.7406  -20.8091  -14.5593 C   0  0  0  0  0  0  0  0  0  0  0  0
   21.2876  -21.6876  -15.3765 O   0  0  0  0  0  0  0  0  0  0  0  0
   20.5814  -15.5450  -15.1277 O   0  0  0  0  0  0  0  0  0  0  0  0
   19.2618  -25.1426   -7.7431 N   0  0  0  0  0  0  0  0  0  0  0  0
   17.9980  -25.0560   -8.3845 C   0  0  0  0  0  0  0  0  0  0  0  0
   16.9778  -25.7590   -7.9616 N   0  0  0  0  0  0  0  0  0  0  0  0
   17.8819  -24.1861   -9.4913 N   0  0  0  0  0  0  0  0  0  0  0  0
   18.9377  -23.2734   -9.8452 C   0  0  0  0  0  0  0  0  0  0  0  0
   18.5331  -22.4299  -11.0358 C   0  0  0  0  0  0  0  0  0  0  0  0
   19.6426  -21.5045  -11.4648 C   0  0  0  0  0  0  0  0  0  0  0  0
   20.0446  -21.6367  -12.8875 C   0  0  2  0  0  0  0  0  0  0  0  0
   21.1316  -20.7784  -13.3017 N   0  0  0  0  0  0  0  0  0  0  0  0
   18.8712  -21.5297  -13.7786 C   0  0  0  0  0  0  0  0  0  0  0  0
   18.3382  -20.2997  -14.0663 O   0  0  0  0  0  0  0  0  0  0  0  0
   18.3753  -22.5630  -14.2644 O   0  0  0  0  0  0  0  0  0  0  0  0
  2  1  1  0
  3  2  1  0
  4  3  2  0
  5  3  1  0
  6 11  1  0
  6  5  1  0
  6  7  1  6
  8  7  1  0
  9  8  1  0
 10  9  2  0
 11 12  2  0
 13  9  1  0
 15 16  2  0
 15 14  1  0
 17 15  1  0
 18 17  1  0
 19 20  1  0
 19 18  1  0
 21 20  1  1
 22 11  1  0
 22 21  1  0
 23 21  1  0
 23 24  1  0
 25 23  2  0
M  END
$$$$
