GER.pdb
     RDKit          3D

 25 24  0  0  1  0  0  0  0  0999 V2000
   30.8911  -21.6761  -11.6409 N   0  0  0  0  0  0  0  0  0  0  0  0
   30.0896  -20.4748  -11.7075 C   0  0  0  0  0  0  0  0  0  0  0  0
   28.6644  -20.8496  -11.5350 C   0  0  0  0  0  0  0  0  0  0  0  0
   28.3033  -22.0206  -11.8383 O   0  0  0  0  0  0  0  0  0  0  0  0
   27.6872  -19.9545  -11.0446 N   0  0  0  0  0  0  0  0  0  0  0  0
   26.2703  -20.3995  -10.9152 C   0  0  1  0  0  0  0  0  0  0  0  0
   25.7386  -19.9010   -9.6244 C   0  0  0  0  0  0  0  0  0  0  0  0
   25.0741  -20.9310   -8.7769 C   0  0  0  0  0  0  0  0  0  0  0  0
   23.6130  -20.6616   -8.6237 C   0  0  0  0  0  0  0  0  0  0  0  0
   23.0875  -19.6931   -9.1982 O   0  0  0  0  0  0  0  0  0  0  0  0
   25.5375  -20.0886  -12.1350 C   0  0  0  0  0  0  0  0  0  0  0  0
   25.8225  -18.9789  -12.7114 O   0  0  0  0  0  0  0  0  0  0  0  0
   22.8664  -21.5028   -7.8382 O   0  0  0  0  0  0  0  0  0  0  0  0
   22.8429  -23.9657  -19.5173 N   0  0  0  0  0  0  0  0  0  0  0  0
   22.3774  -22.6314  -19.6551 C   0  0  0  0  0  0  0  0  0  0  0  0
   21.8844  -22.2032  -20.7898 N   0  0  0  0  0  0  0  0  0  0  0  0
   22.4650  -21.7859  -18.5270 N   0  0  0  0  0  0  0  0  0  0  0  0
   23.0123  -22.2505  -17.2789 C   0  0  0  0  0  0  0  0  0  0  0  0
   23.0639  -21.1228  -16.2697 C   0  0  0  0  0  0  0  0  0  0  0  0
   23.7392  -21.5503  -14.9919 C   0  0  0  0  0  0  0  0  0  0  0  0
   23.8462  -20.4871  -13.9618 C   0  0  2  0  0  0  0  0  0  0  0  0
   24.5572  -20.8637  -12.7608 N   0  0  0  0  0  0  0  0  0  0  0  0
   22.5223  -19.8992  -13.6719 C   0  0  0  0  0  0  0  0  0  0  0  0
   22.0169  -18.9145  -14.4811 O   0  0  0  0  0  0  0  0  0  0  0  0
   21.8732  -20.3067  -12.6910 O   0  0  0  0  0  0  0  0  0  0  0  0
  2  1  1  0
  3  2  1  0
  4  3  2  0
  5  3  1  0
  6 11  1  0
  6  5  1  0
  6  7  1  1
  8  7  1  0
  9  8  1  0
 10  9  2  0
 11 12  2  0
 13  9  1  0
 15 16  2  0
 15 14  1  0
 17 15  1  0
 18 17  1  0
 19 20  1  0
 19 18  1  0
 21 20  1  6
 22 11  1  0
 22 21  1  0
 23 21  1  0
 23 24  1  0
 25 23  2  0
M  END
$$$$
