GER.pdb
     RDKit          3D

 25 24  0  0  1  0  0  0  0  0999 V2000
   19.1527  -16.9722  -14.1639 N   0  0  0  0  0  0  0  0  0  0  0  0
   17.8358  -16.3879  -14.2841 C   0  0  0  0  0  0  0  0  0  0  0  0
   17.9369  -15.1678  -15.1223 C   0  0  0  0  0  0  0  0  0  0  0  0
   19.0678  -14.8314  -15.5713 O   0  0  0  0  0  0  0  0  0  0  0  0
   16.8227  -14.3607  -15.4439 N   0  0  0  0  0  0  0  0  0  0  0  0
   17.0032  -13.1503  -16.2953 C   0  0  1  0  0  0  0  0  0  0  0  0
   15.7531  -12.9240  -17.0592 C   0  0  0  0  0  0  0  0  0  0  0  0
   15.7981  -11.7836  -18.0173 C   0  0  0  0  0  0  0  0  0  0  0  0
   14.5251  -11.6599  -18.7889 C   0  0  0  0  0  0  0  0  0  0  0  0
   13.5662  -12.4121  -18.5468 O   0  0  0  0  0  0  0  0  0  0  0  0
   17.5375  -12.0554  -15.4970 C   0  0  0  0  0  0  0  0  0  0  0  0
   17.1945  -12.0222  -14.2616 O   0  0  0  0  0  0  0  0  0  0  0  0
   14.4376  -10.7017  -19.7668 O   0  0  0  0  0  0  0  0  0  0  0  0
   24.1132   -6.5617  -16.5926 N   0  0  0  0  0  0  0  0  0  0  0  0
   23.9450   -7.9610  -16.4204 C   0  0  0  0  0  0  0  0  0  0  0  0
   24.8385   -8.8074  -16.8669 N   0  0  0  0  0  0  0  0  0  0  0  0
   22.7829   -8.4050  -15.7516 N   0  0  0  0  0  0  0  0  0  0  0  0
   21.8020   -7.4774  -15.2508 C   0  0  0  0  0  0  0  0  0  0  0  0
   20.6340   -8.2202  -14.6371 C   0  0  0  0  0  0  0  0  0  0  0  0
   20.0383   -9.2141  -15.6009 C   0  0  0  0  0  0  0  0  0  0  0  0
   18.8547   -9.9457  -15.0842 C   0  0  2  0  0  0  0  0  0  0  0  0
   18.3907  -11.0316  -15.9180 N   0  0  0  0  0  0  0  0  0  0  0  0
   17.7711   -9.0080  -14.7254 C   0  0  0  0  0  0  0  0  0  0  0  0
   16.7909   -8.7113  -15.6371 O   0  0  0  0  0  0  0  0  0  0  0  0
   17.7567   -8.4941  -13.5917 O   0  0  0  0  0  0  0  0  0  0  0  0
  2  1  1  0
  3  2  1  0
  4  3  2  0
  5  3  1  0
  6 11  1  0
  6  5  1  0
  6  7  1  1
  8  7  1  0
  9  8  1  0
 10  9  2  0
 11 12  2  0
 13  9  1  0
 15 16  2  0
 15 14  1  0
 17 15  1  0
 18 17  1  0
 19 20  1  0
 19 18  1  0
 21 20  1  6
 22 11  1  0
 22 21  1  0
 23 21  1  0
 23 24  1  0
 25 23  2  0
M  END
$$$$
