GER.pdb
     RDKit          3D

 25 24  0  0  1  0  0  0  0  0999 V2000
   27.1807  -21.5386  -16.0489 N   0  0  0  0  0  0  0  0  0  0  0  0
   26.0779  -21.3015  -16.9532 C   0  0  0  0  0  0  0  0  0  0  0  0
   25.1083  -20.3978  -16.2864 C   0  0  0  0  0  0  0  0  0  0  0  0
   25.1121  -20.3266  -15.0259 O   0  0  0  0  0  0  0  0  0  0  0  0
   24.1767  -19.6090  -16.9977 N   0  0  0  0  0  0  0  0  0  0  0  0
   23.2945  -18.6578  -16.2632 C   0  0  1  0  0  0  0  0  0  0  0  0
   22.9071  -17.5673  -17.1896 C   0  0  0  0  0  0  0  0  0  0  0  0
   23.8561  -16.4197  -17.2435 C   0  0  0  0  0  0  0  0  0  0  0  0
   23.4118  -15.3808  -18.2204 C   0  0  0  0  0  0  0  0  0  0  0  0
   22.9584  -15.7116  -19.3290 O   0  0  0  0  0  0  0  0  0  0  0  0
   22.2415  -19.3886  -15.5714 C   0  0  0  0  0  0  0  0  0  0  0  0
   21.7881  -20.4366  -16.1554 O   0  0  0  0  0  0  0  0  0  0  0  0
   23.5145  -14.0587  -17.8689 O   0  0  0  0  0  0  0  0  0  0  0  0
   17.6433  -22.6216  -10.0101 N   0  0  0  0  0  0  0  0  0  0  0  0
   18.6592  -23.6042  -10.1451 C   0  0  0  0  0  0  0  0  0  0  0  0
   18.3658  -24.8800  -10.1580 N   0  0  0  0  0  0  0  0  0  0  0  0
   19.9935  -23.1565  -10.2652 N   0  0  0  0  0  0  0  0  0  0  0  0
   20.3114  -21.7557  -10.3638 C   0  0  0  0  0  0  0  0  0  0  0  0
   19.8747  -21.2057  -11.7053 C   0  0  0  0  0  0  0  0  0  0  0  0
   20.9678  -20.3994  -12.3585 C   0  0  0  0  0  0  0  0  0  0  0  0
   20.6226  -19.8567  -13.6962 C   0  0  2  0  0  0  0  0  0  0  0  0
   21.6653  -19.0854  -14.3347 N   0  0  0  0  0  0  0  0  0  0  0  0
   19.3334  -19.1364  -13.6558 C   0  0  0  0  0  0  0  0  0  0  0  0
   19.2966  -17.7832  -13.8735 O   0  0  0  0  0  0  0  0  0  0  0  0
   18.2861  -19.7684  -13.4249 O   0  0  0  0  0  0  0  0  0  0  0  0
  2  1  1  0
  3  2  1  0
  4  3  2  0
  5  3  1  0
  6 11  1  0
  6  5  1  0
  6  7  1  6
  8  7  1  0
  9  8  1  0
 10  9  2  0
 11 12  2  0
 13  9  1  0
 15 16  2  0
 15 14  1  0
 17 15  1  0
 18 17  1  0
 19 20  1  0
 19 18  1  0
 21 20  1  1
 22 11  1  0
 22 21  1  0
 23 21  1  0
 23 24  1  0
 25 23  2  0
M  END
$$$$
