WTC.pdb
     RDKit          3D

 28 29  0  0  1  0  0  0  0  0999 V2000
   27.6776  -28.4010  -16.0254 N   0  0  0  0  0  0  0  0  0  0  0  0
   27.5754  -28.5879  -17.4496 C   0  0  1  0  0  0  0  0  0  0  0  0
   27.6107  -27.2441  -18.1395 C   0  0  0  0  0  0  0  0  0  0  0  0
   26.5093  -26.3566  -17.7796 C   0  0  0  0  0  0  0  0  0  0  0  0
   25.1853  -26.7557  -17.7703 C   0  0  0  0  0  0  0  0  0  0  0  0
   24.4642  -25.7067  -17.3660 N   0  0  0  0  0  0  0  0  0  0  0  0
   25.2844  -24.6547  -17.1187 C   0  0  0  0  0  0  0  0  0  0  0  0
   25.0009  -23.3839  -16.6963 C   0  0  0  0  0  0  0  0  0  0  0  0
   26.0546  -22.5141  -16.5384 C   0  0  0  0  0  0  0  0  0  0  0  0
   27.3586  -22.8735  -16.7868 C   0  0  0  0  0  0  0  0  0  0  0  0
   27.6425  -24.1524  -17.2116 C   0  0  0  0  0  0  0  0  0  0  0  0
   26.5945  -25.0533  -17.3786 C   0  0  0  0  0  0  0  0  0  0  0  0
   28.7933  -29.3156  -17.9150 C   0  0  0  0  0  0  0  0  0  0  0  0
   29.8300  -29.2208  -17.2136 O   0  0  0  0  0  0  0  0  0  0  0  0
   29.2085  -32.9186  -18.2294 C   0  0  0  0  0  0  0  0  0  0  0  0
   29.5291  -32.2992  -19.5644 C   0  0  1  0  0  0  0  0  0  0  0  0
   28.3894  -32.4456  -20.3623 O   0  0  0  0  0  0  0  0  0  0  0  0
   29.9624  -30.8505  -19.4453 C   0  0  2  0  0  0  0  0  0  0  0  0
   28.7837  -30.0911  -19.1119 N   0  0  0  0  0  0  0  0  0  0  0  0
   30.5978  -30.3689  -20.6946 C   0  0  0  0  0  0  0  0  0  0  0  0
   30.2285  -29.2723  -21.1765 O   0  0  0  0  0  0  0  0  0  0  0  0
   31.6097  -31.0734  -21.3924 N   0  0  0  0  0  0  0  0  0  0  0  0
   32.2205  -30.5754  -22.6101 C   0  0  1  0  0  0  0  0  0  0  0  0
   32.9622  -29.2601  -22.3473 C   0  0  0  0  0  0  0  0  0  0  0  0
   32.9694  -28.1815  -23.7753 S   0  0  0  0  0  0  0  0  0  0  0  0
   33.2536  -31.5518  -23.0108 C   0  0  0  0  0  0  0  0  0  0  0  0
   33.6678  -31.5316  -24.1895 O   0  0  0  0  0  0  0  0  0  0  0  0
   33.7721  -32.4779  -22.1335 O   0  0  0  0  0  0  0  0  0  0  0  0
  2 13  1  0
  2  1  1  1
  3  2  1  0
  4  3  1  0
  4 12  1  0
  5  6  1  0
  5  4  2  0
  6  7  1  0
  7 12  2  0
  7  8  1  0
  8  9  2  0
  9 10  1  0
 11 10  2  0
 12 11  1  0
 13 19  1  0
 14 13  2  0
 16 15  1  1
 16 17  1  0
 18 16  1  0
 18 19  1  6
 20 18  1  0
 21 20  2  0
 22 20  1  0
 23 22  1  0
 23 26  1  0
 24 25  1  0
 23 24  1  1
 26 28  1  0
 27 26  2  0
M  END
$$$$
