WTC.pdb
     RDKit          3D

 28 29  0  0  1  0  0  0  0  0999 V2000
   27.4382  -22.0123  -12.8669 N   0  0  0  0  0  0  0  0  0  0  0  0
   26.3794  -21.5179  -12.0253 C   0  0  1  0  0  0  0  0  0  0  0  0
   26.8682  -20.3156  -11.2516 C   0  0  0  0  0  0  0  0  0  0  0  0
   27.8605  -20.6254  -10.2270 C   0  0  0  0  0  0  0  0  0  0  0  0
   29.1284  -21.0956  -10.5162 C   0  0  0  0  0  0  0  0  0  0  0  0
   29.7671  -21.2374   -9.3519 N   0  0  0  0  0  0  0  0  0  0  0  0
   28.9485  -20.8741   -8.3328 C   0  0  0  0  0  0  0  0  0  0  0  0
   29.1616  -20.8587   -6.9808 C   0  0  0  0  0  0  0  0  0  0  0  0
   28.1266  -20.4425   -6.1763 C   0  0  0  0  0  0  0  0  0  0  0  0
   26.9078  -20.0492   -6.6775 C   0  0  0  0  0  0  0  0  0  0  0  0
   26.6946  -20.0649   -8.0380 C   0  0  0  0  0  0  0  0  0  0  0  0
   27.7261  -20.4809   -8.8751 C   0  0  0  0  0  0  0  0  0  0  0  0
   25.2795  -21.0169  -12.9022 C   0  0  0  0  0  0  0  0  0  0  0  0
   25.5765  -20.6911  -14.0776 O   0  0  0  0  0  0  0  0  0  0  0  0
   24.0982  -21.9510  -15.1005 C   0  0  0  0  0  0  0  0  0  0  0  0
   22.8121  -21.7284  -14.3488 C   0  0  1  0  0  0  0  0  0  0  0  0
   22.4999  -22.9360  -13.7153 O   0  0  0  0  0  0  0  0  0  0  0  0
   22.9024  -20.5742  -13.3688 C   0  0  2  0  0  0  0  0  0  0  0  0
   23.9394  -20.9107  -12.4261 N   0  0  0  0  0  0  0  0  0  0  0  0
   21.6034  -20.3265  -12.6999 C   0  0  0  0  0  0  0  0  0  0  0  0
   21.3112  -20.9953  -11.6808 O   0  0  0  0  0  0  0  0  0  0  0  0
   20.6543  -19.3709  -13.1395 N   0  0  0  0  0  0  0  0  0  0  0  0
   19.4563  -19.0465  -12.3889 C   0  0  1  0  0  0  0  0  0  0  0  0
   18.8712  -17.7075  -12.8516 C   0  0  0  0  0  0  0  0  0  0  0  0
   18.9914  -17.4840  -14.6231 S   0  0  0  0  0  0  0  0  0  0  0  0
   18.4435  -20.0690  -12.7205 C   0  0  0  0  0  0  0  0  0  0  0  0
   18.6169  -20.7715  -13.7391 O   0  0  0  0  0  0  0  0  0  0  0  0
   17.3213  -20.2723  -11.9486 O   0  0  0  0  0  0  0  0  0  0  0  0
  2 13  1  0
  2  1  1  6
  3  2  1  0
  4  3  1  0
  4 12  1  0
  5  6  1  0
  5  4  2  0
  6  7  1  0
  7 12  2  0
  7  8  1  0
  8  9  2  0
  9 10  1  0
 11 10  2  0
 12 11  1  0
 13 19  1  0
 14 13  2  0
 16 15  1  1
 16 17  1  0
 18 16  1  0
 18 19  1  1
 20 18  1  0
 21 20  2  0
 22 20  1  0
 23 22  1  0
 23 26  1  0
 24 25  1  0
 23 24  1  6
 26 28  1  0
 27 26  2  0
M  END
$$$$
