WTC.pdb
     RDKit          3D

 28 29  0  0  1  0  0  0  0  0999 V2000
   26.4790  -22.3736  -13.9751 N   0  0  0  0  0  0  0  0  0  0  0  0
   25.7221  -21.2767  -13.4296 C   0  0  1  0  0  0  0  0  0  0  0  0
   26.6677  -20.2148  -12.9185 C   0  0  0  0  0  0  0  0  0  0  0  0
   27.2380  -20.5019  -11.6060 C   0  0  0  0  0  0  0  0  0  0  0  0
   28.5939  -20.6619  -11.3863 C   0  0  0  0  0  0  0  0  0  0  0  0
   28.7545  -20.8790  -10.0783 N   0  0  0  0  0  0  0  0  0  0  0  0
   27.5473  -20.8631   -9.4595 C   0  0  0  0  0  0  0  0  0  0  0  0
   27.2185  -21.0429   -8.1429 C   0  0  0  0  0  0  0  0  0  0  0  0
   25.8871  -20.9800   -7.8035 C   0  0  0  0  0  0  0  0  0  0  0  0
   24.8950  -20.7471   -8.7269 C   0  0  0  0  0  0  0  0  0  0  0  0
   25.2271  -20.5661  -10.0511 C   0  0  0  0  0  0  0  0  0  0  0  0
   26.5677  -20.6238  -10.4216 C   0  0  0  0  0  0  0  0  0  0  0  0
   24.9563  -20.6378  -14.5410 C   0  0  0  0  0  0  0  0  0  0  0  0
   25.4248  -20.7373  -15.7013 O   0  0  0  0  0  0  0  0  0  0  0  0
   22.6867  -21.7078  -16.3372 C   0  0  0  0  0  0  0  0  0  0  0  0
   22.0248  -20.4403  -15.8640 C   0  0  1  0  0  0  0  0  0  0  0  0
   21.1510  -20.8011  -14.8329 O   0  0  0  0  0  0  0  0  0  0  0  0
   23.0263  -19.3893  -15.4245 C   0  0  2  0  0  0  0  0  0  0  0  0
   23.7370  -19.9392  -14.2977 N   0  0  0  0  0  0  0  0  0  0  0  0
   22.3588  -18.1095  -15.0887 C   0  0  0  0  0  0  0  0  0  0  0  0
   21.7311  -18.0209  -14.0072 O   0  0  0  0  0  0  0  0  0  0  0  0
   22.3816  -16.9614  -15.9184 N   0  0  0  0  0  0  0  0  0  0  0  0
   21.7465  -15.7102  -15.5508 C   0  0  1  0  0  0  0  0  0  0  0  0
   22.5328  -14.5178  -16.1069 C   0  0  0  0  0  0  0  0  0  0  0  0
   24.1102  -14.2980  -15.2905 S   0  0  0  0  0  0  0  0  0  0  0  0
   20.4300  -15.6764  -16.2193 C   0  0  0  0  0  0  0  0  0  0  0  0
   20.3376  -16.1351  -17.3778 O   0  0  0  0  0  0  0  0  0  0  0  0
   19.3078  -15.1590  -15.6114 O   0  0  0  0  0  0  0  0  0  0  0  0
  2 13  1  0
  2  1  1  6
  3  2  1  0
  4  3  1  0
  4 12  1  0
  5  6  1  0
  5  4  2  0
  6  7  1  0
  7 12  2  0
  7  8  1  0
  8  9  2  0
  9 10  1  0
 11 10  2  0
 12 11  1  0
 13 19  1  0
 14 13  2  0
 16 15  1  1
 16 17  1  0
 18 16  1  0
 18 19  1  1
 20 18  1  0
 21 20  2  0
 22 20  1  0
 23 22  1  0
 23 26  1  0
 24 25  1  0
 23 24  1  6
 26 28  1  0
 27 26  2  0
M  END
$$$$
