WTC.pdb
     RDKit          3D

 28 29  0  0  1  0  0  0  0  0999 V2000
   27.9287  -22.0950  -11.8731 N   0  0  0  0  0  0  0  0  0  0  0  0
   26.7739  -21.6233  -11.1535 C   0  0  1  0  0  0  0  0  0  0  0  0
   27.1598  -20.4383  -10.2993 C   0  0  0  0  0  0  0  0  0  0  0  0
   28.1303  -20.7446   -9.2531 C   0  0  0  0  0  0  0  0  0  0  0  0
   29.2915  -21.4600   -9.4811 C   0  0  0  0  0  0  0  0  0  0  0  0
   29.9467  -21.5216   -8.3189 N   0  0  0  0  0  0  0  0  0  0  0  0
   29.2415  -20.8706   -7.3602 C   0  0  0  0  0  0  0  0  0  0  0  0
   29.5106  -20.6784   -6.0319 C   0  0  0  0  0  0  0  0  0  0  0  0
   28.5916  -19.9733   -5.2901 C   0  0  0  0  0  0  0  0  0  0  0  0
   27.4333  -19.4654   -5.8300 C   0  0  0  0  0  0  0  0  0  0  0  0
   27.1638  -19.6592   -7.1666 C   0  0  0  0  0  0  0  0  0  0  0  0
   28.0779  -20.3686   -7.9405 C   0  0  0  0  0  0  0  0  0  0  0  0
   25.7844  -21.1047  -12.1444 C   0  0  0  0  0  0  0  0  0  0  0  0
   26.2178  -20.7551  -13.2694 O   0  0  0  0  0  0  0  0  0  0  0  0
   25.0250  -21.8499  -14.4464 C   0  0  0  0  0  0  0  0  0  0  0  0
   23.6081  -21.6877  -13.9620 C   0  0  1  0  0  0  0  0  0  0  0  0
   23.1819  -22.9479  -13.5294 O   0  0  0  0  0  0  0  0  0  0  0  0
   23.4803  -20.6361  -12.8764 C   0  0  2  0  0  0  0  0  0  0  0  0
   24.3970  -21.0085  -11.8284 N   0  0  0  0  0  0  0  0  0  0  0  0
   22.0868  -20.5308  -12.3832 C   0  0  0  0  0  0  0  0  0  0  0  0
   21.8908  -20.3694  -11.1557 O   0  0  0  0  0  0  0  0  0  0  0  0
   20.9431  -20.6009  -13.2164 N   0  0  0  0  0  0  0  0  0  0  0  0
   19.7165  -19.8801  -12.9339 C   0  0  1  0  0  0  0  0  0  0  0  0
   19.9517  -18.3664  -12.9857 C   0  0  0  0  0  0  0  0  0  0  0  0
   18.5387  -17.4343  -12.4048 S   0  0  0  0  0  0  0  0  0  0  0  0
   18.7712  -20.1824  -14.0276 C   0  0  0  0  0  0  0  0  0  0  0  0
   19.2271  -20.3638  -15.1766 O   0  0  0  0  0  0  0  0  0  0  0  0
   17.4121  -20.2702  -13.8238 O   0  0  0  0  0  0  0  0  0  0  0  0
  2 13  1  0
  2  1  1  6
  3  2  1  0
  4  3  1  0
  4 12  1  0
  5  6  1  0
  5  4  2  0
  6  7  1  0
  7 12  2  0
  7  8  1  0
  8  9  2  0
  9 10  1  0
 11 10  2  0
 12 11  1  0
 13 19  1  0
 14 13  2  0
 16 15  1  1
 16 17  1  0
 18 16  1  0
 18 19  1  1
 20 18  1  0
 21 20  2  0
 22 20  1  0
 23 22  1  0
 23 26  1  0
 24 25  1  0
 23 24  1  6
 26 28  1  0
 27 26  2  0
M  END
$$$$
