WTC.pdb
     RDKit          3D

 28 29  0  0  1  0  0  0  0  0999 V2000
   23.1338  -23.8538  -15.8195 N   0  0  0  0  0  0  0  0  0  0  0  0
   24.4271  -23.2243  -15.7488 C   0  0  1  0  0  0  0  0  0  0  0  0
   24.5431  -22.4516  -14.4556 C   0  0  0  0  0  0  0  0  0  0  0  0
   23.6211  -21.3255  -14.3457 C   0  0  0  0  0  0  0  0  0  0  0  0
   22.7276  -21.1756  -13.3010 C   0  0  0  0  0  0  0  0  0  0  0  0
   22.0740  -20.0293  -13.5077 N   0  0  0  0  0  0  0  0  0  0  0  0
   22.5211  -19.4461  -14.6481 C   0  0  0  0  0  0  0  0  0  0  0  0
   22.1470  -18.2791  -15.2579 C   0  0  0  0  0  0  0  0  0  0  0  0
   22.7804  -17.9406  -16.4309 C   0  0  0  0  0  0  0  0  0  0  0  0
   23.7584  -18.7224  -16.9998 C   0  0  0  0  0  0  0  0  0  0  0  0
   24.1340  -19.8962  -16.3852 C   0  0  0  0  0  0  0  0  0  0  0  0
   23.5095  -20.2619  -15.1961 C   0  0  0  0  0  0  0  0  0  0  0  0
   25.4656  -24.2948  -15.6769 C   0  0  0  0  0  0  0  0  0  0  0  0
   25.1074  -25.4247  -15.2635 O   0  0  0  0  0  0  0  0  0  0  0  0
   25.8492  -26.7016  -16.9107 C   0  0  0  0  0  0  0  0  0  0  0  0
   27.1525  -26.0501  -17.2922 C   0  0  1  0  0  0  0  0  0  0  0  0
   26.9165  -25.3330  -18.4700 O   0  0  0  0  0  0  0  0  0  0  0  0
   27.7094  -25.1712  -16.1885 C   0  0  2  0  0  0  0  0  0  0  0  0
   26.8160  -24.0472  -16.0628 N   0  0  0  0  0  0  0  0  0  0  0  0
   29.0985  -24.7460  -16.4813 C   0  0  0  0  0  0  0  0  0  0  0  0
   29.2828  -23.6936  -17.1370 O   0  0  0  0  0  0  0  0  0  0  0  0
   30.2504  -25.4578  -16.0647 N   0  0  0  0  0  0  0  0  0  0  0  0
   31.5997  -24.9749  -16.2891 C   0  0  1  0  0  0  0  0  0  0  0  0
   32.6026  -25.7408  -15.4191 C   0  0  0  0  0  0  0  0  0  0  0  0
   34.3007  -25.3564  -15.8331 S   0  0  0  0  0  0  0  0  0  0  0  0
   31.9495  -25.2925  -17.6884 C   0  0  0  0  0  0  0  0  0  0  0  0
   31.5628  -26.3797  -18.1676 O   0  0  0  0  0  0  0  0  0  0  0  0
   32.6835  -24.4352  -18.4774 O   0  0  0  0  0  0  0  0  0  0  0  0
  2 13  1  0
  2  1  1  1
  3  2  1  0
  4  3  1  0
  4 12  1  0
  5  6  1  0
  5  4  2  0
  6  7  1  0
  7 12  2  0
  7  8  1  0
  8  9  2  0
  9 10  1  0
 11 10  2  0
 12 11  1  0
 13 19  1  0
 14 13  2  0
 16 15  1  1
 16 17  1  0
 18 16  1  0
 18 19  1  6
 20 18  1  0
 21 20  2  0
 22 20  1  0
 23 22  1  0
 23 26  1  0
 24 25  1  0
 23 24  1  1
 26 28  1  0
 27 26  2  0
M  END
$$$$
