WTC.pdb
     RDKit          3D

 28 29  0  0  1  0  0  0  0  0999 V2000
   27.5794  -21.7902   -9.4690 N   0  0  0  0  0  0  0  0  0  0  0  0
   26.3154  -21.1014   -9.5075 C   0  0  1  0  0  0  0  0  0  0  0  0
   26.3750  -19.8853   -8.6127 C   0  0  0  0  0  0  0  0  0  0  0  0
   26.5498  -20.1915   -7.1964 C   0  0  0  0  0  0  0  0  0  0  0  0
   25.7040  -21.0276   -6.4908 C   0  0  0  0  0  0  0  0  0  0  0  0
   26.1791  -21.1024   -5.2449 N   0  0  0  0  0  0  0  0  0  0  0  0
   27.2974  -20.3422   -5.1343 C   0  0  0  0  0  0  0  0  0  0  0  0
   28.1135  -20.1087   -4.0605 C   0  0  0  0  0  0  0  0  0  0  0  0
   29.1886  -19.2711   -4.2464 C   0  0  0  0  0  0  0  0  0  0  0  0
   29.4641  -18.6723   -5.4533 C   0  0  0  0  0  0  0  0  0  0  0  0
   28.6423  -18.9082   -6.5330 C   0  0  0  0  0  0  0  0  0  0  0  0
   27.5476  -19.7530   -6.3724 C   0  0  0  0  0  0  0  0  0  0  0  0
   26.1092  -20.5782  -10.8908 C   0  0  0  0  0  0  0  0  0  0  0  0
   27.1291  -20.2559  -11.5478 O   0  0  0  0  0  0  0  0  0  0  0  0
   26.6944  -21.7241  -13.2273 C   0  0  0  0  0  0  0  0  0  0  0  0
   25.2346  -21.5082  -13.5289 C   0  0  1  0  0  0  0  0  0  0  0  0
   24.5611  -22.6623  -13.1149 O   0  0  0  0  0  0  0  0  0  0  0  0
   24.6831  -20.2569  -12.8725 C   0  0  2  0  0  0  0  0  0  0  0  0
   24.8033  -20.4479  -11.4490 N   0  0  0  0  0  0  0  0  0  0  0  0
   23.2819  -20.0011  -13.2817 C   0  0  0  0  0  0  0  0  0  0  0  0
   22.3537  -20.5087  -12.6092 O   0  0  0  0  0  0  0  0  0  0  0  0
   22.9132  -19.2101  -14.3978 N   0  0  0  0  0  0  0  0  0  0  0  0
   21.5430  -18.8192  -14.6690 C   0  0  1  0  0  0  0  0  0  0  0  0
   21.4855  -17.7954  -15.8082 C   0  0  0  0  0  0  0  0  0  0  0  0
   19.8091  -17.3203  -16.2170 S   0  0  0  0  0  0  0  0  0  0  0  0
   20.8371  -20.0183  -15.1639 C   0  0  0  0  0  0  0  0  0  0  0  0
   21.4480  -20.7977  -15.9259 O   0  0  0  0  0  0  0  0  0  0  0  0
   19.5358  -20.3039  -14.8154 O   0  0  0  0  0  0  0  0  0  0  0  0
  2 13  1  0
  2  1  1  6
  3  2  1  0
  4  3  1  0
  4 12  1  0
  5  6  1  0
  5  4  2  0
  6  7  1  0
  7 12  2  0
  7  8  1  0
  8  9  2  0
  9 10  1  0
 11 10  2  0
 12 11  1  0
 13 19  1  0
 14 13  2  0
 16 15  1  1
 16 17  1  0
 18 16  1  0
 18 19  1  1
 20 18  1  0
 21 20  2  0
 22 20  1  0
 23 22  1  0
 23 26  1  0
 24 25  1  0
 23 24  1  6
 26 28  1  0
 27 26  2  0
M  END
$$$$
