WTC.pdb
     RDKit          3D

 28 29  0  0  1  0  0  0  0  0999 V2000
   27.0673  -22.1611   -9.3911 N   0  0  0  0  0  0  0  0  0  0  0  0
   26.2567  -21.0162   -9.7163 C   0  0  1  0  0  0  0  0  0  0  0  0
   26.6078  -19.8704   -8.7961 C   0  0  0  0  0  0  0  0  0  0  0  0
   26.4199  -20.1614   -7.3783 C   0  0  0  0  0  0  0  0  0  0  0  0
   25.2457  -20.6742   -6.8581 C   0  0  0  0  0  0  0  0  0  0  0  0
   25.4401  -20.8425   -5.5475 N   0  0  0  0  0  0  0  0  0  0  0  0
   26.6971  -20.4538   -5.2169 C   0  0  0  0  0  0  0  0  0  0  0  0
   27.3357  -20.4384   -4.0063 C   0  0  0  0  0  0  0  0  0  0  0  0
   28.6300  -19.9742   -3.9735 C   0  0  0  0  0  0  0  0  0  0  0  0
   29.2901  -19.5332   -5.0964 C   0  0  0  0  0  0  0  0  0  0  0  0
   28.6466  -19.5494   -6.3140 C   0  0  0  0  0  0  0  0  0  0  0  0
   27.3363  -20.0155   -6.3754 C   0  0  0  0  0  0  0  0  0  0  0  0
   26.6210  -20.5598  -11.0906 C   0  0  0  0  0  0  0  0  0  0  0  0
   27.8359  -20.3557  -11.3318 O   0  0  0  0  0  0  0  0  0  0  0  0
   26.2924  -22.3534  -14.1090 C   0  0  0  0  0  0  0  0  0  0  0  0
   25.6140  -21.0347  -14.3720 C   0  0  1  0  0  0  0  0  0  0  0  0
   24.2363  -21.2688  -14.3074 O   0  0  0  0  0  0  0  0  0  0  0  0
   26.0562  -19.9497  -13.4086 C   0  0  2  0  0  0  0  0  0  0  0  0
   25.6285  -20.3617  -12.0954 N   0  0  0  0  0  0  0  0  0  0  0  0
   25.4992  -18.6290  -13.7848 C   0  0  0  0  0  0  0  0  0  0  0  0
   24.3906  -18.2839  -13.3123 O   0  0  0  0  0  0  0  0  0  0  0  0
   26.1432  -17.7152  -14.6550 N   0  0  0  0  0  0  0  0  0  0  0  0
   25.5248  -16.4809  -15.1002 C   0  0  1  0  0  0  0  0  0  0  0  0
   26.5793  -15.5100  -15.6431 C   0  0  0  0  0  0  0  0  0  0  0  0
   25.8522  -14.0329  -16.3448 S   0  0  0  0  0  0  0  0  0  0  0  0
   24.6543  -16.8174  -16.2448 C   0  0  0  0  0  0  0  0  0  0  0  0
   25.0396  -17.6914  -17.0503 O   0  0  0  0  0  0  0  0  0  0  0  0
   23.4393  -16.2033  -16.4522 O   0  0  0  0  0  0  0  0  0  0  0  0
  2 13  1  0
  2  1  1  1
  3  2  1  0
  4  3  1  0
  4 12  1  0
  5  6  1  0
  5  4  2  0
  6  7  1  0
  7 12  2  0
  7  8  1  0
  8  9  2  0
  9 10  1  0
 11 10  2  0
 12 11  1  0
 13 19  1  0
 14 13  2  0
 16 15  1  1
 16 17  1  0
 18 16  1  0
 18 19  1  1
 20 18  1  0
 21 20  2  0
 22 20  1  0
 23 22  1  0
 23 26  1  0
 24 25  1  0
 23 24  1  6
 26 28  1  0
 27 26  2  0
M  END
$$$$
