WTC.pdb
     RDKit          3D

 28 29  0  0  1  0  0  0  0  0999 V2000
   28.1123  -21.5176  -14.6129 N   0  0  0  0  0  0  0  0  0  0  0  0
   27.1518  -21.6817  -13.5525 C   0  0  1  0  0  0  0  0  0  0  0  0
   27.1155  -20.4311  -12.7054 C   0  0  0  0  0  0  0  0  0  0  0  0
   27.8429  -20.5400  -11.4447 C   0  0  0  0  0  0  0  0  0  0  0  0
   29.2115  -20.7246  -11.3719 C   0  0  0  0  0  0  0  0  0  0  0  0
   29.5339  -20.7471  -10.0760 N   0  0  0  0  0  0  0  0  0  0  0  0
   28.4174  -20.5838   -9.3230 C   0  0  0  0  0  0  0  0  0  0  0  0
   28.2565  -20.5465   -7.9641 C   0  0  0  0  0  0  0  0  0  0  0  0
   26.9819  -20.3739   -7.4769 C   0  0  0  0  0  0  0  0  0  0  0  0
   25.8851  -20.2406   -8.2957 C   0  0  0  0  0  0  0  0  0  0  0  0
   26.0482  -20.2780   -9.6627 C   0  0  0  0  0  0  0  0  0  0  0  0
   27.3280  -20.4506  -10.1823 C   0  0  0  0  0  0  0  0  0  0  0  0
   25.7945  -21.7977  -14.1640 C   0  0  0  0  0  0  0  0  0  0  0  0
   25.5362  -21.0624  -15.1481 O   0  0  0  0  0  0  0  0  0  0  0  0
   21.9831  -24.6169  -15.1535 C   0  0  0  0  0  0  0  0  0  0  0  0
   23.3215  -24.3250  -14.5274 C   0  0  1  0  0  0  0  0  0  0  0  0
   24.2877  -24.9306  -15.3377 O   0  0  0  0  0  0  0  0  0  0  0  0
   23.5709  -22.8392  -14.3518 C   0  0  2  0  0  0  0  0  0  0  0  0
   24.8242  -22.7089  -13.6521 N   0  0  0  0  0  0  0  0  0  0  0  0
   22.4585  -22.1836  -13.6245 C   0  0  0  0  0  0  0  0  0  0  0  0
   22.4904  -22.1534  -12.3717 O   0  0  0  0  0  0  0  0  0  0  0  0
   21.3443  -21.5792  -14.2572 N   0  0  0  0  0  0  0  0  0  0  0  0
   20.2180  -21.0371  -13.5214 C   0  0  1  0  0  0  0  0  0  0  0  0
   19.9693  -19.5750  -13.9082 C   0  0  0  0  0  0  0  0  0  0  0  0
   19.1424  -19.4164  -15.4874 S   0  0  0  0  0  0  0  0  0  0  0  0
   19.0170  -21.7814  -13.9514 C   0  0  0  0  0  0  0  0  0  0  0  0
   19.0882  -22.4837  -14.9824 O   0  0  0  0  0  0  0  0  0  0  0  0
   17.8286  -21.7271  -13.2577 O   0  0  0  0  0  0  0  0  0  0  0  0
  2 13  1  0
  2  1  1  6
  3  2  1  0
  4  3  1  0
  4 12  1  0
  5  6  1  0
  5  4  2  0
  6  7  1  0
  7 12  2  0
  7  8  1  0
  8  9  2  0
  9 10  1  0
 11 10  2  0
 12 11  1  0
 13 19  1  0
 14 13  2  0
 16 15  1  6
 16 17  1  0
 18 16  1  0
 18 19  1  1
 20 18  1  0
 21 20  2  0
 22 20  1  0
 23 22  1  0
 23 26  1  0
 24 25  1  0
 23 24  1  6
 26 28  1  0
 27 26  2  0
M  END
$$$$
