WTC.pdb
     RDKit          3D

 28 29  0  0  1  0  0  0  0  0999 V2000
   27.2214  -20.9973  -12.0199 N   0  0  0  0  0  0  0  0  0  0  0  0
   26.1755  -21.1220  -11.0380 C   0  0  1  0  0  0  0  0  0  0  0  0
   26.4382  -20.1684   -9.8958 C   0  0  0  0  0  0  0  0  0  0  0  0
   27.6855  -20.4192   -9.1806 C   0  0  0  0  0  0  0  0  0  0  0  0
   28.7864  -21.0203   -9.7629 C   0  0  0  0  0  0  0  0  0  0  0  0
   29.7462  -21.0594   -8.8350 N   0  0  0  0  0  0  0  0  0  0  0  0
   29.2930  -20.5043   -7.6831 C   0  0  0  0  0  0  0  0  0  0  0  0
   29.9111  -20.3305   -6.4742 C   0  0  0  0  0  0  0  0  0  0  0  0
   29.1880  -19.7340   -5.4677 C   0  0  0  0  0  0  0  0  0  0  0  0
   27.8887  -19.3152   -5.6339 C   0  0  0  0  0  0  0  0  0  0  0  0
   27.2679  -19.4904   -6.8507 C   0  0  0  0  0  0  0  0  0  0  0  0
   27.9777  -20.0906   -7.8870 C   0  0  0  0  0  0  0  0  0  0  0  0
   24.8946  -20.6700  -11.6582 C   0  0  0  0  0  0  0  0  0  0  0  0
   24.6102  -19.4499  -11.5797 O   0  0  0  0  0  0  0  0  0  0  0  0
   21.8481  -20.7366  -15.2355 C   0  0  0  0  0  0  0  0  0  0  0  0
   23.0453  -21.1928  -14.4436 C   0  0  1  0  0  0  0  0  0  0  0  0
   24.1355  -20.4364  -14.8868 O   0  0  0  0  0  0  0  0  0  0  0  0
   22.8345  -21.0706  -12.9465 C   0  0  2  0  0  0  0  0  0  0  0  0
   24.0234  -21.5872  -12.3166 N   0  0  0  0  0  0  0  0  0  0  0  0
   21.6163  -21.7920  -12.5086 C   0  0  0  0  0  0  0  0  0  0  0  0
   21.6800  -23.0307  -12.3270 O   0  0  0  0  0  0  0  0  0  0  0  0
   20.3652  -21.1687  -12.2774 N   0  0  0  0  0  0  0  0  0  0  0  0
   19.1572  -21.9129  -11.9762 C   0  0  1  0  0  0  0  0  0  0  0  0
   18.0307  -20.9680  -11.5434 C   0  0  0  0  0  0  0  0  0  0  0  0
   16.5182  -21.8410  -11.1518 S   0  0  0  0  0  0  0  0  0  0  0  0
   18.7036  -22.5364  -13.2359 C   0  0  0  0  0  0  0  0  0  0  0  0
   18.4714  -23.7640  -13.2437 O   0  0  0  0  0  0  0  0  0  0  0  0
   18.5292  -21.8135  -14.3950 O   0  0  0  0  0  0  0  0  0  0  0  0
  2 13  1  0
  2  1  1  6
  3  2  1  0
  4  3  1  0
  4 12  1  0
  5  6  1  0
  5  4  2  0
  6  7  1  0
  7 12  2  0
  7  8  1  0
  8  9  2  0
  9 10  1  0
 11 10  2  0
 12 11  1  0
 13 19  1  0
 14 13  2  0
 16 15  1  6
 16 17  1  0
 18 16  1  0
 18 19  1  1
 20 18  1  0
 21 20  2  0
 22 20  1  0
 23 22  1  0
 23 26  1  0
 24 25  1  0
 23 24  1  6
 26 28  1  0
 27 26  2  0
M  END
$$$$
