WTC.pdb
     RDKit          3D

 28 29  0  0  1  0  0  0  0  0999 V2000
   26.7198  -19.0487  -17.8925 N   0  0  0  0  0  0  0  0  0  0  0  0
   25.9281  -18.3698  -16.8995 C   0  0  1  0  0  0  0  0  0  0  0  0
   25.6574  -16.9535  -17.3508 C   0  0  0  0  0  0  0  0  0  0  0  0
   26.8273  -16.0812  -17.3212 C   0  0  0  0  0  0  0  0  0  0  0  0
   27.7236  -15.9783  -18.3692 C   0  0  0  0  0  0  0  0  0  0  0  0
   28.6402  -15.0751  -18.0117 N   0  0  0  0  0  0  0  0  0  0  0  0
   28.3576  -14.6012  -16.7723 C   0  0  0  0  0  0  0  0  0  0  0  0
   29.0110  -13.6784  -16.0008 C   0  0  0  0  0  0  0  0  0  0  0  0
   28.4877  -13.3989  -14.7599 C   0  0  0  0  0  0  0  0  0  0  0  0
   27.3511  -14.0055  -14.2789 C   0  0  0  0  0  0  0  0  0  0  0  0
   26.6945  -14.9336  -15.0561 C   0  0  0  0  0  0  0  0  0  0  0  0
   27.2024  -15.2343  -16.3169 C   0  0  0  0  0  0  0  0  0  0  0  0
   24.5935  -19.0358  -16.8292 C   0  0  0  0  0  0  0  0  0  0  0  0
   24.1572  -19.5741  -17.8760 O   0  0  0  0  0  0  0  0  0  0  0  0
   23.7617  -21.4967  -16.9883 C   0  0  0  0  0  0  0  0  0  0  0  0
   22.8861  -21.2296  -15.7922 C   0  0  1  0  0  0  0  0  0  0  0  0
   23.5442  -21.7676  -14.6811 O   0  0  0  0  0  0  0  0  0  0  0  0
   22.5754  -19.7555  -15.6153 C   0  0  2  0  0  0  0  0  0  0  0  0
   23.8388  -19.0619  -15.6194 N   0  0  0  0  0  0  0  0  0  0  0  0
   21.8100  -19.5070  -14.3708 C   0  0  0  0  0  0  0  0  0  0  0  0
   22.1405  -18.5435  -13.6403 O   0  0  0  0  0  0  0  0  0  0  0  0
   20.7134  -20.2956  -13.9432 N   0  0  0  0  0  0  0  0  0  0  0  0
   19.9431  -19.9948  -12.7515 C   0  0  1  0  0  0  0  0  0  0  0  0
   19.2908  -18.6121  -12.8609 C   0  0  0  0  0  0  0  0  0  0  0  0
   18.1403  -18.2911  -11.5282 S   0  0  0  0  0  0  0  0  0  0  0  0
   18.8314  -20.9654  -12.6941 C   0  0  0  0  0  0  0  0  0  0  0  0
   18.5853  -21.5264  -11.6052 O   0  0  0  0  0  0  0  0  0  0  0  0
   18.0620  -21.2707  -13.7947 O   0  0  0  0  0  0  0  0  0  0  0  0
  2 13  1  0
  2  1  1  6
  3  2  1  0
  4  3  1  0
  4 12  1  0
  5  6  1  0
  5  4  2  0
  6  7  1  0
  7 12  2  0
  7  8  1  0
  8  9  2  0
  9 10  1  0
 11 10  2  0
 12 11  1  0
 13 19  1  0
 14 13  2  0
 16 15  1  6
 16 17  1  0
 18 16  1  0
 18 19  1  1
 20 18  1  0
 21 20  2  0
 22 20  1  0
 23 22  1  0
 23 26  1  0
 24 25  1  0
 23 24  1  6
 26 28  1  0
 27 26  2  0
M  END
$$$$
