WTC.pdb
     RDKit          3D

 28 29  0  0  1  0  0  0  0  0999 V2000
   24.8795  -20.5708  -14.5073 N   0  0  0  0  0  0  0  0  0  0  0  0
   24.6566  -20.8866  -13.1202 C   0  0  1  0  0  0  0  0  0  0  0  0
   25.3747  -19.8807  -12.2510 C   0  0  0  0  0  0  0  0  0  0  0  0
   26.8291  -19.9193  -12.3664 C   0  0  0  0  0  0  0  0  0  0  0  0
   27.5191  -19.3936  -13.4433 C   0  0  0  0  0  0  0  0  0  0  0  0
   28.8196  -19.5759  -13.2004 N   0  0  0  0  0  0  0  0  0  0  0  0
   28.9798  -20.1999  -12.0065 C   0  0  0  0  0  0  0  0  0  0  0  0
   30.1158  -20.5948  -11.3527 C   0  0  0  0  0  0  0  0  0  0  0  0
   29.9673  -21.2242  -10.1388 C   0  0  0  0  0  0  0  0  0  0  0  0
   28.7376  -21.4651   -9.5722 C   0  0  0  0  0  0  0  0  0  0  0  0
   27.5954  -21.0673  -10.2309 C   0  0  0  0  0  0  0  0  0  0  0  0
   27.7175  -20.4269  -11.4608 C   0  0  0  0  0  0  0  0  0  0  0  0
   23.2028  -20.7115  -12.8279 C   0  0  0  0  0  0  0  0  0  0  0  0
   22.7096  -19.5698  -12.9981 O   0  0  0  0  0  0  0  0  0  0  0  0
   20.9487  -20.0697  -14.2663 C   0  0  0  0  0  0  0  0  0  0  0  0
   20.4689  -21.3738  -13.6853 C   0  0  1  0  0  0  0  0  0  0  0  0
   20.8770  -22.3826  -14.5644 O   0  0  0  0  0  0  0  0  0  0  0  0
   20.9755  -21.6044  -12.2743 C   0  0  2  0  0  0  0  0  0  0  0  0
   22.4003  -21.7987  -12.3718 N   0  0  0  0  0  0  0  0  0  0  0  0
   20.3003  -22.7591  -11.6364 C   0  0  0  0  0  0  0  0  0  0  0  0
   20.5354  -23.9115  -12.0698 O   0  0  0  0  0  0  0  0  0  0  0  0
   19.3934  -22.6486  -10.5535 N   0  0  0  0  0  0  0  0  0  0  0  0
   18.8106  -23.8007   -9.8926 C   0  0  1  0  0  0  0  0  0  0  0  0
   18.3713  -23.4451   -8.4679 C   0  0  0  0  0  0  0  0  0  0  0  0
   19.7579  -23.0956   -7.3917 S   0  0  0  0  0  0  0  0  0  0  0  0
   17.5751  -24.1450  -10.6250 C   0  0  0  0  0  0  0  0  0  0  0  0
   16.9988  -25.2189  -10.3502 O   0  0  0  0  0  0  0  0  0  0  0  0
   17.0408  -23.3262  -11.5948 O   0  0  0  0  0  0  0  0  0  0  0  0
  2 13  1  0
  2  1  1  6
  3  2  1  0
  4  3  1  0
  4 12  1  0
  5  6  1  0
  5  4  2  0
  6  7  1  0
  7 12  2  0
  7  8  1  0
  8  9  2  0
  9 10  1  0
 11 10  2  0
 12 11  1  0
 13 19  1  0
 14 13  2  0
 16 15  1  6
 16 17  1  0
 18 16  1  0
 18 19  1  6
 20 18  1  0
 21 20  2  0
 22 20  1  0
 23 22  1  0
 23 26  1  0
 24 25  1  0
 23 24  1  1
 26 28  1  0
 27 26  2  0
M  END
$$$$
