WTC.pdb
     RDKit          3D

 28 29  0  0  1  0  0  0  0  0999 V2000
   28.0600  -21.8869  -11.6253 N   0  0  0  0  0  0  0  0  0  0  0  0
   26.7680  -21.3376  -11.3049 C   0  0  1  0  0  0  0  0  0  0  0  0
   26.9201  -19.8889  -10.9034 C   0  0  0  0  0  0  0  0  0  0  0  0
   27.7444  -19.6792   -9.7173 C   0  0  0  0  0  0  0  0  0  0  0  0
   28.9101  -18.9354   -9.7253 C   0  0  0  0  0  0  0  0  0  0  0  0
   29.3786  -18.9303   -8.4746 N   0  0  0  0  0  0  0  0  0  0  0  0
   28.5509  -19.6457   -7.6723 C   0  0  0  0  0  0  0  0  0  0  0  0
   28.6255  -19.9202   -6.3334 C   0  0  0  0  0  0  0  0  0  0  0  0
   27.6292  -20.6930   -5.7840 C   0  0  0  0  0  0  0  0  0  0  0  0
   26.5809  -21.1895   -6.5229 C   0  0  0  0  0  0  0  0  0  0  0  0
   26.5069  -20.9125   -7.8699 C   0  0  0  0  0  0  0  0  0  0  0  0
   27.5020  -20.1315   -8.4511 C   0  0  0  0  0  0  0  0  0  0  0  0
   25.9410  -21.3300  -12.5481 C   0  0  0  0  0  0  0  0  0  0  0  0
   26.4361  -21.8493  -13.5781 O   0  0  0  0  0  0  0  0  0  0  0  0
   24.9046  -23.3143  -13.6216 C   0  0  0  0  0  0  0  0  0  0  0  0
   23.5906  -22.5797  -13.6706 C   0  0  1  0  0  0  0  0  0  0  0  0
   22.8388  -23.0227  -12.5772 O   0  0  0  0  0  0  0  0  0  0  0  0
   23.7653  -21.0730  -13.6727 C   0  0  2  0  0  0  0  0  0  0  0  0
   24.6361  -20.7549  -12.5691 N   0  0  0  0  0  0  0  0  0  0  0  0
   22.4621  -20.3747  -13.5704 C   0  0  0  0  0  0  0  0  0  0  0  0
   21.9331  -20.2450  -12.4414 O   0  0  0  0  0  0  0  0  0  0  0  0
   21.7623  -19.8353  -14.6778 N   0  0  0  0  0  0  0  0  0  0  0  0
   20.5242  -19.0918  -14.5418 C   0  0  1  0  0  0  0  0  0  0  0  0
   20.0770  -18.5291  -15.8955 C   0  0  0  0  0  0  0  0  0  0  0  0
   20.4328  -19.6426  -17.2505 S   0  0  0  0  0  0  0  0  0  0  0  0
   19.4798  -20.0541  -14.1363 C   0  0  0  0  0  0  0  0  0  0  0  0
   19.6691  -21.2687  -14.3599 O   0  0  0  0  0  0  0  0  0  0  0  0
   18.3114  -19.6591  -13.5238 O   0  0  0  0  0  0  0  0  0  0  0  0
  2 13  1  0
  2  1  1  6
  3  2  1  0
  4  3  1  0
  4 12  1  0
  5  6  1  0
  5  4  2  0
  6  7  1  0
  7 12  2  0
  7  8  1  0
  8  9  2  0
  9 10  1  0
 11 10  2  0
 12 11  1  0
 13 19  1  0
 14 13  2  0
 16 15  1  1
 16 17  1  0
 18 16  1  0
 18 19  1  1
 20 18  1  0
 21 20  2  0
 22 20  1  0
 23 22  1  0
 23 26  1  0
 24 25  1  0
 23 24  1  6
 26 28  1  0
 27 26  2  0
M  END
$$$$
