WTC.pdb
     RDKit          3D

 28 29  0  0  1  0  0  0  0  0999 V2000
   27.3722   -9.8505  -19.6266 N   0  0  0  0  0  0  0  0  0  0  0  0
   27.9725  -10.9234  -18.8767 C   0  0  1  0  0  0  0  0  0  0  0  0
   28.3154  -10.4389  -17.4873 C   0  0  0  0  0  0  0  0  0  0  0  0
   29.5457   -9.6572  -17.4119 C   0  0  0  0  0  0  0  0  0  0  0  0
   29.5636   -8.2775  -17.3205 C   0  0  0  0  0  0  0  0  0  0  0  0
   30.8446   -7.9083  -17.2392 N   0  0  0  0  0  0  0  0  0  0  0  0
   31.6412   -9.0058  -17.2763 C   0  0  0  0  0  0  0  0  0  0  0  0
   33.0045   -9.1193  -17.2298 C   0  0  0  0  0  0  0  0  0  0  0  0
   33.5421  -10.3836  -17.2972 C   0  0  0  0  0  0  0  0  0  0  0  0
   32.7686  -11.5152  -17.4079 C   0  0  0  0  0  0  0  0  0  0  0  0
   31.3970  -11.3996  -17.4544 C   0  0  0  0  0  0  0  0  0  0  0  0
   30.8268  -10.1315  -17.3870 C   0  0  0  0  0  0  0  0  0  0  0  0
   26.9495  -11.9954  -18.6922 C   0  0  0  0  0  0  0  0  0  0  0  0
   25.7768  -11.7496  -19.0664 O   0  0  0  0  0  0  0  0  0  0  0  0
   25.3880  -13.5800  -20.2821 C   0  0  0  0  0  0  0  0  0  0  0  0
   25.9585  -14.6972  -19.4486 C   0  0  1  0  0  0  0  0  0  0  0  0
   27.0969  -15.1599  -20.1172 O   0  0  0  0  0  0  0  0  0  0  0  0
   26.2651  -14.2656  -18.0272 C   0  0  2  0  0  0  0  0  0  0  0  0
   27.2879  -13.2537  -18.1126 N   0  0  0  0  0  0  0  0  0  0  0  0
   26.6881  -15.4130  -17.1901 C   0  0  0  0  0  0  0  0  0  0  0  0
   27.8938  -15.7559  -17.1997 O   0  0  0  0  0  0  0  0  0  0  0  0
   25.8103  -16.1605  -16.3669 N   0  0  0  0  0  0  0  0  0  0  0  0
   26.2631  -17.2312  -15.4994 C   0  0  1  0  0  0  0  0  0  0  0  0
   25.2270  -17.5207  -14.4076 C   0  0  0  0  0  0  0  0  0  0  0  0
   25.6188  -18.9909  -13.4653 S   0  0  0  0  0  0  0  0  0  0  0  0
   26.3404  -18.4556  -16.3215 C   0  0  0  0  0  0  0  0  0  0  0  0
   26.9939  -19.4268  -15.8847 O   0  0  0  0  0  0  0  0  0  0  0  0
   25.7197  -18.5614  -17.5463 O   0  0  0  0  0  0  0  0  0  0  0  0
  2 13  1  0
  2  1  1  6
  3  2  1  0
  4  3  1  0
  4 12  1  0
  5  6  1  0
  5  4  2  0
  6  7  1  0
  7 12  2  0
  7  8  1  0
  8  9  2  0
  9 10  1  0
 11 10  2  0
 12 11  1  0
 13 19  1  0
 14 13  2  0
 16 15  1  6
 16 17  1  0
 18 16  1  0
 18 19  1  6
 20 18  1  0
 21 20  2  0
 22 20  1  0
 23 22  1  0
 23 26  1  0
 24 25  1  0
 23 24  1  1
 26 28  1  0
 27 26  2  0
M  END
$$$$
