KVY.pdb
     RDKit          3D

 29 29  0  0  1  0  0  0  0  0999 V2000
    8.0471  -18.8639   19.1606 N   0  0  0  0  0  0  0  0  0  0  0  0
    9.3945  -18.4971   19.4816 C   0  0  1  0  0  0  0  0  0  0  0  0
   10.3632  -18.7402   18.3476 C   0  0  0  0  0  0  0  0  0  0  0  0
   10.0047  -19.8643   17.4525 C   0  0  0  0  0  0  0  0  0  0  0  0
    9.8270  -19.5714   16.0087 C   0  0  0  0  0  0  0  0  0  0  0  0
    9.4296  -20.7156   15.1444 C   0  0  0  0  0  0  0  0  0  0  0  0
   10.3583  -21.7816   15.0454 N   0  0  0  0  0  0  0  0  0  0  0  0
    9.4975  -17.0551   19.8407 C   0  0  0  0  0  0  0  0  0  0  0  0
   10.4360  -16.3753   19.3483 O   0  0  0  0  0  0  0  0  0  0  0  0
    7.5403  -12.8636   21.7072 C   0  0  0  0  0  0  0  0  0  0  0  0
    7.3805  -14.2775   21.1736 C   0  0  1  0  0  0  0  0  0  0  0  0
    6.5030  -14.3410   19.9593 C   0  0  0  0  0  0  0  0  0  0  0  0
    8.6899  -14.9749   21.0128 C   0  0  2  0  0  0  0  0  0  0  0  0
    8.6312  -16.3667   20.6919 N   0  0  0  0  0  0  0  0  0  0  0  0
    9.5196  -14.7036   22.2167 C   0  0  0  0  0  0  0  0  0  0  0  0
    9.7462  -13.5029   22.5961 O   0  0  0  0  0  0  0  0  0  0  0  0
   10.1129  -14.7841   30.7573 O   0  0  0  0  0  0  0  0  0  0  0  0
    9.8721  -14.8618   29.3897 C   0  0  0  0  0  0  0  0  0  0  0  0
    9.8819  -16.0848   28.7533 C   0  0  0  0  0  0  0  0  0  0  0  0
    9.6434  -16.1498   27.4048 C   0  0  0  0  0  0  0  0  0  0  0  0
    9.3851  -15.0177   26.6235 C   0  0  0  0  0  0  0  0  0  0  0  0
    9.1313  -15.1140   25.1713 C   0  0  0  0  0  0  0  0  0  0  0  0
   10.3800  -15.5355   24.4443 C   0  0  2  0  0  0  0  0  0  0  0  0
   10.1093  -15.7143   23.0186 N   0  0  0  0  0  0  0  0  0  0  0  0
   11.0885  -16.6781   25.0127 C   0  0  0  0  0  0  0  0  0  0  0  0
   12.0723  -16.5181   25.7590 O   0  0  0  0  0  0  0  0  0  0  0  0
    9.3782  -13.7869   27.2807 C   0  0  0  0  0  0  0  0  0  0  0  0
    9.6186  -13.7490   28.6236 C   0  0  0  0  0  0  0  0  0  0  0  0
   10.6796  -17.9711   24.7326 O   0  0  0  0  0  0  0  0  0  0  0  0
  2  1  1  6
  2  8  1  0
  2  3  1  0
  3  4  1  0
  4  5  1  0
  5  6  1  0
  6  7  1  0
  8  9  2  0
 11 10  1  6
 11 12  1  0
 13 11  1  0
 13 14  1  1
 14  8  1  0
 15 13  1  0
 16 15  2  0
 18 17  1  0
 18 19  2  0
 20 19  1  0
 21 22  1  0
 21 20  2  0
 23 22  1  1
 23 24  1  0
 24 15  1  0
 25 23  1  0
 25 29  1  0
 26 25  2  0
 27 28  2  0
 27 21  1  0
 28 18  1  0
M  END
$$$$
