KVY.pdb
     RDKit          3D

 29 29  0  0  1  0  0  0  0  0999 V2000
    6.8343  -18.3467   18.2177 N   0  0  0  0  0  0  0  0  0  0  0  0
    7.9452  -17.6887   17.5964 C   0  0  1  0  0  0  0  0  0  0  0  0
    7.6025  -17.0807   16.2561 C   0  0  0  0  0  0  0  0  0  0  0  0
    8.7698  -16.7290   15.4151 C   0  0  0  0  0  0  0  0  0  0  0  0
    9.5187  -17.8361   14.7706 C   0  0  0  0  0  0  0  0  0  0  0  0
    9.1245  -18.1800   13.3776 C   0  0  0  0  0  0  0  0  0  0  0  0
    9.6961  -19.3578   12.8346 N   0  0  0  0  0  0  0  0  0  0  0  0
    8.4764  -16.5895   18.4501 C   0  0  0  0  0  0  0  0  0  0  0  0
    9.6558  -16.1919   18.2588 O   0  0  0  0  0  0  0  0  0  0  0  0
    8.1146  -12.6576   21.3739 C   0  0  0  0  0  0  0  0  0  0  0  0
    7.5234  -13.6475   20.3839 C   0  0  1  0  0  0  0  0  0  0  0  0
    7.2714  -13.0373   19.0375 C   0  0  0  0  0  0  0  0  0  0  0  0
    8.2883  -14.9278   20.3360 C   0  0  2  0  0  0  0  0  0  0  0  0
    7.7747  -15.9405   19.4675 N   0  0  0  0  0  0  0  0  0  0  0  0
    8.4789  -15.4156   21.7277 C   0  0  0  0  0  0  0  0  0  0  0  0
    7.4898  -15.8668   22.4023 O   0  0  0  0  0  0  0  0  0  0  0  0
   12.5505  -22.5163   24.0307 O   0  0  0  0  0  0  0  0  0  0  0  0
   12.0129  -21.3428   23.5131 C   0  0  0  0  0  0  0  0  0  0  0  0
   11.8286  -21.2061   22.1536 C   0  0  0  0  0  0  0  0  0  0  0  0
   11.2979  -20.0449   21.6543 C   0  0  0  0  0  0  0  0  0  0  0  0
   10.9254  -18.9685   22.4675 C   0  0  0  0  0  0  0  0  0  0  0  0
   10.3557  -17.7269   21.9049 C   0  0  0  0  0  0  0  0  0  0  0  0
   10.3244  -16.6413   22.9469 C   0  0  2  0  0  0  0  0  0  0  0  0
    9.7266  -15.4230   22.4025 N   0  0  0  0  0  0  0  0  0  0  0  0
   11.5914  -16.3735   23.6206 C   0  0  0  0  0  0  0  0  0  0  0  0
   12.5121  -15.7675   23.0412 O   0  0  0  0  0  0  0  0  0  0  0  0
   11.1174  -19.1206   23.8411 C   0  0  0  0  0  0  0  0  0  0  0  0
   11.6474  -20.2863   24.3131 C   0  0  0  0  0  0  0  0  0  0  0  0
   11.7976  -16.7898   24.9250 O   0  0  0  0  0  0  0  0  0  0  0  0
  2  1  1  1
  2  8  1  0
  2  3  1  0
  3  4  1  0
  4  5  1  0
  5  6  1  0
  6  7  1  0
  8  9  2  0
 11 10  1  1
 11 12  1  0
 13 11  1  0
 13 14  1  6
 14  8  1  0
 15 13  1  0
 16 15  2  0
 18 17  1  0
 18 19  2  0
 20 19  1  0
 21 22  1  0
 21 20  2  0
 23 22  1  6
 23 24  1  0
 24 15  1  0
 25 23  1  0
 25 29  1  0
 26 25  2  0
 27 28  2  0
 27 21  1  0
 28 18  1  0
M  END
$$$$
