KVY.pdb
     RDKit          3D

 29 29  0  0  1  0  0  0  0  0999 V2000
    7.1003  -19.0471   18.5320 N   0  0  0  0  0  0  0  0  0  0  0  0
    6.7947  -18.4741   19.8093 C   0  0  1  0  0  0  0  0  0  0  0  0
    6.9795  -19.4422   20.9548 C   0  0  0  0  0  0  0  0  0  0  0  0
    6.1266  -20.6514   20.8919 C   0  0  0  0  0  0  0  0  0  0  0  0
    6.2721  -21.6594   21.9712 C   0  0  0  0  0  0  0  0  0  0  0  0
    5.3609  -22.8340   21.9082 C   0  0  0  0  0  0  0  0  0  0  0  0
    5.4339  -23.7457   22.9908 N   0  0  0  0  0  0  0  0  0  0  0  0
    7.6525  -17.2907   20.0967 C   0  0  0  0  0  0  0  0  0  0  0  0
    8.9011  -17.4073   19.9825 O   0  0  0  0  0  0  0  0  0  0  0  0
    8.3117  -12.4218   20.9822 C   0  0  0  0  0  0  0  0  0  0  0  0
    7.4041  -13.5595   20.5448 C   0  0  1  0  0  0  0  0  0  0  0  0
    6.8956  -13.3873   19.1446 C   0  0  0  0  0  0  0  0  0  0  0  0
    8.0045  -14.8993   20.8114 C   0  0  2  0  0  0  0  0  0  0  0  0
    7.1940  -16.0321   20.4900 N   0  0  0  0  0  0  0  0  0  0  0  0
    8.4892  -14.9276   22.2169 C   0  0  0  0  0  0  0  0  0  0  0  0
    7.6901  -14.6910   23.1877 O   0  0  0  0  0  0  0  0  0  0  0  0
   10.8154  -14.9563   30.3214 O   0  0  0  0  0  0  0  0  0  0  0  0
   10.4329  -15.1337   28.9961 C   0  0  0  0  0  0  0  0  0  0  0  0
   10.0904  -16.3874   28.5359 C   0  0  0  0  0  0  0  0  0  0  0  0
    9.7149  -16.5507   27.2276 C   0  0  0  0  0  0  0  0  0  0  0  0
    9.6594  -15.4910   26.3152 C   0  0  0  0  0  0  0  0  0  0  0  0
    9.2516  -15.6929   24.9096 C   0  0  0  0  0  0  0  0  0  0  0  0
   10.2951  -15.1448   23.9736 C   0  0  2  0  0  0  0  0  0  0  0  0
    9.8287  -15.2089   22.5893 N   0  0  0  0  0  0  0  0  0  0  0  0
   11.6360  -15.7018   24.1240 C   0  0  0  0  0  0  0  0  0  0  0  0
   12.0853  -16.5259   23.3058 O   0  0  0  0  0  0  0  0  0  0  0  0
   10.0085  -14.2279   26.7945 C   0  0  0  0  0  0  0  0  0  0  0  0
   10.3788  -14.0918   28.1010 C   0  0  0  0  0  0  0  0  0  0  0  0
   12.4410  -15.3237   25.1854 O   0  0  0  0  0  0  0  0  0  0  0  0
  2  1  1  6
  2  8  1  0
  2  3  1  0
  3  4  1  0
  4  5  1  0
  5  6  1  0
  6  7  1  0
  8  9  2  0
 11 10  1  6
 11 12  1  0
 13 11  1  0
 13 14  1  1
 14  8  1  0
 15 13  1  0
 16 15  2  0
 18 17  1  0
 18 19  2  0
 20 19  1  0
 21 22  1  0
 21 20  2  0
 23 22  1  1
 23 24  1  0
 24 15  1  0
 25 23  1  0
 25 29  1  0
 26 25  2  0
 27 28  2  0
 27 21  1  0
 28 18  1  0
M  END
$$$$
