KVY.pdb
     RDKit          3D

 29 29  0  0  1  0  0  0  0  0999 V2000
    8.2921  -15.4729   20.6337 N   0  0  0  0  0  0  0  0  0  0  0  0
    7.2892  -15.5219   21.6559 C   0  0  1  0  0  0  0  0  0  0  0  0
    6.7036  -16.9016   21.8487 C   0  0  0  0  0  0  0  0  0  0  0  0
    6.4158  -17.6366   20.5955 C   0  0  0  0  0  0  0  0  0  0  0  0
    5.8321  -18.9962   20.7076 C   0  0  0  0  0  0  0  0  0  0  0  0
    5.5074  -19.6855   19.4295 C   0  0  0  0  0  0  0  0  0  0  0  0
    6.2577  -20.8513   19.1352 N   0  0  0  0  0  0  0  0  0  0  0  0
    7.8315  -15.0909   22.9747 C   0  0  0  0  0  0  0  0  0  0  0  0
    9.0279  -15.3659   23.2551 O   0  0  0  0  0  0  0  0  0  0  0  0
    7.3245  -12.8078   27.4122 C   0  0  0  0  0  0  0  0  0  0  0  0
    6.8504  -12.9829   25.9789 C   0  0  1  0  0  0  0  0  0  0  0  0
    6.7837  -11.6854   25.2300 C   0  0  0  0  0  0  0  0  0  0  0  0
    7.5951  -14.0592   25.2622 C   0  0  2  0  0  0  0  0  0  0  0  0
    7.1234  -14.3931   23.9547 N   0  0  0  0  0  0  0  0  0  0  0  0
    7.6842  -15.2454   26.1545 C   0  0  0  0  0  0  0  0  0  0  0  0
    6.6567  -15.9756   26.3739 O   0  0  0  0  0  0  0  0  0  0  0  0
   12.7532  -19.2656   22.9994 O   0  0  0  0  0  0  0  0  0  0  0  0
   11.7364  -18.9742   23.9024 C   0  0  0  0  0  0  0  0  0  0  0  0
   10.4417  -18.8095   23.4580 C   0  0  0  0  0  0  0  0  0  0  0  0
    9.4472  -18.5224   24.3568 C   0  0  0  0  0  0  0  0  0  0  0  0
    9.6807  -18.3848   25.7299 C   0  0  0  0  0  0  0  0  0  0  0  0
    8.5915  -18.0746   26.6787 C   0  0  0  0  0  0  0  0  0  0  0  0
    8.9709  -16.9116   27.5555 C   0  0  2  0  0  0  0  0  0  0  0  0
    8.8710  -15.6550   26.8145 N   0  0  0  0  0  0  0  0  0  0  0  0
   10.2475  -17.0341   28.2526 C   0  0  0  0  0  0  0  0  0  0  0  0
   11.1687  -16.2199   28.0550 O   0  0  0  0  0  0  0  0  0  0  0  0
   10.9954  -18.5541   26.1655 C   0  0  0  0  0  0  0  0  0  0  0  0
   11.9672  -18.8393   25.2508 C   0  0  0  0  0  0  0  0  0  0  0  0
   10.4625  -18.0638   29.1532 O   0  0  0  0  0  0  0  0  0  0  0  0
  2  1  1  6
  2  8  1  0
  2  3  1  0
  3  4  1  0
  4  5  1  0
  5  6  1  0
  6  7  1  0
  8  9  2  0
 11 10  1  1
 11 12  1  0
 13 11  1  0
 13 14  1  6
 14  8  1  0
 15 13  1  0
 16 15  2  0
 18 17  1  0
 18 19  2  0
 20 19  1  0
 21 22  1  0
 21 20  2  0
 23 22  1  6
 23 24  1  0
 24 15  1  0
 25 23  1  0
 25 29  1  0
 26 25  2  0
 27 28  2  0
 27 21  1  0
 28 18  1  0
M  END
$$$$
