KVY.pdb
     RDKit          3D

 29 29  0  0  1  0  0  0  0  0999 V2000
    7.5806  -18.7335   18.2225 N   0  0  0  0  0  0  0  0  0  0  0  0
    7.4738  -18.4531   19.6236 C   0  0  1  0  0  0  0  0  0  0  0  0
    8.0992  -19.5192   20.4928 C   0  0  0  0  0  0  0  0  0  0  0  0
    8.1686  -20.8640   19.8760 C   0  0  0  0  0  0  0  0  0  0  0  0
    8.7562  -21.9652   20.6784 C   0  0  0  0  0  0  0  0  0  0  0  0
    8.9365  -23.2684   19.9833 C   0  0  0  0  0  0  0  0  0  0  0  0
    9.4621  -24.3296   20.7620 N   0  0  0  0  0  0  0  0  0  0  0  0
    8.1321  -17.1637   19.9745 C   0  0  0  0  0  0  0  0  0  0  0  0
    9.3807  -17.0674   19.8434 O   0  0  0  0  0  0  0  0  0  0  0  0
    8.0213  -12.2955   21.0339 C   0  0  0  0  0  0  0  0  0  0  0  0
    7.3151  -13.5475   20.5404 C   0  0  1  0  0  0  0  0  0  0  0  0
    6.8437  -13.4239   19.1222 C   0  0  0  0  0  0  0  0  0  0  0  0
    8.1005  -14.7867   20.8126 C   0  0  2  0  0  0  0  0  0  0  0  0
    7.4815  -16.0222   20.4464 N   0  0  0  0  0  0  0  0  0  0  0  0
    8.5335  -14.7677   22.2350 C   0  0  0  0  0  0  0  0  0  0  0  0
    7.8116  -14.2059   23.1296 O   0  0  0  0  0  0  0  0  0  0  0  0
   10.7202  -15.0836   30.4400 O   0  0  0  0  0  0  0  0  0  0  0  0
   10.3057  -15.1857   29.1164 C   0  0  0  0  0  0  0  0  0  0  0  0
   10.1754  -16.4243   28.5251 C   0  0  0  0  0  0  0  0  0  0  0  0
    9.7661  -16.5133   27.2197 C   0  0  0  0  0  0  0  0  0  0  0  0
    9.4673  -15.3908   26.4390 C   0  0  0  0  0  0  0  0  0  0  0  0
    9.0282  -15.5130   25.0337 C   0  0  0  0  0  0  0  0  0  0  0  0
   10.1760  -15.2460   24.0973 C   0  0  2  0  0  0  0  0  0  0  0  0
    9.7388  -15.3488   22.7058 N   0  0  0  0  0  0  0  0  0  0  0  0
   11.3893  -16.0183   24.3466 C   0  0  0  0  0  0  0  0  0  0  0  0
   11.5974  -17.0963   23.7591 O   0  0  0  0  0  0  0  0  0  0  0  0
    9.6035  -14.1439   27.0502 C   0  0  0  0  0  0  0  0  0  0  0  0
   10.0125  -14.0822   28.3508 C   0  0  0  0  0  0  0  0  0  0  0  0
   12.3398  -15.5661   25.2463 O   0  0  0  0  0  0  0  0  0  0  0  0
  2  1  1  6
  2  8  1  0
  2  3  1  0
  3  4  1  0
  4  5  1  0
  5  6  1  0
  6  7  1  0
  8  9  2  0
 11 10  1  6
 11 12  1  0
 13 11  1  0
 13 14  1  1
 14  8  1  0
 15 13  1  0
 16 15  2  0
 18 17  1  0
 18 19  2  0
 20 19  1  0
 21 22  1  0
 21 20  2  0
 23 22  1  1
 23 24  1  0
 24 15  1  0
 25 23  1  0
 25 29  1  0
 26 25  2  0
 27 28  2  0
 27 21  1  0
 28 18  1  0
M  END
$$$$
