KVY.pdb
     RDKit          3D

 29 29  0  0  1  0  0  0  0  0999 V2000
   10.4575  -17.9752   17.4245 N   0  0  0  0  0  0  0  0  0  0  0  0
    9.5217  -18.0115   18.5091 C   0  0  1  0  0  0  0  0  0  0  0  0
    9.7339  -19.1838   19.4386 C   0  0  0  0  0  0  0  0  0  0  0  0
    9.6681  -20.5133   18.7891 C   0  0  0  0  0  0  0  0  0  0  0  0
    9.7787  -21.7138   19.6543 C   0  0  0  0  0  0  0  0  0  0  0  0
    8.9624  -21.7116   20.8984 C   0  0  0  0  0  0  0  0  0  0  0  0
    7.6099  -22.1136   20.7642 N   0  0  0  0  0  0  0  0  0  0  0  0
    9.6000  -16.7774   19.3398 C   0  0  0  0  0  0  0  0  0  0  0  0
   10.6890  -16.1468   19.3839 O   0  0  0  0  0  0  0  0  0  0  0  0
    7.4660  -13.0339   21.8390 C   0  0  0  0  0  0  0  0  0  0  0  0
    7.3804  -14.1894   20.8556 C   0  0  1  0  0  0  0  0  0  0  0  0
    6.9619  -13.7510   19.4840 C   0  0  0  0  0  0  0  0  0  0  0  0
    8.6055  -15.0411   20.8726 C   0  0  2  0  0  0  0  0  0  0  0  0
    8.5556  -16.2384   20.0930 N   0  0  0  0  0  0  0  0  0  0  0  0
    8.9804  -15.2998   22.2881 C   0  0  0  0  0  0  0  0  0  0  0  0
    8.3040  -16.1169   23.0035 O   0  0  0  0  0  0  0  0  0  0  0  0
   10.5280  -15.5982   30.6749 O   0  0  0  0  0  0  0  0  0  0  0  0
   10.2153  -15.3452   29.3435 C   0  0  0  0  0  0  0  0  0  0  0  0
    9.8329  -16.3777   28.5137 C   0  0  0  0  0  0  0  0  0  0  0  0
    9.5270  -16.1170   27.2030 C   0  0  0  0  0  0  0  0  0  0  0  0
    9.5833  -14.8322   26.6508 C   0  0  0  0  0  0  0  0  0  0  0  0
    9.2490  -14.5770   25.2346 C   0  0  0  0  0  0  0  0  0  0  0  0
   10.4071  -14.9417   24.3451 C   0  0  2  0  0  0  0  0  0  0  0  0
   10.0790  -14.6865   22.9432 N   0  0  0  0  0  0  0  0  0  0  0  0
   10.9600  -16.2783   24.5415 C   0  0  0  0  0  0  0  0  0  0  0  0
   10.2759  -17.2956   24.3233 O   0  0  0  0  0  0  0  0  0  0  0  0
    9.9718  -13.7971   27.5020 C   0  0  0  0  0  0  0  0  0  0  0  0
   10.2710  -14.0828   28.8025 C   0  0  0  0  0  0  0  0  0  0  0  0
   12.2640  -16.4443   24.9770 O   0  0  0  0  0  0  0  0  0  0  0  0
  2  1  1  6
  2  8  1  0
  2  3  1  0
  3  4  1  0
  4  5  1  0
  5  6  1  0
  6  7  1  0
  8  9  2  0
 11 10  1  1
 11 12  1  0
 13 11  1  0
 13 14  1  1
 14  8  1  0
 15 13  1  0
 16 15  2  0
 18 17  1  0
 18 19  2  0
 20 19  1  0
 21 22  1  0
 21 20  2  0
 23 22  1  1
 23 24  1  0
 24 15  1  0
 25 23  1  0
 25 29  1  0
 26 25  2  0
 27 28  2  0
 27 21  1  0
 28 18  1  0
M  END
$$$$
