KVY.pdb
     RDKit          3D

 29 29  0  0  1  0  0  0  0  0999 V2000
    7.9985  -18.7806   19.1984 N   0  0  0  0  0  0  0  0  0  0  0  0
    9.3666  -18.4832   18.8936 C   0  0  1  0  0  0  0  0  0  0  0  0
    9.7172  -18.7182   17.4427 C   0  0  0  0  0  0  0  0  0  0  0  0
    8.9652  -19.8145   16.7899 C   0  0  0  0  0  0  0  0  0  0  0  0
    9.2289  -20.0767   15.3534 C   0  0  0  0  0  0  0  0  0  0  0  0
   10.6365  -19.9172   14.8981 C   0  0  0  0  0  0  0  0  0  0  0  0
   10.8942  -20.2104   13.5357 N   0  0  0  0  0  0  0  0  0  0  0  0
    9.6978  -17.0629   19.1971 C   0  0  0  0  0  0  0  0  0  0  0  0
   10.8594  -16.6465   18.9467 O   0  0  0  0  0  0  0  0  0  0  0  0
    8.3145  -12.4610   20.6250 C   0  0  0  0  0  0  0  0  0  0  0  0
    7.9537  -13.8186   20.0454 C   0  0  1  0  0  0  0  0  0  0  0  0
    7.2305  -13.7140   18.7359 C   0  0  0  0  0  0  0  0  0  0  0  0
    9.1165  -14.7535   20.0229 C   0  0  2  0  0  0  0  0  0  0  0  0
    8.8218  -16.1246   19.7458 N   0  0  0  0  0  0  0  0  0  0  0  0
    9.8847  -14.5809   21.2844 C   0  0  0  0  0  0  0  0  0  0  0  0
   10.6915  -13.5984   21.4280 O   0  0  0  0  0  0  0  0  0  0  0  0
    6.2882  -12.1116   28.5061 O   0  0  0  0  0  0  0  0  0  0  0  0
    6.7048  -12.6454   27.2913 C   0  0  0  0  0  0  0  0  0  0  0  0
    5.8244  -13.3675   26.5139 C   0  0  0  0  0  0  0  0  0  0  0  0
    6.2457  -13.8892   25.3182 C   0  0  0  0  0  0  0  0  0  0  0  0
    7.5486  -13.7247   24.8344 C   0  0  0  0  0  0  0  0  0  0  0  0
    7.9786  -14.2973   23.5422 C   0  0  0  0  0  0  0  0  0  0  0  0
    9.2829  -15.0321   23.6987 C   0  0  2  0  0  0  0  0  0  0  0  0
    9.7929  -15.4573   22.3960 N   0  0  0  0  0  0  0  0  0  0  0  0
    9.2822  -16.1241   24.6674 C   0  0  0  0  0  0  0  0  0  0  0  0
    9.0057  -17.2885   24.3234 O   0  0  0  0  0  0  0  0  0  0  0  0
    8.4288  -12.9918   25.6315 C   0  0  0  0  0  0  0  0  0  0  0  0
    7.9849  -12.4830   26.8174 C   0  0  0  0  0  0  0  0  0  0  0  0
    9.5906  -15.8872   25.9963 O   0  0  0  0  0  0  0  0  0  0  0  0
  2  1  1  6
  2  8  1  0
  2  3  1  0
  3  4  1  0
  4  5  1  0
  5  6  1  0
  6  7  1  0
  8  9  2  0
 11 10  1  6
 11 12  1  0
 13 11  1  0
 13 14  1  1
 14  8  1  0
 15 13  1  0
 16 15  2  0
 18 17  1  0
 18 19  2  0
 20 19  1  0
 21 22  1  0
 21 20  2  0
 23 22  1  6
 23 24  1  0
 24 15  1  0
 25 23  1  0
 25 29  1  0
 26 25  2  0
 27 28  2  0
 27 21  1  0
 28 18  1  0
M  END
$$$$
