KVY.pdb
     RDKit          3D

 29 29  0  0  1  0  0  0  0  0999 V2000
   10.8494  -18.2506   17.5142 N   0  0  0  0  0  0  0  0  0  0  0  0
    9.6149  -18.1430   18.2338 C   0  0  1  0  0  0  0  0  0  0  0  0
    9.2847  -19.3802   19.0362 C   0  0  0  0  0  0  0  0  0  0  0  0
    9.0610  -20.6031   18.2313 C   0  0  0  0  0  0  0  0  0  0  0  0
    8.6144  -21.8277   18.9404 C   0  0  0  0  0  0  0  0  0  0  0  0
    8.3949  -23.0366   18.1011 C   0  0  0  0  0  0  0  0  0  0  0  0
    7.0688  -23.2594   17.6533 N   0  0  0  0  0  0  0  0  0  0  0  0
    9.6361  -16.9985   19.1871 C   0  0  0  0  0  0  0  0  0  0  0  0
   10.6998  -16.7550   19.8155 O   0  0  0  0  0  0  0  0  0  0  0  0
    7.6854  -12.9633   21.3601 C   0  0  0  0  0  0  0  0  0  0  0  0
    7.6533  -13.9676   20.2200 C   0  0  1  0  0  0  0  0  0  0  0  0
    7.9018  -13.3332   18.8841 C   0  0  0  0  0  0  0  0  0  0  0  0
    8.5050  -15.1623   20.4919 C   0  0  2  0  0  0  0  0  0  0  0  0
    8.5630  -16.1475   19.4576 N   0  0  0  0  0  0  0  0  0  0  0  0
    8.1051  -15.7379   21.8033 C   0  0  0  0  0  0  0  0  0  0  0  0
    6.9751  -16.3216   21.9426 O   0  0  0  0  0  0  0  0  0  0  0  0
    6.2409  -11.4331   28.9340 O   0  0  0  0  0  0  0  0  0  0  0  0
    6.7636  -11.9699   27.7623 C   0  0  0  0  0  0  0  0  0  0  0  0
    6.0234  -11.9466   26.5994 C   0  0  0  0  0  0  0  0  0  0  0  0
    6.5484  -12.4786   25.4502 C   0  0  0  0  0  0  0  0  0  0  0  0
    7.8219  -13.0561   25.3930 C   0  0  0  0  0  0  0  0  0  0  0  0
    8.3654  -13.6233   24.1418 C   0  0  0  0  0  0  0  0  0  0  0  0
    8.4434  -15.1237   24.2329 C   0  0  2  0  0  0  0  0  0  0  0  0
    8.9114  -15.6918   22.9695 N   0  0  0  0  0  0  0  0  0  0  0  0
    7.2402  -15.7919   24.7193 C   0  0  0  0  0  0  0  0  0  0  0  0
    6.2541  -15.9604   23.9780 O   0  0  0  0  0  0  0  0  0  0  0  0
    8.5598  -13.0729   26.5772 C   0  0  0  0  0  0  0  0  0  0  0  0
    8.0147  -12.5369   27.7077 C   0  0  0  0  0  0  0  0  0  0  0  0
    7.1695  -16.2551   26.0224 O   0  0  0  0  0  0  0  0  0  0  0  0
  2  1  1  1
  2  8  1  0
  2  3  1  0
  3  4  1  0
  4  5  1  0
  5  6  1  0
  6  7  1  0
  8  9  2  0
 11 10  1  1
 11 12  1  0
 13 11  1  0
 13 14  1  6
 14  8  1  0
 15 13  1  0
 16 15  2  0
 18 17  1  0
 18 19  2  0
 20 19  1  0
 21 22  1  0
 21 20  2  0
 23 22  1  6
 23 24  1  0
 24 15  1  0
 25 23  1  0
 25 29  1  0
 26 25  2  0
 27 28  2  0
 27 21  1  0
 28 18  1  0
M  END
$$$$
