KVY.pdb
     RDKit          3D

 29 29  0  0  1  0  0  0  0  0999 V2000
    9.1364  -16.5132   20.4408 N   0  0  0  0  0  0  0  0  0  0  0  0
    8.6685  -15.3607   21.1521 C   0  0  1  0  0  0  0  0  0  0  0  0
    7.9514  -14.3670   20.2680 C   0  0  0  0  0  0  0  0  0  0  0  0
    8.4248  -14.3264   18.8652 C   0  0  0  0  0  0  0  0  0  0  0  0
    7.7139  -13.4311   17.9192 C   0  0  0  0  0  0  0  0  0  0  0  0
    8.2785  -13.3357   16.5458 C   0  0  0  0  0  0  0  0  0  0  0  0
    7.5481  -12.5514   15.6183 N   0  0  0  0  0  0  0  0  0  0  0  0
    7.7232  -15.7367   22.2403 C   0  0  0  0  0  0  0  0  0  0  0  0
    6.5163  -15.9445   21.9474 O   0  0  0  0  0  0  0  0  0  0  0  0
    7.0175  -19.2002   25.1517 C   0  0  0  0  0  0  0  0  0  0  0  0
    7.4954  -18.2573   24.0599 C   0  0  1  0  0  0  0  0  0  0  0  0
    6.8065  -18.4946   22.7493 C   0  0  0  0  0  0  0  0  0  0  0  0
    7.4890  -16.8311   24.4988 C   0  0  2  0  0  0  0  0  0  0  0  0
    8.0549  -15.8855   23.5882 N   0  0  0  0  0  0  0  0  0  0  0  0
    8.0990  -16.7516   25.8526 C   0  0  0  0  0  0  0  0  0  0  0  0
    7.6769  -17.4965   26.8034 O   0  0  0  0  0  0  0  0  0  0  0  0
    6.2992  -10.7467   25.5313 O   0  0  0  0  0  0  0  0  0  0  0  0
    6.8907  -11.7871   26.2397 C   0  0  0  0  0  0  0  0  0  0  0  0
    6.1378  -12.8729   26.6333 C   0  0  0  0  0  0  0  0  0  0  0  0
    6.7310  -13.8929   27.3311 C   0  0  0  0  0  0  0  0  0  0  0  0
    8.0883  -13.8909   27.6726 C   0  0  0  0  0  0  0  0  0  0  0  0
    8.7044  -15.0026   28.4258 C   0  0  0  0  0  0  0  0  0  0  0  0
    9.6778  -15.7530   27.5570 C   0  0  2  0  0  0  0  0  0  0  0  0
    9.1616  -15.8764   26.1945 N   0  0  0  0  0  0  0  0  0  0  0  0
   10.1396  -17.0336   28.0836 C   0  0  0  0  0  0  0  0  0  0  0  0
   10.6343  -17.1195   29.2231 O   0  0  0  0  0  0  0  0  0  0  0  0
    8.8382  -12.7860   27.2679 C   0  0  0  0  0  0  0  0  0  0  0  0
    8.2240  -11.7838   26.5744 C   0  0  0  0  0  0  0  0  0  0  0  0
   10.0370  -18.1864   27.3233 O   0  0  0  0  0  0  0  0  0  0  0  0
  2  1  1  6
  2  8  1  0
  2  3  1  0
  3  4  1  0
  4  5  1  0
  5  6  1  0
  6  7  1  0
  8  9  2  0
 11 10  1  1
 11 12  1  0
 13 11  1  0
 13 14  1  6
 14  8  1  0
 15 13  1  0
 16 15  2  0
 18 17  1  0
 18 19  2  0
 20 19  1  0
 21 22  1  0
 21 20  2  0
 23 22  1  1
 23 24  1  0
 24 15  1  0
 25 23  1  0
 25 29  1  0
 26 25  2  0
 27 28  2  0
 27 21  1  0
 28 18  1  0
M  END
$$$$
