KVY.pdb
     RDKit          3D

 29 29  0  0  1  0  0  0  0  0999 V2000
    9.7716  -18.6155   18.1766 N   0  0  0  0  0  0  0  0  0  0  0  0
    8.6784  -18.1912   19.0001 C   0  0  1  0  0  0  0  0  0  0  0  0
    8.2513  -19.2352   20.0056 C   0  0  0  0  0  0  0  0  0  0  0  0
    7.8533  -20.5366   19.4213 C   0  0  0  0  0  0  0  0  0  0  0  0
    6.4037  -20.8125   19.2658 C   0  0  0  0  0  0  0  0  0  0  0  0
    6.0378  -22.1491   18.7239 C   0  0  0  0  0  0  0  0  0  0  0  0
    6.3739  -23.2673   19.5274 N   0  0  0  0  0  0  0  0  0  0  0  0
    9.0181  -16.9606   19.7677 C   0  0  0  0  0  0  0  0  0  0  0  0
   10.1773  -16.8476   20.2463 O   0  0  0  0  0  0  0  0  0  0  0  0
    7.8288  -12.4893   21.6972 C   0  0  0  0  0  0  0  0  0  0  0  0
    7.5460  -13.5791   20.6765 C   0  0  1  0  0  0  0  0  0  0  0  0
    7.5396  -13.0641   19.2682 C   0  0  0  0  0  0  0  0  0  0  0  0
    8.4050  -14.7825   20.8782 C   0  0  2  0  0  0  0  0  0  0  0  0
    8.1533  -15.8926   20.0135 N   0  0  0  0  0  0  0  0  0  0  0  0
    8.3581  -15.1597   22.3158 C   0  0  0  0  0  0  0  0  0  0  0  0
    7.2789  -15.6059   22.8386 O   0  0  0  0  0  0  0  0  0  0  0  0
   12.8339  -20.6758   23.0850 O   0  0  0  0  0  0  0  0  0  0  0  0
   11.8610  -19.7583   23.4670 C   0  0  0  0  0  0  0  0  0  0  0  0
   12.0402  -18.9889   24.5970 C   0  0  0  0  0  0  0  0  0  0  0  0
   11.0747  -18.0877   24.9643 C   0  0  0  0  0  0  0  0  0  0  0  0
    9.8923  -17.9030   24.2386 C   0  0  0  0  0  0  0  0  0  0  0  0
    8.8664  -16.9251   24.6555 C   0  0  0  0  0  0  0  0  0  0  0  0
    9.4130  -15.5244   24.5849 C   0  0  2  0  0  0  0  0  0  0  0  0
    9.4639  -15.0616   23.1988 N   0  0  0  0  0  0  0  0  0  0  0  0
   10.6765  -15.3020   25.2812 C   0  0  0  0  0  0  0  0  0  0  0  0
   10.7968  -15.5606   26.4933 O   0  0  0  0  0  0  0  0  0  0  0  0
    9.7243  -18.6881   23.0975 C   0  0  0  0  0  0  0  0  0  0  0  0
   10.7001  -19.5779   22.7532 C   0  0  0  0  0  0  0  0  0  0  0  0
   11.7740  -14.7961   24.6052 O   0  0  0  0  0  0  0  0  0  0  0  0
  2  1  1  1
  2  8  1  0
  2  3  1  0
  3  4  1  0
  4  5  1  0
  5  6  1  0
  6  7  1  0
  8  9  2  0
 11 10  1  1
 11 12  1  0
 13 11  1  0
 13 14  1  6
 14  8  1  0
 15 13  1  0
 16 15  2  0
 18 17  1  0
 18 19  2  0
 20 19  1  0
 21 22  1  0
 21 20  2  0
 23 22  1  6
 23 24  1  0
 24 15  1  0
 25 23  1  0
 25 29  1  0
 26 25  2  0
 27 28  2  0
 27 21  1  0
 28 18  1  0
M  END
$$$$
