KVY.pdb
     RDKit          3D

 29 29  0  0  1  0  0  0  0  0999 V2000
    9.7999  -17.1603   15.6556 N   0  0  0  0  0  0  0  0  0  0  0  0
    8.7109  -17.1034   16.5852 C   0  0  1  0  0  0  0  0  0  0  0  0
    8.2217  -18.4678   17.0123 C   0  0  0  0  0  0  0  0  0  0  0  0
    7.6607  -19.2978   15.9214 C   0  0  0  0  0  0  0  0  0  0  0  0
    6.8375  -18.6213   14.8887 C   0  0  0  0  0  0  0  0  0  0  0  0
    6.2674  -19.4888   13.8226 C   0  0  0  0  0  0  0  0  0  0  0  0
    4.9169  -19.8851   13.9892 N   0  0  0  0  0  0  0  0  0  0  0  0
    9.0884  -16.3685   17.8247 C   0  0  0  0  0  0  0  0  0  0  0  0
   10.2224  -16.5787   18.3302 O   0  0  0  0  0  0  0  0  0  0  0  0
    8.0126  -13.1627   21.5362 C   0  0  0  0  0  0  0  0  0  0  0  0
    7.6287  -13.7520   20.1890 C   0  0  1  0  0  0  0  0  0  0  0  0
    7.2943  -12.7011   19.1729 C   0  0  0  0  0  0  0  0  0  0  0  0
    8.6140  -14.7657   19.7114 C   0  0  2  0  0  0  0  0  0  0  0  0
    8.2859  -15.4450   18.4971 N   0  0  0  0  0  0  0  0  0  0  0  0
    8.9033  -15.7046   20.8276 C   0  0  0  0  0  0  0  0  0  0  0  0
    8.1553  -16.7217   21.0354 O   0  0  0  0  0  0  0  0  0  0  0  0
   12.3808  -22.0796   25.2767 O   0  0  0  0  0  0  0  0  0  0  0  0
   11.9369  -21.0633   24.4376 C   0  0  0  0  0  0  0  0  0  0  0  0
   12.8455  -20.2618   23.7797 C   0  0  0  0  0  0  0  0  0  0  0  0
   12.3968  -19.2629   22.9549 C   0  0  0  0  0  0  0  0  0  0  0  0
   11.0375  -19.0079   22.7405 C   0  0  0  0  0  0  0  0  0  0  0  0
   10.5790  -17.9247   21.8467 C   0  0  0  0  0  0  0  0  0  0  0  0
   10.4365  -16.6354   22.6102 C   0  0  2  0  0  0  0  0  0  0  0  0
    9.9925  -15.5599   21.7247 N   0  0  0  0  0  0  0  0  0  0  0  0
   11.5927  -16.2419   23.4096 C   0  0  0  0  0  0  0  0  0  0  0  0
   12.5139  -15.5639   22.9175 O   0  0  0  0  0  0  0  0  0  0  0  0
   10.1292  -19.8266   23.4126 C   0  0  0  0  0  0  0  0  0  0  0  0
   10.6014  -20.8140   24.2279 C   0  0  0  0  0  0  0  0  0  0  0  0
   11.6902  -16.6161   24.7393 O   0  0  0  0  0  0  0  0  0  0  0  0
  2  1  1  6
  2  8  1  0
  2  3  1  0
  3  4  1  0
  4  5  1  0
  5  6  1  0
  6  7  1  0
  8  9  2  0
 11 10  1  1
 11 12  1  0
 13 11  1  0
 13 14  1  6
 14  8  1  0
 15 13  1  0
 16 15  2  0
 18 17  1  0
 18 19  2  0
 20 19  1  0
 21 22  1  0
 21 20  2  0
 23 22  1  6
 23 24  1  0
 24 15  1  0
 25 23  1  0
 25 29  1  0
 26 25  2  0
 27 28  2  0
 27 21  1  0
 28 18  1  0
M  END
$$$$
