KVY.pdb
     RDKit          3D

 29 29  0  0  1  0  0  0  0  0999 V2000
    9.0145  -18.8509   18.2177 N   0  0  0  0  0  0  0  0  0  0  0  0
    8.3571  -18.4790   19.4354 C   0  0  1  0  0  0  0  0  0  0  0  0
    8.6171  -19.4429   20.5698 C   0  0  0  0  0  0  0  0  0  0  0  0
    8.0842  -20.8089   20.3607 C   0  0  0  0  0  0  0  0  0  0  0  0
    7.8394  -21.2517   18.9658 C   0  0  0  0  0  0  0  0  0  0  0  0
    7.3220  -22.6358   18.7910 C   0  0  0  0  0  0  0  0  0  0  0  0
    6.1036  -22.9398   19.4481 N   0  0  0  0  0  0  0  0  0  0  0  0
    8.7902  -17.1318   19.9008 C   0  0  0  0  0  0  0  0  0  0  0  0
   10.0211  -16.9096   20.0461 O   0  0  0  0  0  0  0  0  0  0  0  0
    7.8230  -12.3711   21.1290 C   0  0  0  0  0  0  0  0  0  0  0  0
    7.3598  -13.6687   20.4878 C   0  0  1  0  0  0  0  0  0  0  0  0
    6.9217  -13.4861   19.0654 C   0  0  0  0  0  0  0  0  0  0  0  0
    8.3372  -14.7791   20.6835 C   0  0  2  0  0  0  0  0  0  0  0  0
    7.9414  -16.0643   20.1986 N   0  0  0  0  0  0  0  0  0  0  0  0
    8.7353  -14.8099   22.1159 C   0  0  0  0  0  0  0  0  0  0  0  0
    7.8654  -14.6415   23.0388 O   0  0  0  0  0  0  0  0  0  0  0  0
   10.8831  -15.2176   30.3258 O   0  0  0  0  0  0  0  0  0  0  0  0
   10.5299  -15.3132   28.9840 C   0  0  0  0  0  0  0  0  0  0  0  0
   10.0127  -16.4904   28.4862 C   0  0  0  0  0  0  0  0  0  0  0  0
    9.6680  -16.5735   27.1620 C   0  0  0  0  0  0  0  0  0  0  0  0
    9.8159  -15.5053   26.2699 C   0  0  0  0  0  0  0  0  0  0  0  0
    9.4371  -15.6201   24.8465 C   0  0  0  0  0  0  0  0  0  0  0  0
   10.4467  -14.9237   23.9741 C   0  0  2  0  0  0  0  0  0  0  0  0
   10.0638  -15.0209   22.5663 N   0  0  0  0  0  0  0  0  0  0  0  0
   11.8392  -15.3053   24.1885 C   0  0  0  0  0  0  0  0  0  0  0  0
   12.3661  -15.2104   25.3127 O   0  0  0  0  0  0  0  0  0  0  0  0
   10.3403  -14.3204   26.7873 C   0  0  0  0  0  0  0  0  0  0  0  0
   10.6757  -14.2632   28.1089 C   0  0  0  0  0  0  0  0  0  0  0  0
   12.6080  -15.7836   23.1407 O   0  0  0  0  0  0  0  0  0  0  0  0
  2  1  1  6
  2  8  1  0
  2  3  1  0
  3  4  1  0
  4  5  1  0
  5  6  1  0
  6  7  1  0
  8  9  2  0
 11 10  1  6
 11 12  1  0
 13 11  1  0
 13 14  1  1
 14  8  1  0
 15 13  1  0
 16 15  2  0
 18 17  1  0
 18 19  2  0
 20 19  1  0
 21 22  1  0
 21 20  2  0
 23 22  1  1
 23 24  1  0
 24 15  1  0
 25 23  1  0
 25 29  1  0
 26 25  2  0
 27 28  2  0
 27 21  1  0
 28 18  1  0
M  END
$$$$
