ECF.pdb
     RDKit          3D

 27 27  0  0  1  0  0  0  0  0999 V2000
   28.3081  -21.1664  -15.1037 N   0  0  0  0  0  0  0  0  0  0  0  0
   27.9718  -20.2339  -14.0268 C   0  0  1  0  0  0  0  0  0  0  0  0
   27.3218  -19.0520  -14.6729 C   0  0  0  0  0  0  0  0  0  0  0  0
   28.2656  -18.1574  -15.4343 C   0  0  0  0  0  0  0  0  0  0  0  0
   28.3950  -18.5916  -16.8406 C   0  0  0  0  0  0  0  0  0  0  0  0
   27.4149  -19.0094  -17.5023 O   0  0  0  0  0  0  0  0  0  0  0  0
   26.9781  -20.9351  -13.1575 C   0  0  0  0  0  0  0  0  0  0  0  0
   26.2875  -21.8694  -13.6178 O   0  0  0  0  0  0  0  0  0  0  0  0
   29.6314  -18.5397  -17.4563 O   0  0  0  0  0  0  0  0  0  0  0  0
   26.7723  -20.5891  -11.8052 N   0  0  0  0  0  0  0  0  0  0  0  0
   25.6105  -21.0157  -11.1149 C   0  0  1  0  0  0  0  0  0  0  0  0
   25.5651  -20.6158   -9.6626 C   0  0  0  0  0  0  0  0  0  0  0  0
   27.1502  -20.8003   -8.8321 S   0  0  0  0  0  0  0  0  0  0  0  0
   24.3365  -20.5487  -11.7164 C   0  0  0  0  0  0  0  0  0  0  0  0
   24.3601  -19.4158  -12.2694 O   0  0  0  0  0  0  0  0  0  0  0  0
   23.1443  -21.3094  -11.6885 N   0  0  0  0  0  0  0  0  0  0  0  0
   22.0222  -20.8390  -12.4936 C   0  0  1  0  0  0  0  0  0  0  0  0
   22.4596  -20.9077  -13.9375 C   0  0  0  0  0  0  0  0  0  0  0  0
   22.7429  -22.3070  -14.3527 C   0  0  0  0  0  0  0  0  0  0  0  0
   23.9974  -22.8665  -14.2520 C   0  0  0  0  0  0  0  0  0  0  0  0
   24.2420  -24.1547  -14.6355 C   0  0  0  0  0  0  0  0  0  0  0  0
   23.2008  -24.9229  -15.1404 C   0  0  0  0  0  0  0  0  0  0  0  0
   21.9484  -24.3819  -15.2471 C   0  0  0  0  0  0  0  0  0  0  0  0
   21.7208  -23.0856  -14.8569 C   0  0  0  0  0  0  0  0  0  0  0  0
   20.7967  -21.6011  -12.2054 C   0  0  0  0  0  0  0  0  0  0  0  0
   20.8221  -22.6460  -11.5120 O   0  0  0  0  0  0  0  0  0  0  0  0
   19.5526  -21.1735  -12.7042 O   0  0  0  0  0  0  0  0  0  0  0  0
  2  1  1  6
  3  2  1  0
  4  3  1  0
  5  4  1  0
  5  6  2  0
  7  2  1  0
  7  8  2  0
  9  5  1  0
 10  7  1  0
 11 10  1  0
 11 12  1  1
 12 13  1  0
 14 11  1  0
 15 14  2  0
 16 14  1  0
 17 16  1  0
 17 18  1  6
 18 19  1  0
 19 20  2  0
 20 21  1  0
 22 21  2  0
 23 22  1  0
 24 19  1  0
 24 23  2  0
 25 27  1  0
 25 17  1  0
 26 25  2  0
M  END
$$$$
