ECF.pdb
     RDKit          3D

 27 27  0  0  1  0  0  0  0  0999 V2000
   39.0804   -6.0204  -13.9780 N   0  0  0  0  0  0  0  0  0  0  0  0
   37.8826   -6.2132  -13.1591 C   0  0  1  0  0  0  0  0  0  0  0  0
   37.1870   -7.4224  -13.6982 C   0  0  0  0  0  0  0  0  0  0  0  0
   37.5775   -7.7935  -15.1055 C   0  0  0  0  0  0  0  0  0  0  0  0
   36.8589   -9.0026  -15.5577 C   0  0  0  0  0  0  0  0  0  0  0  0
   35.9797   -9.5573  -14.8561 O   0  0  0  0  0  0  0  0  0  0  0  0
   38.3619   -6.4922  -11.7708 C   0  0  0  0  0  0  0  0  0  0  0  0
   37.5419   -6.7116  -10.8538 O   0  0  0  0  0  0  0  0  0  0  0  0
   37.1574   -9.5481  -16.7921 O   0  0  0  0  0  0  0  0  0  0  0  0
   39.7308   -6.5228  -11.4303 N   0  0  0  0  0  0  0  0  0  0  0  0
   40.1410   -6.6994  -10.0854 C   0  0  1  0  0  0  0  0  0  0  0  0
   41.6161   -6.9540   -9.9109 C   0  0  0  0  0  0  0  0  0  0  0  0
   42.1089   -7.0818   -8.1855 S   0  0  0  0  0  0  0  0  0  0  0  0
   39.8047   -5.5643   -9.1900 C   0  0  0  0  0  0  0  0  0  0  0  0
   40.0023   -4.4082   -9.6527 O   0  0  0  0  0  0  0  0  0  0  0  0
   39.2882   -5.7368   -7.8846 N   0  0  0  0  0  0  0  0  0  0  0  0
   39.0513   -4.5385   -7.0866 C   0  0  1  0  0  0  0  0  0  0  0  0
   37.5556   -4.4114   -6.9204 C   0  0  0  0  0  0  0  0  0  0  0  0
   37.0264   -5.4287   -5.9739 C   0  0  0  0  0  0  0  0  0  0  0  0
   36.8356   -5.1627   -4.6361 C   0  0  0  0  0  0  0  0  0  0  0  0
   36.3463   -6.1071   -3.7788 C   0  0  0  0  0  0  0  0  0  0  0  0
   36.0319   -7.3694   -4.2657 C   0  0  0  0  0  0  0  0  0  0  0  0
   36.2157   -7.6499   -5.5925 C   0  0  0  0  0  0  0  0  0  0  0  0
   36.7085   -6.6886   -6.4395 C   0  0  0  0  0  0  0  0  0  0  0  0
   39.7904   -4.5844   -5.8149 C   0  0  0  0  0  0  0  0  0  0  0  0
   39.7808   -3.6179   -5.0156 O   0  0  0  0  0  0  0  0  0  0  0  0
   40.5338   -5.7245   -5.4585 O   0  0  0  0  0  0  0  0  0  0  0  0
  2  1  1  6
  3  2  1  0
  4  3  1  0
  5  4  1  0
  5  6  2  0
  7  2  1  0
  7  8  2  0
  9  5  1  0
 10  7  1  0
 11 10  1  0
 11 12  1  6
 12 13  1  0
 14 11  1  0
 15 14  2  0
 16 14  1  0
 17 16  1  0
 17 18  1  1
 18 19  1  0
 19 20  2  0
 20 21  1  0
 22 21  2  0
 23 22  1  0
 24 19  1  0
 24 23  2  0
 25 27  1  0
 25 17  1  0
 26 25  2  0
M  END
$$$$
