ECF.pdb
     RDKit          3D

 27 27  0  0  1  0  0  0  0  0999 V2000
   19.0828  -10.8974  -18.9842 N   0  0  0  0  0  0  0  0  0  0  0  0
   18.6224  -10.0313  -17.8979 C   0  0  1  0  0  0  0  0  0  0  0  0
   18.8795  -10.7712  -16.6238 C   0  0  0  0  0  0  0  0  0  0  0  0
   17.6419  -11.3040  -15.9490 C   0  0  0  0  0  0  0  0  0  0  0  0
   17.7843  -12.7394  -15.6292 C   0  0  0  0  0  0  0  0  0  0  0  0
   18.8355  -13.3768  -15.8774 O   0  0  0  0  0  0  0  0  0  0  0  0
   19.4787   -8.8067  -17.9438 C   0  0  0  0  0  0  0  0  0  0  0  0
   20.6078   -8.8476  -18.4777 O   0  0  0  0  0  0  0  0  0  0  0  0
   16.7311  -13.4109  -15.0373 O   0  0  0  0  0  0  0  0  0  0  0  0
   19.0683   -7.5706  -17.4014 N   0  0  0  0  0  0  0  0  0  0  0  0
   19.8911   -6.4216  -17.5077 C   0  0  1  0  0  0  0  0  0  0  0  0
   19.4903   -5.4659  -18.6018 C   0  0  0  0  0  0  0  0  0  0  0  0
   17.7553   -4.9966  -18.5254 S   0  0  0  0  0  0  0  0  0  0  0  0
   19.9812   -5.6174  -16.2634 C   0  0  0  0  0  0  0  0  0  0  0  0
   18.9299   -5.5348  -15.5723 O   0  0  0  0  0  0  0  0  0  0  0  0
   21.1669   -4.9679  -15.8475 N   0  0  0  0  0  0  0  0  0  0  0  0
   21.1342   -4.2456  -14.5803 C   0  0  1  0  0  0  0  0  0  0  0  0
   22.1783   -4.8758  -13.6895 C   0  0  0  0  0  0  0  0  0  0  0  0
   21.8757   -6.3080  -13.4281 C   0  0  0  0  0  0  0  0  0  0  0  0
   21.0269   -6.7106  -12.4210 C   0  0  0  0  0  0  0  0  0  0  0  0
   20.7566   -8.0304  -12.1943 C   0  0  0  0  0  0  0  0  0  0  0  0
   21.3517   -8.9939  -12.9987 C   0  0  0  0  0  0  0  0  0  0  0  0
   22.1976   -8.6105  -14.0037 C   0  0  0  0  0  0  0  0  0  0  0  0
   22.4578   -7.2796  -14.2170 C   0  0  0  0  0  0  0  0  0  0  0  0
   21.3166   -2.7992  -14.7809 C   0  0  0  0  0  0  0  0  0  0  0  0
   21.5450   -2.3183  -15.9166 O   0  0  0  0  0  0  0  0  0  0  0  0
   21.2384   -1.9092  -13.6941 O   0  0  0  0  0  0  0  0  0  0  0  0
  2  1  1  6
  3  2  1  0
  4  3  1  0
  5  4  1  0
  5  6  2  0
  7  2  1  0
  7  8  2  0
  9  5  1  0
 10  7  1  0
 11 10  1  0
 11 12  1  6
 12 13  1  0
 14 11  1  0
 15 14  2  0
 16 14  1  0
 17 16  1  0
 17 18  1  1
 18 19  1  0
 19 20  2  0
 20 21  1  0
 22 21  2  0
 23 22  1  0
 24 19  1  0
 24 23  2  0
 25 27  1  0
 25 17  1  0
 26 25  2  0
M  END
$$$$
