ECF.pdb
     RDKit          3D

 27 27  0  0  1  0  0  0  0  0999 V2000
   21.1969  -13.9044  -21.1096 N   0  0  0  0  0  0  0  0  0  0  0  0
   22.1282  -13.4500  -20.0759 C   0  0  1  0  0  0  0  0  0  0  0  0
   23.5056  -13.6816  -20.6107 C   0  0  0  0  0  0  0  0  0  0  0  0
   24.0757  -15.0422  -20.3030 C   0  0  0  0  0  0  0  0  0  0  0  0
   24.7676  -15.0483  -18.9977 C   0  0  0  0  0  0  0  0  0  0  0  0
   25.6991  -14.2513  -18.7329 O   0  0  0  0  0  0  0  0  0  0  0  0
   21.8966  -11.9818  -19.9163 C   0  0  0  0  0  0  0  0  0  0  0  0
   21.7394  -11.2562  -20.9216 O   0  0  0  0  0  0  0  0  0  0  0  0
   24.3839  -15.9576  -18.0300 O   0  0  0  0  0  0  0  0  0  0  0  0
   21.8436  -11.3526  -18.6545 N   0  0  0  0  0  0  0  0  0  0  0  0
   21.5461   -9.9715  -18.5434 C   0  0  1  0  0  0  0  0  0  0  0  0
   20.1499   -9.5975  -18.9696 C   0  0  0  0  0  0  0  0  0  0  0  0
   18.8755  -10.3811  -17.9705 S   0  0  0  0  0  0  0  0  0  0  0  0
   21.7294   -9.4149  -17.1797 C   0  0  0  0  0  0  0  0  0  0  0  0
   21.3567  -10.1451  -16.2218 O   0  0  0  0  0  0  0  0  0  0  0  0
   22.2892   -8.1393  -16.9347 N   0  0  0  0  0  0  0  0  0  0  0  0
   22.4514   -7.7269  -15.5446 C   0  0  1  0  0  0  0  0  0  0  0  0
   23.8907   -7.3001  -15.3792 C   0  0  0  0  0  0  0  0  0  0  0  0
   24.8261   -8.4104  -15.7000 C   0  0  0  0  0  0  0  0  0  0  0  0
   25.5846   -8.4270  -16.8494 C   0  0  0  0  0  0  0  0  0  0  0  0
   26.4418   -9.4532  -17.1295 C   0  0  0  0  0  0  0  0  0  0  0  0
   26.5536  -10.5089  -16.2339 C   0  0  0  0  0  0  0  0  0  0  0  0
   25.8069  -10.5078  -15.0872 C   0  0  0  0  0  0  0  0  0  0  0  0
   24.9506   -9.4682  -14.8220 C   0  0  0  0  0  0  0  0  0  0  0  0
   21.4759   -6.6892  -15.1742 C   0  0  0  0  0  0  0  0  0  0  0  0
   20.7623   -6.1224  -16.0361 O   0  0  0  0  0  0  0  0  0  0  0  0
   21.3162   -6.3020  -13.8311 O   0  0  0  0  0  0  0  0  0  0  0  0
  2  1  1  6
  3  2  1  0
  4  3  1  0
  5  4  1  0
  5  6  2  0
  7  2  1  0
  7  8  2  0
  9  5  1  0
 10  7  1  0
 11 10  1  0
 11 12  1  1
 12 13  1  0
 14 11  1  0
 15 14  2  0
 16 14  1  0
 17 16  1  0
 17 18  1  6
 18 19  1  0
 19 20  2  0
 20 21  1  0
 22 21  2  0
 23 22  1  0
 24 19  1  0
 24 23  2  0
 25 27  1  0
 25 17  1  0
 26 25  2  0
M  END
$$$$
