ECF.pdb
     RDKit          3D

 27 27  0  0  1  0  0  0  0  0999 V2000
   26.3476  -20.3309  -15.6169 N   0  0  0  0  0  0  0  0  0  0  0  0
   25.5677  -21.2252  -14.7602 C   0  0  1  0  0  0  0  0  0  0  0  0
   26.2856  -22.5372  -14.7468 C   0  0  0  0  0  0  0  0  0  0  0  0
   26.0453  -23.3943  -15.9626 C   0  0  0  0  0  0  0  0  0  0  0  0
   25.5752  -24.7420  -15.5812 C   0  0  0  0  0  0  0  0  0  0  0  0
   26.2692  -25.7691  -15.7719 O   0  0  0  0  0  0  0  0  0  0  0  0
   25.5971  -20.6277  -13.3901 C   0  0  0  0  0  0  0  0  0  0  0  0
   26.5269  -19.8621  -13.0570 O   0  0  0  0  0  0  0  0  0  0  0  0
   24.3320  -24.8868  -14.9946 O   0  0  0  0  0  0  0  0  0  0  0  0
   24.6019  -20.8887  -12.4247 N   0  0  0  0  0  0  0  0  0  0  0  0
   24.6071  -20.2178  -11.1764 C   0  0  1  0  0  0  0  0  0  0  0  0
   23.2391  -19.9747  -10.5926 C   0  0  0  0  0  0  0  0  0  0  0  0
   22.0976  -19.2250  -11.7635 S   0  0  0  0  0  0  0  0  0  0  0  0
   25.3966  -20.8990  -10.1200 C   0  0  0  0  0  0  0  0  0  0  0  0
   25.3517  -22.1590  -10.1117 O   0  0  0  0  0  0  0  0  0  0  0  0
   26.1679  -20.2016   -9.1612 N   0  0  0  0  0  0  0  0  0  0  0  0
   26.7866  -20.9805   -8.0938 C   0  0  1  0  0  0  0  0  0  0  0  0
   28.1668  -20.4071   -7.8764 C   0  0  0  0  0  0  0  0  0  0  0  0
   28.3346  -19.9093   -6.4854 C   0  0  0  0  0  0  0  0  0  0  0  0
   29.0079  -20.6265   -5.5215 C   0  0  0  0  0  0  0  0  0  0  0  0
   29.1561  -20.1550   -4.2480 C   0  0  0  0  0  0  0  0  0  0  0  0
   28.6149  -18.9204   -3.9131 C   0  0  0  0  0  0  0  0  0  0  0  0
   27.9428  -18.1951   -4.8591 C   0  0  0  0  0  0  0  0  0  0  0  0
   27.8035  -18.6846   -6.1340 C   0  0  0  0  0  0  0  0  0  0  0  0
   25.9496  -20.9941   -6.8835 C   0  0  0  0  0  0  0  0  0  0  0  0
   25.0684  -20.1236   -6.6857 O   0  0  0  0  0  0  0  0  0  0  0  0
   26.1168  -21.9935   -5.9074 O   0  0  0  0  0  0  0  0  0  0  0  0
  2  1  1  6
  3  2  1  0
  4  3  1  0
  5  4  1  0
  5  6  2  0
  7  2  1  0
  7  8  2  0
  9  5  1  0
 10  7  1  0
 11 10  1  0
 11 12  1  1
 12 13  1  0
 14 11  1  0
 15 14  2  0
 16 14  1  0
 17 16  1  0
 17 18  1  1
 18 19  1  0
 19 20  2  0
 20 21  1  0
 22 21  2  0
 23 22  1  0
 24 19  1  0
 24 23  2  0
 25 27  1  0
 25 17  1  0
 26 25  2  0
M  END
$$$$
