ECF.pdb
     RDKit          3D

 27 27  0  0  1  0  0  0  0  0999 V2000
   20.7630  -14.9965  -18.6946 N   0  0  0  0  0  0  0  0  0  0  0  0
   19.8640  -14.0035  -18.1049 C   0  0  1  0  0  0  0  0  0  0  0  0
   19.5931  -14.4514  -16.7039 C   0  0  0  0  0  0  0  0  0  0  0  0
   18.3642  -15.3095  -16.5480 C   0  0  0  0  0  0  0  0  0  0  0  0
   18.2065  -15.7676  -15.1522 C   0  0  0  0  0  0  0  0  0  0  0  0
   17.4768  -15.1632  -14.3305 O   0  0  0  0  0  0  0  0  0  0  0  0
   20.6202  -12.7142  -18.0777 C   0  0  0  0  0  0  0  0  0  0  0  0
   21.8658  -12.7168  -17.9762 O   0  0  0  0  0  0  0  0  0  0  0  0
   18.8804  -16.8974  -14.7281 O   0  0  0  0  0  0  0  0  0  0  0  0
   19.9848  -11.4574  -18.1639 N   0  0  0  0  0  0  0  0  0  0  0  0
   20.7433  -10.2609  -18.2012 C   0  0  1  0  0  0  0  0  0  0  0  0
   20.3843   -9.3292  -19.3300 C   0  0  0  0  0  0  0  0  0  0  0  0
   21.3417   -7.8062  -19.3168 S   0  0  0  0  0  0  0  0  0  0  0  0
   20.6744   -9.4548  -16.9568 C   0  0  0  0  0  0  0  0  0  0  0  0
   19.5413   -9.3614  -16.4118 O   0  0  0  0  0  0  0  0  0  0  0  0
   21.8001   -8.8149  -16.3875 N   0  0  0  0  0  0  0  0  0  0  0  0
   21.5831   -7.9903  -15.2036 C   0  0  1  0  0  0  0  0  0  0  0  0
   22.4411   -8.5688  -14.1035 C   0  0  0  0  0  0  0  0  0  0  0  0
   23.7301   -9.0849  -14.6353 C   0  0  0  0  0  0  0  0  0  0  0  0
   24.1499  -10.3794  -14.4235 C   0  0  0  0  0  0  0  0  0  0  0  0
   25.3360  -10.8401  -14.9205 C   0  0  0  0  0  0  0  0  0  0  0  0
   26.1421   -9.9833  -15.6591 C   0  0  0  0  0  0  0  0  0  0  0  0
   25.7396   -8.6940  -15.8785 C   0  0  0  0  0  0  0  0  0  0  0  0
   24.5445   -8.2481  -15.3714 C   0  0  0  0  0  0  0  0  0  0  0  0
   21.8484   -6.5698  -15.4815 C   0  0  0  0  0  0  0  0  0  0  0  0
   21.5748   -5.6757  -14.6454 O   0  0  0  0  0  0  0  0  0  0  0  0
   22.4216   -6.1733  -16.7037 O   0  0  0  0  0  0  0  0  0  0  0  0
  2  1  1  1
  3  2  1  0
  4  3  1  0
  5  4  1  0
  5  6  2  0
  7  2  1  0
  7  8  2  0
  9  5  1  0
 10  7  1  0
 11 10  1  0
 11 12  1  6
 12 13  1  0
 14 11  1  0
 15 14  2  0
 16 14  1  0
 17 16  1  0
 17 18  1  1
 18 19  1  0
 19 20  2  0
 20 21  1  0
 22 21  2  0
 23 22  1  0
 24 19  1  0
 24 23  2  0
 25 27  1  0
 25 17  1  0
 26 25  2  0
M  END
$$$$
