ECF.pdb
     RDKit          3D

 27 27  0  0  1  0  0  0  0  0999 V2000
   26.6862  -38.8021  -14.2216 N   0  0  0  0  0  0  0  0  0  0  0  0
   27.5685  -37.7320  -13.7540 C   0  0  1  0  0  0  0  0  0  0  0  0
   27.0961  -36.4728  -14.4083 C   0  0  0  0  0  0  0  0  0  0  0  0
   27.5915  -36.2762  -15.8177 C   0  0  0  0  0  0  0  0  0  0  0  0
   28.9337  -35.6586  -15.8306 C   0  0  0  0  0  0  0  0  0  0  0  0
   29.9169  -36.2116  -16.3787 O   0  0  0  0  0  0  0  0  0  0  0  0
   27.3633  -37.6325  -12.2765 C   0  0  0  0  0  0  0  0  0  0  0  0
   26.2179  -37.7491  -11.7906 O   0  0  0  0  0  0  0  0  0  0  0  0
   29.1227  -34.4322  -15.2220 O   0  0  0  0  0  0  0  0  0  0  0  0
   28.4247  -37.4082  -11.3744 N   0  0  0  0  0  0  0  0  0  0  0  0
   28.1816  -37.2803   -9.9841 C   0  0  1  0  0  0  0  0  0  0  0  0
   29.3754  -37.5732   -9.1122 C   0  0  0  0  0  0  0  0  0  0  0  0
   30.6365  -36.2928   -9.1923 S   0  0  0  0  0  0  0  0  0  0  0  0
   27.6812  -35.9451   -9.5717 C   0  0  0  0  0  0  0  0  0  0  0  0
   27.8789  -34.9983  -10.3805 O   0  0  0  0  0  0  0  0  0  0  0  0
   27.0144  -35.7148   -8.3457 N   0  0  0  0  0  0  0  0  0  0  0  0
   26.4960  -34.3736   -8.0986 C   0  0  1  0  0  0  0  0  0  0  0  0
   25.3973  -34.1357   -9.1072 C   0  0  0  0  0  0  0  0  0  0  0  0
   24.7063  -32.8422   -8.8620 C   0  0  0  0  0  0  0  0  0  0  0  0
   25.2719  -31.6301   -9.1900 C   0  0  0  0  0  0  0  0  0  0  0  0
   24.6236  -30.4496   -8.9607 C   0  0  0  0  0  0  0  0  0  0  0  0
   23.3612  -30.4688   -8.3818 C   0  0  0  0  0  0  0  0  0  0  0  0
   22.7852  -31.6649   -8.0498 C   0  0  0  0  0  0  0  0  0  0  0  0
   23.4512  -32.8414   -8.2874 C   0  0  0  0  0  0  0  0  0  0  0  0
   26.0665  -34.2122   -6.7004 C   0  0  0  0  0  0  0  0  0  0  0  0
   25.4052  -35.1001   -6.1109 O   0  0  0  0  0  0  0  0  0  0  0  0
   26.3897  -33.0470   -5.9811 O   0  0  0  0  0  0  0  0  0  0  0  0
  2  1  1  6
  3  2  1  0
  4  3  1  0
  5  4  1  0
  5  6  2  0
  7  2  1  0
  7  8  2  0
  9  5  1  0
 10  7  1  0
 11 10  1  0
 11 12  1  1
 12 13  1  0
 14 11  1  0
 15 14  2  0
 16 14  1  0
 17 16  1  0
 17 18  1  6
 18 19  1  0
 19 20  2  0
 20 21  1  0
 22 21  2  0
 23 22  1  0
 24 19  1  0
 24 23  2  0
 25 27  1  0
 25 17  1  0
 26 25  2  0
M  END
$$$$
