ECF.pdb
     RDKit          3D

 27 27  0  0  1  0  0  0  0  0999 V2000
   28.1782  -21.1160  -15.5236 N   0  0  0  0  0  0  0  0  0  0  0  0
   27.9015  -20.1883  -14.4259 C   0  0  1  0  0  0  0  0  0  0  0  0
   27.3297  -18.9527  -15.0451 C   0  0  0  0  0  0  0  0  0  0  0  0
   28.3302  -18.1038  -15.7860 C   0  0  0  0  0  0  0  0  0  0  0  0
   28.1655  -18.2381  -17.2481 C   0  0  0  0  0  0  0  0  0  0  0  0
   27.3943  -19.0861  -17.7571 O   0  0  0  0  0  0  0  0  0  0  0  0
   26.8635  -20.8433  -13.5723 C   0  0  0  0  0  0  0  0  0  0  0  0
   26.0958  -21.7000  -14.0606 O   0  0  0  0  0  0  0  0  0  0  0  0
   28.8797  -17.4076  -18.0911 O   0  0  0  0  0  0  0  0  0  0  0  0
   26.6997  -20.5380  -12.2046 N   0  0  0  0  0  0  0  0  0  0  0  0
   25.6560  -21.1275  -11.4487 C   0  0  1  0  0  0  0  0  0  0  0  0
   25.8634  -21.0820   -9.9566 C   0  0  0  0  0  0  0  0  0  0  0  0
   27.5551  -21.4521   -9.4698 S   0  0  0  0  0  0  0  0  0  0  0  0
   24.3144  -20.5451  -11.7015 C   0  0  0  0  0  0  0  0  0  0  0  0
   24.2068  -19.2983  -11.5481 O   0  0  0  0  0  0  0  0  0  0  0  0
   23.1978  -21.3191  -12.0951 N   0  0  0  0  0  0  0  0  0  0  0  0
   21.9378  -20.6209  -12.3264 C   0  0  1  0  0  0  0  0  0  0  0  0
   22.1546  -19.7055  -13.5080 C   0  0  0  0  0  0  0  0  0  0  0  0
   22.3012  -20.4758  -14.7714 C   0  0  0  0  0  0  0  0  0  0  0  0
   21.2255  -21.0414  -15.4194 C   0  0  0  0  0  0  0  0  0  0  0  0
   21.3755  -21.7446  -16.5810 C   0  0  0  0  0  0  0  0  0  0  0  0
   22.6445  -21.8949  -17.1254 C   0  0  0  0  0  0  0  0  0  0  0  0
   23.7238  -21.3392  -16.4939 C   0  0  0  0  0  0  0  0  0  0  0  0
   23.5544  -20.6359  -15.3273 C   0  0  0  0  0  0  0  0  0  0  0  0
   20.8235  -21.5659  -12.5014 C   0  0  0  0  0  0  0  0  0  0  0  0
   21.0218  -22.7985  -12.6221 O   0  0  0  0  0  0  0  0  0  0  0  0
   19.4937  -21.1076  -12.5378 O   0  0  0  0  0  0  0  0  0  0  0  0
  2  1  1  6
  3  2  1  0
  4  3  1  0
  5  4  1  0
  5  6  2  0
  7  2  1  0
  7  8  2  0
  9  5  1  0
 10  7  1  0
 11 10  1  0
 11 12  1  1
 12 13  1  0
 14 11  1  0
 15 14  2  0
 16 14  1  0
 17 16  1  0
 17 18  1  6
 18 19  1  0
 19 20  2  0
 20 21  1  0
 22 21  2  0
 23 22  1  0
 24 19  1  0
 24 23  2  0
 25 27  1  0
 25 17  1  0
 26 25  2  0
M  END
$$$$
