ECF.pdb
     RDKit          3D

 27 27  0  0  1  0  0  0  0  0999 V2000
   35.3618  -28.7608  -19.2319 N   0  0  0  0  0  0  0  0  0  0  0  0
   34.3800  -29.8274  -19.4331 C   0  0  1  0  0  0  0  0  0  0  0  0
   34.7169  -30.9077  -18.4552 C   0  0  0  0  0  0  0  0  0  0  0  0
   35.8198  -31.8330  -18.9004 C   0  0  0  0  0  0  0  0  0  0  0  0
   35.2843  -32.9603  -19.6910 C   0  0  0  0  0  0  0  0  0  0  0  0
   35.0917  -32.8757  -20.9274 O   0  0  0  0  0  0  0  0  0  0  0  0
   33.0473  -29.2433  -19.0899 C   0  0  0  0  0  0  0  0  0  0  0  0
   32.9730  -28.1200  -18.5474 O   0  0  0  0  0  0  0  0  0  0  0  0
   34.9824  -34.1511  -19.0575 O   0  0  0  0  0  0  0  0  0  0  0  0
   31.8330  -29.9114  -19.3540 N   0  0  0  0  0  0  0  0  0  0  0  0
   30.5885  -29.2952  -19.0715 C   0  0  1  0  0  0  0  0  0  0  0  0
   29.8689  -28.7581  -20.2818 C   0  0  0  0  0  0  0  0  0  0  0  0
   30.9293  -28.6235  -21.7287 S   0  0  0  0  0  0  0  0  0  0  0  0
   29.6201  -30.1701  -18.3644 C   0  0  0  0  0  0  0  0  0  0  0  0
   30.1105  -31.0874  -17.6517 O   0  0  0  0  0  0  0  0  0  0  0  0
   28.2183  -30.0091  -18.4630 N   0  0  0  0  0  0  0  0  0  0  0  0
   27.3776  -30.8883  -17.6575 C   0  0  1  0  0  0  0  0  0  0  0  0
   27.6987  -30.5970  -16.2108 C   0  0  0  0  0  0  0  0  0  0  0  0
   26.7774  -31.3197  -15.2944 C   0  0  0  0  0  0  0  0  0  0  0  0
   25.5017  -30.8740  -15.0287 C   0  0  0  0  0  0  0  0  0  0  0  0
   24.6657  -31.5502  -14.1860 C   0  0  0  0  0  0  0  0  0  0  0  0
   25.1107  -32.7179  -13.5797 C   0  0  0  0  0  0  0  0  0  0  0  0
   26.3757  -33.1744  -13.8331 C   0  0  0  0  0  0  0  0  0  0  0  0
   27.2021  -32.4819  -14.6826 C   0  0  0  0  0  0  0  0  0  0  0  0
   25.9543  -30.7294  -17.9956 C   0  0  0  0  0  0  0  0  0  0  0  0
   25.2218  -31.7199  -18.2318 O   0  0  0  0  0  0  0  0  0  0  0  0
   25.3718  -29.4505  -18.0632 O   0  0  0  0  0  0  0  0  0  0  0  0
  2  1  1  1
  3  2  1  0
  4  3  1  0
  5  4  1  0
  5  6  2  0
  7  2  1  0
  7  8  2  0
  9  5  1  0
 10  7  1  0
 11 10  1  0
 11 12  1  6
 12 13  1  0
 14 11  1  0
 15 14  2  0
 16 14  1  0
 17 16  1  0
 17 18  1  1
 18 19  1  0
 19 20  2  0
 20 21  1  0
 22 21  2  0
 23 22  1  0
 24 19  1  0
 24 23  2  0
 25 27  1  0
 25 17  1  0
 26 25  2  0
M  END
$$$$
