ECF.pdb
     RDKit          3D

 27 27  0  0  1  0  0  0  0  0999 V2000
   28.6553  -34.5432    2.7293 N   0  0  0  0  0  0  0  0  0  0  0  0
   27.7130  -34.5934    3.8481 C   0  0  1  0  0  0  0  0  0  0  0  0
   28.4787  -35.0999    5.0287 C   0  0  0  0  0  0  0  0  0  0  0  0
   28.4582  -36.5978    5.1919 C   0  0  0  0  0  0  0  0  0  0  0  0
   27.1913  -37.0511    5.8021 C   0  0  0  0  0  0  0  0  0  0  0  0
   26.5220  -37.9977    5.3237 O   0  0  0  0  0  0  0  0  0  0  0  0
   27.2838  -33.1838    4.1008 C   0  0  0  0  0  0  0  0  0  0  0  0
   28.0414  -32.2333    3.8105 O   0  0  0  0  0  0  0  0  0  0  0  0
   26.7196  -36.4184    6.9368 O   0  0  0  0  0  0  0  0  0  0  0  0
   26.0322  -32.8592    4.6653 N   0  0  0  0  0  0  0  0  0  0  0  0
   25.6281  -31.5084    4.8081 C   0  0  1  0  0  0  0  0  0  0  0  0
   25.0089  -30.9080    3.5723 C   0  0  0  0  0  0  0  0  0  0  0  0
   24.4694  -29.2084    3.8102 S   0  0  0  0  0  0  0  0  0  0  0  0
   24.6663  -31.2721    5.9137 C   0  0  0  0  0  0  0  0  0  0  0  0
   23.6367  -31.9997    5.9257 O   0  0  0  0  0  0  0  0  0  0  0  0
   24.8654  -30.2929    6.9148 N   0  0  0  0  0  0  0  0  0  0  0  0
   23.8159  -30.1236    7.9142 C   0  0  1  0  0  0  0  0  0  0  0  0
   24.4994  -30.0479    9.2589 C   0  0  0  0  0  0  0  0  0  0  0  0
   23.5106  -29.9712   10.3666 C   0  0  0  0  0  0  0  0  0  0  0  0
   22.8379  -31.0788   10.8329 C   0  0  0  0  0  0  0  0  0  0  0  0
   21.9337  -30.9931   11.8533 C   0  0  0  0  0  0  0  0  0  0  0  0
   21.6839  -29.7582   12.4381 C   0  0  0  0  0  0  0  0  0  0  0  0
   22.3438  -28.6478   11.9864 C   0  0  0  0  0  0  0  0  0  0  0  0
   23.2491  -28.7526   10.9599 C   0  0  0  0  0  0  0  0  0  0  0  0
   22.9672  -28.9603    7.6109 C   0  0  0  0  0  0  0  0  0  0  0  0
   21.8566  -28.7953    8.1700 O   0  0  0  0  0  0  0  0  0  0  0  0
   23.3831  -27.9932    6.6775 O   0  0  0  0  0  0  0  0  0  0  0  0
  2  1  1  6
  3  2  1  0
  4  3  1  0
  5  4  1  0
  5  6  2  0
  7  2  1  0
  7  8  2  0
  9  5  1  0
 10  7  1  0
 11 10  1  0
 11 12  1  6
 12 13  1  0
 14 11  1  0
 15 14  2  0
 16 14  1  0
 17 16  1  0
 17 18  1  1
 18 19  1  0
 19 20  2  0
 20 21  1  0
 22 21  2  0
 23 22  1  0
 24 19  1  0
 24 23  2  0
 25 27  1  0
 25 17  1  0
 26 25  2  0
M  END
$$$$
