ECF.pdb
     RDKit          3D

 27 27  0  0  1  0  0  0  0  0999 V2000
   27.2816  -21.0884  -18.0750 N   0  0  0  0  0  0  0  0  0  0  0  0
   27.6915  -22.1934  -17.2071 C   0  0  1  0  0  0  0  0  0  0  0  0
   29.0784  -22.5698  -17.6215 C   0  0  0  0  0  0  0  0  0  0  0  0
   29.1770  -23.1796  -18.9959 C   0  0  0  0  0  0  0  0  0  0  0  0
   27.8909  -23.7793  -19.4074 C   0  0  0  0  0  0  0  0  0  0  0  0
   27.0808  -23.1751  -20.1502 O   0  0  0  0  0  0  0  0  0  0  0  0
   27.7186  -21.6482  -15.8154 C   0  0  0  0  0  0  0  0  0  0  0  0
   28.2424  -22.3065  -14.8913 O   0  0  0  0  0  0  0  0  0  0  0  0
   27.5601  -25.0463  -18.9651 O   0  0  0  0  0  0  0  0  0  0  0  0
   27.1690  -20.3930  -15.4791 N   0  0  0  0  0  0  0  0  0  0  0  0
   27.2088  -19.9164  -14.1451 C   0  0  1  0  0  0  0  0  0  0  0  0
   27.0826  -18.4205  -14.0126 C   0  0  0  0  0  0  0  0  0  0  0  0
   27.9488  -17.5237  -15.3095 S   0  0  0  0  0  0  0  0  0  0  0  0
   26.1751  -20.5027  -13.2558 C   0  0  0  0  0  0  0  0  0  0  0  0
   25.0184  -20.6212  -13.7433 O   0  0  0  0  0  0  0  0  0  0  0  0
   26.4414  -20.9168  -11.9298 N   0  0  0  0  0  0  0  0  0  0  0  0
   25.3189  -21.4019  -11.1338 C   0  0  1  0  0  0  0  0  0  0  0  0
   25.9043  -22.1807   -9.9798 C   0  0  0  0  0  0  0  0  0  0  0  0
   26.6694  -21.2966   -9.0612 C   0  0  0  0  0  0  0  0  0  0  0  0
   28.0419  -21.3495   -8.9595 C   0  0  0  0  0  0  0  0  0  0  0  0
   28.7314  -20.5290   -8.1125 C   0  0  0  0  0  0  0  0  0  0  0  0
   28.0333  -19.6165   -7.3319 C   0  0  0  0  0  0  0  0  0  0  0  0
   26.6693  -19.5513   -7.4209 C   0  0  0  0  0  0  0  0  0  0  0  0
   25.9928  -20.3836   -8.2776 C   0  0  0  0  0  0  0  0  0  0  0  0
   24.4357  -20.2994  -10.7216 C   0  0  0  0  0  0  0  0  0  0  0  0
   23.2800  -20.5136  -10.2838 O   0  0  0  0  0  0  0  0  0  0  0  0
   24.8684  -18.9635  -10.8081 O   0  0  0  0  0  0  0  0  0  0  0  0
  2  1  1  6
  3  2  1  0
  4  3  1  0
  5  4  1  0
  5  6  2  0
  7  2  1  0
  7  8  2  0
  9  5  1  0
 10  7  1  0
 11 10  1  0
 11 12  1  6
 12 13  1  0
 14 11  1  0
 15 14  2  0
 16 14  1  0
 17 16  1  0
 17 18  1  1
 18 19  1  0
 19 20  2  0
 20 21  1  0
 22 21  2  0
 23 22  1  0
 24 19  1  0
 24 23  2  0
 25 27  1  0
 25 17  1  0
 26 25  2  0
M  END
$$$$
