ECF.pdb
     RDKit          3D

 27 27  0  0  1  0  0  0  0  0999 V2000
   33.7611  -33.5005  -17.7581 N   0  0  0  0  0  0  0  0  0  0  0  0
   32.3135  -33.5335  -17.9719 C   0  0  1  0  0  0  0  0  0  0  0  0
   31.7233  -34.2348  -16.7901 C   0  0  0  0  0  0  0  0  0  0  0  0
   30.2170  -34.2753  -16.7746 C   0  0  0  0  0  0  0  0  0  0  0  0
   29.7152  -35.0279  -15.6065 C   0  0  0  0  0  0  0  0  0  0  0  0
   28.9741  -34.5015  -14.7424 O   0  0  0  0  0  0  0  0  0  0  0  0
   31.8571  -32.1100  -17.9850 C   0  0  0  0  0  0  0  0  0  0  0  0
   32.5182  -31.2314  -17.3910 O   0  0  0  0  0  0  0  0  0  0  0  0
   30.0678  -36.3553  -15.4513 O   0  0  0  0  0  0  0  0  0  0  0  0
   30.6861  -31.6925  -18.6521 N   0  0  0  0  0  0  0  0  0  0  0  0
   30.3781  -30.3157  -18.7861 C   0  0  1  0  0  0  0  0  0  0  0  0
   30.4267  -29.8000  -20.2013 C   0  0  0  0  0  0  0  0  0  0  0  0
   29.9695  -28.0652  -20.3341 S   0  0  0  0  0  0  0  0  0  0  0  0
   29.0493  -29.9318  -18.2475 C   0  0  0  0  0  0  0  0  0  0  0  0
   28.1038  -30.7382  -18.4611 O   0  0  0  0  0  0  0  0  0  0  0  0
   28.8234  -28.7346  -17.5290 N   0  0  0  0  0  0  0  0  0  0  0  0
   27.4901  -28.5172  -16.9778 C   0  0  1  0  0  0  0  0  0  0  0  0
   27.6271  -27.4674  -15.9007 C   0  0  0  0  0  0  0  0  0  0  0  0
   27.8675  -26.1206  -16.4831 C   0  0  0  0  0  0  0  0  0  0  0  0
   26.8522  -25.2119  -16.6838 C   0  0  0  0  0  0  0  0  0  0  0  0
   27.0889  -23.9770  -17.2179 C   0  0  0  0  0  0  0  0  0  0  0  0
   28.3861  -23.6255  -17.5688 C   0  0  0  0  0  0  0  0  0  0  0  0
   29.4063  -24.5169  -17.3758 C   0  0  0  0  0  0  0  0  0  0  0  0
   29.1500  -25.7536  -16.8379 C   0  0  0  0  0  0  0  0  0  0  0  0
   26.5233  -28.1680  -18.0307 C   0  0  0  0  0  0  0  0  0  0  0  0
   25.2870  -28.1920  -17.8200 O   0  0  0  0  0  0  0  0  0  0  0  0
   26.9640  -27.7940  -19.3134 O   0  0  0  0  0  0  0  0  0  0  0  0
  2  1  1  1
  3  2  1  0
  4  3  1  0
  5  4  1  0
  5  6  2  0
  7  2  1  0
  7  8  2  0
  9  5  1  0
 10  7  1  0
 11 10  1  0
 11 12  1  6
 12 13  1  0
 14 11  1  0
 15 14  2  0
 16 14  1  0
 17 16  1  0
 17 18  1  1
 18 19  1  0
 19 20  2  0
 20 21  1  0
 22 21  2  0
 23 22  1  0
 24 19  1  0
 24 23  2  0
 25 27  1  0
 25 17  1  0
 26 25  2  0
M  END
$$$$
