ECF.pdb
     RDKit          3D

 27 27  0  0  1  0  0  0  0  0999 V2000
   31.3832  -39.8546   -7.3512 N   0  0  0  0  0  0  0  0  0  0  0  0
   31.2836  -38.3952   -7.3015 C   0  0  1  0  0  0  0  0  0  0  0  0
   29.9022  -38.0459   -7.7559 C   0  0  0  0  0  0  0  0  0  0  0  0
   28.7990  -38.6588   -6.9324 C   0  0  0  0  0  0  0  0  0  0  0  0
   27.4752  -38.3963   -7.5336 C   0  0  0  0  0  0  0  0  0  0  0  0
   26.4074  -38.7309   -6.9673 O   0  0  0  0  0  0  0  0  0  0  0  0
   31.4477  -38.0104   -5.8662 C   0  0  0  0  0  0  0  0  0  0  0  0
   31.1141  -38.8033   -4.9597 O   0  0  0  0  0  0  0  0  0  0  0  0
   27.3998  -37.7623   -8.7595 O   0  0  0  0  0  0  0  0  0  0  0  0
   31.9752  -36.7639   -5.4682 N   0  0  0  0  0  0  0  0  0  0  0  0
   32.1345  -36.4472   -4.0961 C   0  0  1  0  0  0  0  0  0  0  0  0
   33.4519  -35.8005   -3.7535 C   0  0  0  0  0  0  0  0  0  0  0  0
   34.8694  -36.7271   -4.3604 S   0  0  0  0  0  0  0  0  0  0  0  0
   31.0788  -35.5597   -3.5475 C   0  0  0  0  0  0  0  0  0  0  0  0
   30.7070  -34.6081   -4.2864 O   0  0  0  0  0  0  0  0  0  0  0  0
   30.5005  -35.7450   -2.2700 N   0  0  0  0  0  0  0  0  0  0  0  0
   29.3181  -34.9560   -1.9412 C   0  0  1  0  0  0  0  0  0  0  0  0
   28.2658  -35.2938   -2.9706 C   0  0  0  0  0  0  0  0  0  0  0  0
   27.2594  -34.2064   -3.0947 C   0  0  0  0  0  0  0  0  0  0  0  0
   26.1355  -34.1475   -2.3009 C   0  0  0  0  0  0  0  0  0  0  0  0
   25.2206  -33.1406   -2.4250 C   0  0  0  0  0  0  0  0  0  0  0  0
   25.4261  -32.1489   -3.3756 C   0  0  0  0  0  0  0  0  0  0  0  0
   26.5377  -32.1929   -4.1724 C   0  0  0  0  0  0  0  0  0  0  0  0
   27.4466  -33.2122   -4.0338 C   0  0  0  0  0  0  0  0  0  0  0  0
   28.8882  -35.1845   -0.5525 C   0  0  0  0  0  0  0  0  0  0  0  0
   28.6419  -34.2300    0.2232 O   0  0  0  0  0  0  0  0  0  0  0  0
   28.7403  -36.4916   -0.0536 O   0  0  0  0  0  0  0  0  0  0  0  0
  2  1  1  1
  3  2  1  0
  4  3  1  0
  5  4  1  0
  5  6  2  0
  7  2  1  0
  7  8  2  0
  9  5  1  0
 10  7  1  0
 11 10  1  0
 11 12  1  6
 12 13  1  0
 14 11  1  0
 15 14  2  0
 16 14  1  0
 17 16  1  0
 17 18  1  6
 18 19  1  0
 19 20  2  0
 20 21  1  0
 22 21  2  0
 23 22  1  0
 24 19  1  0
 24 23  2  0
 25 27  1  0
 25 17  1  0
 26 25  2  0
M  END
$$$$
