ECF.pdb
     RDKit          3D

 27 27  0  0  1  0  0  0  0  0999 V2000
   23.6331  -13.3868  -20.6729 N   0  0  0  0  0  0  0  0  0  0  0  0
   22.8150  -12.8594  -19.5799 C   0  0  1  0  0  0  0  0  0  0  0  0
   23.3994  -13.3958  -18.3120 C   0  0  0  0  0  0  0  0  0  0  0  0
   22.9232  -14.7758  -17.9383 C   0  0  0  0  0  0  0  0  0  0  0  0
   21.5693  -14.7319  -17.3486 C   0  0  0  0  0  0  0  0  0  0  0  0
   21.3371  -14.1673  -16.2530 O   0  0  0  0  0  0  0  0  0  0  0  0
   22.9760  -11.3734  -19.6124 C   0  0  0  0  0  0  0  0  0  0  0  0
   24.0771  -10.8659  -19.9154 O   0  0  0  0  0  0  0  0  0  0  0  0
   20.5175  -15.3291  -18.0177 O   0  0  0  0  0  0  0  0  0  0  0  0
   21.9204  -10.4870  -19.3115 N   0  0  0  0  0  0  0  0  0  0  0  0
   22.0940   -9.0852  -19.4262 C   0  0  1  0  0  0  0  0  0  0  0  0
   21.2651   -8.4400  -20.5069 C   0  0  0  0  0  0  0  0  0  0  0  0
   21.5437   -9.1600  -22.1317 S   0  0  0  0  0  0  0  0  0  0  0  0
   21.8139   -8.3308  -18.1790 C   0  0  0  0  0  0  0  0  0  0  0  0
   20.7643   -8.6476  -17.5563 O   0  0  0  0  0  0  0  0  0  0  0  0
   22.6587   -7.3078  -17.6886 N   0  0  0  0  0  0  0  0  0  0  0  0
   22.3200   -6.7090  -16.4020 C   0  0  1  0  0  0  0  0  0  0  0  0
   23.5464   -6.8253  -15.5282 C   0  0  0  0  0  0  0  0  0  0  0  0
   23.8636   -8.2458  -15.2246 C   0  0  0  0  0  0  0  0  0  0  0  0
   23.0403   -9.0370  -14.4545 C   0  0  0  0  0  0  0  0  0  0  0  0
   23.3439  -10.3416  -14.1859 C   0  0  0  0  0  0  0  0  0  0  0  0
   24.5126  -10.8874  -14.7013 C   0  0  0  0  0  0  0  0  0  0  0  0
   25.3416  -10.1147  -15.4683 C   0  0  0  0  0  0  0  0  0  0  0  0
   25.0206   -8.8055  -15.7279 C   0  0  0  0  0  0  0  0  0  0  0  0
   21.8313   -5.3302  -16.5625 C   0  0  0  0  0  0  0  0  0  0  0  0
   21.8480   -4.7540  -17.6765 O   0  0  0  0  0  0  0  0  0  0  0  0
   21.3274   -4.6154  -15.4604 O   0  0  0  0  0  0  0  0  0  0  0  0
  2  1  1  6
  3  2  1  0
  4  3  1  0
  5  4  1  0
  5  6  2  0
  7  2  1  0
  7  8  2  0
  9  5  1  0
 10  7  1  0
 11 10  1  0
 11 12  1  6
 12 13  1  0
 14 11  1  0
 15 14  2  0
 16 14  1  0
 17 16  1  0
 17 18  1  1
 18 19  1  0
 19 20  2  0
 20 21  1  0
 22 21  2  0
 23 22  1  0
 24 19  1  0
 24 23  2  0
 25 27  1  0
 25 17  1  0
 26 25  2  0
M  END
$$$$
