ECF.pdb
     RDKit          3D

 27 27  0  0  1  0  0  0  0  0999 V2000
   27.7322  -21.4304  -16.5545 N   0  0  0  0  0  0  0  0  0  0  0  0
   27.7708  -20.4846  -15.4381 C   0  0  1  0  0  0  0  0  0  0  0  0
   27.3032  -19.1698  -15.9762 C   0  0  0  0  0  0  0  0  0  0  0  0
   28.3178  -18.4426  -16.8202 C   0  0  0  0  0  0  0  0  0  0  0  0
   28.4307  -19.0510  -18.1619 C   0  0  0  0  0  0  0  0  0  0  0  0
   29.4081  -19.7649  -18.4903 O   0  0  0  0  0  0  0  0  0  0  0  0
   26.7901  -20.9859  -14.4273 C   0  0  0  0  0  0  0  0  0  0  0  0
   25.8067  -21.6675  -14.7881 O   0  0  0  0  0  0  0  0  0  0  0  0
   27.4324  -18.8326  -19.0926 O   0  0  0  0  0  0  0  0  0  0  0  0
   26.9191  -20.7239  -13.0470 N   0  0  0  0  0  0  0  0  0  0  0  0
   25.9161  -21.1329  -12.1331 C   0  0  1  0  0  0  0  0  0  0  0  0
   26.2918  -20.9750  -10.6822 C   0  0  0  0  0  0  0  0  0  0  0  0
   24.8978  -21.1951   -9.5665 S   0  0  0  0  0  0  0  0  0  0  0  0
   24.6143  -20.4408  -12.3048 C   0  0  0  0  0  0  0  0  0  0  0  0
   24.6051  -19.2004  -12.0794 O   0  0  0  0  0  0  0  0  0  0  0  0
   23.4310  -21.1077  -12.6995 N   0  0  0  0  0  0  0  0  0  0  0  0
   22.2006  -20.3257  -12.7579 C   0  0  1  0  0  0  0  0  0  0  0  0
   22.3111  -19.4246  -13.9650 C   0  0  0  0  0  0  0  0  0  0  0  0
   22.3684  -20.2109  -15.2257 C   0  0  0  0  0  0  0  0  0  0  0  0
   21.2466  -20.7664  -15.8001 C   0  0  0  0  0  0  0  0  0  0  0  0
   21.3146  -21.4845  -16.9602 C   0  0  0  0  0  0  0  0  0  0  0  0
   22.5455  -21.6610  -17.5792 C   0  0  0  0  0  0  0  0  0  0  0  0
   23.6698  -21.1156  -17.0213 C   0  0  0  0  0  0  0  0  0  0  0  0
   23.5827  -20.3970  -15.8550 C   0  0  0  0  0  0  0  0  0  0  0  0
   21.0120  -21.1932  -12.7687 C   0  0  0  0  0  0  0  0  0  0  0  0
   19.8521  -20.7161  -12.7856 O   0  0  0  0  0  0  0  0  0  0  0  0
   21.1465  -22.5936  -12.7608 O   0  0  0  0  0  0  0  0  0  0  0  0
  2  1  1  6
  3  2  1  0
  4  3  1  0
  5  4  1  0
  5  6  2  0
  7  2  1  0
  7  8  2  0
  9  5  1  0
 10  7  1  0
 11 10  1  0
 11 12  1  1
 12 13  1  0
 14 11  1  0
 15 14  2  0
 16 14  1  0
 17 16  1  0
 17 18  1  6
 18 19  1  0
 19 20  2  0
 20 21  1  0
 22 21  2  0
 23 22  1  0
 24 19  1  0
 24 23  2  0
 25 27  1  0
 25 17  1  0
 26 25  2  0
M  END
$$$$
