ECF.pdb
     RDKit          3D

 27 27  0  0  1  0  0  0  0  0999 V2000
   25.9066  -20.8491  -11.0195 N   0  0  0  0  0  0  0  0  0  0  0  0
   25.7743  -21.3671  -12.3820 C   0  0  1  0  0  0  0  0  0  0  0  0
   24.3708  -21.8666  -12.5143 C   0  0  0  0  0  0  0  0  0  0  0  0
   23.3122  -20.8709  -12.1159 C   0  0  0  0  0  0  0  0  0  0  0  0
   21.9615  -21.4630  -12.2059 C   0  0  0  0  0  0  0  0  0  0  0  0
   20.9221  -20.7809  -12.0402 O   0  0  0  0  0  0  0  0  0  0  0  0
   25.9764  -20.2022  -13.2969 C   0  0  0  0  0  0  0  0  0  0  0  0
   25.6293  -19.0553  -12.9422 O   0  0  0  0  0  0  0  0  0  0  0  0
   21.8279  -22.8109  -12.4810 O   0  0  0  0  0  0  0  0  0  0  0  0
   26.5557  -20.3316  -14.5769 N   0  0  0  0  0  0  0  0  0  0  0  0
   26.7878  -19.1928  -15.3877 C   0  0  1  0  0  0  0  0  0  0  0  0
   27.9825  -19.3083  -16.2991 C   0  0  0  0  0  0  0  0  0  0  0  0
   28.8152  -20.8976  -16.1695 S   0  0  0  0  0  0  0  0  0  0  0  0
   25.6408  -18.8124  -16.2495 C   0  0  0  0  0  0  0  0  0  0  0  0
   24.7263  -19.6710  -16.3764 O   0  0  0  0  0  0  0  0  0  0  0  0
   25.5483  -17.5626  -16.9055 N   0  0  0  0  0  0  0  0  0  0  0  0
   24.2669  -17.2060  -17.5050 C   0  0  1  0  0  0  0  0  0  0  0  0
   23.2972  -16.9863  -16.3682 C   0  0  0  0  0  0  0  0  0  0  0  0
   21.9646  -16.5551  -16.8673 C   0  0  0  0  0  0  0  0  0  0  0  0
   20.9661  -17.4528  -17.1740 C   0  0  0  0  0  0  0  0  0  0  0  0
   19.7457  -17.0413  -17.6295 C   0  0  0  0  0  0  0  0  0  0  0  0
   19.5021  -15.6831  -17.7885 C   0  0  0  0  0  0  0  0  0  0  0  0
   20.4837  -14.7782  -17.4883 C   0  0  0  0  0  0  0  0  0  0  0  0
   21.7042  -15.2096  -17.0318 C   0  0  0  0  0  0  0  0  0  0  0  0
   24.3983  -16.0512  -18.4077 C   0  0  0  0  0  0  0  0  0  0  0  0
   25.2785  -15.1758  -18.2287 O   0  0  0  0  0  0  0  0  0  0  0  0
   23.5323  -15.8974  -19.5058 O   0  0  0  0  0  0  0  0  0  0  0  0
  2  1  1  1
  3  2  1  0
  4  3  1  0
  5  4  1  0
  5  6  2  0
  7  2  1  0
  7  8  2  0
  9  5  1  0
 10  7  1  0
 11 10  1  0
 11 12  1  6
 12 13  1  0
 14 11  1  0
 15 14  2  0
 16 14  1  0
 17 16  1  0
 17 18  1  1
 18 19  1  0
 19 20  2  0
 20 21  1  0
 22 21  2  0
 23 22  1  0
 24 19  1  0
 24 23  2  0
 25 27  1  0
 25 17  1  0
 26 25  2  0
M  END
$$$$
