WIK.pdb
     RDKit          3D

 32 33  0  0  1  0  0  0  0  0999 V2000
    6.4508  -16.7883   25.6739 N   0  0  0  0  0  0  0  0  0  0  0  0
    7.2112  -15.7645   25.0124 C   0  0  1  0  0  0  0  0  0  0  0  0
    8.3790  -15.2728   25.8246 C   0  0  0  0  0  0  0  0  0  0  0  0
    7.9518  -14.3102   26.8529 C   0  0  0  0  0  0  0  0  0  0  0  0
    8.0893  -14.4892   28.2270 C   0  0  0  0  0  0  0  0  0  0  0  0
    7.6241  -13.4178   28.8713 N   0  0  0  0  0  0  0  0  0  0  0  0
    7.1791  -12.5293   27.9549 C   0  0  0  0  0  0  0  0  0  0  0  0
    6.6010  -11.2782   28.0529 C   0  0  0  0  0  0  0  0  0  0  0  0
    6.2403  -10.6122   26.9141 C   0  0  0  0  0  0  0  0  0  0  0  0
    6.4287  -11.1370   25.6606 C   0  0  0  0  0  0  0  0  0  0  0  0
    7.0074  -12.3885   25.5638 C   0  0  0  0  0  0  0  0  0  0  0  0
    7.3806  -13.0808   26.6879 C   0  0  0  0  0  0  0  0  0  0  0  0
    7.6500  -16.2964   23.6937 C   0  0  0  0  0  0  0  0  0  0  0  0
    7.5024  -17.4907   23.3511 O   0  0  0  0  0  0  0  0  0  0  0  0
    7.2364  -12.7106   19.7491 C   0  0  0  0  0  0  0  0  0  0  0  0
    7.3047  -14.0332   20.5017 C   0  0  0  0  0  0  0  0  0  0  0  0
    8.7029  -14.5528   20.5888 C   0  0  2  0  0  0  0  0  0  0  0  0
    9.2056  -15.0232   19.2310 C   0  0  0  0  0  0  0  0  0  0  0  0
    8.7339  -15.7534   21.4966 C   0  0  2  0  0  0  0  0  0  0  0  0
    8.2701  -15.3484   22.8074 N   0  0  0  0  0  0  0  0  0  0  0  0
   10.1169  -16.2938   21.6818 C   0  0  0  0  0  0  0  0  0  0  0  0
   11.0398  -15.5968   22.2008 O   0  0  0  0  0  0  0  0  0  0  0  0
   10.4516  -17.6164   21.2813 N   0  0  0  0  0  0  0  0  0  0  0  0
   11.8413  -18.0713   21.4353 C   0  0  1  0  0  0  0  0  0  0  0  0
   11.8301  -19.5812   21.5724 C   0  0  0  0  0  0  0  0  0  0  0  0
   11.4508  -20.0643   22.9298 C   0  0  0  0  0  0  0  0  0  0  0  0
   11.3646  -21.5871   22.8463 C   0  0  0  0  0  0  0  0  0  0  0  0
   11.1726  -22.1886   24.2214 C   0  0  0  0  0  0  0  0  0  0  0  0
   11.1120  -23.6261   24.0955 N   0  0  0  0  0  0  0  0  0  0  0  0
   12.6395  -17.5878   20.2991 C   0  0  0  0  0  0  0  0  0  0  0  0
   12.0734  -17.3971   19.1861 O   0  0  0  0  0  0  0  0  0  0  0  0
   13.9928  -17.3173   20.3495 O   0  0  0  0  0  0  0  0  0  0  0  0
  2  1  1  1
  2  3  1  0
  2 13  1  0
  3  4  1  0
  4  5  2  0
  5  6  1  0
  7  6  1  0
  8  7  2  0
  9  8  1  0
 10 11  1  0
 10  9  2  0
 11 12  2  0
 12  4  1  0
 12  7  1  0
 13 14  2  0
 13 20  1  0
 16 15  1  0
 17 19  1  0
 17 16  1  0
 17 18  1  6
 19 21  1  0
 19 20  1  1
 21 22  2  0
 23 21  1  0
 23 24  1  0
 24 25  1  6
 24 30  1  0
 26 27  1  0
 26 25  1  0
 27 28  1  0
 29 28  1  0
 30 32  1  0
 31 30  2  0
M  END
$$$$
