WIK.pdb
     RDKit          3D

 32 33  0  0  1  0  0  0  0  0999 V2000
    5.7017  -15.7850   24.2557 N   0  0  0  0  0  0  0  0  0  0  0  0
    7.1206  -15.5758   24.3411 C   0  0  1  0  0  0  0  0  0  0  0  0
    7.7262  -16.1174   25.6080 C   0  0  0  0  0  0  0  0  0  0  0  0
    7.6453  -15.1384   26.7042 C   0  0  0  0  0  0  0  0  0  0  0  0
    6.4669  -14.5983   27.2131 C   0  0  0  0  0  0  0  0  0  0  0  0
    6.7478  -13.7643   28.2156 N   0  0  0  0  0  0  0  0  0  0  0  0
    8.0887  -13.7373   28.3845 C   0  0  0  0  0  0  0  0  0  0  0  0
    8.9194  -13.0562   29.2534 C   0  0  0  0  0  0  0  0  0  0  0  0
   10.2727  -13.2354   29.1706 C   0  0  0  0  0  0  0  0  0  0  0  0
   10.8519  -14.0725   28.2508 C   0  0  0  0  0  0  0  0  0  0  0  0
   10.0198  -14.7537   27.3822 C   0  0  0  0  0  0  0  0  0  0  0  0
    8.6584  -14.5952   27.4413 C   0  0  0  0  0  0  0  0  0  0  0  0
    7.7485  -16.1806   23.1351 C   0  0  0  0  0  0  0  0  0  0  0  0
    7.8180  -17.4149   22.9426 O   0  0  0  0  0  0  0  0  0  0  0  0
    8.7007  -12.1932   19.3155 C   0  0  0  0  0  0  0  0  0  0  0  0
    8.9841  -13.3357   20.2824 C   0  0  0  0  0  0  0  0  0  0  0  0
    8.2967  -14.5969   19.8710 C   0  0  2  0  0  0  0  0  0  0  0  0
    6.7827  -14.4429   19.9140 C   0  0  0  0  0  0  0  0  0  0  0  0
    8.6433  -15.6942   20.8417 C   0  0  2  0  0  0  0  0  0  0  0  0
    8.2878  -15.2552   22.1751 N   0  0  0  0  0  0  0  0  0  0  0  0
   10.1095  -15.9918   20.8674 C   0  0  0  0  0  0  0  0  0  0  0  0
   10.8851  -15.4441   21.7073 O   0  0  0  0  0  0  0  0  0  0  0  0
   10.6930  -16.9050   19.9468 N   0  0  0  0  0  0  0  0  0  0  0  0
   12.1410  -17.1504   20.0161 C   0  0  1  0  0  0  0  0  0  0  0  0
   12.4567  -18.3534   19.1490 C   0  0  0  0  0  0  0  0  0  0  0  0
   13.8983  -18.7295   19.1349 C   0  0  0  0  0  0  0  0  0  0  0  0
   14.0072  -20.0236   18.3309 C   0  0  0  0  0  0  0  0  0  0  0  0
   15.4505  -20.4640   18.2181 C   0  0  0  0  0  0  0  0  0  0  0  0
   15.5002  -21.7126   17.4940 N   0  0  0  0  0  0  0  0  0  0  0  0
   12.8600  -15.9311   19.6183 C   0  0  0  0  0  0  0  0  0  0  0  0
   12.3591  -15.1825   18.7327 O   0  0  0  0  0  0  0  0  0  0  0  0
   14.0696  -15.5257   20.1471 O   0  0  0  0  0  0  0  0  0  0  0  0
  2  1  1  1
  2  3  1  0
  2 13  1  0
  3  4  1  0
  4  5  2  0
  5  6  1  0
  7  6  1  0
  8  7  2  0
  9  8  1  0
 10 11  1  0
 10  9  2  0
 11 12  2  0
 12  4  1  0
 12  7  1  0
 13 14  2  0
 13 20  1  0
 16 15  1  0
 17 19  1  0
 17 16  1  0
 17 18  1  1
 19 21  1  0
 19 20  1  1
 21 22  2  0
 23 21  1  0
 23 24  1  0
 24 25  1  6
 24 30  1  0
 26 27  1  0
 26 25  1  0
 27 28  1  0
 29 28  1  0
 30 32  1  0
 31 30  2  0
M  END
$$$$
