WIK.pdb
     RDKit          3D

 32 33  0  0  1  0  0  0  0  0999 V2000
    5.7854  -17.8857   24.5643 N   0  0  0  0  0  0  0  0  0  0  0  0
    6.4854  -16.6634   24.2809 C   0  0  1  0  0  0  0  0  0  0  0  0
    7.2629  -16.1371   25.4572 C   0  0  0  0  0  0  0  0  0  0  0  0
    6.6744  -14.8923   25.9775 C   0  0  0  0  0  0  0  0  0  0  0  0
    5.3479  -14.7345   26.3711 C   0  0  0  0  0  0  0  0  0  0  0  0
    5.1530  -13.4920   26.8156 N   0  0  0  0  0  0  0  0  0  0  0  0
    6.3219  -12.8189   26.7257 C   0  0  0  0  0  0  0  0  0  0  0  0
    6.6941  -11.5240   27.0318 C   0  0  0  0  0  0  0  0  0  0  0  0
    7.9842  -11.1252   26.8148 C   0  0  0  0  0  0  0  0  0  0  0  0
    8.9397  -11.9640   26.2996 C   0  0  0  0  0  0  0  0  0  0  0  0
    8.5664  -13.2594   25.9942 C   0  0  0  0  0  0  0  0  0  0  0  0
    7.2801  -13.6890   26.2014 C   0  0  0  0  0  0  0  0  0  0  0  0
    7.3678  -16.8999   23.1063 C   0  0  0  0  0  0  0  0  0  0  0  0
    7.7396  -18.0385   22.7445 O   0  0  0  0  0  0  0  0  0  0  0  0
    7.3740  -12.6781   19.4843 C   0  0  0  0  0  0  0  0  0  0  0  0
    7.3756  -14.0913   20.0528 C   0  0  0  0  0  0  0  0  0  0  0  0
    8.7232  -14.4841   20.5648 C   0  0  2  0  0  0  0  0  0  0  0  0
    9.7306  -14.6160   19.4311 C   0  0  0  0  0  0  0  0  0  0  0  0
    8.6342  -15.8375   21.2183 C   0  0  2  0  0  0  0  0  0  0  0  0
    7.7861  -15.7267   22.3869 N   0  0  0  0  0  0  0  0  0  0  0  0
    9.9632  -16.3272   21.7007 C   0  0  0  0  0  0  0  0  0  0  0  0
   10.5905  -15.7401   22.6328 O   0  0  0  0  0  0  0  0  0  0  0  0
   10.5774  -17.4758   21.1302 N   0  0  0  0  0  0  0  0  0  0  0  0
   11.9027  -17.8846   21.6183 C   0  0  1  0  0  0  0  0  0  0  0  0
   12.1936  -19.2732   21.0836 C   0  0  0  0  0  0  0  0  0  0  0  0
   13.5368  -19.7983   21.4577 C   0  0  0  0  0  0  0  0  0  0  0  0
   13.6929  -21.1463   20.7565 C   0  0  0  0  0  0  0  0  0  0  0  0
   15.0356  -21.7650   21.0786 C   0  0  0  0  0  0  0  0  0  0  0  0
   15.1908  -22.9708   20.2989 N   0  0  0  0  0  0  0  0  0  0  0  0
   12.8985  -16.8786   21.2206 C   0  0  0  0  0  0  0  0  0  0  0  0
   13.8597  -16.6226   21.9993 O   0  0  0  0  0  0  0  0  0  0  0  0
   12.8694  -16.1719   20.0344 O   0  0  0  0  0  0  0  0  0  0  0  0
  2  1  1  1
  2  3  1  0
  2 13  1  0
  3  4  1  0
  4  5  2  0
  5  6  1  0
  7  6  1  0
  8  7  2  0
  9  8  1  0
 10 11  1  0
 10  9  2  0
 11 12  2  0
 12  4  1  0
 12  7  1  0
 13 14  2  0
 13 20  1  0
 16 15  1  0
 17 19  1  0
 17 16  1  0
 17 18  1  6
 19 21  1  0
 19 20  1  1
 21 22  2  0
 23 21  1  0
 23 24  1  0
 24 25  1  6
 24 30  1  0
 26 27  1  0
 26 25  1  0
 27 28  1  0
 29 28  1  0
 30 32  1  0
 31 30  2  0
M  END
$$$$
