WIK.pdb
     RDKit          3D

 32 33  0  0  1  0  0  0  0  0999 V2000
    6.7879  -19.1886   26.8365 N   0  0  0  0  0  0  0  0  0  0  0  0
    7.6167  -18.0157   26.8781 C   0  0  1  0  0  0  0  0  0  0  0  0
    9.0500  -18.3126   27.2279 C   0  0  0  0  0  0  0  0  0  0  0  0
    9.4834  -17.5523   28.4114 C   0  0  0  0  0  0  0  0  0  0  0  0
    9.6881  -18.0891   29.6800 C   0  0  0  0  0  0  0  0  0  0  0  0
   10.1013  -17.1335   30.5140 N   0  0  0  0  0  0  0  0  0  0  0  0
   10.1755  -15.9714   29.8274 C   0  0  0  0  0  0  0  0  0  0  0  0
   10.5308  -14.6841   30.1818 C   0  0  0  0  0  0  0  0  0  0  0  0
   10.4961  -13.6928   29.2401 C   0  0  0  0  0  0  0  0  0  0  0  0
   10.1191  -13.9212   27.9410 C   0  0  0  0  0  0  0  0  0  0  0  0
    9.7643  -15.2096   27.5875 C   0  0  0  0  0  0  0  0  0  0  0  0
    9.7898  -16.2251   28.5094 C   0  0  0  0  0  0  0  0  0  0  0  0
    7.5079  -17.3284   25.5627 C   0  0  0  0  0  0  0  0  0  0  0  0
    7.2021  -17.9183   24.5025 O   0  0  0  0  0  0  0  0  0  0  0  0
    6.2010  -12.0882   26.0636 C   0  0  0  0  0  0  0  0  0  0  0  0
    6.2849  -13.4826   25.4560 C   0  0  0  0  0  0  0  0  0  0  0  0
    7.5624  -13.6887   24.7091 C   0  0  2  0  0  0  0  0  0  0  0  0
    7.5715  -12.9111   23.4003 C   0  0  0  0  0  0  0  0  0  0  0  0
    7.6986  -15.1430   24.3442 C   0  0  2  0  0  0  0  0  0  0  0  0
    7.7795  -15.9160   25.5662 N   0  0  0  0  0  0  0  0  0  0  0  0
    8.9523  -15.4245   23.5777 C   0  0  0  0  0  0  0  0  0  0  0  0
    9.9597  -14.6579   23.6448 O   0  0  0  0  0  0  0  0  0  0  0  0
    9.0638  -16.5682   22.7402 N   0  0  0  0  0  0  0  0  0  0  0  0
   10.2407  -16.6938   21.8680 C   0  0  1  0  0  0  0  0  0  0  0  0
   10.0935  -15.6997   20.7326 C   0  0  0  0  0  0  0  0  0  0  0  0
    9.1413  -16.1289   19.6701 C   0  0  0  0  0  0  0  0  0  0  0  0
    9.8697  -15.9704   18.3369 C   0  0  0  0  0  0  0  0  0  0  0  0
    8.9989  -16.4401   17.1920 C   0  0  0  0  0  0  0  0  0  0  0  0
    7.8995  -15.5168   17.0352 N   0  0  0  0  0  0  0  0  0  0  0  0
   11.4601  -16.5011   22.6667 C   0  0  0  0  0  0  0  0  0  0  0  0
   12.5862  -16.5845   22.1006 O   0  0  0  0  0  0  0  0  0  0  0  0
   11.4764  -16.2286   24.0205 O   0  0  0  0  0  0  0  0  0  0  0  0
  2  1  1  6
  2  3  1  0
  2 13  1  0
  3  4  1  0
  4  5  2  0
  5  6  1  0
  7  6  1  0
  8  7  2  0
  9  8  1  0
 10 11  1  0
 10  9  2  0
 11 12  2  0
 12  4  1  0
 12  7  1  0
 13 14  2  0
 13 20  1  0
 16 15  1  0
 17 19  1  0
 17 16  1  0
 17 18  1  6
 19 21  1  0
 19 20  1  1
 21 22  2  0
 23 21  1  0
 23 24  1  0
 24 25  1  6
 24 30  1  0
 26 27  1  0
 26 25  1  0
 27 28  1  0
 29 28  1  0
 30 32  1  0
 31 30  2  0
M  END
$$$$
