WIK.pdb
     RDKit          3D

 32 33  0  0  1  0  0  0  0  0999 V2000
    5.6275  -18.0614   24.5856 N   0  0  0  0  0  0  0  0  0  0  0  0
    6.4301  -16.8720   24.6592 C   0  0  1  0  0  0  0  0  0  0  0  0
    7.0848  -16.6787   26.0005 C   0  0  0  0  0  0  0  0  0  0  0  0
    6.9141  -15.3005   26.4887 C   0  0  0  0  0  0  0  0  0  0  0  0
    5.7011  -14.6212   26.5681 C   0  0  0  0  0  0  0  0  0  0  0  0
    5.8971  -13.4038   27.0768 N   0  0  0  0  0  0  0  0  0  0  0  0
    7.2155  -13.2580   27.3373 C   0  0  0  0  0  0  0  0  0  0  0  0
    7.9691  -12.2211   27.8530 C   0  0  0  0  0  0  0  0  0  0  0  0
    9.3209  -12.3756   27.9920 C   0  0  0  0  0  0  0  0  0  0  0  0
    9.9726  -13.5296   27.6376 C   0  0  0  0  0  0  0  0  0  0  0  0
    9.2176  -14.5665   27.1222 C   0  0  0  0  0  0  0  0  0  0  0  0
    7.8597  -14.4417   26.9715 C   0  0  0  0  0  0  0  0  0  0  0  0
    7.4366  -16.9274   23.5645 C   0  0  0  0  0  0  0  0  0  0  0  0
    7.9483  -17.9931   23.1550 O   0  0  0  0  0  0  0  0  0  0  0  0
    7.4629  -12.2884   20.4579 C   0  0  0  0  0  0  0  0  0  0  0  0
    7.4889  -13.7663   20.8261 C   0  0  0  0  0  0  0  0  0  0  0  0
    8.8079  -14.1749   21.3967 C   0  0  2  0  0  0  0  0  0  0  0  0
    9.9063  -14.1285   20.3437 C   0  0  0  0  0  0  0  0  0  0  0  0
    8.7273  -15.6022   21.8690 C   0  0  2  0  0  0  0  0  0  0  0  0
    7.8051  -15.6641   22.9839 N   0  0  0  0  0  0  0  0  0  0  0  0
   10.0406  -16.1119   22.3731 C   0  0  0  0  0  0  0  0  0  0  0  0
   10.5647  -15.6634   23.4366 O   0  0  0  0  0  0  0  0  0  0  0  0
   10.7554  -17.1244   21.6760 N   0  0  0  0  0  0  0  0  0  0  0  0
   12.0500  -17.5714   22.2108 C   0  0  1  0  0  0  0  0  0  0  0  0
   12.3588  -18.9331   21.6197 C   0  0  0  0  0  0  0  0  0  0  0  0
   13.7013  -19.4640   21.9880 C   0  0  0  0  0  0  0  0  0  0  0  0
   13.7825  -20.8819   21.4260 C   0  0  0  0  0  0  0  0  0  0  0  0
   15.1132  -21.5171   21.7659 C   0  0  0  0  0  0  0  0  0  0  0  0
   14.8852  -22.6148   22.6764 N   0  0  0  0  0  0  0  0  0  0  0  0
   13.0727  -16.5560   21.9196 C   0  0  0  0  0  0  0  0  0  0  0  0
   14.0027  -16.3626   22.7524 O   0  0  0  0  0  0  0  0  0  0  0  0
   13.1018  -15.7758   20.7805 O   0  0  0  0  0  0  0  0  0  0  0  0
  2  1  1  1
  2  3  1  0
  2 13  1  0
  3  4  1  0
  4  5  2  0
  5  6  1  0
  7  6  1  0
  8  7  2  0
  9  8  1  0
 10 11  1  0
 10  9  2  0
 11 12  2  0
 12  4  1  0
 12  7  1  0
 13 14  2  0
 13 20  1  0
 16 15  1  0
 17 19  1  0
 17 16  1  0
 17 18  1  6
 19 21  1  0
 19 20  1  1
 21 22  2  0
 23 21  1  0
 23 24  1  0
 24 25  1  6
 24 30  1  0
 26 27  1  0
 26 25  1  0
 27 28  1  0
 29 28  1  0
 30 32  1  0
 31 30  2  0
M  END
$$$$
