WIK.pdb
     RDKit          3D

 32 33  0  0  1  0  0  0  0  0999 V2000
    5.7808  -18.0612   24.6156 N   0  0  0  0  0  0  0  0  0  0  0  0
    6.4262  -16.7783   24.5703 C   0  0  1  0  0  0  0  0  0  0  0  0
    6.9605  -16.3341   25.9053 C   0  0  0  0  0  0  0  0  0  0  0  0
    6.4387  -15.0097   26.2799 C   0  0  0  0  0  0  0  0  0  0  0  0
    5.1073  -14.7243   26.5716 C   0  0  0  0  0  0  0  0  0  0  0  0
    4.9816  -13.4367   26.8966 N   0  0  0  0  0  0  0  0  0  0  0  0
    6.2015  -12.8585   26.8267 C   0  0  0  0  0  0  0  0  0  0  0  0
    6.6523  -11.5710   27.0464 C   0  0  0  0  0  0  0  0  0  0  0  0
    7.9795  -11.2851   26.8812 C   0  0  0  0  0  0  0  0  0  0  0  0
    8.8971  -12.2317   26.5015 C   0  0  0  0  0  0  0  0  0  0  0  0
    8.4450  -13.5194   26.2824 C   0  0  0  0  0  0  0  0  0  0  0  0
    7.1199  -13.8371   26.4407 C   0  0  0  0  0  0  0  0  0  0  0  0
    7.5035  -16.8410   23.5456 C   0  0  0  0  0  0  0  0  0  0  0  0
    8.1964  -17.8621   23.3388 O   0  0  0  0  0  0  0  0  0  0  0  0
    7.4300  -12.4291   20.0546 C   0  0  0  0  0  0  0  0  0  0  0  0
    7.4744  -13.8633   20.5662 C   0  0  0  0  0  0  0  0  0  0  0  0
    8.7854  -14.1859   21.2061 C   0  0  2  0  0  0  0  0  0  0  0  0
    9.9199  -14.1577   20.1913 C   0  0  0  0  0  0  0  0  0  0  0  0
    8.7402  -15.5854   21.7593 C   0  0  2  0  0  0  0  0  0  0  0  0
    7.7184  -15.6399   22.7840 N   0  0  0  0  0  0  0  0  0  0  0  0
   10.0248  -15.9815   22.4164 C   0  0  0  0  0  0  0  0  0  0  0  0
   10.4577  -15.3828   23.4465 O   0  0  0  0  0  0  0  0  0  0  0  0
   10.8138  -17.0502   21.9092 N   0  0  0  0  0  0  0  0  0  0  0  0
   12.0839  -17.3700   22.5772 C   0  0  1  0  0  0  0  0  0  0  0  0
   12.2877  -18.8709   22.5076 C   0  0  0  0  0  0  0  0  0  0  0  0
   12.7847  -19.3551   21.1891 C   0  0  0  0  0  0  0  0  0  0  0  0
   12.9406  -20.8700   21.3075 C   0  0  0  0  0  0  0  0  0  0  0  0
   13.4347  -21.4607   20.0049 C   0  0  0  0  0  0  0  0  0  0  0  0
   13.5785  -22.8885   20.1671 N   0  0  0  0  0  0  0  0  0  0  0  0
   13.1687  -16.5977   21.9537 C   0  0  0  0  0  0  0  0  0  0  0  0
   14.2609  -16.4599   22.5732 O   0  0  0  0  0  0  0  0  0  0  0  0
   13.0903  -15.9950   20.7136 O   0  0  0  0  0  0  0  0  0  0  0  0
  2  1  1  1
  2  3  1  0
  2 13  1  0
  3  4  1  0
  4  5  2  0
  5  6  1  0
  7  6  1  0
  8  7  2  0
  9  8  1  0
 10 11  1  0
 10  9  2  0
 11 12  2  0
 12  4  1  0
 12  7  1  0
 13 14  2  0
 13 20  1  0
 16 15  1  0
 17 19  1  0
 17 16  1  0
 17 18  1  6
 19 21  1  0
 19 20  1  1
 21 22  2  0
 23 21  1  0
 23 24  1  0
 24 25  1  6
 24 30  1  0
 26 27  1  0
 26 25  1  0
 27 28  1  0
 29 28  1  0
 30 32  1  0
 31 30  2  0
M  END
$$$$
