WIK.pdb
     RDKit          3D

 32 33  0  0  1  0  0  0  0  0999 V2000
    6.3391  -17.4563   25.4947 N   0  0  0  0  0  0  0  0  0  0  0  0
    6.9541  -16.2575   24.9957 C   0  0  1  0  0  0  0  0  0  0  0  0
    8.2082  -15.8797   25.7370 C   0  0  0  0  0  0  0  0  0  0  0  0
    7.9181  -14.9658   26.8538 C   0  0  0  0  0  0  0  0  0  0  0  0
    8.0841  -15.2684   28.2029 C   0  0  0  0  0  0  0  0  0  0  0  0
    7.7541  -14.2118   28.9473 N   0  0  0  0  0  0  0  0  0  0  0  0
    7.3712  -13.2120   28.1220 C   0  0  0  0  0  0  0  0  0  0  0  0
    6.9286  -11.9216   28.3409 C   0  0  0  0  0  0  0  0  0  0  0  0
    6.5988  -11.1328   27.2733 C   0  0  0  0  0  0  0  0  0  0  0  0
    6.6886  -11.5704   25.9762 C   0  0  0  0  0  0  0  0  0  0  0  0
    7.1320  -12.8614   25.7584 C   0  0  0  0  0  0  0  0  0  0  0  0
    7.4708  -13.6763   26.8088 C   0  0  0  0  0  0  0  0  0  0  0  0
    7.2155  -16.4447   23.5427 C   0  0  0  0  0  0  0  0  0  0  0  0
    6.9260  -17.4918   22.9219 O   0  0  0  0  0  0  0  0  0  0  0  0
    7.9314  -12.6065   18.8042 C   0  0  0  0  0  0  0  0  0  0  0  0
    8.0998  -13.9919   19.4149 C   0  0  0  0  0  0  0  0  0  0  0  0
    7.8402  -13.9872   20.8863 C   0  0  2  0  0  0  0  0  0  0  0  0
    8.8131  -13.0733   21.6183 C   0  0  0  0  0  0  0  0  0  0  0  0
    8.0570  -15.3719   21.4361 C   0  0  2  0  0  0  0  0  0  0  0  0
    7.8346  -15.3364   22.8667 N   0  0  0  0  0  0  0  0  0  0  0  0
    9.4591  -15.8535   21.2342 C   0  0  0  0  0  0  0  0  0  0  0  0
    9.9721  -15.9432   20.0785 O   0  0  0  0  0  0  0  0  0  0  0  0
   10.2752  -16.2309   22.3359 N   0  0  0  0  0  0  0  0  0  0  0  0
   11.6310  -16.7344   22.0715 C   0  0  1  0  0  0  0  0  0  0  0  0
   11.5663  -18.2476   22.0028 C   0  0  0  0  0  0  0  0  0  0  0  0
   12.8620  -18.8950   21.6538 C   0  0  0  0  0  0  0  0  0  0  0  0
   12.6363  -20.4034   21.7370 C   0  0  0  0  0  0  0  0  0  0  0  0
   13.8550  -21.1549   21.2476 C   0  0  0  0  0  0  0  0  0  0  0  0
   13.5405  -22.5633   21.1900 N   0  0  0  0  0  0  0  0  0  0  0  0
   12.1508  -16.1098   20.8461 C   0  0  0  0  0  0  0  0  0  0  0  0
   13.2564  -15.5001   20.8873 O   0  0  0  0  0  0  0  0  0  0  0  0
   11.5137  -16.1358   19.6211 O   0  0  0  0  0  0  0  0  0  0  0  0
  2  1  1  1
  2  3  1  0
  2 13  1  0
  3  4  1  0
  4  5  2  0
  5  6  1  0
  7  6  1  0
  8  7  2  0
  9  8  1  0
 10 11  1  0
 10  9  2  0
 11 12  2  0
 12  4  1  0
 12  7  1  0
 13 14  2  0
 13 20  1  0
 16 15  1  0
 17 19  1  0
 17 16  1  0
 17 18  1  1
 19 21  1  0
 19 20  1  1
 21 22  2  0
 23 21  1  0
 23 24  1  0
 24 25  1  6
 24 30  1  0
 26 27  1  0
 26 25  1  0
 27 28  1  0
 29 28  1  0
 30 32  1  0
 31 30  2  0
M  END
$$$$
