WIK.pdb
     RDKit          3D

 32 33  0  0  1  0  0  0  0  0999 V2000
    6.8169  -18.4659   26.3615 N   0  0  0  0  0  0  0  0  0  0  0  0
    7.5756  -17.3085   25.9754 C   0  0  1  0  0  0  0  0  0  0  0  0
    9.0294  -17.3971   26.3542 C   0  0  0  0  0  0  0  0  0  0  0  0
    9.3766  -16.4099   27.3895 C   0  0  0  0  0  0  0  0  0  0  0  0
   10.0564  -16.6915   28.5718 C   0  0  0  0  0  0  0  0  0  0  0  0
   10.2295  -15.5694   29.2720 N   0  0  0  0  0  0  0  0  0  0  0  0
    9.6787  -14.5465   28.5809 C   0  0  0  0  0  0  0  0  0  0  0  0
    9.5607  -13.1923   28.8285 C   0  0  0  0  0  0  0  0  0  0  0  0
    8.9240  -12.3945   27.9182 C   0  0  0  0  0  0  0  0  0  0  0  0
    8.3891  -12.8841   26.7536 C   0  0  0  0  0  0  0  0  0  0  0  0
    8.5081  -14.2390   26.5067 C   0  0  0  0  0  0  0  0  0  0  0  0
    9.1419  -15.0646   27.4004 C   0  0  0  0  0  0  0  0  0  0  0  0
    7.4053  -17.1144   24.5098 C   0  0  0  0  0  0  0  0  0  0  0  0
    6.9351  -17.9908   23.7507 O   0  0  0  0  0  0  0  0  0  0  0  0
    6.6407  -11.9601   22.9911 C   0  0  0  0  0  0  0  0  0  0  0  0
    6.6650  -13.4777   23.1212 C   0  0  0  0  0  0  0  0  0  0  0  0
    7.7982  -14.0839   22.3592 C   0  0  2  0  0  0  0  0  0  0  0  0
    7.6446  -13.8561   20.8618 C   0  0  0  0  0  0  0  0  0  0  0  0
    7.7995  -15.5749   22.5678 C   0  0  2  0  0  0  0  0  0  0  0  0
    7.8190  -15.8380   23.9917 N   0  0  0  0  0  0  0  0  0  0  0  0
    9.0171  -16.2304   21.9963 C   0  0  0  0  0  0  0  0  0  0  0  0
    8.9690  -16.9030   20.9228 O   0  0  0  0  0  0  0  0  0  0  0  0
   10.2818  -16.1239   22.6375 N   0  0  0  0  0  0  0  0  0  0  0  0
   11.4308  -16.8341   22.0568 C   0  0  1  0  0  0  0  0  0  0  0  0
   12.3708  -15.8029   21.4635 C   0  0  0  0  0  0  0  0  0  0  0  0
   11.8733  -15.1823   20.2036 C   0  0  0  0  0  0  0  0  0  0  0  0
   12.8497  -14.0622   19.8500 C   0  0  0  0  0  0  0  0  0  0  0  0
   13.7015  -14.4501   18.6610 C   0  0  0  0  0  0  0  0  0  0  0  0
   14.4195  -13.2836   18.2033 N   0  0  0  0  0  0  0  0  0  0  0  0
   12.0538  -17.6759   23.0888 C   0  0  0  0  0  0  0  0  0  0  0  0
   13.0371  -18.4050   22.7773 O   0  0  0  0  0  0  0  0  0  0  0  0
   11.6422  -17.7365   24.4057 O   0  0  0  0  0  0  0  0  0  0  0  0
  2  1  1  6
  2  3  1  0
  2 13  1  0
  3  4  1  0
  4  5  2  0
  5  6  1  0
  7  6  1  0
  8  7  2  0
  9  8  1  0
 10 11  1  0
 10  9  2  0
 11 12  2  0
 12  4  1  0
 12  7  1  0
 13 14  2  0
 13 20  1  0
 16 15  1  0
 17 19  1  0
 17 16  1  0
 17 18  1  6
 19 21  1  0
 19 20  1  1
 21 22  2  0
 23 21  1  0
 23 24  1  0
 24 25  1  1
 24 30  1  0
 26 27  1  0
 26 25  1  0
 27 28  1  0
 29 28  1  0
 30 32  1  0
 31 30  2  0
M  END
$$$$
