WIK.pdb
     RDKit          3D

 32 33  0  0  1  0  0  0  0  0999 V2000
    6.3227  -17.7398   24.2507 N   0  0  0  0  0  0  0  0  0  0  0  0
    7.4098  -16.8190   24.0652 C   0  0  1  0  0  0  0  0  0  0  0  0
    8.0005  -16.3279   25.3594 C   0  0  0  0  0  0  0  0  0  0  0  0
    7.2080  -15.2257   25.9283 C   0  0  0  0  0  0  0  0  0  0  0  0
    6.1642  -15.3735   26.8382 C   0  0  0  0  0  0  0  0  0  0  0  0
    5.6790  -14.1755   27.1682 N   0  0  0  0  0  0  0  0  0  0  0  0
    6.3776  -13.2330   26.4965 C   0  0  0  0  0  0  0  0  0  0  0  0
    6.3030  -11.8542   26.4495 C   0  0  0  0  0  0  0  0  0  0  0  0
    7.1646  -11.1605   25.6451 C   0  0  0  0  0  0  0  0  0  0  0  0
    8.1132  -11.7798   24.8714 C   0  0  0  0  0  0  0  0  0  0  0  0
    8.1872  -13.1593   24.9196 C   0  0  0  0  0  0  0  0  0  0  0  0
    7.3372  -13.8827   25.7173 C   0  0  0  0  0  0  0  0  0  0  0  0
    8.4354  -17.4828   23.2154 C   0  0  0  0  0  0  0  0  0  0  0  0
    8.6712  -18.7109   23.2562 O   0  0  0  0  0  0  0  0  0  0  0  0
   11.0858  -17.7561   18.4289 C   0  0  0  0  0  0  0  0  0  0  0  0
   11.5170  -16.7120   19.4509 C   0  0  0  0  0  0  0  0  0  0  0  0
   10.3701  -16.2431   20.2858 C   0  0  2  0  0  0  0  0  0  0  0  0
   10.6212  -14.8475   20.8398 C   0  0  0  0  0  0  0  0  0  0  0  0
   10.2121  -17.1537   21.4742 C   0  0  2  0  0  0  0  0  0  0  0  0
    9.1640  -16.6235   22.3212 N   0  0  0  0  0  0  0  0  0  0  0  0
   11.4487  -17.2160   22.3143 C   0  0  0  0  0  0  0  0  0  0  0  0
   12.5898  -17.4278   21.8043 O   0  0  0  0  0  0  0  0  0  0  0  0
   11.3924  -17.0390   23.7240 N   0  0  0  0  0  0  0  0  0  0  0  0
   12.6525  -16.9636   24.4779 C   0  0  1  0  0  0  0  0  0  0  0  0
   12.3135  -16.8458   25.9510 C   0  0  0  0  0  0  0  0  0  0  0  0
   11.3606  -15.7453   26.2681 C   0  0  0  0  0  0  0  0  0  0  0  0
   11.1051  -15.8049   27.7729 C   0  0  0  0  0  0  0  0  0  0  0  0
   10.0643  -14.7848   28.1801 C   0  0  0  0  0  0  0  0  0  0  0  0
    9.8656  -14.8682   29.6081 N   0  0  0  0  0  0  0  0  0  0  0  0
   13.4825  -18.1335   24.1551 C   0  0  0  0  0  0  0  0  0  0  0  0
   12.9251  -19.1873   23.7374 O   0  0  0  0  0  0  0  0  0  0  0  0
   14.8578  -18.1765   24.2733 O   0  0  0  0  0  0  0  0  0  0  0  0
  2  1  1  1
  2  3  1  0
  2 13  1  0
  3  4  1  0
  4  5  2  0
  5  6  1  0
  7  6  1  0
  8  7  2  0
  9  8  1  0
 10 11  1  0
 10  9  2  0
 11 12  2  0
 12  4  1  0
 12  7  1  0
 13 14  2  0
 13 20  1  0
 16 15  1  0
 17 19  1  0
 17 16  1  0
 17 18  1  1
 19 21  1  0
 19 20  1  1
 21 22  2  0
 23 21  1  0
 23 24  1  0
 24 25  1  1
 24 30  1  0
 26 27  1  0
 26 25  1  0
 27 28  1  0
 29 28  1  0
 30 32  1  0
 31 30  2  0
M  END
$$$$
