WIK.pdb
     RDKit          3D

 32 33  0  0  1  0  0  0  0  0999 V2000
    5.9875  -17.3493   25.5961 N   0  0  0  0  0  0  0  0  0  0  0  0
    6.8406  -16.2789   25.1595 C   0  0  1  0  0  0  0  0  0  0  0  0
    8.0986  -16.1505   25.9757 C   0  0  0  0  0  0  0  0  0  0  0  0
    8.0193  -15.0170   26.9115 C   0  0  0  0  0  0  0  0  0  0  0  0
    8.6920  -14.9313   28.1278 C   0  0  0  0  0  0  0  0  0  0  0  0
    8.4200  -13.7642   28.7136 N   0  0  0  0  0  0  0  0  0  0  0  0
    7.5796  -13.0711   27.9131 C   0  0  0  0  0  0  0  0  0  0  0  0
    6.9772  -11.8323   28.0202 C   0  0  0  0  0  0  0  0  0  0  0  0
    6.1478  -11.3986   27.0230 C   0  0  0  0  0  0  0  0  0  0  0  0
    5.8824  -12.1481   25.9049 C   0  0  0  0  0  0  0  0  0  0  0  0
    6.4860  -13.3871   25.7986 C   0  0  0  0  0  0  0  0  0  0  0  0
    7.3234  -13.8492   26.7821 C   0  0  0  0  0  0  0  0  0  0  0  0
    7.1454  -16.4916   23.7186 C   0  0  0  0  0  0  0  0  0  0  0  0
    7.0312  -17.5995   23.1485 O   0  0  0  0  0  0  0  0  0  0  0  0
    8.0517  -12.7071   18.8854 C   0  0  0  0  0  0  0  0  0  0  0  0
    8.0958  -14.0868   19.5297 C   0  0  0  0  0  0  0  0  0  0  0  0
    7.8032  -14.0274   20.9937 C   0  0  2  0  0  0  0  0  0  0  0  0
    8.8368  -13.1887   21.7325 C   0  0  0  0  0  0  0  0  0  0  0  0
    7.8814  -15.4138   21.5753 C   0  0  2  0  0  0  0  0  0  0  0  0
    7.5909  -15.3332   22.9917 N   0  0  0  0  0  0  0  0  0  0  0  0
    9.2493  -16.0078   21.4537 C   0  0  0  0  0  0  0  0  0  0  0  0
   10.1257  -15.8507   22.3560 O   0  0  0  0  0  0  0  0  0  0  0  0
    9.6215  -16.7756   20.3162 N   0  0  0  0  0  0  0  0  0  0  0  0
   10.8865  -17.5242   20.3517 C   0  0  1  0  0  0  0  0  0  0  0  0
   10.9142  -18.4588   19.1582 C   0  0  0  0  0  0  0  0  0  0  0  0
   12.1991  -19.1950   18.9939 C   0  0  0  0  0  0  0  0  0  0  0  0
   12.0574  -20.0515   17.7371 C   0  0  0  0  0  0  0  0  0  0  0  0
   13.3197  -20.8473   17.4865 C   0  0  0  0  0  0  0  0  0  0  0  0
   13.1048  -22.2082   17.9195 N   0  0  0  0  0  0  0  0  0  0  0  0
   12.0107  -16.5772   20.3859 C   0  0  0  0  0  0  0  0  0  0  0  0
   11.9737  -15.5511   19.6501 O   0  0  0  0  0  0  0  0  0  0  0  0
   13.1333  -16.7202   21.1774 O   0  0  0  0  0  0  0  0  0  0  0  0
  2  1  1  1
  2  3  1  0
  2 13  1  0
  3  4  1  0
  4  5  2  0
  5  6  1  0
  7  6  1  0
  8  7  2  0
  9  8  1  0
 10 11  1  0
 10  9  2  0
 11 12  2  0
 12  4  1  0
 12  7  1  0
 13 14  2  0
 13 20  1  0
 16 15  1  0
 17 19  1  0
 17 16  1  0
 17 18  1  1
 19 21  1  0
 19 20  1  1
 21 22  2  0
 23 21  1  0
 23 24  1  0
 24 25  1  6
 24 30  1  0
 26 27  1  0
 26 25  1  0
 27 28  1  0
 29 28  1  0
 30 32  1  0
 31 30  2  0
M  END
$$$$
