WIK.pdb
     RDKit          3D

 32 33  0  0  1  0  0  0  0  0999 V2000
    5.8757  -18.1374   24.5927 N   0  0  0  0  0  0  0  0  0  0  0  0
    6.4751  -16.8360   24.4875 C   0  0  1  0  0  0  0  0  0  0  0  0
    7.1072  -16.3671   25.7703 C   0  0  0  0  0  0  0  0  0  0  0  0
    6.5256  -15.0926   26.2221 C   0  0  0  0  0  0  0  0  0  0  0  0
    5.2221  -14.9230   26.6819 C   0  0  0  0  0  0  0  0  0  0  0  0
    5.0288  -13.6511   27.0343 N   0  0  0  0  0  0  0  0  0  0  0  0
    6.1764  -12.9699   26.8182 C   0  0  0  0  0  0  0  0  0  0  0  0
    6.5397  -11.6485   26.9939 C   0  0  0  0  0  0  0  0  0  0  0  0
    7.8062  -11.2494   26.6665 C   0  0  0  0  0  0  0  0  0  0  0  0
    8.7461  -12.1133   26.1642 C   0  0  0  0  0  0  0  0  0  0  0  0
    8.3816  -13.4351   25.9893 C   0  0  0  0  0  0  0  0  0  0  0  0
    7.1189  -13.8657   26.3092 C   0  0  0  0  0  0  0  0  0  0  0  0
    7.4628  -16.8726   23.3750 C   0  0  0  0  0  0  0  0  0  0  0  0
    7.9942  -17.9276   22.9625 O   0  0  0  0  0  0  0  0  0  0  0  0
    6.9702  -12.7009   19.8761 C   0  0  0  0  0  0  0  0  0  0  0  0
    7.2480  -14.0863   20.4452 C   0  0  0  0  0  0  0  0  0  0  0  0
    8.6156  -14.1804   21.0393 C   0  0  2  0  0  0  0  0  0  0  0  0
    9.6928  -14.1142   19.9655 C   0  0  0  0  0  0  0  0  0  0  0  0
    8.7730  -15.5128   21.7223 C   0  0  2  0  0  0  0  0  0  0  0  0
    7.7884  -15.6041   22.7803 N   0  0  0  0  0  0  0  0  0  0  0  0
   10.1122  -15.6672   22.3715 C   0  0  0  0  0  0  0  0  0  0  0  0
   10.4130  -15.0433   23.4332 O   0  0  0  0  0  0  0  0  0  0  0  0
   11.1044  -16.5240   21.8208 N   0  0  0  0  0  0  0  0  0  0  0  0
   12.2787  -16.8626   22.6382 C   0  0  1  0  0  0  0  0  0  0  0  0
   11.9880  -18.1614   23.3647 C   0  0  0  0  0  0  0  0  0  0  0  0
   13.1485  -18.7037   24.1256 C   0  0  0  0  0  0  0  0  0  0  0  0
   12.6534  -19.9535   24.8507 C   0  0  0  0  0  0  0  0  0  0  0  0
   13.7767  -20.5994   25.6322 C   0  0  0  0  0  0  0  0  0  0  0  0
   13.2773  -21.8029   26.2552 N   0  0  0  0  0  0  0  0  0  0  0  0
   13.4692  -16.9217   21.7773 C   0  0  0  0  0  0  0  0  0  0  0  0
   14.5707  -16.4896   22.2197 O   0  0  0  0  0  0  0  0  0  0  0  0
   13.4832  -17.4244   20.4911 O   0  0  0  0  0  0  0  0  0  0  0  0
  2  1  1  1
  2  3  1  0
  2 13  1  0
  3  4  1  0
  4  5  2  0
  5  6  1  0
  7  6  1  0
  8  7  2  0
  9  8  1  0
 10 11  1  0
 10  9  2  0
 11 12  2  0
 12  4  1  0
 12  7  1  0
 13 14  2  0
 13 20  1  0
 16 15  1  0
 17 19  1  0
 17 16  1  0
 17 18  1  6
 19 21  1  0
 19 20  1  1
 21 22  2  0
 23 21  1  0
 23 24  1  0
 24 25  1  6
 24 30  1  0
 26 27  1  0
 26 25  1  0
 27 28  1  0
 29 28  1  0
 30 32  1  0
 31 30  2  0
M  END
$$$$
