WIK.pdb
     RDKit          3D

 32 33  0  0  1  0  0  0  0  0999 V2000
    5.2287  -17.9971   24.2912 N   0  0  0  0  0  0  0  0  0  0  0  0
    6.1283  -16.8813   24.1921 C   0  0  1  0  0  0  0  0  0  0  0  0
    6.8993  -16.6250   25.4590 C   0  0  0  0  0  0  0  0  0  0  0  0
    6.5990  -15.2941   26.0115 C   0  0  0  0  0  0  0  0  0  0  0  0
    5.3268  -14.8244   26.3279 C   0  0  0  0  0  0  0  0  0  0  0  0
    5.4120  -13.5915   26.8298 N   0  0  0  0  0  0  0  0  0  0  0  0
    6.7144  -13.2300   26.8538 C   0  0  0  0  0  0  0  0  0  0  0  0
    7.3707  -12.0831   27.2570 C   0  0  0  0  0  0  0  0  0  0  0  0
    8.7321  -12.0123   27.1464 C   0  0  0  0  0  0  0  0  0  0  0  0
    9.4869  -13.0428   26.6459 C   0  0  0  0  0  0  0  0  0  0  0  0
    8.8292  -14.1900   26.2431 C   0  0  0  0  0  0  0  0  0  0  0  0
    7.4646  -14.2911   26.3425 C   0  0  0  0  0  0  0  0  0  0  0  0
    7.0385  -17.1247   23.0402 C   0  0  0  0  0  0  0  0  0  0  0  0
    7.4977  -18.2528   22.7538 O   0  0  0  0  0  0  0  0  0  0  0  0
    8.4523  -12.3807   20.2281 C   0  0  0  0  0  0  0  0  0  0  0  0
    8.5109  -13.6670   21.0422 C   0  0  0  0  0  0  0  0  0  0  0  0
    8.0635  -14.8501   20.2469 C   0  0  2  0  0  0  0  0  0  0  0  0
    6.5885  -14.7492   19.8842 C   0  0  0  0  0  0  0  0  0  0  0  0
    8.2162  -16.0967   21.0773 C   0  0  2  0  0  0  0  0  0  0  0  0
    7.3762  -15.9711   22.2502 N   0  0  0  0  0  0  0  0  0  0  0  0
    9.6153  -16.2850   21.5728 C   0  0  0  0  0  0  0  0  0  0  0  0
    9.9791  -15.8686   22.7135 O   0  0  0  0  0  0  0  0  0  0  0  0
   10.5964  -16.9418   20.7802 N   0  0  0  0  0  0  0  0  0  0  0  0
   11.8474  -17.3752   21.4196 C   0  0  1  0  0  0  0  0  0  0  0  0
   12.3828  -18.5655   20.6480 C   0  0  0  0  0  0  0  0  0  0  0  0
   13.6775  -19.0910   21.1650 C   0  0  0  0  0  0  0  0  0  0  0  0
   13.6794  -20.5950   20.8984 C   0  0  0  0  0  0  0  0  0  0  0  0
   14.9722  -21.2214   21.3737 C   0  0  0  0  0  0  0  0  0  0  0  0
   14.9862  -22.6118   20.9832 N   0  0  0  0  0  0  0  0  0  0  0  0
   12.7815  -16.2411   21.4778 C   0  0  0  0  0  0  0  0  0  0  0  0
   13.6661  -16.2181   22.3792 O   0  0  0  0  0  0  0  0  0  0  0  0
   12.7717  -15.1709   20.6050 O   0  0  0  0  0  0  0  0  0  0  0  0
  2  1  1  1
  2  3  1  0
  2 13  1  0
  3  4  1  0
  4  5  2  0
  5  6  1  0
  7  6  1  0
  8  7  2  0
  9  8  1  0
 10 11  1  0
 10  9  2  0
 11 12  2  0
 12  4  1  0
 12  7  1  0
 13 14  2  0
 13 20  1  0
 16 15  1  0
 17 19  1  0
 17 16  1  0
 17 18  1  1
 19 21  1  0
 19 20  1  1
 21 22  2  0
 23 21  1  0
 23 24  1  0
 24 25  1  6
 24 30  1  0
 26 27  1  0
 26 25  1  0
 27 28  1  0
 29 28  1  0
 30 32  1  0
 31 30  2  0
M  END
$$$$
