EKP.pdb
     RDKit          3D

 26 26  0  0  1  0  0  0  0  0999 V2000
    8.2203  -13.4482   19.1840 N   0  0  0  0  0  0  0  0  0  0  0  0
    8.9415  -14.3517   20.0187 C   0  0  1  0  0  0  0  0  0  0  0  0
   10.3425  -13.7785   20.2724 C   0  0  0  0  0  0  0  0  0  0  0  0
   11.3287  -14.3896   19.3002 C   0  0  0  0  0  0  0  0  0  0  0  0
   12.7225  -14.0429   19.6357 C   0  0  0  0  0  0  0  0  0  0  0  0
   13.2160  -14.4191   20.7297 O   0  0  0  0  0  0  0  0  0  0  0  0
    8.2897  -14.4417   21.3423 C   0  0  0  0  0  0  0  0  0  0  0  0
    7.6122  -13.4662   21.7446 O   0  0  0  0  0  0  0  0  0  0  0  0
   13.5420  -13.3057   18.7908 O   0  0  0  0  0  0  0  0  0  0  0  0
    8.3962  -15.5675   22.1641 N   0  0  0  0  0  0  0  0  0  0  0  0
    7.6207  -15.7429   23.4101 C   0  0  1  0  0  0  0  0  0  0  0  0
    7.5103  -17.2225   23.6720 C   0  0  0  0  0  0  0  0  0  0  0  0
    6.9428  -17.5384   25.0037 C   0  0  0  0  0  0  0  0  0  0  0  0
    6.9973  -19.0500   25.2937 C   0  0  0  0  0  0  0  0  0  0  0  0
    6.2920  -19.3911   26.5727 C   0  0  0  0  0  0  0  0  0  0  0  0
    6.3542  -20.8432   26.7686 N   0  0  0  0  0  0  0  0  0  0  0  0
    8.2919  -14.9679   24.4449 C   0  0  0  0  0  0  0  0  0  0  0  0
    9.5846  -14.9594   24.4147 O   0  0  0  0  0  0  0  0  0  0  0  0
    7.6696  -14.2239   25.4676 N   0  0  0  0  0  0  0  0  0  0  0  0
    6.2513  -14.0030   25.6424 C   0  0  0  0  0  0  0  0  0  0  0  0
    6.2057  -12.5605   26.1720 C   0  0  0  0  0  0  0  0  0  0  0  0
    7.3189  -12.6016   27.1724 C   0  0  0  0  0  0  0  0  0  0  0  0
    8.3553  -13.4789   26.5086 C   0  0  1  0  0  0  0  0  0  0  0  0
    8.9430  -14.3576   27.5273 C   0  0  0  0  0  0  0  0  0  0  0  0
    8.7112  -15.7349   27.5913 O   0  0  0  0  0  0  0  0  0  0  0  0
    9.6947  -13.8459   28.3884 O   0  0  0  0  0  0  0  0  0  0  0  0
  2  7  1  0
  2  1  1  6
  3  2  1  0
  4  5  1  0
  4  3  1  0
  5  6  2  0
  7  8  2  0
  9  5  1  0
 10  7  1  0
 10 11  1  0
 11 12  1  1
 13 12  1  0
 13 14  1  0
 14 15  1  0
 15 16  1  0
 17 11  1  0
 18 17  2  0
 19 17  1  0
 19 23  1  0
 20 21  1  0
 20 19  1  0
 21 22  1  0
 22 23  1  0
 23 24  1  1
 24 25  1  0
 26 24  2  0
M  END
$$$$
