EKP.pdb
     RDKit          3D

 26 26  0  0  1  0  0  0  0  0999 V2000
   11.9343  -17.0239   20.4774 N   0  0  0  0  0  0  0  0  0  0  0  0
   11.8851  -17.2763   21.8800 C   0  0  1  0  0  0  0  0  0  0  0  0
   13.3131  -17.2295   22.4407 C   0  0  0  0  0  0  0  0  0  0  0  0
   13.7901  -18.6339   22.7427 C   0  0  0  0  0  0  0  0  0  0  0  0
   15.1378  -18.6429   23.3419 C   0  0  0  0  0  0  0  0  0  0  0  0
   16.1506  -18.7577   22.6050 O   0  0  0  0  0  0  0  0  0  0  0  0
   11.1424  -16.1938   22.5592 C   0  0  0  0  0  0  0  0  0  0  0  0
   11.7817  -15.3832   23.2712 O   0  0  0  0  0  0  0  0  0  0  0  0
   15.3577  -18.5289   24.7085 O   0  0  0  0  0  0  0  0  0  0  0  0
    9.7585  -16.0352   22.4418 N   0  0  0  0  0  0  0  0  0  0  0  0
    9.0154  -14.9014   23.0310 C   0  0  1  0  0  0  0  0  0  0  0  0
    7.9043  -14.5425   22.0788 C   0  0  0  0  0  0  0  0  0  0  0  0
    8.3816  -13.8449   20.8620 C   0  0  0  0  0  0  0  0  0  0  0  0
    7.4063  -14.0359   19.6855 C   0  0  0  0  0  0  0  0  0  0  0  0
    7.9777  -13.5046   18.4046 C   0  0  0  0  0  0  0  0  0  0  0  0
    6.9800  -13.6707   17.3426 N   0  0  0  0  0  0  0  0  0  0  0  0
    8.5954  -15.3113   24.3642 C   0  0  0  0  0  0  0  0  0  0  0  0
    8.6878  -16.5717   24.6381 O   0  0  0  0  0  0  0  0  0  0  0  0
    8.1063  -14.4683   25.3824 N   0  0  0  0  0  0  0  0  0  0  0  0
    7.9604  -13.0307   25.3258 C   0  0  0  0  0  0  0  0  0  0  0  0
    8.3167  -12.6071   26.7601 C   0  0  0  0  0  0  0  0  0  0  0  0
    7.5623  -13.6359   27.5439 C   0  0  0  0  0  0  0  0  0  0  0  0
    7.7165  -14.8909   26.7159 C   0  0  1  0  0  0  0  0  0  0  0  0
    6.4374  -15.6114   26.7202 C   0  0  0  0  0  0  0  0  0  0  0  0
    5.5600  -15.6415   25.6320 O   0  0  0  0  0  0  0  0  0  0  0  0
    6.1125  -16.2349   27.7565 O   0  0  0  0  0  0  0  0  0  0  0  0
  2  7  1  0
  2  1  1  6
  3  2  1  0
  4  5  1  0
  4  3  1  0
  5  6  2  0
  7  8  2  0
  9  5  1  0
 10  7  1  0
 10 11  1  0
 11 12  1  6
 13 12  1  0
 13 14  1  0
 14 15  1  0
 15 16  1  0
 17 11  1  0
 18 17  2  0
 19 17  1  0
 19 23  1  0
 20 21  1  0
 20 19  1  0
 21 22  1  0
 22 23  1  0
 23 24  1  6
 24 25  1  0
 26 24  2  0
M  END
$$$$
