EKP.pdb
     RDKit          3D

 26 26  0  0  1  0  0  0  0  0999 V2000
    6.5645  -17.9675   20.2257 N   0  0  0  0  0  0  0  0  0  0  0  0
    7.5996  -17.1489   20.7659 C   0  0  1  0  0  0  0  0  0  0  0  0
    8.0930  -16.1910   19.6727 C   0  0  0  0  0  0  0  0  0  0  0  0
    7.7651  -14.7642   20.0571 C   0  0  0  0  0  0  0  0  0  0  0  0
    8.2301  -13.7982   19.0441 C   0  0  0  0  0  0  0  0  0  0  0  0
    9.4612  -13.5845   18.9005 O   0  0  0  0  0  0  0  0  0  0  0  0
    7.0547  -16.2957   21.8429 C   0  0  0  0  0  0  0  0  0  0  0  0
    5.8844  -15.8596   21.7283 O   0  0  0  0  0  0  0  0  0  0  0  0
    7.3637  -13.0931   18.2188 O   0  0  0  0  0  0  0  0  0  0  0  0
    7.7878  -15.9544   22.9831 N   0  0  0  0  0  0  0  0  0  0  0  0
    7.2648  -16.0903   24.3589 C   0  0  1  0  0  0  0  0  0  0  0  0
    7.3274  -17.5500   24.7267 C   0  0  0  0  0  0  0  0  0  0  0  0
    6.8400  -17.8273   26.0981 C   0  0  0  0  0  0  0  0  0  0  0  0
    7.6315  -18.9738   26.7548 C   0  0  0  0  0  0  0  0  0  0  0  0
    6.8572  -20.2582   26.7370 C   0  0  0  0  0  0  0  0  0  0  0  0
    7.6255  -21.2575   25.9873 N   0  0  0  0  0  0  0  0  0  0  0  0
    8.0425  -15.1934   25.2031 C   0  0  0  0  0  0  0  0  0  0  0  0
    9.3291  -15.2970   25.1265 O   0  0  0  0  0  0  0  0  0  0  0  0
    7.5290  -14.2227   26.0868 N   0  0  0  0  0  0  0  0  0  0  0  0
    6.1477  -13.8191   26.2279 C   0  0  0  0  0  0  0  0  0  0  0  0
    6.2718  -12.3118   26.5040 C   0  0  0  0  0  0  0  0  0  0  0  0
    7.3971  -12.3070   27.4916 C   0  0  0  0  0  0  0  0  0  0  0  0
    8.3160  -13.3936   26.9823 C   0  0  1  0  0  0  0  0  0  0  0  0
    8.8282  -14.1474   28.1333 C   0  0  0  0  0  0  0  0  0  0  0  0
    9.7600  -13.6374   29.0424 O   0  0  0  0  0  0  0  0  0  0  0  0
    8.4076  -15.3133   28.3122 O   0  0  0  0  0  0  0  0  0  0  0  0
  2  7  1  0
  2  1  1  6
  3  2  1  0
  4  5  1  0
  4  3  1  0
  5  6  2  0
  7  8  2  0
  9  5  1  0
 10  7  1  0
 10 11  1  0
 11 12  1  1
 13 12  1  0
 13 14  1  0
 14 15  1  0
 15 16  1  0
 17 11  1  0
 18 17  2  0
 19 17  1  0
 19 23  1  0
 20 21  1  0
 20 19  1  0
 21 22  1  0
 22 23  1  0
 23 24  1  1
 24 25  1  0
 26 24  2  0
M  END
$$$$
