EKP.pdb
     RDKit          3D

 26 26  0  0  1  0  0  0  0  0999 V2000
    7.7586  -13.2253   19.2254 N   0  0  0  0  0  0  0  0  0  0  0  0
    8.5949  -14.0195   20.0639 C   0  0  1  0  0  0  0  0  0  0  0  0
    9.8800  -13.2359   20.3644 C   0  0  0  0  0  0  0  0  0  0  0  0
   10.8409  -13.3643   19.2019 C   0  0  0  0  0  0  0  0  0  0  0  0
   12.2126  -13.6695   19.6499 C   0  0  0  0  0  0  0  0  0  0  0  0
   13.1173  -13.8780   18.8013 O   0  0  0  0  0  0  0  0  0  0  0  0
    7.9347  -14.2396   21.3679 C   0  0  0  0  0  0  0  0  0  0  0  0
    7.1676  -13.3510   21.8092 O   0  0  0  0  0  0  0  0  0  0  0  0
   12.5713  -13.7415   20.9897 O   0  0  0  0  0  0  0  0  0  0  0  0
    8.1290  -15.3953   22.1298 N   0  0  0  0  0  0  0  0  0  0  0  0
    7.4792  -15.6283   23.4369 C   0  0  1  0  0  0  0  0  0  0  0  0
    7.4028  -17.1183   23.6471 C   0  0  0  0  0  0  0  0  0  0  0  0
    6.9653  -17.4931   25.0121 C   0  0  0  0  0  0  0  0  0  0  0  0
    7.0197  -19.0180   25.2210 C   0  0  0  0  0  0  0  0  0  0  0  0
    6.4107  -19.4162   26.5325 C   0  0  0  0  0  0  0  0  0  0  0  0
    6.4596  -20.8776   26.6467 N   0  0  0  0  0  0  0  0  0  0  0  0
    8.2435  -14.8895   24.4328 C   0  0  0  0  0  0  0  0  0  0  0  0
    9.5314  -14.9715   24.3516 O   0  0  0  0  0  0  0  0  0  0  0  0
    7.7159  -14.0916   25.4680 N   0  0  0  0  0  0  0  0  0  0  0  0
    6.3241  -13.7735   25.6975 C   0  0  0  0  0  0  0  0  0  0  0  0
    6.3971  -12.3242   26.2050 C   0  0  0  0  0  0  0  0  0  0  0  0
    7.5464  -12.4266   27.1592 C   0  0  0  0  0  0  0  0  0  0  0  0
    8.4931  -13.3805   26.4675 C   0  0  1  0  0  0  0  0  0  0  0  0
    9.0634  -14.2829   27.4753 C   0  0  0  0  0  0  0  0  0  0  0  0
   10.0370  -13.8960   28.4011 O   0  0  0  0  0  0  0  0  0  0  0  0
    8.6556  -15.4665   27.5089 O   0  0  0  0  0  0  0  0  0  0  0  0
  2  7  1  0
  2  1  1  6
  3  2  1  0
  4  5  1  0
  4  3  1  0
  5  6  2  0
  7  8  2  0
  9  5  1  0
 10  7  1  0
 10 11  1  0
 11 12  1  1
 13 12  1  0
 13 14  1  0
 14 15  1  0
 15 16  1  0
 17 11  1  0
 18 17  2  0
 19 17  1  0
 19 23  1  0
 20 21  1  0
 20 19  1  0
 21 22  1  0
 22 23  1  0
 23 24  1  1
 24 25  1  0
 26 24  2  0
M  END
$$$$
