EKP.pdb
     RDKit          3D

 26 26  0  0  1  0  0  0  0  0999 V2000
    8.0177  -13.4742   18.5811 N   0  0  0  0  0  0  0  0  0  0  0  0
    8.9017  -14.2162   19.4185 C   0  0  1  0  0  0  0  0  0  0  0  0
   10.2323  -13.4589   19.5261 C   0  0  0  0  0  0  0  0  0  0  0  0
   11.1911  -14.2322   20.4059 C   0  0  0  0  0  0  0  0  0  0  0  0
   12.4883  -14.4608   19.7423 C   0  0  0  0  0  0  0  0  0  0  0  0
   13.4372  -13.6562   19.9271 O   0  0  0  0  0  0  0  0  0  0  0  0
    8.3559  -14.2829   20.7906 C   0  0  0  0  0  0  0  0  0  0  0  0
    7.7611  -13.2784   21.2488 O   0  0  0  0  0  0  0  0  0  0  0  0
   12.7277  -15.5414   18.9034 O   0  0  0  0  0  0  0  0  0  0  0  0
    8.4746  -15.4172   21.5987 N   0  0  0  0  0  0  0  0  0  0  0  0
    7.6600  -15.6426   22.8114 C   0  0  1  0  0  0  0  0  0  0  0  0
    7.2975  -17.1044   22.8500 C   0  0  0  0  0  0  0  0  0  0  0  0
    6.5879  -17.4969   24.0900 C   0  0  0  0  0  0  0  0  0  0  0  0
    6.2014  -18.9875   24.0687 C   0  0  0  0  0  0  0  0  0  0  0  0
    5.3934  -19.3642   25.2749 C   0  0  0  0  0  0  0  0  0  0  0  0
    5.1416  -20.8085   25.2372 N   0  0  0  0  0  0  0  0  0  0  0  0
    8.4348  -15.1550   23.9444 C   0  0  0  0  0  0  0  0  0  0  0  0
    9.6825  -15.4929   23.9806 O   0  0  0  0  0  0  0  0  0  0  0  0
    7.9585  -14.3479   24.9972 N   0  0  0  0  0  0  0  0  0  0  0  0
    6.6637  -13.7104   25.0869 C   0  0  0  0  0  0  0  0  0  0  0  0
    6.9994  -12.3795   25.7793 C   0  0  0  0  0  0  0  0  0  0  0  0
    7.9302  -12.8564   26.8507 C   0  0  0  0  0  0  0  0  0  0  0  0
    8.7185  -13.9512   26.1693 C   0  0  1  0  0  0  0  0  0  0  0  0
    8.8958  -15.0570   27.1186 C   0  0  0  0  0  0  0  0  0  0  0  0
    9.8372  -15.0488   28.1523 O   0  0  0  0  0  0  0  0  0  0  0  0
    8.1632  -16.0653   26.9968 O   0  0  0  0  0  0  0  0  0  0  0  0
  2  7  1  0
  2  1  1  6
  3  2  1  0
  4  5  1  0
  4  3  1  0
  5  6  2  0
  7  8  2  0
  9  5  1  0
 10  7  1  0
 10 11  1  0
 11 12  1  1
 13 12  1  0
 13 14  1  0
 14 15  1  0
 15 16  1  0
 17 11  1  0
 18 17  2  0
 19 17  1  0
 19 23  1  0
 20 21  1  0
 20 19  1  0
 21 22  1  0
 22 23  1  0
 23 24  1  1
 24 25  1  0
 26 24  2  0
M  END
$$$$
