EKP.pdb
     RDKit          3D

 26 26  0  0  1  0  0  0  0  0999 V2000
   12.6767  -16.8401   21.5605 N   0  0  0  0  0  0  0  0  0  0  0  0
   11.4685  -17.1681   22.2431 C   0  0  1  0  0  0  0  0  0  0  0  0
   11.8180  -17.9419   23.5218 C   0  0  0  0  0  0  0  0  0  0  0  0
   12.1656  -19.3735   23.1743 C   0  0  0  0  0  0  0  0  0  0  0  0
   12.4115  -20.1902   24.3776 C   0  0  0  0  0  0  0  0  0  0  0  0
   12.6580  -21.4182   24.2620 O   0  0  0  0  0  0  0  0  0  0  0  0
   10.7899  -15.9316   22.6850 C   0  0  0  0  0  0  0  0  0  0  0  0
   11.4718  -15.0406   23.2451 O   0  0  0  0  0  0  0  0  0  0  0  0
   12.3858  -19.6671   25.6639 O   0  0  0  0  0  0  0  0  0  0  0  0
    9.4209  -15.7132   22.5051 N   0  0  0  0  0  0  0  0  0  0  0  0
    8.7181  -14.5059   22.9881 C   0  0  1  0  0  0  0  0  0  0  0  0
    7.6295  -14.1867   21.9966 C   0  0  0  0  0  0  0  0  0  0  0  0
    8.0984  -13.3560   20.8628 C   0  0  0  0  0  0  0  0  0  0  0  0
    7.6240  -13.9273   19.5136 C   0  0  0  0  0  0  0  0  0  0  0  0
    8.2227  -13.1810   18.3586 C   0  0  0  0  0  0  0  0  0  0  0  0
    7.9081  -13.9028   17.1213 N   0  0  0  0  0  0  0  0  0  0  0  0
    8.2718  -14.7848   24.3464 C   0  0  0  0  0  0  0  0  0  0  0  0
    8.4971  -15.9760   24.7963 O   0  0  0  0  0  0  0  0  0  0  0  0
    7.6268  -13.8824   25.2159 N   0  0  0  0  0  0  0  0  0  0  0  0
    7.2680  -12.5100   24.9352 C   0  0  0  0  0  0  0  0  0  0  0  0
    7.5070  -11.8236   26.2899 C   0  0  0  0  0  0  0  0  0  0  0  0
    6.8898  -12.8252   27.2160 C   0  0  0  0  0  0  0  0  0  0  0  0
    7.2595  -14.1525   26.5947 C   0  0  1  0  0  0  0  0  0  0  0  0
    6.1042  -15.0524   26.6974 C   0  0  0  0  0  0  0  0  0  0  0  0
    5.2852  -15.3903   25.6158 O   0  0  0  0  0  0  0  0  0  0  0  0
    5.8358  -15.5462   27.8165 O   0  0  0  0  0  0  0  0  0  0  0  0
  2  7  1  0
  2  1  1  1
  3  2  1  0
  4  5  1  0
  4  3  1  0
  5  6  2  0
  7  8  2  0
  9  5  1  0
 10  7  1  0
 10 11  1  0
 11 12  1  6
 13 12  1  0
 13 14  1  0
 14 15  1  0
 15 16  1  0
 17 11  1  0
 18 17  2  0
 19 17  1  0
 19 23  1  0
 20 21  1  0
 20 19  1  0
 21 22  1  0
 22 23  1  0
 23 24  1  6
 24 25  1  0
 26 24  2  0
M  END
$$$$
