EKP.pdb
     RDKit          3D

 26 26  0  0  1  0  0  0  0  0999 V2000
   10.8710  -16.2545   20.0809 N   0  0  0  0  0  0  0  0  0  0  0  0
   10.0651  -16.8083   21.1188 C   0  0  1  0  0  0  0  0  0  0  0  0
   10.5953  -18.2070   21.4627 C   0  0  0  0  0  0  0  0  0  0  0  0
   11.7657  -18.5453   20.5645 C   0  0  0  0  0  0  0  0  0  0  0  0
   12.2266  -19.9332   20.7564 C   0  0  0  0  0  0  0  0  0  0  0  0
   13.1872  -20.3746   20.0749 O   0  0  0  0  0  0  0  0  0  0  0  0
   10.2075  -16.0021   22.3494 C   0  0  0  0  0  0  0  0  0  0  0  0
   11.2451  -15.3138   22.4987 O   0  0  0  0  0  0  0  0  0  0  0  0
   11.6454  -20.8026   21.6703 O   0  0  0  0  0  0  0  0  0  0  0  0
    9.2351  -15.9741   23.3533 N   0  0  0  0  0  0  0  0  0  0  0  0
    9.2713  -15.0381   24.4968 C   0  0  1  0  0  0  0  0  0  0  0  0
    7.8951  -14.4417   24.6393 C   0  0  0  0  0  0  0  0  0  0  0  0
    7.7723  -13.5290   25.8000 C   0  0  0  0  0  0  0  0  0  0  0  0
    6.3515  -12.9445   25.9076 C   0  0  0  0  0  0  0  0  0  0  0  0
    6.2295  -12.0042   27.0698 C   0  0  0  0  0  0  0  0  0  0  0  0
    4.8647  -11.4678   27.0964 N   0  0  0  0  0  0  0  0  0  0  0  0
    9.7562  -15.7872   25.6482 C   0  0  0  0  0  0  0  0  0  0  0  0
    9.7759  -17.0750   25.5341 O   0  0  0  0  0  0  0  0  0  0  0  0
   10.2104  -15.2445   26.8671 N   0  0  0  0  0  0  0  0  0  0  0  0
   10.0507  -13.8825   27.3259 C   0  0  0  0  0  0  0  0  0  0  0  0
   11.3728  -13.6280   28.0679 C   0  0  0  0  0  0  0  0  0  0  0  0
   11.5069  -14.9077   28.8335 C   0  0  0  0  0  0  0  0  0  0  0  0
   10.9904  -15.9500   27.8685 C   0  0  1  0  0  0  0  0  0  0  0  0
   10.1850  -16.9211   28.6193 C   0  0  0  0  0  0  0  0  0  0  0  0
   10.7267  -17.8637   29.4984 O   0  0  0  0  0  0  0  0  0  0  0  0
    8.9424  -16.9054   28.4646 O   0  0  0  0  0  0  0  0  0  0  0  0
  2  7  1  0
  2  1  1  6
  3  2  1  0
  4  5  1  0
  4  3  1  0
  5  6  2  0
  7  8  2  0
  9  5  1  0
 10  7  1  0
 10 11  1  0
 11 12  1  1
 13 12  1  0
 13 14  1  0
 14 15  1  0
 15 16  1  0
 17 11  1  0
 18 17  2  0
 19 17  1  0
 19 23  1  0
 20 21  1  0
 20 19  1  0
 21 22  1  0
 22 23  1  0
 23 24  1  1
 24 25  1  0
 26 24  2  0
M  END
$$$$
