EKP.pdb
     RDKit          3D

 26 26  0  0  1  0  0  0  0  0999 V2000
    9.7807  -16.9156   19.7958 N   0  0  0  0  0  0  0  0  0  0  0  0
    9.8446  -17.6037   21.0431 C   0  0  1  0  0  0  0  0  0  0  0  0
   11.3134  -17.7043   21.4771 C   0  0  0  0  0  0  0  0  0  0  0  0
   12.2045  -17.1111   20.4069 C   0  0  0  0  0  0  0  0  0  0  0  0
   13.6292  -17.1576   20.7858 C   0  0  0  0  0  0  0  0  0  0  0  0
   14.2851  -16.0895   20.8903 O   0  0  0  0  0  0  0  0  0  0  0  0
    9.1616  -16.8128   22.0884 C   0  0  0  0  0  0  0  0  0  0  0  0
    8.9762  -15.5886   21.8890 O   0  0  0  0  0  0  0  0  0  0  0  0
   14.3049  -18.3440   21.0403 O   0  0  0  0  0  0  0  0  0  0  0  0
    8.7138  -17.3709   23.2892 N   0  0  0  0  0  0  0  0  0  0  0  0
    7.7612  -16.6964   24.1960 C   0  0  1  0  0  0  0  0  0  0  0  0
    6.8732  -17.7572   24.7929 C   0  0  0  0  0  0  0  0  0  0  0  0
    6.0315  -18.4468   23.7873 C   0  0  0  0  0  0  0  0  0  0  0  0
    5.3561  -19.6968   24.3816 C   0  0  0  0  0  0  0  0  0  0  0  0
    4.6565  -20.4995   23.3253 C   0  0  0  0  0  0  0  0  0  0  0  0
    4.1715  -21.7452   23.9286 N   0  0  0  0  0  0  0  0  0  0  0  0
    8.5491  -15.9249   25.1478 C   0  0  0  0  0  0  0  0  0  0  0  0
    9.7202  -16.3888   25.4400 O   0  0  0  0  0  0  0  0  0  0  0  0
    8.1615  -14.7226   25.7731 N   0  0  0  0  0  0  0  0  0  0  0  0
    7.0332  -13.8870   25.4272 C   0  0  0  0  0  0  0  0  0  0  0  0
    7.5823  -12.4728   25.6765 C   0  0  0  0  0  0  0  0  0  0  0  0
    8.2817  -12.6783   26.9844 C   0  0  0  0  0  0  0  0  0  0  0  0
    8.8748  -14.0622   26.8519 C   0  0  1  0  0  0  0  0  0  0  0  0
    8.7173  -14.7607   28.1334 C   0  0  0  0  0  0  0  0  0  0  0  0
    9.4782  -14.4756   29.2712 O   0  0  0  0  0  0  0  0  0  0  0  0
    7.8530  -15.6633   28.2136 O   0  0  0  0  0  0  0  0  0  0  0  0
  2  7  1  0
  2  1  1  6
  3  2  1  0
  4  5  1  0
  4  3  1  0
  5  6  2  0
  7  8  2  0
  9  5  1  0
 10  7  1  0
 10 11  1  0
 11 12  1  1
 13 12  1  0
 13 14  1  0
 14 15  1  0
 15 16  1  0
 17 11  1  0
 18 17  2  0
 19 17  1  0
 19 23  1  0
 20 21  1  0
 20 19  1  0
 21 22  1  0
 22 23  1  0
 23 24  1  1
 24 25  1  0
 26 24  2  0
M  END
$$$$
