EKP.pdb
     RDKit          3D

 26 26  0  0  1  0  0  0  0  0999 V2000
    7.9574  -13.2272   19.2621 N   0  0  0  0  0  0  0  0  0  0  0  0
    8.7120  -14.1885   19.9968 C   0  0  1  0  0  0  0  0  0  0  0  0
   10.1486  -13.6719   20.1559 C   0  0  0  0  0  0  0  0  0  0  0  0
   11.1084  -14.6036   19.4475 C   0  0  0  0  0  0  0  0  0  0  0  0
   12.5118  -14.1805   19.6116 C   0  0  0  0  0  0  0  0  0  0  0  0
   13.0520  -13.4502   18.7415 O   0  0  0  0  0  0  0  0  0  0  0  0
    8.1679  -14.3146   21.3653 C   0  0  0  0  0  0  0  0  0  0  0  0
    7.6837  -13.2964   21.9143 O   0  0  0  0  0  0  0  0  0  0  0  0
   13.2906  -14.5520   20.6998 O   0  0  0  0  0  0  0  0  0  0  0  0
    8.1702  -15.5199   22.0733 N   0  0  0  0  0  0  0  0  0  0  0  0
    7.4526  -15.7159   23.3506 C   0  0  1  0  0  0  0  0  0  0  0  0
    7.3752  -17.1989   23.6053 C   0  0  0  0  0  0  0  0  0  0  0  0
    6.8712  -17.5329   24.9579 C   0  0  0  0  0  0  0  0  0  0  0  0
    6.9458  -19.0473   25.2275 C   0  0  0  0  0  0  0  0  0  0  0  0
    6.3158  -19.4045   26.5409 C   0  0  0  0  0  0  0  0  0  0  0  0
    6.3922  -20.8586   26.7166 N   0  0  0  0  0  0  0  0  0  0  0  0
    8.1571  -14.9386   24.3612 C   0  0  0  0  0  0  0  0  0  0  0  0
    9.4487  -14.9971   24.3399 O   0  0  0  0  0  0  0  0  0  0  0  0
    7.5684  -14.1268   25.3516 N   0  0  0  0  0  0  0  0  0  0  0  0
    6.1835  -13.7184   25.4313 C   0  0  0  0  0  0  0  0  0  0  0  0
    6.2935  -12.2877   25.9830 C   0  0  0  0  0  0  0  0  0  0  0  0
    7.3168  -12.4875   27.0576 C   0  0  0  0  0  0  0  0  0  0  0  0
    8.2714  -13.4904   26.4514 C   0  0  1  0  0  0  0  0  0  0  0  0
    8.6619  -14.4493   27.4922 C   0  0  0  0  0  0  0  0  0  0  0  0
    9.5230  -14.1395   28.5491 O   0  0  0  0  0  0  0  0  0  0  0  0
    8.1982  -15.6110   27.4311 O   0  0  0  0  0  0  0  0  0  0  0  0
  2  7  1  0
  2  1  1  6
  3  2  1  0
  4  5  1  0
  4  3  1  0
  5  6  2  0
  7  8  2  0
  9  5  1  0
 10  7  1  0
 10 11  1  0
 11 12  1  1
 13 12  1  0
 13 14  1  0
 14 15  1  0
 15 16  1  0
 17 11  1  0
 18 17  2  0
 19 17  1  0
 19 23  1  0
 20 21  1  0
 20 19  1  0
 21 22  1  0
 22 23  1  0
 23 24  1  1
 24 25  1  0
 26 24  2  0
M  END
$$$$
