EKP.pdb
     RDKit          3D

 26 26  0  0  1  0  0  0  0  0999 V2000
    9.1209  -13.5415   19.4967 N   0  0  0  0  0  0  0  0  0  0  0  0
    9.3117  -14.8525   20.0240 C   0  0  1  0  0  0  0  0  0  0  0  0
   10.8179  -15.1201   20.1492 C   0  0  0  0  0  0  0  0  0  0  0  0
   11.5912  -13.8717   19.7821 C   0  0  0  0  0  0  0  0  0  0  0  0
   13.0482  -14.1011   19.7928 C   0  0  0  0  0  0  0  0  0  0  0  0
   13.5651  -14.8870   18.9578 O   0  0  0  0  0  0  0  0  0  0  0  0
    8.7671  -14.9261   21.3962 C   0  0  0  0  0  0  0  0  0  0  0  0
    8.5615  -13.8565   22.0179 O   0  0  0  0  0  0  0  0  0  0  0  0
   13.9037  -13.4828   20.6954 O   0  0  0  0  0  0  0  0  0  0  0  0
    8.4715  -16.1364   22.0299 N   0  0  0  0  0  0  0  0  0  0  0  0
    7.7521  -16.2273   23.3180 C   0  0  1  0  0  0  0  0  0  0  0  0
    7.3561  -17.6673   23.5166 C   0  0  0  0  0  0  0  0  0  0  0  0
    6.8425  -17.9486   24.8776 C   0  0  0  0  0  0  0  0  0  0  0  0
    6.5396  -19.4469   25.0656 C   0  0  0  0  0  0  0  0  0  0  0  0
    6.0051  -19.7327   26.4375 C   0  0  0  0  0  0  0  0  0  0  0  0
    5.6949  -21.1631   26.5302 N   0  0  0  0  0  0  0  0  0  0  0  0
    8.6285  -15.6679   24.3383 C   0  0  0  0  0  0  0  0  0  0  0  0
    9.8766  -15.9995   24.2741 O   0  0  0  0  0  0  0  0  0  0  0  0
    8.2490  -14.7980   25.3803 N   0  0  0  0  0  0  0  0  0  0  0  0
    6.9861  -14.1076   25.5204 C   0  0  0  0  0  0  0  0  0  0  0  0
    7.4125  -12.7618   26.1291 C   0  0  0  0  0  0  0  0  0  0  0  0
    8.3916  -13.2273   27.1618 C   0  0  0  0  0  0  0  0  0  0  0  0
    9.0954  -14.3804   26.4839 C   0  0  1  0  0  0  0  0  0  0  0  0
    9.2928  -15.4498   27.4701 C   0  0  0  0  0  0  0  0  0  0  0  0
    8.5684  -16.6456   27.4735 O   0  0  0  0  0  0  0  0  0  0  0  0
   10.1588  -15.2830   28.3593 O   0  0  0  0  0  0  0  0  0  0  0  0
  2  7  1  0
  2  1  1  1
  3  2  1  0
  4  5  1  0
  4  3  1  0
  5  6  2  0
  7  8  2  0
  9  5  1  0
 10  7  1  0
 10 11  1  0
 11 12  1  1
 13 12  1  0
 13 14  1  0
 14 15  1  0
 15 16  1  0
 17 11  1  0
 18 17  2  0
 19 17  1  0
 19 23  1  0
 20 21  1  0
 20 19  1  0
 21 22  1  0
 22 23  1  0
 23 24  1  1
 24 25  1  0
 26 24  2  0
M  END
$$$$
