EKP.pdb
     RDKit          3D

 26 26  0  0  1  0  0  0  0  0999 V2000
   11.3770  -16.5540   20.2406 N   0  0  0  0  0  0  0  0  0  0  0  0
   11.6927  -17.0239   21.5493 C   0  0  1  0  0  0  0  0  0  0  0  0
   13.1792  -16.7584   21.8243 C   0  0  0  0  0  0  0  0  0  0  0  0
   14.0100  -17.2434   20.6555 C   0  0  0  0  0  0  0  0  0  0  0  0
   15.3774  -17.6141   21.0656 C   0  0  0  0  0  0  0  0  0  0  0  0
   15.6026  -18.7597   21.5335 O   0  0  0  0  0  0  0  0  0  0  0  0
   10.9439  -16.2440   22.5571 C   0  0  0  0  0  0  0  0  0  0  0  0
   11.0781  -14.9972   22.5715 O   0  0  0  0  0  0  0  0  0  0  0  0
   16.4581  -16.7480   20.9619 O   0  0  0  0  0  0  0  0  0  0  0  0
   10.0928  -16.8367   23.4943 N   0  0  0  0  0  0  0  0  0  0  0  0
    9.2059  -16.0663   24.3914 C   0  0  1  0  0  0  0  0  0  0  0  0
    7.8595  -16.7425   24.3896 C   0  0  0  0  0  0  0  0  0  0  0  0
    7.2483  -16.8213   23.0422 C   0  0  0  0  0  0  0  0  0  0  0  0
    5.8935  -17.5527   23.0815 C   0  0  0  0  0  0  0  0  0  0  0  0
    5.3626  -17.8029   21.7013 C   0  0  0  0  0  0  0  0  0  0  0  0
    4.0981  -18.5376   21.8122 N   0  0  0  0  0  0  0  0  0  0  0  0
    9.8700  -15.9872   25.6855 C   0  0  0  0  0  0  0  0  0  0  0  0
   10.8464  -16.8109   25.8862 O   0  0  0  0  0  0  0  0  0  0  0  0
    9.5558  -15.0981   26.7330 N   0  0  0  0  0  0  0  0  0  0  0  0
    8.4521  -14.1650   26.7801 C   0  0  0  0  0  0  0  0  0  0  0  0
    9.0687  -12.9625   27.5130 C   0  0  0  0  0  0  0  0  0  0  0  0
    9.8049  -13.6617   28.6134 C   0  0  0  0  0  0  0  0  0  0  0  0
   10.3342  -14.9094   27.9444 C   0  0  1  0  0  0  0  0  0  0  0  0
   10.1931  -16.0337   28.8778 C   0  0  0  0  0  0  0  0  0  0  0  0
   10.9981  -16.2101   30.0073 O   0  0  0  0  0  0  0  0  0  0  0  0
    9.3018  -16.8836   28.6509 O   0  0  0  0  0  0  0  0  0  0  0  0
  2  7  1  0
  2  1  1  6
  3  2  1  0
  4  5  1  0
  4  3  1  0
  5  6  2  0
  7  8  2  0
  9  5  1  0
 10  7  1  0
 10 11  1  0
 11 12  1  1
 13 12  1  0
 13 14  1  0
 14 15  1  0
 15 16  1  0
 17 11  1  0
 18 17  2  0
 19 17  1  0
 19 23  1  0
 20 21  1  0
 20 19  1  0
 21 22  1  0
 22 23  1  0
 23 24  1  1
 24 25  1  0
 26 24  2  0
M  END
$$$$
