EKP.pdb
     RDKit          3D

 26 26  0  0  1  0  0  0  0  0999 V2000
    9.3143  -17.2605   20.2965 N   0  0  0  0  0  0  0  0  0  0  0  0
    9.1304  -17.5656   21.6773 C   0  0  1  0  0  0  0  0  0  0  0  0
   10.5027  -17.8306   22.3116 C   0  0  0  0  0  0  0  0  0  0  0  0
   11.5619  -17.0198   21.5961 C   0  0  0  0  0  0  0  0  0  0  0  0
   12.9034  -17.2337   22.1705 C   0  0  0  0  0  0  0  0  0  0  0  0
   13.9025  -16.6678   21.6572 O   0  0  0  0  0  0  0  0  0  0  0  0
    8.5735  -16.3912   22.3812 C   0  0  0  0  0  0  0  0  0  0  0  0
    8.4348  -15.3202   21.7437 O   0  0  0  0  0  0  0  0  0  0  0  0
   13.1320  -18.0453   23.2741 O   0  0  0  0  0  0  0  0  0  0  0  0
    8.1952  -16.4236   23.7264 N   0  0  0  0  0  0  0  0  0  0  0  0
    6.8018  -16.2429   24.1855 C   0  0  1  0  0  0  0  0  0  0  0  0
    6.0618  -17.5254   23.9068 C   0  0  0  0  0  0  0  0  0  0  0  0
    6.7755  -18.7285   24.3949 C   0  0  0  0  0  0  0  0  0  0  0  0
    5.9588  -20.0090   24.1392 C   0  0  0  0  0  0  0  0  0  0  0  0
    6.7262  -21.2381   24.5264 C   0  0  0  0  0  0  0  0  0  0  0  0
    5.8882  -22.4137   24.2684 N   0  0  0  0  0  0  0  0  0  0  0  0
    6.8606  -15.8400   25.5841 C   0  0  0  0  0  0  0  0  0  0  0  0
    6.5907  -16.7515   26.4607 O   0  0  0  0  0  0  0  0  0  0  0  0
    7.1888  -14.5589   26.0716 N   0  0  0  0  0  0  0  0  0  0  0  0
    6.2781  -13.4636   26.3205 C   0  0  0  0  0  0  0  0  0  0  0  0
    7.1153  -12.2403   25.9129 C   0  0  0  0  0  0  0  0  0  0  0  0
    8.4273  -12.5839   26.5473 C   0  0  0  0  0  0  0  0  0  0  0  0
    8.5301  -14.0794   26.3537 C   0  0  1  0  0  0  0  0  0  0  0  0
    9.0870  -14.6699   27.5769 C   0  0  0  0  0  0  0  0  0  0  0  0
   10.3393  -14.3342   28.1001 O   0  0  0  0  0  0  0  0  0  0  0  0
    8.4027  -15.5228   28.1874 O   0  0  0  0  0  0  0  0  0  0  0  0
  2  7  1  0
  2  1  1  6
  3  2  1  0
  4  5  1  0
  4  3  1  0
  5  6  2  0
  7  8  2  0
  9  5  1  0
 10  7  1  0
 10 11  1  0
 11 12  1  1
 13 12  1  0
 13 14  1  0
 14 15  1  0
 15 16  1  0
 17 11  1  0
 18 17  2  0
 19 17  1  0
 19 23  1  0
 20 21  1  0
 20 19  1  0
 21 22  1  0
 22 23  1  0
 23 24  1  1
 24 25  1  0
 26 24  2  0
M  END
$$$$
