EKP.pdb
     RDKit          3D

 26 26  0  0  1  0  0  0  0  0999 V2000
   11.8809  -15.3382   20.5289 N   0  0  0  0  0  0  0  0  0  0  0  0
   12.1339  -16.1936   21.6414 C   0  0  1  0  0  0  0  0  0  0  0  0
   13.4511  -15.7663   22.3034 C   0  0  0  0  0  0  0  0  0  0  0  0
   14.6189  -16.1879   21.4374 C   0  0  0  0  0  0  0  0  0  0  0  0
   15.9151  -15.9094   22.0837 C   0  0  0  0  0  0  0  0  0  0  0  0
   16.9862  -16.1773   21.4813 O   0  0  0  0  0  0  0  0  0  0  0  0
   11.0829  -16.0109   22.6645 C   0  0  0  0  0  0  0  0  0  0  0  0
   10.5935  -14.8674   22.8239 O   0  0  0  0  0  0  0  0  0  0  0  0
   16.0229  -15.3541   23.3521 O   0  0  0  0  0  0  0  0  0  0  0  0
   10.6117  -17.0581   23.4617 N   0  0  0  0  0  0  0  0  0  0  0  0
    9.4637  -16.9272   24.3836 C   0  0  1  0  0  0  0  0  0  0  0  0
    8.7472  -18.2524   24.4079 C   0  0  0  0  0  0  0  0  0  0  0  0
    7.6568  -18.3077   25.4095 C   0  0  0  0  0  0  0  0  0  0  0  0
    6.9559  -19.6790   25.4023 C   0  0  0  0  0  0  0  0  0  0  0  0
    5.7501  -19.6858   26.2943 C   0  0  0  0  0  0  0  0  0  0  0  0
    5.1045  -20.9992   26.1985 N   0  0  0  0  0  0  0  0  0  0  0  0
    9.9915  -16.4722   25.6628 C   0  0  0  0  0  0  0  0  0  0  0  0
   11.0825  -17.0335   26.0712 O   0  0  0  0  0  0  0  0  0  0  0  0
    9.4329  -15.4782   26.4913 N   0  0  0  0  0  0  0  0  0  0  0  0
    8.2999  -14.6314   26.1908 C   0  0  0  0  0  0  0  0  0  0  0  0
    8.7007  -13.3003   26.8474 C   0  0  0  0  0  0  0  0  0  0  0  0
    9.2332  -13.7917   28.1577 C   0  0  0  0  0  0  0  0  0  0  0  0
    9.9432  -15.0742   27.7894 C   0  0  1  0  0  0  0  0  0  0  0  0
    9.6704  -16.0727   28.8305 C   0  0  0  0  0  0  0  0  0  0  0  0
   10.2698  -16.0604   30.0936 O   0  0  0  0  0  0  0  0  0  0  0  0
    8.8549  -16.9879   28.5742 O   0  0  0  0  0  0  0  0  0  0  0  0
  2  7  1  0
  2  1  1  6
  3  2  1  0
  4  5  1  0
  4  3  1  0
  5  6  2  0
  7  8  2  0
  9  5  1  0
 10  7  1  0
 10 11  1  0
 11 12  1  1
 13 12  1  0
 13 14  1  0
 14 15  1  0
 15 16  1  0
 17 11  1  0
 18 17  2  0
 19 17  1  0
 19 23  1  0
 20 21  1  0
 20 19  1  0
 21 22  1  0
 22 23  1  0
 23 24  1  1
 24 25  1  0
 26 24  2  0
M  END
$$$$
