CFQ.pdb
     RDKit          3D

 27 27  0  0  1  0  0  0  0  0999 V2000
   27.9885  -21.4311  -16.6623 N   0  0  0  0  0  0  0  0  0  0  0  0
   28.0010  -20.5077  -15.5756 C   0  0  1  0  0  0  0  0  0  0  0  0
   27.4103  -19.1911  -16.0975 C   0  0  0  0  0  0  0  0  0  0  0  0
   27.7114  -17.8710  -14.8998 S   0  0  0  0  0  0  0  0  0  0  0  0
   27.0895  -20.9685  -14.5021 C   0  0  0  0  0  0  0  0  0  0  0  0
   25.9859  -21.5374  -14.7504 O   0  0  0  0  0  0  0  0  0  0  0  0
   27.4631  -20.7669  -13.1599 N   0  0  0  0  0  0  0  0  0  0  0  0
   26.6076  -21.0230  -12.0211 C   0  0  1  0  0  0  0  0  0  0  0  0
   27.4511  -20.7857  -10.7881 C   0  0  0  0  0  0  0  0  0  0  0  0
   26.6783  -20.6445   -9.5509 C   0  0  0  0  0  0  0  0  0  0  0  0
   26.9857  -19.6249   -8.6579 C   0  0  0  0  0  0  0  0  0  0  0  0
   26.3132  -19.4223   -7.4837 C   0  0  0  0  0  0  0  0  0  0  0  0
   25.2718  -20.2691   -7.1572 C   0  0  0  0  0  0  0  0  0  0  0  0
   24.9408  -21.2847   -8.0129 C   0  0  0  0  0  0  0  0  0  0  0  0
   25.6329  -21.4696   -9.1911 C   0  0  0  0  0  0  0  0  0  0  0  0
   25.3938  -20.1685  -12.0667 C   0  0  0  0  0  0  0  0  0  0  0  0
   25.5091  -18.9162  -12.0451 O   0  0  0  0  0  0  0  0  0  0  0  0
   22.0665  -18.3753  -15.9575 N   0  0  0  0  0  0  0  0  0  0  0  0
   22.7228  -19.6145  -15.8757 C   0  0  0  0  0  0  0  0  0  0  0  0
   23.0418  -20.2413  -16.8973 O   0  0  0  0  0  0  0  0  0  0  0  0
   23.0389  -20.1818  -14.5403 C   0  0  0  0  0  0  0  0  0  0  0  0
   22.6131  -19.2500  -13.4396 C   0  0  0  0  0  0  0  0  0  0  0  0
   22.8763  -19.8389  -12.1012 C   0  0  2  0  0  0  0  0  0  0  0  0
   24.0829  -20.6894  -12.1347 N   0  0  0  0  0  0  0  0  0  0  0  0
   21.7708  -20.6642  -11.5947 C   0  0  0  0  0  0  0  0  0  0  0  0
   20.5312  -20.1749  -11.2368 O   0  0  0  0  0  0  0  0  0  0  0  0
   21.9403  -21.9041  -11.4668 O   0  0  0  0  0  0  0  0  0  0  0  0
  2  5  1  0
  2  1  1  6
  3  2  1  0
  4  3  1  0
  5  6  2  0
  7  8  1  0
  7  5  1  0
  9 10  1  0
  8  9  1  1
 10 15  2  0
 11 12  2  0
 11 10  1  0
 12 13  1  0
 13 14  2  0
 15 14  1  0
 16  8  1  0
 16 17  2  0
 18 19  1  0
 19 21  1  0
 20 19  2  0
 21 22  1  0
 23 22  1  6
 23 24  1  0
 23 25  1  0
 24 16  1  0
 25 27  2  0
 25 26  1  0
M  END
$$$$
