CFQ.pdb
     RDKit          3D

 27 27  0  0  1  0  0  0  0  0999 V2000
   27.4983  -24.2371  -16.2866 N   0  0  0  0  0  0  0  0  0  0  0  0
   26.9664  -22.9214  -16.1464 C   0  0  1  0  0  0  0  0  0  0  0  0
   26.3989  -22.5177  -17.5138 C   0  0  0  0  0  0  0  0  0  0  0  0
   27.7514  -22.0747  -18.6282 S   0  0  0  0  0  0  0  0  0  0  0  0
   25.8162  -22.9313  -15.2123 C   0  0  0  0  0  0  0  0  0  0  0  0
   25.0858  -23.9528  -15.0505 O   0  0  0  0  0  0  0  0  0  0  0  0
   25.5252  -21.7650  -14.4796 N   0  0  0  0  0  0  0  0  0  0  0  0
   24.4492  -21.6445  -13.5194 C   0  0  1  0  0  0  0  0  0  0  0  0
   24.7750  -20.4448  -12.6574 C   0  0  0  0  0  0  0  0  0  0  0  0
   23.7819  -20.1671  -11.6161 C   0  0  0  0  0  0  0  0  0  0  0  0
   23.9709  -20.6643  -10.3322 C   0  0  0  0  0  0  0  0  0  0  0  0
   23.0949  -20.4495   -9.3035 C   0  0  0  0  0  0  0  0  0  0  0  0
   21.9587  -19.7004   -9.5407 C   0  0  0  0  0  0  0  0  0  0  0  0
   21.7395  -19.1944  -10.7934 C   0  0  0  0  0  0  0  0  0  0  0  0
   22.6367  -19.4240  -11.8150 C   0  0  0  0  0  0  0  0  0  0  0  0
   23.1371  -21.5270  -14.2049 C   0  0  0  0  0  0  0  0  0  0  0  0
   23.0313  -20.8140  -15.2356 O   0  0  0  0  0  0  0  0  0  0  0  0
   19.1958  -25.9306  -15.4861 N   0  0  0  0  0  0  0  0  0  0  0  0
   18.3688  -24.8314  -15.7704 C   0  0  0  0  0  0  0  0  0  0  0  0
   17.2582  -24.9831  -16.3013 O   0  0  0  0  0  0  0  0  0  0  0  0
   18.8355  -23.4640  -15.4277 C   0  0  0  0  0  0  0  0  0  0  0  0
   20.2024  -23.4974  -14.8018 C   0  0  0  0  0  0  0  0  0  0  0  0
   20.6863  -22.1284  -14.4874 C   0  0  2  0  0  0  0  0  0  0  0  0
   21.9694  -22.1842  -13.7588 N   0  0  0  0  0  0  0  0  0  0  0  0
   19.7491  -21.3477  -13.6678 C   0  0  0  0  0  0  0  0  0  0  0  0
   18.7783  -20.5090  -14.1763 O   0  0  0  0  0  0  0  0  0  0  0  0
   19.8163  -21.4293  -12.4144 O   0  0  0  0  0  0  0  0  0  0  0  0
  2  5  1  0
  2  1  1  6
  3  2  1  0
  4  3  1  0
  5  6  2  0
  7  8  1  0
  7  5  1  0
  9 10  1  0
  8  9  1  6
 10 15  2  0
 11 12  2  0
 11 10  1  0
 12 13  1  0
 13 14  2  0
 15 14  1  0
 16  8  1  0
 16 17  2  0
 18 19  1  0
 19 21  1  0
 20 19  2  0
 21 22  1  0
 23 22  1  1
 23 24  1  0
 23 25  1  0
 24 16  1  0
 25 27  2  0
 25 26  1  0
M  END
$$$$
