CFQ.pdb
     RDKit          3D

 27 27  0  0  1  0  0  0  0  0999 V2000
   15.3817  -18.2487    2.7877 N   0  0  0  0  0  0  0  0  0  0  0  0
   15.1629  -17.4476    3.9471 C   0  0  1  0  0  0  0  0  0  0  0  0
   14.6596  -18.3850    5.0529 C   0  0  0  0  0  0  0  0  0  0  0  0
   13.0203  -19.0123    4.6208 S   0  0  0  0  0  0  0  0  0  0  0  0
   16.4468  -16.8914    4.4345 C   0  0  0  0  0  0  0  0  0  0  0  0
   17.5366  -17.5301    4.3472 O   0  0  0  0  0  0  0  0  0  0  0  0
   16.4556  -15.6089    5.0148 N   0  0  0  0  0  0  0  0  0  0  0  0
   17.6177  -14.9832    5.6085 C   0  0  1  0  0  0  0  0  0  0  0  0
   17.5046  -13.5031    5.3173 C   0  0  0  0  0  0  0  0  0  0  0  0
   18.5938  -12.6971    5.8755 C   0  0  0  0  0  0  0  0  0  0  0  0
   19.7616  -12.5143    5.1445 C   0  0  0  0  0  0  0  0  0  0  0  0
   20.8232  -11.7758    5.5910 C   0  0  0  0  0  0  0  0  0  0  0  0
   20.7425  -11.1750    6.8323 C   0  0  0  0  0  0  0  0  0  0  0  0
   19.6073  -11.3333    7.5805 C   0  0  0  0  0  0  0  0  0  0  0  0
   18.5498  -12.0823    7.1097 C   0  0  0  0  0  0  0  0  0  0  0  0
   17.6984  -15.2840    7.0606 C   0  0  0  0  0  0  0  0  0  0  0  0
   16.6853  -15.1272    7.7893 O   0  0  0  0  0  0  0  0  0  0  0  0
   18.5554  -20.4893   10.0296 N   0  0  0  0  0  0  0  0  0  0  0  0
   17.7559  -19.3471    9.8588 C   0  0  0  0  0  0  0  0  0  0  0  0
   16.7220  -19.1811   10.5234 O   0  0  0  0  0  0  0  0  0  0  0  0
   18.1587  -18.3213    8.8634 C   0  0  0  0  0  0  0  0  0  0  0  0
   19.2487  -17.4379    9.4045 C   0  0  0  0  0  0  0  0  0  0  0  0
   18.9621  -16.0040    9.1421 C   0  0  2  0  0  0  0  0  0  0  0  0
   18.8742  -15.7476    7.6906 N   0  0  0  0  0  0  0  0  0  0  0  0
   19.9768  -15.0923    9.6887 C   0  0  0  0  0  0  0  0  0  0  0  0
   20.1570  -14.8401   11.0334 O   0  0  0  0  0  0  0  0  0  0  0  0
   20.7452  -14.4859    8.8986 O   0  0  0  0  0  0  0  0  0  0  0  0
  2  5  1  0
  2  1  1  6
  3  2  1  0
  4  3  1  0
  5  6  2  0
  7  8  1  0
  7  5  1  0
  9 10  1  0
  8  9  1  1
 10 15  2  0
 11 12  2  0
 11 10  1  0
 12 13  1  0
 13 14  2  0
 15 14  1  0
 16  8  1  0
 16 17  2  0
 18 19  1  0
 19 21  1  0
 20 19  2  0
 21 22  1  0
 23 22  1  6
 23 24  1  0
 23 25  1  0
 24 16  1  0
 25 27  2  0
 25 26  1  0
M  END
$$$$
