CFQ.pdb
     RDKit          3D

 27 27  0  0  1  0  0  0  0  0999 V2000
   29.4715  -22.6236  -17.3447 N   0  0  0  0  0  0  0  0  0  0  0  0
   28.6097  -21.5527  -16.9650 C   0  0  1  0  0  0  0  0  0  0  0  0
   27.6136  -21.3480  -18.1143 C   0  0  0  0  0  0  0  0  0  0  0  0
   28.4423  -20.5384  -19.5019 S   0  0  0  0  0  0  0  0  0  0  0  0
   27.8004  -21.9406  -15.7860 C   0  0  0  0  0  0  0  0  0  0  0  0
   27.2297  -23.0676  -15.6991 O   0  0  0  0  0  0  0  0  0  0  0  0
   27.6611  -21.0250  -14.7259 N   0  0  0  0  0  0  0  0  0  0  0  0
   26.8747  -21.2606  -13.5341 C   0  0  1  0  0  0  0  0  0  0  0  0
   27.4013  -20.3145  -12.4778 C   0  0  0  0  0  0  0  0  0  0  0  0
   26.6900  -20.3879  -11.1985 C   0  0  0  0  0  0  0  0  0  0  0  0
   25.4813  -19.7200  -11.0419 C   0  0  0  0  0  0  0  0  0  0  0  0
   24.7535  -19.7390   -9.8835 C   0  0  0  0  0  0  0  0  0  0  0  0
   25.2348  -20.4563   -8.8054 C   0  0  0  0  0  0  0  0  0  0  0  0
   26.4223  -21.1267   -8.9233 C   0  0  0  0  0  0  0  0  0  0  0  0
   27.1385  -21.0932  -10.1011 C   0  0  0  0  0  0  0  0  0  0  0  0
   25.4270  -21.0755  -13.8086 C   0  0  0  0  0  0  0  0  0  0  0  0
   25.0474  -20.1442  -14.5640 O   0  0  0  0  0  0  0  0  0  0  0  0
   21.6257  -25.6539  -14.9343 N   0  0  0  0  0  0  0  0  0  0  0  0
   20.6901  -24.6062  -14.9230 C   0  0  0  0  0  0  0  0  0  0  0  0
   19.5057  -24.7991  -15.2364 O   0  0  0  0  0  0  0  0  0  0  0  0
   21.1302  -23.2441  -14.5282 C   0  0  0  0  0  0  0  0  0  0  0  0
   22.5840  -23.2330  -14.1440 C   0  0  0  0  0  0  0  0  0  0  0  0
   23.0197  -21.8783  -13.7171 C   0  0  2  0  0  0  0  0  0  0  0  0
   24.4232  -21.9030  -13.2590 N   0  0  0  0  0  0  0  0  0  0  0  0
   22.2109  -21.3177  -12.6257 C   0  0  0  0  0  0  0  0  0  0  0  0
   21.0043  -20.6712  -12.8002 O   0  0  0  0  0  0  0  0  0  0  0  0
   22.6248  -21.4183  -11.4421 O   0  0  0  0  0  0  0  0  0  0  0  0
  2  5  1  0
  2  1  1  6
  3  2  1  0
  4  3  1  0
  5  6  2  0
  7  8  1  0
  7  5  1  0
  9 10  1  0
  8  9  1  1
 10 15  2  0
 11 12  2  0
 11 10  1  0
 12 13  1  0
 13 14  2  0
 15 14  1  0
 16  8  1  0
 16 17  2  0
 18 19  1  0
 19 21  1  0
 20 19  2  0
 21 22  1  0
 23 22  1  1
 23 24  1  0
 23 25  1  0
 24 16  1  0
 25 27  2  0
 25 26  1  0
M  END
$$$$
