CFQ.pdb
     RDKit          3D

 27 27  0  0  1  0  0  0  0  0999 V2000
   28.9738  -22.0889  -17.3468 N   0  0  0  0  0  0  0  0  0  0  0  0
   27.8405  -21.2482  -17.1408 C   0  0  1  0  0  0  0  0  0  0  0  0
   26.9497  -21.3819  -18.3831 C   0  0  0  0  0  0  0  0  0  0  0  0
   26.9387  -19.8216  -19.2959 S   0  0  0  0  0  0  0  0  0  0  0  0
   27.0335  -21.7470  -16.0026 C   0  0  0  0  0  0  0  0  0  0  0  0
   26.8072  -22.9799  -15.8236 O   0  0  0  0  0  0  0  0  0  0  0  0
   26.4999  -20.8186  -15.0889 N   0  0  0  0  0  0  0  0  0  0  0  0
   25.6653  -21.1645  -13.9583 C   0  0  1  0  0  0  0  0  0  0  0  0
   26.0603  -20.2348  -12.8323 C   0  0  0  0  0  0  0  0  0  0  0  0
   25.3104  -20.4442  -11.5907 C   0  0  0  0  0  0  0  0  0  0  0  0
   25.9164  -21.0888  -10.5189 C   0  0  0  0  0  0  0  0  0  0  0  0
   25.2886  -21.3217   -9.3258 C   0  0  0  0  0  0  0  0  0  0  0  0
   23.9834  -20.8985   -9.1655 C   0  0  0  0  0  0  0  0  0  0  0  0
   23.3544  -20.2599  -10.1998 C   0  0  0  0  0  0  0  0  0  0  0  0
   24.0074  -20.0362  -11.3935 C   0  0  0  0  0  0  0  0  0  0  0  0
   24.2262  -21.0681  -14.3122 C   0  0  0  0  0  0  0  0  0  0  0  0
   23.8115  -20.0899  -14.9853 O   0  0  0  0  0  0  0  0  0  0  0  0
   20.7322  -25.1566  -16.8445 N   0  0  0  0  0  0  0  0  0  0  0  0
   19.7315  -24.2288  -16.5116 C   0  0  0  0  0  0  0  0  0  0  0  0
   18.5931  -24.3096  -16.9973 O   0  0  0  0  0  0  0  0  0  0  0  0
   20.0454  -23.1325  -15.5605 C   0  0  0  0  0  0  0  0  0  0  0  0
   21.4915  -23.1671  -15.1497 C   0  0  0  0  0  0  0  0  0  0  0  0
   21.8534  -21.9717  -14.3451 C   0  0  2  0  0  0  0  0  0  0  0  0
   23.2688  -22.0331  -13.9291 N   0  0  0  0  0  0  0  0  0  0  0  0
   21.0441  -21.8154  -13.1285 C   0  0  0  0  0  0  0  0  0  0  0  0
   19.8532  -21.1211  -13.0664 O   0  0  0  0  0  0  0  0  0  0  0  0
   21.4425  -22.3383  -12.0560 O   0  0  0  0  0  0  0  0  0  0  0  0
  2  5  1  0
  2  1  1  6
  3  2  1  0
  4  3  1  0
  5  6  2  0
  7  8  1  0
  7  5  1  0
  9 10  1  0
  8  9  1  1
 10 15  2  0
 11 12  2  0
 11 10  1  0
 12 13  1  0
 13 14  2  0
 15 14  1  0
 16  8  1  0
 16 17  2  0
 18 19  1  0
 19 21  1  0
 20 19  2  0
 21 22  1  0
 23 22  1  1
 23 24  1  0
 23 25  1  0
 24 16  1  0
 25 27  2  0
 25 26  1  0
M  END
$$$$
