CFQ.pdb
     RDKit          3D

 27 27  0  0  1  0  0  0  0  0999 V2000
   10.9339  -22.4139   -3.8874 N   0  0  0  0  0  0  0  0  0  0  0  0
   11.5834  -21.3978   -3.1261 C   0  0  1  0  0  0  0  0  0  0  0  0
   10.4847  -20.4872   -2.5619 C   0  0  0  0  0  0  0  0  0  0  0  0
    9.9859  -19.2849   -3.8162 S   0  0  0  0  0  0  0  0  0  0  0  0
   12.2639  -21.9940   -1.9526 C   0  0  0  0  0  0  0  0  0  0  0  0
   11.7928  -22.9930   -1.3336 O   0  0  0  0  0  0  0  0  0  0  0  0
   13.4759  -21.4305   -1.5107 N   0  0  0  0  0  0  0  0  0  0  0  0
   14.2950  -21.9723   -0.4477 C   0  0  1  0  0  0  0  0  0  0  0  0
   15.6908  -22.1175   -1.0124 C   0  0  0  0  0  0  0  0  0  0  0  0
   16.0200  -23.4749   -1.4562 C   0  0  0  0  0  0  0  0  0  0  0  0
   16.1947  -23.7347   -2.8103 C   0  0  0  0  0  0  0  0  0  0  0  0
   16.5052  -24.9710   -3.3072 C   0  0  0  0  0  0  0  0  0  0  0  0
   16.6556  -26.0250   -2.4269 C   0  0  0  0  0  0  0  0  0  0  0  0
   16.4909  -25.8062   -1.0858 C   0  0  0  0  0  0  0  0  0  0  0  0
   16.1781  -24.5513   -0.6080 C   0  0  0  0  0  0  0  0  0  0  0  0
   14.2439  -21.1044    0.7563 C   0  0  0  0  0  0  0  0  0  0  0  0
   14.3604  -19.8580    0.6346 O   0  0  0  0  0  0  0  0  0  0  0  0
   10.6923  -21.2504    5.9086 N   0  0  0  0  0  0  0  0  0  0  0  0
   11.6060  -20.1840    5.8765 C   0  0  0  0  0  0  0  0  0  0  0  0
   11.2539  -19.0276    6.1540 O   0  0  0  0  0  0  0  0  0  0  0  0
   13.0185  -20.4494    5.5031 C   0  0  0  0  0  0  0  0  0  0  0  0
   13.1028  -21.3255    4.2840 C   0  0  0  0  0  0  0  0  0  0  0  0
   14.0014  -20.7376    3.2572 C   0  0  2  0  0  0  0  0  0  0  0  0
   14.0678  -21.6059    2.0647 N   0  0  0  0  0  0  0  0  0  0  0  0
   15.3780  -20.5329    3.7290 C   0  0  0  0  0  0  0  0  0  0  0  0
   15.8042  -19.4293    4.4394 O   0  0  0  0  0  0  0  0  0  0  0  0
   16.2476  -21.4069    3.4798 O   0  0  0  0  0  0  0  0  0  0  0  0
  2  5  1  0
  2  1  1  6
  3  2  1  0
  4  3  1  0
  5  6  2  0
  7  8  1  0
  7  5  1  0
  9 10  1  0
  8  9  1  6
 10 15  2  0
 11 12  2  0
 11 10  1  0
 12 13  1  0
 13 14  2  0
 15 14  1  0
 16  8  1  0
 16 17  2  0
 18 19  1  0
 19 21  1  0
 20 19  2  0
 21 22  1  0
 23 22  1  1
 23 24  1  0
 23 25  1  0
 24 16  1  0
 25 27  2  0
 25 26  1  0
M  END
$$$$
