CFQ.pdb
     RDKit          3D

 27 27  0  0  1  0  0  0  0  0999 V2000
   18.3555  -13.5182  -16.1951 N   0  0  0  0  0  0  0  0  0  0  0  0
   18.6248  -12.3497  -16.9672 C   0  0  1  0  0  0  0  0  0  0  0  0
   17.4177  -12.1320  -17.8893 C   0  0  0  0  0  0  0  0  0  0  0  0
   17.3579  -13.4413  -19.1343 S   0  0  0  0  0  0  0  0  0  0  0  0
   18.6884  -11.1588  -16.0878 C   0  0  0  0  0  0  0  0  0  0  0  0
   17.8711  -10.9754  -15.1383 O   0  0  0  0  0  0  0  0  0  0  0  0
   19.6920  -10.1983  -16.3157 N   0  0  0  0  0  0  0  0  0  0  0  0
   19.8552   -8.9822  -15.5483 C   0  0  1  0  0  0  0  0  0  0  0  0
   21.3448   -8.7699  -15.3914 C   0  0  0  0  0  0  0  0  0  0  0  0
   21.7072   -7.4835  -14.7902 C   0  0  0  0  0  0  0  0  0  0  0  0
   21.5867   -7.3052  -13.4171 C   0  0  0  0  0  0  0  0  0  0  0  0
   21.9053   -6.1388  -12.7771 C   0  0  0  0  0  0  0  0  0  0  0  0
   22.3725   -5.0746  -13.5238 C   0  0  0  0  0  0  0  0  0  0  0  0
   22.5042   -5.2139  -14.8790 C   0  0  0  0  0  0  0  0  0  0  0  0
   22.1768   -6.3994  -15.5024 C   0  0  0  0  0  0  0  0  0  0  0  0
   19.1735   -7.8413  -16.2109 C   0  0  0  0  0  0  0  0  0  0  0  0
   19.2847   -7.6820  -17.4536 O   0  0  0  0  0  0  0  0  0  0  0  0
   13.6664   -5.9879  -16.5910 N   0  0  0  0  0  0  0  0  0  0  0  0
   14.2337   -4.7370  -16.8854 C   0  0  0  0  0  0  0  0  0  0  0  0
   13.5529   -3.8210  -17.3709 O   0  0  0  0  0  0  0  0  0  0  0  0
   15.6750   -4.5104  -16.6090 C   0  0  0  0  0  0  0  0  0  0  0  0
   16.3053   -5.7235  -15.9827 C   0  0  0  0  0  0  0  0  0  0  0  0
   17.7802   -5.7190  -16.1612 C   0  0  2  0  0  0  0  0  0  0  0  0
   18.3868   -6.8988  -15.5128 N   0  0  0  0  0  0  0  0  0  0  0  0
   18.4356   -4.5267  -15.6057 C   0  0  0  0  0  0  0  0  0  0  0  0
   19.1187   -4.4979  -14.4071 O   0  0  0  0  0  0  0  0  0  0  0  0
   18.3837   -3.4448  -16.2454 O   0  0  0  0  0  0  0  0  0  0  0  0
  2  5  1  0
  2  1  1  1
  3  2  1  0
  4  3  1  0
  5  6  2  0
  7  8  1  0
  7  5  1  0
  9 10  1  0
  8  9  1  6
 10 15  2  0
 11 12  2  0
 11 10  1  0
 12 13  1  0
 13 14  2  0
 15 14  1  0
 16  8  1  0
 16 17  2  0
 18 19  1  0
 19 21  1  0
 20 19  2  0
 21 22  1  0
 23 22  1  1
 23 24  1  0
 23 25  1  0
 24 16  1  0
 25 27  2  0
 25 26  1  0
M  END
$$$$
