CFQ.pdb
     RDKit          3D

 27 27  0  0  1  0  0  0  0  0999 V2000
   24.6771  -14.2915  -19.4060 N   0  0  0  0  0  0  0  0  0  0  0  0
   24.6956  -12.9326  -18.9740 C   0  0  1  0  0  0  0  0  0  0  0  0
   24.4363  -12.0637  -20.2120 C   0  0  0  0  0  0  0  0  0  0  0  0
   24.5093  -10.3160  -19.7561 S   0  0  0  0  0  0  0  0  0  0  0  0
   23.5673  -12.6743  -18.0489 C   0  0  0  0  0  0  0  0  0  0  0  0
   22.4013  -13.1184  -18.2645 O   0  0  0  0  0  0  0  0  0  0  0  0
   23.7995  -11.9090  -16.8904 N   0  0  0  0  0  0  0  0  0  0  0  0
   22.7854  -11.5607  -15.9184 C   0  0  1  0  0  0  0  0  0  0  0  0
   23.1881  -12.2252  -14.6205 C   0  0  0  0  0  0  0  0  0  0  0  0
   22.9888  -13.6770  -14.6031 C   0  0  0  0  0  0  0  0  0  0  0  0
   21.7034  -14.1959  -14.5028 C   0  0  0  0  0  0  0  0  0  0  0  0
   21.4305  -15.5364  -14.4823 C   0  0  0  0  0  0  0  0  0  0  0  0
   22.4792  -16.4317  -14.5649 C   0  0  0  0  0  0  0  0  0  0  0  0
   23.7590  -15.9567  -14.6649 C   0  0  0  0  0  0  0  0  0  0  0  0
   24.0100  -14.6011  -14.6837 C   0  0  0  0  0  0  0  0  0  0  0  0
   22.6503  -10.0867  -15.7977 C   0  0  0  0  0  0  0  0  0  0  0  0
   23.6800   -9.3662  -15.7458 O   0  0  0  0  0  0  0  0  0  0  0  0
   18.7284   -6.5008  -18.5665 N   0  0  0  0  0  0  0  0  0  0  0  0
   19.1352   -5.5708  -17.5955 C   0  0  0  0  0  0  0  0  0  0  0  0
   18.9213   -4.3575  -17.7385 O   0  0  0  0  0  0  0  0  0  0  0  0
   19.8337   -6.0523  -16.3768 C   0  0  0  0  0  0  0  0  0  0  0  0
   20.0062   -7.5458  -16.4038 C   0  0  0  0  0  0  0  0  0  0  0  0
   21.2705   -7.9558  -15.7400 C   0  0  2  0  0  0  0  0  0  0  0  0
   21.4035   -9.4264  -15.7361 N   0  0  0  0  0  0  0  0  0  0  0  0
   21.3769   -7.5011  -14.3466 C   0  0  0  0  0  0  0  0  0  0  0  0
   21.0912   -8.2829  -13.2460 O   0  0  0  0  0  0  0  0  0  0  0  0
   21.7494   -6.3225  -14.1133 O   0  0  0  0  0  0  0  0  0  0  0  0
  2  5  1  0
  2  1  1  6
  3  2  1  0
  4  3  1  0
  5  6  2  0
  7  8  1  0
  7  5  1  0
  9 10  1  0
  8  9  1  1
 10 15  2  0
 11 12  2  0
 11 10  1  0
 12 13  1  0
 13 14  2  0
 15 14  1  0
 16  8  1  0
 16 17  2  0
 18 19  1  0
 19 21  1  0
 20 19  2  0
 21 22  1  0
 23 22  1  1
 23 24  1  0
 23 25  1  0
 24 16  1  0
 25 27  2  0
 25 26  1  0
M  END
$$$$
