CFQ.pdb
     RDKit          3D

 27 27  0  0  1  0  0  0  0  0999 V2000
   27.4791  -22.3798  -17.2864 N   0  0  0  0  0  0  0  0  0  0  0  0
   27.7575  -21.3588  -16.3305 C   0  0  1  0  0  0  0  0  0  0  0  0
   27.2146  -20.0439  -16.9059 C   0  0  0  0  0  0  0  0  0  0  0  0
   25.4283  -20.1768  -17.1492 S   0  0  0  0  0  0  0  0  0  0  0  0
   26.9969  -21.6049  -15.0829 C   0  0  0  0  0  0  0  0  0  0  0  0
   26.0707  -22.4654  -15.0146 O   0  0  0  0  0  0  0  0  0  0  0  0
   27.3149  -20.8563  -13.9339 N   0  0  0  0  0  0  0  0  0  0  0  0
   26.6576  -20.9982  -12.6524 C   0  0  1  0  0  0  0  0  0  0  0  0
   27.5189  -20.2695  -11.6447 C   0  0  0  0  0  0  0  0  0  0  0  0
   26.9744  -20.2625  -10.2841 C   0  0  0  0  0  0  0  0  0  0  0  0
   27.5270  -21.0920   -9.3156 C   0  0  0  0  0  0  0  0  0  0  0  0
   27.0804  -21.1446   -8.0234 C   0  0  0  0  0  0  0  0  0  0  0  0
   26.0252  -20.3354   -7.6492 C   0  0  0  0  0  0  0  0  0  0  0  0
   25.4560  -19.5053   -8.5767 C   0  0  0  0  0  0  0  0  0  0  0  0
   25.9231  -19.4693   -9.8735 C   0  0  0  0  0  0  0  0  0  0  0  0
   25.2670  -20.4799  -12.7092 C   0  0  0  0  0  0  0  0  0  0  0  0
   25.0139  -19.4382  -13.3671 O   0  0  0  0  0  0  0  0  0  0  0  0
   20.7901  -23.3800  -14.8815 N   0  0  0  0  0  0  0  0  0  0  0  0
   20.0357  -22.3112  -14.3699 C   0  0  0  0  0  0  0  0  0  0  0  0
   18.8403  -22.1680  -14.6676 O   0  0  0  0  0  0  0  0  0  0  0  0
   20.6844  -21.3366  -13.4564 C   0  0  0  0  0  0  0  0  0  0  0  0
   22.1228  -21.6984  -13.2088 C   0  0  0  0  0  0  0  0  0  0  0  0
   22.7743  -20.7268  -12.2929 C   0  0  2  0  0  0  0  0  0  0  0  0
   24.1822  -21.1013  -12.0524 N   0  0  0  0  0  0  0  0  0  0  0  0
   22.1171  -20.6227  -10.9826 C   0  0  0  0  0  0  0  0  0  0  0  0
   22.5903  -21.2026   -9.8233 O   0  0  0  0  0  0  0  0  0  0  0  0
   21.0476  -19.9679  -10.8836 O   0  0  0  0  0  0  0  0  0  0  0  0
  2  5  1  0
  2  1  1  6
  3  2  1  0
  4  3  1  0
  5  6  2  0
  7  8  1  0
  7  5  1  0
  9 10  1  0
  8  9  1  1
 10 15  2  0
 11 12  2  0
 11 10  1  0
 12 13  1  0
 13 14  2  0
 15 14  1  0
 16  8  1  0
 16 17  2  0
 18 19  1  0
 19 21  1  0
 20 19  2  0
 21 22  1  0
 23 22  1  6
 23 24  1  0
 23 25  1  0
 24 16  1  0
 25 27  2  0
 25 26  1  0
M  END
$$$$
