CFQ.pdb
     RDKit          3D

 27 27  0  0  1  0  0  0  0  0999 V2000
   29.0085  -19.9757  -14.7767 N   0  0  0  0  0  0  0  0  0  0  0  0
   28.1628  -19.3062  -13.8437 C   0  0  1  0  0  0  0  0  0  0  0  0
   27.3791  -18.2453  -14.6281 C   0  0  0  0  0  0  0  0  0  0  0  0
   28.4850  -16.8952  -15.0991 S   0  0  0  0  0  0  0  0  0  0  0  0
   27.1522  -20.2457  -13.3036 C   0  0  0  0  0  0  0  0  0  0  0  0
   26.8546  -21.3281  -13.8892 O   0  0  0  0  0  0  0  0  0  0  0  0
   26.5006  -19.9239  -12.0980 N   0  0  0  0  0  0  0  0  0  0  0  0
   25.5355  -20.7731  -11.4332 C   0  0  1  0  0  0  0  0  0  0  0  0
   25.4166  -20.2599  -10.0151 C   0  0  0  0  0  0  0  0  0  0  0  0
   26.6246  -20.4467   -9.2065 C   0  0  0  0  0  0  0  0  0  0  0  0
   27.6054  -21.3371   -9.6268 C   0  0  0  0  0  0  0  0  0  0  0  0
   28.7619  -21.5679   -8.9333 C   0  0  0  0  0  0  0  0  0  0  0  0
   28.9780  -20.8862   -7.7514 C   0  0  0  0  0  0  0  0  0  0  0  0
   28.0336  -20.0010   -7.3065 C   0  0  0  0  0  0  0  0  0  0  0  0
   26.8753  -19.7846   -8.0225 C   0  0  0  0  0  0  0  0  0  0  0  0
   24.2404  -20.7743  -12.1600 C   0  0  0  0  0  0  0  0  0  0  0  0
   23.6798  -19.6840  -12.4413 O   0  0  0  0  0  0  0  0  0  0  0  0
   23.6369  -25.6071  -14.0081 N   0  0  0  0  0  0  0  0  0  0  0  0
   24.0881  -24.7300  -15.0082 C   0  0  0  0  0  0  0  0  0  0  0  0
   25.0264  -25.0387  -15.7582 O   0  0  0  0  0  0  0  0  0  0  0  0
   23.4275  -23.4097  -15.1679 C   0  0  0  0  0  0  0  0  0  0  0  0
   22.2995  -23.2445  -14.1873 C   0  0  0  0  0  0  0  0  0  0  0  0
   22.4039  -21.9555  -13.4559 C   0  0  2  0  0  0  0  0  0  0  0  0
   23.5818  -21.9559  -12.5656 N   0  0  0  0  0  0  0  0  0  0  0  0
   21.2277  -21.6525  -12.6286 C   0  0  0  0  0  0  0  0  0  0  0  0
   21.2566  -21.4940  -11.2581 O   0  0  0  0  0  0  0  0  0  0  0  0
   20.1052  -21.5259  -13.1821 O   0  0  0  0  0  0  0  0  0  0  0  0
  2  5  1  0
  2  1  1  6
  3  2  1  0
  4  3  1  0
  5  6  2  0
  7  8  1  0
  7  5  1  0
  9 10  1  0
  8  9  1  1
 10 15  2  0
 11 12  2  0
 11 10  1  0
 12 13  1  0
 13 14  2  0
 15 14  1  0
 16  8  1  0
 16 17  2  0
 18 19  1  0
 19 21  1  0
 20 19  2  0
 21 22  1  0
 23 22  1  1
 23 24  1  0
 23 25  1  0
 24 16  1  0
 25 27  2  0
 25 26  1  0
M  END
$$$$
