CFQ.pdb
     RDKit          3D

 27 27  0  0  1  0  0  0  0  0999 V2000
   28.8261  -20.9195  -14.5495 N   0  0  0  0  0  0  0  0  0  0  0  0
   28.0689  -19.9982  -13.7675 C   0  0  1  0  0  0  0  0  0  0  0  0
   27.3780  -19.0392  -14.7462 C   0  0  0  0  0  0  0  0  0  0  0  0
   28.5993  -17.9156  -15.4629 S   0  0  0  0  0  0  0  0  0  0  0  0
   26.9817  -20.7067  -13.0522 C   0  0  0  0  0  0  0  0  0  0  0  0
   26.5102  -21.8087  -13.4604 O   0  0  0  0  0  0  0  0  0  0  0  0
   26.4549  -20.1354  -11.8785 N   0  0  0  0  0  0  0  0  0  0  0  0
   25.2862  -20.6247  -11.1790 C   0  0  1  0  0  0  0  0  0  0  0  0
   25.3400  -20.0343   -9.7873 C   0  0  0  0  0  0  0  0  0  0  0  0
   26.5774  -20.3277   -9.0589 C   0  0  0  0  0  0  0  0  0  0  0  0
   26.9689  -19.5093   -8.0061 C   0  0  0  0  0  0  0  0  0  0  0  0
   28.1064  -19.7141   -7.2740 C   0  0  0  0  0  0  0  0  0  0  0  0
   28.9171  -20.7877   -7.5880 C   0  0  0  0  0  0  0  0  0  0  0  0
   28.5630  -21.6154   -8.6190 C   0  0  0  0  0  0  0  0  0  0  0  0
   27.4115  -21.3892   -9.3429 C   0  0  0  0  0  0  0  0  0  0  0  0
   24.0433  -20.2716  -11.9111 C   0  0  0  0  0  0  0  0  0  0  0  0
   24.1153  -19.6596  -13.0076 O   0  0  0  0  0  0  0  0  0  0  0  0
   20.9329  -24.7335  -13.5756 N   0  0  0  0  0  0  0  0  0  0  0  0
   20.9392  -23.7852  -14.6119 C   0  0  0  0  0  0  0  0  0  0  0  0
   20.4268  -24.0340  -15.7136 O   0  0  0  0  0  0  0  0  0  0  0  0
   21.5717  -22.4617  -14.3809 C   0  0  0  0  0  0  0  0  0  0  0  0
   22.1351  -22.3642  -12.9902 C   0  0  0  0  0  0  0  0  0  0  0  0
   21.6843  -21.1224  -12.3105 C   0  0  2  0  0  0  0  0  0  0  0  0
   22.7506  -20.5892  -11.4392 N   0  0  0  0  0  0  0  0  0  0  0  0
   20.4884  -21.3095  -11.4772 C   0  0  0  0  0  0  0  0  0  0  0  0
   19.6437  -20.2918  -11.0834 O   0  0  0  0  0  0  0  0  0  0  0  0
   20.1929  -22.4660  -11.0803 O   0  0  0  0  0  0  0  0  0  0  0  0
  2  5  1  0
  2  1  1  6
  3  2  1  0
  4  3  1  0
  5  6  2  0
  7  8  1  0
  7  5  1  0
  9 10  1  0
  8  9  1  1
 10 15  2  0
 11 12  2  0
 11 10  1  0
 12 13  1  0
 13 14  2  0
 15 14  1  0
 16  8  1  0
 16 17  2  0
 18 19  1  0
 19 21  1  0
 20 19  2  0
 21 22  1  0
 23 22  1  1
 23 24  1  0
 23 25  1  0
 24 16  1  0
 25 27  2  0
 25 26  1  0
M  END
$$$$
