CFQ.pdb
     RDKit          3D

 27 27  0  0  1  0  0  0  0  0999 V2000
   28.2710  -22.3084  -17.3973 N   0  0  0  0  0  0  0  0  0  0  0  0
   27.5732  -21.1758  -16.8835 C   0  0  1  0  0  0  0  0  0  0  0  0
   26.7044  -20.6276  -18.0235 C   0  0  0  0  0  0  0  0  0  0  0  0
   27.6781  -19.4940  -19.0406 S   0  0  0  0  0  0  0  0  0  0  0  0
   26.6333  -21.5944  -15.8172 C   0  0  0  0  0  0  0  0  0  0  0  0
   25.9162  -22.6330  -15.9179 O   0  0  0  0  0  0  0  0  0  0  0  0
   26.5340  -20.8105  -14.6522 N   0  0  0  0  0  0  0  0  0  0  0  0
   25.6159  -21.0685  -13.5636 C   0  0  1  0  0  0  0  0  0  0  0  0
   26.1622  -20.3359  -12.3581 C   0  0  0  0  0  0  0  0  0  0  0  0
   25.3305  -20.4536  -11.1572 C   0  0  0  0  0  0  0  0  0  0  0  0
   25.7848  -21.1954  -10.0733 C   0  0  0  0  0  0  0  0  0  0  0  0
   25.0729  -21.3532   -8.9156 C   0  0  0  0  0  0  0  0  0  0  0  0
   23.8358  -20.7482   -8.8060 C   0  0  0  0  0  0  0  0  0  0  0  0
   23.3562  -20.0096   -9.8537 C   0  0  0  0  0  0  0  0  0  0  0  0
   24.0917  -19.8645  -11.0109 C   0  0  0  0  0  0  0  0  0  0  0  0
   24.2372  -20.6487  -13.9217 C   0  0  0  0  0  0  0  0  0  0  0  0
   24.0454  -19.5333  -14.4705 O   0  0  0  0  0  0  0  0  0  0  0  0
   17.6506  -22.1062  -14.2565 N   0  0  0  0  0  0  0  0  0  0  0  0
   18.7993  -22.4440  -14.9910 C   0  0  0  0  0  0  0  0  0  0  0  0
   19.0409  -23.6203  -15.3010 O   0  0  0  0  0  0  0  0  0  0  0  0
   19.7396  -21.3708  -15.4022 C   0  0  0  0  0  0  0  0  0  0  0  0
   21.1650  -21.7625  -15.1267 C   0  0  0  0  0  0  0  0  0  0  0  0
   21.7230  -20.9997  -13.9803 C   0  0  2  0  0  0  0  0  0  0  0  0
   23.0975  -21.4461  -13.6774 N   0  0  0  0  0  0  0  0  0  0  0  0
   20.9356  -21.1332  -12.7467 C   0  0  0  0  0  0  0  0  0  0  0  0
   19.8840  -20.3103  -12.3984 O   0  0  0  0  0  0  0  0  0  0  0  0
   21.2201  -22.0505  -11.9343 O   0  0  0  0  0  0  0  0  0  0  0  0
  2  5  1  0
  2  1  1  6
  3  2  1  0
  4  3  1  0
  5  6  2  0
  7  8  1  0
  7  5  1  0
  9 10  1  0
  8  9  1  1
 10 15  2  0
 11 12  2  0
 11 10  1  0
 12 13  1  0
 13 14  2  0
 15 14  1  0
 16  8  1  0
 16 17  2  0
 18 19  1  0
 19 21  1  0
 20 19  2  0
 21 22  1  0
 23 22  1  6
 23 24  1  0
 23 25  1  0
 24 16  1  0
 25 27  2  0
 25 26  1  0
M  END
$$$$
