CFQ.pdb
     RDKit          3D

 27 27  0  0  1  0  0  0  0  0999 V2000
   19.9332  -19.6374  -12.8727 N   0  0  0  0  0  0  0  0  0  0  0  0
   20.8958  -20.6512  -13.1547 C   0  0  1  0  0  0  0  0  0  0  0  0
   20.8145  -20.9424  -14.6591 C   0  0  0  0  0  0  0  0  0  0  0  0
   19.2741  -21.8130  -15.0289 S   0  0  0  0  0  0  0  0  0  0  0  0
   22.2646  -20.1393  -12.9100 C   0  0  0  0  0  0  0  0  0  0  0  0
   22.5843  -18.9336  -13.1277 O   0  0  0  0  0  0  0  0  0  0  0  0
   23.2435  -21.0236  -12.4187 N   0  0  0  0  0  0  0  0  0  0  0  0
   24.6023  -20.6470  -12.0928 C   0  0  1  0  0  0  0  0  0  0  0  0
   25.0313  -21.5358  -10.9464 C   0  0  0  0  0  0  0  0  0  0  0  0
   26.3531  -21.2148  -10.4008 C   0  0  0  0  0  0  0  0  0  0  0  0
   26.4555  -20.4429   -9.2497 C   0  0  0  0  0  0  0  0  0  0  0  0
   27.6489  -20.1005   -8.6747 C   0  0  0  0  0  0  0  0  0  0  0  0
   28.8210  -20.5391   -9.2597 C   0  0  0  0  0  0  0  0  0  0  0  0
   28.7586  -21.3016  -10.3946 C   0  0  0  0  0  0  0  0  0  0  0  0
   27.5441  -21.6343  -10.9563 C   0  0  0  0  0  0  0  0  0  0  0  0
   25.4853  -20.7663  -13.2809 C   0  0  0  0  0  0  0  0  0  0  0  0
   25.4172  -21.7882  -14.0111 O   0  0  0  0  0  0  0  0  0  0  0  0
   26.9720  -19.3096  -18.0490 N   0  0  0  0  0  0  0  0  0  0  0  0
   25.9381  -18.5222  -17.5160 C   0  0  0  0  0  0  0  0  0  0  0  0
   24.9256  -18.2553  -18.1807 O   0  0  0  0  0  0  0  0  0  0  0  0
   26.0628  -18.0012  -16.1310 C   0  0  0  0  0  0  0  0  0  0  0  0
   27.3403  -18.4663  -15.4886 C   0  0  0  0  0  0  0  0  0  0  0  0
   27.1905  -19.8270  -14.9113 C   0  0  2  0  0  0  0  0  0  0  0  0
   26.4220  -19.7765  -13.6515 N   0  0  0  0  0  0  0  0  0  0  0  0
   28.4713  -20.4855  -14.6186 C   0  0  0  0  0  0  0  0  0  0  0  0
   29.2075  -20.2857  -13.4687 O   0  0  0  0  0  0  0  0  0  0  0  0
   28.9531  -21.2891  -15.4579 O   0  0  0  0  0  0  0  0  0  0  0  0
  2  5  1  0
  2  1  1  6
  3  2  1  0
  4  3  1  0
  5  6  2  0
  7  8  1  0
  7  5  1  0
  9 10  1  0
  8  9  1  1
 10 15  2  0
 11 12  2  0
 11 10  1  0
 12 13  1  0
 13 14  2  0
 15 14  1  0
 16  8  1  0
 16 17  2  0
 18 19  1  0
 19 21  1  0
 20 19  2  0
 21 22  1  0
 23 22  1  1
 23 24  1  0
 23 25  1  0
 24 16  1  0
 25 27  2  0
 25 26  1  0
M  END
$$$$
