CKY.pdb
     RDKit          3D

 28 28  0  0  1  0  0  0  0  0999 V2000
    6.5109  -19.9819   22.2494 N   0  0  0  0  0  0  0  0  0  0  0  0
    6.3460  -18.7943   23.0399 C   0  0  1  0  0  0  0  0  0  0  0  0
    6.6980  -19.0761   24.4644 C   0  0  0  0  0  0  0  0  0  0  0  0
    6.0308  -17.7174   25.4763 S   0  0  0  0  0  0  0  0  0  0  0  0
    7.2271  -17.6943   22.4957 C   0  0  0  0  0  0  0  0  0  0  0  0
    8.3744  -18.0346   22.1632 O   0  0  0  0  0  0  0  0  0  0  0  0
    6.7567  -16.3717   22.3810 N   0  0  0  0  0  0  0  0  0  0  0  0
    7.4420  -15.2285   21.8608 C   0  0  1  0  0  0  0  0  0  0  0  0
    6.5313  -14.1350   21.3399 C   0  0  0  0  0  0  0  0  0  0  0  0
    7.3275  -13.0307   20.6896 C   0  0  0  0  0  0  0  0  0  0  0  0
    7.5160  -13.2868   19.2018 C   0  0  0  0  0  0  0  0  0  0  0  0
    8.3098  -12.2084   18.5402 C   0  0  0  0  0  0  0  0  0  0  0  0
    8.4413  -12.5028   17.1327 N   0  0  0  0  0  0  0  0  0  0  0  0
    8.6350  -14.8075   22.5526 C   0  0  0  0  0  0  0  0  0  0  0  0
    8.8571  -13.5704   22.6925 O   0  0  0  0  0  0  0  0  0  0  0  0
   11.3245  -14.8562   30.6017 O   0  0  0  0  0  0  0  0  0  0  0  0
   10.7584  -14.9990   29.3525 C   0  0  0  0  0  0  0  0  0  0  0  0
   10.4943  -16.2249   28.7856 C   0  0  0  0  0  0  0  0  0  0  0  0
    9.9279  -16.3378   27.5359 C   0  0  0  0  0  0  0  0  0  0  0  0
    9.5974  -15.2030   26.7901 C   0  0  0  0  0  0  0  0  0  0  0  0
    9.0098  -15.3703   25.4421 C   0  0  0  0  0  0  0  0  0  0  0  0
   10.1114  -15.5987   24.4445 C   0  0  2  0  0  0  0  0  0  0  0  0
    9.5803  -15.6995   23.0895 N   0  0  0  0  0  0  0  0  0  0  0  0
   11.0304  -16.6900   24.7646 C   0  0  0  0  0  0  0  0  0  0  0  0
   10.8536  -17.8720   24.3835 O   0  0  0  0  0  0  0  0  0  0  0  0
    9.8563  -13.9708   27.3445 C   0  0  0  0  0  0  0  0  0  0  0  0
   10.4283  -13.8908   28.6075 C   0  0  0  0  0  0  0  0  0  0  0  0
   12.1962  -16.5077   25.5301 O   0  0  0  0  0  0  0  0  0  0  0  0
  2  5  1  0
  2  1  1  6
  3  4  1  0
  3  2  1  0
  5  6  2  0
  7  8  1  0
  7  5  1  0
  8  9  1  1
 10  9  1  0
 11 10  1  0
 11 12  1  0
 13 12  1  0
 14 15  2  0
 14  8  1  0
 16 17  1  0
 17 18  2  0
 17 27  1  0
 18 19  1  0
 19 20  2  0
 20 26  1  0
 20 21  1  0
 22 21  1  1
 22 24  1  0
 22 23  1  0
 23 14  1  0
 24 28  1  0
 25 24  2  0
 27 26  2  0
M  END
$$$$
