CKY.pdb
     RDKit          3D

 28 28  0  0  1  0  0  0  0  0999 V2000
    5.3141  -14.0188   26.4503 N   0  0  0  0  0  0  0  0  0  0  0  0
    5.8183  -13.3343   25.2927 C   0  0  1  0  0  0  0  0  0  0  0  0
    6.4388  -12.0366   25.6967 C   0  0  0  0  0  0  0  0  0  0  0  0
    5.1293  -11.0024   26.4253 S   0  0  0  0  0  0  0  0  0  0  0  0
    6.8384  -14.2015   24.5929 C   0  0  0  0  0  0  0  0  0  0  0  0
    7.3937  -15.0600   25.2979 O   0  0  0  0  0  0  0  0  0  0  0  0
    7.1266  -14.0302   23.2249 N   0  0  0  0  0  0  0  0  0  0  0  0
    8.0309  -14.7802   22.4082 C   0  0  1  0  0  0  0  0  0  0  0  0
    7.6652  -14.8159   20.9380 C   0  0  0  0  0  0  0  0  0  0  0  0
    8.5096  -15.8208   20.1939 C   0  0  0  0  0  0  0  0  0  0  0  0
    8.1534  -15.8558   18.7152 C   0  0  0  0  0  0  0  0  0  0  0  0
    8.9260  -16.8969   17.9736 C   0  0  0  0  0  0  0  0  0  0  0  0
    8.5563  -18.2060   18.4581 N   0  0  0  0  0  0  0  0  0  0  0  0
    9.4338  -14.6891   22.7282 C   0  0  0  0  0  0  0  0  0  0  0  0
   10.0173  -13.5734   22.6097 O   0  0  0  0  0  0  0  0  0  0  0  0
   11.4854  -16.1398   30.8120 O   0  0  0  0  0  0  0  0  0  0  0  0
   10.9951  -16.0783   29.5246 C   0  0  0  0  0  0  0  0  0  0  0  0
   10.6796  -17.1978   28.7890 C   0  0  0  0  0  0  0  0  0  0  0  0
   10.1913  -17.1067   27.5051 C   0  0  0  0  0  0  0  0  0  0  0  0
    9.9961  -15.8642   26.8956 C   0  0  0  0  0  0  0  0  0  0  0  0
    9.4893  -15.8127   25.5061 C   0  0  0  0  0  0  0  0  0  0  0  0
   10.6419  -15.9551   24.5509 C   0  0  2  0  0  0  0  0  0  0  0  0
   10.2047  -15.7789   23.1704 N   0  0  0  0  0  0  0  0  0  0  0  0
   11.4573  -17.1559   24.7274 C   0  0  0  0  0  0  0  0  0  0  0  0
   11.1147  -18.2875   24.3083 O   0  0  0  0  0  0  0  0  0  0  0  0
   10.3078  -14.7364   27.6194 C   0  0  0  0  0  0  0  0  0  0  0  0
   10.7983  -14.8623   28.9125 C   0  0  0  0  0  0  0  0  0  0  0  0
   12.7008  -17.1454   25.3847 O   0  0  0  0  0  0  0  0  0  0  0  0
  2  5  1  0
  2  1  1  1
  3  4  1  0
  3  2  1  0
  5  6  2  0
  7  8  1  0
  7  5  1  0
  8  9  1  6
 10  9  1  0
 11 10  1  0
 11 12  1  0
 13 12  1  0
 14 15  2  0
 14  8  1  0
 16 17  1  0
 17 18  2  0
 17 27  1  0
 18 19  1  0
 19 20  2  0
 20 26  1  0
 20 21  1  0
 22 21  1  1
 22 24  1  0
 22 23  1  0
 23 14  1  0
 24 28  1  0
 25 24  2  0
 27 26  2  0
M  END
$$$$
