CKY.pdb
     RDKit          3D

 28 28  0  0  1  0  0  0  0  0999 V2000
   12.5930  -17.7370   19.0689 N   0  0  0  0  0  0  0  0  0  0  0  0
   11.9024  -18.3799   20.1517 C   0  0  1  0  0  0  0  0  0  0  0  0
   12.8043  -19.3675   20.8178 C   0  0  0  0  0  0  0  0  0  0  0  0
   11.8925  -20.0893   22.2188 S   0  0  0  0  0  0  0  0  0  0  0  0
   11.4422  -17.3427   21.1490 C   0  0  0  0  0  0  0  0  0  0  0  0
   12.3389  -16.7862   21.8038 O   0  0  0  0  0  0  0  0  0  0  0  0
   10.0760  -17.0407   21.3102 N   0  0  0  0  0  0  0  0  0  0  0  0
    9.4723  -16.1254   22.2295 C   0  0  1  0  0  0  0  0  0  0  0  0
    8.2637  -15.3930   21.6823 C   0  0  0  0  0  0  0  0  0  0  0  0
    8.6567  -14.4579   20.5654 C   0  0  0  0  0  0  0  0  0  0  0  0
    7.4325  -13.8667   19.8823 C   0  0  0  0  0  0  0  0  0  0  0  0
    7.7998  -12.9454   18.7656 C   0  0  0  0  0  0  0  0  0  0  0  0
    6.5994  -12.4789   18.1126 N   0  0  0  0  0  0  0  0  0  0  0  0
    9.4198  -16.5247   23.6140 C   0  0  0  0  0  0  0  0  0  0  0  0
    9.1306  -17.7234   23.8947 O   0  0  0  0  0  0  0  0  0  0  0  0
    5.2534  -11.4799   25.9313 O   0  0  0  0  0  0  0  0  0  0  0  0
    6.3426  -12.2877   26.1816 C   0  0  0  0  0  0  0  0  0  0  0  0
    7.5508  -12.1359   25.5403 C   0  0  0  0  0  0  0  0  0  0  0  0
    8.6221  -12.9573   25.8103 C   0  0  0  0  0  0  0  0  0  0  0  0
    8.5223  -13.9841   26.7531 C   0  0  0  0  0  0  0  0  0  0  0  0
    9.6921  -14.8572   26.9970 C   0  0  0  0  0  0  0  0  0  0  0  0
    9.6181  -16.0530   26.0884 C   0  0  2  0  0  0  0  0  0  0  0  0
    9.6741  -15.6520   24.6870 N   0  0  0  0  0  0  0  0  0  0  0  0
    8.5189  -16.9784   26.3590 C   0  0  0  0  0  0  0  0  0  0  0  0
    7.5594  -17.1557   25.5705 O   0  0  0  0  0  0  0  0  0  0  0  0
    7.3200  -14.1475   27.4017 C   0  0  0  0  0  0  0  0  0  0  0  0
    6.2584  -13.3021   27.1067 C   0  0  0  0  0  0  0  0  0  0  0  0
    8.4424  -17.7525   27.5308 O   0  0  0  0  0  0  0  0  0  0  0  0
  2  5  1  0
  2  1  1  6
  3  4  1  0
  3  2  1  0
  5  6  2  0
  7  8  1  0
  7  5  1  0
  8  9  1  6
 10  9  1  0
 11 10  1  0
 11 12  1  0
 13 12  1  0
 14 15  2  0
 14  8  1  0
 16 17  1  0
 17 18  2  0
 17 27  1  0
 18 19  1  0
 19 20  2  0
 20 26  1  0
 20 21  1  0
 22 21  1  1
 22 24  1  0
 22 23  1  0
 23 14  1  0
 24 28  1  0
 25 24  2  0
 27 26  2  0
M  END
$$$$
