CKY.pdb
     RDKit          3D

 28 28  0  0  1  0  0  0  0  0999 V2000
    5.2890  -14.2338   26.5430 N   0  0  0  0  0  0  0  0  0  0  0  0
    6.0060  -13.3363   25.6810 C   0  0  1  0  0  0  0  0  0  0  0  0
    6.8642  -12.4232   26.4948 C   0  0  0  0  0  0  0  0  0  0  0  0
    5.7717  -11.2025   27.2895 S   0  0  0  0  0  0  0  0  0  0  0  0
    6.8589  -14.1282   24.7179 C   0  0  0  0  0  0  0  0  0  0  0  0
    7.4337  -15.1209   25.1942 O   0  0  0  0  0  0  0  0  0  0  0  0
    6.9808  -13.7471   23.3675 N   0  0  0  0  0  0  0  0  0  0  0  0
    7.8255  -14.3107   22.3595 C   0  0  1  0  0  0  0  0  0  0  0  0
    7.5433  -13.8144   20.9557 C   0  0  0  0  0  0  0  0  0  0  0  0
    8.4306  -14.5037   19.9487 C   0  0  0  0  0  0  0  0  0  0  0  0
    7.6117  -15.1568   18.8452 C   0  0  0  0  0  0  0  0  0  0  0  0
    8.4692  -15.8829   17.8612 C   0  0  0  0  0  0  0  0  0  0  0  0
    7.6890  -16.2055   16.6898 N   0  0  0  0  0  0  0  0  0  0  0  0
    9.2078  -14.5279   22.7077 C   0  0  0  0  0  0  0  0  0  0  0  0
   10.0118  -13.5531   22.6579 O   0  0  0  0  0  0  0  0  0  0  0  0
   12.2421  -15.7832   30.4650 O   0  0  0  0  0  0  0  0  0  0  0  0
   11.5801  -15.6877   29.2592 C   0  0  0  0  0  0  0  0  0  0  0  0
   11.5229  -14.5242   28.5263 C   0  0  0  0  0  0  0  0  0  0  0  0
   10.8545  -14.4576   27.3246 C   0  0  0  0  0  0  0  0  0  0  0  0
   10.2038  -15.5775   26.7996 C   0  0  0  0  0  0  0  0  0  0  0  0
    9.4792  -15.4560   25.5150 C   0  0  0  0  0  0  0  0  0  0  0  0
   10.3278  -16.0219   24.4101 C   0  0  2  0  0  0  0  0  0  0  0  0
    9.7248  -15.7738   23.1051 N   0  0  0  0  0  0  0  0  0  0  0  0
   10.7303  -17.4171   24.5809 C   0  0  0  0  0  0  0  0  0  0  0  0
    9.9581  -18.3851   24.3796 O   0  0  0  0  0  0  0  0  0  0  0  0
   10.2525  -16.7474   27.5221 C   0  0  0  0  0  0  0  0  0  0  0  0
   10.9354  -16.7818   28.7309 C   0  0  0  0  0  0  0  0  0  0  0  0
   12.0226  -17.7955   24.9872 O   0  0  0  0  0  0  0  0  0  0  0  0
  2  5  1  0
  2  1  1  1
  3  4  1  0
  3  2  1  0
  5  6  2  0
  7  8  1  0
  7  5  1  0
  8  9  1  6
 10  9  1  0
 11 10  1  0
 11 12  1  0
 13 12  1  0
 14 15  2  0
 14  8  1  0
 16 17  1  0
 17 18  2  0
 17 27  1  0
 18 19  1  0
 19 20  2  0
 20 26  1  0
 20 21  1  0
 22 21  1  1
 22 24  1  0
 22 23  1  0
 23 14  1  0
 24 28  1  0
 25 24  2  0
 27 26  2  0
M  END
$$$$
