CKY.pdb
     RDKit          3D

 28 28  0  0  1  0  0  0  0  0999 V2000
    5.7750  -14.6971   26.4329 N   0  0  0  0  0  0  0  0  0  0  0  0
    6.0024  -13.7951   25.3387 C   0  0  1  0  0  0  0  0  0  0  0  0
    6.5362  -12.4966   25.8497 C   0  0  0  0  0  0  0  0  0  0  0  0
    5.2614  -11.7596   26.9207 S   0  0  0  0  0  0  0  0  0  0  0  0
    6.9804  -14.4113   24.3661 C   0  0  0  0  0  0  0  0  0  0  0  0
    7.6729  -15.3414   24.8112 O   0  0  0  0  0  0  0  0  0  0  0  0
    7.0844  -13.9449   23.0412 N   0  0  0  0  0  0  0  0  0  0  0  0
    8.0417  -14.3133   22.0436 C   0  0  1  0  0  0  0  0  0  0  0  0
    7.7787  -13.7214   20.6736 C   0  0  0  0  0  0  0  0  0  0  0  0
    8.4167  -14.5564   19.5910 C   0  0  0  0  0  0  0  0  0  0  0  0
    8.1298  -13.9853   18.2103 C   0  0  0  0  0  0  0  0  0  0  0  0
    8.7209  -14.8191   17.1212 C   0  0  0  0  0  0  0  0  0  0  0  0
    8.3286  -14.2835   15.8389 N   0  0  0  0  0  0  0  0  0  0  0  0
    9.4193  -14.4070   22.4588 C   0  0  0  0  0  0  0  0  0  0  0  0
   10.1473  -13.3745   22.4014 O   0  0  0  0  0  0  0  0  0  0  0  0
   11.4795  -15.8470   30.5429 O   0  0  0  0  0  0  0  0  0  0  0  0
   10.9613  -15.7602   29.2680 C   0  0  0  0  0  0  0  0  0  0  0  0
   10.4504  -16.8444   28.5917 C   0  0  0  0  0  0  0  0  0  0  0  0
    9.9390  -16.7285   27.3188 C   0  0  0  0  0  0  0  0  0  0  0  0
    9.9193  -15.4959   26.6603 C   0  0  0  0  0  0  0  0  0  0  0  0
    9.3798  -15.4204   25.2843 C   0  0  0  0  0  0  0  0  0  0  0  0
   10.4628  -15.7804   24.3053 C   0  0  2  0  0  0  0  0  0  0  0  0
   10.0122  -15.5915   22.9307 N   0  0  0  0  0  0  0  0  0  0  0  0
   11.0855  -17.0871   24.5122 C   0  0  0  0  0  0  0  0  0  0  0  0
   12.1493  -17.2474   25.1575 O   0  0  0  0  0  0  0  0  0  0  0  0
   10.4273  -14.4034   27.3246 C   0  0  0  0  0  0  0  0  0  0  0  0
   10.9358  -14.5536   28.6082 C   0  0  0  0  0  0  0  0  0  0  0  0
   10.5435  -18.2811   24.0035 O   0  0  0  0  0  0  0  0  0  0  0  0
  2  5  1  0
  2  1  1  1
  3  4  1  0
  3  2  1  0
  5  6  2  0
  7  8  1  0
  7  5  1  0
  8  9  1  6
 10  9  1  0
 11 10  1  0
 11 12  1  0
 13 12  1  0
 14 15  2  0
 14  8  1  0
 16 17  1  0
 17 18  2  0
 17 27  1  0
 18 19  1  0
 19 20  2  0
 20 26  1  0
 20 21  1  0
 22 21  1  1
 22 24  1  0
 22 23  1  0
 23 14  1  0
 24 28  1  0
 25 24  2  0
 27 26  2  0
M  END
$$$$
