CKY.pdb
     RDKit          3D

 28 28  0  0  1  0  0  0  0  0999 V2000
    6.1978  -20.0336   22.3285 N   0  0  0  0  0  0  0  0  0  0  0  0
    5.7369  -18.6986   22.5894 C   0  0  1  0  0  0  0  0  0  0  0  0
    5.5463  -18.5020   24.0582 C   0  0  0  0  0  0  0  0  0  0  0  0
    6.9875  -19.2262   24.9029 S   0  0  0  0  0  0  0  0  0  0  0  0
    6.7396  -17.7012   22.0583 C   0  0  0  0  0  0  0  0  0  0  0  0
    7.8682  -18.1523   21.8025 O   0  0  0  0  0  0  0  0  0  0  0  0
    6.3952  -16.3482   21.8723 N   0  0  0  0  0  0  0  0  0  0  0  0
    7.2471  -15.2580   21.5076 C   0  0  1  0  0  0  0  0  0  0  0  0
    6.5482  -13.9158   21.4280 C   0  0  0  0  0  0  0  0  0  0  0  0
    7.4307  -12.8835   20.7707 C   0  0  0  0  0  0  0  0  0  0  0  0
    7.3127  -12.9393   19.2549 C   0  0  0  0  0  0  0  0  0  0  0  0
    8.2490  -11.9905   18.5812 C   0  0  0  0  0  0  0  0  0  0  0  0
    8.0610  -12.0634   17.1514 N   0  0  0  0  0  0  0  0  0  0  0  0
    8.5861  -15.2642   22.0425 C   0  0  0  0  0  0  0  0  0  0  0  0
    9.3971  -14.3672   21.6723 O   0  0  0  0  0  0  0  0  0  0  0  0
   11.0224  -14.6552   30.2668 O   0  0  0  0  0  0  0  0  0  0  0  0
   10.5438  -14.7067   28.9746 C   0  0  0  0  0  0  0  0  0  0  0  0
   11.2956  -15.1605   27.9150 C   0  0  0  0  0  0  0  0  0  0  0  0
   10.7917  -15.2011   26.6345 C   0  0  0  0  0  0  0  0  0  0  0  0
    9.4877  -14.7797   26.3603 C   0  0  0  0  0  0  0  0  0  0  0  0
    8.9935  -14.8203   24.9659 C   0  0  0  0  0  0  0  0  0  0  0  0
    9.7416  -15.8789   24.2039 C   0  0  2  0  0  0  0  0  0  0  0  0
    9.0530  -16.2187   22.9635 N   0  0  0  0  0  0  0  0  0  0  0  0
   10.1125  -17.0633   24.9769 C   0  0  0  0  0  0  0  0  0  0  0  0
    9.4166  -18.1064   25.0132 O   0  0  0  0  0  0  0  0  0  0  0  0
    8.7248  -14.3232   27.4103 C   0  0  0  0  0  0  0  0  0  0  0  0
    9.2625  -14.2950   28.6905 C   0  0  0  0  0  0  0  0  0  0  0  0
   11.2859  -17.1353   25.7491 O   0  0  0  0  0  0  0  0  0  0  0  0
  2  5  1  0
  2  1  1  1
  3  4  1  0
  3  2  1  0
  5  6  2  0
  7  8  1  0
  7  5  1  0
  8  9  1  1
 10  9  1  0
 11 10  1  0
 11 12  1  0
 13 12  1  0
 14 15  2  0
 14  8  1  0
 16 17  1  0
 17 18  2  0
 17 27  1  0
 18 19  1  0
 19 20  2  0
 20 26  1  0
 20 21  1  0
 22 21  1  1
 22 24  1  0
 22 23  1  0
 23 14  1  0
 24 28  1  0
 25 24  2  0
 27 26  2  0
M  END
$$$$
