CKY.pdb
     RDKit          3D

 28 28  0  0  1  0  0  0  0  0999 V2000
    6.2804  -19.6643   21.4556 N   0  0  0  0  0  0  0  0  0  0  0  0
    6.4278  -18.6003   22.4090 C   0  0  1  0  0  0  0  0  0  0  0  0
    6.8555  -19.1534   23.7294 C   0  0  0  0  0  0  0  0  0  0  0  0
    5.5561  -20.2964   24.2954 S   0  0  0  0  0  0  0  0  0  0  0  0
    7.4486  -17.6058   21.9079 C   0  0  0  0  0  0  0  0  0  0  0  0
    8.3110  -18.0576   21.1366 O   0  0  0  0  0  0  0  0  0  0  0  0
    7.4068  -16.2547   22.3033 N   0  0  0  0  0  0  0  0  0  0  0  0
    8.2671  -15.1851   21.8993 C   0  0  1  0  0  0  0  0  0  0  0  0
    7.5731  -13.8468   21.7445 C   0  0  0  0  0  0  0  0  0  0  0  0
    6.8833  -13.7458   20.4065 C   0  0  0  0  0  0  0  0  0  0  0  0
    7.8874  -13.5563   19.2793 C   0  0  0  0  0  0  0  0  0  0  0  0
    7.2210  -13.2908   17.9693 C   0  0  0  0  0  0  0  0  0  0  0  0
    8.2132  -13.2714   16.9204 N   0  0  0  0  0  0  0  0  0  0  0  0
    9.5979  -15.1681   22.4541 C   0  0  0  0  0  0  0  0  0  0  0  0
   10.3326  -14.1589   22.2512 O   0  0  0  0  0  0  0  0  0  0  0  0
   10.5961  -14.8634   30.8731 O   0  0  0  0  0  0  0  0  0  0  0  0
   10.2710  -15.0329   29.5438 C   0  0  0  0  0  0  0  0  0  0  0  0
   10.0640  -13.9792   28.6831 C   0  0  0  0  0  0  0  0  0  0  0  0
    9.7404  -14.1779   27.3599 C   0  0  0  0  0  0  0  0  0  0  0  0
    9.6090  -15.4672   26.8366 C   0  0  0  0  0  0  0  0  0  0  0  0
    9.2390  -15.6351   25.4136 C   0  0  0  0  0  0  0  0  0  0  0  0
   10.4373  -16.1140   24.6416 C   0  0  2  0  0  0  0  0  0  0  0  0
   10.1373  -16.2184   23.2178 N   0  0  0  0  0  0  0  0  0  0  0  0
   11.0792  -17.3190   25.1648 C   0  0  0  0  0  0  0  0  0  0  0  0
   10.5683  -18.4617   25.0817 O   0  0  0  0  0  0  0  0  0  0  0  0
    9.8128  -16.5301   27.6860 C   0  0  0  0  0  0  0  0  0  0  0  0
   10.1382  -16.2960   29.0157 C   0  0  0  0  0  0  0  0  0  0  0  0
   12.3295  -17.3006   25.8089 O   0  0  0  0  0  0  0  0  0  0  0  0
  2  5  1  0
  2  1  1  6
  3  4  1  0
  3  2  1  0
  5  6  2  0
  7  8  1  0
  7  5  1  0
  8  9  1  1
 10  9  1  0
 11 10  1  0
 11 12  1  0
 13 12  1  0
 14 15  2  0
 14  8  1  0
 16 17  1  0
 17 18  2  0
 17 27  1  0
 18 19  1  0
 19 20  2  0
 20 26  1  0
 20 21  1  0
 22 21  1  1
 22 24  1  0
 22 23  1  0
 23 14  1  0
 24 28  1  0
 25 24  2  0
 27 26  2  0
M  END
$$$$
