CKY.pdb
     RDKit          3D

 28 28  0  0  1  0  0  0  0  0999 V2000
    6.2748  -19.7304   21.0882 N   0  0  0  0  0  0  0  0  0  0  0  0
    5.9961  -18.4678   21.7136 C   0  0  1  0  0  0  0  0  0  0  0  0
    5.6099  -18.6793   23.1413 C   0  0  0  0  0  0  0  0  0  0  0  0
    3.8626  -19.1904   23.1700 S   0  0  0  0  0  0  0  0  0  0  0  0
    7.2154  -17.5795   21.6320 C   0  0  0  0  0  0  0  0  0  0  0  0
    8.2829  -18.0898   22.0095 O   0  0  0  0  0  0  0  0  0  0  0  0
    7.1248  -16.2576   21.1545 N   0  0  0  0  0  0  0  0  0  0  0  0
    8.0812  -15.2010   21.2817 C   0  0  1  0  0  0  0  0  0  0  0  0
    7.8472  -14.0282   20.3510 C   0  0  0  0  0  0  0  0  0  0  0  0
    8.1486  -14.4029   18.9209 C   0  0  0  0  0  0  0  0  0  0  0  0
    7.8004  -13.2698   17.9670 C   0  0  0  0  0  0  0  0  0  0  0  0
    8.0149  -13.6494   16.5385 C   0  0  0  0  0  0  0  0  0  0  0  0
    7.6917  -12.5273   15.6892 N   0  0  0  0  0  0  0  0  0  0  0  0
    8.5470  -14.8941   22.6113 C   0  0  0  0  0  0  0  0  0  0  0  0
    8.0202  -13.9295   23.2369 O   0  0  0  0  0  0  0  0  0  0  0  0
    6.4199  -10.6119   26.6334 O   0  0  0  0  0  0  0  0  0  0  0  0
    6.9061  -11.8715   26.3535 C   0  0  0  0  0  0  0  0  0  0  0  0
    7.7304  -12.5638   27.2110 C   0  0  0  0  0  0  0  0  0  0  0  0
    8.2011  -13.8209   26.9057 C   0  0  0  0  0  0  0  0  0  0  0  0
    7.8569  -14.4464   25.7042 C   0  0  0  0  0  0  0  0  0  0  0  0
    8.4024  -15.7895   25.4066 C   0  0  0  0  0  0  0  0  0  0  0  0
    9.7294  -15.6450   24.7144 C   0  0  2  0  0  0  0  0  0  0  0  0
    9.5649  -15.6109   23.2653 N   0  0  0  0  0  0  0  0  0  0  0  0
   10.7620  -16.5908   25.1351 C   0  0  0  0  0  0  0  0  0  0  0  0
   11.1691  -16.6833   26.3181 O   0  0  0  0  0  0  0  0  0  0  0  0
    7.0336  -13.7656   24.8372 C   0  0  0  0  0  0  0  0  0  0  0  0
    6.5755  -12.4987   25.1748 C   0  0  0  0  0  0  0  0  0  0  0  0
   11.3901  -17.4818   24.2463 O   0  0  0  0  0  0  0  0  0  0  0  0
  2  5  1  0
  2  1  1  1
  3  4  1  0
  3  2  1  0
  5  6  2  0
  7  8  1  0
  7  5  1  0
  8  9  1  1
 10  9  1  0
 11 10  1  0
 11 12  1  0
 13 12  1  0
 14 15  2  0
 14  8  1  0
 16 17  1  0
 17 18  2  0
 17 27  1  0
 18 19  1  0
 19 20  2  0
 20 26  1  0
 20 21  1  0
 22 21  1  1
 22 24  1  0
 22 23  1  0
 23 14  1  0
 24 28  1  0
 25 24  2  0
 27 26  2  0
M  END
$$$$
