CKY.pdb
     RDKit          3D

 28 28  0  0  1  0  0  0  0  0999 V2000
    5.7272  -15.4567   20.6655 N   0  0  0  0  0  0  0  0  0  0  0  0
    7.0456  -15.3609   21.2270 C   0  0  1  0  0  0  0  0  0  0  0  0
    7.5149  -13.9429   21.1896 C   0  0  0  0  0  0  0  0  0  0  0  0
    9.2485  -13.9210   21.7458 S   0  0  0  0  0  0  0  0  0  0  0  0
    7.0299  -15.8647   22.6512 C   0  0  0  0  0  0  0  0  0  0  0  0
    6.1202  -15.4222   23.3718 O   0  0  0  0  0  0  0  0  0  0  0  0
    7.9965  -16.7793   23.1127 N   0  0  0  0  0  0  0  0  0  0  0  0
    8.1421  -17.3289   24.4257 C   0  0  1  0  0  0  0  0  0  0  0  0
    8.0870  -18.8423   24.4813 C   0  0  0  0  0  0  0  0  0  0  0  0
    8.0167  -19.3299   25.9074 C   0  0  0  0  0  0  0  0  0  0  0  0
    7.9063  -20.8461   25.9689 C   0  0  0  0  0  0  0  0  0  0  0  0
    7.8744  -21.3525   27.3736 C   0  0  0  0  0  0  0  0  0  0  0  0
    7.8222  -22.7955   27.3633 N   0  0  0  0  0  0  0  0  0  0  0  0
    9.0777  -16.6786   25.3093 C   0  0  0  0  0  0  0  0  0  0  0  0
   10.2759  -16.5328   24.9321 O   0  0  0  0  0  0  0  0  0  0  0  0
    5.9904  -11.0618   24.6947 O   0  0  0  0  0  0  0  0  0  0  0  0
    6.6941  -11.8777   25.5553 C   0  0  0  0  0  0  0  0  0  0  0  0
    6.0922  -12.6110   26.5522 C   0  0  0  0  0  0  0  0  0  0  0  0
    6.8199  -13.4181   27.3975 C   0  0  0  0  0  0  0  0  0  0  0  0
    8.2080  -13.5239   27.2739 C   0  0  0  0  0  0  0  0  0  0  0  0
    8.9536  -14.3866   28.2173 C   0  0  0  0  0  0  0  0  0  0  0  0
    9.6618  -15.4677   27.4487 C   0  0  2  0  0  0  0  0  0  0  0  0
    8.7359  -16.1889   26.5825 N   0  0  0  0  0  0  0  0  0  0  0  0
   10.4890  -16.3677   28.2510 C   0  0  0  0  0  0  0  0  0  0  0  0
   11.3697  -15.9648   29.0483 O   0  0  0  0  0  0  0  0  0  0  0  0
    8.8230  -12.7959   26.2816 C   0  0  0  0  0  0  0  0  0  0  0  0
    8.0604  -11.9911   25.4452 C   0  0  0  0  0  0  0  0  0  0  0  0
   10.3680  -17.7680   28.1977 O   0  0  0  0  0  0  0  0  0  0  0  0
  2  5  1  0
  2  1  1  1
  3  4  1  0
  3  2  1  0
  5  6  2  0
  7  8  1  0
  7  5  1  0
  8  9  1  6
 10  9  1  0
 11 10  1  0
 11 12  1  0
 13 12  1  0
 14 15  2  0
 14  8  1  0
 16 17  1  0
 17 18  2  0
 17 27  1  0
 18 19  1  0
 19 20  2  0
 20 26  1  0
 20 21  1  0
 22 21  1  1
 22 24  1  0
 22 23  1  0
 23 14  1  0
 24 28  1  0
 25 24  2  0
 27 26  2  0
M  END
$$$$
