CKY.pdb
     RDKit          3D

 28 28  0  0  1  0  0  0  0  0999 V2000
    5.4804  -14.0072   26.4522 N   0  0  0  0  0  0  0  0  0  0  0  0
    5.7921  -13.2500   25.2723 C   0  0  1  0  0  0  0  0  0  0  0  0
    6.3282  -11.9084   25.6533 C   0  0  0  0  0  0  0  0  0  0  0  0
    7.7299  -12.1756   26.7841 S   0  0  0  0  0  0  0  0  0  0  0  0
    6.8083  -13.9979   24.4415 C   0  0  0  0  0  0  0  0  0  0  0  0
    7.3493  -14.9699   24.9940 O   0  0  0  0  0  0  0  0  0  0  0  0
    7.1087  -13.6007   23.1240 N   0  0  0  0  0  0  0  0  0  0  0  0
    8.0865  -14.1474   22.2338 C   0  0  1  0  0  0  0  0  0  0  0  0
    8.1580  -13.4622   20.8840 C   0  0  0  0  0  0  0  0  0  0  0  0
    7.5849  -14.3405   19.7994 C   0  0  0  0  0  0  0  0  0  0  0  0
    7.8858  -13.7803   18.4172 C   0  0  0  0  0  0  0  0  0  0  0  0
    7.4068  -14.6817   17.3270 C   0  0  0  0  0  0  0  0  0  0  0  0
    7.6503  -14.0595   16.0469 N   0  0  0  0  0  0  0  0  0  0  0  0
    9.3353  -14.5756   22.8136 C   0  0  0  0  0  0  0  0  0  0  0  0
   10.3204  -13.7828   22.7991 O   0  0  0  0  0  0  0  0  0  0  0  0
   11.9844  -16.1154   30.7851 O   0  0  0  0  0  0  0  0  0  0  0  0
   11.3297  -15.9900   29.5780 C   0  0  0  0  0  0  0  0  0  0  0  0
   11.1913  -14.7880   28.9223 C   0  0  0  0  0  0  0  0  0  0  0  0
   10.5324  -14.6921   27.7174 C   0  0  0  0  0  0  0  0  0  0  0  0
    9.9748  -15.8206   27.1099 C   0  0  0  0  0  0  0  0  0  0  0  0
    9.2566  -15.6689   25.8249 C   0  0  0  0  0  0  0  0  0  0  0  0
   10.1767  -16.0381   24.6944 C   0  0  2  0  0  0  0  0  0  0  0  0
    9.5288  -15.8376   23.4029 N   0  0  0  0  0  0  0  0  0  0  0  0
   10.8063  -17.3533   24.8029 C   0  0  0  0  0  0  0  0  0  0  0  0
   10.3251  -18.3907   24.2871 O   0  0  0  0  0  0  0  0  0  0  0  0
   10.1054  -17.0290   27.7547 C   0  0  0  0  0  0  0  0  0  0  0  0
   10.7761  -17.0922   28.9691 C   0  0  0  0  0  0  0  0  0  0  0  0
   12.0101  -17.5694   25.4975 O   0  0  0  0  0  0  0  0  0  0  0  0
  2  5  1  0
  2  1  1  1
  3  4  1  0
  3  2  1  0
  5  6  2  0
  7  8  1  0
  7  5  1  0
  8  9  1  6
 10  9  1  0
 11 10  1  0
 11 12  1  0
 13 12  1  0
 14 15  2  0
 14  8  1  0
 16 17  1  0
 17 18  2  0
 17 27  1  0
 18 19  1  0
 19 20  2  0
 20 26  1  0
 20 21  1  0
 22 21  1  1
 22 24  1  0
 22 23  1  0
 23 14  1  0
 24 28  1  0
 25 24  2  0
 27 26  2  0
M  END
$$$$
