CKY.pdb
     RDKit          3D

 28 28  0  0  1  0  0  0  0  0999 V2000
    9.8674  -14.7705   17.7311 N   0  0  0  0  0  0  0  0  0  0  0  0
    9.3113  -13.8578   18.6905 C   0  0  1  0  0  0  0  0  0  0  0  0
    8.1091  -13.1822   18.1154 C   0  0  0  0  0  0  0  0  0  0  0  0
    7.5651  -11.9171   19.3065 S   0  0  0  0  0  0  0  0  0  0  0  0
    8.9338  -14.6075   19.9466 C   0  0  0  0  0  0  0  0  0  0  0  0
    8.6192  -13.9056   20.9218 O   0  0  0  0  0  0  0  0  0  0  0  0
    8.9447  -16.0153   19.9877 N   0  0  0  0  0  0  0  0  0  0  0  0
    8.6015  -16.8736   21.0798 C   0  0  1  0  0  0  0  0  0  0  0  0
    8.3515  -18.3162   20.6888 C   0  0  0  0  0  0  0  0  0  0  0  0
    7.6026  -18.4013   19.3818 C   0  0  0  0  0  0  0  0  0  0  0  0
    7.4429  -19.8450   18.9287 C   0  0  0  0  0  0  0  0  0  0  0  0
    6.6641  -19.9545   17.6590 C   0  0  0  0  0  0  0  0  0  0  0  0
    6.5870  -21.3403   17.2604 N   0  0  0  0  0  0  0  0  0  0  0  0
    9.2806  -16.6466   22.3314 C   0  0  0  0  0  0  0  0  0  0  0  0
   10.5013  -16.9615   22.4312 O   0  0  0  0  0  0  0  0  0  0  0  0
   11.2713  -14.6437   30.6172 O   0  0  0  0  0  0  0  0  0  0  0  0
   10.6851  -14.6835   29.3696 C   0  0  0  0  0  0  0  0  0  0  0  0
   11.1305  -15.5042   28.3587 C   0  0  0  0  0  0  0  0  0  0  0  0
   10.5257  -15.5234   27.1221 C   0  0  0  0  0  0  0  0  0  0  0  0
    9.4281  -14.7039   26.8448 C   0  0  0  0  0  0  0  0  0  0  0  0
    8.8216  -14.7408   25.4954 C   0  0  0  0  0  0  0  0  0  0  0  0
    9.3136  -15.9580   24.7623 C   0  0  2  0  0  0  0  0  0  0  0  0
    8.6614  -16.0885   23.4639 N   0  0  0  0  0  0  0  0  0  0  0  0
    9.2854  -17.2040   25.5269 C   0  0  0  0  0  0  0  0  0  0  0  0
   10.2957  -17.6868   26.0924 O   0  0  0  0  0  0  0  0  0  0  0  0
    8.9724  -13.8780   27.8463 C   0  0  0  0  0  0  0  0  0  0  0  0
    9.6045  -13.8823   29.0829 C   0  0  0  0  0  0  0  0  0  0  0  0
    8.1187  -17.9715   25.6947 O   0  0  0  0  0  0  0  0  0  0  0  0
  2  5  1  0
  2  1  1  6
  3  4  1  0
  3  2  1  0
  5  6  2  0
  7  8  1  0
  7  5  1  0
  8  9  1  6
 10  9  1  0
 11 10  1  0
 11 12  1  0
 13 12  1  0
 14 15  2  0
 14  8  1  0
 16 17  1  0
 17 18  2  0
 17 27  1  0
 18 19  1  0
 19 20  2  0
 20 26  1  0
 20 21  1  0
 22 21  1  1
 22 24  1  0
 22 23  1  0
 23 14  1  0
 24 28  1  0
 25 24  2  0
 27 26  2  0
M  END
$$$$
