CKY.pdb
     RDKit          3D

 28 28  0  0  1  0  0  0  0  0999 V2000
    9.5238  -14.7756   18.0262 N   0  0  0  0  0  0  0  0  0  0  0  0
    9.2065  -13.7357   18.9646 C   0  0  1  0  0  0  0  0  0  0  0  0
    8.3578  -12.6964   18.3076 C   0  0  0  0  0  0  0  0  0  0  0  0
    6.7941  -13.4902   17.8180 S   0  0  0  0  0  0  0  0  0  0  0  0
    8.4798  -14.3251   20.1507 C   0  0  0  0  0  0  0  0  0  0  0  0
    8.1320  -13.5176   21.0281 O   0  0  0  0  0  0  0  0  0  0  0  0
    8.2229  -15.7072   20.2364 N   0  0  0  0  0  0  0  0  0  0  0  0
    7.6411  -16.4358   21.3217 C   0  0  1  0  0  0  0  0  0  0  0  0
    6.9722  -17.7342   20.9179 C   0  0  0  0  0  0  0  0  0  0  0  0
    6.6347  -18.5692   22.1284 C   0  0  0  0  0  0  0  0  0  0  0  0
    5.7670  -19.7614   21.7537 C   0  0  0  0  0  0  0  0  0  0  0  0
    5.2813  -20.5049   22.9545 C   0  0  0  0  0  0  0  0  0  0  0  0
    4.4315  -21.5941   22.5344 N   0  0  0  0  0  0  0  0  0  0  0  0
    8.3587  -16.4345   22.5724 C   0  0  0  0  0  0  0  0  0  0  0  0
    9.4307  -17.0992   22.6635 O   0  0  0  0  0  0  0  0  0  0  0  0
   11.1776  -14.7526   30.7063 O   0  0  0  0  0  0  0  0  0  0  0  0
   10.5115  -14.6971   29.5002 C   0  0  0  0  0  0  0  0  0  0  0  0
   11.1537  -14.7764   28.2856 C   0  0  0  0  0  0  0  0  0  0  0  0
   10.4630  -14.7183   27.0962 C   0  0  0  0  0  0  0  0  0  0  0  0
    9.0729  -14.5755   27.0772 C   0  0  0  0  0  0  0  0  0  0  0  0
    8.3724  -14.4961   25.7759 C   0  0  0  0  0  0  0  0  0  0  0  0
    8.6471  -15.7460   24.9863 C   0  0  2  0  0  0  0  0  0  0  0  0
    7.9350  -15.7301   23.7133 N   0  0  0  0  0  0  0  0  0  0  0  0
    8.4591  -17.0005   25.7135 C   0  0  0  0  0  0  0  0  0  0  0  0
    7.3430  -17.5576   25.8464 O   0  0  0  0  0  0  0  0  0  0  0  0
    8.4178  -14.4946   28.2843 C   0  0  0  0  0  0  0  0  0  0  0  0
    9.1437  -14.5566   29.4668 C   0  0  0  0  0  0  0  0  0  0  0  0
    9.5173  -17.6932   26.3287 O   0  0  0  0  0  0  0  0  0  0  0  0
  2  5  1  0
  2  1  1  6
  3  4  1  0
  3  2  1  0
  5  6  2  0
  7  8  1  0
  7  5  1  0
  8  9  1  6
 10  9  1  0
 11 10  1  0
 11 12  1  0
 13 12  1  0
 14 15  2  0
 14  8  1  0
 16 17  1  0
 17 18  2  0
 17 27  1  0
 18 19  1  0
 19 20  2  0
 20 26  1  0
 20 21  1  0
 22 21  1  1
 22 24  1  0
 22 23  1  0
 23 14  1  0
 24 28  1  0
 25 24  2  0
 27 26  2  0
M  END
$$$$
