KIN.pdb
     RDKit          3D

 26 25  0  0  1  0  0  0  0  0999 V2000
   27.5005  -22.3441  -16.0205 N   0  0  0  0  0  0  0  0  0  0  0  0
   26.9477  -21.1640  -15.4830 C   0  0  1  0  0  0  0  0  0  0  0  0
   26.2243  -20.2954  -16.4709 C   0  0  0  0  0  0  0  0  0  0  0  0
   26.9990  -19.8231  -17.6359 C   0  0  0  0  0  0  0  0  0  0  0  0
   28.2337  -19.0390  -17.3544 C   0  0  0  0  0  0  0  0  0  0  0  0
   28.9992  -18.5821  -18.5451 C   0  0  0  0  0  0  0  0  0  0  0  0
   30.1894  -17.8497  -18.2740 N   0  0  0  0  0  0  0  0  0  0  0  0
   25.9866  -21.4172  -14.3481 C   0  0  0  0  0  0  0  0  0  0  0  0
   25.2352  -22.4239  -14.5032 O   0  0  0  0  0  0  0  0  0  0  0  0
   27.3081  -20.3847   -9.1741 C   0  0  0  0  0  0  0  0  0  0  0  0
   26.6845  -21.1205  -10.3478 C   0  0  0  0  0  0  0  0  0  0  0  0
   25.4107  -20.4698  -10.8035 C   0  0  2  0  0  0  0  0  0  0  0  0
   24.3683  -20.6291   -9.7486 C   0  0  0  0  0  0  0  0  0  0  0  0
   24.9579  -20.9247  -12.1636 C   0  0  2  0  0  0  0  0  0  0  0  0
   25.9188  -20.6003  -13.1939 N   0  0  0  0  0  0  0  0  0  0  0  0
   23.6745  -20.2857  -12.5889 C   0  0  0  0  0  0  0  0  0  0  0  0
   23.5567  -19.0344  -12.7680 O   0  0  0  0  0  0  0  0  0  0  0  0
   18.9071  -19.4338  -14.3947 N   0  0  0  0  0  0  0  0  0  0  0  0
   19.6656  -20.3578  -15.1643 C   0  0  0  0  0  0  0  0  0  0  0  0
   19.2313  -20.6024  -16.3122 O   0  0  0  0  0  0  0  0  0  0  0  0
   20.8904  -21.0023  -14.6671 C   0  0  0  0  0  0  0  0  0  0  0  0
   21.2640  -20.4564  -13.3361 C   0  0  2  0  0  0  0  0  0  0  0  0
   22.4965  -21.0265  -12.8233 N   0  0  0  0  0  0  0  0  0  0  0  0
   20.2156  -20.8644  -12.3487 C   0  0  0  0  0  0  0  0  0  0  0  0
   20.5891  -21.7653  -11.3415 O   0  0  0  0  0  0  0  0  0  0  0  0
   19.0357  -20.4727  -12.3435 O   0  0  0  0  0  0  0  0  0  0  0  0
  2  1  1  6
  3  2  1  0
  4  5  1  0
  4  3  1  0
  5  6  1  0
  6  7  1  0
  8  9  2  0
  8  2  1  0
 11 10  1  0
 11 12  1  0
 12 14  1  0
 12 13  1  1
 14 15  1  6
 15  8  1  0
 16 14  1  0
 16 17  2  0
 19 21  1  0
 19 18  1  0
 20 19  2  0
 22 23  1  0
 22 21  1  6
 23 16  1  0
 24 22  1  0
 25 24  1  0
 26 24  2  0
M  END
$$$$
