KIN.pdb
     RDKit          3D

 26 25  0  0  1  0  0  0  0  0999 V2000
   22.9331  -15.9098  -17.1470 N   0  0  0  0  0  0  0  0  0  0  0  0
   22.9955  -14.6297  -17.7340 C   0  0  1  0  0  0  0  0  0  0  0  0
   21.7360  -14.1840  -18.4187 C   0  0  0  0  0  0  0  0  0  0  0  0
   21.3766  -14.8784  -19.6713 C   0  0  0  0  0  0  0  0  0  0  0  0
   20.5214  -16.0920  -19.5505 C   0  0  0  0  0  0  0  0  0  0  0  0
   20.1262  -16.7387  -20.8305 C   0  0  0  0  0  0  0  0  0  0  0  0
   19.3826  -17.9468  -20.7115 N   0  0  0  0  0  0  0  0  0  0  0  0
   23.3620  -13.5410  -16.7562 C   0  0  0  0  0  0  0  0  0  0  0  0
   22.8662  -13.6770  -15.5996 O   0  0  0  0  0  0  0  0  0  0  0  0
   28.2474  -12.2373  -15.5605 C   0  0  0  0  0  0  0  0  0  0  0  0
   26.7465  -12.4723  -15.5521 C   0  0  0  0  0  0  0  0  0  0  0  0
   25.9845  -11.2388  -15.9411 C   0  0  2  0  0  0  0  0  0  0  0  0
   26.3304  -10.1280  -15.0076 C   0  0  0  0  0  0  0  0  0  0  0  0
   24.5039  -11.4659  -16.0761 C   0  0  2  0  0  0  0  0  0  0  0  0
   24.1940  -12.4461  -17.0925 N   0  0  0  0  0  0  0  0  0  0  0  0
   23.7627  -10.2271  -16.4665 C   0  0  0  0  0  0  0  0  0  0  0  0
   24.0530   -9.5503  -17.5006 O   0  0  0  0  0  0  0  0  0  0  0  0
   20.4010   -6.2754  -16.6122 N   0  0  0  0  0  0  0  0  0  0  0  0
   19.7993   -7.5606  -16.6999 C   0  0  0  0  0  0  0  0  0  0  0  0
   18.5967   -7.5810  -17.0454 O   0  0  0  0  0  0  0  0  0  0  0  0
   20.5225   -8.8075  -16.4083 C   0  0  0  0  0  0  0  0  0  0  0  0
   21.9395   -8.5206  -16.0640 C   0  0  2  0  0  0  0  0  0  0  0  0
   22.6836   -9.7168  -15.7138 N   0  0  0  0  0  0  0  0  0  0  0  0
   21.9623   -7.6814  -14.8247 C   0  0  0  0  0  0  0  0  0  0  0  0
   21.7555   -6.3026  -14.9714 O   0  0  0  0  0  0  0  0  0  0  0  0
   22.1499   -8.1021  -13.6700 O   0  0  0  0  0  0  0  0  0  0  0  0
  2  1  1  1
  3  2  1  0
  4  5  1  0
  4  3  1  0
  5  6  1  0
  6  7  1  0
  8  9  2  0
  8  2  1  0
 11 10  1  0
 11 12  1  0
 12 14  1  0
 12 13  1  1
 14 15  1  6
 15  8  1  0
 16 14  1  0
 16 17  2  0
 19 21  1  0
 19 18  1  0
 20 19  2  0
 22 23  1  0
 22 21  1  1
 23 16  1  0
 24 22  1  0
 25 24  1  0
 26 24  2  0
M  END
$$$$
