KIN.pdb
     RDKit          3D

 26 25  0  0  1  0  0  0  0  0999 V2000
   24.9380  -13.1077  -20.3702 N   0  0  0  0  0  0  0  0  0  0  0  0
   23.6469  -12.7493  -19.9328 C   0  0  1  0  0  0  0  0  0  0  0  0
   22.6440  -13.8665  -19.9338 C   0  0  0  0  0  0  0  0  0  0  0  0
   22.6290  -14.7477  -21.1186 C   0  0  0  0  0  0  0  0  0  0  0  0
   23.6868  -15.7935  -21.1972 C   0  0  0  0  0  0  0  0  0  0  0  0
   23.6815  -16.6323  -22.4256 C   0  0  0  0  0  0  0  0  0  0  0  0
   24.6594  -17.6657  -22.4755 N   0  0  0  0  0  0  0  0  0  0  0  0
   23.6289  -12.1564  -18.5457 C   0  0  0  0  0  0  0  0  0  0  0  0
   22.6417  -12.5024  -17.8330 O   0  0  0  0  0  0  0  0  0  0  0  0
   27.9911  -12.0968  -15.6647 C   0  0  0  0  0  0  0  0  0  0  0  0
   26.4970  -12.1692  -15.9301 C   0  0  0  0  0  0  0  0  0  0  0  0
   25.8765  -10.8047  -16.0130 C   0  0  2  0  0  0  0  0  0  0  0  0
   25.8419  -10.1929  -14.6532 C   0  0  0  0  0  0  0  0  0  0  0  0
   24.5420  -10.7938  -16.7067 C   0  0  2  0  0  0  0  0  0  0  0  0
   24.6309  -11.2791  -18.0655 N   0  0  0  0  0  0  0  0  0  0  0  0
   23.9519   -9.4230  -16.8023 C   0  0  0  0  0  0  0  0  0  0  0  0
   24.5359   -8.4637  -17.3942 O   0  0  0  0  0  0  0  0  0  0  0  0
   20.2663   -5.6238  -18.3201 N   0  0  0  0  0  0  0  0  0  0  0  0
   20.1835   -6.5122  -17.2131 C   0  0  0  0  0  0  0  0  0  0  0  0
   19.5157   -6.1088  -16.2346 O   0  0  0  0  0  0  0  0  0  0  0  0
   20.8330   -7.8314  -17.1918 C   0  0  0  0  0  0  0  0  0  0  0  0
   22.0687   -7.7914  -16.3669 C   0  0  2  0  0  0  0  0  0  0  0  0
   22.7000   -9.0925  -16.2411 N   0  0  0  0  0  0  0  0  0  0  0  0
   21.6894   -7.4153  -14.9686 C   0  0  0  0  0  0  0  0  0  0  0  0
   21.3036   -8.4471  -14.1015 O   0  0  0  0  0  0  0  0  0  0  0  0
   21.6861   -6.2613  -14.5060 O   0  0  0  0  0  0  0  0  0  0  0  0
  2  1  1  1
  3  2  1  0
  4  5  1  0
  4  3  1  0
  5  6  1  0
  6  7  1  0
  8  9  2  0
  8  2  1  0
 11 10  1  0
 11 12  1  0
 12 14  1  0
 12 13  1  1
 14 15  1  6
 15  8  1  0
 16 14  1  0
 16 17  2  0
 19 21  1  0
 19 18  1  0
 20 19  2  0
 22 23  1  0
 22 21  1  6
 23 16  1  0
 24 22  1  0
 25 24  1  0
 26 24  2  0
M  END
$$$$
