KIN.pdb
     RDKit          3D

 26 25  0  0  1  0  0  0  0  0999 V2000
   21.1431  -14.0818  -16.9441 N   0  0  0  0  0  0  0  0  0  0  0  0
   21.6055  -12.9045  -17.5664 C   0  0  1  0  0  0  0  0  0  0  0  0
   20.5526  -12.1118  -18.2854 C   0  0  0  0  0  0  0  0  0  0  0  0
   19.5211  -12.8786  -19.0123 C   0  0  0  0  0  0  0  0  0  0  0  0
   19.3831  -12.6123  -20.4714 C   0  0  0  0  0  0  0  0  0  0  0  0
   18.2942  -13.3497  -21.1665 C   0  0  0  0  0  0  0  0  0  0  0  0
   17.0477  -13.4065  -20.4814 N   0  0  0  0  0  0  0  0  0  0  0  0
   22.2854  -11.9524  -16.6140 C   0  0  0  0  0  0  0  0  0  0  0  0
   21.8309  -11.9680  -15.4329 O   0  0  0  0  0  0  0  0  0  0  0  0
   27.4488  -11.8605  -15.7881 C   0  0  0  0  0  0  0  0  0  0  0  0
   25.9366  -11.7545  -15.6869 C   0  0  0  0  0  0  0  0  0  0  0  0
   25.4517  -10.3652  -15.9840 C   0  0  2  0  0  0  0  0  0  0  0  0
   26.1123   -9.4013  -15.0571 C   0  0  0  0  0  0  0  0  0  0  0  0
   23.9527  -10.2441  -16.0023 C   0  0  2  0  0  0  0  0  0  0  0  0
   23.3495  -11.1013  -16.9980 N   0  0  0  0  0  0  0  0  0  0  0  0
   23.4889   -8.8592  -16.3234 C   0  0  0  0  0  0  0  0  0  0  0  0
   23.6745   -8.3182  -17.4568 O   0  0  0  0  0  0  0  0  0  0  0  0
   21.2501   -3.7180  -13.9802 N   0  0  0  0  0  0  0  0  0  0  0  0
   21.0532   -4.7921  -14.8906 C   0  0  0  0  0  0  0  0  0  0  0  0
   20.5142   -4.4957  -15.9805 O   0  0  0  0  0  0  0  0  0  0  0  0
   21.4493   -6.1773  -14.5962 C   0  0  0  0  0  0  0  0  0  0  0  0
   22.3247   -6.7098  -15.6729 C   0  0  2  0  0  0  0  0  0  0  0  0
   22.8093   -8.0485  -15.3894 N   0  0  0  0  0  0  0  0  0  0  0  0
   23.5579   -5.8641  -15.7385 C   0  0  0  0  0  0  0  0  0  0  0  0
   23.7136   -5.0299  -16.8544 O   0  0  0  0  0  0  0  0  0  0  0  0
   24.4619   -5.8366  -14.8854 O   0  0  0  0  0  0  0  0  0  0  0  0
  2  1  1  1
  3  2  1  0
  4  5  1  0
  4  3  1  0
  5  6  1  0
  6  7  1  0
  8  9  2  0
  8  2  1  0
 11 10  1  0
 11 12  1  0
 12 14  1  0
 12 13  1  1
 14 15  1  6
 15  8  1  0
 16 14  1  0
 16 17  2  0
 19 21  1  0
 19 18  1  0
 20 19  2  0
 22 23  1  0
 22 21  1  1
 23 16  1  0
 24 22  1  0
 25 24  1  0
 26 24  2  0
M  END
$$$$
