KIN.pdb
     RDKit          3D

 26 25  0  0  1  0  0  0  0  0999 V2000
   18.4361  -22.4731   -9.8005 N   0  0  0  0  0  0  0  0  0  0  0  0
   19.5360  -23.0481  -10.4687 C   0  0  1  0  0  0  0  0  0  0  0  0
   19.1798  -23.9908  -11.5816 C   0  0  0  0  0  0  0  0  0  0  0  0
   18.5310  -25.2604  -11.1977 C   0  0  0  0  0  0  0  0  0  0  0  0
   19.0153  -26.4980  -11.8704 C   0  0  0  0  0  0  0  0  0  0  0  0
   18.2799  -27.7479  -11.5396 C   0  0  0  0  0  0  0  0  0  0  0  0
   18.6449  -28.9001  -12.2918 N   0  0  0  0  0  0  0  0  0  0  0  0
   20.4794  -22.0273  -11.0550 C   0  0  0  0  0  0  0  0  0  0  0  0
   20.0084  -20.8555  -11.1390 O   0  0  0  0  0  0  0  0  0  0  0  0
   26.1660  -20.0918  -10.9497 C   0  0  0  0  0  0  0  0  0  0  0  0
   24.8779  -20.1570  -11.7525 C   0  0  0  0  0  0  0  0  0  0  0  0
   23.9209  -21.1699  -11.1940 C   0  0  2  0  0  0  0  0  0  0  0  0
   24.6238  -22.4745  -11.0245 C   0  0  0  0  0  0  0  0  0  0  0  0
   22.6398  -21.2789  -11.9743 C   0  0  2  0  0  0  0  0  0  0  0  0
   21.7918  -22.3416  -11.4828 N   0  0  0  0  0  0  0  0  0  0  0  0
   22.8687  -21.5778  -13.4216 C   0  0  0  0  0  0  0  0  0  0  0  0
   23.1216  -22.7458  -13.8500 O   0  0  0  0  0  0  0  0  0  0  0  0
   20.4081  -20.6137  -18.4659 N   0  0  0  0  0  0  0  0  0  0  0  0
   20.9810  -21.5198  -17.5320 C   0  0  0  0  0  0  0  0  0  0  0  0
   21.3333  -22.6300  -17.9900 O   0  0  0  0  0  0  0  0  0  0  0  0
   21.1611  -21.1988  -16.1083 C   0  0  0  0  0  0  0  0  0  0  0  0
   22.5785  -20.8511  -15.8270 C   0  0  2  0  0  0  0  0  0  0  0  0
   22.8205  -20.5827  -14.4210 N   0  0  0  0  0  0  0  0  0  0  0  0
   22.8938  -19.5626  -16.5205 C   0  0  0  0  0  0  0  0  0  0  0  0
   23.4155  -19.6362  -17.8196 O   0  0  0  0  0  0  0  0  0  0  0  0
   22.7329  -18.4262  -16.0427 O   0  0  0  0  0  0  0  0  0  0  0  0
  2  1  1  6
  3  2  1  0
  4  5  1  0
  4  3  1  0
  5  6  1  0
  6  7  1  0
  8  9  2  0
  8  2  1  0
 11 10  1  0
 11 12  1  0
 12 14  1  0
 12 13  1  6
 14 15  1  1
 15  8  1  0
 16 14  1  0
 16 17  2  0
 19 21  1  0
 19 18  1  0
 20 19  2  0
 22 23  1  0
 22 21  1  1
 23 16  1  0
 24 22  1  0
 25 24  1  0
 26 24  2  0
M  END
$$$$
