KIN.pdb
     RDKit          3D

 26 25  0  0  1  0  0  0  0  0999 V2000
   20.1278  -19.9282  -12.5867 N   0  0  0  0  0  0  0  0  0  0  0  0
   21.0111  -20.9559  -12.9749 C   0  0  1  0  0  0  0  0  0  0  0  0
   20.7371  -21.5510  -14.3257 C   0  0  0  0  0  0  0  0  0  0  0  0
   19.8985  -22.7659  -14.3612 C   0  0  0  0  0  0  0  0  0  0  0  0
   18.4703  -22.6136  -13.9665 C   0  0  0  0  0  0  0  0  0  0  0  0
   17.6450  -23.8499  -14.0229 C   0  0  0  0  0  0  0  0  0  0  0  0
   16.3383  -23.7495  -13.4670 N   0  0  0  0  0  0  0  0  0  0  0  0
   22.4584  -20.5305  -12.9777 C   0  0  0  0  0  0  0  0  0  0  0  0
   22.6933  -19.4502  -13.5940 O   0  0  0  0  0  0  0  0  0  0  0  0
   25.7153  -21.0231   -8.6432 C   0  0  0  0  0  0  0  0  0  0  0  0
   24.9963  -20.5425   -9.8922 C   0  0  0  0  0  0  0  0  0  0  0  0
   25.6094  -21.1042  -11.1421 C   0  0  2  0  0  0  0  0  0  0  0  0
   27.0463  -20.7099  -11.2093 C   0  0  0  0  0  0  0  0  0  0  0  0
   24.8396  -20.7702  -12.3903 C   0  0  2  0  0  0  0  0  0  0  0  0
   23.4848  -21.2726  -12.3452 N   0  0  0  0  0  0  0  0  0  0  0  0
   25.4511  -21.3596  -13.6211 C   0  0  0  0  0  0  0  0  0  0  0  0
   25.6001  -22.6100  -13.7827 O   0  0  0  0  0  0  0  0  0  0  0  0
   26.2648  -22.6270  -18.8301 N   0  0  0  0  0  0  0  0  0  0  0  0
   26.3286  -21.2967  -18.3325 C   0  0  0  0  0  0  0  0  0  0  0  0
   27.0171  -20.4933  -19.0009 O   0  0  0  0  0  0  0  0  0  0  0  0
   25.6372  -20.8627  -17.1093 C   0  0  0  0  0  0  0  0  0  0  0  0
   26.4872  -21.1071  -15.9148 C   0  0  2  0  0  0  0  0  0  0  0  0
   25.9089  -20.5692  -14.6968 N   0  0  0  0  0  0  0  0  0  0  0  0
   27.7715  -20.3584  -16.0897 C   0  0  0  0  0  0  0  0  0  0  0  0
   28.8293  -21.0247  -16.7242 O   0  0  0  0  0  0  0  0  0  0  0  0
   27.9839  -19.1908  -15.7193 O   0  0  0  0  0  0  0  0  0  0  0  0
  2  1  1  6
  3  2  1  0
  4  5  1  0
  4  3  1  0
  5  6  1  0
  6  7  1  0
  8  9  2  0
  8  2  1  0
 11 10  1  0
 11 12  1  0
 12 14  1  0
 12 13  1  6
 14 15  1  1
 15  8  1  0
 16 14  1  0
 16 17  2  0
 19 21  1  0
 19 18  1  0
 20 19  2  0
 22 23  1  0
 22 21  1  6
 23 16  1  0
 24 22  1  0
 25 24  1  0
 26 24  2  0
M  END
$$$$
