KIN.pdb
     RDKit          3D

 26 25  0  0  1  0  0  0  0  0999 V2000
   28.4382  -21.8529  -15.7350 N   0  0  0  0  0  0  0  0  0  0  0  0
   27.6616  -20.7781  -15.2568 C   0  0  1  0  0  0  0  0  0  0  0  0
   27.0628  -19.9053  -16.3214 C   0  0  0  0  0  0  0  0  0  0  0  0
   27.9441  -19.5212  -17.4422 C   0  0  0  0  0  0  0  0  0  0  0  0
   28.8074  -18.3237  -17.2440 C   0  0  0  0  0  0  0  0  0  0  0  0
   29.0107  -17.4637  -18.4406 C   0  0  0  0  0  0  0  0  0  0  0  0
   28.4368  -16.1627  -18.3743 N   0  0  0  0  0  0  0  0  0  0  0  0
   26.5239  -21.2125  -14.3664 C   0  0  0  0  0  0  0  0  0  0  0  0
   25.9839  -22.3099  -14.6920 O   0  0  0  0  0  0  0  0  0  0  0  0
   26.8338  -20.7591   -9.0113 C   0  0  0  0  0  0  0  0  0  0  0  0
   26.5430  -21.2591  -10.4161 C   0  0  0  0  0  0  0  0  0  0  0  0
   25.2616  -20.6944  -10.9572 C   0  0  2  0  0  0  0  0  0  0  0  0
   24.1280  -21.1116  -10.0822 C   0  0  0  0  0  0  0  0  0  0  0  0
   25.0375  -21.0023  -12.4121 C   0  0  2  0  0  0  0  0  0  0  0  0
   26.0834  -20.4608  -13.2505 N   0  0  0  0  0  0  0  0  0  0  0  0
   23.7595  -20.4274  -12.9341 C   0  0  0  0  0  0  0  0  0  0  0  0
   23.5253  -19.1798  -12.9541 O   0  0  0  0  0  0  0  0  0  0  0  0
   22.9569  -21.6335  -17.0467 N   0  0  0  0  0  0  0  0  0  0  0  0
   22.0625  -20.7865  -16.3367 C   0  0  0  0  0  0  0  0  0  0  0  0
   22.1031  -19.5720  -16.6356 O   0  0  0  0  0  0  0  0  0  0  0  0
   21.1345  -21.2804  -15.3083 C   0  0  0  0  0  0  0  0  0  0  0  0
   21.4733  -20.7055  -13.9802 C   0  0  2  0  0  0  0  0  0  0  0  0
   22.7165  -21.2294  -13.4442 N   0  0  0  0  0  0  0  0  0  0  0  0
   20.4257  -21.1336  -13.0007 C   0  0  0  0  0  0  0  0  0  0  0  0
   19.2554  -20.3653  -12.9256 O   0  0  0  0  0  0  0  0  0  0  0  0
   20.5027  -22.1164  -12.2431 O   0  0  0  0  0  0  0  0  0  0  0  0
  2  1  1  6
  3  2  1  0
  4  5  1  0
  4  3  1  0
  5  6  1  0
  6  7  1  0
  8  9  2  0
  8  2  1  0
 11 10  1  0
 11 12  1  0
 12 14  1  0
 12 13  1  1
 14 15  1  6
 15  8  1  0
 16 14  1  0
 16 17  2  0
 19 21  1  0
 19 18  1  0
 20 19  2  0
 22 23  1  0
 22 21  1  6
 23 16  1  0
 24 22  1  0
 25 24  1  0
 26 24  2  0
M  END
$$$$
