KIN.pdb
     RDKit          3D

 26 25  0  0  1  0  0  0  0  0999 V2000
   28.4461  -22.3804  -15.4781 N   0  0  0  0  0  0  0  0  0  0  0  0
   27.5644  -21.2903  -15.3323 C   0  0  1  0  0  0  0  0  0  0  0  0
   26.9499  -20.7964  -16.6099 C   0  0  0  0  0  0  0  0  0  0  0  0
   27.8779  -20.3253  -17.6574 C   0  0  0  0  0  0  0  0  0  0  0  0
   28.2403  -18.8806  -17.6401 C   0  0  0  0  0  0  0  0  0  0  0  0
   29.1776  -18.4328  -18.7048 C   0  0  0  0  0  0  0  0  0  0  0  0
   29.5331  -17.0546  -18.6790 N   0  0  0  0  0  0  0  0  0  0  0  0
   26.4234  -21.5671  -14.3850 C   0  0  0  0  0  0  0  0  0  0  0  0
   25.8307  -22.6691  -14.5752 O   0  0  0  0  0  0  0  0  0  0  0  0
   26.9562  -20.5185   -9.1447 C   0  0  0  0  0  0  0  0  0  0  0  0
   26.5940  -21.1616  -10.4726 C   0  0  0  0  0  0  0  0  0  0  0  0
   25.3060  -20.6216  -11.0232 C   0  0  2  0  0  0  0  0  0  0  0  0
   24.2003  -20.9025  -10.0624 C   0  0  0  0  0  0  0  0  0  0  0  0
   25.0118  -21.0840  -12.4238 C   0  0  2  0  0  0  0  0  0  0  0  0
   26.0344  -20.6725  -13.3591 N   0  0  0  0  0  0  0  0  0  0  0  0
   23.7279  -20.5324  -12.9564 C   0  0  0  0  0  0  0  0  0  0  0  0
   23.5770  -19.3069  -13.2517 O   0  0  0  0  0  0  0  0  0  0  0  0
   19.0054  -22.2678  -14.2006 N   0  0  0  0  0  0  0  0  0  0  0  0
   19.9008  -22.0877  -15.2902 C   0  0  0  0  0  0  0  0  0  0  0  0
   19.5421  -22.5820  -16.3825 O   0  0  0  0  0  0  0  0  0  0  0  0
   21.1778  -21.3684  -15.1699 C   0  0  0  0  0  0  0  0  0  0  0  0
   21.3606  -20.8575  -13.7862 C   0  0  2  0  0  0  0  0  0  0  0  0
   22.5863  -21.3337  -13.1712 N   0  0  0  0  0  0  0  0  0  0  0  0
   20.2647  -21.4123  -12.9309 C   0  0  0  0  0  0  0  0  0  0  0  0
   18.9641  -20.9397  -13.1559 O   0  0  0  0  0  0  0  0  0  0  0  0
   20.4074  -22.2600  -12.0328 O   0  0  0  0  0  0  0  0  0  0  0  0
  2  1  1  6
  3  2  1  0
  4  5  1  0
  4  3  1  0
  5  6  1  0
  6  7  1  0
  8  9  2  0
  8  2  1  0
 11 10  1  0
 11 12  1  0
 12 14  1  0
 12 13  1  1
 14 15  1  6
 15  8  1  0
 16 14  1  0
 16 17  2  0
 19 21  1  0
 19 18  1  0
 20 19  2  0
 22 23  1  0
 22 21  1  6
 23 16  1  0
 24 22  1  0
 25 24  1  0
 26 24  2  0
M  END
$$$$
