KIN.pdb
     RDKit          3D

 26 25  0  0  1  0  0  0  0  0999 V2000
   28.5497  -22.2077  -15.5382 N   0  0  0  0  0  0  0  0  0  0  0  0
   27.7271  -21.1019  -15.2429 C   0  0  1  0  0  0  0  0  0  0  0  0
   27.2157  -20.3542  -16.4401 C   0  0  0  0  0  0  0  0  0  0  0  0
   28.2274  -19.7765  -17.3474 C   0  0  0  0  0  0  0  0  0  0  0  0
   28.0327  -18.3594  -17.7631 C   0  0  0  0  0  0  0  0  0  0  0  0
   29.0825  -17.7926  -18.6515 C   0  0  0  0  0  0  0  0  0  0  0  0
   28.9652  -16.4041  -18.9429 N   0  0  0  0  0  0  0  0  0  0  0  0
   26.5202  -21.4599  -14.4115 C   0  0  0  0  0  0  0  0  0  0  0  0
   26.0009  -22.5813  -14.6847 O   0  0  0  0  0  0  0  0  0  0  0  0
   26.5362  -20.7555   -9.0896 C   0  0  0  0  0  0  0  0  0  0  0  0
   26.2965  -21.3190  -10.4800 C   0  0  0  0  0  0  0  0  0  0  0  0
   25.0894  -20.7083  -11.1310 C   0  0  2  0  0  0  0  0  0  0  0  0
   23.8845  -20.9820  -10.2955 C   0  0  0  0  0  0  0  0  0  0  0  0
   24.9196  -21.1052  -12.5717 C   0  0  2  0  0  0  0  0  0  0  0  0
   25.9978  -20.6164  -13.4016 N   0  0  0  0  0  0  0  0  0  0  0  0
   23.6637  -20.5632  -13.1760 C   0  0  0  0  0  0  0  0  0  0  0  0
   23.4016  -19.3217  -13.2175 O   0  0  0  0  0  0  0  0  0  0  0  0
   19.0566  -20.1163  -15.5238 N   0  0  0  0  0  0  0  0  0  0  0  0
   19.7053  -21.2850  -16.0083 C   0  0  0  0  0  0  0  0  0  0  0  0
   19.1557  -21.8558  -16.9770 O   0  0  0  0  0  0  0  0  0  0  0  0
   20.9478  -21.8137  -15.4260 C   0  0  0  0  0  0  0  0  0  0  0  0
   21.4603  -20.8999  -14.3718 C   0  0  2  0  0  0  0  0  0  0  0  0
   22.6742  -21.3922  -13.7462 N   0  0  0  0  0  0  0  0  0  0  0  0
   20.4548  -20.8481  -13.2642 C   0  0  0  0  0  0  0  0  0  0  0  0
   19.4586  -19.8645  -13.3383 O   0  0  0  0  0  0  0  0  0  0  0  0
   20.4256  -21.6048  -12.2783 O   0  0  0  0  0  0  0  0  0  0  0  0
  2  1  1  6
  3  2  1  0
  4  5  1  0
  4  3  1  0
  5  6  1  0
  6  7  1  0
  8  9  2  0
  8  2  1  0
 11 10  1  0
 11 12  1  0
 12 14  1  0
 12 13  1  1
 14 15  1  6
 15  8  1  0
 16 14  1  0
 16 17  2  0
 19 21  1  0
 19 18  1  0
 20 19  2  0
 22 23  1  0
 22 21  1  6
 23 16  1  0
 24 22  1  0
 25 24  1  0
 26 24  2  0
M  END
$$$$
