KIN.pdb
     RDKit          3D

 26 25  0  0  1  0  0  0  0  0999 V2000
   22.8798  -15.3203  -18.0223 N   0  0  0  0  0  0  0  0  0  0  0  0
   23.2855  -14.0720  -18.5362 C   0  0  1  0  0  0  0  0  0  0  0  0
   22.3260  -13.4427  -19.5044 C   0  0  0  0  0  0  0  0  0  0  0  0
   21.9297  -14.2542  -20.6726 C   0  0  0  0  0  0  0  0  0  0  0  0
   21.0042  -13.6212  -21.6533 C   0  0  0  0  0  0  0  0  0  0  0  0
   20.6172  -14.4617  -22.8179 C   0  0  0  0  0  0  0  0  0  0  0  0
   19.8560  -13.8091  -23.8284 N   0  0  0  0  0  0  0  0  0  0  0  0
   23.5530  -13.0433  -17.4657 C   0  0  0  0  0  0  0  0  0  0  0  0
   22.8849  -13.1979  -16.4019 O   0  0  0  0  0  0  0  0  0  0  0  0
   28.1747  -12.1902  -15.3247 C   0  0  0  0  0  0  0  0  0  0  0  0
   26.6945  -12.2950  -15.6505 C   0  0  0  0  0  0  0  0  0  0  0  0
   26.1312  -10.9859  -16.1224 C   0  0  2  0  0  0  0  0  0  0  0  0
   26.4035   -9.9329  -15.1018 C   0  0  0  0  0  0  0  0  0  0  0  0
   24.6846  -11.0661  -16.5261 C   0  0  2  0  0  0  0  0  0  0  0  0
   24.4761  -11.9819  -17.6252 N   0  0  0  0  0  0  0  0  0  0  0  0
   24.1388   -9.7511  -16.9836 C   0  0  0  0  0  0  0  0  0  0  0  0
   24.6703   -9.0741  -17.9168 O   0  0  0  0  0  0  0  0  0  0  0  0
   20.0136   -6.4508  -19.1707 N   0  0  0  0  0  0  0  0  0  0  0  0
   20.5540   -6.7523  -17.8907 C   0  0  0  0  0  0  0  0  0  0  0  0
   20.5186   -5.8273  -17.0485 O   0  0  0  0  0  0  0  0  0  0  0  0
   21.1261   -8.0632  -17.5489 C   0  0  0  0  0  0  0  0  0  0  0  0
   22.4227   -7.8983  -16.8414 C   0  0  2  0  0  0  0  0  0  0  0  0
   22.9905   -9.1632  -16.4116 N   0  0  0  0  0  0  0  0  0  0  0  0
   22.1745   -7.1418  -15.5739 C   0  0  0  0  0  0  0  0  0  0  0  0
   22.2397   -5.7425  -15.6305 O   0  0  0  0  0  0  0  0  0  0  0  0
   21.9143   -7.6483  -14.4687 O   0  0  0  0  0  0  0  0  0  0  0  0
  2  1  1  1
  3  2  1  0
  4  5  1  0
  4  3  1  0
  5  6  1  0
  6  7  1  0
  8  9  2  0
  8  2  1  0
 11 10  1  0
 11 12  1  0
 12 14  1  0
 12 13  1  1
 14 15  1  6
 15  8  1  0
 16 14  1  0
 16 17  2  0
 19 21  1  0
 19 18  1  0
 20 19  2  0
 22 23  1  0
 22 21  1  1
 23 16  1  0
 24 22  1  0
 25 24  1  0
 26 24  2  0
M  END
$$$$
