KIN.pdb
     RDKit          3D

 26 25  0  0  1  0  0  0  0  0999 V2000
   26.4907  -21.0357  -12.9948 N   0  0  0  0  0  0  0  0  0  0  0  0
   25.4373  -20.4003  -12.3066 C   0  0  1  0  0  0  0  0  0  0  0  0
   24.1192  -20.4001  -13.0254 C   0  0  0  0  0  0  0  0  0  0  0  0
   24.0969  -19.8053  -14.3767 C   0  0  0  0  0  0  0  0  0  0  0  0
   22.7878  -19.7891  -15.0871 C   0  0  0  0  0  0  0  0  0  0  0  0
   22.8030  -19.2294  -16.4652 C   0  0  0  0  0  0  0  0  0  0  0  0
   21.7435  -18.3332  -16.7826 N   0  0  0  0  0  0  0  0  0  0  0  0
   25.1810  -20.9813  -10.9382 C   0  0  0  0  0  0  0  0  0  0  0  0
   25.1973  -22.2458  -10.8867 O   0  0  0  0  0  0  0  0  0  0  0  0
   27.6839  -19.0618   -6.7111 C   0  0  0  0  0  0  0  0  0  0  0  0
   27.0100  -20.0457   -7.6523 C   0  0  0  0  0  0  0  0  0  0  0  0
   25.5290  -20.1197   -7.4181 C   0  0  2  0  0  0  0  0  0  0  0  0
   25.2698  -20.6783   -6.0596 C   0  0  0  0  0  0  0  0  0  0  0  0
   24.7840  -20.8365   -8.5105 C   0  0  2  0  0  0  0  0  0  0  0  0
   24.9388  -20.1861   -9.7923 N   0  0  0  0  0  0  0  0  0  0  0  0
   23.3108  -20.8977   -8.2609 C   0  0  0  0  0  0  0  0  0  0  0  0
   22.5262  -19.9403   -8.5427 O   0  0  0  0  0  0  0  0  0  0  0  0
   18.5976  -24.7846   -8.0558 N   0  0  0  0  0  0  0  0  0  0  0  0
   19.2876  -23.5415   -8.0506 C   0  0  0  0  0  0  0  0  0  0  0  0
   18.5778  -22.5206   -7.9090 O   0  0  0  0  0  0  0  0  0  0  0  0
   20.7464  -23.4321   -8.2005 C   0  0  0  0  0  0  0  0  0  0  0  0
   21.2433  -22.1810   -7.5704 C   0  0  2  0  0  0  0  0  0  0  0  0
   22.6814  -22.0257   -7.6927 N   0  0  0  0  0  0  0  0  0  0  0  0
   20.9930  -22.2643   -6.0970 C   0  0  0  0  0  0  0  0  0  0  0  0
   19.8277  -21.6622   -5.6022 O   0  0  0  0  0  0  0  0  0  0  0  0
   21.7324  -22.8234   -5.2686 O   0  0  0  0  0  0  0  0  0  0  0  0
  2  1  1  6
  3  2  1  0
  4  5  1  0
  4  3  1  0
  5  6  1  0
  6  7  1  0
  8  9  2  0
  8  2  1  0
 11 10  1  0
 11 12  1  0
 12 14  1  0
 12 13  1  1
 14 15  1  6
 15  8  1  0
 16 14  1  0
 16 17  2  0
 19 21  1  0
 19 18  1  0
 20 19  2  0
 22 23  1  0
 22 21  1  6
 23 16  1  0
 24 22  1  0
 25 24  1  0
 26 24  2  0
M  END
$$$$
