KIN.pdb
     RDKit          3D

 26 25  0  0  1  0  0  0  0  0999 V2000
   27.9349  -20.1115  -16.0181 N   0  0  0  0  0  0  0  0  0  0  0  0
   26.9245  -21.0139  -16.4076 C   0  0  1  0  0  0  0  0  0  0  0  0
   27.4062  -22.2164  -17.1665 C   0  0  0  0  0  0  0  0  0  0  0  0
   27.8656  -21.9904  -18.5515 C   0  0  0  0  0  0  0  0  0  0  0  0
   29.3363  -21.9022  -18.7704 C   0  0  0  0  0  0  0  0  0  0  0  0
   29.7710  -21.6451  -20.1696 C   0  0  0  0  0  0  0  0  0  0  0  0
   30.8303  -20.7074  -20.3278 N   0  0  0  0  0  0  0  0  0  0  0  0
   26.1091  -21.5341  -15.2498 C   0  0  0  0  0  0  0  0  0  0  0  0
   25.7293  -22.7359  -15.3654 O   0  0  0  0  0  0  0  0  0  0  0  0
   27.2334  -20.3751  -10.0461 C   0  0  0  0  0  0  0  0  0  0  0  0
   26.8296  -21.0918  -11.3234 C   0  0  0  0  0  0  0  0  0  0  0  0
   25.4048  -20.8054  -11.6995 C   0  0  2  0  0  0  0  0  0  0  0  0
   24.5026  -21.2538  -10.5996 C   0  0  0  0  0  0  0  0  0  0  0  0
   25.0191  -21.3499  -13.0474 C   0  0  2  0  0  0  0  0  0  0  0  0
   25.7856  -20.7500  -14.1164 N   0  0  0  0  0  0  0  0  0  0  0  0
   23.5843  -21.0961  -13.3840 C   0  0  0  0  0  0  0  0  0  0  0  0
   23.1702  -19.9819  -13.8297 O   0  0  0  0  0  0  0  0  0  0  0  0
   21.8604  -25.0446  -15.1560 N   0  0  0  0  0  0  0  0  0  0  0  0
   21.2697  -23.7519  -15.1928 C   0  0  0  0  0  0  0  0  0  0  0  0
   21.3930  -23.1227  -16.2675 O   0  0  0  0  0  0  0  0  0  0  0  0
   20.5510  -23.1645  -14.0521 C   0  0  0  0  0  0  0  0  0  0  0  0
   21.1967  -21.8955  -13.6260 C   0  0  2  0  0  0  0  0  0  0  0  0
   22.5817  -22.0773  -13.2311 N   0  0  0  0  0  0  0  0  0  0  0  0
   20.5085  -21.4093  -12.3889 C   0  0  0  0  0  0  0  0  0  0  0  0
   19.1844  -20.9664  -12.5150 O   0  0  0  0  0  0  0  0  0  0  0  0
   21.0111  -21.3631  -11.2527 O   0  0  0  0  0  0  0  0  0  0  0  0
  2  1  1  1
  3  2  1  0
  4  5  1  0
  4  3  1  0
  5  6  1  0
  6  7  1  0
  8  9  2  0
  8  2  1  0
 11 10  1  0
 11 12  1  0
 12 14  1  0
 12 13  1  1
 14 15  1  6
 15  8  1  0
 16 14  1  0
 16 17  2  0
 19 21  1  0
 19 18  1  0
 20 19  2  0
 22 23  1  0
 22 21  1  1
 23 16  1  0
 24 22  1  0
 25 24  1  0
 26 24  2  0
M  END
$$$$
