KIN.pdb
     RDKit          3D

 26 25  0  0  1  0  0  0  0  0999 V2000
   20.6371  -27.7545  -11.3834 N   0  0  0  0  0  0  0  0  0  0  0  0
   19.4637  -27.9230  -10.6208 C   0  0  1  0  0  0  0  0  0  0  0  0
   19.2682  -29.2992  -10.0535 C   0  0  0  0  0  0  0  0  0  0  0  0
   20.4865  -30.0913   -9.7911 C   0  0  0  0  0  0  0  0  0  0  0  0
   20.6447  -31.3614  -10.5531 C   0  0  0  0  0  0  0  0  0  0  0  0
   21.8488  -32.1706  -10.2248 C   0  0  0  0  0  0  0  0  0  0  0  0
   22.0056  -33.3774  -10.9635 N   0  0  0  0  0  0  0  0  0  0  0  0
   19.3602  -26.9616   -9.4629 C   0  0  0  0  0  0  0  0  0  0  0  0
   20.4450  -26.3906   -9.1482 O   0  0  0  0  0  0  0  0  0  0  0  0
   17.7492  -22.6441  -10.4247 C   0  0  0  0  0  0  0  0  0  0  0  0
   18.3897  -23.8105   -9.6916 C   0  0  0  0  0  0  0  0  0  0  0  0
   17.4942  -24.3562   -8.6174 C   0  0  2  0  0  0  0  0  0  0  0  0
   17.1000  -23.2534   -7.6937 C   0  0  0  0  0  0  0  0  0  0  0  0
   18.0677  -25.5523   -7.9086 C   0  0  2  0  0  0  0  0  0  0  0  0
   18.1506  -26.7088   -8.7722 N   0  0  0  0  0  0  0  0  0  0  0  0
   17.2436  -25.9789   -6.7359 C   0  0  0  0  0  0  0  0  0  0  0  0
   16.1470  -26.6067   -6.8590 O   0  0  0  0  0  0  0  0  0  0  0  0
   18.5107  -28.2524   -3.6183 N   0  0  0  0  0  0  0  0  0  0  0  0
   18.4921  -27.1201   -2.7587 C   0  0  0  0  0  0  0  0  0  0  0  0
   19.2845  -27.1531   -1.7906 O   0  0  0  0  0  0  0  0  0  0  0  0
   17.6060  -25.9656   -2.9701 C   0  0  0  0  0  0  0  0  0  0  0  0
   16.8496  -26.1142   -4.2409 C   0  0  2  0  0  0  0  0  0  0  0  0
   17.6234  -25.7153   -5.4026 N   0  0  0  0  0  0  0  0  0  0  0  0
   15.6903  -25.1678   -4.2122 C   0  0  0  0  0  0  0  0  0  0  0  0
   14.4343  -25.6911   -3.8743 O   0  0  0  0  0  0  0  0  0  0  0  0
   15.7435  -23.9514   -4.4635 O   0  0  0  0  0  0  0  0  0  0  0  0
  2  1  1  1
  3  2  1  0
  4  5  1  0
  4  3  1  0
  5  6  1  0
  6  7  1  0
  8  9  2  0
  8  2  1  0
 11 10  1  0
 11 12  1  0
 12 14  1  0
 12 13  1  1
 14 15  1  6
 15  8  1  0
 16 14  1  0
 16 17  2  0
 19 21  1  0
 19 18  1  0
 20 19  2  0
 22 23  1  0
 22 21  1  1
 23 16  1  0
 24 22  1  0
 25 24  1  0
 26 24  2  0
M  END
$$$$
