KSD.pdb
     RDKit          3D

 24 23  0  0  1  0  0  0  0  0999 V2000
    8.3804  -16.8837   15.7559 N   0  0  0  0  0  0  0  0  0  0  0  0
    8.6173  -17.8447   16.7737 C   0  0  1  0  0  0  0  0  0  0  0  0
    9.7084  -18.7833   16.4191 C   0  0  0  0  0  0  0  0  0  0  0  0
   10.9354  -18.0524   15.9714 C   0  0  0  0  0  0  0  0  0  0  0  0
   12.0856  -18.9038   15.5388 C   0  0  0  0  0  0  0  0  0  0  0  0
   13.2934  -18.0571   15.1544 C   0  0  0  0  0  0  0  0  0  0  0  0
   14.3367  -18.9741   14.7360 N   0  0  0  0  0  0  0  0  0  0  0  0
    8.7965  -17.2079   18.1027 C   0  0  0  0  0  0  0  0  0  0  0  0
    9.5654  -16.2433   18.3036 O   0  0  0  0  0  0  0  0  0  0  0  0
    5.8821  -17.2495   21.1719 O   0  0  0  0  0  0  0  0  0  0  0  0
    7.1408  -17.7227   21.4777 C   0  0  0  0  0  0  0  0  0  0  0  0
    8.1873  -17.1663   20.5452 C   0  0  2  0  0  0  0  0  0  0  0  0
    8.0678  -17.7080   19.2035 N   0  0  0  0  0  0  0  0  0  0  0  0
    9.5683  -17.4549   21.0086 C   0  0  0  0  0  0  0  0  0  0  0  0
   10.1212  -18.5626   20.7643 O   0  0  0  0  0  0  0  0  0  0  0  0
   10.3412  -16.5163   21.7445 N   0  0  0  0  0  0  0  0  0  0  0  0
   11.6546  -16.8723   22.2481 C   0  0  1  0  0  0  0  0  0  0  0  0
   12.6155  -15.7326   21.9904 C   0  0  0  0  0  0  0  0  0  0  0  0
   13.9849  -16.0494   22.4226 C   0  0  0  0  0  0  0  0  0  0  0  0
   14.2630  -17.1877   22.8425 O   0  0  0  0  0  0  0  0  0  0  0  0
   11.5771  -17.1612   23.7238 C   0  0  0  0  0  0  0  0  0  0  0  0
   12.5752  -17.8763   24.3621 O   0  0  0  0  0  0  0  0  0  0  0  0
   14.9684  -15.0872   22.3652 O   0  0  0  0  0  0  0  0  0  0  0  0
   10.6141  -16.7670   24.4172 O   0  0  0  0  0  0  0  0  0  0  0  0
  2  1  1  6
  3  2  1  0
  4  3  1  0
  5  4  1  0
  5  6  1  0
  6  7  1  0
  8  2  1  0
  8  9  2  0
 12 11  1  1
 11 10  1  0
 13 12  1  0
 13  8  1  0
 14 15  2  0
 14 12  1  0
 16 14  1  0
 17 21  1  0
 17 16  1  0
 17 18  1  1
 19 23  1  0
 19 18  1  0
 20 19  2  0
 21 22  1  0
 24 21  2  0
M  END
$$$$
