KSD.pdb
     RDKit          3D

 24 23  0  0  1  0  0  0  0  0999 V2000
    8.0056  -12.8259   17.6237 N   0  0  0  0  0  0  0  0  0  0  0  0
    8.0499  -14.0912   18.2658 C   0  0  1  0  0  0  0  0  0  0  0  0
    8.6873  -15.1294   17.4213 C   0  0  0  0  0  0  0  0  0  0  0  0
    8.1235  -15.1292   16.0348 C   0  0  0  0  0  0  0  0  0  0  0  0
    8.6233  -16.2032   15.1227 C   0  0  0  0  0  0  0  0  0  0  0  0
    8.0195  -16.0775   13.7287 C   0  0  0  0  0  0  0  0  0  0  0  0
    8.5428  -17.1772   12.9405 N   0  0  0  0  0  0  0  0  0  0  0  0
    8.6346  -13.9987   19.6273 C   0  0  0  0  0  0  0  0  0  0  0  0
    9.7412  -13.4686   19.8646 O   0  0  0  0  0  0  0  0  0  0  0  0
    6.3743  -15.4820   22.8938 O   0  0  0  0  0  0  0  0  0  0  0  0
    7.2063  -14.3957   23.0653 C   0  0  0  0  0  0  0  0  0  0  0  0
    8.3603  -14.4185   22.0945 C   0  0  2  0  0  0  0  0  0  0  0  0
    7.9144  -14.5330   20.7176 N   0  0  0  0  0  0  0  0  0  0  0  0
    9.2882  -15.5503   22.3460 C   0  0  0  0  0  0  0  0  0  0  0  0
    9.2210  -16.6129   21.6688 O   0  0  0  0  0  0  0  0  0  0  0  0
   10.2939  -15.5078   23.3492 N   0  0  0  0  0  0  0  0  0  0  0  0
   11.1715  -16.6429   23.5657 C   0  0  1  0  0  0  0  0  0  0  0  0
   12.5972  -16.1551   23.7004 C   0  0  0  0  0  0  0  0  0  0  0  0
   13.4163  -16.4967   22.5279 C   0  0  0  0  0  0  0  0  0  0  0  0
   12.9301  -17.1615   21.5947 O   0  0  0  0  0  0  0  0  0  0  0  0
   10.7568  -17.3817   24.8105 C   0  0  0  0  0  0  0  0  0  0  0  0
   11.2985  -18.6175   25.1180 O   0  0  0  0  0  0  0  0  0  0  0  0
   14.7276  -16.0822   22.4558 O   0  0  0  0  0  0  0  0  0  0  0  0
    9.9143  -16.9061   25.6026 O   0  0  0  0  0  0  0  0  0  0  0  0
  2  1  1  6
  3  2  1  0
  4  3  1  0
  5  4  1  0
  5  6  1  0
  6  7  1  0
  8  2  1  0
  8  9  2  0
 12 11  1  1
 11 10  1  0
 13 12  1  0
 13  8  1  0
 14 15  2  0
 14 12  1  0
 16 14  1  0
 17 21  1  0
 17 16  1  0
 17 18  1  1
 19 23  1  0
 19 18  1  0
 20 19  2  0
 21 22  1  0
 24 21  2  0
M  END
$$$$
