KSD.pdb
     RDKit          3D

 24 23  0  0  1  0  0  0  0  0999 V2000
    5.8936  -18.5736   19.4085 N   0  0  0  0  0  0  0  0  0  0  0  0
    7.2438  -18.7943   19.0293 C   0  0  1  0  0  0  0  0  0  0  0  0
    7.3774  -19.1289   17.5915 C   0  0  0  0  0  0  0  0  0  0  0  0
    6.2754  -20.0330   17.1350 C   0  0  0  0  0  0  0  0  0  0  0  0
    5.6725  -19.7135   15.8047 C   0  0  0  0  0  0  0  0  0  0  0  0
    4.6829  -20.7875   15.3678 C   0  0  0  0  0  0  0  0  0  0  0  0
    4.2437  -20.4387   14.0300 N   0  0  0  0  0  0  0  0  0  0  0  0
    8.1267  -17.6812   19.4596 C   0  0  0  0  0  0  0  0  0  0  0  0
    9.3098  -17.5561   19.0768 O   0  0  0  0  0  0  0  0  0  0  0  0
    6.5817  -14.6113   22.0374 O   0  0  0  0  0  0  0  0  0  0  0  0
    7.5306  -14.3625   21.0682 C   0  0  0  0  0  0  0  0  0  0  0  0
    8.3930  -15.5722   20.8088 C   0  0  2  0  0  0  0  0  0  0  0  0
    7.6164  -16.7084   20.3463 N   0  0  0  0  0  0  0  0  0  0  0  0
    9.1278  -16.0133   22.0215 C   0  0  0  0  0  0  0  0  0  0  0  0
    8.5196  -16.5096   23.0094 O   0  0  0  0  0  0  0  0  0  0  0  0
   10.5397  -15.9055   22.1431 N   0  0  0  0  0  0  0  0  0  0  0  0
   11.2179  -16.3780   23.3356 C   0  0  1  0  0  0  0  0  0  0  0  0
   10.9487  -17.8562   23.5123 C   0  0  0  0  0  0  0  0  0  0  0  0
   11.5937  -18.4003   24.7165 C   0  0  0  0  0  0  0  0  0  0  0  0
   12.1762  -17.6422   25.5135 O   0  0  0  0  0  0  0  0  0  0  0  0
   12.6984  -16.1317   23.2153 C   0  0  0  0  0  0  0  0  0  0  0  0
   13.4476  -15.7492   24.3142 O   0  0  0  0  0  0  0  0  0  0  0  0
   11.5568  -19.7535   24.9694 O   0  0  0  0  0  0  0  0  0  0  0  0
   13.2964  -16.2637   22.1252 O   0  0  0  0  0  0  0  0  0  0  0  0
  2  1  1  6
  3  2  1  0
  4  3  1  0
  5  4  1  0
  5  6  1  0
  6  7  1  0
  8  2  1  0
  8  9  2  0
 12 11  1  1
 11 10  1  0
 13 12  1  0
 13  8  1  0
 14 15  2  0
 14 12  1  0
 16 14  1  0
 17 21  1  0
 17 16  1  0
 17 18  1  6
 19 23  1  0
 19 18  1  0
 20 19  2  0
 21 22  1  0
 24 21  2  0
M  END
$$$$
