KSD.pdb
     RDKit          3D

 24 23  0  0  1  0  0  0  0  0999 V2000
    8.0987  -15.5710   16.8619 N   0  0  0  0  0  0  0  0  0  0  0  0
    8.9300  -15.1554   17.9350 C   0  0  1  0  0  0  0  0  0  0  0  0
    8.2232  -14.2589   18.8804 C   0  0  0  0  0  0  0  0  0  0  0  0
    8.9717  -12.9788   19.0845 C   0  0  0  0  0  0  0  0  0  0  0  0
    8.3426  -11.9915   20.0143 C   0  0  0  0  0  0  0  0  0  0  0  0
    9.1961  -10.7366   20.1570 C   0  0  0  0  0  0  0  0  0  0  0  0
    8.4566   -9.8159   20.9994 N   0  0  0  0  0  0  0  0  0  0  0  0
    9.5918  -16.3070   18.5981 C   0  0  0  0  0  0  0  0  0  0  0  0
    8.9744  -17.1567   19.2754 O   0  0  0  0  0  0  0  0  0  0  0  0
   13.1984  -17.7445   17.2235 O   0  0  0  0  0  0  0  0  0  0  0  0
   12.3870  -18.4453   18.0908 C   0  0  0  0  0  0  0  0  0  0  0  0
   11.7315  -17.5355   19.0992 C   0  0  2  0  0  0  0  0  0  0  0  0
   10.9887  -16.4613   18.4650 N   0  0  0  0  0  0  0  0  0  0  0  0
   12.7159  -16.9021   20.0131 C   0  0  0  0  0  0  0  0  0  0  0  0
   13.1695  -15.7469   19.7853 O   0  0  0  0  0  0  0  0  0  0  0  0
   13.2008  -17.5476   21.1827 N   0  0  0  0  0  0  0  0  0  0  0  0
   14.1749  -16.8954   22.0378 C   0  0  1  0  0  0  0  0  0  0  0  0
   14.0505  -17.4391   23.4441 C   0  0  0  0  0  0  0  0  0  0  0  0
   14.8906  -16.7049   24.4020 C   0  0  0  0  0  0  0  0  0  0  0  0
   15.6426  -15.7947   24.0082 O   0  0  0  0  0  0  0  0  0  0  0  0
   15.5642  -17.1372   21.5098 C   0  0  0  0  0  0  0  0  0  0  0  0
   16.5158  -16.1326   21.5247 O   0  0  0  0  0  0  0  0  0  0  0  0
   14.8497  -17.0209   25.7417 O   0  0  0  0  0  0  0  0  0  0  0  0
   15.9019  -18.2470   21.0432 O   0  0  0  0  0  0  0  0  0  0  0  0
  2  1  1  6
  3  2  1  0
  4  3  1  0
  5  4  1  0
  5  6  1  0
  6  7  1  0
  8  2  1  0
  8  9  2  0
 12 11  1  6
 11 10  1  0
 13 12  1  0
 13  8  1  0
 14 15  2  0
 14 12  1  0
 16 14  1  0
 17 21  1  0
 17 16  1  0
 17 18  1  1
 19 23  1  0
 19 18  1  0
 20 19  2  0
 21 22  1  0
 24 21  2  0
M  END
$$$$
