KSD.pdb
     RDKit          3D

 24 23  0  0  1  0  0  0  0  0999 V2000
    8.0608  -16.6003   17.7754 N   0  0  0  0  0  0  0  0  0  0  0  0
    9.2495  -15.8251   17.7359 C   0  0  1  0  0  0  0  0  0  0  0  0
    9.2209  -14.8045   16.6614 C   0  0  0  0  0  0  0  0  0  0  0  0
    8.6125  -15.3476   15.4064 C   0  0  0  0  0  0  0  0  0  0  0  0
    7.5099  -14.5356   14.8065 C   0  0  0  0  0  0  0  0  0  0  0  0
    7.6937  -14.3693   13.3025 C   0  0  0  0  0  0  0  0  0  0  0  0
    6.5875  -13.5593   12.8283 N   0  0  0  0  0  0  0  0  0  0  0  0
    9.5889  -15.2676   19.0693 C   0  0  0  0  0  0  0  0  0  0  0  0
   10.6642  -14.6794   19.3139 O   0  0  0  0  0  0  0  0  0  0  0  0
    7.0076  -15.9188   22.5516 O   0  0  0  0  0  0  0  0  0  0  0  0
    7.6956  -14.7533   22.2867 C   0  0  0  0  0  0  0  0  0  0  0  0
    8.9500  -15.0148   21.4914 C   0  0  2  0  0  0  0  0  0  0  0  0
    8.6589  -15.4023   20.1228 N   0  0  0  0  0  0  0  0  0  0  0  0
    9.7786  -16.0964   22.0820 C   0  0  0  0  0  0  0  0  0  0  0  0
    9.8931  -17.2165   21.5125 O   0  0  0  0  0  0  0  0  0  0  0  0
   10.4832  -15.9397   23.3062 N   0  0  0  0  0  0  0  0  0  0  0  0
   11.7075  -16.6776   23.5550 C   0  0  1  0  0  0  0  0  0  0  0  0
   12.8651  -15.9658   22.8901 C   0  0  0  0  0  0  0  0  0  0  0  0
   14.1490  -16.6394   23.1358 C   0  0  0  0  0  0  0  0  0  0  0  0
   14.2030  -17.8809   23.2063 O   0  0  0  0  0  0  0  0  0  0  0  0
   11.9486  -16.7864   25.0373 C   0  0  0  0  0  0  0  0  0  0  0  0
   11.1068  -16.1644   25.9426 O   0  0  0  0  0  0  0  0  0  0  0  0
   15.3001  -15.8993   23.2893 O   0  0  0  0  0  0  0  0  0  0  0  0
   12.9116  -17.4385   25.4966 O   0  0  0  0  0  0  0  0  0  0  0  0
  2  1  1  1
  3  2  1  0
  4  3  1  0
  5  4  1  0
  5  6  1  0
  6  7  1  0
  8  2  1  0
  8  9  2  0
 12 11  1  1
 11 10  1  0
 13 12  1  0
 13  8  1  0
 14 15  2  0
 14 12  1  0
 16 14  1  0
 17 21  1  0
 17 16  1  0
 17 18  1  6
 19 23  1  0
 19 18  1  0
 20 19  2  0
 21 22  1  0
 24 21  2  0
M  END
$$$$
