KSD.pdb
     RDKit          3D

 24 23  0  0  1  0  0  0  0  0999 V2000
    6.9882  -15.7787   19.1920 N   0  0  0  0  0  0  0  0  0  0  0  0
    8.1489  -14.9677   19.0895 C   0  0  1  0  0  0  0  0  0  0  0  0
    8.0117  -13.9163   18.0537 C   0  0  0  0  0  0  0  0  0  0  0  0
    7.9153  -14.5081   16.6823 C   0  0  0  0  0  0  0  0  0  0  0  0
    7.7084  -13.5396   15.5623 C   0  0  0  0  0  0  0  0  0  0  0  0
    7.7426  -14.2373   14.2075 C   0  0  0  0  0  0  0  0  0  0  0  0
    7.3422  -13.2563   13.2166 N   0  0  0  0  0  0  0  0  0  0  0  0
    8.5723  -14.4409   20.4113 C   0  0  0  0  0  0  0  0  0  0  0  0
    8.3774  -13.2610   20.7744 O   0  0  0  0  0  0  0  0  0  0  0  0
    7.6792  -15.5836   23.9497 O   0  0  0  0  0  0  0  0  0  0  0  0
    8.3793  -14.4967   23.4700 C   0  0  0  0  0  0  0  0  0  0  0  0
    9.5836  -14.9196   22.6667 C   0  0  2  0  0  0  0  0  0  0  0  0
    9.2295  -15.3060   21.3127 N   0  0  0  0  0  0  0  0  0  0  0  0
   10.2928  -16.0733   23.2760 C   0  0  0  0  0  0  0  0  0  0  0  0
    9.8207  -17.2414   23.2059 O   0  0  0  0  0  0  0  0  0  0  0  0
   11.5280  -15.9358   23.9653 N   0  0  0  0  0  0  0  0  0  0  0  0
   12.2264  -17.1023   24.4720 C   0  0  1  0  0  0  0  0  0  0  0  0
   13.6961  -16.7783   24.6263 C   0  0  0  0  0  0  0  0  0  0  0  0
   14.2872  -16.2640   23.3819 C   0  0  0  0  0  0  0  0  0  0  0  0
   14.1350  -16.8824   22.3124 O   0  0  0  0  0  0  0  0  0  0  0  0
   11.6442  -17.5126   25.7987 C   0  0  0  0  0  0  0  0  0  0  0  0
   10.6177  -16.7887   26.3795 O   0  0  0  0  0  0  0  0  0  0  0  0
   15.0133  -15.0940   23.3930 O   0  0  0  0  0  0  0  0  0  0  0  0
   12.0664  -18.5148   26.4157 O   0  0  0  0  0  0  0  0  0  0  0  0
  2  1  1  1
  3  2  1  0
  4  3  1  0
  5  4  1  0
  5  6  1  0
  6  7  1  0
  8  2  1  0
  8  9  2  0
 12 11  1  1
 11 10  1  0
 13 12  1  0
 13  8  1  0
 14 15  2  0
 14 12  1  0
 16 14  1  0
 17 21  1  0
 17 16  1  0
 17 18  1  1
 19 23  1  0
 19 18  1  0
 20 19  2  0
 21 22  1  0
 24 21  2  0
M  END
$$$$
