KSD.pdb
     RDKit          3D

 24 23  0  0  1  0  0  0  0  0999 V2000
   10.3713  -17.5680   16.8425 N   0  0  0  0  0  0  0  0  0  0  0  0
   10.0641  -17.9337   18.1794 C   0  0  1  0  0  0  0  0  0  0  0  0
   10.3423  -19.3643   18.4500 C   0  0  0  0  0  0  0  0  0  0  0  0
    9.7563  -20.2457   17.3917 C   0  0  0  0  0  0  0  0  0  0  0  0
    9.9278  -21.7171   17.5937 C   0  0  0  0  0  0  0  0  0  0  0  0
    9.2106  -22.5164   16.5119 C   0  0  0  0  0  0  0  0  0  0  0  0
    9.3952  -23.9196   16.8305 N   0  0  0  0  0  0  0  0  0  0  0  0
   10.6935  -17.0151   19.1611 C   0  0  0  0  0  0  0  0  0  0  0  0
   11.8502  -16.5598   19.0315 O   0  0  0  0  0  0  0  0  0  0  0  0
    8.5935  -16.0911   22.7455 O   0  0  0  0  0  0  0  0  0  0  0  0
    9.4192  -15.1414   22.1814 C   0  0  0  0  0  0  0  0  0  0  0  0
   10.5019  -15.7719   21.3420 C   0  0  2  0  0  0  0  0  0  0  0  0
    9.9593  -16.6290   20.3033 N   0  0  0  0  0  0  0  0  0  0  0  0
   11.4312  -16.6027   22.1491 C   0  0  0  0  0  0  0  0  0  0  0  0
   11.2897  -17.8542   22.2255 O   0  0  0  0  0  0  0  0  0  0  0  0
   12.5208  -16.0487   22.8742 N   0  0  0  0  0  0  0  0  0  0  0  0
   13.4042  -16.9008   23.6480 C   0  0  1  0  0  0  0  0  0  0  0  0
   14.6433  -16.1216   24.0303 C   0  0  0  0  0  0  0  0  0  0  0  0
   15.6929  -16.2045   23.0037 C   0  0  0  0  0  0  0  0  0  0  0  0
   15.6302  -17.0690   22.1104 O   0  0  0  0  0  0  0  0  0  0  0  0
   12.6953  -17.3864   24.8845 C   0  0  0  0  0  0  0  0  0  0  0  0
   13.1827  -18.4602   25.6085 O   0  0  0  0  0  0  0  0  0  0  0  0
   16.7523  -15.3249   23.0251 O   0  0  0  0  0  0  0  0  0  0  0  0
   11.6491  -16.8387   25.2955 O   0  0  0  0  0  0  0  0  0  0  0  0
  2  1  1  6
  3  2  1  0
  4  3  1  0
  5  4  1  0
  5  6  1  0
  6  7  1  0
  8  2  1  0
  8  9  2  0
 12 11  1  1
 11 10  1  0
 13 12  1  0
 13  8  1  0
 14 15  2  0
 14 12  1  0
 16 14  1  0
 17 21  1  0
 17 16  1  0
 17 18  1  1
 19 23  1  0
 19 18  1  0
 20 19  2  0
 21 22  1  0
 24 21  2  0
M  END
$$$$
