KSD.pdb
     RDKit          3D

 24 23  0  0  1  0  0  0  0  0999 V2000
    7.0077  -15.4595   19.6279 N   0  0  0  0  0  0  0  0  0  0  0  0
    8.2043  -14.7139   19.4622 C   0  0  1  0  0  0  0  0  0  0  0  0
    8.0009  -13.4983   18.6387 C   0  0  0  0  0  0  0  0  0  0  0  0
    7.2986  -13.8172   17.3560 C   0  0  0  0  0  0  0  0  0  0  0  0
    8.1499  -13.8307   16.1271 C   0  0  0  0  0  0  0  0  0  0  0  0
    7.3156  -14.0625   14.8725 C   0  0  0  0  0  0  0  0  0  0  0  0
    8.2433  -14.1771   13.7631 N   0  0  0  0  0  0  0  0  0  0  0  0
    8.8687  -14.4409   20.7614 C   0  0  0  0  0  0  0  0  0  0  0  0
    9.9336  -13.7951   20.8656 O   0  0  0  0  0  0  0  0  0  0  0  0
    7.3294  -16.3084   24.2681 O   0  0  0  0  0  0  0  0  0  0  0  0
    7.9512  -15.0823   24.3759 C   0  0  0  0  0  0  0  0  0  0  0  0
    8.9215  -14.8479   23.2455 C   0  0  2  0  0  0  0  0  0  0  0  0
    8.2781  -14.9304   21.9466 N   0  0  0  0  0  0  0  0  0  0  0  0
   10.0340  -15.8316   23.2422 C   0  0  0  0  0  0  0  0  0  0  0  0
    9.9730  -16.8844   22.5494 O   0  0  0  0  0  0  0  0  0  0  0  0
   11.2181  -15.6512   24.0072 N   0  0  0  0  0  0  0  0  0  0  0  0
   12.2874  -16.6307   23.9575 C   0  0  1  0  0  0  0  0  0  0  0  0
   13.6148  -15.9168   23.8268 C   0  0  0  0  0  0  0  0  0  0  0  0
   14.7506  -16.8506   23.8079 C   0  0  0  0  0  0  0  0  0  0  0  0
   14.7916  -17.7722   22.9723 O   0  0  0  0  0  0  0  0  0  0  0  0
   12.2718  -17.4711   25.2068 C   0  0  0  0  0  0  0  0  0  0  0  0
   11.4169  -17.1736   26.2536 O   0  0  0  0  0  0  0  0  0  0  0  0
   15.7765  -16.7103   24.7158 O   0  0  0  0  0  0  0  0  0  0  0  0
   13.0261  -18.4595   25.3390 O   0  0  0  0  0  0  0  0  0  0  0  0
  2  1  1  1
  3  2  1  0
  4  3  1  0
  5  4  1  0
  5  6  1  0
  6  7  1  0
  8  2  1  0
  8  9  2  0
 12 11  1  1
 11 10  1  0
 13 12  1  0
 13  8  1  0
 14 15  2  0
 14 12  1  0
 16 14  1  0
 17 21  1  0
 17 16  1  0
 17 18  1  1
 19 23  1  0
 19 18  1  0
 20 19  2  0
 21 22  1  0
 24 21  2  0
M  END
$$$$
