KSD.pdb
     RDKit          3D

 24 23  0  0  1  0  0  0  0  0999 V2000
    9.1126  -15.7140   18.7759 N   0  0  0  0  0  0  0  0  0  0  0  0
    8.5513  -16.2986   19.9415 C   0  0  1  0  0  0  0  0  0  0  0  0
    8.4686  -17.7755   19.8468 C   0  0  0  0  0  0  0  0  0  0  0  0
    7.5980  -18.2031   18.7068 C   0  0  0  0  0  0  0  0  0  0  0  0
    7.3044  -19.6663   18.6177 C   0  0  0  0  0  0  0  0  0  0  0  0
    6.4192  -19.9862   17.4187 C   0  0  0  0  0  0  0  0  0  0  0  0
    6.1557  -21.4122   17.4562 N   0  0  0  0  0  0  0  0  0  0  0  0
    9.2257  -15.8243   21.1760 C   0  0  0  0  0  0  0  0  0  0  0  0
   10.4667  -15.7236   21.2849 O   0  0  0  0  0  0  0  0  0  0  0  0
    6.8778  -15.0933   24.6222 O   0  0  0  0  0  0  0  0  0  0  0  0
    7.9617  -14.2746   24.3849 C   0  0  0  0  0  0  0  0  0  0  0  0
    8.9989  -14.9568   23.5286 C   0  0  2  0  0  0  0  0  0  0  0  0
    8.4369  -15.4661   22.2906 N   0  0  0  0  0  0  0  0  0  0  0  0
    9.6367  -16.1054   24.2208 C   0  0  0  0  0  0  0  0  0  0  0  0
    9.1949  -17.2792   24.0816 O   0  0  0  0  0  0  0  0  0  0  0  0
   10.7668  -15.9566   25.0697 N   0  0  0  0  0  0  0  0  0  0  0  0
   11.3115  -17.0966   25.7831 C   0  0  1  0  0  0  0  0  0  0  0  0
   12.8205  -16.9937   25.8138 C   0  0  0  0  0  0  0  0  0  0  0  0
   13.4107  -17.0512   24.4681 C   0  0  0  0  0  0  0  0  0  0  0  0
   12.8575  -17.7089   23.5678 O   0  0  0  0  0  0  0  0  0  0  0  0
   10.7659  -17.1322   27.1861 C   0  0  0  0  0  0  0  0  0  0  0  0
   11.0808  -18.1699   28.0458 O   0  0  0  0  0  0  0  0  0  0  0  0
   14.5802  -16.3767   24.1964 O   0  0  0  0  0  0  0  0  0  0  0  0
   10.0147  -16.2308   27.6181 O   0  0  0  0  0  0  0  0  0  0  0  0
  2  1  1  6
  3  2  1  0
  4  3  1  0
  5  4  1  0
  5  6  1  0
  6  7  1  0
  8  2  1  0
  8  9  2  0
 12 11  1  1
 11 10  1  0
 13 12  1  0
 13  8  1  0
 14 15  2  0
 14 12  1  0
 16 14  1  0
 17 21  1  0
 17 16  1  0
 17 18  1  1
 19 23  1  0
 19 18  1  0
 20 19  2  0
 21 22  1  0
 24 21  2  0
M  END
$$$$
