KSD.pdb
     RDKit          3D

 24 23  0  0  1  0  0  0  0  0999 V2000
    7.9528  -12.9010   18.6243 N   0  0  0  0  0  0  0  0  0  0  0  0
    8.0151  -14.1633   19.2710 C   0  0  1  0  0  0  0  0  0  0  0  0
    8.5862  -15.2160   18.3977 C   0  0  0  0  0  0  0  0  0  0  0  0
    7.6959  -15.4998   17.2284 C   0  0  0  0  0  0  0  0  0  0  0  0
    8.1534  -16.5802   16.3018 C   0  0  0  0  0  0  0  0  0  0  0  0
    7.0801  -16.9282   15.2769 C   0  0  0  0  0  0  0  0  0  0  0  0
    7.6596  -17.9030   14.3722 N   0  0  0  0  0  0  0  0  0  0  0  0
    8.6793  -14.0723   20.5956 C   0  0  0  0  0  0  0  0  0  0  0  0
    9.8660  -13.7098   20.7450 O   0  0  0  0  0  0  0  0  0  0  0  0
    6.3991  -14.9242   24.0779 O   0  0  0  0  0  0  0  0  0  0  0  0
    7.4277  -14.0067   24.1196 C   0  0  0  0  0  0  0  0  0  0  0  0
    8.4905  -14.3136   23.0946 C   0  0  2  0  0  0  0  0  0  0  0  0
    7.9445  -14.4098   21.7527 N   0  0  0  0  0  0  0  0  0  0  0  0
    9.1901  -15.5938   23.3716 C   0  0  0  0  0  0  0  0  0  0  0  0
    8.7796  -16.6818   22.8817 O   0  0  0  0  0  0  0  0  0  0  0  0
   10.3474  -15.6722   24.1927 N   0  0  0  0  0  0  0  0  0  0  0  0
   10.9153  -16.9587   24.5502 C   0  0  1  0  0  0  0  0  0  0  0  0
   12.4202  -16.8339   24.6412 C   0  0  0  0  0  0  0  0  0  0  0  0
   13.0536  -16.7474   23.3169 C   0  0  0  0  0  0  0  0  0  0  0  0
   12.3621  -16.8201   22.2846 O   0  0  0  0  0  0  0  0  0  0  0  0
   10.3528  -17.4191   25.8688 C   0  0  0  0  0  0  0  0  0  0  0  0
    9.5091  -16.6061   26.6051 O   0  0  0  0  0  0  0  0  0  0  0  0
   14.4170  -16.5855   23.2116 O   0  0  0  0  0  0  0  0  0  0  0  0
   10.6277  -18.5445   26.3393 O   0  0  0  0  0  0  0  0  0  0  0  0
  2  1  1  6
  3  2  1  0
  4  3  1  0
  5  4  1  0
  5  6  1  0
  6  7  1  0
  8  2  1  0
  8  9  2  0
 12 11  1  1
 11 10  1  0
 13 12  1  0
 13  8  1  0
 14 15  2  0
 14 12  1  0
 16 14  1  0
 17 21  1  0
 17 16  1  0
 17 18  1  1
 19 23  1  0
 19 18  1  0
 20 19  2  0
 21 22  1  0
 24 21  2  0
M  END
$$$$
