KSD.pdb
     RDKit          3D

 24 23  0  0  1  0  0  0  0  0999 V2000
    7.6666  -13.6619   16.2348 N   0  0  0  0  0  0  0  0  0  0  0  0
    8.6030  -14.5893   16.7625 C   0  0  1  0  0  0  0  0  0  0  0  0
    9.5505  -15.0802   15.7337 C   0  0  0  0  0  0  0  0  0  0  0  0
    8.8653  -15.9563   14.7320 C   0  0  0  0  0  0  0  0  0  0  0  0
    9.7289  -16.5095   13.6442 C   0  0  0  0  0  0  0  0  0  0  0  0
    8.9089  -17.2884   12.6222 C   0  0  0  0  0  0  0  0  0  0  0  0
    9.8425  -17.8184   11.6465 N   0  0  0  0  0  0  0  0  0  0  0  0
    9.2737  -14.0646   17.9786 C   0  0  0  0  0  0  0  0  0  0  0  0
    9.6054  -12.8676   18.1172 O   0  0  0  0  0  0  0  0  0  0  0  0
    9.0605  -16.1800   21.5539 O   0  0  0  0  0  0  0  0  0  0  0  0
    9.4011  -14.8453   21.4878 C   0  0  0  0  0  0  0  0  0  0  0  0
   10.2237  -14.5399   20.2612 C   0  0  2  0  0  0  0  0  0  0  0  0
    9.5570  -14.9522   19.0391 N   0  0  0  0  0  0  0  0  0  0  0  0
   11.5455  -15.2163   20.2842 C   0  0  0  0  0  0  0  0  0  0  0  0
   11.7425  -16.2872   19.6466 O   0  0  0  0  0  0  0  0  0  0  0  0
   12.6537  -14.7075   21.0143 N   0  0  0  0  0  0  0  0  0  0  0  0
   13.8908  -15.4606   21.1017 C   0  0  1  0  0  0  0  0  0  0  0  0
   15.0635  -14.5154   20.9600 C   0  0  0  0  0  0  0  0  0  0  0  0
   16.3519  -15.2241   20.9438 C   0  0  0  0  0  0  0  0  0  0  0  0
   16.9765  -15.3664   19.8766 O   0  0  0  0  0  0  0  0  0  0  0  0
   13.9613  -16.1796   22.4228 C   0  0  0  0  0  0  0  0  0  0  0  0
   14.8286  -17.2417   22.6094 O   0  0  0  0  0  0  0  0  0  0  0  0
   16.8751  -15.7349   22.1107 O   0  0  0  0  0  0  0  0  0  0  0  0
   13.2430  -15.8427   23.3893 O   0  0  0  0  0  0  0  0  0  0  0  0
  2  1  1  6
  3  2  1  0
  4  3  1  0
  5  4  1  0
  5  6  1  0
  6  7  1  0
  8  2  1  0
  8  9  2  0
 12 11  1  1
 11 10  1  0
 13 12  1  0
 13  8  1  0
 14 15  2  0
 14 12  1  0
 16 14  1  0
 17 21  1  0
 17 16  1  0
 17 18  1  1
 19 23  1  0
 19 18  1  0
 20 19  2  0
 21 22  1  0
 24 21  2  0
M  END
$$$$
