KSD.pdb
     RDKit          3D

 24 23  0  0  1  0  0  0  0  0999 V2000
    7.5961  -16.2899   17.8857 N   0  0  0  0  0  0  0  0  0  0  0  0
    7.9150  -16.9964   19.0750 C   0  0  1  0  0  0  0  0  0  0  0  0
    8.2970  -18.4037   18.8089 C   0  0  0  0  0  0  0  0  0  0  0  0
    8.9194  -18.5556   17.4562 C   0  0  0  0  0  0  0  0  0  0  0  0
    9.1378  -19.9585   16.9878 C   0  0  0  0  0  0  0  0  0  0  0  0
    9.8998  -19.9941   15.6681 C   0  0  0  0  0  0  0  0  0  0  0  0
   10.0669  -21.3910   15.3140 N   0  0  0  0  0  0  0  0  0  0  0  0
    8.9055  -16.2636   19.9032 C   0  0  0  0  0  0  0  0  0  0  0  0
    9.8798  -15.6461   19.4220 O   0  0  0  0  0  0  0  0  0  0  0  0
    8.3934  -16.2162   24.1233 O   0  0  0  0  0  0  0  0  0  0  0  0
    8.8453  -15.0912   23.4662 C   0  0  0  0  0  0  0  0  0  0  0  0
    9.5671  -15.4433   22.1897 C   0  0  2  0  0  0  0  0  0  0  0  0
    8.7507  -16.2564   21.3063 N   0  0  0  0  0  0  0  0  0  0  0  0
   10.8213  -16.1983   22.4392 C   0  0  0  0  0  0  0  0  0  0  0  0
   10.8636  -17.4534   22.3162 O   0  0  0  0  0  0  0  0  0  0  0  0
   12.0329  -15.5642   22.8259 N   0  0  0  0  0  0  0  0  0  0  0  0
   13.2316  -16.3448   23.0692 C   0  0  1  0  0  0  0  0  0  0  0  0
   14.4450  -15.4487   22.9528 C   0  0  0  0  0  0  0  0  0  0  0  0
   15.7047  -16.1970   23.0773 C   0  0  0  0  0  0  0  0  0  0  0  0
   16.4909  -15.9517   24.0106 O   0  0  0  0  0  0  0  0  0  0  0  0
   13.1725  -16.9612   24.4417 C   0  0  0  0  0  0  0  0  0  0  0  0
   12.2179  -16.5617   25.3605 O   0  0  0  0  0  0  0  0  0  0  0  0
   16.0219  -17.1747   22.1608 O   0  0  0  0  0  0  0  0  0  0  0  0
   13.9790  -17.8492   24.7946 O   0  0  0  0  0  0  0  0  0  0  0  0
  2  1  1  6
  3  2  1  0
  4  3  1  0
  5  4  1  0
  5  6  1  0
  6  7  1  0
  8  2  1  0
  8  9  2  0
 12 11  1  1
 11 10  1  0
 13 12  1  0
 13  8  1  0
 14 15  2  0
 14 12  1  0
 16 14  1  0
 17 21  1  0
 17 16  1  0
 17 18  1  1
 19 23  1  0
 19 18  1  0
 20 19  2  0
 21 22  1  0
 24 21  2  0
M  END
$$$$
