SAI.pdb
     RDKit          3D

 20 19  0  0  1  0  0  0  0  0999 V2000
    9.0633  -16.1560   19.1323 O   0  0  0  0  0  0  0  0  0  0  0  0
    9.1385  -17.3631   19.7809 C   0  0  0  0  0  0  0  0  0  0  0  0
    7.7764  -17.9237   20.1341 C   0  0  2  0  0  0  0  0  0  0  0  0
    6.8280  -17.6902   19.0657 N   0  0  0  0  0  0  0  0  0  0  0  0
    7.2859  -17.4021   21.4310 C   0  0  0  0  0  0  0  0  0  0  0  0
    6.5933  -16.3326   21.4932 O   0  0  0  0  0  0  0  0  0  0  0  0
    7.0599  -18.6673   24.9225 C   0  0  0  0  0  0  0  0  0  0  0  0
    6.9806  -17.5427   23.9101 C   0  0  2  0  0  0  0  0  0  0  0  0
    7.5461  -18.0419   22.6718 N   0  0  0  0  0  0  0  0  0  0  0  0
    7.7389  -16.3845   24.4340 C   0  0  0  0  0  0  0  0  0  0  0  0
    8.9245  -16.2048   24.0374 O   0  0  0  0  0  0  0  0  0  0  0  0
    7.0575  -10.7360   26.0967 C   0  0  0  0  0  0  0  0  0  0  0  0
    7.7493  -11.9416   26.7191 C   0  0  0  0  0  0  0  0  0  0  0  0
    6.9811  -13.1809   26.2598 C   0  0  2  0  0  0  0  0  0  0  0  0
    6.2432  -13.7119   27.4700 C   0  0  0  0  0  0  0  0  0  0  0  0
    7.9317  -14.2608   25.7926 C   0  0  2  0  0  0  0  0  0  0  0  0
    7.2258  -15.4512   25.3595 N   0  0  0  0  0  0  0  0  0  0  0  0
    8.7827  -14.6334   26.9308 C   0  0  0  0  0  0  0  0  0  0  0  0
    8.5751  -15.7040   27.5345 O   0  0  0  0  0  0  0  0  0  0  0  0
    9.8047  -13.8129   27.3357 O   0  0  0  0  0  0  0  0  0  0  0  0
  2  1  1  0
  3  2  1  0
  3  4  1  6
  5  3  1  0
  5  9  1  0
  6  5  2  0
  8 10  1  0
  8  9  1  0
  8  7  1  1
 10 17  1  0
 11 10  2  0
 13 12  1  0
 14 13  1  0
 14 15  1  1
 16 14  1  0
 16 17  1  1
 18 16  1  0
 19 18  2  0
 20 18  1  0
M  END
$$$$
