SAI.pdb
     RDKit          3D

 20 19  0  0  1  0  0  0  0  0999 V2000
   10.7095  -12.9689   19.9853 O   0  0  0  0  0  0  0  0  0  0  0  0
   10.2310  -14.0379   19.2699 C   0  0  0  0  0  0  0  0  0  0  0  0
    8.7269  -13.9997   19.0958 C   0  0  2  0  0  0  0  0  0  0  0  0
    8.3030  -12.7344   18.5347 N   0  0  0  0  0  0  0  0  0  0  0  0
    8.0185  -14.3075   20.3599 C   0  0  0  0  0  0  0  0  0  0  0  0
    7.5592  -13.3778   21.1027 O   0  0  0  0  0  0  0  0  0  0  0  0
    6.9474  -17.3885   22.1941 C   0  0  0  0  0  0  0  0  0  0  0  0
    7.1338  -15.8887   22.0850 C   0  0  2  0  0  0  0  0  0  0  0  0
    7.8044  -15.6320   20.8254 N   0  0  0  0  0  0  0  0  0  0  0  0
    7.9377  -15.4299   23.2401 C   0  0  0  0  0  0  0  0  0  0  0  0
    9.1845  -15.2890   23.0951 O   0  0  0  0  0  0  0  0  0  0  0  0
    5.8024  -11.6820   26.5023 C   0  0  0  0  0  0  0  0  0  0  0  0
    6.7930  -12.4339   25.6231 C   0  0  0  0  0  0  0  0  0  0  0  0
    7.3026  -13.6200   26.4420 C   0  0  2  0  0  0  0  0  0  0  0  0
    8.1806  -13.0515   27.5361 C   0  0  0  0  0  0  0  0  0  0  0  0
    8.1610  -14.5312   25.5928 C   0  0  2  0  0  0  0  0  0  0  0  0
    7.4044  -15.1336   24.5124 N   0  0  0  0  0  0  0  0  0  0  0  0
    8.6539  -15.6149   26.4537 C   0  0  0  0  0  0  0  0  0  0  0  0
    9.5278  -15.3762   27.3100 O   0  0  0  0  0  0  0  0  0  0  0  0
    8.1608  -16.8883   26.3238 O   0  0  0  0  0  0  0  0  0  0  0  0
  2  1  1  0
  3  2  1  0
  3  4  1  1
  5  3  1  0
  5  9  1  0
  6  5  2  0
  8 10  1  0
  8  9  1  0
  8  7  1  1
 10 17  1  0
 11 10  2  0
 13 12  1  0
 14 13  1  0
 14 15  1  1
 16 14  1  0
 16 17  1  6
 18 16  1  0
 19 18  2  0
 20 18  1  0
M  END
$$$$
