SAI.pdb
     RDKit          3D

 20 19  0  0  1  0  0  0  0  0999 V2000
   10.4612  -18.0417   19.2250 O   0  0  0  0  0  0  0  0  0  0  0  0
    9.7017  -17.2028   20.0014 C   0  0  0  0  0  0  0  0  0  0  0  0
    8.2982  -17.7254   20.2278 C   0  0  2  0  0  0  0  0  0  0  0  0
    7.4331  -17.3818   19.1192 N   0  0  0  0  0  0  0  0  0  0  0  0
    7.7429  -17.2685   21.5230 C   0  0  0  0  0  0  0  0  0  0  0  0
    7.0766  -16.1843   21.6101 O   0  0  0  0  0  0  0  0  0  0  0  0
    7.0577  -18.7972   24.8125 C   0  0  0  0  0  0  0  0  0  0  0  0
    7.2656  -17.5610   23.9614 C   0  0  2  0  0  0  0  0  0  0  0  0
    7.9092  -17.9899   22.7349 N   0  0  0  0  0  0  0  0  0  0  0  0
    8.1050  -16.6051   24.7183 C   0  0  0  0  0  0  0  0  0  0  0  0
    9.3600  -16.6626   24.5874 O   0  0  0  0  0  0  0  0  0  0  0  0
    5.8549  -11.8577   26.5795 C   0  0  0  0  0  0  0  0  0  0  0  0
    6.8278  -12.7754   25.8509 C   0  0  0  0  0  0  0  0  0  0  0  0
    7.5885  -13.5569   26.9221 C   0  0  2  0  0  0  0  0  0  0  0  0
    8.5398  -12.5821   27.5823 C   0  0  0  0  0  0  0  0  0  0  0  0
    8.4193  -14.6563   26.2982 C   0  0  2  0  0  0  0  0  0  0  0  0
    7.5975  -15.6183   25.5897 N   0  0  0  0  0  0  0  0  0  0  0  0
    9.1093  -15.3683   27.3824 C   0  0  0  0  0  0  0  0  0  0  0  0
    8.6026  -16.3991   27.8666 O   0  0  0  0  0  0  0  0  0  0  0  0
   10.3073  -14.9086   27.8673 O   0  0  0  0  0  0  0  0  0  0  0  0
  2  1  1  0
  3  2  1  0
  3  4  1  6
  5  3  1  0
  5  9  1  0
  6  5  2  0
  8 10  1  0
  8  9  1  0
  8  7  1  1
 10 17  1  0
 11 10  2  0
 13 12  1  0
 14 13  1  0
 14 15  1  6
 16 14  1  0
 16 17  1  1
 18 16  1  0
 19 18  2  0
 20 18  1  0
M  END
$$$$
