SAI.pdb
     RDKit          3D

 20 19  0  0  1  0  0  0  0  0999 V2000
   10.3286  -13.3309   19.6750 O   0  0  0  0  0  0  0  0  0  0  0  0
    9.7599  -14.3561   18.9616 C   0  0  0  0  0  0  0  0  0  0  0  0
    8.2462  -14.3050   18.9688 C   0  0  2  0  0  0  0  0  0  0  0  0
    7.7683  -13.0480   18.4331 N   0  0  0  0  0  0  0  0  0  0  0  0
    7.6927  -14.5766   20.3159 C   0  0  0  0  0  0  0  0  0  0  0  0
    7.2773  -13.6293   21.0624 O   0  0  0  0  0  0  0  0  0  0  0  0
    6.8392  -17.6113   22.3270 C   0  0  0  0  0  0  0  0  0  0  0  0
    6.9808  -16.1122   22.1582 C   0  0  2  0  0  0  0  0  0  0  0  0
    7.5872  -15.8836   20.8611 N   0  0  0  0  0  0  0  0  0  0  0  0
    7.8235  -15.5930   23.2589 C   0  0  0  0  0  0  0  0  0  0  0  0
    9.0625  -15.4492   23.0597 O   0  0  0  0  0  0  0  0  0  0  0  0
    5.7649  -11.8477   26.7003 C   0  0  0  0  0  0  0  0  0  0  0  0
    6.7180  -12.5496   25.7419 C   0  0  0  0  0  0  0  0  0  0  0  0
    7.2909  -13.7546   26.4880 C   0  0  2  0  0  0  0  0  0  0  0  0
    8.2003  -13.2088   27.5679 C   0  0  0  0  0  0  0  0  0  0  0  0
    8.1346  -14.6070   25.5662 C   0  0  2  0  0  0  0  0  0  0  0  0
    7.3360  -15.2412   24.5354 N   0  0  0  0  0  0  0  0  0  0  0  0
    8.7496  -15.6690   26.3741 C   0  0  0  0  0  0  0  0  0  0  0  0
    8.1594  -16.7575   26.5179 O   0  0  0  0  0  0  0  0  0  0  0  0
    9.9685  -15.4736   26.9721 O   0  0  0  0  0  0  0  0  0  0  0  0
  2  1  1  0
  3  2  1  0
  3  4  1  1
  5  3  1  0
  5  9  1  0
  6  5  2  0
  8 10  1  0
  8  9  1  0
  8  7  1  1
 10 17  1  0
 11 10  2  0
 13 12  1  0
 14 13  1  0
 14 15  1  1
 16 14  1  0
 16 17  1  6
 18 16  1  0
 19 18  2  0
 20 18  1  0
M  END
$$$$
