SAI.pdb
     RDKit          3D

 20 19  0  0  1  0  0  0  0  0999 V2000
   10.5884  -13.8116   18.1898 O   0  0  0  0  0  0  0  0  0  0  0  0
    9.7968  -13.5803   19.2867 C   0  0  0  0  0  0  0  0  0  0  0  0
    8.3974  -14.1372   19.1267 C   0  0  2  0  0  0  0  0  0  0  0  0
    7.5673  -13.2369   18.3547 N   0  0  0  0  0  0  0  0  0  0  0  0
    7.7841  -14.4688   20.4338 C   0  0  0  0  0  0  0  0  0  0  0  0
    7.3159  -13.5575   21.1937 O   0  0  0  0  0  0  0  0  0  0  0  0
    6.8616  -17.5878   22.2747 C   0  0  0  0  0  0  0  0  0  0  0  0
    7.0212  -16.0836   22.1858 C   0  0  2  0  0  0  0  0  0  0  0  0
    7.6758  -15.7973   20.9241 N   0  0  0  0  0  0  0  0  0  0  0  0
    7.8277  -15.6277   23.3403 C   0  0  0  0  0  0  0  0  0  0  0  0
    9.0872  -15.6466   23.2470 O   0  0  0  0  0  0  0  0  0  0  0  0
    5.8299  -11.6634   26.4860 C   0  0  0  0  0  0  0  0  0  0  0  0
    6.7851  -12.4764   25.6222 C   0  0  0  0  0  0  0  0  0  0  0  0
    7.2789  -13.6409   26.4807 C   0  0  2  0  0  0  0  0  0  0  0  0
    8.2170  -13.0556   27.5144 C   0  0  0  0  0  0  0  0  0  0  0  0
    8.0707  -14.6252   25.6487 C   0  0  2  0  0  0  0  0  0  0  0  0
    7.2836  -15.1659   24.5574 N   0  0  0  0  0  0  0  0  0  0  0  0
    8.4556  -15.7432   26.5208 C   0  0  0  0  0  0  0  0  0  0  0  0
    9.4148  -15.6135   27.3063 O   0  0  0  0  0  0  0  0  0  0  0  0
    7.7683  -16.9295   26.4787 O   0  0  0  0  0  0  0  0  0  0  0  0
  2  1  1  0
  3  2  1  0
  3  4  1  1
  5  3  1  0
  5  9  1  0
  6  5  2  0
  8 10  1  0
  8  9  1  0
  8  7  1  1
 10 17  1  0
 11 10  2  0
 13 12  1  0
 14 13  1  0
 14 15  1  1
 16 14  1  0
 16 17  1  6
 18 16  1  0
 19 18  2  0
 20 18  1  0
M  END
$$$$
