SAI.pdb
     RDKit          3D

 20 19  0  0  1  0  0  0  0  0999 V2000
    6.8431  -16.8775   20.7575 O   0  0  0  0  0  0  0  0  0  0  0  0
    6.1299  -15.7084   20.6676 C   0  0  0  0  0  0  0  0  0  0  0  0
    7.0068  -14.4781   20.7748 C   0  0  2  0  0  0  0  0  0  0  0  0
    7.9342  -14.4055   19.6657 N   0  0  0  0  0  0  0  0  0  0  0  0
    7.7025  -14.4101   22.0809 C   0  0  0  0  0  0  0  0  0  0  0  0
    8.9147  -14.7878   22.2039 O   0  0  0  0  0  0  0  0  0  0  0  0
    6.8379  -13.3446   25.5651 C   0  0  0  0  0  0  0  0  0  0  0  0
    7.7750  -13.9481   24.5386 C   0  0  2  0  0  0  0  0  0  0  0  0
    7.0825  -13.9297   23.2649 N   0  0  0  0  0  0  0  0  0  0  0  0
    8.1115  -15.3259   24.9624 C   0  0  0  0  0  0  0  0  0  0  0  0
    7.2921  -16.2548   24.7154 O   0  0  0  0  0  0  0  0  0  0  0  0
   10.7920  -19.7693   24.4278 C   0  0  0  0  0  0  0  0  0  0  0  0
   11.3994  -18.8464   25.4761 C   0  0  0  0  0  0  0  0  0  0  0  0
   10.9539  -17.4258   25.1292 C   0  0  2  0  0  0  0  0  0  0  0  0
   12.0641  -16.4981   25.5743 C   0  0  0  0  0  0  0  0  0  0  0  0
    9.7068  -17.0498   25.8982 C   0  0  2  0  0  0  0  0  0  0  0  0
    9.3003  -15.6834   25.6331 N   0  0  0  0  0  0  0  0  0  0  0  0
   10.0134  -17.1565   27.3311 C   0  0  0  0  0  0  0  0  0  0  0  0
   10.1733  -18.2795   27.8479 O   0  0  0  0  0  0  0  0  0  0  0  0
   10.1255  -16.0304   28.1064 O   0  0  0  0  0  0  0  0  0  0  0  0
  2  1  1  0
  3  2  1  0
  3  4  1  6
  5  3  1  0
  5  9  1  0
  6  5  2  0
  8 10  1  0
  8  9  1  0
  8  7  1  1
 10 17  1  0
 11 10  2  0
 13 12  1  0
 14 13  1  0
 14 15  1  1
 16 14  1  0
 16 17  1  1
 18 16  1  0
 19 18  2  0
 20 18  1  0
M  END
$$$$
