SAI.pdb
     RDKit          3D

 20 19  0  0  1  0  0  0  0  0999 V2000
    9.3695  -16.3475   15.5027 O   0  0  0  0  0  0  0  0  0  0  0  0
   10.1638  -15.2890   15.1392 C   0  0  0  0  0  0  0  0  0  0  0  0
   11.5663  -15.7139   14.7565 C   0  0  2  0  0  0  0  0  0  0  0  0
   11.5488  -16.5552   13.5786 N   0  0  0  0  0  0  0  0  0  0  0  0
   12.2729  -16.3613   15.8862 C   0  0  0  0  0  0  0  0  0  0  0  0
   12.1248  -17.6040   16.1326 O   0  0  0  0  0  0  0  0  0  0  0  0
   15.3458  -16.3130   17.4155 C   0  0  0  0  0  0  0  0  0  0  0  0
   13.8812  -16.3462   17.8025 C   0  0  2  0  0  0  0  0  0  0  0  0
   13.1475  -15.6592   16.7574 N   0  0  0  0  0  0  0  0  0  0  0  0
   13.7265  -15.6778   19.1142 C   0  0  0  0  0  0  0  0  0  0  0  0
   13.5047  -14.4346   19.1402 O   0  0  0  0  0  0  0  0  0  0  0  0
   10.7628  -15.7391   24.1536 C   0  0  0  0  0  0  0  0  0  0  0  0
   12.1548  -15.3896   23.6442 C   0  0  0  0  0  0  0  0  0  0  0  0
   12.3193  -16.0810   22.2907 C   0  0  2  0  0  0  0  0  0  0  0  0
   12.3724  -17.5690   22.5631 C   0  0  0  0  0  0  0  0  0  0  0  0
   13.6271  -15.6873   21.6406 C   0  0  2  0  0  0  0  0  0  0  0  0
   13.8102  -16.3386   20.3580 N   0  0  0  0  0  0  0  0  0  0  0  0
   14.7171  -16.1228   22.5243 C   0  0  0  0  0  0  0  0  0  0  0  0
   15.2982  -17.2034   22.3040 O   0  0  0  0  0  0  0  0  0  0  0  0
   15.1015  -15.3504   23.5906 O   0  0  0  0  0  0  0  0  0  0  0  0
  2  1  1  0
  3  2  1  0
  3  4  1  6
  5  3  1  0
  5  9  1  0
  6  5  2  0
  8 10  1  0
  8  9  1  0
  8  7  1  6
 10 17  1  0
 11 10  2  0
 13 12  1  0
 14 13  1  0
 14 15  1  1
 16 14  1  0
 16 17  1  6
 18 16  1  0
 19 18  2  0
 20 18  1  0
M  END
$$$$
