SAI.pdb
     RDKit          3D

 20 19  0  0  1  0  0  0  0  0999 V2000
    9.6112  -15.8841   20.1099 O   0  0  0  0  0  0  0  0  0  0  0  0
    9.1826  -17.1842   20.0126 C   0  0  0  0  0  0  0  0  0  0  0  0
    7.6776  -17.3143   20.1235 C   0  0  2  0  0  0  0  0  0  0  0  0
    7.0137  -16.5199   19.1118 N   0  0  0  0  0  0  0  0  0  0  0  0
    7.1958  -16.9874   21.4857 C   0  0  0  0  0  0  0  0  0  0  0  0
    6.6620  -15.8580   21.7439 O   0  0  0  0  0  0  0  0  0  0  0  0
    6.8222  -18.7782   24.7425 C   0  0  0  0  0  0  0  0  0  0  0  0
    6.8421  -17.5152   23.9055 C   0  0  2  0  0  0  0  0  0  0  0  0
    7.2918  -17.8891   22.5787 N   0  0  0  0  0  0  0  0  0  0  0  0
    7.7580  -16.5431   24.5435 C   0  0  0  0  0  0  0  0  0  0  0  0
    8.9607  -16.4993   24.1600 O   0  0  0  0  0  0  0  0  0  0  0  0
    5.8135  -11.7388   26.3557 C   0  0  0  0  0  0  0  0  0  0  0  0
    6.7450  -12.7132   25.6469 C   0  0  0  0  0  0  0  0  0  0  0  0
    7.4853  -13.4914   26.7348 C   0  0  2  0  0  0  0  0  0  0  0  0
    8.4869  -12.5378   27.3502 C   0  0  0  0  0  0  0  0  0  0  0  0
    8.2590  -14.6463   26.1385 C   0  0  2  0  0  0  0  0  0  0  0  0
    7.3797  -15.6469   25.5655 N   0  0  0  0  0  0  0  0  0  0  0  0
    9.0191  -15.2847   27.2217 C   0  0  0  0  0  0  0  0  0  0  0  0
   10.1255  -14.8197   27.5588 O   0  0  0  0  0  0  0  0  0  0  0  0
    8.5220  -16.3888   27.8662 O   0  0  0  0  0  0  0  0  0  0  0  0
  2  1  1  0
  3  2  1  0
  3  4  1  6
  5  3  1  0
  5  9  1  0
  6  5  2  0
  8 10  1  0
  8  9  1  0
  8  7  1  1
 10 17  1  0
 11 10  2  0
 13 12  1  0
 14 13  1  0
 14 15  1  6
 16 14  1  0
 16 17  1  1
 18 16  1  0
 19 18  2  0
 20 18  1  0
M  END
$$$$
