SAI.pdb
     RDKit          3D

 20 19  0  0  1  0  0  0  0  0999 V2000
   11.0380  -16.7304   19.7751 O   0  0  0  0  0  0  0  0  0  0  0  0
   10.2989  -17.7926   20.2322 C   0  0  0  0  0  0  0  0  0  0  0  0
    8.8148  -17.6241   19.9815 C   0  0  2  0  0  0  0  0  0  0  0  0
    8.5766  -16.7436   18.8575 N   0  0  0  0  0  0  0  0  0  0  0  0
    8.0989  -17.1725   21.1973 C   0  0  0  0  0  0  0  0  0  0  0  0
    7.6439  -15.9847   21.2928 O   0  0  0  0  0  0  0  0  0  0  0  0
    6.7838  -18.7416   24.3139 C   0  0  0  0  0  0  0  0  0  0  0  0
    7.1729  -17.5282   23.4941 C   0  0  2  0  0  0  0  0  0  0  0  0
    7.8727  -18.0122   22.3201 N   0  0  0  0  0  0  0  0  0  0  0  0
    8.0315  -16.6550   24.3256 C   0  0  0  0  0  0  0  0  0  0  0  0
    9.2830  -16.6987   24.1609 O   0  0  0  0  0  0  0  0  0  0  0  0
    5.8274  -12.0927   26.3706 C   0  0  0  0  0  0  0  0  0  0  0  0
    6.9404  -12.8663   25.6760 C   0  0  0  0  0  0  0  0  0  0  0  0
    7.5821  -13.7661   26.7322 C   0  0  2  0  0  0  0  0  0  0  0  0
    8.5446  -12.9012   27.5175 C   0  0  0  0  0  0  0  0  0  0  0  0
    8.3850  -14.8710   26.0821 C   0  0  2  0  0  0  0  0  0  0  0  0
    7.5462  -15.7627   25.3050 N   0  0  0  0  0  0  0  0  0  0  0  0
    9.0096  -15.6614   27.1516 C   0  0  0  0  0  0  0  0  0  0  0  0
   10.0002  -15.2087   27.7579 O   0  0  0  0  0  0  0  0  0  0  0  0
    8.5121  -16.8942   27.4895 O   0  0  0  0  0  0  0  0  0  0  0  0
  2  1  1  0
  3  2  1  0
  3  4  1  6
  5  3  1  0
  5  9  1  0
  6  5  2  0
  8 10  1  0
  8  9  1  0
  8  7  1  1
 10 17  1  0
 11 10  2  0
 13 12  1  0
 14 13  1  0
 14 15  1  1
 16 14  1  0
 16 17  1  1
 18 16  1  0
 19 18  2  0
 20 18  1  0
M  END
$$$$
