SAI.pdb
     RDKit          3D

 20 19  0  0  1  0  0  0  0  0999 V2000
    9.9199  -16.4329   20.2231 O   0  0  0  0  0  0  0  0  0  0  0  0
    9.2930  -17.5948   19.8484 C   0  0  0  0  0  0  0  0  0  0  0  0
    7.7831  -17.4770   19.8653 C   0  0  2  0  0  0  0  0  0  0  0  0
    7.3245  -16.5570   18.8462 N   0  0  0  0  0  0  0  0  0  0  0  0
    7.2745  -17.1113   21.2078 C   0  0  0  0  0  0  0  0  0  0  0  0
    6.7510  -15.9689   21.4270 O   0  0  0  0  0  0  0  0  0  0  0  0
    6.7430  -18.8328   24.4758 C   0  0  0  0  0  0  0  0  0  0  0  0
    6.8449  -17.5816   23.6272 C   0  0  2  0  0  0  0  0  0  0  0  0
    7.3321  -17.9882   22.3234 N   0  0  0  0  0  0  0  0  0  0  0  0
    7.7718  -16.6377   24.2913 C   0  0  0  0  0  0  0  0  0  0  0  0
    8.9688  -16.5795   23.8923 O   0  0  0  0  0  0  0  0  0  0  0  0
    5.8388  -11.9793   26.5687 C   0  0  0  0  0  0  0  0  0  0  0  0
    6.7392  -12.8744   25.7274 C   0  0  0  0  0  0  0  0  0  0  0  0
    7.5438  -13.7359   26.7008 C   0  0  2  0  0  0  0  0  0  0  0  0
    8.5616  -12.8249   27.3530 C   0  0  0  0  0  0  0  0  0  0  0  0
    8.3027  -14.8163   25.9626 C   0  0  2  0  0  0  0  0  0  0  0  0
    7.4101  -15.7841   25.3549 N   0  0  0  0  0  0  0  0  0  0  0  0
    9.1366  -15.5278   26.9409 C   0  0  0  0  0  0  0  0  0  0  0  0
   10.1879  -15.0024   27.3563 O   0  0  0  0  0  0  0  0  0  0  0  0
    8.7686  -16.7662   27.4017 O   0  0  0  0  0  0  0  0  0  0  0  0
  2  1  1  0
  3  2  1  0
  3  4  1  6
  5  3  1  0
  5  9  1  0
  6  5  2  0
  8 10  1  0
  8  9  1  0
  8  7  1  1
 10 17  1  0
 11 10  2  0
 13 12  1  0
 14 13  1  0
 14 15  1  6
 16 14  1  0
 16 17  1  1
 18 16  1  0
 19 18  2  0
 20 18  1  0
M  END
$$$$
