SAI.pdb
     RDKit          3D

 20 19  0  0  1  0  0  0  0  0999 V2000
   10.1883  -13.3708   19.6286 O   0  0  0  0  0  0  0  0  0  0  0  0
    9.6971  -14.3571   18.8104 C   0  0  0  0  0  0  0  0  0  0  0  0
    8.1845  -14.4332   18.8283 C   0  0  2  0  0  0  0  0  0  0  0  0
    7.5994  -13.2350   18.2648 N   0  0  0  0  0  0  0  0  0  0  0  0
    7.6636  -14.7155   20.1861 C   0  0  0  0  0  0  0  0  0  0  0  0
    7.1400  -13.7948   20.8970 O   0  0  0  0  0  0  0  0  0  0  0  0
    7.2309  -17.7406   22.3460 C   0  0  0  0  0  0  0  0  0  0  0  0
    7.1377  -16.2500   22.0908 C   0  0  2  0  0  0  0  0  0  0  0  0
    7.7090  -16.0042   20.7810 N   0  0  0  0  0  0  0  0  0  0  0  0
    7.8819  -15.5432   23.1574 C   0  0  0  0  0  0  0  0  0  0  0  0
    9.1036  -15.2803   22.9741 O   0  0  0  0  0  0  0  0  0  0  0  0
    6.8216  -11.2097   27.2854 C   0  0  0  0  0  0  0  0  0  0  0  0
    7.7831  -12.3263   26.9002 C   0  0  0  0  0  0  0  0  0  0  0  0
    7.0794  -13.1723   25.8390 C   0  0  2  0  0  0  0  0  0  0  0  0
    5.8910  -13.8221   26.5146 C   0  0  0  0  0  0  0  0  0  0  0  0
    7.9856  -14.2775   25.3437 C   0  0  2  0  0  0  0  0  0  0  0  0
    7.3171  -15.1348   24.3842 N   0  0  0  0  0  0  0  0  0  0  0  0
    8.3592  -15.1039   26.4996 C   0  0  0  0  0  0  0  0  0  0  0  0
    7.8356  -16.2246   26.6543 O   0  0  0  0  0  0  0  0  0  0  0  0
    9.2798  -14.6533   27.4111 O   0  0  0  0  0  0  0  0  0  0  0  0
  2  1  1  0
  3  2  1  0
  3  4  1  1
  5  3  1  0
  5  9  1  0
  6  5  2  0
  8 10  1  0
  8  9  1  0
  8  7  1  1
 10 17  1  0
 11 10  2  0
 13 12  1  0
 14 13  1  0
 14 15  1  1
 16 14  1  0
 16 17  1  6
 18 16  1  0
 19 18  2  0
 20 18  1  0
M  END
$$$$
