SWD.pdb
     RDKit          3D

 29 30  0  0  1  0  0  0  0  0999 V2000
    9.3318  -17.8289   19.8722 O   0  0  0  0  0  0  0  0  0  0  0  0
    7.9516  -17.6710   19.9111 C   0  0  0  0  0  0  0  0  0  0  0  0
    7.5925  -16.2773   20.4147 C   0  0  2  0  0  0  0  0  0  0  0  0
    7.9888  -15.3611   19.3398 N   0  0  0  0  0  0  0  0  0  0  0  0
    8.4390  -15.9338   21.6019 C   0  0  0  0  0  0  0  0  0  0  0  0
    9.4067  -15.1112   21.4184 O   0  0  0  0  0  0  0  0  0  0  0  0
    8.1770  -16.4892   22.8657 N   0  0  0  0  0  0  0  0  0  0  0  0
    9.0032  -16.1904   24.0344 C   0  0  1  0  0  0  0  0  0  0  0  0
    8.2328  -16.2846   25.2974 C   0  0  0  0  0  0  0  0  0  0  0  0
    7.1508  -15.3065   25.4848 C   0  0  0  0  0  0  0  0  0  0  0  0
    5.7995  -15.5078   25.4413 C   0  0  0  0  0  0  0  0  0  0  0  0
    5.2197  -14.3162   25.7060 N   0  0  0  0  0  0  0  0  0  0  0  0
    6.1432  -13.3728   25.9160 C   0  0  0  0  0  0  0  0  0  0  0  0
    6.0621  -12.0054   26.2335 C   0  0  0  0  0  0  0  0  0  0  0  0
    7.2507  -11.3277   26.3982 C   0  0  0  0  0  0  0  0  0  0  0  0
    8.4752  -11.9221   26.2663 C   0  0  0  0  0  0  0  0  0  0  0  0
    8.5411  -13.2648   25.9530 C   0  0  0  0  0  0  0  0  0  0  0  0
    7.3633  -13.9775   25.7805 C   0  0  0  0  0  0  0  0  0  0  0  0
   10.2485  -17.0222   23.9826 C   0  0  0  0  0  0  0  0  0  0  0  0
   10.3192  -18.1118   23.3740 O   0  0  0  0  0  0  0  0  0  0  0  0
   11.4319  -16.5847   24.6534 N   0  0  0  0  0  0  0  0  0  0  0  0
   12.6282  -17.3423   24.6283 C   0  0  1  0  0  0  0  0  0  0  0  0
   13.8590  -16.6105   24.2418 C   0  0  0  0  0  0  0  0  0  0  0  0
   14.4957  -16.9750   22.9860 C   0  0  0  0  0  0  0  0  0  0  0  0
   14.1721  -17.9099   22.2111 O   0  0  0  0  0  0  0  0  0  0  0  0
   12.9069  -17.8711   26.0356 C   0  0  0  0  0  0  0  0  0  0  0  0
   12.2378  -17.4930   27.0155 O   0  0  0  0  0  0  0  0  0  0  0  0
   15.5938  -16.2073   22.5799 O   0  0  0  0  0  0  0  0  0  0  0  0
   13.9270  -18.7813   26.1674 O   0  0  0  0  0  0  0  0  0  0  0  0
  2  1  1  0
  3  2  1  0
  3  4  1  6
  5  3  1  0
  5  6  2  0
  7  5  1  0
  8 19  1  0
  8  7  1  0
  9 10  1  0
  8  9  1  1
 10 18  1  0
 11 12  1  0
 11 10  2  0
 12 13  1  0
 13 18  2  0
 13 14  1  0
 14 15  2  0
 15 16  1  0
 17 16  2  0
 18 17  1  0
 19 21  1  0
 20 19  2  0
 22 21  1  0
 22 26  1  0
 23 24  1  0
 22 23  1  1
 24 25  2  0
 26 27  2  0
 26 29  1  0
 28 24  1  0
M  END
$$$$
