SWD.pdb
     RDKit          3D

 29 30  0  0  1  0  0  0  0  0999 V2000
    8.2371  -17.6119   20.2583 O   0  0  0  0  0  0  0  0  0  0  0  0
    7.7363  -16.3784   19.8595 C   0  0  0  0  0  0  0  0  0  0  0  0
    7.0762  -15.6695   21.0372 C   0  0  2  0  0  0  0  0  0  0  0  0
    6.6679  -14.3579   20.5226 N   0  0  0  0  0  0  0  0  0  0  0  0
    8.0924  -15.4106   22.1069 C   0  0  0  0  0  0  0  0  0  0  0  0
    8.8466  -14.3818   21.9678 O   0  0  0  0  0  0  0  0  0  0  0  0
    8.2082  -16.2608   23.2196 N   0  0  0  0  0  0  0  0  0  0  0  0
    9.2280  -16.0629   24.2484 C   0  0  1  0  0  0  0  0  0  0  0  0
    8.6372  -15.9717   25.6050 C   0  0  0  0  0  0  0  0  0  0  0  0
    7.4778  -15.0809   25.7612 C   0  0  0  0  0  0  0  0  0  0  0  0
    6.1482  -15.3836   25.6661 C   0  0  0  0  0  0  0  0  0  0  0  0
    5.4700  -14.2427   25.9200 N   0  0  0  0  0  0  0  0  0  0  0  0
    6.3106  -13.2345   26.1724 C   0  0  0  0  0  0  0  0  0  0  0  0
    6.1140  -11.8810   26.4990 C   0  0  0  0  0  0  0  0  0  0  0  0
    7.2408  -11.1170   26.7136 C   0  0  0  0  0  0  0  0  0  0  0  0
    8.5110  -11.6151   26.6215 C   0  0  0  0  0  0  0  0  0  0  0  0
    8.6904  -12.9452   26.2988 C   0  0  0  0  0  0  0  0  0  0  0  0
    7.5775  -13.7431   26.0766 C   0  0  0  0  0  0  0  0  0  0  0  0
   10.2982  -17.0992   24.0866 C   0  0  0  0  0  0  0  0  0  0  0  0
   10.0571  -18.2972   23.8239 O   0  0  0  0  0  0  0  0  0  0  0  0
   11.6731  -16.7401   24.2371 N   0  0  0  0  0  0  0  0  0  0  0  0
   12.7114  -17.6970   24.1277 C   0  0  1  0  0  0  0  0  0  0  0  0
   13.9147  -17.2742   23.3708 C   0  0  0  0  0  0  0  0  0  0  0  0
   14.3942  -15.9153   23.5679 C   0  0  0  0  0  0  0  0  0  0  0  0
   13.9671  -15.0690   24.3928 O   0  0  0  0  0  0  0  0  0  0  0  0
   13.2223  -18.0330   25.5291 C   0  0  0  0  0  0  0  0  0  0  0  0
   14.0959  -18.9017   25.7106 O   0  0  0  0  0  0  0  0  0  0  0  0
   15.4507  -15.4864   22.7557 O   0  0  0  0  0  0  0  0  0  0  0  0
   12.6740  -17.3326   26.5756 O   0  0  0  0  0  0  0  0  0  0  0  0
  2  1  1  0
  3  2  1  0
  3  4  1  6
  5  3  1  0
  5  6  2  0
  7  5  1  0
  8 19  1  0
  8  7  1  0
  9 10  1  0
  8  9  1  1
 10 18  1  0
 11 12  1  0
 11 10  2  0
 12 13  1  0
 13 18  2  0
 13 14  1  0
 14 15  2  0
 15 16  1  0
 17 16  2  0
 18 17  1  0
 19 21  1  0
 20 19  2  0
 22 21  1  0
 22 26  1  0
 23 24  1  0
 22 23  1  6
 24 25  2  0
 26 27  2  0
 26 29  1  0
 28 24  1  0
M  END
$$$$
