SWD.pdb
     RDKit          3D

 29 30  0  0  1  0  0  0  0  0999 V2000
   10.6021  -18.7258   18.1417 O   0  0  0  0  0  0  0  0  0  0  0  0
   10.6733  -18.0886   19.3747 C   0  0  0  0  0  0  0  0  0  0  0  0
   10.3835  -16.5997   19.2183 C   0  0  2  0  0  0  0  0  0  0  0  0
   11.6187  -16.0171   18.6828 N   0  0  0  0  0  0  0  0  0  0  0  0
   10.1691  -15.9810   20.5656 C   0  0  0  0  0  0  0  0  0  0  0  0
   11.1963  -15.4953   21.1621 O   0  0  0  0  0  0  0  0  0  0  0  0
    8.8909  -15.9322   21.1472 N   0  0  0  0  0  0  0  0  0  0  0  0
    8.6867  -15.5752   22.5503 C   0  0  1  0  0  0  0  0  0  0  0  0
    7.2881  -15.1647   22.8204 C   0  0  0  0  0  0  0  0  0  0  0  0
    6.9305  -14.9257   24.2266 C   0  0  0  0  0  0  0  0  0  0  0  0
    6.4627  -15.8155   25.1528 C   0  0  0  0  0  0  0  0  0  0  0  0
    6.3126  -15.1315   26.3087 N   0  0  0  0  0  0  0  0  0  0  0  0
    6.6656  -13.8515   26.1544 C   0  0  0  0  0  0  0  0  0  0  0  0
    6.7053  -12.7551   27.0340 C   0  0  0  0  0  0  0  0  0  0  0  0
    7.1508  -11.5556   26.5222 C   0  0  0  0  0  0  0  0  0  0  0  0
    7.5448  -11.3971   25.2223 C   0  0  0  0  0  0  0  0  0  0  0  0
    7.4998  -12.4810   24.3687 C   0  0  0  0  0  0  0  0  0  0  0  0
    7.0565  -13.7038   24.8513 C   0  0  0  0  0  0  0  0  0  0  0  0
    9.2073  -16.6788   23.4199 C   0  0  0  0  0  0  0  0  0  0  0  0
    8.9999  -17.8894   23.1876 O   0  0  0  0  0  0  0  0  0  0  0  0
    9.9785  -16.3724   24.5832 N   0  0  0  0  0  0  0  0  0  0  0  0
   10.6928  -17.3702   25.2902 C   0  0  1  0  0  0  0  0  0  0  0  0
   12.1712  -17.3162   25.1850 C   0  0  0  0  0  0  0  0  0  0  0  0
   12.9366  -18.3298   25.8937 C   0  0  0  0  0  0  0  0  0  0  0  0
   12.6637  -19.5514   26.0043 O   0  0  0  0  0  0  0  0  0  0  0  0
   10.3960  -17.2252   26.7831 C   0  0  0  0  0  0  0  0  0  0  0  0
   10.8725  -18.0152   27.6195 O   0  0  0  0  0  0  0  0  0  0  0  0
   14.1130  -17.9143   26.5288 O   0  0  0  0  0  0  0  0  0  0  0  0
    9.5816  -16.1844   27.1571 O   0  0  0  0  0  0  0  0  0  0  0  0
  2  1  1  0
  3  2  1  0
  3  4  1  1
  5  3  1  0
  5  6  2  0
  7  5  1  0
  8 19  1  0
  8  7  1  0
  9 10  1  0
  8  9  1  6
 10 18  1  0
 11 12  1  0
 11 10  2  0
 12 13  1  0
 13 18  2  0
 13 14  1  0
 14 15  2  0
 15 16  1  0
 17 16  2  0
 18 17  1  0
 19 21  1  0
 20 19  2  0
 22 21  1  0
 22 26  1  0
 23 24  1  0
 22 23  1  1
 24 25  2  0
 26 27  2  0
 26 29  1  0
 28 24  1  0
M  END
$$$$
