SWD.pdb
     RDKit          3D

 29 30  0  0  1  0  0  0  0  0999 V2000
   11.3784  -18.6424   20.3441 O   0  0  0  0  0  0  0  0  0  0  0  0
   10.3407  -18.3349   19.4722 C   0  0  0  0  0  0  0  0  0  0  0  0
   10.2006  -16.8233   19.3287 C   0  0  2  0  0  0  0  0  0  0  0  0
   11.4745  -16.3665   18.7624 N   0  0  0  0  0  0  0  0  0  0  0  0
   10.0860  -16.1942   20.6834 C   0  0  0  0  0  0  0  0  0  0  0  0
   11.1522  -15.6957   21.1946 O   0  0  0  0  0  0  0  0  0  0  0  0
    8.8562  -16.1496   21.3616 N   0  0  0  0  0  0  0  0  0  0  0  0
    8.7388  -15.6468   22.7295 C   0  0  1  0  0  0  0  0  0  0  0  0
    7.3767  -15.1382   23.0187 C   0  0  0  0  0  0  0  0  0  0  0  0
    7.0549  -14.8797   24.4301 C   0  0  0  0  0  0  0  0  0  0  0  0
    6.7343  -15.7754   25.4116 C   0  0  0  0  0  0  0  0  0  0  0  0
    6.5556  -15.0627   26.5458 N   0  0  0  0  0  0  0  0  0  0  0  0
    6.7502  -13.7587   26.3251 C   0  0  0  0  0  0  0  0  0  0  0  0
    6.6999  -12.6272   27.1583 C   0  0  0  0  0  0  0  0  0  0  0  0
    6.9803  -11.4084   26.5794 C   0  0  0  0  0  0  0  0  0  0  0  0
    7.2966  -11.2635   25.2569 C   0  0  0  0  0  0  0  0  0  0  0  0
    7.3413  -12.3821   24.4494 C   0  0  0  0  0  0  0  0  0  0  0  0
    7.0646  -13.6251   24.9999 C   0  0  0  0  0  0  0  0  0  0  0  0
    9.2476  -16.6862   23.6814 C   0  0  0  0  0  0  0  0  0  0  0  0
    8.9029  -17.8868   23.6326 O   0  0  0  0  0  0  0  0  0  0  0  0
   10.1693  -16.3254   24.7120 N   0  0  0  0  0  0  0  0  0  0  0  0
   10.7550  -17.2941   25.5631 C   0  0  1  0  0  0  0  0  0  0  0  0
   12.2234  -17.2002   25.7493 C   0  0  0  0  0  0  0  0  0  0  0  0
   13.0463  -17.0373   24.5611 C   0  0  0  0  0  0  0  0  0  0  0  0
   13.8370  -16.0947   24.3056 O   0  0  0  0  0  0  0  0  0  0  0  0
   10.1668  -17.1386   26.9658 C   0  0  0  0  0  0  0  0  0  0  0  0
   10.4682  -17.9211   27.8865 O   0  0  0  0  0  0  0  0  0  0  0  0
   12.9600  -18.0348   23.5825 O   0  0  0  0  0  0  0  0  0  0  0  0
    9.2930  -16.0973   27.1621 O   0  0  0  0  0  0  0  0  0  0  0  0
  2  1  1  0
  3  2  1  0
  3  4  1  1
  5  3  1  0
  5  6  2  0
  7  5  1  0
  8 19  1  0
  8  7  1  0
  9 10  1  0
  8  9  1  1
 10 18  1  0
 11 12  1  0
 11 10  2  0
 12 13  1  0
 13 18  2  0
 13 14  1  0
 14 15  2  0
 15 16  1  0
 17 16  2  0
 18 17  1  0
 19 21  1  0
 20 19  2  0
 22 21  1  0
 22 26  1  0
 23 24  1  0
 22 23  1  1
 24 25  2  0
 26 27  2  0
 26 29  1  0
 28 24  1  0
M  END
$$$$
