SWD.pdb
     RDKit          3D

 29 30  0  0  1  0  0  0  0  0999 V2000
    8.5665  -16.9036   19.5312 O   0  0  0  0  0  0  0  0  0  0  0  0
    7.3168  -17.0929   20.1090 C   0  0  0  0  0  0  0  0  0  0  0  0
    6.9332  -15.8796   20.9492 C   0  0  2  0  0  0  0  0  0  0  0  0
    6.9488  -14.7433   20.0216 N   0  0  0  0  0  0  0  0  0  0  0  0
    7.9976  -15.6125   21.9689 C   0  0  0  0  0  0  0  0  0  0  0  0
    8.8118  -14.6490   21.7336 O   0  0  0  0  0  0  0  0  0  0  0  0
    8.0937  -16.3861   23.1380 N   0  0  0  0  0  0  0  0  0  0  0  0
    9.1101  -16.1330   24.1581 C   0  0  1  0  0  0  0  0  0  0  0  0
    8.5247  -16.0575   25.5179 C   0  0  0  0  0  0  0  0  0  0  0  0
    7.4217  -15.1041   25.7095 C   0  0  0  0  0  0  0  0  0  0  0  0
    6.0752  -15.3305   25.6453 C   0  0  0  0  0  0  0  0  0  0  0  0
    5.4691  -14.1554   25.9243 N   0  0  0  0  0  0  0  0  0  0  0  0
    6.3714  -13.1984   26.1630 C   0  0  0  0  0  0  0  0  0  0  0  0
    6.2598  -11.8389   26.5043 C   0  0  0  0  0  0  0  0  0  0  0  0
    7.4329  -11.1416   26.6962 C   0  0  0  0  0  0  0  0  0  0  0  0
    8.6702  -11.7098   26.5689 C   0  0  0  0  0  0  0  0  0  0  0  0
    8.7661  -13.0450   26.2322 C   0  0  0  0  0  0  0  0  0  0  0  0
    7.6047  -13.7769   26.0319 C   0  0  0  0  0  0  0  0  0  0  0  0
   10.2256  -17.1205   23.9972 C   0  0  0  0  0  0  0  0  0  0  0  0
   10.0471  -18.3006   23.6257 O   0  0  0  0  0  0  0  0  0  0  0  0
   11.5723  -16.7335   24.2773 N   0  0  0  0  0  0  0  0  0  0  0  0
   12.6398  -17.6634   24.2411 C   0  0  1  0  0  0  0  0  0  0  0  0
   13.9777  -17.1126   23.9153 C   0  0  0  0  0  0  0  0  0  0  0  0
   14.0922  -16.2681   22.7367 C   0  0  0  0  0  0  0  0  0  0  0  0
   13.5340  -16.4347   21.6232 O   0  0  0  0  0  0  0  0  0  0  0  0
   12.7957  -18.2898   25.6272 C   0  0  0  0  0  0  0  0  0  0  0  0
   12.1144  -17.9024   26.5949 O   0  0  0  0  0  0  0  0  0  0  0  0
   14.9120  -15.1377   22.8378 O   0  0  0  0  0  0  0  0  0  0  0  0
   13.7199  -19.2978   25.7539 O   0  0  0  0  0  0  0  0  0  0  0  0
  2  1  1  0
  3  2  1  0
  3  4  1  6
  5  3  1  0
  5  6  2  0
  7  5  1  0
  8 19  1  0
  8  7  1  0
  9 10  1  0
  8  9  1  1
 10 18  1  0
 11 12  1  0
 11 10  2  0
 12 13  1  0
 13 18  2  0
 13 14  1  0
 14 15  2  0
 15 16  1  0
 17 16  2  0
 18 17  1  0
 19 21  1  0
 20 19  2  0
 22 21  1  0
 22 26  1  0
 23 24  1  0
 22 23  1  1
 24 25  2  0
 26 27  2  0
 26 29  1  0
 28 24  1  0
M  END
$$$$
