SWD.pdb
     RDKit          3D

 29 30  0  0  1  0  0  0  0  0999 V2000
    8.8829  -16.3158   19.4031 O   0  0  0  0  0  0  0  0  0  0  0  0
    7.6259  -16.5092   19.9635 C   0  0  0  0  0  0  0  0  0  0  0  0
    7.2083  -15.2800   20.7633 C   0  0  2  0  0  0  0  0  0  0  0  0
    7.3215  -14.1526   19.8316 N   0  0  0  0  0  0  0  0  0  0  0  0
    8.1980  -15.0285   21.8594 C   0  0  0  0  0  0  0  0  0  0  0  0
    9.0655  -14.1021   21.6701 O   0  0  0  0  0  0  0  0  0  0  0  0
    8.1704  -15.7768   23.0484 N   0  0  0  0  0  0  0  0  0  0  0  0
    9.2082  -15.6531   24.0708 C   0  0  1  0  0  0  0  0  0  0  0  0
    8.6456  -15.7035   25.4414 C   0  0  0  0  0  0  0  0  0  0  0  0
    7.4475  -14.8889   25.6933 C   0  0  0  0  0  0  0  0  0  0  0  0
    6.1365  -15.2756   25.6983 C   0  0  0  0  0  0  0  0  0  0  0  0
    5.4089  -14.1809   26.0125 N   0  0  0  0  0  0  0  0  0  0  0  0
    6.2010  -13.1219   26.2074 C   0  0  0  0  0  0  0  0  0  0  0  0
    5.9449  -11.7847   26.5586 C   0  0  0  0  0  0  0  0  0  0  0  0
    7.0342  -10.9510   26.6919 C   0  0  0  0  0  0  0  0  0  0  0  0
    8.3225  -11.3668   26.4986 C   0  0  0  0  0  0  0  0  0  0  0  0
    8.5603  -12.6818   26.1527 C   0  0  0  0  0  0  0  0  0  0  0  0
    7.4863  -13.5485   26.0104 C   0  0  0  0  0  0  0  0  0  0  0  0
   10.2962  -16.6446   23.7905 C   0  0  0  0  0  0  0  0  0  0  0  0
   10.0786  -17.7926   23.3465 O   0  0  0  0  0  0  0  0  0  0  0  0
   11.6613  -16.2998   24.0344 N   0  0  0  0  0  0  0  0  0  0  0  0
   12.7116  -17.2318   23.8502 C   0  0  1  0  0  0  0  0  0  0  0  0
   14.0278  -16.6676   23.4642 C   0  0  0  0  0  0  0  0  0  0  0  0
   14.1022  -15.9142   22.2223 C   0  0  0  0  0  0  0  0  0  0  0  0
   13.5000  -16.1576   21.1465 O   0  0  0  0  0  0  0  0  0  0  0  0
   12.9639  -17.9584   25.1716 C   0  0  0  0  0  0  0  0  0  0  0  0
   13.8116  -18.8661   25.2618 O   0  0  0  0  0  0  0  0  0  0  0  0
   14.9332  -14.7877   22.2072 O   0  0  0  0  0  0  0  0  0  0  0  0
   12.2136  -17.5631   26.2520 O   0  0  0  0  0  0  0  0  0  0  0  0
  2  1  1  0
  3  2  1  0
  3  4  1  6
  5  3  1  0
  5  6  2  0
  7  5  1  0
  8 19  1  0
  8  7  1  0
  9 10  1  0
  8  9  1  1
 10 18  1  0
 11 12  1  0
 11 10  2  0
 12 13  1  0
 13 18  2  0
 13 14  1  0
 14 15  2  0
 15 16  1  0
 17 16  2  0
 18 17  1  0
 19 21  1  0
 20 19  2  0
 22 21  1  0
 22 26  1  0
 23 24  1  0
 22 23  1  1
 24 25  2  0
 26 27  2  0
 26 29  1  0
 28 24  1  0
M  END
$$$$
