SWD.pdb
     RDKit          3D

 29 30  0  0  1  0  0  0  0  0999 V2000
    9.1265  -15.0534   18.0673 O   0  0  0  0  0  0  0  0  0  0  0  0
   10.3988  -15.5976   18.1961 C   0  0  0  0  0  0  0  0  0  0  0  0
   10.4129  -16.6558   19.2938 C   0  0  2  0  0  0  0  0  0  0  0  0
    9.2406  -17.4992   19.0363 N   0  0  0  0  0  0  0  0  0  0  0  0
   10.1879  -16.0076   20.6255 C   0  0  0  0  0  0  0  0  0  0  0  0
   11.0729  -15.1722   21.0322 O   0  0  0  0  0  0  0  0  0  0  0  0
    9.0485  -16.3023   21.3932 N   0  0  0  0  0  0  0  0  0  0  0  0
    8.8486  -15.7526   22.7331 C   0  0  1  0  0  0  0  0  0  0  0  0
    7.4387  -15.3585   22.9666 C   0  0  0  0  0  0  0  0  0  0  0  0
    7.0661  -15.0297   24.3506 C   0  0  0  0  0  0  0  0  0  0  0  0
    6.6060  -15.8618   25.3326 C   0  0  0  0  0  0  0  0  0  0  0  0
    6.4352  -15.1028   26.4376 N   0  0  0  0  0  0  0  0  0  0  0  0
    6.7678  -13.8304   26.1981 C   0  0  0  0  0  0  0  0  0  0  0  0
    6.7821  -12.6757   27.0004 C   0  0  0  0  0  0  0  0  0  0  0  0
    7.2114  -11.5067   26.4103 C   0  0  0  0  0  0  0  0  0  0  0  0
    7.6130  -11.4310   25.1053 C   0  0  0  0  0  0  0  0  0  0  0  0
    7.5930  -12.5715   24.3280 C   0  0  0  0  0  0  0  0  0  0  0  0
    7.1665  -13.7659   24.8906 C   0  0  0  0  0  0  0  0  0  0  0  0
    9.4228  -16.6982   23.7439 C   0  0  0  0  0  0  0  0  0  0  0  0
    9.1691  -17.9221   23.7581 O   0  0  0  0  0  0  0  0  0  0  0  0
   10.3036  -16.2144   24.7597 N   0  0  0  0  0  0  0  0  0  0  0  0
   10.9919  -17.0925   25.6320 C   0  0  1  0  0  0  0  0  0  0  0  0
   12.4331  -16.8115   25.8412 C   0  0  0  0  0  0  0  0  0  0  0  0
   13.2832  -16.7286   24.6641 C   0  0  0  0  0  0  0  0  0  0  0  0
   13.9474  -15.7362   24.2725 O   0  0  0  0  0  0  0  0  0  0  0  0
   10.3638  -16.9988   27.0230 C   0  0  0  0  0  0  0  0  0  0  0  0
    9.4777  -16.1625   27.2802 O   0  0  0  0  0  0  0  0  0  0  0  0
   13.3845  -17.8751   23.8670 O   0  0  0  0  0  0  0  0  0  0  0  0
   10.8214  -17.8792   27.9727 O   0  0  0  0  0  0  0  0  0  0  0  0
  2  1  1  0
  3  2  1  0
  3  4  1  6
  5  3  1  0
  5  6  2  0
  7  5  1  0
  8 19  1  0
  8  7  1  0
  9 10  1  0
  8  9  1  1
 10 18  1  0
 11 12  1  0
 11 10  2  0
 12 13  1  0
 13 18  2  0
 13 14  1  0
 14 15  2  0
 15 16  1  0
 17 16  2  0
 18 17  1  0
 19 21  1  0
 20 19  2  0
 22 21  1  0
 22 26  1  0
 23 24  1  0
 22 23  1  1
 24 25  2  0
 26 27  2  0
 26 29  1  0
 28 24  1  0
M  END
$$$$
