SWD.pdb
     RDKit          3D

 29 30  0  0  1  0  0  0  0  0999 V2000
    8.7980  -16.8467   19.5339 O   0  0  0  0  0  0  0  0  0  0  0  0
    7.5083  -16.8924   20.0499 C   0  0  0  0  0  0  0  0  0  0  0  0
    7.2044  -15.6169   20.8283 C   0  0  2  0  0  0  0  0  0  0  0  0
    7.3618  -14.5245   19.8619 N   0  0  0  0  0  0  0  0  0  0  0  0
    8.2469  -15.4066   21.8833 C   0  0  0  0  0  0  0  0  0  0  0  0
    9.1966  -14.5850   21.6191 O   0  0  0  0  0  0  0  0  0  0  0  0
    8.1806  -16.0810   23.1142 N   0  0  0  0  0  0  0  0  0  0  0  0
    9.1959  -15.9092   24.1522 C   0  0  1  0  0  0  0  0  0  0  0  0
    8.6068  -15.9236   25.5125 C   0  0  0  0  0  0  0  0  0  0  0  0
    7.4189  -15.0835   25.7260 C   0  0  0  0  0  0  0  0  0  0  0  0
    6.1010  -15.4454   25.7050 C   0  0  0  0  0  0  0  0  0  0  0  0
    5.3873  -14.3333   25.9884 N   0  0  0  0  0  0  0  0  0  0  0  0
    6.1947  -13.2869   26.1887 C   0  0  0  0  0  0  0  0  0  0  0  0
    5.9560  -11.9407   26.5172 C   0  0  0  0  0  0  0  0  0  0  0  0
    7.0575  -11.1260   26.6657 C   0  0  0  0  0  0  0  0  0  0  0  0
    8.3418  -11.5684   26.5078 C   0  0  0  0  0  0  0  0  0  0  0  0
    8.5625  -12.8919   26.1840 C   0  0  0  0  0  0  0  0  0  0  0  0
    7.4759  -13.7400   26.0273 C   0  0  0  0  0  0  0  0  0  0  0  0
   10.3030  -16.8932   23.9256 C   0  0  0  0  0  0  0  0  0  0  0  0
   10.1332  -17.9982   23.3662 O   0  0  0  0  0  0  0  0  0  0  0  0
   11.6305  -16.5922   24.3602 N   0  0  0  0  0  0  0  0  0  0  0  0
   12.6707  -17.5517   24.3040 C   0  0  1  0  0  0  0  0  0  0  0  0
   14.0424  -17.0206   24.1143 C   0  0  0  0  0  0  0  0  0  0  0  0
   14.2304  -15.9737   23.1223 C   0  0  0  0  0  0  0  0  0  0  0  0
   13.7299  -15.9164   21.9711 O   0  0  0  0  0  0  0  0  0  0  0  0
   12.7181  -18.3064   25.6330 C   0  0  0  0  0  0  0  0  0  0  0  0
   12.0409  -17.9403   26.6119 O   0  0  0  0  0  0  0  0  0  0  0  0
   15.0590  -14.9015   23.4741 O   0  0  0  0  0  0  0  0  0  0  0  0
   13.5403  -19.4048   25.6957 O   0  0  0  0  0  0  0  0  0  0  0  0
  2  1  1  0
  3  2  1  0
  3  4  1  6
  5  3  1  0
  5  6  2  0
  7  5  1  0
  8 19  1  0
  8  7  1  0
  9 10  1  0
  8  9  1  1
 10 18  1  0
 11 12  1  0
 11 10  2  0
 12 13  1  0
 13 18  2  0
 13 14  1  0
 14 15  2  0
 15 16  1  0
 17 16  2  0
 18 17  1  0
 19 21  1  0
 20 19  2  0
 22 21  1  0
 22 26  1  0
 23 24  1  0
 22 23  1  1
 24 25  2  0
 26 27  2  0
 26 29  1  0
 28 24  1  0
M  END
$$$$
