SWD.pdb
     RDKit          3D

 29 30  0  0  1  0  0  0  0  0999 V2000
    8.2010  -18.1730   20.2733 O   0  0  0  0  0  0  0  0  0  0  0  0
    8.1548  -16.8435   19.8710 C   0  0  0  0  0  0  0  0  0  0  0  0
    7.4621  -15.9938   20.9309 C   0  0  2  0  0  0  0  0  0  0  0  0
    7.1751  -14.7128   20.2761 N   0  0  0  0  0  0  0  0  0  0  0  0
    8.4168  -15.6980   22.0467 C   0  0  0  0  0  0  0  0  0  0  0  0
    9.3114  -14.8025   21.8362 O   0  0  0  0  0  0  0  0  0  0  0  0
    8.3291  -16.3737   23.2756 N   0  0  0  0  0  0  0  0  0  0  0  0
    9.2709  -16.1305   24.3672 C   0  0  1  0  0  0  0  0  0  0  0  0
    8.5883  -16.0453   25.6804 C   0  0  0  0  0  0  0  0  0  0  0  0
    7.4162  -15.1607   25.7586 C   0  0  0  0  0  0  0  0  0  0  0  0
    6.0915  -15.4878   25.6778 C   0  0  0  0  0  0  0  0  0  0  0  0
    5.3966  -14.3398   25.8375 N   0  0  0  0  0  0  0  0  0  0  0  0
    6.2221  -13.3038   26.0168 C   0  0  0  0  0  0  0  0  0  0  0  0
    6.0055  -11.9319   26.2358 C   0  0  0  0  0  0  0  0  0  0  0  0
    7.1206  -11.1384   26.3984 C   0  0  0  0  0  0  0  0  0  0  0  0
    8.3978  -11.6251   26.3543 C   0  0  0  0  0  0  0  0  0  0  0  0
    8.5969  -12.9736   26.1373 C   0  0  0  0  0  0  0  0  0  0  0  0
    7.4961  -13.8013   25.9698 C   0  0  0  0  0  0  0  0  0  0  0  0
   10.3835  -17.1312   24.2898 C   0  0  0  0  0  0  0  0  0  0  0  0
   10.1914  -18.3607   24.1708 O   0  0  0  0  0  0  0  0  0  0  0  0
   11.7436  -16.6985   24.3566 N   0  0  0  0  0  0  0  0  0  0  0  0
   12.8223  -17.6152   24.3143 C   0  0  1  0  0  0  0  0  0  0  0  0
   14.1247  -17.0737   23.8559 C   0  0  0  0  0  0  0  0  0  0  0  0
   14.1458  -16.3331   22.6044 C   0  0  0  0  0  0  0  0  0  0  0  0
   13.4528  -16.5505   21.5789 O   0  0  0  0  0  0  0  0  0  0  0  0
   13.0843  -18.1344   25.7284 C   0  0  0  0  0  0  0  0  0  0  0  0
   13.9459  -19.0056   25.9508 O   0  0  0  0  0  0  0  0  0  0  0  0
   15.0320  -15.2528   22.5161 O   0  0  0  0  0  0  0  0  0  0  0  0
   12.3269  -17.5952   26.7393 O   0  0  0  0  0  0  0  0  0  0  0  0
  2  1  1  0
  3  2  1  0
  3  4  1  6
  5  3  1  0
  5  6  2  0
  7  5  1  0
  8 19  1  0
  8  7  1  0
  9 10  1  0
  8  9  1  1
 10 18  1  0
 11 12  1  0
 11 10  2  0
 12 13  1  0
 13 18  2  0
 13 14  1  0
 14 15  2  0
 15 16  1  0
 17 16  2  0
 18 17  1  0
 19 21  1  0
 20 19  2  0
 22 21  1  0
 22 26  1  0
 23 24  1  0
 22 23  1  1
 24 25  2  0
 26 27  2  0
 26 29  1  0
 28 24  1  0
M  END
$$$$
