SWD.pdb
     RDKit          3D

 29 30  0  0  1  0  0  0  0  0999 V2000
    8.2752  -18.0901   20.1831 O   0  0  0  0  0  0  0  0  0  0  0  0
    7.7516  -16.9213   19.6438 C   0  0  0  0  0  0  0  0  0  0  0  0
    7.1510  -16.0534   20.7444 C   0  0  2  0  0  0  0  0  0  0  0  0
    6.6783  -14.8401   20.0688 N   0  0  0  0  0  0  0  0  0  0  0  0
    8.2270  -15.6218   21.6931 C   0  0  0  0  0  0  0  0  0  0  0  0
    9.0367  -14.7106   21.2921 O   0  0  0  0  0  0  0  0  0  0  0  0
    8.3382  -16.1915   22.9727 N   0  0  0  0  0  0  0  0  0  0  0  0
    9.3386  -15.7438   23.9405 C   0  0  1  0  0  0  0  0  0  0  0  0
    8.8213  -15.7777   25.3293 C   0  0  0  0  0  0  0  0  0  0  0  0
    7.5974  -15.0075   25.5964 C   0  0  0  0  0  0  0  0  0  0  0  0
    6.3044  -15.4478   25.6480 C   0  0  0  0  0  0  0  0  0  0  0  0
    5.5404  -14.3770   25.9575 N   0  0  0  0  0  0  0  0  0  0  0  0
    6.2923  -13.2816   26.1050 C   0  0  0  0  0  0  0  0  0  0  0  0
    5.9900  -11.9480   26.4324 C   0  0  0  0  0  0  0  0  0  0  0  0
    7.0465  -11.0669   26.5150 C   0  0  0  0  0  0  0  0  0  0  0  0
    8.3453  -11.4336   26.2945 C   0  0  0  0  0  0  0  0  0  0  0  0
    8.6286  -12.7456   25.9725 C   0  0  0  0  0  0  0  0  0  0  0  0
    7.5885  -13.6592   25.8812 C   0  0  0  0  0  0  0  0  0  0  0  0
   10.6134  -16.4985   23.7156 C   0  0  0  0  0  0  0  0  0  0  0  0
   10.6569  -17.7380   23.5593 O   0  0  0  0  0  0  0  0  0  0  0  0
   11.8612  -15.8034   23.6762 N   0  0  0  0  0  0  0  0  0  0  0  0
   13.0809  -16.4722   23.4102 C   0  0  1  0  0  0  0  0  0  0  0  0
   14.1958  -15.6291   22.9143 C   0  0  0  0  0  0  0  0  0  0  0  0
   15.4616  -16.2843   22.6251 C   0  0  0  0  0  0  0  0  0  0  0  0
   15.6365  -17.4686   22.2430 O   0  0  0  0  0  0  0  0  0  0  0  0
   13.5985  -17.0898   24.7096 C   0  0  0  0  0  0  0  0  0  0  0  0
   14.6031  -17.8256   24.7236 O   0  0  0  0  0  0  0  0  0  0  0  0
   16.6260  -15.5234   22.7845 O   0  0  0  0  0  0  0  0  0  0  0  0
   12.9052  -16.7948   25.8579 O   0  0  0  0  0  0  0  0  0  0  0  0
  2  1  1  0
  3  2  1  0
  3  4  1  6
  5  3  1  0
  5  6  2  0
  7  5  1  0
  8 19  1  0
  8  7  1  0
  9 10  1  0
  8  9  1  1
 10 18  1  0
 11 12  1  0
 11 10  2  0
 12 13  1  0
 13 18  2  0
 13 14  1  0
 14 15  2  0
 15 16  1  0
 17 16  2  0
 18 17  1  0
 19 21  1  0
 20 19  2  0
 22 21  1  0
 22 26  1  0
 23 24  1  0
 22 23  1  1
 24 25  2  0
 26 27  2  0
 26 29  1  0
 28 24  1  0
M  END
$$$$
