SWD.pdb
     RDKit          3D

 29 30  0  0  1  0  0  0  0  0999 V2000
    8.8665  -17.3289   20.2941 O   0  0  0  0  0  0  0  0  0  0  0  0
    8.5188  -16.0912   19.7664 C   0  0  0  0  0  0  0  0  0  0  0  0
    7.6514  -15.3194   20.7549 C   0  0  2  0  0  0  0  0  0  0  0  0
    7.4115  -14.0157   20.1266 N   0  0  0  0  0  0  0  0  0  0  0  0
    8.4268  -15.0525   22.0086 C   0  0  0  0  0  0  0  0  0  0  0  0
    9.0677  -13.9431   22.0811 O   0  0  0  0  0  0  0  0  0  0  0  0
    8.4447  -15.9811   23.0629 N   0  0  0  0  0  0  0  0  0  0  0  0
    9.2515  -15.7790   24.2653 C   0  0  1  0  0  0  0  0  0  0  0  0
    8.4953  -16.0953   25.5006 C   0  0  0  0  0  0  0  0  0  0  0  0
    7.3082  -15.2725   25.7764 C   0  0  0  0  0  0  0  0  0  0  0  0
    5.9973  -15.6554   25.8343 C   0  0  0  0  0  0  0  0  0  0  0  0
    5.2831  -14.5527   26.1505 N   0  0  0  0  0  0  0  0  0  0  0  0
    6.0835  -13.4919   26.2961 C   0  0  0  0  0  0  0  0  0  0  0  0
    5.8421  -12.1470   26.6282 C   0  0  0  0  0  0  0  0  0  0  0  0
    6.9369  -11.3136   26.7067 C   0  0  0  0  0  0  0  0  0  0  0  0
    8.2171  -11.7368   26.4780 C   0  0  0  0  0  0  0  0  0  0  0  0
    8.4403  -13.0593   26.1515 C   0  0  0  0  0  0  0  0  0  0  0  0
    7.3604  -13.9258   26.0641 C   0  0  0  0  0  0  0  0  0  0  0  0
   10.5544  -16.5031   24.1114 C   0  0  0  0  0  0  0  0  0  0  0  0
   11.2706  -16.8372   25.0799 O   0  0  0  0  0  0  0  0  0  0  0  0
   11.0378  -16.8413   22.8100 N   0  0  0  0  0  0  0  0  0  0  0  0
   12.2395  -17.5675   22.6248 C   0  0  1  0  0  0  0  0  0  0  0  0
   12.3452  -18.3499   21.3693 C   0  0  0  0  0  0  0  0  0  0  0  0
   11.8905  -19.7312   21.3934 C   0  0  0  0  0  0  0  0  0  0  0  0
   12.3964  -20.7103   20.7896 O   0  0  0  0  0  0  0  0  0  0  0  0
   13.4086  -16.5833   22.5783 C   0  0  0  0  0  0  0  0  0  0  0  0
   14.5772  -16.9525   22.7991 O   0  0  0  0  0  0  0  0  0  0  0  0
   10.7640  -20.0195   22.1730 O   0  0  0  0  0  0  0  0  0  0  0  0
   13.1097  -15.2760   22.2814 O   0  0  0  0  0  0  0  0  0  0  0  0
  2  1  1  0
  3  2  1  0
  3  4  1  6
  5  3  1  0
  5  6  2  0
  7  5  1  0
  8 19  1  0
  8  7  1  0
  9 10  1  0
  8  9  1  1
 10 18  1  0
 11 12  1  0
 11 10  2  0
 12 13  1  0
 13 18  2  0
 13 14  1  0
 14 15  2  0
 15 16  1  0
 17 16  2  0
 18 17  1  0
 19 21  1  0
 20 19  2  0
 22 21  1  0
 22 26  1  0
 23 24  1  0
 22 23  1  6
 24 25  2  0
 26 27  2  0
 26 29  1  0
 28 24  1  0
M  END
$$$$
