SWD.pdb
     RDKit          3D

 29 30  0  0  1  0  0  0  0  0999 V2000
    8.6410  -17.5012   20.0241 O   0  0  0  0  0  0  0  0  0  0  0  0
    7.3500  -17.2052   20.4448 C   0  0  0  0  0  0  0  0  0  0  0  0
    7.2897  -15.7913   21.0126 C   0  0  2  0  0  0  0  0  0  0  0  0
    7.5518  -14.9035   19.8745 N   0  0  0  0  0  0  0  0  0  0  0  0
    8.4137  -15.5859   21.9814 C   0  0  0  0  0  0  0  0  0  0  0  0
    9.4807  -15.0281   21.5377 O   0  0  0  0  0  0  0  0  0  0  0  0
    8.2976  -15.9855   23.3235 N   0  0  0  0  0  0  0  0  0  0  0  0
    9.3813  -15.8015   24.2875 C   0  0  1  0  0  0  0  0  0  0  0  0
    8.8716  -15.6260   25.6685 C   0  0  0  0  0  0  0  0  0  0  0  0
    7.5842  -14.9303   25.8132 C   0  0  0  0  0  0  0  0  0  0  0  0
    6.3218  -15.4536   25.7842 C   0  0  0  0  0  0  0  0  0  0  0  0
    5.4695  -14.4262   25.9942 N   0  0  0  0  0  0  0  0  0  0  0  0
    6.1364  -13.2790   26.1560 C   0  0  0  0  0  0  0  0  0  0  0  0
    5.7253  -11.9583   26.4086 C   0  0  0  0  0  0  0  0  0  0  0  0
    6.7139  -11.0067   26.5368 C   0  0  0  0  0  0  0  0  0  0  0  0
    8.0466  -11.2935   26.4287 C   0  0  0  0  0  0  0  0  0  0  0  0
    8.4370  -12.5938   26.1792 C   0  0  0  0  0  0  0  0  0  0  0  0
    7.4674  -13.5770   26.0449 C   0  0  0  0  0  0  0  0  0  0  0  0
   10.3871  -16.8984   24.1129 C   0  0  0  0  0  0  0  0  0  0  0  0
   10.0767  -18.0693   23.8042 O   0  0  0  0  0  0  0  0  0  0  0  0
   11.7781  -16.6334   24.3046 N   0  0  0  0  0  0  0  0  0  0  0  0
   12.7516  -17.6591   24.2271 C   0  0  1  0  0  0  0  0  0  0  0  0
   14.0693  -17.2707   23.6680 C   0  0  0  0  0  0  0  0  0  0  0  0
   14.2098  -15.9212   23.1441 C   0  0  0  0  0  0  0  0  0  0  0  0
   13.6357  -15.4305   22.1397 O   0  0  0  0  0  0  0  0  0  0  0  0
   13.0527  -18.1614   25.6395 C   0  0  0  0  0  0  0  0  0  0  0  0
   13.8869  -19.0632   25.8438 O   0  0  0  0  0  0  0  0  0  0  0  0
   15.0781  -15.0589   23.8241 O   0  0  0  0  0  0  0  0  0  0  0  0
   12.3618  -17.5718   26.6698 O   0  0  0  0  0  0  0  0  0  0  0  0
  2  1  1  0
  3  2  1  0
  3  4  1  6
  5  3  1  0
  5  6  2  0
  7  5  1  0
  8 19  1  0
  8  7  1  0
  9 10  1  0
  8  9  1  1
 10 18  1  0
 11 12  1  0
 11 10  2  0
 12 13  1  0
 13 18  2  0
 13 14  1  0
 14 15  2  0
 15 16  1  0
 17 16  2  0
 18 17  1  0
 19 21  1  0
 20 19  2  0
 22 21  1  0
 22 26  1  0
 23 24  1  0
 22 23  1  1
 24 25  2  0
 26 27  2  0
 26 29  1  0
 28 24  1  0
M  END
$$$$
