SWD.pdb
     RDKit          3D

 29 30  0  0  1  0  0  0  0  0999 V2000
    8.9697  -18.9459   20.7459 O   0  0  0  0  0  0  0  0  0  0  0  0
    9.3885  -17.8232   20.0420 C   0  0  0  0  0  0  0  0  0  0  0  0
    8.7934  -16.5610   20.6566 C   0  0  2  0  0  0  0  0  0  0  0  0
    9.3866  -15.4471   19.9087 N   0  0  0  0  0  0  0  0  0  0  0  0
    9.2587  -16.4193   22.0735 C   0  0  0  0  0  0  0  0  0  0  0  0
   10.3796  -15.8262   22.2700 O   0  0  0  0  0  0  0  0  0  0  0  0
    8.4922  -16.9137   23.1423 N   0  0  0  0  0  0  0  0  0  0  0  0
    8.9433  -16.8260   24.5303 C   0  0  1  0  0  0  0  0  0  0  0  0
    7.8141  -16.6219   25.4689 C   0  0  0  0  0  0  0  0  0  0  0  0
    7.0456  -15.3776   25.3158 C   0  0  0  0  0  0  0  0  0  0  0  0
    5.8005  -15.2024   24.7796 C   0  0  0  0  0  0  0  0  0  0  0  0
    5.5101  -13.8874   24.8912 N   0  0  0  0  0  0  0  0  0  0  0  0
    6.5142  -13.2252   25.4745 C   0  0  0  0  0  0  0  0  0  0  0  0
    6.6976  -11.8757   25.8243 C   0  0  0  0  0  0  0  0  0  0  0  0
    7.8827  -11.5434   26.4442 C   0  0  0  0  0  0  0  0  0  0  0  0
    8.8624  -12.4558   26.7232 C   0  0  0  0  0  0  0  0  0  0  0  0
    8.6706  -13.7772   26.3734 C   0  0  0  0  0  0  0  0  0  0  0  0
    7.4885  -14.1464   25.7481 C   0  0  0  0  0  0  0  0  0  0  0  0
    9.8241  -17.9989   24.8367 C   0  0  0  0  0  0  0  0  0  0  0  0
    9.9672  -18.9688   24.0612 O   0  0  0  0  0  0  0  0  0  0  0  0
   10.5483  -18.0500   26.0675 N   0  0  0  0  0  0  0  0  0  0  0  0
   11.6077  -18.9671   26.2734 C   0  0  1  0  0  0  0  0  0  0  0  0
   12.9179  -18.5973   25.6849 C   0  0  0  0  0  0  0  0  0  0  0  0
   14.0339  -19.5059   25.8953 C   0  0  0  0  0  0  0  0  0  0  0  0
   14.9140  -19.4369   26.7896 O   0  0  0  0  0  0  0  0  0  0  0  0
   11.8684  -19.0908   27.7749 C   0  0  0  0  0  0  0  0  0  0  0  0
   11.9278  -18.0863   28.5084 O   0  0  0  0  0  0  0  0  0  0  0  0
   14.1551  -20.5846   25.0112 O   0  0  0  0  0  0  0  0  0  0  0  0
   12.0327  -20.3593   28.2753 O   0  0  0  0  0  0  0  0  0  0  0  0
  2  1  1  0
  3  2  1  0
  3  4  1  6
  5  3  1  0
  5  6  2  0
  7  5  1  0
  8 19  1  0
  8  7  1  0
  9 10  1  0
  8  9  1  1
 10 18  1  0
 11 12  1  0
 11 10  2  0
 12 13  1  0
 13 18  2  0
 13 14  1  0
 14 15  2  0
 15 16  1  0
 17 16  2  0
 18 17  1  0
 19 21  1  0
 20 19  2  0
 22 21  1  0
 22 26  1  0
 23 24  1  0
 22 23  1  6
 24 25  2  0
 26 27  2  0
 26 29  1  0
 28 24  1  0
M  END
$$$$
