SWD.pdb
     RDKit          3D

 29 30  0  0  1  0  0  0  0  0999 V2000
    8.8428  -15.8752   19.0737 O   0  0  0  0  0  0  0  0  0  0  0  0
    7.5000  -15.8425   19.4303 C   0  0  0  0  0  0  0  0  0  0  0  0
    7.2109  -14.6174   20.2910 C   0  0  2  0  0  0  0  0  0  0  0  0
    7.5042  -13.4627   19.4351 N   0  0  0  0  0  0  0  0  0  0  0  0
    8.1797  -14.5597   21.4321 C   0  0  0  0  0  0  0  0  0  0  0  0
    9.1587  -13.7359   21.3339 O   0  0  0  0  0  0  0  0  0  0  0  0
    8.0160  -15.3740   22.5654 N   0  0  0  0  0  0  0  0  0  0  0  0
    8.9702  -15.3679   23.6733 C   0  0  1  0  0  0  0  0  0  0  0  0
    8.3295  -15.7324   24.9594 C   0  0  0  0  0  0  0  0  0  0  0  0
    7.2245  -14.8745   25.4126 C   0  0  0  0  0  0  0  0  0  0  0  0
    5.9104  -15.2008   25.5999 C   0  0  0  0  0  0  0  0  0  0  0  0
    5.2936  -14.0873   26.0538 N   0  0  0  0  0  0  0  0  0  0  0  0
    6.1587  -13.0740   26.1628 C   0  0  0  0  0  0  0  0  0  0  0  0
    6.0254  -11.7414   26.5911 C   0  0  0  0  0  0  0  0  0  0  0  0
    7.1635  -10.9642   26.5878 C   0  0  0  0  0  0  0  0  0  0  0  0
    8.3865  -11.4305   26.1918 C   0  0  0  0  0  0  0  0  0  0  0  0
    8.5036  -12.7403   25.7723 C   0  0  0  0  0  0  0  0  0  0  0  0
    7.3777  -13.5507   25.7634 C   0  0  0  0  0  0  0  0  0  0  0  0
   10.1645  -16.1919   23.2989 C   0  0  0  0  0  0  0  0  0  0  0  0
   10.0903  -17.2301   22.6066 O   0  0  0  0  0  0  0  0  0  0  0  0
   11.4681  -15.8073   23.7399 N   0  0  0  0  0  0  0  0  0  0  0  0
   12.6189  -16.5695   23.4231 C   0  0  1  0  0  0  0  0  0  0  0  0
   13.9008  -15.8260   23.3624 C   0  0  0  0  0  0  0  0  0  0  0  0
   15.1116  -16.5871   23.0975 C   0  0  0  0  0  0  0  0  0  0  0  0
   15.2646  -17.5054   22.2534 O   0  0  0  0  0  0  0  0  0  0  0  0
   12.8248  -17.6265   24.5087 C   0  0  0  0  0  0  0  0  0  0  0  0
   13.5378  -18.6284   24.3123 O   0  0  0  0  0  0  0  0  0  0  0  0
   16.2432  -16.2731   23.8595 O   0  0  0  0  0  0  0  0  0  0  0  0
   12.1883  -17.4187   25.7079 O   0  0  0  0  0  0  0  0  0  0  0  0
  2  1  1  0
  3  2  1  0
  3  4  1  6
  5  3  1  0
  5  6  2  0
  7  5  1  0
  8 19  1  0
  8  7  1  0
  9 10  1  0
  8  9  1  1
 10 18  1  0
 11 12  1  0
 11 10  2  0
 12 13  1  0
 13 18  2  0
 13 14  1  0
 14 15  2  0
 15 16  1  0
 17 16  2  0
 18 17  1  0
 19 21  1  0
 20 19  2  0
 22 21  1  0
 22 26  1  0
 23 24  1  0
 22 23  1  1
 24 25  2  0
 26 27  2  0
 26 29  1  0
 28 24  1  0
M  END
$$$$
