SWD.pdb
     RDKit          3D

 29 30  0  0  1  0  0  0  0  0999 V2000
    9.7361  -17.8764   20.0943 O   0  0  0  0  0  0  0  0  0  0  0  0
    8.3793  -17.7210   20.3519 C   0  0  0  0  0  0  0  0  0  0  0  0
    8.0897  -16.3000   20.8231 C   0  0  2  0  0  0  0  0  0  0  0  0
    8.5387  -15.4290   19.7314 N   0  0  0  0  0  0  0  0  0  0  0  0
    8.9463  -15.9746   22.0082 C   0  0  0  0  0  0  0  0  0  0  0  0
   10.0332  -15.3281   21.7910 O   0  0  0  0  0  0  0  0  0  0  0  0
    8.5678  -16.3601   23.3053 N   0  0  0  0  0  0  0  0  0  0  0  0
    9.4286  -16.1381   24.4662 C   0  0  1  0  0  0  0  0  0  0  0  0
    8.6599  -16.1309   25.7337 C   0  0  0  0  0  0  0  0  0  0  0  0
    7.4597  -15.2821   25.7726 C   0  0  0  0  0  0  0  0  0  0  0  0
    6.1489  -15.6489   25.6481 C   0  0  0  0  0  0  0  0  0  0  0  0
    5.4147  -14.5225   25.7841 N   0  0  0  0  0  0  0  0  0  0  0  0
    6.2023  -13.4622   25.9902 C   0  0  0  0  0  0  0  0  0  0  0  0
    5.9372  -12.0975   26.2013 C   0  0  0  0  0  0  0  0  0  0  0  0
    7.0218  -11.2709   26.4003 C   0  0  0  0  0  0  0  0  0  0  0  0
    8.3139  -11.7188   26.3989 C   0  0  0  0  0  0  0  0  0  0  0  0
    8.5606  -13.0606   26.1892 C   0  0  0  0  0  0  0  0  0  0  0  0
    7.4916  -13.9210   25.9857 C   0  0  0  0  0  0  0  0  0  0  0  0
   10.5751  -17.1019   24.4204 C   0  0  0  0  0  0  0  0  0  0  0  0
   10.7752  -17.8830   23.4652 O   0  0  0  0  0  0  0  0  0  0  0  0
   11.5035  -17.1644   25.5048 N   0  0  0  0  0  0  0  0  0  0  0  0
   12.8470  -17.5705   25.3155 C   0  0  1  0  0  0  0  0  0  0  0  0
   13.6823  -16.6931   24.4598 C   0  0  0  0  0  0  0  0  0  0  0  0
   13.8777  -17.0885   23.0739 C   0  0  0  0  0  0  0  0  0  0  0  0
   13.4864  -18.1471   22.5214 O   0  0  0  0  0  0  0  0  0  0  0  0
   13.5525  -17.5895   26.6719 C   0  0  0  0  0  0  0  0  0  0  0  0
   13.9898  -16.5453   27.1908 O   0  0  0  0  0  0  0  0  0  0  0  0
   14.5782  -16.2005   22.2488 O   0  0  0  0  0  0  0  0  0  0  0  0
   13.6801  -18.8095   27.2897 O   0  0  0  0  0  0  0  0  0  0  0  0
  2  1  1  0
  3  2  1  0
  3  4  1  6
  5  3  1  0
  5  6  2  0
  7  5  1  0
  8 19  1  0
  8  7  1  0
  9 10  1  0
  8  9  1  1
 10 18  1  0
 11 12  1  0
 11 10  2  0
 12 13  1  0
 13 18  2  0
 13 14  1  0
 14 15  2  0
 15 16  1  0
 17 16  2  0
 18 17  1  0
 19 21  1  0
 20 19  2  0
 22 21  1  0
 22 26  1  0
 23 24  1  0
 22 23  1  6
 24 25  2  0
 26 27  2  0
 26 29  1  0
 28 24  1  0
M  END
$$$$
