SWD.pdb
     RDKit          3D

 29 30  0  0  1  0  0  0  0  0999 V2000
    9.8126  -15.0106   18.1423 O   0  0  0  0  0  0  0  0  0  0  0  0
    8.4429  -15.1325   17.9408 C   0  0  0  0  0  0  0  0  0  0  0  0
    7.7021  -13.9982   18.6407 C   0  0  2  0  0  0  0  0  0  0  0  0
    8.2512  -12.7638   18.0689 N   0  0  0  0  0  0  0  0  0  0  0  0
    8.0527  -13.9866   20.0970 C   0  0  0  0  0  0  0  0  0  0  0  0
    9.0323  -13.2425   20.4622 O   0  0  0  0  0  0  0  0  0  0  0  0
    7.3313  -14.7580   21.0237 N   0  0  0  0  0  0  0  0  0  0  0  0
    7.6907  -14.8116   22.4399 C   0  0  1  0  0  0  0  0  0  0  0  0
    6.4998  -14.9662   23.3091 C   0  0  0  0  0  0  0  0  0  0  0  0
    6.7380  -14.9695   24.7602 C   0  0  0  0  0  0  0  0  0  0  0  0
    6.9114  -16.0374   25.5956 C   0  0  0  0  0  0  0  0  0  0  0  0
    7.1308  -15.5341   26.8305 N   0  0  0  0  0  0  0  0  0  0  0  0
    7.1053  -14.1977   26.8121 C   0  0  0  0  0  0  0  0  0  0  0  0
    7.2863  -13.2214   27.8077 C   0  0  0  0  0  0  0  0  0  0  0  0
    7.2058  -11.9027   27.4157 C   0  0  0  0  0  0  0  0  0  0  0  0
    6.9614  -11.5193   26.1260 C   0  0  0  0  0  0  0  0  0  0  0  0
    6.7843  -12.4875   25.1583 C   0  0  0  0  0  0  0  0  0  0  0  0
    6.8592  -13.8252   25.5184 C   0  0  0  0  0  0  0  0  0  0  0  0
    8.7628  -15.8397   22.6372 C   0  0  0  0  0  0  0  0  0  0  0  0
    8.7213  -16.9792   22.1250 O   0  0  0  0  0  0  0  0  0  0  0  0
    9.9015  -15.5423   23.4476 N   0  0  0  0  0  0  0  0  0  0  0  0
   10.9034  -16.5079   23.7115 C   0  0  1  0  0  0  0  0  0  0  0  0
   12.3045  -16.0223   23.6852 C   0  0  0  0  0  0  0  0  0  0  0  0
   12.9925  -16.0129   22.4039 C   0  0  0  0  0  0  0  0  0  0  0  0
   14.1226  -15.5256   22.1496 O   0  0  0  0  0  0  0  0  0  0  0  0
   10.7003  -17.0560   25.1244 C   0  0  0  0  0  0  0  0  0  0  0  0
    9.7989  -16.6217   25.8659 O   0  0  0  0  0  0  0  0  0  0  0  0
   12.3358  -16.6109   21.3217 O   0  0  0  0  0  0  0  0  0  0  0  0
   11.5564  -18.0481   25.5358 O   0  0  0  0  0  0  0  0  0  0  0  0
  2  1  1  0
  3  2  1  0
  3  4  1  6
  5  3  1  0
  5  6  2  0
  7  5  1  0
  8 19  1  0
  8  7  1  0
  9 10  1  0
  8  9  1  1
 10 18  1  0
 11 12  1  0
 11 10  2  0
 12 13  1  0
 13 18  2  0
 13 14  1  0
 14 15  2  0
 15 16  1  0
 17 16  2  0
 18 17  1  0
 19 21  1  0
 20 19  2  0
 22 21  1  0
 22 26  1  0
 23 24  1  0
 22 23  1  1
 24 25  2  0
 26 27  2  0
 26 29  1  0
 28 24  1  0
M  END
$$$$
