IWN.pdb
     RDKit          3D

 31 32  0  0  1  0  0  0  0  0999 V2000
   29.8491  -19.4359  -17.3237 C   0  0  0  0  0  0  0  0  0  0  0  0
   28.7224  -18.8728  -16.5201 C   0  0  0  0  0  0  0  0  0  0  0  0
   28.1966  -19.7839  -15.4358 C   0  0  2  0  0  0  0  0  0  0  0  0
   27.7048  -21.0400  -16.1725 C   0  0  0  0  0  0  0  0  0  0  0  0
   26.9688  -19.1339  -14.8317 C   0  0  2  0  0  0  0  0  0  0  0  0
   27.4762  -17.9454  -14.1330 N   0  0  0  0  0  0  0  0  0  0  0  0
   26.2465  -19.9564  -13.8678 C   0  0  0  0  0  0  0  0  0  0  0  0
   25.7939  -21.0968  -14.2450 O   0  0  0  0  0  0  0  0  0  0  0  0
   25.9642  -19.6592  -12.5142 N   0  0  0  0  0  0  0  0  0  0  0  0
   25.1632  -20.4725  -11.6278 C   0  0  1  0  0  0  0  0  0  0  0  0
   25.4822  -20.3458  -10.1798 C   0  0  0  0  0  0  0  0  0  0  0  0
   26.8572  -20.5987   -9.7737 C   0  0  0  0  0  0  0  0  0  0  0  0
   27.8185  -21.2476  -10.5029 C   0  0  0  0  0  0  0  0  0  0  0  0
   28.9444  -21.2886   -9.7813 N   0  0  0  0  0  0  0  0  0  0  0  0
   28.7773  -20.6891   -8.5885 C   0  0  0  0  0  0  0  0  0  0  0  0
   29.6166  -20.4704   -7.5136 C   0  0  0  0  0  0  0  0  0  0  0  0
   29.1777  -19.8062   -6.3866 C   0  0  0  0  0  0  0  0  0  0  0  0
   27.8720  -19.3644   -6.3620 C   0  0  0  0  0  0  0  0  0  0  0  0
   27.0503  -19.5895   -7.4377 C   0  0  0  0  0  0  0  0  0  0  0  0
   27.4553  -20.2516   -8.5835 C   0  0  0  0  0  0  0  0  0  0  0  0
   23.7173  -20.3868  -11.9474 C   0  0  0  0  0  0  0  0  0  0  0  0
   23.1595  -19.2447  -12.1078 O   0  0  0  0  0  0  0  0  0  0  0  0
   19.5648  -22.7004  -15.0826 N   0  0  0  0  0  0  0  0  0  0  0  0
   19.8913  -22.8678  -13.7091 C   0  0  0  0  0  0  0  0  0  0  0  0
   18.9501  -23.1288  -12.9366 O   0  0  0  0  0  0  0  0  0  0  0  0
   21.2608  -22.7359  -13.2530 C   0  0  0  0  0  0  0  0  0  0  0  0
   21.5435  -21.4288  -12.5498 C   0  0  2  0  0  0  0  0  0  0  0  0
   22.9446  -21.5622  -12.0778 N   0  0  0  0  0  0  0  0  0  0  0  0
   20.6714  -21.2363  -11.3914 C   0  0  0  0  0  0  0  0  0  0  0  0
   19.5023  -20.5178  -11.3679 O   0  0  0  0  0  0  0  0  0  0  0  0
   21.0032  -21.7749  -10.2829 O   0  0  0  0  0  0  0  0  0  0  0  0
  2  1  1  0
  3  2  1  0
  3  4  1  6
  5  7  1  0
  5  3  1  0
  5  6  1  1
  7  8  2  0
  9  7  1  0
 10  9  1  0
 10 11  1  1
 12 13  2  0
 12 11  1  0
 14 13  1  0
 15 20  2  0
 15 14  1  0
 16 15  1  0
 17 18  1  0
 17 16  2  0
 18 19  2  0
 19 20  1  0
 20 12  1  0
 21 10  1  0
 22 21  2  0
 23 24  1  0
 24 26  1  0
 25 24  2  0
 27 26  1  1
 27 28  1  0
 28 21  1  0
 29 27  1  0
 29 30  1  0
 31 29  2  0
M  END
$$$$
