IWN.pdb
     RDKit          3D

 31 32  0  0  1  0  0  0  0  0999 V2000
   27.3452  -19.6097  -16.3394 C   0  0  0  0  0  0  0  0  0  0  0  0
   26.3615  -19.2899  -15.2613 C   0  0  0  0  0  0  0  0  0  0  0  0
   26.4234  -20.1962  -14.0542 C   0  0  2  0  0  0  0  0  0  0  0  0
   26.0208  -21.5849  -14.5756 C   0  0  0  0  0  0  0  0  0  0  0  0
   25.3352  -19.7689  -13.0908 C   0  0  2  0  0  0  0  0  0  0  0  0
   25.6645  -18.3805  -12.7413 N   0  0  0  0  0  0  0  0  0  0  0  0
   25.2630  -20.5450  -11.8581 C   0  0  0  0  0  0  0  0  0  0  0  0
   24.6250  -21.6589  -11.8656 O   0  0  0  0  0  0  0  0  0  0  0  0
   25.8247  -20.2273  -10.5995 N   0  0  0  0  0  0  0  0  0  0  0  0
   25.6901  -21.0197   -9.3984 C   0  0  1  0  0  0  0  0  0  0  0  0
   26.9214  -21.1432   -8.5718 C   0  0  0  0  0  0  0  0  0  0  0  0
   27.2710  -20.0147   -7.7209 C   0  0  0  0  0  0  0  0  0  0  0  0
   26.9305  -18.7030   -7.9221 C   0  0  0  0  0  0  0  0  0  0  0  0
   27.4497  -17.9717   -6.9294 N   0  0  0  0  0  0  0  0  0  0  0  0
   28.1300  -18.7443   -6.0632 C   0  0  0  0  0  0  0  0  0  0  0  0
   28.8276  -18.4757   -4.9018 C   0  0  0  0  0  0  0  0  0  0  0  0
   29.4427  -19.4832   -4.1873 C   0  0  0  0  0  0  0  0  0  0  0  0
   29.3418  -20.7721   -4.6662 C   0  0  0  0  0  0  0  0  0  0  0  0
   28.6454  -21.0230   -5.8216 C   0  0  0  0  0  0  0  0  0  0  0  0
   28.0167  -20.0388   -6.5641 C   0  0  0  0  0  0  0  0  0  0  0  0
   24.4697  -20.6677   -8.6324 C   0  0  0  0  0  0  0  0  0  0  0  0
   23.8838  -19.5463   -8.8338 O   0  0  0  0  0  0  0  0  0  0  0  0
   19.7187  -21.6431   -7.2820 N   0  0  0  0  0  0  0  0  0  0  0  0
   20.3541  -21.7869   -8.5455 C   0  0  0  0  0  0  0  0  0  0  0  0
   19.6115  -21.9542   -9.5310 O   0  0  0  0  0  0  0  0  0  0  0  0
   21.7984  -21.7378   -8.6569 C   0  0  0  0  0  0  0  0  0  0  0  0
   22.4998  -21.4672   -7.3463 C   0  0  2  0  0  0  0  0  0  0  0  0
   23.9438  -21.5649   -7.6764 N   0  0  0  0  0  0  0  0  0  0  0  0
   22.1764  -22.4776   -6.3393 C   0  0  0  0  0  0  0  0  0  0  0  0
   22.5093  -23.8081   -6.3903 O   0  0  0  0  0  0  0  0  0  0  0  0
   21.5224  -22.1182   -5.3038 O   0  0  0  0  0  0  0  0  0  0  0  0
  2  1  1  0
  3  2  1  0
  3  4  1  6
  5  7  1  0
  5  3  1  0
  5  6  1  1
  7  8  2  0
  9  7  1  0
 10  9  1  0
 10 11  1  1
 12 13  2  0
 12 11  1  0
 14 13  1  0
 15 20  2  0
 15 14  1  0
 16 15  1  0
 17 18  1  0
 17 16  2  0
 18 19  2  0
 19 20  1  0
 20 12  1  0
 21 10  1  0
 22 21  2  0
 23 24  1  0
 24 26  1  0
 25 24  2  0
 27 26  1  6
 27 28  1  0
 28 21  1  0
 29 27  1  0
 29 30  1  0
 31 29  2  0
M  END
$$$$
