IWN.pdb
     RDKit          3D

 31 32  0  0  1  0  0  0  0  0999 V2000
   27.8460  -16.9860  -20.3388 C   0  0  0  0  0  0  0  0  0  0  0  0
   27.1320  -16.7034  -19.0571 C   0  0  0  0  0  0  0  0  0  0  0  0
   26.7677  -17.9263  -18.2485 C   0  0  2  0  0  0  0  0  0  0  0  0
   25.8276  -18.7386  -19.1534 C   0  0  0  0  0  0  0  0  0  0  0  0
   25.9378  -17.4753  -17.0642 C   0  0  2  0  0  0  0  0  0  0  0  0
   26.7420  -16.4309  -16.4157 N   0  0  0  0  0  0  0  0  0  0  0  0
   25.6555  -18.5122  -16.0782 C   0  0  0  0  0  0  0  0  0  0  0  0
   24.7661  -19.3972  -16.3494 O   0  0  0  0  0  0  0  0  0  0  0  0
   26.2533  -18.6867  -14.8083 N   0  0  0  0  0  0  0  0  0  0  0  0
   25.8504  -19.6610  -13.8199 C   0  0  1  0  0  0  0  0  0  0  0  0
   26.8128  -19.8781  -12.7057 C   0  0  0  0  0  0  0  0  0  0  0  0
   26.3977  -20.7634  -11.6271 C   0  0  0  0  0  0  0  0  0  0  0  0
   26.1230  -22.1018  -11.7282 C   0  0  0  0  0  0  0  0  0  0  0  0
   25.7635  -22.5546  -10.5216 N   0  0  0  0  0  0  0  0  0  0  0  0
   25.7859  -21.5677   -9.6075 C   0  0  0  0  0  0  0  0  0  0  0  0
   25.5088  -21.5241   -8.2551 C   0  0  0  0  0  0  0  0  0  0  0  0
   25.6203  -20.3497   -7.5393 C   0  0  0  0  0  0  0  0  0  0  0  0
   26.0176  -19.2149   -8.2137 C   0  0  0  0  0  0  0  0  0  0  0  0
   26.2891  -19.2741   -9.5575 C   0  0  0  0  0  0  0  0  0  0  0  0
   26.1880  -20.4329  -10.3074 C   0  0  0  0  0  0  0  0  0  0  0  0
   24.4448  -19.4675  -13.3875 C   0  0  0  0  0  0  0  0  0  0  0  0
   24.0551  -18.3263  -12.9548 O   0  0  0  0  0  0  0  0  0  0  0  0
   19.7067  -18.5040  -12.3554 N   0  0  0  0  0  0  0  0  0  0  0  0
   20.1335  -19.0723  -13.5866 C   0  0  0  0  0  0  0  0  0  0  0  0
   19.2458  -19.3444  -14.4164 O   0  0  0  0  0  0  0  0  0  0  0  0
   21.5397  -19.3145  -13.8415 C   0  0  0  0  0  0  0  0  0  0  0  0
   22.1623  -20.3217  -12.9030 C   0  0  2  0  0  0  0  0  0  0  0  0
   23.5253  -20.5382  -13.4497 N   0  0  0  0  0  0  0  0  0  0  0  0
   21.4407  -21.5939  -12.9164 C   0  0  0  0  0  0  0  0  0  0  0  0
   21.8140  -22.7442  -12.2674 O   0  0  0  0  0  0  0  0  0  0  0  0
   20.3577  -21.6731  -13.5873 O   0  0  0  0  0  0  0  0  0  0  0  0
  2  1  1  0
  3  2  1  0
  3  4  1  6
  5  7  1  0
  5  3  1  0
  5  6  1  1
  7  8  2  0
  9  7  1  0
 10  9  1  0
 10 11  1  1
 12 13  2  0
 12 11  1  0
 14 13  1  0
 15 20  2  0
 15 14  1  0
 16 15  1  0
 17 18  1  0
 17 16  2  0
 18 19  2  0
 19 20  1  0
 20 12  1  0
 21 10  1  0
 22 21  2  0
 23 24  1  0
 24 26  1  0
 25 24  2  0
 27 26  1  6
 27 28  1  0
 28 21  1  0
 29 27  1  0
 29 30  1  0
 31 29  2  0
M  END
$$$$
