IWN.pdb
     RDKit          3D

 31 32  0  0  1  0  0  0  0  0999 V2000
   28.1481  -19.3713  -18.4477 C   0  0  0  0  0  0  0  0  0  0  0  0
   28.4879  -20.3683  -17.3881 C   0  0  0  0  0  0  0  0  0  0  0  0
   27.5350  -20.4015  -16.2164 C   0  0  2  0  0  0  0  0  0  0  0  0
   27.6845  -19.0293  -15.5403 C   0  0  0  0  0  0  0  0  0  0  0  0
   28.0471  -21.4253  -15.2243 C   0  0  2  0  0  0  0  0  0  0  0  0
   27.8820  -22.7199  -15.8988 N   0  0  0  0  0  0  0  0  0  0  0  0
   27.3232  -21.4742  -13.9591 C   0  0  0  0  0  0  0  0  0  0  0  0
   26.1168  -21.9129  -13.9540 O   0  0  0  0  0  0  0  0  0  0  0  0
   27.7869  -21.0895  -12.6795 N   0  0  0  0  0  0  0  0  0  0  0  0
   27.0149  -21.1405  -11.4589 C   0  0  1  0  0  0  0  0  0  0  0  0
   27.7975  -21.0034  -10.2005 C   0  0  0  0  0  0  0  0  0  0  0  0
   27.0514  -20.7773   -8.9709 C   0  0  0  0  0  0  0  0  0  0  0  0
   25.6936  -20.8654   -8.8107 C   0  0  0  0  0  0  0  0  0  0  0  0
   25.3954  -20.5738   -7.5395 N   0  0  0  0  0  0  0  0  0  0  0  0
   26.5057  -20.2916   -6.8340 C   0  0  0  0  0  0  0  0  0  0  0  0
   26.7262  -19.9430   -5.5159 C   0  0  0  0  0  0  0  0  0  0  0  0
   28.0003  -19.7082   -5.0412 C   0  0  0  0  0  0  0  0  0  0  0  0
   29.0532  -19.8315   -5.9226 C   0  0  0  0  0  0  0  0  0  0  0  0
   28.8181  -20.1783   -7.2293 C   0  0  0  0  0  0  0  0  0  0  0  0
   27.5551  -20.4208   -7.7404 C   0  0  0  0  0  0  0  0  0  0  0  0
   25.8074  -20.2818  -11.5270 C   0  0  0  0  0  0  0  0  0  0  0  0
   25.9220  -19.0060  -11.5057 O   0  0  0  0  0  0  0  0  0  0  0  0
   21.5332  -19.9068  -14.4221 N   0  0  0  0  0  0  0  0  0  0  0  0
   22.9227  -20.0007  -14.1363 C   0  0  0  0  0  0  0  0  0  0  0  0
   23.5993  -20.7376  -14.8778 O   0  0  0  0  0  0  0  0  0  0  0  0
   23.5015  -19.2650  -13.0297 C   0  0  0  0  0  0  0  0  0  0  0  0
   23.3498  -19.9567  -11.6950 C   0  0  2  0  0  0  0  0  0  0  0  0
   24.5229  -20.8629  -11.6164 N   0  0  0  0  0  0  0  0  0  0  0  0
   22.1284  -20.7593  -11.6358 C   0  0  0  0  0  0  0  0  0  0  0  0
   20.8564  -20.2855  -11.4333 O   0  0  0  0  0  0  0  0  0  0  0  0
   22.2226  -22.0238  -11.7820 O   0  0  0  0  0  0  0  0  0  0  0  0
  2  1  1  0
  3  2  1  0
  3  4  1  1
  5  7  1  0
  5  3  1  0
  5  6  1  6
  7  8  2  0
  9  7  1  0
 10  9  1  0
 10 11  1  1
 12 13  2  0
 12 11  1  0
 14 13  1  0
 15 20  2  0
 15 14  1  0
 16 15  1  0
 17 18  1  0
 17 16  2  0
 18 19  2  0
 19 20  1  0
 20 12  1  0
 21 10  1  0
 22 21  2  0
 23 24  1  0
 24 26  1  0
 25 24  2  0
 27 26  1  6
 27 28  1  0
 28 21  1  0
 29 27  1  0
 29 30  1  0
 31 29  2  0
M  END
$$$$
