IWN.pdb
     RDKit          3D

 31 32  0  0  1  0  0  0  0  0999 V2000
   29.0767  -20.7347  -14.6102 C   0  0  0  0  0  0  0  0  0  0  0  0
   28.3832  -19.6969  -13.7889 C   0  0  0  0  0  0  0  0  0  0  0  0
   28.0782  -20.1091  -12.3679 C   0  0  2  0  0  0  0  0  0  0  0  0
   29.1775  -21.1181  -11.9994 C   0  0  0  0  0  0  0  0  0  0  0  0
   26.7742  -20.8800  -12.3730 C   0  0  2  0  0  0  0  0  0  0  0  0
   25.8461  -20.0465  -13.1489 N   0  0  0  0  0  0  0  0  0  0  0  0
   26.1890  -21.1111  -11.0572 C   0  0  0  0  0  0  0  0  0  0  0  0
   26.6961  -22.0205  -10.3065 O   0  0  0  0  0  0  0  0  0  0  0  0
   25.0922  -20.4414  -10.4665 N   0  0  0  0  0  0  0  0  0  0  0  0
   24.5271  -20.7416   -9.1707 C   0  0  1  0  0  0  0  0  0  0  0  0
   24.6481  -19.6617   -8.1539 C   0  0  0  0  0  0  0  0  0  0  0  0
   25.9827  -19.3567   -7.6586 C   0  0  0  0  0  0  0  0  0  0  0  0
   26.9143  -18.5530   -8.2612 C   0  0  0  0  0  0  0  0  0  0  0  0
   28.0161  -18.5359   -7.5023 N   0  0  0  0  0  0  0  0  0  0  0  0
   27.8612  -19.3008   -6.4064 C   0  0  0  0  0  0  0  0  0  0  0  0
   28.6838  -19.6015   -5.3384 C   0  0  0  0  0  0  0  0  0  0  0  0
   28.2608  -20.4320   -4.3210 C   0  0  0  0  0  0  0  0  0  0  0  0
   26.9882  -20.9566   -4.3993 C   0  0  0  0  0  0  0  0  0  0  0  0
   26.1829  -20.6488   -5.4669 C   0  0  0  0  0  0  0  0  0  0  0  0
   26.5731  -19.8207   -6.5049 C   0  0  0  0  0  0  0  0  0  0  0  0
   23.1717  -21.3344   -9.2777 C   0  0  0  0  0  0  0  0  0  0  0  0
   22.5641  -21.3536  -10.4054 O   0  0  0  0  0  0  0  0  0  0  0  0
   18.7775  -23.8486   -8.0610 N   0  0  0  0  0  0  0  0  0  0  0  0
   19.6195  -23.7959   -6.9167 C   0  0  0  0  0  0  0  0  0  0  0  0
   19.2242  -24.3985   -5.9012 O   0  0  0  0  0  0  0  0  0  0  0  0
   20.8731  -23.0693   -6.9537 C   0  0  0  0  0  0  0  0  0  0  0  0
   21.1857  -22.4658   -8.3032 C   0  0  2  0  0  0  0  0  0  0  0  0
   22.5408  -21.8825   -8.1387 N   0  0  0  0  0  0  0  0  0  0  0  0
   20.2500  -21.3961   -8.6489 C   0  0  0  0  0  0  0  0  0  0  0  0
   19.1358  -21.5186   -9.4409 O   0  0  0  0  0  0  0  0  0  0  0  0
   20.4639  -20.2262   -8.1855 O   0  0  0  0  0  0  0  0  0  0  0  0
  2  1  1  0
  3  2  1  0
  3  4  1  6
  5  7  1  0
  5  3  1  0
  5  6  1  6
  7  8  2  0
  9  7  1  0
 10  9  1  0
 10 11  1  1
 12 13  2  0
 12 11  1  0
 14 13  1  0
 15 20  2  0
 15 14  1  0
 16 15  1  0
 17 18  1  0
 17 16  2  0
 18 19  2  0
 19 20  1  0
 20 12  1  0
 21 10  1  0
 22 21  2  0
 23 24  1  0
 24 26  1  0
 25 24  2  0
 27 26  1  1
 27 28  1  0
 28 21  1  0
 29 27  1  0
 29 30  1  0
 31 29  2  0
M  END
$$$$
