IWN.pdb
     RDKit          3D

 31 32  0  0  1  0  0  0  0  0999 V2000
   26.0967  -19.2531  -16.0627 C   0  0  0  0  0  0  0  0  0  0  0  0
   26.8570  -19.6917  -14.8536 C   0  0  0  0  0  0  0  0  0  0  0  0
   26.0030  -20.1847  -13.7091 C   0  0  2  0  0  0  0  0  0  0  0  0
   25.1495  -18.9748  -13.2967 C   0  0  0  0  0  0  0  0  0  0  0  0
   26.9159  -20.4835  -12.5377 C   0  0  2  0  0  0  0  0  0  0  0  0
   27.7999  -21.5566  -13.0124 N   0  0  0  0  0  0  0  0  0  0  0  0
   26.2400  -20.9488  -11.3319 C   0  0  0  0  0  0  0  0  0  0  0  0
   25.7914  -22.1511  -11.2998 O   0  0  0  0  0  0  0  0  0  0  0  0
   26.0008  -20.2275  -10.1391 N   0  0  0  0  0  0  0  0  0  0  0  0
   25.1644  -20.6696   -9.0466 C   0  0  1  0  0  0  0  0  0  0  0  0
   25.6012  -20.2383   -7.6910 C   0  0  0  0  0  0  0  0  0  0  0  0
   27.0337  -20.1746   -7.4392 C   0  0  0  0  0  0  0  0  0  0  0  0
   28.0336  -20.3328   -8.3624 C   0  0  0  0  0  0  0  0  0  0  0  0
   29.2112  -20.2170   -7.7380 N   0  0  0  0  0  0  0  0  0  0  0  0
   29.0418  -19.9855   -6.4236 C   0  0  0  0  0  0  0  0  0  0  0  0
   29.9208  -19.7926   -5.3758 C   0  0  0  0  0  0  0  0  0  0  0  0
   29.4662  -19.5634   -4.0933 C   0  0  0  0  0  0  0  0  0  0  0  0
   28.1038  -19.5320   -3.8846 C   0  0  0  0  0  0  0  0  0  0  0  0
   27.2432  -19.7257   -4.9357 C   0  0  0  0  0  0  0  0  0  0  0  0
   27.6625  -19.9583   -6.2340 C   0  0  0  0  0  0  0  0  0  0  0  0
   23.7237  -20.4527   -9.3248 C   0  0  0  0  0  0  0  0  0  0  0  0
   23.3565  -19.5453  -10.1514 O   0  0  0  0  0  0  0  0  0  0  0  0
   19.1952  -21.9198  -10.9120 N   0  0  0  0  0  0  0  0  0  0  0  0
   20.4804  -22.2141  -11.4436 C   0  0  0  0  0  0  0  0  0  0  0  0
   20.5169  -22.6770  -12.5990 O   0  0  0  0  0  0  0  0  0  0  0  0
   21.6767  -21.9786  -10.6598 C   0  0  0  0  0  0  0  0  0  0  0  0
   21.4063  -21.3492   -9.3131 C   0  0  2  0  0  0  0  0  0  0  0  0
   22.7459  -21.2442   -8.6821 N   0  0  0  0  0  0  0  0  0  0  0  0
   20.5565  -22.1982   -8.4784 C   0  0  0  0  0  0  0  0  0  0  0  0
   20.9870  -23.1506   -7.5889 O   0  0  0  0  0  0  0  0  0  0  0  0
   19.2901  -22.0642   -8.5639 O   0  0  0  0  0  0  0  0  0  0  0  0
  2  1  1  0
  3  2  1  0
  3  4  1  1
  5  7  1  0
  5  3  1  0
  5  6  1  6
  7  8  2  0
  9  7  1  0
 10  9  1  0
 10 11  1  1
 12 13  2  0
 12 11  1  0
 14 13  1  0
 15 20  2  0
 15 14  1  0
 16 15  1  0
 17 18  1  0
 17 16  2  0
 18 19  2  0
 19 20  1  0
 20 12  1  0
 21 10  1  0
 22 21  2  0
 23 24  1  0
 24 26  1  0
 25 24  2  0
 27 26  1  6
 27 28  1  0
 28 21  1  0
 29 27  1  0
 29 30  1  0
 31 29  2  0
M  END
$$$$
