IWN.pdb
     RDKit          3D

 31 32  0  0  1  0  0  0  0  0999 V2000
   25.5716  -19.3573  -18.1905 C   0  0  0  0  0  0  0  0  0  0  0  0
   26.3222  -19.7593  -16.9628 C   0  0  0  0  0  0  0  0  0  0  0  0
   25.4588  -20.2115  -15.8086 C   0  0  2  0  0  0  0  0  0  0  0  0
   24.6306  -18.9762  -15.4207 C   0  0  0  0  0  0  0  0  0  0  0  0
   26.3658  -20.5053  -14.6314 C   0  0  2  0  0  0  0  0  0  0  0  0
   27.2241  -21.6089  -15.0826 N   0  0  0  0  0  0  0  0  0  0  0  0
   25.6808  -20.9278  -13.4151 C   0  0  0  0  0  0  0  0  0  0  0  0
   25.0760  -22.0600  -13.4080 O   0  0  0  0  0  0  0  0  0  0  0  0
   25.5872  -20.2327  -12.1869 N   0  0  0  0  0  0  0  0  0  0  0  0
   24.8182  -20.6590  -11.0400 C   0  0  1  0  0  0  0  0  0  0  0  0
   25.3627  -20.2505   -9.7166 C   0  0  0  0  0  0  0  0  0  0  0  0
   26.7396  -20.6174   -9.4183 C   0  0  0  0  0  0  0  0  0  0  0  0
   27.5409  -21.4509  -10.1533 C   0  0  0  0  0  0  0  0  0  0  0  0
   28.7288  -21.5447   -9.5449 N   0  0  0  0  0  0  0  0  0  0  0  0
   28.7583  -20.8026   -8.4231 C   0  0  0  0  0  0  0  0  0  0  0  0
   29.7293  -20.5676   -7.4693 C   0  0  0  0  0  0  0  0  0  0  0  0
   29.4898  -19.7368   -6.3939 C   0  0  0  0  0  0  0  0  0  0  0  0
   28.2487  -19.1443   -6.2964 C   0  0  0  0  0  0  0  0  0  0  0  0
   27.2944  -19.3878   -7.2519 C   0  0  0  0  0  0  0  0  0  0  0  0
   27.4985  -20.2146   -8.3428 C   0  0  0  0  0  0  0  0  0  0  0  0
   23.3683  -20.3993  -11.2135 C   0  0  0  0  0  0  0  0  0  0  0  0
   22.9707  -19.3346  -11.8048 O   0  0  0  0  0  0  0  0  0  0  0  0
   18.7408  -20.0997  -12.8463 N   0  0  0  0  0  0  0  0  0  0  0  0
   19.5850  -21.2130  -13.1086 C   0  0  0  0  0  0  0  0  0  0  0  0
   19.1110  -22.1221  -13.8154 O   0  0  0  0  0  0  0  0  0  0  0  0
   20.9290  -21.2656  -12.5685 C   0  0  0  0  0  0  0  0  0  0  0  0
   20.9877  -21.0962  -11.0682 C   0  0  2  0  0  0  0  0  0  0  0  0
   22.4150  -21.3227  -10.7294 N   0  0  0  0  0  0  0  0  0  0  0  0
   20.1740  -22.0962  -10.3772 C   0  0  0  0  0  0  0  0  0  0  0  0
   18.9715  -21.8727   -9.7545 O   0  0  0  0  0  0  0  0  0  0  0  0
   20.5966  -23.2997  -10.3316 O   0  0  0  0  0  0  0  0  0  0  0  0
  2  1  1  0
  3  2  1  0
  3  4  1  1
  5  7  1  0
  5  3  1  0
  5  6  1  6
  7  8  2  0
  9  7  1  0
 10  9  1  0
 10 11  1  1
 12 13  2  0
 12 11  1  0
 14 13  1  0
 15 20  2  0
 15 14  1  0
 16 15  1  0
 17 18  1  0
 17 16  2  0
 18 19  2  0
 19 20  1  0
 20 12  1  0
 21 10  1  0
 22 21  2  0
 23 24  1  0
 24 26  1  0
 25 24  2  0
 27 26  1  6
 27 28  1  0
 28 21  1  0
 29 27  1  0
 29 30  1  0
 31 29  2  0
M  END
$$$$
