IWN.pdb
     RDKit          3D

 31 32  0  0  1  0  0  0  0  0999 V2000
   28.3541  -20.1234   -6.2967 C   0  0  0  0  0  0  0  0  0  0  0  0
   28.1682  -20.9665   -7.5161 C   0  0  0  0  0  0  0  0  0  0  0  0
   27.2433  -20.3828   -8.5583 C   0  0  2  0  0  0  0  0  0  0  0  0
   25.8481  -20.4082   -7.9141 C   0  0  0  0  0  0  0  0  0  0  0  0
   27.1914  -21.3425   -9.7293 C   0  0  2  0  0  0  0  0  0  0  0  0
   28.5961  -21.5649  -10.0975 N   0  0  0  0  0  0  0  0  0  0  0  0
   26.4851  -20.8444  -10.9041 C   0  0  0  0  0  0  0  0  0  0  0  0
   26.6692  -19.6266  -11.2658 O   0  0  0  0  0  0  0  0  0  0  0  0
   25.5861  -21.5489  -11.7385 N   0  0  0  0  0  0  0  0  0  0  0  0
   24.9071  -20.9998  -12.8900 C   0  0  1  0  0  0  0  0  0  0  0  0
   25.4958  -21.3550  -14.2098 C   0  0  0  0  0  0  0  0  0  0  0  0
   26.6910  -20.6344  -14.6242 C   0  0  0  0  0  0  0  0  0  0  0  0
   27.9716  -21.1208  -14.6483 C   0  0  0  0  0  0  0  0  0  0  0  0
   28.7872  -20.1506  -15.0766 N   0  0  0  0  0  0  0  0  0  0  0  0
   28.1016  -19.0241  -15.3433 C   0  0  0  0  0  0  0  0  0  0  0  0
   28.4743  -17.7759  -15.8025 C   0  0  0  0  0  0  0  0  0  0  0  0
   27.5420  -16.7776  -15.9979 C   0  0  0  0  0  0  0  0  0  0  0  0
   26.2214  -17.0608  -15.7210 C   0  0  0  0  0  0  0  0  0  0  0  0
   25.8669  -18.3056  -15.2651 C   0  0  0  0  0  0  0  0  0  0  0  0
   26.7736  -19.3303  -15.0571 C   0  0  0  0  0  0  0  0  0  0  0  0
   23.4368  -21.1764  -12.8065 C   0  0  0  0  0  0  0  0  0  0  0  0
   22.9406  -22.1208  -12.0972 O   0  0  0  0  0  0  0  0  0  0  0  0
   20.1255  -19.1385  -10.0531 N   0  0  0  0  0  0  0  0  0  0  0  0
   20.1051  -19.9528  -11.2183 C   0  0  0  0  0  0  0  0  0  0  0  0
   19.6278  -21.0963  -11.0950 O   0  0  0  0  0  0  0  0  0  0  0  0
   20.6206  -19.4546  -12.4779 C   0  0  0  0  0  0  0  0  0  0  0  0
   21.1106  -20.5414  -13.4061 C   0  0  2  0  0  0  0  0  0  0  0  0
   22.5727  -20.3056  -13.5070 N   0  0  0  0  0  0  0  0  0  0  0  0
   20.5202  -20.4232  -14.7392 C   0  0  0  0  0  0  0  0  0  0  0  0
   19.3620  -21.0215  -15.1684 O   0  0  0  0  0  0  0  0  0  0  0  0
   21.1163  -19.7026  -15.6078 O   0  0  0  0  0  0  0  0  0  0  0  0
  2  1  1  0
  3  2  1  0
  3  4  1  1
  5  7  1  0
  5  3  1  0
  5  6  1  6
  7  8  2  0
  9  7  1  0
 10  9  1  0
 10 11  1  6
 12 13  2  0
 12 11  1  0
 14 13  1  0
 15 20  2  0
 15 14  1  0
 16 15  1  0
 17 18  1  0
 17 16  2  0
 18 19  2  0
 19 20  1  0
 20 12  1  0
 21 10  1  0
 22 21  2  0
 23 24  1  0
 24 26  1  0
 25 24  2  0
 27 26  1  1
 27 28  1  0
 28 21  1  0
 29 27  1  0
 29 30  1  0
 31 29  2  0
M  END
$$$$
