IWN.pdb
     RDKit          3D

 31 32  0  0  1  0  0  0  0  0999 V2000
   27.5237  -18.5721  -17.3385 C   0  0  0  0  0  0  0  0  0  0  0  0
   27.9478  -19.6645  -16.4115 C   0  0  0  0  0  0  0  0  0  0  0  0
   27.1318  -19.7771  -15.1452 C   0  0  2  0  0  0  0  0  0  0  0  0
   27.4825  -18.5219  -14.3305 C   0  0  0  0  0  0  0  0  0  0  0  0
   27.6532  -20.9596  -14.3549 C   0  0  2  0  0  0  0  0  0  0  0  0
   27.3575  -22.1315  -15.1900 N   0  0  0  0  0  0  0  0  0  0  0  0
   27.0257  -21.1567  -13.0532 C   0  0  0  0  0  0  0  0  0  0  0  0
   25.8118  -21.5719  -13.0089 O   0  0  0  0  0  0  0  0  0  0  0  0
   27.5947  -20.9456  -11.7756 N   0  0  0  0  0  0  0  0  0  0  0  0
   26.8713  -20.9570  -10.5246 C   0  0  1  0  0  0  0  0  0  0  0  0
   27.6802  -20.6461   -9.3147 C   0  0  0  0  0  0  0  0  0  0  0  0
   26.9786  -20.5791   -8.0409 C   0  0  0  0  0  0  0  0  0  0  0  0
   25.6670  -20.9023   -7.8122 C   0  0  0  0  0  0  0  0  0  0  0  0
   25.3972  -20.6950   -6.5182 N   0  0  0  0  0  0  0  0  0  0  0  0
   26.4821  -20.2426   -5.8637 C   0  0  0  0  0  0  0  0  0  0  0  0
   26.7155  -19.8913   -4.5485 C   0  0  0  0  0  0  0  0  0  0  0  0
   27.9564  -19.4523   -4.1345 C   0  0  0  0  0  0  0  0  0  0  0  0
   28.9625  -19.3733   -5.0738 C   0  0  0  0  0  0  0  0  0  0  0  0
   28.7150  -19.7256   -6.3767 C   0  0  0  0  0  0  0  0  0  0  0  0
   27.4842  -20.1694   -6.8279 C   0  0  0  0  0  0  0  0  0  0  0  0
   25.5912  -20.2132  -10.6144 C   0  0  0  0  0  0  0  0  0  0  0  0
   25.5896  -18.9321  -10.6241 O   0  0  0  0  0  0  0  0  0  0  0  0
   21.5466  -19.2630  -14.0369 N   0  0  0  0  0  0  0  0  0  0  0  0
   22.2213  -18.8216  -12.8660 C   0  0  0  0  0  0  0  0  0  0  0  0
   21.7861  -17.7886  -12.3236 O   0  0  0  0  0  0  0  0  0  0  0  0
   23.3589  -19.5547  -12.3471 C   0  0  0  0  0  0  0  0  0  0  0  0
   23.1331  -20.1297  -10.9682 C   0  0  2  0  0  0  0  0  0  0  0  0
   24.3648  -20.9104  -10.6905 N   0  0  0  0  0  0  0  0  0  0  0  0
   21.9842  -21.0345  -10.9392 C   0  0  0  0  0  0  0  0  0  0  0  0
   20.6857  -20.6867  -10.6625 O   0  0  0  0  0  0  0  0  0  0  0  0
   22.1761  -22.2712  -11.1901 O   0  0  0  0  0  0  0  0  0  0  0  0
  2  1  1  0
  3  2  1  0
  3  4  1  1
  5  7  1  0
  5  3  1  0
  5  6  1  6
  7  8  2  0
  9  7  1  0
 10  9  1  0
 10 11  1  1
 12 13  2  0
 12 11  1  0
 14 13  1  0
 15 20  2  0
 15 14  1  0
 16 15  1  0
 17 18  1  0
 17 16  2  0
 18 19  2  0
 19 20  1  0
 20 12  1  0
 21 10  1  0
 22 21  2  0
 23 24  1  0
 24 26  1  0
 25 24  2  0
 27 26  1  6
 27 28  1  0
 28 21  1  0
 29 27  1  0
 29 30  1  0
 31 29  2  0
M  END
$$$$
