IWN.pdb
     RDKit          3D

 31 32  0  0  1  0  0  0  0  0999 V2000
   30.5453  -20.2077  -13.8947 C   0  0  0  0  0  0  0  0  0  0  0  0
   29.1518  -19.6784  -13.7934 C   0  0  0  0  0  0  0  0  0  0  0  0
   28.3530  -19.7403  -15.0741 C   0  0  2  0  0  0  0  0  0  0  0  0
   28.9867  -18.6831  -15.9922 C   0  0  0  0  0  0  0  0  0  0  0  0
   26.9481  -19.2596  -14.7741 C   0  0  2  0  0  0  0  0  0  0  0  0
   27.1236  -17.9257  -14.1841 N   0  0  0  0  0  0  0  0  0  0  0  0
   26.2033  -20.0827  -13.8281 C   0  0  0  0  0  0  0  0  0  0  0  0
   25.8946  -21.2829  -14.1627 O   0  0  0  0  0  0  0  0  0  0  0  0
   25.7551  -19.7267  -12.5347 N   0  0  0  0  0  0  0  0  0  0  0  0
   24.9483  -20.5573  -11.6700 C   0  0  1  0  0  0  0  0  0  0  0  0
   25.2411  -20.4411  -10.2155 C   0  0  0  0  0  0  0  0  0  0  0  0
   26.5871  -20.7792   -9.7757 C   0  0  0  0  0  0  0  0  0  0  0  0
   27.4954  -21.5552  -10.4464 C   0  0  0  0  0  0  0  0  0  0  0  0
   28.6088  -21.6399   -9.7094 N   0  0  0  0  0  0  0  0  0  0  0  0
   28.4846  -20.9471   -8.5628 C   0  0  0  0  0  0  0  0  0  0  0  0
   29.3319  -20.7251   -7.4949 C   0  0  0  0  0  0  0  0  0  0  0  0
   28.9428  -19.9499   -6.4218 C   0  0  0  0  0  0  0  0  0  0  0  0
   27.6789  -19.3998   -6.4442 C   0  0  0  0  0  0  0  0  0  0  0  0
   26.8485  -19.6297   -7.5122 C   0  0  0  0  0  0  0  0  0  0  0  0
   27.2041  -20.4014   -8.6046 C   0  0  0  0  0  0  0  0  0  0  0  0
   23.5073  -20.4847  -12.0134 C   0  0  0  0  0  0  0  0  0  0  0  0
   22.8959  -19.3590  -11.9927 O   0  0  0  0  0  0  0  0  0  0  0  0
   19.5230  -22.5661  -15.5498 N   0  0  0  0  0  0  0  0  0  0  0  0
   19.8379  -22.8951  -14.2030 C   0  0  0  0  0  0  0  0  0  0  0  0
   18.8998  -23.2981  -13.4901 O   0  0  0  0  0  0  0  0  0  0  0  0
   21.1927  -22.7598  -13.7060 C   0  0  0  0  0  0  0  0  0  0  0  0
   21.4210  -21.5026  -12.8996 C   0  0  2  0  0  0  0  0  0  0  0  0
   22.7980  -21.6543  -12.3664 N   0  0  0  0  0  0  0  0  0  0  0  0
   20.4886  -21.4014  -11.7771 C   0  0  0  0  0  0  0  0  0  0  0  0
   19.3153  -20.6896  -11.7601 O   0  0  0  0  0  0  0  0  0  0  0  0
   20.7657  -22.0224  -10.6970 O   0  0  0  0  0  0  0  0  0  0  0  0
  2  1  1  0
  3  2  1  0
  3  4  1  6
  5  7  1  0
  5  3  1  0
  5  6  1  1
  7  8  2  0
  9  7  1  0
 10  9  1  0
 10 11  1  1
 12 13  2  0
 12 11  1  0
 14 13  1  0
 15 20  2  0
 15 14  1  0
 16 15  1  0
 17 18  1  0
 17 16  2  0
 18 19  2  0
 19 20  1  0
 20 12  1  0
 21 10  1  0
 22 21  2  0
 23 24  1  0
 24 26  1  0
 25 24  2  0
 27 26  1  6
 27 28  1  0
 28 21  1  0
 29 27  1  0
 29 30  1  0
 31 29  2  0
M  END
$$$$
