IWN.pdb
     RDKit          3D

 31 32  0  0  1  0  0  0  0  0999 V2000
   26.3756  -17.5232  -22.0153 C   0  0  0  0  0  0  0  0  0  0  0  0
   25.1782  -17.5799  -21.1234 C   0  0  0  0  0  0  0  0  0  0  0  0
   25.3922  -18.3067  -19.8165 C   0  0  2  0  0  0  0  0  0  0  0  0
   25.7668  -19.7433  -20.2144 C   0  0  0  0  0  0  0  0  0  0  0  0
   24.0578  -18.3941  -19.1046 C   0  0  2  0  0  0  0  0  0  0  0  0
   23.7010  -17.0021  -18.7996 N   0  0  0  0  0  0  0  0  0  0  0  0
   24.0734  -19.1456  -17.8548 C   0  0  0  0  0  0  0  0  0  0  0  0
   24.2922  -20.4098  -17.8966 O   0  0  0  0  0  0  0  0  0  0  0  0
   23.8735  -18.6526  -16.5443 N   0  0  0  0  0  0  0  0  0  0  0  0
   23.9348  -19.4411  -15.3347 C   0  0  1  0  0  0  0  0  0  0  0  0
   25.0887  -19.1524  -14.4403 C   0  0  0  0  0  0  0  0  0  0  0  0
   26.4235  -19.3030  -15.0019 C   0  0  0  0  0  0  0  0  0  0  0  0
   27.1547  -20.4595  -15.0727 C   0  0  0  0  0  0  0  0  0  0  0  0
   28.3327  -20.1836  -15.6437 N   0  0  0  0  0  0  0  0  0  0  0  0
   28.4232  -18.8795  -15.9618 C   0  0  0  0  0  0  0  0  0  0  0  0
   29.4090  -18.1169  -16.5572 C   0  0  0  0  0  0  0  0  0  0  0  0
   29.2345  -16.7656  -16.7754 C   0  0  0  0  0  0  0  0  0  0  0  0
   28.0436  -16.1939  -16.3811 C   0  0  0  0  0  0  0  0  0  0  0  0
   27.0739  -16.9647  -15.7906 C   0  0  0  0  0  0  0  0  0  0  0  0
   27.2137  -18.3214  -15.5557 C   0  0  0  0  0  0  0  0  0  0  0  0
   22.6239  -19.5042  -14.6437 C   0  0  0  0  0  0  0  0  0  0  0  0
   22.0744  -18.4332  -14.2052 O   0  0  0  0  0  0  0  0  0  0  0  0
   17.9896  -21.2602  -13.0833 N   0  0  0  0  0  0  0  0  0  0  0  0
   18.7271  -22.3317  -13.6570 C   0  0  0  0  0  0  0  0  0  0  0  0
   18.1459  -23.4295  -13.7437 O   0  0  0  0  0  0  0  0  0  0  0  0
   20.0888  -22.1322  -14.1117 C   0  0  0  0  0  0  0  0  0  0  0  0
   20.6159  -20.7391  -13.8580 C   0  0  2  0  0  0  0  0  0  0  0  0
   21.9710  -20.7441  -14.4641 N   0  0  0  0  0  0  0  0  0  0  0  0
   20.7394  -20.4580  -12.4279 C   0  0  0  0  0  0  0  0  0  0  0  0
   19.9912  -19.5577  -11.7116 O   0  0  0  0  0  0  0  0  0  0  0  0
   21.6183  -21.0941  -11.7556 O   0  0  0  0  0  0  0  0  0  0  0  0
  2  1  1  0
  3  2  1  0
  3  4  1  6
  5  7  1  0
  5  3  1  0
  5  6  1  1
  7  8  2  0
  9  7  1  0
 10  9  1  0
 10 11  1  1
 12 13  2  0
 12 11  1  0
 14 13  1  0
 15 20  2  0
 15 14  1  0
 16 15  1  0
 17 18  1  0
 17 16  2  0
 18 19  2  0
 19 20  1  0
 20 12  1  0
 21 10  1  0
 22 21  2  0
 23 24  1  0
 24 26  1  0
 25 24  2  0
 27 26  1  1
 27 28  1  0
 28 21  1  0
 29 27  1  0
 29 30  1  0
 31 29  2  0
M  END
$$$$
