IWN.pdb
     RDKit          3D

 31 32  0  0  1  0  0  0  0  0999 V2000
   29.6644  -21.1866  -10.5729 C   0  0  0  0  0  0  0  0  0  0  0  0
   28.1718  -21.2537  -10.5735 C   0  0  0  0  0  0  0  0  0  0  0  0
   27.4843  -20.1371   -9.8234 C   0  0  2  0  0  0  0  0  0  0  0  0
   27.7886  -20.4046   -8.3408 C   0  0  0  0  0  0  0  0  0  0  0  0
   25.9888  -20.3108   -9.9912 C   0  0  2  0  0  0  0  0  0  0  0  0
   25.7359  -21.7244   -9.6815 N   0  0  0  0  0  0  0  0  0  0  0  0
   25.4829  -20.0398  -11.3321 C   0  0  0  0  0  0  0  0  0  0  0  0
   25.4969  -18.8315  -11.7653 O   0  0  0  0  0  0  0  0  0  0  0  0
   24.9569  -20.9650  -12.2636 N   0  0  0  0  0  0  0  0  0  0  0  0
   24.3889  -20.6280  -13.5490 C   0  0  1  0  0  0  0  0  0  0  0  0
   25.1515  -21.1109  -14.7322 C   0  0  0  0  0  0  0  0  0  0  0  0
   26.4832  -20.5602  -14.9392 C   0  0  0  0  0  0  0  0  0  0  0  0
   27.6745  -21.1691  -14.6441 C   0  0  0  0  0  0  0  0  0  0  0  0
   28.6698  -20.3360  -14.9682 N   0  0  0  0  0  0  0  0  0  0  0  0
   28.1922  -19.1838  -15.4727 C   0  0  0  0  0  0  0  0  0  0  0  0
   28.7966  -18.0358  -15.9465 C   0  0  0  0  0  0  0  0  0  0  0  0
   28.0495  -16.9786  -16.4240 C   0  0  0  0  0  0  0  0  0  0  0  0
   26.6762  -17.0994  -16.4155 C   0  0  0  0  0  0  0  0  0  0  0  0
   26.0904  -18.2462  -15.9413 C   0  0  0  0  0  0  0  0  0  0  0  0
   26.8070  -19.3256  -15.4549 C   0  0  0  0  0  0  0  0  0  0  0  0
   22.9324  -20.9029  -13.6039 C   0  0  0  0  0  0  0  0  0  0  0  0
   22.4534  -21.9523  -13.0465 O   0  0  0  0  0  0  0  0  0  0  0  0
   18.7068  -18.9656  -11.2205 N   0  0  0  0  0  0  0  0  0  0  0  0
   18.9147  -19.4963  -12.5229 C   0  0  0  0  0  0  0  0  0  0  0  0
   18.0406  -20.2679  -12.9602 O   0  0  0  0  0  0  0  0  0  0  0  0
   20.0949  -19.1422  -13.2861 C   0  0  0  0  0  0  0  0  0  0  0  0
   20.6017  -20.2559  -14.1725 C   0  0  2  0  0  0  0  0  0  0  0  0
   22.0626  -20.0109  -14.2697 N   0  0  0  0  0  0  0  0  0  0  0  0
   20.0215  -20.1886  -15.5135 C   0  0  0  0  0  0  0  0  0  0  0  0
   20.6996  -19.9271  -16.6777 O   0  0  0  0  0  0  0  0  0  0  0  0
   18.7675  -20.3869  -15.6454 O   0  0  0  0  0  0  0  0  0  0  0  0
  2  1  1  0
  3  2  1  0
  3  4  1  1
  5  7  1  0
  5  3  1  0
  5  6  1  6
  7  8  2  0
  9  7  1  0
 10  9  1  0
 10 11  1  6
 12 13  2  0
 12 11  1  0
 14 13  1  0
 15 20  2  0
 15 14  1  0
 16 15  1  0
 17 18  1  0
 17 16  2  0
 18 19  2  0
 19 20  1  0
 20 12  1  0
 21 10  1  0
 22 21  2  0
 23 24  1  0
 24 26  1  0
 25 24  2  0
 27 26  1  1
 27 28  1  0
 28 21  1  0
 29 27  1  0
 29 30  1  0
 31 29  2  0
M  END
$$$$
