QLN.pdb
     RDKit          3D

 26 25  0  0  1  0  0  0  0  0999 V2000
    9.5197  -13.3417   17.8058 N   0  0  0  0  0  0  0  0  0  0  0  0
    8.1716  -13.5963   18.1182 C   0  0  0  0  0  0  0  0  0  0  0  0
    7.3017  -13.6128   17.1993 O   0  0  0  0  0  0  0  0  0  0  0  0
    7.7015  -13.8534   19.5022 C   0  0  0  0  0  0  0  0  0  0  0  0
    8.8346  -13.9535   20.4694 C   0  0  0  0  0  0  0  0  0  0  0  0
    8.5623  -15.0712   21.4356 C   0  0  2  0  0  0  0  0  0  0  0  0
    7.1348  -15.3628   21.4004 N   0  0  0  0  0  0  0  0  0  0  0  0
    8.9921  -14.7630   22.8187 C   0  0  0  0  0  0  0  0  0  0  0  0
   10.1721  -14.4350   23.0534 O   0  0  0  0  0  0  0  0  0  0  0  0
    5.4623  -12.4163   26.3184 C   0  0  0  0  0  0  0  0  0  0  0  0
    6.7042  -12.7892   25.5341 C   0  0  1  0  0  0  0  0  0  0  0  0
    7.7516  -11.6855   25.6703 C   0  0  0  0  0  0  0  0  0  0  0  0
    7.2390  -14.1043   26.0277 C   0  0  0  0  0  0  0  0  0  0  0  0
    8.4158  -14.5760   25.2319 C   0  0  2  0  0  0  0  0  0  0  0  0
    8.0539  -14.8439   23.8693 N   0  0  0  0  0  0  0  0  0  0  0  0
    9.0338  -15.7906   25.8547 C   0  0  0  0  0  0  0  0  0  0  0  0
    9.2196  -15.8405   27.0904 O   0  0  0  0  0  0  0  0  0  0  0  0
   11.2677  -20.4273   26.5064 N   0  0  0  0  0  0  0  0  0  0  0  0
   10.2451  -20.5173   25.5218 C   0  0  0  0  0  0  0  0  0  0  0  0
    9.9276  -21.6566   25.1072 O   0  0  0  0  0  0  0  0  0  0  0  0
    9.5827  -19.3261   25.0065 C   0  0  0  0  0  0  0  0  0  0  0  0
   10.0440  -18.0594   25.6747 C   0  0  2  0  0  0  0  0  0  0  0  0
    9.4127  -16.8899   25.0574 N   0  0  0  0  0  0  0  0  0  0  0  0
   11.5023  -17.9467   25.5951 C   0  0  0  0  0  0  0  0  0  0  0  0
   12.4115  -18.5557   26.4282 O   0  0  0  0  0  0  0  0  0  0  0  0
   11.9983  -17.2164   24.6703 O   0  0  0  0  0  0  0  0  0  0  0  0
  1  2  1  0
  2  4  1  0
  3  2  2  0
  4  5  1  0
  5  6  1  0
  6  7  1  1
  8  6  1  0
  9  8  2  0
 11 10  1  1
 12 11  1  0
 13 11  1  0
 14 15  1  0
 14 13  1  1
 15  8  1  0
 16 14  1  0
 17 16  2  0
 19 18  1  0
 19 21  1  0
 20 19  2  0
 22 21  1  6
 22 23  1  0
 23 16  1  0
 24 25  1  0
 24 22  1  0
 26 24  2  0
M  END
$$$$
