QLN.pdb
     RDKit          3D

 26 25  0  0  1  0  0  0  0  0999 V2000
   12.8882  -18.6970   15.9023 N   0  0  0  0  0  0  0  0  0  0  0  0
   11.6202  -18.3239   16.3846 C   0  0  0  0  0  0  0  0  0  0  0  0
   10.8034  -17.7295   15.6225 O   0  0  0  0  0  0  0  0  0  0  0  0
   11.1763  -18.5963   17.7744 C   0  0  0  0  0  0  0  0  0  0  0  0
   11.2005  -17.3670   18.6215 C   0  0  0  0  0  0  0  0  0  0  0  0
   10.7281  -17.7112   20.0054 C   0  0  2  0  0  0  0  0  0  0  0  0
    9.4630  -18.4250   19.8879 N   0  0  0  0  0  0  0  0  0  0  0  0
   10.5726  -16.5259   20.8793 C   0  0  0  0  0  0  0  0  0  0  0  0
   11.5759  -15.9068   21.2856 O   0  0  0  0  0  0  0  0  0  0  0  0
    6.4084  -13.3200   19.9208 C   0  0  0  0  0  0  0  0  0  0  0  0
    7.7650  -13.9012   20.2645 C   0  0  1  0  0  0  0  0  0  0  0  0
    8.8630  -12.9090   19.8854 C   0  0  0  0  0  0  0  0  0  0  0  0
    7.8183  -14.2306   21.7301 C   0  0  0  0  0  0  0  0  0  0  0  0
    9.0650  -14.9703   22.1032 C   0  0  2  0  0  0  0  0  0  0  0  0
    9.2782  -16.1031   21.2484 N   0  0  0  0  0  0  0  0  0  0  0  0
    9.0254  -15.4010   23.5378 C   0  0  0  0  0  0  0  0  0  0  0  0
    8.8137  -14.5635   24.4421 O   0  0  0  0  0  0  0  0  0  0  0  0
    6.2199  -18.3807   24.0356 N   0  0  0  0  0  0  0  0  0  0  0  0
    6.8647  -17.8546   25.1891 C   0  0  0  0  0  0  0  0  0  0  0  0
    6.2273  -17.0421   25.8992 O   0  0  0  0  0  0  0  0  0  0  0  0
    8.2242  -18.2436   25.5406 C   0  0  0  0  0  0  0  0  0  0  0  0
    9.2315  -17.1532   25.2950 C   0  0  2  0  0  0  0  0  0  0  0  0
    9.2261  -16.7525   23.8854 N   0  0  0  0  0  0  0  0  0  0  0  0
   10.5696  -17.6020   25.6870 C   0  0  0  0  0  0  0  0  0  0  0  0
   10.9829  -17.9088   26.9624 O   0  0  0  0  0  0  0  0  0  0  0  0
   11.4533  -17.7261   24.7716 O   0  0  0  0  0  0  0  0  0  0  0  0
  1  2  1  0
  2  4  1  0
  3  2  2  0
  4  5  1  0
  5  6  1  0
  6  7  1  6
  8  6  1  0
  9  8  2  0
 11 10  1  1
 12 11  1  0
 13 11  1  0
 14 15  1  0
 14 13  1  6
 15  8  1  0
 16 14  1  0
 17 16  2  0
 19 18  1  0
 19 21  1  0
 20 19  2  0
 22 21  1  6
 22 23  1  0
 23 16  1  0
 24 25  1  0
 24 22  1  0
 26 24  2  0
M  END
$$$$
