QLN.pdb
     RDKit          3D

 26 25  0  0  1  0  0  0  0  0999 V2000
    8.3887  -12.3449   18.1052 N   0  0  0  0  0  0  0  0  0  0  0  0
    8.0719  -13.6522   17.6924 C   0  0  0  0  0  0  0  0  0  0  0  0
    7.5859  -13.8516   16.5412 O   0  0  0  0  0  0  0  0  0  0  0  0
    8.2819  -14.8412   18.5554 C   0  0  0  0  0  0  0  0  0  0  0  0
    8.8279  -14.4718   19.8952 C   0  0  0  0  0  0  0  0  0  0  0  0
    8.4194  -15.5121   20.8991 C   0  0  2  0  0  0  0  0  0  0  0  0
    6.9706  -15.6573   20.8372 N   0  0  0  0  0  0  0  0  0  0  0  0
    8.8472  -15.1889   22.2794 C   0  0  0  0  0  0  0  0  0  0  0  0
   10.0445  -14.9436   22.5267 O   0  0  0  0  0  0  0  0  0  0  0  0
    5.5431  -12.6621   25.9618 C   0  0  0  0  0  0  0  0  0  0  0  0
    6.7665  -13.0853   25.1740 C   0  0  1  0  0  0  0  0  0  0  0  0
    7.9278  -12.1399   25.4763 C   0  0  0  0  0  0  0  0  0  0  0  0
    7.1233  -14.5047   25.5164 C   0  0  0  0  0  0  0  0  0  0  0  0
    8.2604  -15.0216   24.6916 C   0  0  2  0  0  0  0  0  0  0  0  0
    7.8872  -15.1611   23.3129 N   0  0  0  0  0  0  0  0  0  0  0  0
    8.7646  -16.3263   25.2289 C   0  0  0  0  0  0  0  0  0  0  0  0
    8.0389  -17.3443   25.1968 O   0  0  0  0  0  0  0  0  0  0  0  0
   12.8404  -20.1357   24.8428 N   0  0  0  0  0  0  0  0  0  0  0  0
   12.6704  -19.1158   25.8196 C   0  0  0  0  0  0  0  0  0  0  0  0
   13.0991  -19.3336   26.9770 O   0  0  0  0  0  0  0  0  0  0  0  0
   12.0189  -17.8543   25.4921 C   0  0  0  0  0  0  0  0  0  0  0  0
   10.6350  -17.7378   26.0712 C   0  0  2  0  0  0  0  0  0  0  0  0
   10.0603  -16.4224   25.7761 N   0  0  0  0  0  0  0  0  0  0  0  0
   10.6713  -17.9596   27.5186 C   0  0  0  0  0  0  0  0  0  0  0  0
   11.2228  -17.1183   28.4564 O   0  0  0  0  0  0  0  0  0  0  0  0
   10.1463  -19.0324   27.9749 O   0  0  0  0  0  0  0  0  0  0  0  0
  1  2  1  0
  2  4  1  0
  3  2  2  0
  4  5  1  0
  5  6  1  0
  6  7  1  1
  8  6  1  0
  9  8  2  0
 11 10  1  1
 12 11  1  0
 13 11  1  0
 14 15  1  0
 14 13  1  1
 15  8  1  0
 16 14  1  0
 17 16  2  0
 19 18  1  0
 19 21  1  0
 20 19  2  0
 22 21  1  1
 22 23  1  0
 23 16  1  0
 24 25  1  0
 24 22  1  0
 26 24  2  0
M  END
$$$$
