QLN.pdb
     RDKit          3D

 26 25  0  0  1  0  0  0  0  0999 V2000
    8.8528  -12.3991   18.3882 N   0  0  0  0  0  0  0  0  0  0  0  0
    8.0016  -13.5002   18.1812 C   0  0  0  0  0  0  0  0  0  0  0  0
    7.6420  -13.8099   17.0081 O   0  0  0  0  0  0  0  0  0  0  0  0
    7.4890  -14.3404   19.2920 C   0  0  0  0  0  0  0  0  0  0  0  0
    7.9357  -13.8395   20.6258 C   0  0  0  0  0  0  0  0  0  0  0  0
    8.2764  -15.0096   21.5043 C   0  0  2  0  0  0  0  0  0  0  0  0
    7.1033  -15.8702   21.5879 N   0  0  0  0  0  0  0  0  0  0  0  0
    8.7213  -14.6106   22.8591 C   0  0  0  0  0  0  0  0  0  0  0  0
    9.7786  -13.9671   23.0109 O   0  0  0  0  0  0  0  0  0  0  0  0
    5.6660  -12.0627   26.2570 C   0  0  0  0  0  0  0  0  0  0  0  0
    6.8887  -12.6067   25.5458 C   0  0  1  0  0  0  0  0  0  0  0  0
    8.0678  -11.6562   25.7455 C   0  0  0  0  0  0  0  0  0  0  0  0
    7.2084  -13.9798   26.0671 C   0  0  0  0  0  0  0  0  0  0  0  0
    8.3294  -14.6279   25.3161 C   0  0  2  0  0  0  0  0  0  0  0  0
    7.9376  -14.9652   23.9774 N   0  0  0  0  0  0  0  0  0  0  0  0
    8.8254  -15.8451   26.0355 C   0  0  0  0  0  0  0  0  0  0  0  0
    9.0338  -15.8080   27.2681 O   0  0  0  0  0  0  0  0  0  0  0  0
    6.2540  -19.2355   25.0193 N   0  0  0  0  0  0  0  0  0  0  0  0
    7.2729  -19.3276   26.0074 C   0  0  0  0  0  0  0  0  0  0  0  0
    6.9265  -19.3115   27.2118 O   0  0  0  0  0  0  0  0  0  0  0  0
    8.6783  -19.4375   25.6384 C   0  0  0  0  0  0  0  0  0  0  0  0
    9.4929  -18.2439   26.0576 C   0  0  2  0  0  0  0  0  0  0  0  0
    9.0628  -17.0445   25.3337 N   0  0  0  0  0  0  0  0  0  0  0  0
   10.9166  -18.4935   25.8201 C   0  0  0  0  0  0  0  0  0  0  0  0
   11.6957  -19.4290   26.4599 O   0  0  0  0  0  0  0  0  0  0  0  0
   11.5114  -17.7843   24.9383 O   0  0  0  0  0  0  0  0  0  0  0  0
  1  2  1  0
  2  4  1  0
  3  2  2  0
  4  5  1  0
  5  6  1  0
  6  7  1  1
  8  6  1  0
  9  8  2  0
 11 10  1  1
 12 11  1  0
 13 11  1  0
 14 15  1  0
 14 13  1  1
 15  8  1  0
 16 14  1  0
 17 16  2  0
 19 18  1  0
 19 21  1  0
 20 19  2  0
 22 21  1  6
 22 23  1  0
 23 16  1  0
 24 25  1  0
 24 22  1  0
 26 24  2  0
M  END
$$$$
