QLN.pdb
     RDKit          3D

 26 25  0  0  1  0  0  0  0  0999 V2000
    8.8172  -12.7540   17.4934 N   0  0  0  0  0  0  0  0  0  0  0  0
    7.9656  -13.8737   17.5241 C   0  0  0  0  0  0  0  0  0  0  0  0
    7.3197  -14.2057   16.4878 O   0  0  0  0  0  0  0  0  0  0  0  0
    7.7784  -14.7086   18.7368 C   0  0  0  0  0  0  0  0  0  0  0  0
    8.5625  -14.1935   19.8983 C   0  0  0  0  0  0  0  0  0  0  0  0
    8.6236  -15.2527   20.9619 C   0  0  2  0  0  0  0  0  0  0  0  0
    7.3747  -16.0029   20.9266 N   0  0  0  0  0  0  0  0  0  0  0  0
    8.8581  -14.7042   22.3173 C   0  0  0  0  0  0  0  0  0  0  0  0
    9.9586  -14.1959   22.6094 O   0  0  0  0  0  0  0  0  0  0  0  0
    7.7781  -11.7381   26.3202 C   0  0  0  0  0  0  0  0  0  0  0  0
    6.8650  -12.9430   26.4258 C   0  0  1  0  0  0  0  0  0  0  0  0
    5.5107  -12.5167   26.9894 C   0  0  0  0  0  0  0  0  0  0  0  0
    6.7100  -13.5808   25.0736 C   0  0  0  0  0  0  0  0  0  0  0  0
    7.9788  -14.2125   24.5923 C   0  0  2  0  0  0  0  0  0  0  0  0
    7.8243  -14.7621   23.2757 N   0  0  0  0  0  0  0  0  0  0  0  0
    8.4486  -15.2689   25.5454 C   0  0  0  0  0  0  0  0  0  0  0  0
    8.5909  -15.0048   26.7595 O   0  0  0  0  0  0  0  0  0  0  0  0
    6.1844  -18.5716   24.7374 N   0  0  0  0  0  0  0  0  0  0  0  0
    6.9714  -18.6635   25.9186 C   0  0  0  0  0  0  0  0  0  0  0  0
    6.3872  -18.5638   27.0229 O   0  0  0  0  0  0  0  0  0  0  0  0
    8.4128  -18.8671   25.8546 C   0  0  0  0  0  0  0  0  0  0  0  0
    9.1962  -17.5944   26.0287 C   0  0  2  0  0  0  0  0  0  0  0  0
    8.7354  -16.5708   25.0866 N   0  0  0  0  0  0  0  0  0  0  0  0
   10.6259  -17.8494   25.8374 C   0  0  0  0  0  0  0  0  0  0  0  0
   11.4278  -17.2955   24.8670 O   0  0  0  0  0  0  0  0  0  0  0  0
   11.2030  -18.6623   26.6378 O   0  0  0  0  0  0  0  0  0  0  0  0
  1  2  1  0
  2  4  1  0
  3  2  2  0
  4  5  1  0
  5  6  1  0
  6  7  1  1
  8  6  1  0
  9  8  2  0
 11 10  1  6
 12 11  1  0
 13 11  1  0
 14 15  1  0
 14 13  1  1
 15  8  1  0
 16 14  1  0
 17 16  2  0
 19 18  1  0
 19 21  1  0
 20 19  2  0
 22 21  1  6
 22 23  1  0
 23 16  1  0
 24 25  1  0
 24 22  1  0
 26 24  2  0
M  END
$$$$
