QLN.pdb
     RDKit          3D

 26 25  0  0  1  0  0  0  0  0999 V2000
    7.6668  -11.8615   18.2377 N   0  0  0  0  0  0  0  0  0  0  0  0
    7.8061  -13.2605   18.2941 C   0  0  0  0  0  0  0  0  0  0  0  0
    8.2746  -13.8899   17.3013 O   0  0  0  0  0  0  0  0  0  0  0  0
    7.4236  -14.0594   19.4849 C   0  0  0  0  0  0  0  0  0  0  0  0
    8.3789  -13.8707   20.6168 C   0  0  0  0  0  0  0  0  0  0  0  0
    8.4506  -15.1386   21.4194 C   0  0  2  0  0  0  0  0  0  0  0  0
    7.1231  -15.7398   21.4364 N   0  0  0  0  0  0  0  0  0  0  0  0
    8.9386  -14.9262   22.8013 C   0  0  0  0  0  0  0  0  0  0  0  0
   10.1320  -14.6305   23.0094 O   0  0  0  0  0  0  0  0  0  0  0  0
    6.0152  -12.3190   26.5974 C   0  0  0  0  0  0  0  0  0  0  0  0
    7.1471  -12.8601   25.7473 C   0  0  1  0  0  0  0  0  0  0  0  0
    8.4057  -12.0234   25.9700 C   0  0  0  0  0  0  0  0  0  0  0  0
    7.3914  -14.3034   26.0886 C   0  0  0  0  0  0  0  0  0  0  0  0
    8.4652  -14.9151   25.2439 C   0  0  2  0  0  0  0  0  0  0  0  0
    8.0406  -15.0615   23.8810 N   0  0  0  0  0  0  0  0  0  0  0  0
    8.8978  -16.2377   25.7993 C   0  0  0  0  0  0  0  0  0  0  0  0
    8.0716  -16.9824   26.3711 O   0  0  0  0  0  0  0  0  0  0  0  0
   10.9115  -20.9403   23.6632 N   0  0  0  0  0  0  0  0  0  0  0  0
   10.2008  -20.2790   24.7027 C   0  0  0  0  0  0  0  0  0  0  0  0
    9.8090  -20.9654   25.6754 O   0  0  0  0  0  0  0  0  0  0  0  0
    9.9327  -18.8479   24.6454 C   0  0  0  0  0  0  0  0  0  0  0  0
   10.5693  -18.0833   25.7742 C   0  0  2  0  0  0  0  0  0  0  0  0
   10.2386  -16.6584   25.6845 N   0  0  0  0  0  0  0  0  0  0  0  0
   12.0224  -18.2664   25.7538 C   0  0  0  0  0  0  0  0  0  0  0  0
   12.9532  -17.3382   25.3492 O   0  0  0  0  0  0  0  0  0  0  0  0
   12.4915  -19.3896   26.1448 O   0  0  0  0  0  0  0  0  0  0  0  0
  1  2  1  0
  2  4  1  0
  3  2  2  0
  4  5  1  0
  5  6  1  0
  6  7  1  1
  8  6  1  0
  9  8  2  0
 11 10  1  1
 12 11  1  0
 13 11  1  0
 14 15  1  0
 14 13  1  1
 15  8  1  0
 16 14  1  0
 17 16  2  0
 19 18  1  0
 19 21  1  0
 20 19  2  0
 22 21  1  6
 22 23  1  0
 23 16  1  0
 24 25  1  0
 24 22  1  0
 26 24  2  0
M  END
$$$$
