QLN.pdb
     RDKit          3D

 26 25  0  0  1  0  0  0  0  0999 V2000
    8.8355  -12.1553   18.3852 N   0  0  0  0  0  0  0  0  0  0  0  0
    7.9402  -13.1696   17.9989 C   0  0  0  0  0  0  0  0  0  0  0  0
    7.7044  -13.3716   16.7721 O   0  0  0  0  0  0  0  0  0  0  0  0
    7.2388  -14.0385   18.9766 C   0  0  0  0  0  0  0  0  0  0  0  0
    7.6216  -13.7206   20.3843 C   0  0  0  0  0  0  0  0  0  0  0  0
    8.0297  -14.9862   21.0833 C   0  0  2  0  0  0  0  0  0  0  0  0
    6.8736  -15.8725   21.1272 N   0  0  0  0  0  0  0  0  0  0  0  0
    8.5544  -14.7544   22.4484 C   0  0  0  0  0  0  0  0  0  0  0  0
    9.7039  -14.3001   22.6128 O   0  0  0  0  0  0  0  0  0  0  0  0
    5.5699  -12.6811   26.4556 C   0  0  0  0  0  0  0  0  0  0  0  0
    6.7711  -13.0378   25.6033 C   0  0  1  0  0  0  0  0  0  0  0  0
    7.9330  -12.1018   25.9309 C   0  0  0  0  0  0  0  0  0  0  0  0
    7.1513  -14.4727   25.8395 C   0  0  0  0  0  0  0  0  0  0  0  0
    8.2266  -14.9383   24.9080 C   0  0  2  0  0  0  0  0  0  0  0  0
    7.7413  -15.0524   23.5623 N   0  0  0  0  0  0  0  0  0  0  0  0
    8.8058  -16.2425   25.3648 C   0  0  0  0  0  0  0  0  0  0  0  0
    8.1051  -17.2784   25.3645 O   0  0  0  0  0  0  0  0  0  0  0  0
   11.8677  -19.0587   23.7465 N   0  0  0  0  0  0  0  0  0  0  0  0
   12.2249  -17.8795   24.4571 C   0  0  0  0  0  0  0  0  0  0  0  0
   12.6647  -16.9077   23.7991 O   0  0  0  0  0  0  0  0  0  0  0  0
   12.0864  -17.7964   25.9052 C   0  0  0  0  0  0  0  0  0  0  0  0
   10.6665  -17.5722   26.3497 C   0  0  2  0  0  0  0  0  0  0  0  0
   10.1448  -16.3180   25.7997 N   0  0  0  0  0  0  0  0  0  0  0  0
   10.5908  -17.5521   27.8124 C   0  0  0  0  0  0  0  0  0  0  0  0
   10.8700  -18.6023   28.6554 O   0  0  0  0  0  0  0  0  0  0  0  0
   10.2320  -16.4642   28.3800 O   0  0  0  0  0  0  0  0  0  0  0  0
  1  2  1  0
  2  4  1  0
  3  2  2  0
  4  5  1  0
  5  6  1  0
  6  7  1  1
  8  6  1  0
  9  8  2  0
 11 10  1  1
 12 11  1  0
 13 11  1  0
 14 15  1  0
 14 13  1  1
 15  8  1  0
 16 14  1  0
 17 16  2  0
 19 18  1  0
 19 21  1  0
 20 19  2  0
 22 21  1  1
 22 23  1  0
 23 16  1  0
 24 25  1  0
 24 22  1  0
 26 24  2  0
M  END
$$$$
