QLN.pdb
     RDKit          3D

 26 25  0  0  1  0  0  0  0  0999 V2000
    8.0310  -14.8659   13.0409 N   0  0  0  0  0  0  0  0  0  0  0  0
    8.9777  -15.6990   12.4170 C   0  0  0  0  0  0  0  0  0  0  0  0
    8.6984  -16.2623   11.3189 O   0  0  0  0  0  0  0  0  0  0  0  0
   10.3212  -15.9602   12.9911 C   0  0  0  0  0  0  0  0  0  0  0  0
   10.5585  -15.1781   14.2407 C   0  0  0  0  0  0  0  0  0  0  0  0
   10.7297  -16.1272   15.3926 C   0  0  2  0  0  0  0  0  0  0  0  0
    9.5184  -16.9301   15.5021 N   0  0  0  0  0  0  0  0  0  0  0  0
   11.0123  -15.4420   16.6746 C   0  0  0  0  0  0  0  0  0  0  0  0
   12.0984  -14.8548   16.8489 O   0  0  0  0  0  0  0  0  0  0  0  0
    6.7023  -13.7276   19.8399 C   0  0  0  0  0  0  0  0  0  0  0  0
    8.0360  -13.6758   19.1221 C   0  0  1  0  0  0  0  0  0  0  0  0
    8.6120  -12.2634   19.2042 C   0  0  0  0  0  0  0  0  0  0  0  0
    8.9770  -14.6784   19.7292 C   0  0  0  0  0  0  0  0  0  0  0  0
   10.2528  -14.8036   18.9563 C   0  0  2  0  0  0  0  0  0  0  0  0
   10.0410  -15.4596   17.6976 N   0  0  0  0  0  0  0  0  0  0  0  0
   11.2946  -15.5289   19.7524 C   0  0  0  0  0  0  0  0  0  0  0  0
   11.2417  -16.7722   19.8758 O   0  0  0  0  0  0  0  0  0  0  0  0
   15.8716  -16.2434   19.3795 N   0  0  0  0  0  0  0  0  0  0  0  0
   15.2848  -15.0171   19.7977 C   0  0  0  0  0  0  0  0  0  0  0  0
   15.3099  -14.0514   18.9992 O   0  0  0  0  0  0  0  0  0  0  0  0
   14.6716  -14.8803   21.1124 C   0  0  0  0  0  0  0  0  0  0  0  0
   13.3187  -15.5327   21.2026 C   0  0  2  0  0  0  0  0  0  0  0  0
   12.3449  -14.8204   20.3708 N   0  0  0  0  0  0  0  0  0  0  0  0
   12.8645  -15.5665   22.5948 C   0  0  0  0  0  0  0  0  0  0  0  0
   11.7487  -14.9420   23.1012 O   0  0  0  0  0  0  0  0  0  0  0  0
   13.5577  -16.2342   23.4363 O   0  0  0  0  0  0  0  0  0  0  0  0
  1  2  1  0
  2  4  1  0
  3  2  2  0
  4  5  1  0
  5  6  1  0
  6  7  1  1
  8  6  1  0
  9  8  2  0
 11 10  1  1
 12 11  1  0
 13 11  1  0
 14 15  1  0
 14 13  1  1
 15  8  1  0
 16 14  1  0
 17 16  2  0
 19 18  1  0
 19 21  1  0
 20 19  2  0
 22 21  1  1
 22 23  1  0
 23 16  1  0
 24 25  1  0
 24 22  1  0
 26 24  2  0
M  END
$$$$
