QLN.pdb
     RDKit          3D

 26 25  0  0  1  0  0  0  0  0999 V2000
    7.3488  -19.5601   19.2303 N   0  0  0  0  0  0  0  0  0  0  0  0
    7.9200  -19.5276   20.5158 C   0  0  0  0  0  0  0  0  0  0  0  0
    7.4089  -20.2079   21.4524 O   0  0  0  0  0  0  0  0  0  0  0  0
    9.1204  -18.7181   20.8422 C   0  0  0  0  0  0  0  0  0  0  0  0
    8.9302  -17.9084   22.0821 C   0  0  0  0  0  0  0  0  0  0  0  0
    8.8573  -16.4533   21.7158 C   0  0  2  0  0  0  0  0  0  0  0  0
    9.8568  -16.1945   20.6872 N   0  0  0  0  0  0  0  0  0  0  0  0
    9.0609  -15.5508   22.8720 C   0  0  0  0  0  0  0  0  0  0  0  0
   10.2102  -15.1923   23.1965 O   0  0  0  0  0  0  0  0  0  0  0  0
    7.6397  -11.6682   26.1606 C   0  0  0  0  0  0  0  0  0  0  0  0
    6.8958  -12.9433   26.5029 C   0  0  1  0  0  0  0  0  0  0  0  0
    5.5241  -12.6013   27.0818 C   0  0  0  0  0  0  0  0  0  0  0  0
    6.7647  -13.7985   25.2738 C   0  0  0  0  0  0  0  0  0  0  0  0
    8.0821  -14.3384   24.8118 C   0  0  2  0  0  0  0  0  0  0  0  0
    7.9419  -15.0999   23.6035 N   0  0  0  0  0  0  0  0  0  0  0  0
    8.7265  -15.1696   25.8790 C   0  0  0  0  0  0  0  0  0  0  0  0
    8.9047  -14.6986   27.0237 O   0  0  0  0  0  0  0  0  0  0  0  0
    9.5279  -19.3901   29.0565 N   0  0  0  0  0  0  0  0  0  0  0  0
    9.6854  -19.5821   27.6560 C   0  0  0  0  0  0  0  0  0  0  0  0
   10.3710  -20.5576   27.2702 O   0  0  0  0  0  0  0  0  0  0  0  0
    9.0714  -18.6766   26.6935 C   0  0  0  0  0  0  0  0  0  0  0  0
    9.7097  -17.3141   26.6757 C   0  0  2  0  0  0  0  0  0  0  0  0
    9.1390  -16.4900   25.6067 N   0  0  0  0  0  0  0  0  0  0  0  0
   11.1588  -17.4359   26.5002 C   0  0  0  0  0  0  0  0  0  0  0  0
   12.0892  -17.5863   27.5018 O   0  0  0  0  0  0  0  0  0  0  0  0
   11.6244  -17.4006   25.3100 O   0  0  0  0  0  0  0  0  0  0  0  0
  1  2  1  0
  2  4  1  0
  3  2  2  0
  4  5  1  0
  5  6  1  0
  6  7  1  6
  8  6  1  0
  9  8  2  0
 11 10  1  6
 12 11  1  0
 13 11  1  0
 14 15  1  0
 14 13  1  1
 15  8  1  0
 16 14  1  0
 17 16  2  0
 19 18  1  0
 19 21  1  0
 20 19  2  0
 22 21  1  6
 22 23  1  0
 23 16  1  0
 24 25  1  0
 24 22  1  0
 26 24  2  0
M  END
$$$$
