QLN.pdb
     RDKit          3D

 26 25  0  0  1  0  0  0  0  0999 V2000
    8.1672  -12.4800   17.3339 N   0  0  0  0  0  0  0  0  0  0  0  0
    7.7280  -13.8140   17.2477 C   0  0  0  0  0  0  0  0  0  0  0  0
    7.3321  -14.2791   16.1394 O   0  0  0  0  0  0  0  0  0  0  0  0
    7.7029  -14.7295   18.4155 C   0  0  0  0  0  0  0  0  0  0  0  0
    8.2302  -14.0769   19.6506 C   0  0  0  0  0  0  0  0  0  0  0  0
    8.5040  -15.1293   20.6872 C   0  0  2  0  0  0  0  0  0  0  0  0
    7.3342  -15.9940   20.7748 N   0  0  0  0  0  0  0  0  0  0  0  0
    8.8300  -14.5658   22.0172 C   0  0  0  0  0  0  0  0  0  0  0  0
    9.9581  -14.0821   22.2370 O   0  0  0  0  0  0  0  0  0  0  0  0
    7.9180  -11.6270   26.1406 C   0  0  0  0  0  0  0  0  0  0  0  0
    7.0723  -12.8750   26.2954 C   0  0  1  0  0  0  0  0  0  0  0  0
    5.7508  -12.5221   26.9756 C   0  0  0  0  0  0  0  0  0  0  0  0
    6.8360  -13.4969   24.9476 C   0  0  0  0  0  0  0  0  0  0  0  0
    8.0969  -14.0167   24.3306 C   0  0  2  0  0  0  0  0  0  0  0  0
    7.8521  -14.5812   23.0340 N   0  0  0  0  0  0  0  0  0  0  0  0
    8.7551  -15.0256   25.2216 C   0  0  0  0  0  0  0  0  0  0  0  0
    8.2597  -15.3010   26.3364 O   0  0  0  0  0  0  0  0  0  0  0  0
   10.3321  -19.1545   27.5878 N   0  0  0  0  0  0  0  0  0  0  0  0
    9.9714  -19.1554   26.2119 C   0  0  0  0  0  0  0  0  0  0  0  0
   10.0999  -20.2251   25.5716 O   0  0  0  0  0  0  0  0  0  0  0  0
    9.4672  -17.9537   25.5601 C   0  0  0  0  0  0  0  0  0  0  0  0
   10.4494  -16.8141   25.5837 C   0  0  2  0  0  0  0  0  0  0  0  0
    9.9385  -15.6755   24.8155 N   0  0  0  0  0  0  0  0  0  0  0  0
   11.7410  -17.2473   25.0456 C   0  0  0  0  0  0  0  0  0  0  0  0
   12.8298  -17.6595   25.7778 O   0  0  0  0  0  0  0  0  0  0  0  0
   11.8922  -17.2492   23.7761 O   0  0  0  0  0  0  0  0  0  0  0  0
  1  2  1  0
  2  4  1  0
  3  2  2  0
  4  5  1  0
  5  6  1  0
  6  7  1  1
  8  6  1  0
  9  8  2  0
 11 10  1  6
 12 11  1  0
 13 11  1  0
 14 15  1  0
 14 13  1  1
 15  8  1  0
 16 14  1  0
 17 16  2  0
 19 18  1  0
 19 21  1  0
 20 19  2  0
 22 21  1  6
 22 23  1  0
 23 16  1  0
 24 25  1  0
 24 22  1  0
 26 24  2  0
M  END
$$$$
