QLN.pdb
     RDKit          3D

 26 25  0  0  1  0  0  0  0  0999 V2000
    8.4552  -19.1225   19.4211 N   0  0  0  0  0  0  0  0  0  0  0  0
    7.6117  -18.1812   18.8029 C   0  0  0  0  0  0  0  0  0  0  0  0
    7.1502  -18.4086   17.6468 O   0  0  0  0  0  0  0  0  0  0  0  0
    7.2232  -16.9029   19.4492 C   0  0  0  0  0  0  0  0  0  0  0  0
    7.8701  -16.7303   20.7837 C   0  0  0  0  0  0  0  0  0  0  0  0
    7.2607  -15.5460   21.4788 C   0  0  2  0  0  0  0  0  0  0  0  0
    7.0092  -14.5147   20.4803 N   0  0  0  0  0  0  0  0  0  0  0  0
    8.1073  -15.0122   22.5701 C   0  0  0  0  0  0  0  0  0  0  0  0
    9.2810  -14.6586   22.3414 O   0  0  0  0  0  0  0  0  0  0  0  0
    5.7410  -12.1259   26.6719 C   0  0  0  0  0  0  0  0  0  0  0  0
    6.7321  -12.5438   25.6043 C   0  0  1  0  0  0  0  0  0  0  0  0
    7.7373  -11.4188   25.3642 C   0  0  0  0  0  0  0  0  0  0  0  0
    7.4276  -13.8078   26.0259 C   0  0  0  0  0  0  0  0  0  0  0  0
    8.3267  -14.3473   24.9577 C   0  0  2  0  0  0  0  0  0  0  0  0
    7.5737  -14.9072   23.8719 N   0  0  0  0  0  0  0  0  0  0  0  0
    9.2724  -15.3670   25.5155 C   0  0  0  0  0  0  0  0  0  0  0  0
   10.0625  -15.0583   26.4345 O   0  0  0  0  0  0  0  0  0  0  0  0
   12.4472  -19.1894   26.3479 N   0  0  0  0  0  0  0  0  0  0  0  0
   12.7314  -18.0750   25.5109 C   0  0  0  0  0  0  0  0  0  0  0  0
   13.9250  -17.8737   25.1860 O   0  0  0  0  0  0  0  0  0  0  0  0
   11.6728  -17.1904   25.0419 C   0  0  0  0  0  0  0  0  0  0  0  0
   10.3005  -17.6344   25.4704 C   0  0  2  0  0  0  0  0  0  0  0  0
    9.2834  -16.6840   25.0125 N   0  0  0  0  0  0  0  0  0  0  0  0
   10.2444  -17.7707   26.9278 C   0  0  0  0  0  0  0  0  0  0  0  0
    9.9429  -16.7742   27.8264 O   0  0  0  0  0  0  0  0  0  0  0  0
   10.4974  -18.9173   27.4336 O   0  0  0  0  0  0  0  0  0  0  0  0
  1  2  1  0
  2  4  1  0
  3  2  2  0
  4  5  1  0
  5  6  1  0
  6  7  1  6
  8  6  1  0
  9  8  2  0
 11 10  1  1
 12 11  1  0
 13 11  1  0
 14 15  1  0
 14 13  1  1
 15  8  1  0
 16 14  1  0
 17 16  2  0
 19 18  1  0
 19 21  1  0
 20 19  2  0
 22 21  1  1
 22 23  1  0
 23 16  1  0
 24 25  1  0
 24 22  1  0
 26 24  2  0
M  END
$$$$
