QLN.pdb
     RDKit          3D

 26 25  0  0  1  0  0  0  0  0999 V2000
   11.5283  -17.6209   17.8679 N   0  0  0  0  0  0  0  0  0  0  0  0
   10.5746  -18.2250   18.7077 C   0  0  0  0  0  0  0  0  0  0  0  0
   10.6946  -19.4435   19.0272 O   0  0  0  0  0  0  0  0  0  0  0  0
    9.4051  -17.4924   19.2538 C   0  0  0  0  0  0  0  0  0  0  0  0
    9.8069  -16.4669   20.2619 C   0  0  0  0  0  0  0  0  0  0  0  0
    9.2420  -16.8434   21.6020 C   0  0  2  0  0  0  0  0  0  0  0  0
    7.8535  -17.2435   21.4122 N   0  0  0  0  0  0  0  0  0  0  0  0
    9.3330  -15.7529   22.5996 C   0  0  0  0  0  0  0  0  0  0  0  0
   10.4197  -15.1772   22.8062 O   0  0  0  0  0  0  0  0  0  0  0  0
    7.4944  -11.6289   25.4362 C   0  0  0  0  0  0  0  0  0  0  0  0
    6.9131  -12.9490   25.9012 C   0  0  1  0  0  0  0  0  0  0  0  0
    5.5143  -12.7245   26.4726 C   0  0  0  0  0  0  0  0  0  0  0  0
    6.8778  -13.9190   24.7536 C   0  0  0  0  0  0  0  0  0  0  0  0
    8.2361  -14.4464   24.4109 C   0  0  2  0  0  0  0  0  0  0  0  0
    8.1784  -15.3709   23.3148 N   0  0  0  0  0  0  0  0  0  0  0  0
    8.8789  -15.0902   25.6015 C   0  0  0  0  0  0  0  0  0  0  0  0
    9.6208  -14.4231   26.3554 O   0  0  0  0  0  0  0  0  0  0  0  0
   10.3202  -20.5703   27.8484 N   0  0  0  0  0  0  0  0  0  0  0  0
    9.7808  -19.2756   28.0849 C   0  0  0  0  0  0  0  0  0  0  0  0
    9.9640  -18.7600   29.2125 O   0  0  0  0  0  0  0  0  0  0  0  0
    9.0372  -18.5646   27.0531 C   0  0  0  0  0  0  0  0  0  0  0  0
    9.4878  -17.1398   26.8777 C   0  0  2  0  0  0  0  0  0  0  0  0
    8.6558  -16.4529   25.8860 N   0  0  0  0  0  0  0  0  0  0  0  0
   10.8945  -17.0997   26.4712 C   0  0  0  0  0  0  0  0  0  0  0  0
   11.8816  -16.3248   27.0339 O   0  0  0  0  0  0  0  0  0  0  0  0
   11.2607  -17.8485   25.5018 O   0  0  0  0  0  0  0  0  0  0  0  0
  1  2  1  0
  2  4  1  0
  3  2  2  0
  4  5  1  0
  5  6  1  0
  6  7  1  6
  8  6  1  0
  9  8  2  0
 11 10  1  6
 12 11  1  0
 13 11  1  0
 14 15  1  0
 14 13  1  1
 15  8  1  0
 16 14  1  0
 17 16  2  0
 19 18  1  0
 19 21  1  0
 20 19  2  0
 22 21  1  6
 22 23  1  0
 23 16  1  0
 24 25  1  0
 24 22  1  0
 26 24  2  0
M  END
$$$$
