QLN.pdb
     RDKit          3D

 26 25  0  0  1  0  0  0  0  0999 V2000
    8.3626  -12.1683   18.3567 N   0  0  0  0  0  0  0  0  0  0  0  0
    8.0056  -13.4697   17.9587 C   0  0  0  0  0  0  0  0  0  0  0  0
    7.6809  -13.6969   16.7569 O   0  0  0  0  0  0  0  0  0  0  0  0
    7.9884  -14.6209   18.8953 C   0  0  0  0  0  0  0  0  0  0  0  0
    8.3578  -14.2184   20.2848 C   0  0  0  0  0  0  0  0  0  0  0  0
    8.4006  -15.4399   21.1582 C   0  0  2  0  0  0  0  0  0  0  0  0
    7.0816  -16.0594   21.1359 N   0  0  0  0  0  0  0  0  0  0  0  0
    8.8092  -15.1460   22.5509 C   0  0  0  0  0  0  0  0  0  0  0  0
   10.0010  -14.8950   22.8180 O   0  0  0  0  0  0  0  0  0  0  0  0
    5.7208  -12.3724   26.2622 C   0  0  0  0  0  0  0  0  0  0  0  0
    6.9387  -12.8949   25.5272 C   0  0  1  0  0  0  0  0  0  0  0  0
    8.1902  -12.1727   26.0230 C   0  0  0  0  0  0  0  0  0  0  0  0
    7.0556  -14.3793   25.7323 C   0  0  0  0  0  0  0  0  0  0  0  0
    8.1869  -14.9751   24.9538 C   0  0  2  0  0  0  0  0  0  0  0  0
    7.8371  -15.1526   23.5734 N   0  0  0  0  0  0  0  0  0  0  0  0
    8.6236  -16.2777   25.5518 C   0  0  0  0  0  0  0  0  0  0  0  0
    7.8450  -17.2562   25.5693 O   0  0  0  0  0  0  0  0  0  0  0  0
   11.9016  -20.5534   25.6203 N   0  0  0  0  0  0  0  0  0  0  0  0
   12.2998  -19.3082   26.1807 C   0  0  0  0  0  0  0  0  0  0  0  0
   13.1937  -19.3184   27.0591 O   0  0  0  0  0  0  0  0  0  0  0  0
   11.6919  -18.0554   25.7517 C   0  0  0  0  0  0  0  0  0  0  0  0
   10.4118  -17.7423   26.4779 C   0  0  2  0  0  0  0  0  0  0  0  0
    9.9147  -16.4163   26.1009 N   0  0  0  0  0  0  0  0  0  0  0  0
   10.6214  -17.8099   27.9260 C   0  0  0  0  0  0  0  0  0  0  0  0
   10.5639  -18.9427   28.7038 O   0  0  0  0  0  0  0  0  0  0  0  0
   10.8831  -16.7229   28.5461 O   0  0  0  0  0  0  0  0  0  0  0  0
  1  2  1  0
  2  4  1  0
  3  2  2  0
  4  5  1  0
  5  6  1  0
  6  7  1  1
  8  6  1  0
  9  8  2  0
 11 10  1  1
 12 11  1  0
 13 11  1  0
 14 15  1  0
 14 13  1  1
 15  8  1  0
 16 14  1  0
 17 16  2  0
 19 18  1  0
 19 21  1  0
 20 19  2  0
 22 21  1  6
 22 23  1  0
 23 16  1  0
 24 25  1  0
 24 22  1  0
 26 24  2  0
M  END
$$$$
