QLN.pdb
     RDKit          3D

 26 25  0  0  1  0  0  0  0  0999 V2000
    8.5383  -11.9861   18.4964 N   0  0  0  0  0  0  0  0  0  0  0  0
    8.0035  -13.2267   18.1031 C   0  0  0  0  0  0  0  0  0  0  0  0
    7.6590  -13.4142   16.9000 O   0  0  0  0  0  0  0  0  0  0  0  0
    7.8163  -14.3571   19.0465 C   0  0  0  0  0  0  0  0  0  0  0  0
    8.2571  -14.0109   20.4304 C   0  0  0  0  0  0  0  0  0  0  0  0
    8.3213  -15.2640   21.2565 C   0  0  2  0  0  0  0  0  0  0  0  0
    6.9911  -15.8590   21.2813 N   0  0  0  0  0  0  0  0  0  0  0  0
    8.8069  -15.0282   22.6354 C   0  0  0  0  0  0  0  0  0  0  0  0
   10.0234  -14.8652   22.8556 O   0  0  0  0  0  0  0  0  0  0  0  0
    5.7846  -12.3230   26.2313 C   0  0  0  0  0  0  0  0  0  0  0  0
    6.9771  -12.8653   25.4695 C   0  0  1  0  0  0  0  0  0  0  0  0
    8.1815  -11.9484   25.6749 C   0  0  0  0  0  0  0  0  0  0  0  0
    7.2790  -14.2638   25.9304 C   0  0  0  0  0  0  0  0  0  0  0  0
    8.3003  -14.9397   25.0698 C   0  0  2  0  0  0  0  0  0  0  0  0
    7.8802  -14.9898   23.6985 N   0  0  0  0  0  0  0  0  0  0  0  0
    8.5995  -16.3189   25.5732 C   0  0  0  0  0  0  0  0  0  0  0  0
    8.0070  -17.3088   25.0904 O   0  0  0  0  0  0  0  0  0  0  0  0
   11.8372  -20.0984   26.7222 N   0  0  0  0  0  0  0  0  0  0  0  0
   12.0375  -19.1675   25.6656 C   0  0  0  0  0  0  0  0  0  0  0  0
   12.9044  -19.4371   24.8016 O   0  0  0  0  0  0  0  0  0  0  0  0
   11.2625  -17.9363   25.5837 C   0  0  0  0  0  0  0  0  0  0  0  0
   10.2598  -17.7958   26.6968 C   0  0  2  0  0  0  0  0  0  0  0  0
    9.5504  -16.5175   26.5950 N   0  0  0  0  0  0  0  0  0  0  0  0
   10.9276  -17.9003   27.9963 C   0  0  0  0  0  0  0  0  0  0  0  0
   11.4514  -16.8597   28.7272 O   0  0  0  0  0  0  0  0  0  0  0  0
   11.0464  -19.0612   28.5185 O   0  0  0  0  0  0  0  0  0  0  0  0
  1  2  1  0
  2  4  1  0
  3  2  2  0
  4  5  1  0
  5  6  1  0
  6  7  1  1
  8  6  1  0
  9  8  2  0
 11 10  1  1
 12 11  1  0
 13 11  1  0
 14 15  1  0
 14 13  1  1
 15  8  1  0
 16 14  1  0
 17 16  2  0
 19 18  1  0
 19 21  1  0
 20 19  2  0
 22 21  1  6
 22 23  1  0
 23 16  1  0
 24 25  1  0
 24 22  1  0
 26 24  2  0
M  END
$$$$
