IAY.pdb
     RDKit          3D

 26 26  0  0  1  0  0  0  0  0999 V2000
   18.8483  -14.2764    2.0314 C   0  0  0  0  0  0  0  0  0  0  0  0
   17.6558  -14.5341    2.9014 C   0  0  0  0  0  0  0  0  0  0  0  0
   17.7228  -15.8918    3.5514 C   0  0  2  0  0  0  0  0  0  0  0  0
   17.8775  -16.9418    2.4920 C   0  0  0  0  0  0  0  0  0  0  0  0
   16.5879  -16.1500    4.5163 C   0  0  2  0  0  0  0  0  0  0  0  0
   16.4271  -14.9797    5.3997 N   0  0  0  0  0  0  0  0  0  0  0  0
   16.8206  -17.3083    5.4051 C   0  0  0  0  0  0  0  0  0  0  0  0
   17.8840  -17.3986    6.0869 O   0  0  0  0  0  0  0  0  0  0  0  0
   14.9385  -19.9845    7.0074 C   0  0  0  0  0  0  0  0  0  0  0  0
   16.2138  -19.6045    6.2416 C   0  0  2  0  0  0  0  0  0  0  0  0
   15.9077  -18.3636    5.5587 N   0  0  0  0  0  0  0  0  0  0  0  0
   16.4593  -20.7165    5.2880 C   0  0  0  0  0  0  0  0  0  0  0  0
   15.7944  -20.8059    4.2300 O   0  0  0  0  0  0  0  0  0  0  0  0
   20.2668  -26.5825    0.2119 O   0  0  0  0  0  0  0  0  0  0  0  0
   19.8787  -25.5579    1.0646 C   0  0  0  0  0  0  0  0  0  0  0  0
   18.5755  -25.1018    1.0129 C   0  0  0  0  0  0  0  0  0  0  0  0
   18.2265  -24.0813    1.8765 C   0  0  0  0  0  0  0  0  0  0  0  0
   19.1150  -23.5188    2.7649 C   0  0  0  0  0  0  0  0  0  0  0  0
   18.7440  -22.4307    3.6826 C   0  0  0  0  0  0  0  0  0  0  0  0
   17.7197  -22.8255    4.7150 C   0  0  2  0  0  0  0  0  0  0  0  0
   17.4407  -21.6838    5.5591 N   0  0  0  0  0  0  0  0  0  0  0  0
   18.1076  -23.9589    5.5564 C   0  0  0  0  0  0  0  0  0  0  0  0
   17.8652  -25.2488    5.1145 O   0  0  0  0  0  0  0  0  0  0  0  0
   20.4061  -23.9962    2.7911 C   0  0  0  0  0  0  0  0  0  0  0  0
   20.8059  -25.0281    1.9358 C   0  0  0  0  0  0  0  0  0  0  0  0
   18.6602  -23.8519    6.6826 O   0  0  0  0  0  0  0  0  0  0  0  0
  1  2  1  0
  3  5  1  0
  3  2  1  0
  3  4  1  6
  5  6  1  1
  7  5  1  0
  7  8  2  0
 10  9  1  1
 11 10  1  0
 11  7  1  0
 12 10  1  0
 13 12  2  0
 15 25  2  0
 15 14  1  0
 16 15  1  0
 17 18  1  0
 17 16  2  0
 18 24  2  0
 19 18  1  0
 20 21  1  0
 20 19  1  6
 21 12  1  0
 22 20  1  0
 23 22  1  0
 24 25  1  0
 26 22  2  0
M  END
$$$$
