IAY.pdb
     RDKit          3D

 26 26  0  0  1  0  0  0  0  0999 V2000
   24.0859   -8.7325  -22.2651 C   0  0  0  0  0  0  0  0  0  0  0  0
   23.3120   -7.4498  -22.2976 C   0  0  0  0  0  0  0  0  0  0  0  0
   23.0009   -6.9509  -20.9103 C   0  0  2  0  0  0  0  0  0  0  0  0
   22.2645   -8.0159  -20.1538 C   0  0  0  0  0  0  0  0  0  0  0  0
   22.3197   -5.6013  -20.8984 C   0  0  2  0  0  0  0  0  0  0  0  0
   23.2173   -4.6000  -21.5048 N   0  0  0  0  0  0  0  0  0  0  0  0
   22.0102   -5.1081  -19.5394 C   0  0  0  0  0  0  0  0  0  0  0  0
   22.8792   -4.4814  -18.8641 O   0  0  0  0  0  0  0  0  0  0  0  0
   19.1232   -4.0324  -17.7365 C   0  0  0  0  0  0  0  0  0  0  0  0
   20.4487   -4.7931  -17.5894 C   0  0  2  0  0  0  0  0  0  0  0  0
   20.7669   -5.2889  -18.9132 N   0  0  0  0  0  0  0  0  0  0  0  0
   20.1773   -5.8973  -16.6339 C   0  0  0  0  0  0  0  0  0  0  0  0
   19.5275   -6.9058  -16.9949 O   0  0  0  0  0  0  0  0  0  0  0  0
   25.9391   -9.2110  -16.7828 O   0  0  0  0  0  0  0  0  0  0  0  0
   24.9252   -8.6670  -16.0058 C   0  0  0  0  0  0  0  0  0  0  0  0
   24.6677   -7.3124  -16.0946 C   0  0  0  0  0  0  0  0  0  0  0  0
   23.6514   -6.8075  -15.3064 C   0  0  0  0  0  0  0  0  0  0  0  0
   22.9058   -7.5928  -14.4564 C   0  0  0  0  0  0  0  0  0  0  0  0
   21.8256   -7.0548  -13.6156 C   0  0  0  0  0  0  0  0  0  0  0  0
   20.5138   -6.8896  -14.3388 C   0  0  2  0  0  0  0  0  0  0  0  0
   20.6455   -5.8266  -15.3118 N   0  0  0  0  0  0  0  0  0  0  0  0
   19.3705   -6.6041  -13.4704 C   0  0  0  0  0  0  0  0  0  0  0  0
   18.9241   -7.5767  -12.5914 O   0  0  0  0  0  0  0  0  0  0  0  0
   23.1879   -8.9388  -14.3916 C   0  0  0  0  0  0  0  0  0  0  0  0
   24.2075   -9.4956  -15.1706 C   0  0  0  0  0  0  0  0  0  0  0  0
   18.7420   -5.5133  -13.4581 O   0  0  0  0  0  0  0  0  0  0  0  0
  1  2  1  0
  3  5  1  0
  3  2  1  0
  3  4  1  6
  5  6  1  1
  7  5  1  0
  7  8  2  0
 10  9  1  6
 11 10  1  0
 11  7  1  0
 12 10  1  0
 13 12  2  0
 15 25  2  0
 15 14  1  0
 16 15  1  0
 17 18  1  0
 17 16  2  0
 18 24  2  0
 19 18  1  0
 20 21  1  0
 20 19  1  1
 21 12  1  0
 22 20  1  0
 23 22  1  0
 24 25  1  0
 26 22  2  0
M  END
$$$$
