IAY.pdb
     RDKit          3D

 26 26  0  0  1  0  0  0  0  0999 V2000
   26.3246  -25.7579  -16.6347 C   0  0  0  0  0  0  0  0  0  0  0  0
   27.6648  -25.1217  -16.4247 C   0  0  0  0  0  0  0  0  0  0  0  0
   28.2690  -24.6526  -17.7228 C   0  0  2  0  0  0  0  0  0  0  0  0
   28.3941  -25.8160  -18.6606 C   0  0  0  0  0  0  0  0  0  0  0  0
   29.5477  -23.8672  -17.5386 C   0  0  2  0  0  0  0  0  0  0  0  0
   30.5513  -24.7232  -16.8784 N   0  0  0  0  0  0  0  0  0  0  0  0
   29.3902  -22.6766  -16.6762 C   0  0  0  0  0  0  0  0  0  0  0  0
   29.7576  -22.7011  -15.4644 O   0  0  0  0  0  0  0  0  0  0  0  0
   28.7889  -19.0893  -17.2738 C   0  0  0  0  0  0  0  0  0  0  0  0
   28.7339  -20.2750  -16.2999 C   0  0  2  0  0  0  0  0  0  0  0  0
   28.8404  -21.4641  -17.1212 N   0  0  0  0  0  0  0  0  0  0  0  0
   27.4139  -20.1832  -15.6252 C   0  0  0  0  0  0  0  0  0  0  0  0
   27.1660  -19.2407  -14.8378 O   0  0  0  0  0  0  0  0  0  0  0  0
   18.8936  -19.5767  -14.7724 O   0  0  0  0  0  0  0  0  0  0  0  0
   20.2382  -19.6783  -15.1033 C   0  0  0  0  0  0  0  0  0  0  0  0
   20.6082  -20.4913  -16.1574 C   0  0  0  0  0  0  0  0  0  0  0  0
   21.9549  -20.5671  -16.4569 C   0  0  0  0  0  0  0  0  0  0  0  0
   22.9157  -19.8748  -15.7550 C   0  0  0  0  0  0  0  0  0  0  0  0
   24.3495  -19.9574  -16.0723 C   0  0  0  0  0  0  0  0  0  0  0  0
   25.0686  -21.0748  -15.3614 C   0  0  2  0  0  0  0  0  0  0  0  0
   26.4247  -21.1518  -15.8604 N   0  0  0  0  0  0  0  0  0  0  0  0
   24.4354  -22.3881  -15.4925 C   0  0  0  0  0  0  0  0  0  0  0  0
   24.6449  -23.1329  -16.6411 O   0  0  0  0  0  0  0  0  0  0  0  0
   22.5135  -19.0735  -14.7101 C   0  0  0  0  0  0  0  0  0  0  0  0
   21.1612  -18.9650  -14.3696 C   0  0  0  0  0  0  0  0  0  0  0  0
   23.6937  -22.9101  -14.6192 O   0  0  0  0  0  0  0  0  0  0  0  0
  1  2  1  0
  3  5  1  0
  3  2  1  0
  3  4  1  6
  5  6  1  1
  7  5  1  0
  7  8  2  0
 10  9  1  6
 11 10  1  0
 11  7  1  0
 12 10  1  0
 13 12  2  0
 15 25  2  0
 15 14  1  0
 16 15  1  0
 17 18  1  0
 17 16  2  0
 18 24  2  0
 19 18  1  0
 20 21  1  0
 20 19  1  6
 21 12  1  0
 22 20  1  0
 23 22  1  0
 24 25  1  0
 26 22  2  0
M  END
$$$$
