IAY.pdb
     RDKit          3D

 26 26  0  0  1  0  0  0  0  0999 V2000
   30.7127  -16.3241  -17.8054 C   0  0  0  0  0  0  0  0  0  0  0  0
   29.2443  -16.5242  -18.0268 C   0  0  0  0  0  0  0  0  0  0  0  0
   28.5031  -16.6989  -16.7266 C   0  0  2  0  0  0  0  0  0  0  0  0
   29.1396  -17.8039  -15.9375 C   0  0  0  0  0  0  0  0  0  0  0  0
   27.0092  -16.8481  -16.9048 C   0  0  2  0  0  0  0  0  0  0  0  0
   26.4632  -15.6045  -17.4802 N   0  0  0  0  0  0  0  0  0  0  0  0
   26.2825  -17.0691  -15.6363 C   0  0  0  0  0  0  0  0  0  0  0  0
   26.0498  -16.1066  -14.8467 O   0  0  0  0  0  0  0  0  0  0  0  0
   23.6380  -18.6613  -14.3036 C   0  0  0  0  0  0  0  0  0  0  0  0
   25.1314  -18.5575  -13.9630 C   0  0  2  0  0  0  0  0  0  0  0  0
   25.8072  -18.3237  -15.2234 N   0  0  0  0  0  0  0  0  0  0  0  0
   25.5027  -19.8672  -13.3691 C   0  0  0  0  0  0  0  0  0  0  0  0
   25.9386  -20.7930  -14.0920 O   0  0  0  0  0  0  0  0  0  0  0  0
   29.3169  -18.5916   -6.8165 O   0  0  0  0  0  0  0  0  0  0  0  0
   28.3492  -19.2460   -7.5668 C   0  0  0  0  0  0  0  0  0  0  0  0
   28.5565  -20.5652   -7.9216 C   0  0  0  0  0  0  0  0  0  0  0  0
   27.5715  -21.1829   -8.6681 C   0  0  0  0  0  0  0  0  0  0  0  0
   26.4186  -20.5406   -9.0598 C   0  0  0  0  0  0  0  0  0  0  0  0
   25.3713  -21.1975   -9.8567 C   0  0  0  0  0  0  0  0  0  0  0  0
   25.7075  -21.3250  -11.3202 C   0  0  2  0  0  0  0  0  0  0  0  0
   25.3703  -20.0866  -11.9883 N   0  0  0  0  0  0  0  0  0  0  0  0
   25.0412  -22.4345  -12.0045 C   0  0  0  0  0  0  0  0  0  0  0  0
   25.7410  -23.6054  -12.2430 O   0  0  0  0  0  0  0  0  0  0  0  0
   26.2431  -19.2262   -8.6898 C   0  0  0  0  0  0  0  0  0  0  0  0
   27.2124  -18.5589   -7.9340 C   0  0  0  0  0  0  0  0  0  0  0  0
   23.8480  -22.4086  -12.4052 O   0  0  0  0  0  0  0  0  0  0  0  0
  1  2  1  0
  3  5  1  0
  3  2  1  0
  3  4  1  6
  5  6  1  1
  7  5  1  0
  7  8  2  0
 10  9  1  6
 11 10  1  0
 11  7  1  0
 12 10  1  0
 13 12  2  0
 15 25  2  0
 15 14  1  0
 16 15  1  0
 17 18  1  0
 17 16  2  0
 18 24  2  0
 19 18  1  0
 20 21  1  0
 20 19  1  1
 21 12  1  0
 22 20  1  0
 23 22  1  0
 24 25  1  0
 26 22  2  0
M  END
$$$$
