IAY.pdb
     RDKit          3D

 26 26  0  0  1  0  0  0  0  0999 V2000
   26.2863  -16.6901  -16.8396 C   0  0  0  0  0  0  0  0  0  0  0  0
   26.2998  -18.0236  -16.1563 C   0  0  0  0  0  0  0  0  0  0  0  0
   27.6884  -18.4121  -15.7191 C   0  0  2  0  0  0  0  0  0  0  0  0
   28.6117  -18.3639  -16.8998 C   0  0  0  0  0  0  0  0  0  0  0  0
   27.7321  -19.7149  -14.9532 C   0  0  2  0  0  0  0  0  0  0  0  0
   27.1679  -20.7893  -15.7918 N   0  0  0  0  0  0  0  0  0  0  0  0
   26.9299  -19.6969  -13.7115 C   0  0  0  0  0  0  0  0  0  0  0  0
   27.2133  -18.9005  -12.7684 O   0  0  0  0  0  0  0  0  0  0  0  0
   23.8748  -21.5044  -12.5305 C   0  0  0  0  0  0  0  0  0  0  0  0
   25.0009  -20.4869  -12.2989 C   0  0  2  0  0  0  0  0  0  0  0  0
   25.8249  -20.5339  -13.4899 N   0  0  0  0  0  0  0  0  0  0  0  0
   25.7343  -20.9618  -11.0978 C   0  0  0  0  0  0  0  0  0  0  0  0
   26.4569  -21.9836  -11.1563 O   0  0  0  0  0  0  0  0  0  0  0  0
   29.4554  -20.0514   -3.1311 O   0  0  0  0  0  0  0  0  0  0  0  0
   28.9343  -19.9496   -4.4140 C   0  0  0  0  0  0  0  0  0  0  0  0
   29.3206  -20.8712   -5.3682 C   0  0  0  0  0  0  0  0  0  0  0  0
   28.7810  -20.7377   -6.6331 C   0  0  0  0  0  0  0  0  0  0  0  0
   27.8925  -19.7396   -6.9640 C   0  0  0  0  0  0  0  0  0  0  0  0
   27.3200  -19.5961   -8.3113 C   0  0  0  0  0  0  0  0  0  0  0  0
   26.3064  -20.6554   -8.6599 C   0  0  2  0  0  0  0  0  0  0  0  0
   25.6281  -20.2720   -9.8792 N   0  0  0  0  0  0  0  0  0  0  0  0
   25.3099  -20.9119   -7.6186 C   0  0  0  0  0  0  0  0  0  0  0  0
   25.6593  -21.6717   -6.5148 O   0  0  0  0  0  0  0  0  0  0  0  0
   27.5282  -18.8375   -5.9899 C   0  0  0  0  0  0  0  0  0  0  0  0
   28.0480  -18.9323   -4.6949 C   0  0  0  0  0  0  0  0  0  0  0  0
   24.1260  -20.4845   -7.6469 O   0  0  0  0  0  0  0  0  0  0  0  0
  1  2  1  0
  3  5  1  0
  3  2  1  0
  3  4  1  6
  5  6  1  6
  7  5  1  0
  7  8  2  0
 10  9  1  6
 11 10  1  0
 11  7  1  0
 12 10  1  0
 13 12  2  0
 15 25  2  0
 15 14  1  0
 16 15  1  0
 17 18  1  0
 17 16  2  0
 18 24  2  0
 19 18  1  0
 20 21  1  0
 20 19  1  1
 21 12  1  0
 22 20  1  0
 23 22  1  0
 24 25  1  0
 26 22  2  0
M  END
$$$$
