IAY.pdb
     RDKit          3D

 26 26  0  0  1  0  0  0  0  0999 V2000
   23.3360  -27.5157  -17.9392 C   0  0  0  0  0  0  0  0  0  0  0  0
   21.9774  -27.6398  -17.3195 C   0  0  0  0  0  0  0  0  0  0  0  0
   21.8356  -26.7586  -16.1055 C   0  0  2  0  0  0  0  0  0  0  0  0
   22.9063  -27.1042  -15.1141 C   0  0  0  0  0  0  0  0  0  0  0  0
   20.4379  -26.7542  -15.5292 C   0  0  2  0  0  0  0  0  0  0  0  0
   19.4808  -26.3653  -16.5821 N   0  0  0  0  0  0  0  0  0  0  0  0
   20.2563  -25.7842  -14.4283 C   0  0  0  0  0  0  0  0  0  0  0  0
   21.0336  -25.7858  -13.4284 O   0  0  0  0  0  0  0  0  0  0  0  0
   17.9417  -22.9236  -13.7761 C   0  0  0  0  0  0  0  0  0  0  0  0
   18.9774  -23.9432  -13.2813 C   0  0  2  0  0  0  0  0  0  0  0  0
   19.2409  -24.8151  -14.4083 N   0  0  0  0  0  0  0  0  0  0  0  0
   18.3276  -24.6678  -12.1594 C   0  0  0  0  0  0  0  0  0  0  0  0
   17.5930  -25.6580  -12.3821 O   0  0  0  0  0  0  0  0  0  0  0  0
   16.9972  -27.0558   -3.7430 O   0  0  0  0  0  0  0  0  0  0  0  0
   17.4805  -26.5321   -4.9346 C   0  0  0  0  0  0  0  0  0  0  0  0
   18.0564  -27.3859   -5.8558 C   0  0  0  0  0  0  0  0  0  0  0  0
   18.5257  -26.8283   -7.0296 C   0  0  0  0  0  0  0  0  0  0  0  0
   18.4395  -25.4818   -7.3030 C   0  0  0  0  0  0  0  0  0  0  0  0
   18.9414  -24.8880   -8.5516 C   0  0  0  0  0  0  0  0  0  0  0  0
   17.9392  -24.8952   -9.6770 C   0  0  2  0  0  0  0  0  0  0  0  0
   18.5273  -24.2531  -10.8327 N   0  0  0  0  0  0  0  0  0  0  0  0
   16.6662  -24.2437   -9.3640 C   0  0  0  0  0  0  0  0  0  0  0  0
   15.6626  -24.9720   -8.7473 O   0  0  0  0  0  0  0  0  0  0  0  0
   17.8601  -24.6585   -6.3639 C   0  0  0  0  0  0  0  0  0  0  0  0
   17.3705  -25.1771   -5.1608 C   0  0  0  0  0  0  0  0  0  0  0  0
   16.4029  -23.0390   -9.6178 O   0  0  0  0  0  0  0  0  0  0  0  0
  1  2  1  0
  3  5  1  0
  3  2  1  0
  3  4  1  1
  5  6  1  6
  7  5  1  0
  7  8  2  0
 10  9  1  6
 11 10  1  0
 11  7  1  0
 12 10  1  0
 13 12  2  0
 15 25  2  0
 15 14  1  0
 16 15  1  0
 17 18  1  0
 17 16  2  0
 18 24  2  0
 19 18  1  0
 20 21  1  0
 20 19  1  1
 21 12  1  0
 22 20  1  0
 23 22  1  0
 24 25  1  0
 26 22  2  0
M  END
$$$$
