IAY.pdb
     RDKit          3D

 26 26  0  0  1  0  0  0  0  0999 V2000
   20.0042  -13.2249  -18.0845 C   0  0  0  0  0  0  0  0  0  0  0  0
   19.0973  -12.8934  -16.9387 C   0  0  0  0  0  0  0  0  0  0  0  0
   19.1418  -11.4262  -16.5986 C   0  0  2  0  0  0  0  0  0  0  0  0
   20.5493  -11.0393  -16.2550 C   0  0  0  0  0  0  0  0  0  0  0  0
   18.1189  -11.0209  -15.5618 C   0  0  2  0  0  0  0  0  0  0  0  0
   16.7725  -11.3881  -16.0398 N   0  0  0  0  0  0  0  0  0  0  0  0
   18.0825   -9.5652  -15.3058 C   0  0  0  0  0  0  0  0  0  0  0  0
   18.1586   -8.7372  -16.2611 O   0  0  0  0  0  0  0  0  0  0  0  0
   16.9464   -7.3581  -12.6390 C   0  0  0  0  0  0  0  0  0  0  0  0
   17.9727   -7.5815  -13.7589 C   0  0  2  0  0  0  0  0  0  0  0  0
   17.9623   -9.0060  -14.0238 N   0  0  0  0  0  0  0  0  0  0  0  0
   19.2761   -7.1290  -13.2091 C   0  0  0  0  0  0  0  0  0  0  0  0
   19.8575   -7.7945  -12.3210 O   0  0  0  0  0  0  0  0  0  0  0  0
   21.8982   -4.8128  -19.6148 O   0  0  0  0  0  0  0  0  0  0  0  0
   21.9691   -5.1703  -18.2751 C   0  0  0  0  0  0  0  0  0  0  0  0
   21.3646   -6.3423  -17.8625 C   0  0  0  0  0  0  0  0  0  0  0  0
   21.4563   -6.6648  -16.5222 C   0  0  0  0  0  0  0  0  0  0  0  0
   22.1150   -5.8743  -15.6077 C   0  0  0  0  0  0  0  0  0  0  0  0
   22.2105   -6.2166  -14.1803 C   0  0  0  0  0  0  0  0  0  0  0  0
   21.2040   -5.5050  -13.3134 C   0  0  2  0  0  0  0  0  0  0  0  0
   19.8755   -5.9483  -13.6770 N   0  0  0  0  0  0  0  0  0  0  0  0
   21.2584   -4.0441  -13.3895 C   0  0  0  0  0  0  0  0  0  0  0  0
   20.1661   -3.3471  -13.8783 O   0  0  0  0  0  0  0  0  0  0  0  0
   22.7066   -4.7131  -16.0515 C   0  0  0  0  0  0  0  0  0  0  0  0
   22.6404   -4.3448  -17.3992 C   0  0  0  0  0  0  0  0  0  0  0  0
   22.2476   -3.3501  -13.0359 O   0  0  0  0  0  0  0  0  0  0  0  0
  1  2  1  0
  3  5  1  0
  3  2  1  0
  3  4  1  1
  5  6  1  6
  7  5  1  0
  7  8  2  0
 10  9  1  1
 11 10  1  0
 11  7  1  0
 12 10  1  0
 13 12  2  0
 15 25  2  0
 15 14  1  0
 16 15  1  0
 17 18  1  0
 17 16  2  0
 18 24  2  0
 19 18  1  0
 20 21  1  0
 20 19  1  6
 21 12  1  0
 22 20  1  0
 23 22  1  0
 24 25  1  0
 26 22  2  0
M  END
$$$$
