IAY.pdb
     RDKit          3D

 26 26  0  0  1  0  0  0  0  0999 V2000
   21.2812  -16.1706  -16.1306 C   0  0  0  0  0  0  0  0  0  0  0  0
   21.5862  -17.3924  -16.9426 C   0  0  0  0  0  0  0  0  0  0  0  0
   22.6869  -18.2137  -16.3227 C   0  0  2  0  0  0  0  0  0  0  0  0
   23.8954  -17.3496  -16.1184 C   0  0  0  0  0  0  0  0  0  0  0  0
   22.9655  -19.4999  -17.0666 C   0  0  2  0  0  0  0  0  0  0  0  0
   21.7504  -20.3363  -17.0605 N   0  0  0  0  0  0  0  0  0  0  0  0
   24.0322  -20.3185  -16.4517 C   0  0  0  0  0  0  0  0  0  0  0  0
   23.8074  -20.9959  -15.4056 O   0  0  0  0  0  0  0  0  0  0  0  0
   27.5436  -21.2038  -17.3586 C   0  0  0  0  0  0  0  0  0  0  0  0
   26.4087  -21.1412  -16.3265 C   0  0  2  0  0  0  0  0  0  0  0  0
   25.3355  -20.4067  -16.9657 N   0  0  0  0  0  0  0  0  0  0  0  0
   26.9635  -20.4092  -15.1593 C   0  0  0  0  0  0  0  0  0  0  0  0
   27.4049  -19.2440  -15.2902 O   0  0  0  0  0  0  0  0  0  0  0  0
   21.7949  -20.8021  -10.0549 O   0  0  0  0  0  0  0  0  0  0  0  0
   23.0166  -20.4202  -10.5926 C   0  0  0  0  0  0  0  0  0  0  0  0
   24.0945  -20.2445   -9.7462 C   0  0  0  0  0  0  0  0  0  0  0  0
   25.2936  -19.8644  -10.3178 C   0  0  0  0  0  0  0  0  0  0  0  0
   25.4439  -19.6602  -11.6709 C   0  0  0  0  0  0  0  0  0  0  0  0
   26.7199  -19.2531  -12.2789 C   0  0  0  0  0  0  0  0  0  0  0  0
   27.5847  -20.4081  -12.7141 C   0  0  2  0  0  0  0  0  0  0  0  0
   27.0011  -21.0130  -13.8919 N   0  0  0  0  0  0  0  0  0  0  0  0
   27.7823  -21.4398  -11.6945 C   0  0  0  0  0  0  0  0  0  0  0  0
   27.2252  -22.6941  -11.8788 O   0  0  0  0  0  0  0  0  0  0  0  0
   24.3501  -19.8437  -12.4865 C   0  0  0  0  0  0  0  0  0  0  0  0
   23.1154  -20.2284  -11.9537 C   0  0  0  0  0  0  0  0  0  0  0  0
   28.4373  -21.2732  -10.6323 O   0  0  0  0  0  0  0  0  0  0  0  0
  1  2  1  0
  3  5  1  0
  3  2  1  0
  3  4  1  6
  5  6  1  1
  7  5  1  0
  7  8  2  0
 10  9  1  6
 11 10  1  0
 11  7  1  0
 12 10  1  0
 13 12  2  0
 15 25  2  0
 15 14  1  0
 16 15  1  0
 17 18  1  0
 17 16  2  0
 18 24  2  0
 19 18  1  0
 20 21  1  0
 20 19  1  1
 21 12  1  0
 22 20  1  0
 23 22  1  0
 24 25  1  0
 26 22  2  0
M  END
$$$$
