IAY.pdb
     RDKit          3D

 26 26  0  0  1  0  0  0  0  0999 V2000
   15.5011  -12.8302  -17.1404 C   0  0  0  0  0  0  0  0  0  0  0  0
   16.9285  -12.4009  -16.9870 C   0  0  0  0  0  0  0  0  0  0  0  0
   17.0419  -11.1006  -16.2342 C   0  0  2  0  0  0  0  0  0  0  0  0
   16.2271  -10.0518  -16.9304 C   0  0  0  0  0  0  0  0  0  0  0  0
   18.4709  -10.6912  -15.9589 C   0  0  2  0  0  0  0  0  0  0  0  0
   19.1401  -11.7558  -15.1876 N   0  0  0  0  0  0  0  0  0  0  0  0
   18.5867   -9.4602  -15.1482 C   0  0  0  0  0  0  0  0  0  0  0  0
   17.9346   -9.3305  -14.0702 O   0  0  0  0  0  0  0  0  0  0  0  0
   20.4810   -6.2517  -15.4926 C   0  0  0  0  0  0  0  0  0  0  0  0
   19.4361   -7.1191  -14.7763 C   0  0  2  0  0  0  0  0  0  0  0  0
   19.4048   -8.3747  -15.4990 N   0  0  0  0  0  0  0  0  0  0  0  0
   18.1519   -6.3816  -14.8898 C   0  0  0  0  0  0  0  0  0  0  0  0
   17.4748   -6.4411  -15.9423 O   0  0  0  0  0  0  0  0  0  0  0  0
   15.5670   -6.5523   -7.7353 O   0  0  0  0  0  0  0  0  0  0  0  0
   15.5154   -6.3698   -9.1107 C   0  0  0  0  0  0  0  0  0  0  0  0
   16.0297   -7.3517   -9.9357 C   0  0  0  0  0  0  0  0  0  0  0  0
   15.9604   -7.1347  -11.2984 C   0  0  0  0  0  0  0  0  0  0  0  0
   15.4086   -5.9986  -11.8462 C   0  0  0  0  0  0  0  0  0  0  0  0
   15.3372   -5.7666  -13.2969 C   0  0  0  0  0  0  0  0  0  0  0  0
   16.4302   -4.8746  -13.8269 C   0  0  2  0  0  0  0  0  0  0  0  0
   17.6782   -5.6069  -13.8185 N   0  0  0  0  0  0  0  0  0  0  0  0
   16.6057   -3.6218  -13.0903 C   0  0  0  0  0  0  0  0  0  0  0  0
   17.7650   -3.4181  -12.3608 O   0  0  0  0  0  0  0  0  0  0  0  0
   14.9051   -5.0396  -10.9963 C   0  0  0  0  0  0  0  0  0  0  0  0
   14.9528   -5.2149   -9.6095 C   0  0  0  0  0  0  0  0  0  0  0  0
   15.7623   -2.6873  -13.0660 O   0  0  0  0  0  0  0  0  0  0  0  0
  1  2  1  0
  3  5  1  0
  3  2  1  0
  3  4  1  6
  5  6  1  1
  7  5  1  0
  7  8  2  0
 10  9  1  6
 11 10  1  0
 11  7  1  0
 12 10  1  0
 13 12  2  0
 15 25  2  0
 15 14  1  0
 16 15  1  0
 17 18  1  0
 17 16  2  0
 18 24  2  0
 19 18  1  0
 20 21  1  0
 20 19  1  1
 21 12  1  0
 22 20  1  0
 23 22  1  0
 24 25  1  0
 26 22  2  0
M  END
$$$$
