IAY.pdb
     RDKit          3D

 26 26  0  0  1  0  0  0  0  0999 V2000
   28.7782  -13.9711  -19.0468 C   0  0  0  0  0  0  0  0  0  0  0  0
   28.3152  -15.3609  -18.7319 C   0  0  0  0  0  0  0  0  0  0  0  0
   26.9793  -15.3592  -18.0351 C   0  0  2  0  0  0  0  0  0  0  0  0
   27.0559  -14.4865  -16.8180 C   0  0  0  0  0  0  0  0  0  0  0  0
   26.4420  -16.7468  -17.7677 C   0  0  2  0  0  0  0  0  0  0  0  0
   26.3217  -17.4745  -19.0452 N   0  0  0  0  0  0  0  0  0  0  0  0
   25.0931  -16.7511  -17.1625 C   0  0  0  0  0  0  0  0  0  0  0  0
   24.9093  -16.3196  -15.9860 O   0  0  0  0  0  0  0  0  0  0  0  0
   21.6611  -17.5872  -18.3762 C   0  0  0  0  0  0  0  0  0  0  0  0
   22.6264  -17.2524  -17.2302 C   0  0  2  0  0  0  0  0  0  0  0  0
   23.9471  -17.2175  -17.8256 N   0  0  0  0  0  0  0  0  0  0  0  0
   22.4891  -18.3594  -16.2495 C   0  0  0  0  0  0  0  0  0  0  0  0
   23.0564  -19.4588  -16.4474 O   0  0  0  0  0  0  0  0  0  0  0  0
   21.0258  -21.9929   -8.3453 O   0  0  0  0  0  0  0  0  0  0  0  0
   21.2629  -21.1568   -9.4282 C   0  0  0  0  0  0  0  0  0  0  0  0
   22.5203  -21.1439  -10.0008 C   0  0  0  0  0  0  0  0  0  0  0  0
   22.7182  -20.2993  -11.0763 C   0  0  0  0  0  0  0  0  0  0  0  0
   21.7259  -19.4904  -11.5824 C   0  0  0  0  0  0  0  0  0  0  0  0
   21.9374  -18.5895  -12.7257 C   0  0  0  0  0  0  0  0  0  0  0  0
   21.5638  -19.1926  -14.0553 C   0  0  2  0  0  0  0  0  0  0  0  0
   21.7212  -18.1893  -15.0860 N   0  0  0  0  0  0  0  0  0  0  0  0
   20.2053  -19.7345  -14.1188 C   0  0  0  0  0  0  0  0  0  0  0  0
   20.0032  -21.0896  -13.9174 O   0  0  0  0  0  0  0  0  0  0  0  0
   20.4843  -19.5272  -10.9888 C   0  0  0  0  0  0  0  0  0  0  0  0
   20.2363  -20.3662   -9.8976 C   0  0  0  0  0  0  0  0  0  0  0  0
   19.1758  -19.0472  -14.3486 O   0  0  0  0  0  0  0  0  0  0  0  0
  1  2  1  0
  3  5  1  0
  3  2  1  0
  3  4  1  1
  5  6  1  6
  7  5  1  0
  7  8  2  0
 10  9  1  6
 11 10  1  0
 11  7  1  0
 12 10  1  0
 13 12  2  0
 15 25  2  0
 15 14  1  0
 16 15  1  0
 17 18  1  0
 17 16  2  0
 18 24  2  0
 19 18  1  0
 20 21  1  0
 20 19  1  1
 21 12  1  0
 22 20  1  0
 23 22  1  0
 24 25  1  0
 26 22  2  0
M  END
$$$$
