IAY.pdb
     RDKit          3D

 26 26  0  0  1  0  0  0  0  0999 V2000
   27.7107  -17.9994  -17.4758 C   0  0  0  0  0  0  0  0  0  0  0  0
   28.0561  -19.1898  -16.6338 C   0  0  0  0  0  0  0  0  0  0  0  0
   26.9195  -19.5780  -15.7240 C   0  0  2  0  0  0  0  0  0  0  0  0
   26.4862  -18.3801  -14.9328 C   0  0  0  0  0  0  0  0  0  0  0  0
   27.2160  -20.7994  -14.8837 C   0  0  2  0  0  0  0  0  0  0  0  0
   27.6002  -21.9151  -15.7689 N   0  0  0  0  0  0  0  0  0  0  0  0
   26.0544  -21.2746  -14.1022 C   0  0  0  0  0  0  0  0  0  0  0  0
   25.0143  -21.7040  -14.6835 O   0  0  0  0  0  0  0  0  0  0  0  0
   25.2723  -21.5552  -10.4541 C   0  0  0  0  0  0  0  0  0  0  0  0
   24.8349  -21.6096  -11.9248 C   0  0  2  0  0  0  0  0  0  0  0  0
   26.0169  -21.2880  -12.6990 N   0  0  0  0  0  0  0  0  0  0  0  0
   23.7781  -20.5762  -12.0709 C   0  0  0  0  0  0  0  0  0  0  0  0
   24.0600  -19.3595  -11.9725 O   0  0  0  0  0  0  0  0  0  0  0  0
   20.2513  -23.5441  -17.7823 O   0  0  0  0  0  0  0  0  0  0  0  0
   20.5643  -22.5613  -16.8529 C   0  0  0  0  0  0  0  0  0  0  0  0
   21.8783  -22.4134  -16.4522 C   0  0  0  0  0  0  0  0  0  0  0  0
   22.1510  -21.4249  -15.5261 C   0  0  0  0  0  0  0  0  0  0  0  0
   21.1782  -20.6032  -15.0032 C   0  0  0  0  0  0  0  0  0  0  0  0
   21.4682  -19.5526  -14.0155 C   0  0  0  0  0  0  0  0  0  0  0  0
   21.3724  -20.0165  -12.5849 C   0  0  2  0  0  0  0  0  0  0  0  0
   22.4474  -20.9486  -12.3214 N   0  0  0  0  0  0  0  0  0  0  0  0
   20.0979  -20.6439  -12.2315 C   0  0  0  0  0  0  0  0  0  0  0  0
   18.9440  -19.8783  -12.2150 O   0  0  0  0  0  0  0  0  0  0  0  0
   19.8786  -20.7768  -15.4235 C   0  0  0  0  0  0  0  0  0  0  0  0
   19.5541  -21.7643  -16.3594 C   0  0  0  0  0  0  0  0  0  0  0  0
   19.9627  -21.8594  -11.9325 O   0  0  0  0  0  0  0  0  0  0  0  0
  1  2  1  0
  3  5  1  0
  3  2  1  0
  3  4  1  1
  5  6  1  6
  7  5  1  0
  7  8  2  0
 10  9  1  1
 11 10  1  0
 11  7  1  0
 12 10  1  0
 13 12  2  0
 15 25  2  0
 15 14  1  0
 16 15  1  0
 17 18  1  0
 17 16  2  0
 18 24  2  0
 19 18  1  0
 20 21  1  0
 20 19  1  6
 21 12  1  0
 22 20  1  0
 23 22  1  0
 24 25  1  0
 26 22  2  0
M  END
$$$$
