IAY.pdb
     RDKit          3D

 26 26  0  0  1  0  0  0  0  0999 V2000
   20.3723  -12.3194  -21.1570 C   0  0  0  0  0  0  0  0  0  0  0  0
   19.1882  -11.8639  -20.3597 C   0  0  0  0  0  0  0  0  0  0  0  0
   19.6007  -11.0231  -19.1793 C   0  0  2  0  0  0  0  0  0  0  0  0
   20.5037   -9.9209  -19.6470 C   0  0  0  0  0  0  0  0  0  0  0  0
   20.1590  -11.8345  -18.0324 C   0  0  2  0  0  0  0  0  0  0  0  0
   19.1459  -12.8123  -17.5923 N   0  0  0  0  0  0  0  0  0  0  0  0
   20.4929  -11.0231  -16.8425 C   0  0  0  0  0  0  0  0  0  0  0  0
   19.6603  -10.1945  -16.3688 O   0  0  0  0  0  0  0  0  0  0  0  0
   23.4810  -10.7208  -14.6119 C   0  0  0  0  0  0  0  0  0  0  0  0
   22.1253  -10.2007  -15.1106 C   0  0  2  0  0  0  0  0  0  0  0  0
   21.7198  -11.1075  -16.1657 N   0  0  0  0  0  0  0  0  0  0  0  0
   22.3819   -8.8310  -15.6245 C   0  0  0  0  0  0  0  0  0  0  0  0
   22.6952   -8.6498  -16.8240 O   0  0  0  0  0  0  0  0  0  0  0  0
   21.2050   -0.6274  -17.6969 O   0  0  0  0  0  0  0  0  0  0  0  0
   21.2628   -1.9752  -17.3686 C   0  0  0  0  0  0  0  0  0  0  0  0
   20.5459   -2.8801  -18.1277 C   0  0  0  0  0  0  0  0  0  0  0  0
   20.6281   -4.2124  -17.7708 C   0  0  0  0  0  0  0  0  0  0  0  0
   21.3835   -4.6552  -16.7085 C   0  0  0  0  0  0  0  0  0  0  0  0
   21.4690   -6.0732  -16.3271 C   0  0  0  0  0  0  0  0  0  0  0  0
   22.4302   -6.3448  -15.1986 C   0  0  2  0  0  0  0  0  0  0  0  0
   22.2770   -7.7193  -14.7730 N   0  0  0  0  0  0  0  0  0  0  0  0
   22.2738   -5.4648  -14.0393 C   0  0  0  0  0  0  0  0  0  0  0  0
   21.3448   -5.7840  -13.0632 O   0  0  0  0  0  0  0  0  0  0  0  0
   22.0859   -3.7276  -15.9725 C   0  0  0  0  0  0  0  0  0  0  0  0
   22.0337   -2.3678  -16.2958 C   0  0  0  0  0  0  0  0  0  0  0  0
   22.9355   -4.4100  -13.8531 O   0  0  0  0  0  0  0  0  0  0  0  0
  1  2  1  0
  3  5  1  0
  3  2  1  0
  3  4  1  6
  5  6  1  1
  7  5  1  0
  7  8  2  0
 10  9  1  6
 11 10  1  0
 11  7  1  0
 12 10  1  0
 13 12  2  0
 15 25  2  0
 15 14  1  0
 16 15  1  0
 17 18  1  0
 17 16  2  0
 18 24  2  0
 19 18  1  0
 20 21  1  0
 20 19  1  6
 21 12  1  0
 22 20  1  0
 23 22  1  0
 24 25  1  0
 26 22  2  0
M  END
$$$$
