IAY.pdb
     RDKit          3D

 26 26  0  0  1  0  0  0  0  0999 V2000
   24.7734  -17.6344  -18.1388 C   0  0  0  0  0  0  0  0  0  0  0  0
   25.9986  -18.4897  -18.0274 C   0  0  0  0  0  0  0  0  0  0  0  0
   26.1075  -19.1338  -16.6696 C   0  0  2  0  0  0  0  0  0  0  0  0
   25.8520  -18.1037  -15.6102 C   0  0  0  0  0  0  0  0  0  0  0  0
   27.3889  -19.9128  -16.4777 C   0  0  2  0  0  0  0  0  0  0  0  0
   27.4742  -20.9664  -17.5066 N   0  0  0  0  0  0  0  0  0  0  0  0
   27.4703  -20.6033  -15.1730 C   0  0  0  0  0  0  0  0  0  0  0  0
   26.6625  -21.5340  -14.8809 O   0  0  0  0  0  0  0  0  0  0  0  0
   29.6503  -20.2769  -12.1503 C   0  0  0  0  0  0  0  0  0  0  0  0
   28.3810  -20.8048  -12.8341 C   0  0  2  0  0  0  0  0  0  0  0  0
   28.4214  -20.2917  -14.1887 N   0  0  0  0  0  0  0  0  0  0  0  0
   27.2428  -20.2440  -12.0622 C   0  0  0  0  0  0  0  0  0  0  0  0
   26.9251  -19.0381  -12.1825 O   0  0  0  0  0  0  0  0  0  0  0  0
   21.7729  -20.0659  -15.4275 O   0  0  0  0  0  0  0  0  0  0  0  0
   22.3705  -20.3621  -14.2097 C   0  0  0  0  0  0  0  0  0  0  0  0
   22.2644  -19.4537  -13.1740 C   0  0  0  0  0  0  0  0  0  0  0  0
   22.8719  -19.7832  -11.9776 C   0  0  0  0  0  0  0  0  0  0  0  0
   23.5624  -20.9592  -11.7901 C   0  0  0  0  0  0  0  0  0  0  0  0
   24.2112  -21.3087  -10.5171 C   0  0  0  0  0  0  0  0  0  0  0  0
   25.5010  -20.5707  -10.2665 C   0  0  2  0  0  0  0  0  0  0  0  0
   26.5062  -21.0579  -11.1862 N   0  0  0  0  0  0  0  0  0  0  0  0
   26.0106  -20.6808   -8.8986 C   0  0  0  0  0  0  0  0  0  0  0  0
   25.2529  -20.1896   -7.8486 O   0  0  0  0  0  0  0  0  0  0  0  0
   23.6494  -21.8427  -12.8424 C   0  0  0  0  0  0  0  0  0  0  0  0
   23.0505  -21.5529  -14.0727 C   0  0  0  0  0  0  0  0  0  0  0  0
   27.1149  -21.2015   -8.5912 O   0  0  0  0  0  0  0  0  0  0  0  0
  1  2  1  0
  3  5  1  0
  3  2  1  0
  3  4  1  1
  5  6  1  6
  7  5  1  0
  7  8  2  0
 10  9  1  1
 11 10  1  0
 11  7  1  0
 12 10  1  0
 13 12  2  0
 15 25  2  0
 15 14  1  0
 16 15  1  0
 17 18  1  0
 17 16  2  0
 18 24  2  0
 19 18  1  0
 20 21  1  0
 20 19  1  1
 21 12  1  0
 22 20  1  0
 23 22  1  0
 24 25  1  0
 26 22  2  0
M  END
$$$$
