HQR.pdb
     RDKit          3D

 31 31  0  0  1  0  0  0  0  0999 V2000
   10.4909  -15.3720   15.2635 N   0  0  0  0  0  0  0  0  0  0  0  0
   11.0421  -16.4525   16.0762 C   0  0  1  0  0  0  0  0  0  0  0  0
   12.4064  -16.7416   15.6616 C   0  0  0  0  0  0  0  0  0  0  0  0
   12.6106  -16.9244   14.2055 C   0  0  0  0  0  0  0  0  0  0  0  0
   12.5106  -18.1331   13.5286 C   0  0  0  0  0  0  0  0  0  0  0  0
   12.7675  -17.9064   12.2518 N   0  0  0  0  0  0  0  0  0  0  0  0
   13.0221  -16.5946   12.1244 C   0  0  0  0  0  0  0  0  0  0  0  0
   12.9275  -15.9793   13.3255 N   0  0  0  0  0  0  0  0  0  0  0  0
   10.6656  -16.3831   17.4699 C   0  0  0  0  0  0  0  0  0  0  0  0
   11.1649  -15.4749   18.1814 O   0  0  0  0  0  0  0  0  0  0  0  0
    6.5010  -20.3358   20.7599 N   0  0  0  0  0  0  0  0  0  0  0  0
    6.4408  -19.6377   19.4956 C   0  0  0  0  0  0  0  0  0  0  0  0
    5.4439  -19.8851   18.8016 O   0  0  0  0  0  0  0  0  0  0  0  0
    7.4814  -18.7187   19.0777 C   0  0  0  0  0  0  0  0  0  0  0  0
    8.6599  -18.5031   19.9515 C   0  0  0  0  0  0  0  0  0  0  0  0
    9.6484  -17.5048   19.5150 C   0  0  2  0  0  0  0  0  0  0  0  0
    9.7636  -17.2735   18.1342 N   0  0  0  0  0  0  0  0  0  0  0  0
   10.9905  -17.7179   20.1685 C   0  0  0  0  0  0  0  0  0  0  0  0
   11.8870  -18.3506   19.5526 O   0  0  0  0  0  0  0  0  0  0  0  0
   16.0708  -13.9183   16.9301 N   0  0  0  0  0  0  0  0  0  0  0  0
   16.4185  -13.3126   18.1626 C   0  0  0  0  0  0  0  0  0  0  0  0
   17.4802  -12.5521   18.2239 N   0  0  0  0  0  0  0  0  0  0  0  0
   15.6361  -13.5247   19.3051 N   0  0  0  0  0  0  0  0  0  0  0  0
   14.7205  -14.6238   19.4146 C   0  0  0  0  0  0  0  0  0  0  0  0
   13.9853  -14.7293   20.6851 C   0  0  0  0  0  0  0  0  0  0  0  0
   12.8469  -15.5703   20.8937 C   0  0  0  0  0  0  0  0  0  0  0  0
   12.6195  -16.6707   21.8273 C   0  0  2  0  0  0  0  0  0  0  0  0
   11.2482  -17.2217   21.4466 N   0  0  0  0  0  0  0  0  0  0  0  0
   12.4750  -16.3610   23.2728 C   0  0  0  0  0  0  0  0  0  0  0  0
   11.3655  -16.2371   24.0249 O   0  0  0  0  0  0  0  0  0  0  0  0
   13.6006  -16.1764   23.9046 O   0  0  0  0  0  0  0  0  0  0  0  0
  2  1  1  1
  2  3  1  0
  3  4  1  0
  4  5  2  0
  4  8  1  0
  5  6  1  0
  6  7  1  0
  8  7  2  0
  9  2  1  0
 10  9  2  0
 12 14  1  0
 12 11  1  0
 13 12  2  0
 15 14  1  0
 16 15  1  6
 16 17  1  0
 17  9  1  0
 18 28  1  0
 18 16  1  0
 19 18  2  0
 21 20  1  0
 21 23  1  0
 22 21  2  0
 24 23  1  0
 25 24  1  0
 26 25  1  0
 27 26  1  6
 27 28  1  0
 29 27  1  0
 30 29  1  0
 31 29  2  0
M  END
$$$$
