HQR.pdb
     RDKit          3D

 31 31  0  0  1  0  0  0  0  0999 V2000
    9.7515  -16.6254   15.6094 N   0  0  0  0  0  0  0  0  0  0  0  0
    9.5564  -17.3014   16.8888 C   0  0  1  0  0  0  0  0  0  0  0  0
   10.0710  -18.6604   16.8178 C   0  0  0  0  0  0  0  0  0  0  0  0
    9.5681  -19.4802   15.6907 C   0  0  0  0  0  0  0  0  0  0  0  0
    8.3048  -20.0530   15.6186 C   0  0  0  0  0  0  0  0  0  0  0  0
    8.2232  -20.7149   14.4772 N   0  0  0  0  0  0  0  0  0  0  0  0
    9.3985  -20.5655   13.8462 C   0  0  0  0  0  0  0  0  0  0  0  0
   10.2358  -19.8043   14.5875 N   0  0  0  0  0  0  0  0  0  0  0  0
    9.7908  -16.4547   18.0364 C   0  0  0  0  0  0  0  0  0  0  0  0
   10.9782  -16.2156   18.3726 O   0  0  0  0  0  0  0  0  0  0  0  0
    9.2668  -12.4028   18.5449 N   0  0  0  0  0  0  0  0  0  0  0  0
    7.8506  -12.6563   18.4042 C   0  0  0  0  0  0  0  0  0  0  0  0
    7.3036  -12.0866   17.4488 O   0  0  0  0  0  0  0  0  0  0  0  0
    7.1309  -13.5148   19.3245 C   0  0  0  0  0  0  0  0  0  0  0  0
    7.8677  -14.1961   20.4162 C   0  0  0  0  0  0  0  0  0  0  0  0
    8.9527  -15.1107   20.0280 C   0  0  2  0  0  0  0  0  0  0  0  0
    8.7775  -15.8541   18.8491 N   0  0  0  0  0  0  0  0  0  0  0  0
    9.4025  -15.9724   21.1807 C   0  0  0  0  0  0  0  0  0  0  0  0
    8.8127  -17.0601   21.4093 O   0  0  0  0  0  0  0  0  0  0  0  0
   16.1334  -14.2444   21.7539 N   0  0  0  0  0  0  0  0  0  0  0  0
   15.5990  -14.5483   20.4776 C   0  0  0  0  0  0  0  0  0  0  0  0
   15.7174  -13.6760   19.5110 N   0  0  0  0  0  0  0  0  0  0  0  0
   14.9498  -15.7687   20.2505 N   0  0  0  0  0  0  0  0  0  0  0  0
   14.8068  -16.7636   21.2742 C   0  0  0  0  0  0  0  0  0  0  0  0
   13.4273  -17.1390   21.6234 C   0  0  0  0  0  0  0  0  0  0  0  0
   12.6024  -16.4212   22.5458 C   0  0  0  0  0  0  0  0  0  0  0  0
   11.1920  -16.5706   22.8959 C   0  0  2  0  0  0  0  0  0  0  0  0
   10.4640  -15.5769   21.9951 N   0  0  0  0  0  0  0  0  0  0  0  0
   10.7511  -16.1829   24.2603 C   0  0  0  0  0  0  0  0  0  0  0  0
   10.9059  -16.8227   25.4345 O   0  0  0  0  0  0  0  0  0  0  0  0
   10.1108  -15.0488   24.3233 O   0  0  0  0  0  0  0  0  0  0  0  0
  2  1  1  6
  2  3  1  0
  3  4  1  0
  4  5  2  0
  4  8  1  0
  5  6  1  0
  6  7  1  0
  8  7  2  0
  9  2  1  0
 10  9  2  0
 12 14  1  0
 12 11  1  0
 13 12  2  0
 15 14  1  0
 16 15  1  1
 16 17  1  0
 17  9  1  0
 18 28  1  0
 18 16  1  0
 19 18  2  0
 21 20  1  0
 21 23  1  0
 22 21  2  0
 24 23  1  0
 25 24  1  0
 26 25  1  0
 27 26  1  1
 27 28  1  0
 29 27  1  0
 30 29  1  0
 31 29  2  0
M  END
$$$$
