HQR.pdb
     RDKit          3D

 31 31  0  0  1  0  0  0  0  0999 V2000
    7.9333  -12.4492   19.0900 N   0  0  0  0  0  0  0  0  0  0  0  0
    8.3532  -13.7594   19.5787 C   0  0  1  0  0  0  0  0  0  0  0  0
    8.9784  -14.5151   18.5041 C   0  0  0  0  0  0  0  0  0  0  0  0
    8.2538  -14.5143   17.2117 C   0  0  0  0  0  0  0  0  0  0  0  0
    6.9163  -14.8489   17.0435 C   0  0  0  0  0  0  0  0  0  0  0  0
    6.6292  -14.7422   15.7575 N   0  0  0  0  0  0  0  0  0  0  0  0
    7.7503  -14.3518   15.1311 C   0  0  0  0  0  0  0  0  0  0  0  0
    8.7593  -14.2080   16.0206 N   0  0  0  0  0  0  0  0  0  0  0  0
    8.9034  -13.7335   20.9149 C   0  0  0  0  0  0  0  0  0  0  0  0
    9.1804  -12.6198   21.4280 O   0  0  0  0  0  0  0  0  0  0  0  0
    7.6447  -12.2202   25.8727 N   0  0  0  0  0  0  0  0  0  0  0  0
    6.9449  -12.8467   24.7739 C   0  0  0  0  0  0  0  0  0  0  0  0
    5.7318  -12.6000   24.7099 O   0  0  0  0  0  0  0  0  0  0  0  0
    7.6241  -13.7045   23.8227 C   0  0  0  0  0  0  0  0  0  0  0  0
    9.0552  -14.0342   24.0283 C   0  0  0  0  0  0  0  0  0  0  0  0
    9.6959  -14.9049   23.0304 C   0  0  2  0  0  0  0  0  0  0  0  0
    9.1755  -14.8808   21.7259 N   0  0  0  0  0  0  0  0  0  0  0  0
    9.8768  -16.3113   23.5433 C   0  0  0  0  0  0  0  0  0  0  0  0
    9.5059  -16.5985   24.7109 O   0  0  0  0  0  0  0  0  0  0  0  0
   16.7741  -14.3271   20.1300 N   0  0  0  0  0  0  0  0  0  0  0  0
   15.9151  -14.7951   19.1054 C   0  0  0  0  0  0  0  0  0  0  0  0
   16.2052  -14.5315   17.8582 N   0  0  0  0  0  0  0  0  0  0  0  0
   14.7664  -15.5320   19.4216 N   0  0  0  0  0  0  0  0  0  0  0  0
   14.6095  -16.2066   20.6780 C   0  0  0  0  0  0  0  0  0  0  0  0
   13.6395  -15.6150   21.6134 C   0  0  0  0  0  0  0  0  0  0  0  0
   12.3519  -16.1683   21.9010 C   0  0  0  0  0  0  0  0  0  0  0  0
   11.9627  -17.4077   22.5692 C   0  0  2  0  0  0  0  0  0  0  0  0
   10.4501  -17.2958   22.7381 N   0  0  0  0  0  0  0  0  0  0  0  0
   12.4446  -17.6536   23.9526 C   0  0  0  0  0  0  0  0  0  0  0  0
   13.5813  -18.2319   24.3833 O   0  0  0  0  0  0  0  0  0  0  0  0
   11.6344  -17.2491   24.8907 O   0  0  0  0  0  0  0  0  0  0  0  0
  2  1  1  6
  2  3  1  0
  3  4  1  0
  4  5  2  0
  4  8  1  0
  5  6  1  0
  6  7  1  0
  8  7  2  0
  9  2  1  0
 10  9  2  0
 12 14  1  0
 12 11  1  0
 13 12  2  0
 15 14  1  0
 16 15  1  1
 16 17  1  0
 17  9  1  0
 18 28  1  0
 18 16  1  0
 19 18  2  0
 21 20  1  0
 21 23  1  0
 22 21  2  0
 24 23  1  0
 25 24  1  0
 26 25  1  0
 27 26  1  1
 27 28  1  0
 29 27  1  0
 30 29  1  0
 31 29  2  0
M  END
$$$$
