HQR.pdb
     RDKit          3D

 31 31  0  0  1  0  0  0  0  0999 V2000
   13.6278  -18.1790   15.1001 N   0  0  0  0  0  0  0  0  0  0  0  0
   13.9852  -16.9198   15.7469 C   0  0  1  0  0  0  0  0  0  0  0  0
   14.4757  -15.9729   14.7572 C   0  0  0  0  0  0  0  0  0  0  0  0
   15.6875  -16.3902   14.0137 C   0  0  0  0  0  0  0  0  0  0  0  0
   16.9488  -16.5608   14.5696 C   0  0  0  0  0  0  0  0  0  0  0  0
   17.7733  -16.9254   13.6027 N   0  0  0  0  0  0  0  0  0  0  0  0
   17.0559  -16.9838   12.4696 C   0  0  0  0  0  0  0  0  0  0  0  0
   15.7664  -16.6553   12.7131 N   0  0  0  0  0  0  0  0  0  0  0  0
   13.0729  -16.5245   16.7959 C   0  0  0  0  0  0  0  0  0  0  0  0
   13.3151  -15.4696   17.4353 O   0  0  0  0  0  0  0  0  0  0  0  0
    7.6825  -18.9352   19.7692 N   0  0  0  0  0  0  0  0  0  0  0  0
    8.4400  -19.5796   18.7202 C   0  0  0  0  0  0  0  0  0  0  0  0
    8.1886  -20.7811   18.5477 O   0  0  0  0  0  0  0  0  0  0  0  0
    9.4247  -18.8617   17.9347 C   0  0  0  0  0  0  0  0  0  0  0  0
    9.6683  -17.4243   18.2052 C   0  0  0  0  0  0  0  0  0  0  0  0
   11.0691  -16.9839   18.2957 C   0  0  2  0  0  0  0  0  0  0  0  0
   11.8971  -17.2388   17.1900 N   0  0  0  0  0  0  0  0  0  0  0  0
   11.7097  -17.4065   19.5937 C   0  0  0  0  0  0  0  0  0  0  0  0
   12.4949  -18.3897   19.6068 O   0  0  0  0  0  0  0  0  0  0  0  0
    7.9662  -12.9097   25.5609 N   0  0  0  0  0  0  0  0  0  0  0  0
    7.4556  -13.2950   24.2969 C   0  0  0  0  0  0  0  0  0  0  0  0
    6.4104  -12.6755   23.8140 N   0  0  0  0  0  0  0  0  0  0  0  0
    8.0610  -14.3283   23.5702 N   0  0  0  0  0  0  0  0  0  0  0  0
    9.3770  -14.8115   23.8749 C   0  0  0  0  0  0  0  0  0  0  0  0
    9.8472  -15.9552   23.0769 C   0  0  0  0  0  0  0  0  0  0  0  0
   11.1795  -16.4750   23.1148 C   0  0  0  0  0  0  0  0  0  0  0  0
   11.9506  -17.2240   22.1256 C   0  0  2  0  0  0  0  0  0  0  0  0
   11.4414  -16.7199   20.7781 N   0  0  0  0  0  0  0  0  0  0  0  0
   11.7587  -18.6942   22.0362 C   0  0  0  0  0  0  0  0  0  0  0  0
   10.6565  -19.4067   21.7370 O   0  0  0  0  0  0  0  0  0  0  0  0
   12.8253  -19.3985   22.2936 O   0  0  0  0  0  0  0  0  0  0  0  0
  2  1  1  6
  2  3  1  0
  3  4  1  0
  4  5  2  0
  4  8  1  0
  5  6  1  0
  6  7  1  0
  8  7  2  0
  9  2  1  0
 10  9  2  0
 12 14  1  0
 12 11  1  0
 13 12  2  0
 15 14  1  0
 16 15  1  6
 16 17  1  0
 17  9  1  0
 18 28  1  0
 18 16  1  0
 19 18  2  0
 21 20  1  0
 21 23  1  0
 22 21  2  0
 24 23  1  0
 25 24  1  0
 26 25  1  0
 27 26  1  1
 27 28  1  0
 29 27  1  0
 30 29  1  0
 31 29  2  0
M  END
$$$$
