HQR.pdb
     RDKit          3D

 31 31  0  0  1  0  0  0  0  0999 V2000
   10.5502  -13.4657   20.1658 N   0  0  0  0  0  0  0  0  0  0  0  0
    9.2873  -13.9648   20.7024 C   0  0  1  0  0  0  0  0  0  0  0  0
    8.6928  -14.9151   19.7749 C   0  0  0  0  0  0  0  0  0  0  0  0
    8.2503  -14.3552   18.4764 C   0  0  0  0  0  0  0  0  0  0  0  0
    8.4867  -13.0574   18.0420 C   0  0  0  0  0  0  0  0  0  0  0  0
    7.9362  -12.9219   16.8477 N   0  0  0  0  0  0  0  0  0  0  0  0
    7.3690  -14.0978   16.5358 C   0  0  0  0  0  0  0  0  0  0  0  0
    7.5577  -14.9897   17.5353 N   0  0  0  0  0  0  0  0  0  0  0  0
    9.3137  -14.2027   22.1277 C   0  0  0  0  0  0  0  0  0  0  0  0
   10.3827  -14.6114   22.6477 O   0  0  0  0  0  0  0  0  0  0  0  0
    4.8798  -12.6831   26.8563 N   0  0  0  0  0  0  0  0  0  0  0  0
    6.0121  -11.8705   26.4727 C   0  0  0  0  0  0  0  0  0  0  0  0
    5.9877  -10.7014   26.8839 O   0  0  0  0  0  0  0  0  0  0  0  0
    7.0921  -12.3959   25.6605 C   0  0  0  0  0  0  0  0  0  0  0  0
    7.0158  -13.7880   25.1554 C   0  0  0  0  0  0  0  0  0  0  0  0
    8.1720  -14.2948   24.4000 C   0  0  2  0  0  0  0  0  0  0  0  0
    8.2124  -14.0198   23.0231 N   0  0  0  0  0  0  0  0  0  0  0  0
    8.4459  -15.7476   24.6968 C   0  0  0  0  0  0  0  0  0  0  0  0
    7.7116  -16.6339   24.1883 O   0  0  0  0  0  0  0  0  0  0  0  0
   15.7223  -20.7170   24.0755 N   0  0  0  0  0  0  0  0  0  0  0  0
   14.5525  -20.7855   23.2794 C   0  0  0  0  0  0  0  0  0  0  0  0
   14.6605  -21.0703   22.0080 N   0  0  0  0  0  0  0  0  0  0  0  0
   13.2925  -20.5506   23.8449 N   0  0  0  0  0  0  0  0  0  0  0  0
   12.9848  -19.3447   24.5587 C   0  0  0  0  0  0  0  0  0  0  0  0
   11.6063  -19.2232   25.0595 C   0  0  0  0  0  0  0  0  0  0  0  0
   10.8585  -18.0038   25.0826 C   0  0  0  0  0  0  0  0  0  0  0  0
    9.7388  -17.5753   25.9174 C   0  0  2  0  0  0  0  0  0  0  0  0
    9.5032  -16.1187   25.5279 N   0  0  0  0  0  0  0  0  0  0  0  0
    9.9306  -17.5098   27.3888 C   0  0  0  0  0  0  0  0  0  0  0  0
    9.9166  -18.4930   28.3082 O   0  0  0  0  0  0  0  0  0  0  0  0
   10.1392  -16.3111   27.8573 O   0  0  0  0  0  0  0  0  0  0  0  0
  2  1  1  6
  2  3  1  0
  3  4  1  0
  4  5  2  0
  4  8  1  0
  5  6  1  0
  6  7  1  0
  8  7  2  0
  9  2  1  0
 10  9  2  0
 12 14  1  0
 12 11  1  0
 13 12  2  0
 15 14  1  0
 16 15  1  6
 16 17  1  0
 17  9  1  0
 18 28  1  0
 18 16  1  0
 19 18  2  0
 21 20  1  0
 21 23  1  0
 22 21  2  0
 24 23  1  0
 25 24  1  0
 26 25  1  0
 27 26  1  6
 27 28  1  0
 29 27  1  0
 30 29  1  0
 31 29  2  0
M  END
$$$$
