HQR.pdb
     RDKit          3D

 31 31  0  0  1  0  0  0  0  0999 V2000
   13.8676  -16.0266   15.7193 N   0  0  0  0  0  0  0  0  0  0  0  0
   12.6829  -16.6114   16.3409 C   0  0  1  0  0  0  0  0  0  0  0  0
   12.7138  -18.0598   16.2075 C   0  0  0  0  0  0  0  0  0  0  0  0
   12.6198  -18.5800   14.8233 C   0  0  0  0  0  0  0  0  0  0  0  0
   13.5928  -19.3383   14.1852 C   0  0  0  0  0  0  0  0  0  0  0  0
   13.1627  -19.6075   12.9645 N   0  0  0  0  0  0  0  0  0  0  0  0
   11.9546  -19.0373   12.8340 C   0  0  0  0  0  0  0  0  0  0  0  0
   11.6103  -18.4004   13.9767 N   0  0  0  0  0  0  0  0  0  0  0  0
   12.2936  -15.9659   17.5741 C   0  0  0  0  0  0  0  0  0  0  0  0
   13.1702  -15.7783   18.4554 O   0  0  0  0  0  0  0  0  0  0  0  0
    6.9986  -12.3360   18.8161 N   0  0  0  0  0  0  0  0  0  0  0  0
    7.3622  -13.2476   17.7548 C   0  0  0  0  0  0  0  0  0  0  0  0
    6.5926  -13.2623   16.7831 O   0  0  0  0  0  0  0  0  0  0  0  0
    8.5439  -14.0839   17.8346 C   0  0  0  0  0  0  0  0  0  0  0  0
    9.3785  -14.0544   19.0599 C   0  0  0  0  0  0  0  0  0  0  0  0
   10.5291  -14.9695   19.1133 C   0  0  2  0  0  0  0  0  0  0  0  0
   10.9744  -15.5158   17.8982 N   0  0  0  0  0  0  0  0  0  0  0  0
   10.3634  -16.0210   20.1813 C   0  0  0  0  0  0  0  0  0  0  0  0
   10.1715  -17.2191   19.8479 O   0  0  0  0  0  0  0  0  0  0  0  0
   10.6747  -18.0875   27.7618 N   0  0  0  0  0  0  0  0  0  0  0  0
   12.0857  -18.0571   27.8840 C   0  0  0  0  0  0  0  0  0  0  0  0
   12.6547  -18.6871   28.8783 N   0  0  0  0  0  0  0  0  0  0  0  0
   12.8655  -17.3602   26.9520 N   0  0  0  0  0  0  0  0  0  0  0  0
   12.2898  -16.4859   25.9710 C   0  0  0  0  0  0  0  0  0  0  0  0
   11.8934  -17.1120   24.6995 C   0  0  0  0  0  0  0  0  0  0  0  0
   11.3694  -16.3989   23.5754 C   0  0  0  0  0  0  0  0  0  0  0  0
   10.3100  -16.7370   22.6280 C   0  0  2  0  0  0  0  0  0  0  0  0
   10.4208  -15.6800   21.5328 N   0  0  0  0  0  0  0  0  0  0  0  0
    8.8962  -16.6257   23.0697 C   0  0  0  0  0  0  0  0  0  0  0  0
    8.1338  -17.4949   23.7592 O   0  0  0  0  0  0  0  0  0  0  0  0
    8.3060  -15.5140   22.7296 O   0  0  0  0  0  0  0  0  0  0  0  0
  2  1  1  1
  2  3  1  0
  3  4  1  0
  4  5  2  0
  4  8  1  0
  5  6  1  0
  6  7  1  0
  8  7  2  0
  9  2  1  0
 10  9  2  0
 12 14  1  0
 12 11  1  0
 13 12  2  0
 15 14  1  0
 16 15  1  6
 16 17  1  0
 17  9  1  0
 18 28  1  0
 18 16  1  0
 19 18  2  0
 21 20  1  0
 21 23  1  0
 22 21  2  0
 24 23  1  0
 25 24  1  0
 26 25  1  0
 27 26  1  1
 27 28  1  0
 29 27  1  0
 30 29  1  0
 31 29  2  0
M  END
$$$$
