HQR.pdb
     RDKit          3D

 31 31  0  0  1  0  0  0  0  0999 V2000
    7.0259  -18.2271   15.8522 N   0  0  0  0  0  0  0  0  0  0  0  0
    6.7241  -19.4086   16.6552 C   0  0  1  0  0  0  0  0  0  0  0  0
    7.5375  -20.5316   16.2144 C   0  0  0  0  0  0  0  0  0  0  0  0
    7.4723  -20.8437   14.7675 C   0  0  0  0  0  0  0  0  0  0  0  0
    6.3681  -21.3722   14.1114 C   0  0  0  0  0  0  0  0  0  0  0  0
    6.6861  -21.5230   12.8371 N   0  0  0  0  0  0  0  0  0  0  0  0
    7.9526  -21.1028   12.6911 C   0  0  0  0  0  0  0  0  0  0  0  0
    8.4469  -20.6810   13.8776 N   0  0  0  0  0  0  0  0  0  0  0  0
    6.5122  -19.1221   18.0558 C   0  0  0  0  0  0  0  0  0  0  0  0
    7.2703  -18.2929   18.6197 O   0  0  0  0  0  0  0  0  0  0  0  0
    2.0933  -20.9750   22.2877 N   0  0  0  0  0  0  0  0  0  0  0  0
    1.9485  -20.9252   20.8503 C   0  0  0  0  0  0  0  0  0  0  0  0
    1.0159  -21.5990   20.3889 O   0  0  0  0  0  0  0  0  0  0  0  0
    2.8400  -20.1422   20.0172 C   0  0  0  0  0  0  0  0  0  0  0  0
    3.8584  -19.2720   20.6534 C   0  0  0  0  0  0  0  0  0  0  0  0
    5.2584  -19.4632   20.2438 C   0  0  2  0  0  0  0  0  0  0  0  0
    5.5032  -19.7104   18.8828 N   0  0  0  0  0  0  0  0  0  0  0  0
    5.9778  -20.4424   21.1367 C   0  0  0  0  0  0  0  0  0  0  0  0
    6.0218  -21.6582   20.8157 O   0  0  0  0  0  0  0  0  0  0  0  0
   14.0222  -21.0505   22.6074 N   0  0  0  0  0  0  0  0  0  0  0  0
   13.5298  -22.0340   23.5002 C   0  0  0  0  0  0  0  0  0  0  0  0
   14.3409  -22.9590   23.9425 N   0  0  0  0  0  0  0  0  0  0  0  0
   12.1891  -22.0188   23.9060 N   0  0  0  0  0  0  0  0  0  0  0  0
   11.2196  -21.1398   23.3181 C   0  0  0  0  0  0  0  0  0  0  0  0
    9.8315  -21.3078   23.7772 C   0  0  0  0  0  0  0  0  0  0  0  0
    8.6933  -20.7130   23.1470 C   0  0  0  0  0  0  0  0  0  0  0  0
    7.2658  -21.0003   23.2654 C   0  0  2  0  0  0  0  0  0  0  0  0
    6.5942  -20.0151   22.3130 N   0  0  0  0  0  0  0  0  0  0  0  0
    6.5909  -20.7375   24.5623 C   0  0  0  0  0  0  0  0  0  0  0  0
    5.7254  -19.7656   24.9063 O   0  0  0  0  0  0  0  0  0  0  0  0
    6.8913  -21.5787   25.5121 O   0  0  0  0  0  0  0  0  0  0  0  0
  2  1  1  1
  2  3  1  0
  3  4  1  0
  4  5  2  0
  4  8  1  0
  5  6  1  0
  6  7  1  0
  8  7  2  0
  9  2  1  0
 10  9  2  0
 12 14  1  0
 12 11  1  0
 13 12  2  0
 15 14  1  0
 16 15  1  6
 16 17  1  0
 17  9  1  0
 18 28  1  0
 18 16  1  0
 19 18  2  0
 21 20  1  0
 21 23  1  0
 22 21  2  0
 24 23  1  0
 25 24  1  0
 26 25  1  0
 27 26  1  1
 27 28  1  0
 29 27  1  0
 30 29  1  0
 31 29  2  0
M  END
$$$$
