HQR.pdb
     RDKit          3D

 31 31  0  0  1  0  0  0  0  0999 V2000
   11.6534  -19.4215   16.1631 N   0  0  0  0  0  0  0  0  0  0  0  0
   12.1052  -18.3287   17.0195 C   0  0  1  0  0  0  0  0  0  0  0  0
   11.7695  -17.0494   16.4136 C   0  0  0  0  0  0  0  0  0  0  0  0
   12.4034  -16.7727   15.1032 C   0  0  0  0  0  0  0  0  0  0  0  0
   13.7278  -17.0406   14.7821 C   0  0  0  0  0  0  0  0  0  0  0  0
   13.9306  -16.6510   13.5353 N   0  0  0  0  0  0  0  0  0  0  0  0
   12.7703  -16.1519   13.0811 C   0  0  0  0  0  0  0  0  0  0  0  0
   11.8207  -16.2228   14.0420 N   0  0  0  0  0  0  0  0  0  0  0  0
   11.9166  -18.5786   18.4305 C   0  0  0  0  0  0  0  0  0  0  0  0
   10.7578  -18.8358   18.8444 O   0  0  0  0  0  0  0  0  0  0  0  0
   16.1206  -20.3218   23.2173 N   0  0  0  0  0  0  0  0  0  0  0  0
   14.8477  -19.9793   23.8106 C   0  0  0  0  0  0  0  0  0  0  0  0
   14.7638  -20.1740   25.0320 O   0  0  0  0  0  0  0  0  0  0  0  0
   13.7525  -19.4500   23.0217 C   0  0  0  0  0  0  0  0  0  0  0  0
   13.9387  -19.2317   21.5669 C   0  0  0  0  0  0  0  0  0  0  0  0
   12.7965  -18.6880   20.8158 C   0  0  2  0  0  0  0  0  0  0  0  0
   12.9451  -18.5542   19.4254 N   0  0  0  0  0  0  0  0  0  0  0  0
   12.2496  -17.4347   21.4512 C   0  0  0  0  0  0  0  0  0  0  0  0
   12.8314  -16.3360   21.2572 O   0  0  0  0  0  0  0  0  0  0  0  0
    8.8833  -12.0441   18.9064 N   0  0  0  0  0  0  0  0  0  0  0  0
    7.7560  -12.8904   19.0472 C   0  0  0  0  0  0  0  0  0  0  0  0
    6.5756  -12.4448   18.7046 N   0  0  0  0  0  0  0  0  0  0  0  0
    7.9009  -14.1905   19.5484 N   0  0  0  0  0  0  0  0  0  0  0  0
    7.4721  -14.5562   20.8677 C   0  0  0  0  0  0  0  0  0  0  0  0
    8.5372  -14.7403   21.8665 C   0  0  0  0  0  0  0  0  0  0  0  0
    9.3874  -15.8885   21.9404 C   0  0  0  0  0  0  0  0  0  0  0  0
   10.4930  -16.2132   22.8383 C   0  0  2  0  0  0  0  0  0  0  0  0
   11.1072  -17.4806   22.2506 N   0  0  0  0  0  0  0  0  0  0  0  0
   10.1841  -16.5997   24.2388 C   0  0  0  0  0  0  0  0  0  0  0  0
    9.8722  -17.8027   24.7561 O   0  0  0  0  0  0  0  0  0  0  0  0
   10.2165  -15.6162   25.0943 O   0  0  0  0  0  0  0  0  0  0  0  0
  2  1  1  6
  2  3  1  0
  3  4  1  0
  4  5  2  0
  4  8  1  0
  5  6  1  0
  6  7  1  0
  8  7  2  0
  9  2  1  0
 10  9  2  0
 12 14  1  0
 12 11  1  0
 13 12  2  0
 15 14  1  0
 16 15  1  1
 16 17  1  0
 17  9  1  0
 18 28  1  0
 18 16  1  0
 19 18  2  0
 21 20  1  0
 21 23  1  0
 22 21  2  0
 24 23  1  0
 25 24  1  0
 26 25  1  0
 27 26  1  6
 27 28  1  0
 29 27  1  0
 30 29  1  0
 31 29  2  0
M  END
$$$$
