HQR.pdb
     RDKit          3D

 31 31  0  0  1  0  0  0  0  0999 V2000
    4.9989  -19.2758   19.8063 N   0  0  0  0  0  0  0  0  0  0  0  0
    4.8765  -18.1861   20.7703 C   0  0  1  0  0  0  0  0  0  0  0  0
    3.9037  -18.5339   21.7947 C   0  0  0  0  0  0  0  0  0  0  0  0
    2.6004  -19.0354   21.2996 C   0  0  0  0  0  0  0  0  0  0  0  0
    2.0752  -20.2943   21.5612 C   0  0  0  0  0  0  0  0  0  0  0  0
    0.9076  -20.3832   20.9478 N   0  0  0  0  0  0  0  0  0  0  0  0
    0.7000  -19.2164   20.3175 C   0  0  0  0  0  0  0  0  0  0  0  0
    1.7397  -18.3772   20.5288 N   0  0  0  0  0  0  0  0  0  0  0  0
    6.1340  -17.5518   21.0949 C   0  0  0  0  0  0  0  0  0  0  0  0
    7.0387  -18.2482   21.6212 O   0  0  0  0  0  0  0  0  0  0  0  0
    7.2179  -12.5475   17.4626 N   0  0  0  0  0  0  0  0  0  0  0  0
    8.2821  -13.0934   18.2744 C   0  0  0  0  0  0  0  0  0  0  0  0
    9.3378  -12.4439   18.2692 O   0  0  0  0  0  0  0  0  0  0  0  0
    8.1157  -14.3175   19.0333 C   0  0  0  0  0  0  0  0  0  0  0  0
    7.9287  -14.2465   20.5026 C   0  0  0  0  0  0  0  0  0  0  0  0
    7.6436  -15.5063   21.2069 C   0  0  2  0  0  0  0  0  0  0  0  0
    6.4529  -16.1740   20.8758 N   0  0  0  0  0  0  0  0  0  0  0  0
    7.8223  -15.3709   22.6980 C   0  0  0  0  0  0  0  0  0  0  0  0
    6.8474  -15.0162   23.4101 O   0  0  0  0  0  0  0  0  0  0  0  0
    8.1556  -21.5416   27.0408 N   0  0  0  0  0  0  0  0  0  0  0  0
    7.6254  -20.7445   28.0850 C   0  0  0  0  0  0  0  0  0  0  0  0
    7.4455  -21.2755   29.2660 N   0  0  0  0  0  0  0  0  0  0  0  0
    7.2959  -19.4020   27.8578 N   0  0  0  0  0  0  0  0  0  0  0  0
    7.3201  -18.8173   26.5479 C   0  0  0  0  0  0  0  0  0  0  0  0
    8.2135  -17.6611   26.3719 C   0  0  0  0  0  0  0  0  0  0  0  0
    8.3947  -16.9591   25.1386 C   0  0  0  0  0  0  0  0  0  0  0  0
    9.1940  -15.7818   24.8079 C   0  0  2  0  0  0  0  0  0  0  0  0
    9.0552  -15.6344   23.2953 N   0  0  0  0  0  0  0  0  0  0  0  0
   10.6640  -15.8374   25.0134 C   0  0  0  0  0  0  0  0  0  0  0  0
   11.6485  -16.1384   24.1460 O   0  0  0  0  0  0  0  0  0  0  0  0
   11.0550  -15.5551   26.2248 O   0  0  0  0  0  0  0  0  0  0  0  0
  2  1  1  1
  2  3  1  0
  3  4  1  0
  4  5  2  0
  4  8  1  0
  5  6  1  0
  6  7  1  0
  8  7  2  0
  9  2  1  0
 10  9  2  0
 12 14  1  0
 12 11  1  0
 13 12  2  0
 15 14  1  0
 16 15  1  6
 16 17  1  0
 17  9  1  0
 18 28  1  0
 18 16  1  0
 19 18  2  0
 21 20  1  0
 21 23  1  0
 22 21  2  0
 24 23  1  0
 25 24  1  0
 26 25  1  0
 27 26  1  6
 27 28  1  0
 29 27  1  0
 30 29  1  0
 31 29  2  0
M  END
$$$$
