HQR.pdb
     RDKit          3D

 31 31  0  0  1  0  0  0  0  0999 V2000
   11.1570  -16.2148   14.5196 N   0  0  0  0  0  0  0  0  0  0  0  0
   11.1416  -16.8019   15.8564 C   0  0  1  0  0  0  0  0  0  0  0  0
   12.2604  -17.7191   16.0106 C   0  0  0  0  0  0  0  0  0  0  0  0
   12.0313  -19.1000   15.5247 C   0  0  0  0  0  0  0  0  0  0  0  0
   10.8065  -19.6121   15.1164 C   0  0  0  0  0  0  0  0  0  0  0  0
   10.9905  -20.8725   14.7626 N   0  0  0  0  0  0  0  0  0  0  0  0
   12.2917  -21.1495   14.9411 C   0  0  0  0  0  0  0  0  0  0  0  0
   12.9431  -20.0611   15.4113 N   0  0  0  0  0  0  0  0  0  0  0  0
   10.7679  -15.8711   16.8969 C   0  0  0  0  0  0  0  0  0  0  0  0
   10.5131  -14.6828   16.5753 O   0  0  0  0  0  0  0  0  0  0  0  0
    8.4529  -12.0578   18.9267 N   0  0  0  0  0  0  0  0  0  0  0  0
    7.8931  -12.8067   20.0292 C   0  0  0  0  0  0  0  0  0  0  0  0
    7.4046  -12.1222   20.9399 O   0  0  0  0  0  0  0  0  0  0  0  0
    7.9116  -14.2562   20.0583 C   0  0  0  0  0  0  0  0  0  0  0  0
    8.6268  -14.9993   18.9929 C   0  0  0  0  0  0  0  0  0  0  0  0
   10.0000  -15.4393   19.2843 C   0  0  2  0  0  0  0  0  0  0  0  0
   10.6641  -16.1778   18.2909 N   0  0  0  0  0  0  0  0  0  0  0  0
   10.1076  -16.0884   20.6410 C   0  0  0  0  0  0  0  0  0  0  0  0
    9.1863  -16.8463   21.0410 O   0  0  0  0  0  0  0  0  0  0  0  0
   15.4594  -13.6389   20.3394 N   0  0  0  0  0  0  0  0  0  0  0  0
   14.9573  -14.4315   19.2780 C   0  0  0  0  0  0  0  0  0  0  0  0
   14.2879  -13.8573   18.3129 N   0  0  0  0  0  0  0  0  0  0  0  0
   15.1733  -15.8155   19.2601 N   0  0  0  0  0  0  0  0  0  0  0  0
   15.1951  -16.6041   20.4583 C   0  0  0  0  0  0  0  0  0  0  0  0
   13.9224  -17.2371   20.8395 C   0  0  0  0  0  0  0  0  0  0  0  0
   13.2163  -16.9670   22.0541 C   0  0  0  0  0  0  0  0  0  0  0  0
   11.7869  -16.9510   22.3550 C   0  0  2  0  0  0  0  0  0  0  0  0
   11.2161  -15.8578   21.4560 N   0  0  0  0  0  0  0  0  0  0  0  0
   11.3489  -16.5406   23.7137 C   0  0  0  0  0  0  0  0  0  0  0  0
   10.5682  -15.5136   24.0982 O   0  0  0  0  0  0  0  0  0  0  0  0
   11.7976  -17.2922   24.6800 O   0  0  0  0  0  0  0  0  0  0  0  0
  2  1  1  6
  2  3  1  0
  3  4  1  0
  4  5  2  0
  4  8  1  0
  5  6  1  0
  6  7  1  0
  8  7  2  0
  9  2  1  0
 10  9  2  0
 12 14  1  0
 12 11  1  0
 13 12  2  0
 15 14  1  0
 16 15  1  6
 16 17  1  0
 17  9  1  0
 18 28  1  0
 18 16  1  0
 19 18  2  0
 21 20  1  0
 21 23  1  0
 22 21  2  0
 24 23  1  0
 25 24  1  0
 26 25  1  0
 27 26  1  1
 27 28  1  0
 29 27  1  0
 30 29  1  0
 31 29  2  0
M  END
$$$$
