HQR.pdb
     RDKit          3D

 31 31  0  0  1  0  0  0  0  0999 V2000
    9.5367  -15.9804   19.0177 N   0  0  0  0  0  0  0  0  0  0  0  0
    8.4597  -15.5283   19.8938 C   0  0  1  0  0  0  0  0  0  0  0  0
    7.2777  -15.2108   19.1072 C   0  0  0  0  0  0  0  0  0  0  0  0
    7.5192  -14.4341   17.8688 C   0  0  0  0  0  0  0  0  0  0  0  0
    7.9988  -13.1315   17.8215 C   0  0  0  0  0  0  0  0  0  0  0  0
    8.0739  -12.7719   16.5516 N   0  0  0  0  0  0  0  0  0  0  0  0
    7.6550  -13.8148   15.8177 C   0  0  0  0  0  0  0  0  0  0  0  0
    7.3104  -14.8465   16.6221 N   0  0  0  0  0  0  0  0  0  0  0  0
    8.3759  -16.2587   21.1381 C   0  0  0  0  0  0  0  0  0  0  0  0
    7.4718  -15.9497   21.9551 O   0  0  0  0  0  0  0  0  0  0  0  0
   10.2478  -22.3398   22.3918 N   0  0  0  0  0  0  0  0  0  0  0  0
   11.1061  -21.2997   21.8711 C   0  0  0  0  0  0  0  0  0  0  0  0
   12.1600  -21.6944   21.3515 O   0  0  0  0  0  0  0  0  0  0  0  0
   10.7504  -19.8970   21.9601 C   0  0  0  0  0  0  0  0  0  0  0  0
    9.4914  -19.5040   22.6378 C   0  0  0  0  0  0  0  0  0  0  0  0
    9.1971  -18.0656   22.7307 C   0  0  2  0  0  0  0  0  0  0  0  0
    9.2473  -17.3198   21.5414 N   0  0  0  0  0  0  0  0  0  0  0  0
    9.9646  -17.4047   23.8477 C   0  0  0  0  0  0  0  0  0  0  0  0
   11.0946  -16.9038   23.6125 O   0  0  0  0  0  0  0  0  0  0  0  0
    5.7854  -11.6274   27.2834 N   0  0  0  0  0  0  0  0  0  0  0  0
    6.1445  -11.8352   25.9288 C   0  0  0  0  0  0  0  0  0  0  0  0
    5.4752  -11.2208   24.9888 N   0  0  0  0  0  0  0  0  0  0  0  0
    7.2041  -12.6893   25.5969 N   0  0  0  0  0  0  0  0  0  0  0  0
    8.0476  -13.2875   26.5914 C   0  0  0  0  0  0  0  0  0  0  0  0
    9.0473  -14.2486   26.0987 C   0  0  0  0  0  0  0  0  0  0  0  0
    9.2706  -15.5443   26.6627 C   0  0  0  0  0  0  0  0  0  0  0  0
   10.1694  -16.6260   26.2671 C   0  0  2  0  0  0  0  0  0  0  0  0
    9.4357  -17.3428   25.1372 N   0  0  0  0  0  0  0  0  0  0  0  0
   10.4470  -17.7138   27.2397 C   0  0  0  0  0  0  0  0  0  0  0  0
   11.3231  -17.7594   28.2607 O   0  0  0  0  0  0  0  0  0  0  0  0
    9.7319  -18.7908   27.0699 O   0  0  0  0  0  0  0  0  0  0  0  0
  2  1  1  6
  2  3  1  0
  3  4  1  0
  4  5  2  0
  4  8  1  0
  5  6  1  0
  6  7  1  0
  8  7  2  0
  9  2  1  0
 10  9  2  0
 12 14  1  0
 12 11  1  0
 13 12  2  0
 15 14  1  0
 16 15  1  6
 16 17  1  0
 17  9  1  0
 18 28  1  0
 18 16  1  0
 19 18  2  0
 21 20  1  0
 21 23  1  0
 22 21  2  0
 24 23  1  0
 25 24  1  0
 26 25  1  0
 27 26  1  1
 27 28  1  0
 29 27  1  0
 30 29  1  0
 31 29  2  0
M  END
$$$$
