HQR.pdb
     RDKit          3D

 31 31  0  0  1  0  0  0  0  0999 V2000
    2.0172  -21.1821   19.6788 N   0  0  0  0  0  0  0  0  0  0  0  0
    2.2552  -22.6225   19.6661 C   0  0  1  0  0  0  0  0  0  0  0  0
    2.1835  -23.1274   18.3035 C   0  0  0  0  0  0  0  0  0  0  0  0
    1.1234  -22.5362   17.4539 C   0  0  0  0  0  0  0  0  0  0  0  0
   -0.1861  -22.3032   17.8538 C   0  0  0  0  0  0  0  0  0  0  0  0
   -0.8369  -21.7791   16.8295 N   0  0  0  0  0  0  0  0  0  0  0  0
    0.0339  -21.6831   15.8125 C   0  0  0  0  0  0  0  0  0  0  0  0
    1.2475  -22.1479   16.1883 N   0  0  0  0  0  0  0  0  0  0  0  0
    3.2842  -23.0508   20.5863 C   0  0  0  0  0  0  0  0  0  0  0  0
    3.7636  -24.2054   20.4548 O   0  0  0  0  0  0  0  0  0  0  0  0
    8.7001  -24.0739   20.9051 N   0  0  0  0  0  0  0  0  0  0  0  0
    8.6456  -23.1226   21.9921 C   0  0  0  0  0  0  0  0  0  0  0  0
    9.7449  -22.7827   22.4533 O   0  0  0  0  0  0  0  0  0  0  0  0
    7.3876  -22.6124   22.5013 C   0  0  0  0  0  0  0  0  0  0  0  0
    6.1130  -23.1029   21.9237 C   0  0  0  0  0  0  0  0  0  0  0  0
    4.8658  -22.6130   22.5311 C   0  0  2  0  0  0  0  0  0  0  0  0
    3.8169  -22.2711   21.6616 N   0  0  0  0  0  0  0  0  0  0  0  0
    5.1233  -21.5402   23.5590 C   0  0  0  0  0  0  0  0  0  0  0  0
    5.9091  -20.5960   23.2868 O   0  0  0  0  0  0  0  0  0  0  0  0
    3.4091  -26.2399   30.1601 N   0  0  0  0  0  0  0  0  0  0  0  0
    2.6430  -26.5229   29.0026 C   0  0  0  0  0  0  0  0  0  0  0  0
    1.6284  -27.3425   29.0924 N   0  0  0  0  0  0  0  0  0  0  0  0
    2.9668  -25.9334   27.7737 N   0  0  0  0  0  0  0  0  0  0  0  0
    4.0252  -24.9745   27.6381 C   0  0  0  0  0  0  0  0  0  0  0  0
    4.3000  -24.5031   26.2713 C   0  0  0  0  0  0  0  0  0  0  0  0
    5.2739  -23.5094   25.9387 C   0  0  0  0  0  0  0  0  0  0  0  0
    5.2436  -22.0533   26.0538 C   0  0  2  0  0  0  0  0  0  0  0  0
    4.5003  -21.5836   24.8065 N   0  0  0  0  0  0  0  0  0  0  0  0
    6.5259  -21.3063   25.9902 C   0  0  0  0  0  0  0  0  0  0  0  0
    7.3559  -21.0984   24.9511 O   0  0  0  0  0  0  0  0  0  0  0  0
    6.9033  -20.7764   27.1202 O   0  0  0  0  0  0  0  0  0  0  0  0
  2  1  1  6
  2  3  1  0
  3  4  1  0
  4  5  2  0
  4  8  1  0
  5  6  1  0
  6  7  1  0
  8  7  2  0
  9  2  1  0
 10  9  2  0
 12 14  1  0
 12 11  1  0
 13 12  2  0
 15 14  1  0
 16 15  1  6
 16 17  1  0
 17  9  1  0
 18 28  1  0
 18 16  1  0
 19 18  2  0
 21 20  1  0
 21 23  1  0
 22 21  2  0
 24 23  1  0
 25 24  1  0
 26 25  1  0
 27 26  1  6
 27 28  1  0
 29 27  1  0
 30 29  1  0
 31 29  2  0
M  END
$$$$
