HQR.pdb
     RDKit          3D

 31 31  0  0  1  0  0  0  0  0999 V2000
   11.2247  -14.8244   18.9305 N   0  0  0  0  0  0  0  0  0  0  0  0
   10.9344  -15.8801   17.9646 C   0  0  1  0  0  0  0  0  0  0  0  0
    9.6625  -15.6189   17.3083 C   0  0  0  0  0  0  0  0  0  0  0  0
    8.7345  -14.7237   18.0382 C   0  0  0  0  0  0  0  0  0  0  0  0
    9.0059  -14.1076   19.2530 C   0  0  0  0  0  0  0  0  0  0  0  0
    7.9439  -13.3990   19.5957 N   0  0  0  0  0  0  0  0  0  0  0  0
    7.0284  -13.5614   18.6275 C   0  0  0  0  0  0  0  0  0  0  0  0
    7.5073  -14.3776   17.6609 N   0  0  0  0  0  0  0  0  0  0  0  0
   12.0942  -16.3327   17.2305 C   0  0  0  0  0  0  0  0  0  0  0  0
   11.9161  -16.9744   16.1643 O   0  0  0  0  0  0  0  0  0  0  0  0
   15.7408  -13.1569   13.2616 N   0  0  0  0  0  0  0  0  0  0  0  0
   15.5844  -14.5899   13.3699 C   0  0  0  0  0  0  0  0  0  0  0  0
   15.3759  -15.1816   12.3008 O   0  0  0  0  0  0  0  0  0  0  0  0
   15.6637  -15.2749   14.6453 C   0  0  0  0  0  0  0  0  0  0  0  0
   14.4788  -15.2988   15.5366 C   0  0  0  0  0  0  0  0  0  0  0  0
   14.5856  -16.0811   16.7780 C   0  0  2  0  0  0  0  0  0  0  0  0
   13.4568  -16.1211   17.6131 N   0  0  0  0  0  0  0  0  0  0  0  0
   15.8450  -15.7570   17.5414 C   0  0  0  0  0  0  0  0  0  0  0  0
   15.8883  -14.7224   18.2562 O   0  0  0  0  0  0  0  0  0  0  0  0
   13.3605  -22.0965   21.5709 N   0  0  0  0  0  0  0  0  0  0  0  0
   13.3883  -20.7642   22.0515 C   0  0  0  0  0  0  0  0  0  0  0  0
   12.8136  -20.4841   23.1919 N   0  0  0  0  0  0  0  0  0  0  0  0
   14.0231  -19.7556   21.3152 N   0  0  0  0  0  0  0  0  0  0  0  0
   14.7411  -20.0269   20.1032 C   0  0  0  0  0  0  0  0  0  0  0  0
   16.0064  -19.2971   19.9236 C   0  0  0  0  0  0  0  0  0  0  0  0
   16.2069  -18.2471   18.9728 C   0  0  0  0  0  0  0  0  0  0  0  0
   17.3918  -17.4592   18.6423 C   0  0  2  0  0  0  0  0  0  0  0  0
   16.9606  -16.5910   17.4636 N   0  0  0  0  0  0  0  0  0  0  0  0
   18.5949  -18.1622   18.1280 C   0  0  0  0  0  0  0  0  0  0  0  0
   19.7042  -18.5659   18.7748 O   0  0  0  0  0  0  0  0  0  0  0  0
   18.5689  -18.4212   16.8503 O   0  0  0  0  0  0  0  0  0  0  0  0
  2  1  1  6
  2  3  1  0
  3  4  1  0
  4  5  2  0
  4  8  1  0
  5  6  1  0
  6  7  1  0
  8  7  2  0
  9  2  1  0
 10  9  2  0
 12 14  1  0
 12 11  1  0
 13 12  2  0
 15 14  1  0
 16 15  1  6
 16 17  1  0
 17  9  1  0
 18 28  1  0
 18 16  1  0
 19 18  2  0
 21 20  1  0
 21 23  1  0
 22 21  2  0
 24 23  1  0
 25 24  1  0
 26 25  1  0
 27 26  1  6
 27 28  1  0
 29 27  1  0
 30 29  1  0
 31 29  2  0
M  END
$$$$
