YGC.pdb
     RDKit          3D

 23 23  0  0  1  0  0  0  0  0999 V2000
   24.6315  -20.9758   -7.3718 O   0  0  0  0  0  0  0  0  0  0  0  0
   24.9545  -20.8272   -8.7239 C   0  0  0  0  0  0  0  0  0  0  0  0
   26.2710  -20.9660   -9.1316 C   0  0  0  0  0  0  0  0  0  0  0  0
   26.6034  -20.8228  -10.4565 C   0  0  0  0  0  0  0  0  0  0  0  0
   25.6722  -20.5399  -11.4339 C   0  0  0  0  0  0  0  0  0  0  0  0
   26.0103  -20.3829  -12.8583 C   0  0  0  0  0  0  0  0  0  0  0  0
   24.9806  -21.0759  -13.6992 C   0  0  2  0  0  0  0  0  0  0  0  0
   25.5602  -22.2457  -14.2940 N   0  0  0  0  0  0  0  0  0  0  0  0
   24.3745  -20.1656  -14.7009 C   0  0  0  0  0  0  0  0  0  0  0  0
   24.9217  -20.0871  -15.8288 O   0  0  0  0  0  0  0  0  0  0  0  0
   24.3484  -20.4005  -11.0223 C   0  0  0  0  0  0  0  0  0  0  0  0
   24.0177  -20.5452   -9.6895 C   0  0  0  0  0  0  0  0  0  0  0  0
   23.2222  -19.3873  -14.4560 N   0  0  0  0  0  0  0  0  0  0  0  0
   22.4920  -18.6402  -15.4237 C   0  0  0  0  0  0  0  0  0  0  0  0
   21.3669  -19.3255  -16.0661 C   0  0  0  0  0  0  0  0  0  0  0  0
   20.5968  -18.6447  -16.8326 O   0  0  0  0  0  0  0  0  0  0  0  0
   21.0449  -20.6923  -15.9144 N   0  0  0  0  0  0  0  0  0  0  0  0
   19.9407  -21.3718  -16.5644 C   0  0  1  0  0  0  0  0  0  0  0  0
   20.3472  -22.8026  -16.7894 C   0  0  0  0  0  0  0  0  0  0  0  0
   20.8266  -23.1072  -18.5103 S   0  0  0  0  0  0  0  0  0  0  0  0
   18.7061  -21.3702  -15.7179 C   0  0  0  0  0  0  0  0  0  0  0  0
   17.4773  -21.8317  -16.1536 O   0  0  0  0  0  0  0  0  0  0  0  0
   18.7324  -20.9355  -14.5311 O   0  0  0  0  0  0  0  0  0  0  0  0
  2  1  1  0
  2  3  2  0
  4  3  1  0
  5  4  2  0
  6  5  1  0
  7  6  1  0
  7  9  1  0
  7  8  1  6
  9 10  2  0
  9 13  1  0
 11 12  2  0
 11  5  1  0
 12  2  1  0
 13 14  1  0
 14 15  1  0
 15 17  1  0
 16 15  2  0
 17 18  1  0
 18 21  1  0
 18 19  1  1
 19 20  1  0
 21 22  1  0
 23 21  2  0
M  END
$$$$
