YGC.pdb
     RDKit          3D

 23 23  0  0  1  0  0  0  0  0999 V2000
   22.1988  -19.6334  -23.6383 O   0  0  0  0  0  0  0  0  0  0  0  0
   22.8341  -19.7182  -22.3958 C   0  0  0  0  0  0  0  0  0  0  0  0
   23.9659  -20.5050  -22.2590 C   0  0  0  0  0  0  0  0  0  0  0  0
   24.6008  -20.5980  -21.0447 C   0  0  0  0  0  0  0  0  0  0  0  0
   24.1619  -19.9322  -19.9193 C   0  0  0  0  0  0  0  0  0  0  0  0
   24.8295  -20.0202  -18.6099 C   0  0  0  0  0  0  0  0  0  0  0  0
   25.4691  -18.7047  -18.2817 C   0  0  2  0  0  0  0  0  0  0  0  0
   26.4917  -18.4184  -19.2464 N   0  0  0  0  0  0  0  0  0  0  0  0
   25.9707  -18.6613  -16.8868 C   0  0  0  0  0  0  0  0  0  0  0  0
   27.1813  -18.9331  -16.6903 O   0  0  0  0  0  0  0  0  0  0  0  0
   23.0233  -19.1411  -20.0584 C   0  0  0  0  0  0  0  0  0  0  0  0
   22.3875  -19.0498  -21.2807 C   0  0  0  0  0  0  0  0  0  0  0  0
   25.1653  -18.3329  -15.7747 N   0  0  0  0  0  0  0  0  0  0  0  0
   25.5894  -18.2824  -14.4162 C   0  0  0  0  0  0  0  0  0  0  0  0
   25.1749  -19.3974  -13.5599 C   0  0  0  0  0  0  0  0  0  0  0  0
   24.3188  -20.2333  -14.0207 O   0  0  0  0  0  0  0  0  0  0  0  0
   25.6385  -19.6398  -12.2479 N   0  0  0  0  0  0  0  0  0  0  0  0
   25.1986  -20.7223  -11.3888 C   0  0  1  0  0  0  0  0  0  0  0  0
   25.8500  -20.5392  -10.0452 C   0  0  0  0  0  0  0  0  0  0  0  0
   25.2999  -21.7862   -8.8510 S   0  0  0  0  0  0  0  0  0  0  0  0
   23.7151  -20.7104  -11.1882 C   0  0  0  0  0  0  0  0  0  0  0  0
   22.9375  -21.8534  -11.1511 O   0  0  0  0  0  0  0  0  0  0  0  0
   23.0884  -19.6228  -11.0376 O   0  0  0  0  0  0  0  0  0  0  0  0
  2  1  1  0
  2  3  2  0
  4  3  1  0
  5  4  2  0
  6  5  1  0
  7  6  1  0
  7  9  1  0
  7  8  1  6
  9 10  2  0
  9 13  1  0
 11 12  2  0
 11  5  1  0
 12  2  1  0
 13 14  1  0
 14 15  1  0
 15 17  1  0
 16 15  2  0
 17 18  1  0
 18 21  1  0
 18 19  1  1
 19 20  1  0
 21 22  1  0
 23 21  2  0
M  END
$$$$
