YGC.pdb
     RDKit          3D

 23 23  0  0  1  0  0  0  0  0999 V2000
   27.0064  -12.2685  -16.8784 O   0  0  0  0  0  0  0  0  0  0  0  0
   26.2745  -13.4361  -16.6421 C   0  0  0  0  0  0  0  0  0  0  0  0
   26.7568  -14.3757  -15.7459 C   0  0  0  0  0  0  0  0  0  0  0  0
   26.0489  -15.5274  -15.5036 C   0  0  0  0  0  0  0  0  0  0  0  0
   24.8483  -15.8101  -16.1210 C   0  0  0  0  0  0  0  0  0  0  0  0
   24.0760  -17.0390  -15.8736 C   0  0  0  0  0  0  0  0  0  0  0  0
   24.7435  -18.1978  -16.5512 C   0  0  2  0  0  0  0  0  0  0  0  0
   23.8369  -18.7837  -17.4962 N   0  0  0  0  0  0  0  0  0  0  0  0
   25.2711  -19.1843  -15.5777 C   0  0  0  0  0  0  0  0  0  0  0  0
   24.6462  -20.2655  -15.4414 O   0  0  0  0  0  0  0  0  0  0  0  0
   24.3644  -14.8640  -17.0222 C   0  0  0  0  0  0  0  0  0  0  0  0
   25.0787  -13.7072  -17.2634 C   0  0  0  0  0  0  0  0  0  0  0  0
   26.4310  -18.9746  -14.8005 N   0  0  0  0  0  0  0  0  0  0  0  0
   26.9362  -19.8456  -13.7936 C   0  0  0  0  0  0  0  0  0  0  0  0
   26.0906  -20.0394  -12.6122 C   0  0  0  0  0  0  0  0  0  0  0  0
   25.0746  -19.2725  -12.4584 O   0  0  0  0  0  0  0  0  0  0  0  0
   26.2965  -21.0098  -11.6069 N   0  0  0  0  0  0  0  0  0  0  0  0
   25.4915  -21.1628  -10.4103 C   0  0  1  0  0  0  0  0  0  0  0  0
   25.9788  -22.3837   -9.6789 C   0  0  0  0  0  0  0  0  0  0  0  0
   26.4739  -23.7026  -10.8187 S   0  0  0  0  0  0  0  0  0  0  0  0
   25.6264  -19.9892   -9.4909 C   0  0  0  0  0  0  0  0  0  0  0  0
   24.6911  -19.6588   -8.5272 O   0  0  0  0  0  0  0  0  0  0  0  0
   26.6321  -19.2258   -9.5549 O   0  0  0  0  0  0  0  0  0  0  0  0
  2  1  1  0
  2  3  2  0
  4  3  1  0
  5  4  2  0
  6  5  1  0
  7  6  1  0
  7  9  1  0
  7  8  1  6
  9 10  2  0
  9 13  1  0
 11 12  2  0
 11  5  1  0
 12  2  1  0
 13 14  1  0
 14 15  1  0
 15 17  1  0
 16 15  2  0
 17 18  1  0
 18 21  1  0
 18 19  1  1
 19 20  1  0
 21 22  1  0
 23 21  2  0
M  END
$$$$
