YGC.pdb
     RDKit          3D

 23 23  0  0  1  0  0  0  0  0999 V2000
   28.5960  -18.4950   -3.3588 O   0  0  0  0  0  0  0  0  0  0  0  0
   28.3373  -19.1264   -4.5792 C   0  0  0  0  0  0  0  0  0  0  0  0
   28.3090  -18.3772   -5.7440 C   0  0  0  0  0  0  0  0  0  0  0  0
   28.0562  -18.9836   -6.9501 C   0  0  0  0  0  0  0  0  0  0  0  0
   27.8217  -20.3375   -7.0710 C   0  0  0  0  0  0  0  0  0  0  0  0
   27.5491  -21.0043   -8.3551 C   0  0  0  0  0  0  0  0  0  0  0  0
   26.2348  -20.5307   -8.8990 C   0  0  2  0  0  0  0  0  0  0  0  0
   25.1838  -20.9029   -7.9962 N   0  0  0  0  0  0  0  0  0  0  0  0
   25.9980  -21.0116  -10.2817 C   0  0  0  0  0  0  0  0  0  0  0  0
   25.9649  -22.2527  -10.4733 O   0  0  0  0  0  0  0  0  0  0  0  0
   27.8505  -21.0896   -5.8984 C   0  0  0  0  0  0  0  0  0  0  0  0
   28.1050  -20.4768   -4.6875 C   0  0  0  0  0  0  0  0  0  0  0  0
   25.8088  -20.1544  -11.3875 N   0  0  0  0  0  0  0  0  0  0  0  0
   25.6129  -20.5579  -12.7391 C   0  0  0  0  0  0  0  0  0  0  0  0
   24.2260  -20.7666  -13.1648 C   0  0  0  0  0  0  0  0  0  0  0  0
   23.9890  -20.9142  -14.4162 O   0  0  0  0  0  0  0  0  0  0  0  0
   23.1045  -20.8188  -12.3078 N   0  0  0  0  0  0  0  0  0  0  0  0
   21.7278  -20.9770  -12.7356 C   0  0  1  0  0  0  0  0  0  0  0  0
   20.9148  -21.3795  -11.5356 C   0  0  0  0  0  0  0  0  0  0  0  0
   19.1391  -21.3994  -11.8971 S   0  0  0  0  0  0  0  0  0  0  0  0
   21.1582  -19.7009  -13.2724 C   0  0  0  0  0  0  0  0  0  0  0  0
   20.3480  -19.6339  -14.3912 O   0  0  0  0  0  0  0  0  0  0  0  0
   21.3980  -18.5947  -12.7092 O   0  0  0  0  0  0  0  0  0  0  0  0
  2  1  1  0
  2  3  2  0
  4  3  1  0
  5  4  2  0
  6  5  1  0
  7  6  1  0
  7  9  1  0
  7  8  1  1
  9 10  2  0
  9 13  1  0
 11 12  2  0
 11  5  1  0
 12  2  1  0
 13 14  1  0
 14 15  1  0
 15 17  1  0
 16 15  2  0
 17 18  1  0
 18 21  1  0
 18 19  1  1
 19 20  1  0
 21 22  1  0
 23 21  2  0
M  END
$$$$
