YGC.pdb
     RDKit          3D

 23 23  0  0  1  0  0  0  0  0999 V2000
   29.7260  -19.4656   -6.6866 O   0  0  0  0  0  0  0  0  0  0  0  0
   28.6515  -19.8731   -7.4829 C   0  0  0  0  0  0  0  0  0  0  0  0
   28.8748  -20.7375   -8.5420 C   0  0  0  0  0  0  0  0  0  0  0  0
   27.8292  -21.1465   -9.3330 C   0  0  0  0  0  0  0  0  0  0  0  0
   26.5297  -20.7328   -9.1263 C   0  0  0  0  0  0  0  0  0  0  0  0
   25.3968  -21.1607   -9.9637 C   0  0  0  0  0  0  0  0  0  0  0  0
   25.8633  -21.3691  -11.3731 C   0  0  2  0  0  0  0  0  0  0  0  0
   26.4638  -20.1605  -11.8596 N   0  0  0  0  0  0  0  0  0  0  0  0
   24.7760  -21.8618  -12.2530 C   0  0  0  0  0  0  0  0  0  0  0  0
   23.8948  -21.0416  -12.6117 O   0  0  0  0  0  0  0  0  0  0  0  0
   26.3067  -19.8633   -8.0605 C   0  0  0  0  0  0  0  0  0  0  0  0
   27.3602  -19.4541   -7.2673 C   0  0  0  0  0  0  0  0  0  0  0  0
   24.6790  -23.1954  -12.7064 N   0  0  0  0  0  0  0  0  0  0  0  0
   23.5277  -23.8054  -13.2812 C   0  0  0  0  0  0  0  0  0  0  0  0
   23.2665  -23.5089  -14.6926 C   0  0  0  0  0  0  0  0  0  0  0  0
   24.2300  -23.0578  -15.4083 O   0  0  0  0  0  0  0  0  0  0  0  0
   22.0273  -23.6751  -15.3495 N   0  0  0  0  0  0  0  0  0  0  0  0
   21.7793  -23.4101  -16.7537 C   0  0  1  0  0  0  0  0  0  0  0  0
   21.2734  -24.6804  -17.3810 C   0  0  0  0  0  0  0  0  0  0  0  0
   20.7756  -25.8986  -16.1353 S   0  0  0  0  0  0  0  0  0  0  0  0
   20.7380  -22.3524  -16.9485 C   0  0  0  0  0  0  0  0  0  0  0  0
   20.6816  -21.5270  -18.0567 O   0  0  0  0  0  0  0  0  0  0  0  0
   19.8357  -22.1618  -16.0837 O   0  0  0  0  0  0  0  0  0  0  0  0
  2  1  1  0
  2  3  2  0
  4  3  1  0
  5  4  2  0
  6  5  1  0
  7  6  1  0
  7  9  1  0
  7  8  1  6
  9 10  2  0
  9 13  1  0
 11 12  2  0
 11  5  1  0
 12  2  1  0
 13 14  1  0
 14 15  1  0
 15 17  1  0
 16 15  2  0
 17 18  1  0
 18 21  1  0
 18 19  1  6
 19 20  1  0
 21 22  1  0
 23 21  2  0
M  END
$$$$
