YGC.pdb
     RDKit          3D

 23 23  0  0  1  0  0  0  0  0999 V2000
   29.9392  -13.3868  -17.1757 O   0  0  0  0  0  0  0  0  0  0  0  0
   28.8860  -12.4769  -17.0429 C   0  0  0  0  0  0  0  0  0  0  0  0
   28.3309  -11.9038  -18.1753 C   0  0  0  0  0  0  0  0  0  0  0  0
   27.2958  -11.0083  -18.0605 C   0  0  0  0  0  0  0  0  0  0  0  0
   26.7614  -10.6360  -16.8446 C   0  0  0  0  0  0  0  0  0  0  0  0
   25.6524   -9.6781  -16.7026 C   0  0  0  0  0  0  0  0  0  0  0  0
   24.4142  -10.4025  -16.2676 C   0  0  2  0  0  0  0  0  0  0  0  0
   24.3282  -11.6565  -16.9593 N   0  0  0  0  0  0  0  0  0  0  0  0
   23.1959   -9.5733  -16.4334 C   0  0  0  0  0  0  0  0  0  0  0  0
   22.2448  -10.0548  -17.0980 O   0  0  0  0  0  0  0  0  0  0  0  0
   27.3209  -11.2134  -15.7065 C   0  0  0  0  0  0  0  0  0  0  0  0
   28.3614  -12.1133  -15.8256 C   0  0  0  0  0  0  0  0  0  0  0  0
   23.0488   -8.2795  -15.8877 N   0  0  0  0  0  0  0  0  0  0  0  0
   21.8933   -7.4530  -15.9857 C   0  0  0  0  0  0  0  0  0  0  0  0
   21.9597   -6.1534  -15.3112 C   0  0  0  0  0  0  0  0  0  0  0  0
   22.9767   -5.9027  -14.5716 O   0  0  0  0  0  0  0  0  0  0  0  0
   20.9875   -5.1329  -15.4003 N   0  0  0  0  0  0  0  0  0  0  0  0
   21.1894   -3.7461  -15.0268 C   0  0  1  0  0  0  0  0  0  0  0  0
   22.3582   -3.2211  -15.8151 C   0  0  0  0  0  0  0  0  0  0  0  0
   23.9391   -3.8142  -15.1574 S   0  0  0  0  0  0  0  0  0  0  0  0
   19.9974   -2.9001  -15.3495 C   0  0  0  0  0  0  0  0  0  0  0  0
   19.7283   -1.6894  -14.7375 O   0  0  0  0  0  0  0  0  0  0  0  0
   19.1592   -3.2644  -16.2231 O   0  0  0  0  0  0  0  0  0  0  0  0
  2  1  1  0
  2  3  2  0
  4  3  1  0
  5  4  2  0
  6  5  1  0
  7  6  1  0
  7  9  1  0
  7  8  1  6
  9 10  2  0
  9 13  1  0
 11 12  2  0
 11  5  1  0
 12  2  1  0
 13 14  1  0
 14 15  1  0
 15 17  1  0
 16 15  2  0
 17 18  1  0
 18 21  1  0
 18 19  1  6
 19 20  1  0
 21 22  1  0
 23 21  2  0
M  END
$$$$
