YGC.pdb
     RDKit          3D

 23 23  0  0  1  0  0  0  0  0999 V2000
   28.8720  -19.4888   -4.1240 O   0  0  0  0  0  0  0  0  0  0  0  0
   28.6663  -19.6756   -5.4943 C   0  0  0  0  0  0  0  0  0  0  0  0
   27.3887  -19.5564   -6.0162 C   0  0  0  0  0  0  0  0  0  0  0  0
   27.1712  -19.7371   -7.3603 C   0  0  0  0  0  0  0  0  0  0  0  0
   28.1837  -20.0398   -8.2468 C   0  0  0  0  0  0  0  0  0  0  0  0
   27.9692  -20.2369   -9.6900 C   0  0  0  0  0  0  0  0  0  0  0  0
   26.7911  -21.1387   -9.9052 C   0  0  2  0  0  0  0  0  0  0  0  0
   27.1834  -22.4988   -9.6720 N   0  0  0  0  0  0  0  0  0  0  0  0
   26.1750  -20.9421  -11.2397 C   0  0  0  0  0  0  0  0  0  0  0  0
   26.6520  -21.5869  -12.2065 O   0  0  0  0  0  0  0  0  0  0  0  0
   29.4682  -20.1594   -7.7202 C   0  0  0  0  0  0  0  0  0  0  0  0
   29.6832  -19.9771   -6.3685 C   0  0  0  0  0  0  0  0  0  0  0  0
   25.0876  -20.0742  -11.4803 N   0  0  0  0  0  0  0  0  0  0  0  0
   24.4151  -19.8948  -12.7227 C   0  0  0  0  0  0  0  0  0  0  0  0
   23.3598  -20.8610  -13.0404 C   0  0  0  0  0  0  0  0  0  0  0  0
   23.4536  -22.0455  -12.5585 O   0  0  0  0  0  0  0  0  0  0  0  0
   22.2284  -20.6040  -13.8458 N   0  0  0  0  0  0  0  0  0  0  0  0
   21.2256  -21.5821  -14.2214 C   0  0  1  0  0  0  0  0  0  0  0  0
   20.4603  -21.9581  -12.9821 C   0  0  0  0  0  0  0  0  0  0  0  0
   20.6976  -20.7539  -11.6489 S   0  0  0  0  0  0  0  0  0  0  0  0
   20.2518  -21.0319  -15.2163 C   0  0  0  0  0  0  0  0  0  0  0  0
   19.2741  -21.7913  -15.8329 O   0  0  0  0  0  0  0  0  0  0  0  0
   20.2792  -19.8117  -15.5461 O   0  0  0  0  0  0  0  0  0  0  0  0
  2  1  1  0
  2  3  2  0
  4  3  1  0
  5  4  2  0
  6  5  1  0
  7  6  1  0
  7  9  1  0
  7  8  1  6
  9 10  2  0
  9 13  1  0
 11 12  2  0
 11  5  1  0
 12  2  1  0
 13 14  1  0
 14 15  1  0
 15 17  1  0
 16 15  2  0
 17 18  1  0
 18 21  1  0
 18 19  1  1
 19 20  1  0
 21 22  1  0
 23 21  2  0
M  END
$$$$
