YGC.pdb
     RDKit          3D

 23 23  0  0  1  0  0  0  0  0999 V2000
   20.7990  -25.2441  -19.4342 O   0  0  0  0  0  0  0  0  0  0  0  0
   21.6844  -24.8166  -18.4403 C   0  0  0  0  0  0  0  0  0  0  0  0
   22.1475  -23.5112  -18.4526 C   0  0  0  0  0  0  0  0  0  0  0  0
   23.0177  -23.0769  -17.4828 C   0  0  0  0  0  0  0  0  0  0  0  0
   23.4704  -23.8919  -16.4662 C   0  0  0  0  0  0  0  0  0  0  0  0
   24.4028  -23.4437  -15.4186 C   0  0  0  0  0  0  0  0  0  0  0  0
   25.7724  -23.2724  -16.0036 C   0  0  2  0  0  0  0  0  0  0  0  0
   26.3854  -24.5592  -16.1658 N   0  0  0  0  0  0  0  0  0  0  0  0
   26.6055  -22.3383  -15.2081 C   0  0  0  0  0  0  0  0  0  0  0  0
   27.3932  -22.8302  -14.3623 O   0  0  0  0  0  0  0  0  0  0  0  0
   23.0037  -25.2047  -16.4551 C   0  0  0  0  0  0  0  0  0  0  0  0
   22.1289  -25.6380  -17.4317 C   0  0  0  0  0  0  0  0  0  0  0  0
   26.5608  -20.9342  -15.3498 N   0  0  0  0  0  0  0  0  0  0  0  0
   27.2925  -19.9884  -14.5766 C   0  0  0  0  0  0  0  0  0  0  0  0
   26.7798  -19.7057  -13.2329 C   0  0  0  0  0  0  0  0  0  0  0  0
   27.3871  -18.8287  -12.5216 O   0  0  0  0  0  0  0  0  0  0  0  0
   25.6584  -20.3236  -12.6367 N   0  0  0  0  0  0  0  0  0  0  0  0
   25.1413  -20.0280  -11.3143 C   0  0  1  0  0  0  0  0  0  0  0  0
   23.6398  -20.0939  -11.3803 C   0  0  0  0  0  0  0  0  0  0  0  0
   22.9672  -18.9656  -12.6286 S   0  0  0  0  0  0  0  0  0  0  0  0
   25.6030  -21.0244  -10.2970 C   0  0  0  0  0  0  0  0  0  0  0  0
   25.3351  -20.9192   -8.9443 O   0  0  0  0  0  0  0  0  0  0  0  0
   26.2770  -22.0378  -10.6392 O   0  0  0  0  0  0  0  0  0  0  0  0
  2  1  1  0
  2  3  2  0
  4  3  1  0
  5  4  2  0
  6  5  1  0
  7  6  1  0
  7  9  1  0
  7  8  1  1
  9 10  2  0
  9 13  1  0
 11 12  2  0
 11  5  1  0
 12  2  1  0
 13 14  1  0
 14 15  1  0
 15 17  1  0
 16 15  2  0
 17 18  1  0
 18 21  1  0
 18 19  1  6
 19 20  1  0
 21 22  1  0
 23 21  2  0
M  END
$$$$
