YGC.pdb
     RDKit          3D

 23 23  0  0  1  0  0  0  0  0999 V2000
   28.3638  -19.6181   -4.7719 O   0  0  0  0  0  0  0  0  0  0  0  0
   28.2361  -19.7510   -6.1579 C   0  0  0  0  0  0  0  0  0  0  0  0
   27.0504  -19.3849   -6.7733 C   0  0  0  0  0  0  0  0  0  0  0  0
   26.9102  -19.5098   -8.1339 C   0  0  0  0  0  0  0  0  0  0  0  0
   27.9138  -19.9938   -8.9469 C   0  0  0  0  0  0  0  0  0  0  0  0
   27.7813  -20.1345  -10.4065 C   0  0  0  0  0  0  0  0  0  0  0  0
   26.4854  -20.8148  -10.7310 C   0  0  2  0  0  0  0  0  0  0  0  0
   26.5338  -22.1741  -10.2748 N   0  0  0  0  0  0  0  0  0  0  0  0
   26.1439  -20.7064  -12.1700 C   0  0  0  0  0  0  0  0  0  0  0  0
   25.7226  -19.6004  -12.5910 O   0  0  0  0  0  0  0  0  0  0  0  0
   29.1059  -20.3616   -8.3264 C   0  0  0  0  0  0  0  0  0  0  0  0
   29.2434  -20.2348   -6.9583 C   0  0  0  0  0  0  0  0  0  0  0  0
   26.2663  -21.7733  -13.0867 N   0  0  0  0  0  0  0  0  0  0  0  0
   25.9023  -21.7440  -14.4631 C   0  0  0  0  0  0  0  0  0  0  0  0
   24.5636  -22.2391  -14.7961 C   0  0  0  0  0  0  0  0  0  0  0  0
   24.4190  -22.9312  -15.8657 O   0  0  0  0  0  0  0  0  0  0  0  0
   23.3949  -22.0182  -14.0343 N   0  0  0  0  0  0  0  0  0  0  0  0
   22.2453  -22.9011  -13.9854 C   0  0  1  0  0  0  0  0  0  0  0  0
   22.7091  -24.2345  -13.4657 C   0  0  0  0  0  0  0  0  0  0  0  0
   21.3612  -25.4444  -13.4087 S   0  0  0  0  0  0  0  0  0  0  0  0
   21.1848  -22.3888  -13.0614 C   0  0  0  0  0  0  0  0  0  0  0  0
   19.8298  -22.5532  -13.2835 O   0  0  0  0  0  0  0  0  0  0  0  0
   21.4895  -21.7659  -12.0042 O   0  0  0  0  0  0  0  0  0  0  0  0
  2  1  1  0
  2  3  2  0
  4  3  1  0
  5  4  2  0
  6  5  1  0
  7  6  1  0
  7  9  1  0
  7  8  1  6
  9 10  2  0
  9 13  1  0
 11 12  2  0
 11  5  1  0
 12  2  1  0
 13 14  1  0
 14 15  1  0
 15 17  1  0
 16 15  2  0
 17 18  1  0
 18 21  1  0
 18 19  1  1
 19 20  1  0
 21 22  1  0
 23 21  2  0
M  END
$$$$
