YGC.pdb
     RDKit          3D

 23 23  0  0  1  0  0  0  0  0999 V2000
   21.9072  -22.4102   -7.7153 O   0  0  0  0  0  0  0  0  0  0  0  0
   22.8125  -21.7139   -8.5218 C   0  0  0  0  0  0  0  0  0  0  0  0
   24.0683  -21.4017   -8.0276 C   0  0  0  0  0  0  0  0  0  0  0  0
   24.9682  -20.7181   -8.8080 C   0  0  0  0  0  0  0  0  0  0  0  0
   24.6837  -20.3124  -10.0953 C   0  0  0  0  0  0  0  0  0  0  0  0
   25.6356  -19.5791  -10.9461 C   0  0  0  0  0  0  0  0  0  0  0  0
   25.6327  -20.1655  -12.3258 C   0  0  2  0  0  0  0  0  0  0  0  0
   26.1857  -21.4886  -12.2821 N   0  0  0  0  0  0  0  0  0  0  0  0
   26.3211  -19.2901  -13.3051 C   0  0  0  0  0  0  0  0  0  0  0  0
   27.5754  -19.3379  -13.3541 O   0  0  0  0  0  0  0  0  0  0  0  0
   23.4201  -20.6273  -10.5910 C   0  0  0  0  0  0  0  0  0  0  0  0
   22.5178  -21.3146   -9.8036 C   0  0  0  0  0  0  0  0  0  0  0  0
   25.6462  -18.4111  -14.1799 N   0  0  0  0  0  0  0  0  0  0  0  0
   26.2460  -17.6087  -15.1920 C   0  0  0  0  0  0  0  0  0  0  0  0
   27.3764  -18.2018  -15.9122 C   0  0  0  0  0  0  0  0  0  0  0  0
   28.5592  -18.0013  -15.4599 O   0  0  0  0  0  0  0  0  0  0  0  0
   27.2817  -18.9871  -17.0824 N   0  0  0  0  0  0  0  0  0  0  0  0
   28.1358  -20.1128  -17.4093 C   0  0  1  0  0  0  0  0  0  0  0  0
   27.8202  -21.2262  -16.4482 C   0  0  0  0  0  0  0  0  0  0  0  0
   28.9670  -21.2545  -15.0454 S   0  0  0  0  0  0  0  0  0  0  0  0
   27.8903  -20.6173  -18.7972 C   0  0  0  0  0  0  0  0  0  0  0  0
   28.8254  -21.3218  -19.5333 O   0  0  0  0  0  0  0  0  0  0  0  0
   26.7837  -20.4174  -19.3750 O   0  0  0  0  0  0  0  0  0  0  0  0
  2  1  1  0
  2  3  2  0
  4  3  1  0
  5  4  2  0
  6  5  1  0
  7  6  1  0
  7  9  1  0
  7  8  1  1
  9 10  2  0
  9 13  1  0
 11 12  2  0
 11  5  1  0
 12  2  1  0
 13 14  1  0
 14 15  1  0
 15 17  1  0
 16 15  2  0
 17 18  1  0
 18 21  1  0
 18 19  1  1
 19 20  1  0
 21 22  1  0
 23 21  2  0
M  END
$$$$
