YGC.pdb
     RDKit          3D

 23 23  0  0  1  0  0  0  0  0999 V2000
   20.6623  -22.8421   -9.1781 O   0  0  0  0  0  0  0  0  0  0  0  0
   21.6556  -22.1033   -9.8279 C   0  0  0  0  0  0  0  0  0  0  0  0
   21.7863  -22.1955  -11.2039 C   0  0  0  0  0  0  0  0  0  0  0  0
   22.7573  -21.4757  -11.8561 C   0  0  0  0  0  0  0  0  0  0  0  0
   23.6366  -20.6408  -11.1986 C   0  0  0  0  0  0  0  0  0  0  0  0
   24.6833  -19.8620  -11.8810 C   0  0  0  0  0  0  0  0  0  0  0  0
   25.8129  -20.7682  -12.2685 C   0  0  2  0  0  0  0  0  0  0  0  0
   26.4406  -21.2800  -11.0844 N   0  0  0  0  0  0  0  0  0  0  0  0
   26.7727  -20.1031  -13.1827 C   0  0  0  0  0  0  0  0  0  0  0  0
   27.6142  -19.3180  -12.6792 O   0  0  0  0  0  0  0  0  0  0  0  0
   23.5039  -20.5491   -9.8146 C   0  0  0  0  0  0  0  0  0  0  0  0
   22.5266  -21.2741   -9.1621 C   0  0  0  0  0  0  0  0  0  0  0  0
   26.7911  -20.3039  -14.5801 N   0  0  0  0  0  0  0  0  0  0  0  0
   27.5013  -19.5183  -15.5322 C   0  0  0  0  0  0  0  0  0  0  0  0
   26.8172  -18.3233  -16.0344 C   0  0  0  0  0  0  0  0  0  0  0  0
   25.5357  -18.3278  -16.0763 O   0  0  0  0  0  0  0  0  0  0  0  0
   27.4512  -17.1453  -16.4874 N   0  0  0  0  0  0  0  0  0  0  0  0
   26.7792  -16.0053  -17.0808 C   0  0  1  0  0  0  0  0  0  0  0  0
   27.3617  -14.7583  -16.4735 C   0  0  0  0  0  0  0  0  0  0  0  0
   27.0810  -14.6822  -14.6848 S   0  0  0  0  0  0  0  0  0  0  0  0
   26.9898  -15.9396  -18.5614 C   0  0  0  0  0  0  0  0  0  0  0  0
   26.2913  -15.0882  -19.3980 O   0  0  0  0  0  0  0  0  0  0  0  0
   27.8421  -16.6801  -19.1301 O   0  0  0  0  0  0  0  0  0  0  0  0
  2  1  1  0
  2  3  2  0
  4  3  1  0
  5  4  2  0
  6  5  1  0
  7  6  1  0
  7  9  1  0
  7  8  1  1
  9 10  2  0
  9 13  1  0
 11 12  2  0
 11  5  1  0
 12  2  1  0
 13 14  1  0
 14 15  1  0
 15 17  1  0
 16 15  2  0
 17 18  1  0
 18 21  1  0
 18 19  1  1
 19 20  1  0
 21 22  1  0
 23 21  2  0
M  END
$$$$
