YGC.pdb
     RDKit          3D

 23 23  0  0  1  0  0  0  0  0999 V2000
   29.3405  -19.6098   -5.6970 O   0  0  0  0  0  0  0  0  0  0  0  0
   28.6029  -19.6634   -6.8835 C   0  0  0  0  0  0  0  0  0  0  0  0
   29.2190  -20.0760   -8.0534 C   0  0  0  0  0  0  0  0  0  0  0  0
   28.5072  -20.1337   -9.2266 C   0  0  0  0  0  0  0  0  0  0  0  0
   27.1729  -19.7937   -9.3084 C   0  0  0  0  0  0  0  0  0  0  0  0
   26.3943  -19.8493  -10.5568 C   0  0  0  0  0  0  0  0  0  0  0  0
   25.5989  -21.1193  -10.5975 C   0  0  2  0  0  0  0  0  0  0  0  0
   26.4768  -22.2230  -10.8607 N   0  0  0  0  0  0  0  0  0  0  0  0
   24.4736  -21.0416  -11.5603 C   0  0  0  0  0  0  0  0  0  0  0  0
   23.6836  -20.0699  -11.4618 O   0  0  0  0  0  0  0  0  0  0  0  0
   26.5546  -19.3788   -8.1306 C   0  0  0  0  0  0  0  0  0  0  0  0
   27.2732  -19.3220   -6.9529 C   0  0  0  0  0  0  0  0  0  0  0  0
   24.2440  -21.9955  -12.5756 N   0  0  0  0  0  0  0  0  0  0  0  0
   23.1517  -22.0034  -13.4893 C   0  0  0  0  0  0  0  0  0  0  0  0
   23.2004  -21.0200  -14.5750 C   0  0  0  0  0  0  0  0  0  0  0  0
   24.2311  -20.2625  -14.6646 O   0  0  0  0  0  0  0  0  0  0  0  0
   22.1968  -20.8242  -15.5493 N   0  0  0  0  0  0  0  0  0  0  0  0
   22.2624  -19.8738  -16.6429 C   0  0  1  0  0  0  0  0  0  0  0  0
   22.1528  -20.6435  -17.9308 C   0  0  0  0  0  0  0  0  0  0  0  0
   23.4916  -21.8511  -18.1133 S   0  0  0  0  0  0  0  0  0  0  0  0
   21.1365  -18.8884  -16.5966 C   0  0  0  0  0  0  0  0  0  0  0  0
   21.1201  -17.7087  -17.3182 O   0  0  0  0  0  0  0  0  0  0  0  0
   20.1192  -19.0975  -15.8757 O   0  0  0  0  0  0  0  0  0  0  0  0
  2  1  1  0
  2  3  2  0
  4  3  1  0
  5  4  2  0
  6  5  1  0
  7  6  1  0
  7  9  1  0
  7  8  1  6
  9 10  2  0
  9 13  1  0
 11 12  2  0
 11  5  1  0
 12  2  1  0
 13 14  1  0
 14 15  1  0
 15 17  1  0
 16 15  2  0
 17 18  1  0
 18 21  1  0
 18 19  1  6
 19 20  1  0
 21 22  1  0
 23 21  2  0
M  END
$$$$
