YGC.pdb
     RDKit          3D

 23 23  0  0  1  0  0  0  0  0999 V2000
   34.4917  -29.1828  -19.0399 O   0  0  0  0  0  0  0  0  0  0  0  0
   33.7137  -28.0240  -18.9581 C   0  0  0  0  0  0  0  0  0  0  0  0
   33.6403  -27.3332  -17.7597 C   0  0  0  0  0  0  0  0  0  0  0  0
   32.8801  -26.1933  -17.6640 C   0  0  0  0  0  0  0  0  0  0  0  0
   32.1637  -25.6819  -18.7260 C   0  0  0  0  0  0  0  0  0  0  0  0
   31.3439  -24.4618  -18.6419 C   0  0  0  0  0  0  0  0  0  0  0  0
   30.1049  -24.7420  -17.8457 C   0  0  2  0  0  0  0  0  0  0  0  0
   29.3785  -25.8172  -18.4575 N   0  0  0  0  0  0  0  0  0  0  0  0
   29.2765  -23.5265  -17.6575 C   0  0  0  0  0  0  0  0  0  0  0  0
   28.5812  -23.1348  -18.6277 O   0  0  0  0  0  0  0  0  0  0  0  0
   32.2386  -26.3779  -19.9308 C   0  0  0  0  0  0  0  0  0  0  0  0
   33.0038  -27.5235  -20.0234 C   0  0  0  0  0  0  0  0  0  0  0  0
   29.2277  -22.7904  -16.4537 N   0  0  0  0  0  0  0  0  0  0  0  0
   28.5426  -21.5587  -16.2494 C   0  0  0  0  0  0  0  0  0  0  0  0
   27.1076  -21.6481  -15.9651 C   0  0  0  0  0  0  0  0  0  0  0  0
   26.6710  -22.6896  -15.3579 O   0  0  0  0  0  0  0  0  0  0  0  0
   26.1421  -20.6754  -16.3065 N   0  0  0  0  0  0  0  0  0  0  0  0
   24.7369  -20.7264  -15.9510 C   0  0  1  0  0  0  0  0  0  0  0  0
   24.6256  -20.4765  -14.4717 C   0  0  0  0  0  0  0  0  0  0  0  0
   22.8992  -20.4024  -13.9261 S   0  0  0  0  0  0  0  0  0  0  0  0
   23.9419  -19.6735  -16.6583 C   0  0  0  0  0  0  0  0  0  0  0  0
   22.5893  -19.7837  -16.9243 O   0  0  0  0  0  0  0  0  0  0  0  0
   24.4872  -18.6039  -17.0543 O   0  0  0  0  0  0  0  0  0  0  0  0
  2  1  1  0
  2  3  2  0
  4  3  1  0
  5  4  2  0
  6  5  1  0
  7  6  1  0
  7  9  1  0
  7  8  1  6
  9 10  2  0
  9 13  1  0
 11 12  2  0
 11  5  1  0
 12  2  1  0
 13 14  1  0
 14 15  1  0
 15 17  1  0
 16 15  2  0
 17 18  1  0
 18 21  1  0
 18 19  1  1
 19 20  1  0
 21 22  1  0
 23 21  2  0
M  END
$$$$
