YGC.pdb
     RDKit          3D

 23 23  0  0  1  0  0  0  0  0999 V2000
   29.5545  -19.8555   -3.5224 O   0  0  0  0  0  0  0  0  0  0  0  0
   28.7122  -19.8164   -4.6377 C   0  0  0  0  0  0  0  0  0  0  0  0
   28.8317  -18.7798   -5.5486 C   0  0  0  0  0  0  0  0  0  0  0  0
   28.0114  -18.7280   -6.6489 C   0  0  0  0  0  0  0  0  0  0  0  0
   27.0457  -19.6789   -6.9061 C   0  0  0  0  0  0  0  0  0  0  0  0
   26.1578  -19.6395   -8.0799 C   0  0  0  0  0  0  0  0  0  0  0  0
   26.4352  -20.8205   -8.9606 C   0  0  2  0  0  0  0  0  0  0  0  0
   27.8476  -20.9221   -9.1904 N   0  0  0  0  0  0  0  0  0  0  0  0
   25.6530  -20.7730  -10.2196 C   0  0  0  0  0  0  0  0  0  0  0  0
   24.4003  -20.7438  -10.1309 O   0  0  0  0  0  0  0  0  0  0  0  0
   26.9267  -20.7210   -5.9889 C   0  0  0  0  0  0  0  0  0  0  0  0
   27.7531  -20.7699   -4.8838 C   0  0  0  0  0  0  0  0  0  0  0  0
   26.2374  -20.7589  -11.5048 N   0  0  0  0  0  0  0  0  0  0  0  0
   25.9952  -21.6976  -12.5480 C   0  0  0  0  0  0  0  0  0  0  0  0
   24.5976  -21.8840  -12.9483 C   0  0  0  0  0  0  0  0  0  0  0  0
   24.3463  -22.6570  -13.9399 O   0  0  0  0  0  0  0  0  0  0  0  0
   23.4806  -21.2775  -12.3325 N   0  0  0  0  0  0  0  0  0  0  0  0
   22.0945  -21.5157  -12.6867 C   0  0  1  0  0  0  0  0  0  0  0  0
   21.2523  -21.2303  -11.4733 C   0  0  0  0  0  0  0  0  0  0  0  0
   19.4959  -21.5572  -11.7767 S   0  0  0  0  0  0  0  0  0  0  0  0
   21.6356  -20.6138  -13.7899 C   0  0  0  0  0  0  0  0  0  0  0  0
   20.8278  -21.0284  -14.8330 O   0  0  0  0  0  0  0  0  0  0  0  0
   21.9747  -19.3962  -13.8173 O   0  0  0  0  0  0  0  0  0  0  0  0
  2  1  1  0
  2  3  2  0
  4  3  1  0
  5  4  2  0
  6  5  1  0
  7  6  1  0
  7  9  1  0
  7  8  1  6
  9 10  2  0
  9 13  1  0
 11 12  2  0
 11  5  1  0
 12  2  1  0
 13 14  1  0
 14 15  1  0
 15 17  1  0
 16 15  2  0
 17 18  1  0
 18 21  1  0
 18 19  1  1
 19 20  1  0
 21 22  1  0
 23 21  2  0
M  END
$$$$
