YGC.pdb
     RDKit          3D

 23 23  0  0  1  0  0  0  0  0999 V2000
   22.1433  -16.6364  -16.9251 O   0  0  0  0  0  0  0  0  0  0  0  0
   22.9892  -17.4284  -16.1427 C   0  0  0  0  0  0  0  0  0  0  0  0
   23.9751  -16.8267  -15.3780 C   0  0  0  0  0  0  0  0  0  0  0  0
   24.8135  -17.5917  -14.6046 C   0  0  0  0  0  0  0  0  0  0  0  0
   24.7268  -18.9670  -14.5443 C   0  0  0  0  0  0  0  0  0  0  0  0
   25.6166  -19.8027  -13.7211 C   0  0  0  0  0  0  0  0  0  0  0  0
   26.9727  -19.8712  -14.3565 C   0  0  2  0  0  0  0  0  0  0  0  0
   26.8467  -20.3706  -15.6955 N   0  0  0  0  0  0  0  0  0  0  0  0
   27.9312  -20.6561  -13.5413 C   0  0  0  0  0  0  0  0  0  0  0  0
   27.9571  -21.9014  -13.7041 O   0  0  0  0  0  0  0  0  0  0  0  0
   23.7346  -19.5707  -15.3140 C   0  0  0  0  0  0  0  0  0  0  0  0
   22.8934  -18.7986  -16.0905 C   0  0  0  0  0  0  0  0  0  0  0  0
   28.8108  -20.0821  -12.5978 N   0  0  0  0  0  0  0  0  0  0  0  0
   29.4880  -20.7723  -11.5524 C   0  0  0  0  0  0  0  0  0  0  0  0
   28.7167  -21.0319  -10.3334 C   0  0  0  0  0  0  0  0  0  0  0  0
   29.2414  -21.7716   -9.4269 O   0  0  0  0  0  0  0  0  0  0  0  0
   27.4230  -20.5353  -10.0606 N   0  0  0  0  0  0  0  0  0  0  0  0
   26.6257  -20.8652   -8.8948 C   0  0  1  0  0  0  0  0  0  0  0  0
   26.6503  -19.6803   -7.9682 C   0  0  0  0  0  0  0  0  0  0  0  0
   28.3144  -19.3563   -7.3283 S   0  0  0  0  0  0  0  0  0  0  0  0
   25.1987  -21.1420   -9.2526 C   0  0  0  0  0  0  0  0  0  0  0  0
   24.2296  -21.4865   -8.3280 O   0  0  0  0  0  0  0  0  0  0  0  0
   24.8035  -21.0695  -10.4513 O   0  0  0  0  0  0  0  0  0  0  0  0
  2  1  1  0
  2  3  2  0
  4  3  1  0
  5  4  2  0
  6  5  1  0
  7  6  1  0
  7  9  1  0
  7  8  1  6
  9 10  2  0
  9 13  1  0
 11 12  2  0
 11  5  1  0
 12  2  1  0
 13 14  1  0
 14 15  1  0
 15 17  1  0
 16 15  2  0
 17 18  1  0
 18 21  1  0
 18 19  1  1
 19 20  1  0
 21 22  1  0
 23 21  2  0
M  END
$$$$
