PMC.pdb
     RDKit          3D

 22 22  0  0  1  0  0  0  0  0999 V2000
    7.2344  -15.0951   20.1971 N   0  0  0  0  0  0  0  0  0  0  0  0
    7.0055  -14.7946   18.7764 C   0  0  0  0  0  0  0  0  0  0  0  0
    7.3497  -13.3085   18.7564 C   0  0  0  0  0  0  0  0  0  0  0  0
    8.5415  -13.2043   19.6866 C   0  0  0  0  0  0  0  0  0  0  0  0
    8.5857  -14.5429   20.3622 C   0  0  1  0  0  0  0  0  0  0  0  0
    8.9130  -14.4763   21.7857 C   0  0  0  0  0  0  0  0  0  0  0  0
   10.0903  -14.2288   22.1358 O   0  0  0  0  0  0  0  0  0  0  0  0
    7.0927  -11.1154   27.1442 C   0  0  0  0  0  0  0  0  0  0  0  0
    6.1215  -12.6362   26.9540 S   0  0  0  0  0  0  0  0  0  0  0  0
    7.2710  -13.9153   26.3264 C   0  0  0  0  0  0  0  0  0  0  0  0
    7.0746  -13.9971   24.8524 C   0  0  0  0  0  0  0  0  0  0  0  0
    8.3430  -14.5234   24.1888 C   0  0  2  0  0  0  0  0  0  0  0  0
    7.9271  -14.6855   22.7739 N   0  0  0  0  0  0  0  0  0  0  0  0
    8.7590  -15.8319   24.7292 C   0  0  0  0  0  0  0  0  0  0  0  0
    8.0122  -16.8393   24.5676 O   0  0  0  0  0  0  0  0  0  0  0  0
    9.9628  -16.0817   25.4352 N   0  0  0  0  0  0  0  0  0  0  0  0
   10.3663  -17.4230   25.8081 C   0  0  1  0  0  0  0  0  0  0  0  0
   11.8679  -17.5000   25.6114 C   0  0  0  0  0  0  0  0  0  0  0  0
   12.3154  -17.0039   23.9212 S   0  0  0  0  0  0  0  0  0  0  0  0
   10.0339  -17.7398   27.2073 C   0  0  0  0  0  0  0  0  0  0  0  0
   10.3545  -18.9949   27.6931 O   0  0  0  0  0  0  0  0  0  0  0  0
    9.4809  -16.8938   27.9204 O   0  0  0  0  0  0  0  0  0  0  0  0
  1  5  1  0
  1  2  1  0
  2  3  1  0
  4  3  1  0
  5  4  1  0
  5  6  1  1
  6 13  1  0
  7  6  2  0
  8  9  1  0
 10  9  1  0
 11 10  1  0
 12 11  1  1
 12 13  1  0
 12 14  1  0
 14 15  2  0
 14 16  1  0
 16 17  1  0
 17 18  1  1
 17 20  1  0
 18 19  1  0
 20 21  1  0
 22 20  2  0
M  END
$$$$
