PMC.pdb
     RDKit          3D

 22 22  0  0  1  0  0  0  0  0999 V2000
    7.3181  -14.9483   19.9502 N   0  0  0  0  0  0  0  0  0  0  0  0
    7.1982  -14.5452   18.5415 C   0  0  0  0  0  0  0  0  0  0  0  0
    7.5299  -13.0606   18.6568 C   0  0  0  0  0  0  0  0  0  0  0  0
    8.6445  -13.0212   19.6828 C   0  0  0  0  0  0  0  0  0  0  0  0
    8.6475  -14.4056   20.2606 C   0  0  1  0  0  0  0  0  0  0  0  0
    8.8620  -14.4424   21.7065 C   0  0  0  0  0  0  0  0  0  0  0  0
   10.0273  -14.3549   22.1585 O   0  0  0  0  0  0  0  0  0  0  0  0
    7.5773  -12.1021   28.2610 C   0  0  0  0  0  0  0  0  0  0  0  0
    7.4903  -12.2747   26.4568 S   0  0  0  0  0  0  0  0  0  0  0  0
    6.8364  -13.9517   26.1232 C   0  0  0  0  0  0  0  0  0  0  0  0
    6.7216  -14.0924   24.6450 C   0  0  0  0  0  0  0  0  0  0  0  0
    8.0818  -14.4421   24.0503 C   0  0  2  0  0  0  0  0  0  0  0  0
    7.7804  -14.5747   22.6036 N   0  0  0  0  0  0  0  0  0  0  0  0
    8.6058  -15.7237   24.5602 C   0  0  0  0  0  0  0  0  0  0  0  0
    7.9645  -16.7911   24.3410 O   0  0  0  0  0  0  0  0  0  0  0  0
    9.8068  -15.8833   25.2964 N   0  0  0  0  0  0  0  0  0  0  0  0
   10.2838  -17.1887   25.7080 C   0  0  1  0  0  0  0  0  0  0  0  0
   11.6980  -17.3262   25.1785 C   0  0  0  0  0  0  0  0  0  0  0  0
   12.4881  -18.8182   25.8512 S   0  0  0  0  0  0  0  0  0  0  0  0
   10.2860  -17.3487   27.1719 C   0  0  0  0  0  0  0  0  0  0  0  0
   10.5802  -18.5937   27.6986 O   0  0  0  0  0  0  0  0  0  0  0  0
   10.0290  -16.3837   27.9019 O   0  0  0  0  0  0  0  0  0  0  0  0
  1  5  1  0
  1  2  1  0
  2  3  1  0
  4  3  1  0
  5  4  1  0
  5  6  1  1
  6 13  1  0
  7  6  2  0
  8  9  1  0
 10  9  1  0
 11 10  1  0
 12 11  1  1
 12 13  1  0
 12 14  1  0
 14 15  2  0
 14 16  1  0
 16 17  1  0
 17 18  1  1
 17 20  1  0
 18 19  1  0
 20 21  1  0
 22 20  2  0
M  END
$$$$
