PMC.pdb
     RDKit          3D

 22 22  0  0  1  0  0  0  0  0999 V2000
    7.1182  -14.7670   20.1632 N   0  0  0  0  0  0  0  0  0  0  0  0
    6.8762  -14.4145   18.7566 C   0  0  0  0  0  0  0  0  0  0  0  0
    7.4044  -12.9833   18.7427 C   0  0  0  0  0  0  0  0  0  0  0  0
    8.6338  -13.0466   19.6266 C   0  0  0  0  0  0  0  0  0  0  0  0
    8.5337  -14.3922   20.2822 C   0  0  1  0  0  0  0  0  0  0  0  0
    8.9198  -14.3929   21.6925 C   0  0  0  0  0  0  0  0  0  0  0  0
   10.1291  -14.2798   21.9998 O   0  0  0  0  0  0  0  0  0  0  0  0
    6.9249  -10.8956   26.4946 C   0  0  0  0  0  0  0  0  0  0  0  0
    6.3333  -12.5310   27.0122 S   0  0  0  0  0  0  0  0  0  0  0  0
    7.4926  -13.7556   26.2998 C   0  0  0  0  0  0  0  0  0  0  0  0
    7.2326  -13.8058   24.8343 C   0  0  0  0  0  0  0  0  0  0  0  0
    8.4351  -14.4076   24.1147 C   0  0  2  0  0  0  0  0  0  0  0  0
    7.9551  -14.5188   22.7152 N   0  0  0  0  0  0  0  0  0  0  0  0
    8.7799  -15.7498   24.6215 C   0  0  0  0  0  0  0  0  0  0  0  0
    7.9346  -16.6860   24.5330 O   0  0  0  0  0  0  0  0  0  0  0  0
   10.0155  -16.1085   25.2169 N   0  0  0  0  0  0  0  0  0  0  0  0
   10.2962  -17.4672   25.6368 C   0  0  1  0  0  0  0  0  0  0  0  0
   11.7598  -17.7257   25.3365 C   0  0  0  0  0  0  0  0  0  0  0  0
   12.2793  -19.3246   26.0269 S   0  0  0  0  0  0  0  0  0  0  0  0
   10.0417  -17.6741   27.0724 C   0  0  0  0  0  0  0  0  0  0  0  0
    9.7657  -18.9555   27.5150 O   0  0  0  0  0  0  0  0  0  0  0  0
   10.0773  -16.7154   27.8533 O   0  0  0  0  0  0  0  0  0  0  0  0
  1  5  1  0
  1  2  1  0
  2  3  1  0
  4  3  1  0
  5  4  1  0
  5  6  1  1
  6 13  1  0
  7  6  2  0
  8  9  1  0
 10  9  1  0
 11 10  1  0
 12 11  1  1
 12 13  1  0
 12 14  1  0
 14 15  2  0
 14 16  1  0
 16 17  1  0
 17 18  1  1
 17 20  1  0
 18 19  1  0
 20 21  1  0
 22 20  2  0
M  END
$$$$
