PMC.pdb
     RDKit          3D

 22 22  0  0  1  0  0  0  0  0999 V2000
    7.4131  -16.7921   21.0810 N   0  0  0  0  0  0  0  0  0  0  0  0
    7.1776  -17.1066   19.6644 C   0  0  0  0  0  0  0  0  0  0  0  0
    7.3661  -15.7244   19.0466 C   0  0  0  0  0  0  0  0  0  0  0  0
    8.5254  -15.1383   19.8271 C   0  0  0  0  0  0  0  0  0  0  0  0
    8.6970  -16.0857   20.9775 C   0  0  1  0  0  0  0  0  0  0  0  0
    8.9924  -15.4253   22.2482 C   0  0  0  0  0  0  0  0  0  0  0  0
   10.1157  -14.8982   22.4216 O   0  0  0  0  0  0  0  0  0  0  0  0
    6.0941  -11.0100   27.7688 C   0  0  0  0  0  0  0  0  0  0  0  0
    5.8119  -12.0430   26.3040 S   0  0  0  0  0  0  0  0  0  0  0  0
    7.3459  -13.0069   26.0410 C   0  0  0  0  0  0  0  0  0  0  0  0
    7.1682  -13.7798   24.7805 C   0  0  0  0  0  0  0  0  0  0  0  0
    8.4090  -14.6247   24.5111 C   0  0  2  0  0  0  0  0  0  0  0  0
    8.0352  -15.3704   23.2841 N   0  0  0  0  0  0  0  0  0  0  0  0
    8.6851  -15.5815   25.5999 C   0  0  0  0  0  0  0  0  0  0  0  0
    8.8758  -15.1522   26.7739 O   0  0  0  0  0  0  0  0  0  0  0  0
    8.7557  -16.9900   25.4549 N   0  0  0  0  0  0  0  0  0  0  0  0
    9.0714  -17.8588   26.5714 C   0  0  1  0  0  0  0  0  0  0  0  0
    8.0169  -18.9482   26.5914 C   0  0  0  0  0  0  0  0  0  0  0  0
    6.4914  -18.3733   25.7882 S   0  0  0  0  0  0  0  0  0  0  0  0
   10.4075  -18.4659   26.4490 C   0  0  0  0  0  0  0  0  0  0  0  0
   11.1863  -18.1306   25.3558 O   0  0  0  0  0  0  0  0  0  0  0  0
   10.8113  -19.2558   27.3110 O   0  0  0  0  0  0  0  0  0  0  0  0
  1  5  1  0
  1  2  1  0
  2  3  1  0
  4  3  1  0
  5  4  1  0
  5  6  1  1
  6 13  1  0
  7  6  2  0
  8  9  1  0
 10  9  1  0
 11 10  1  0
 12 11  1  1
 12 13  1  0
 12 14  1  0
 14 15  2  0
 14 16  1  0
 16 17  1  0
 17 18  1  6
 17 20  1  0
 18 19  1  0
 20 21  1  0
 22 20  2  0
M  END
$$$$
