PMC.pdb
     RDKit          3D

 22 22  0  0  1  0  0  0  0  0999 V2000
    7.0527  -14.7625   20.1583 N   0  0  0  0  0  0  0  0  0  0  0  0
    6.8044  -14.3559   18.7675 C   0  0  0  0  0  0  0  0  0  0  0  0
    7.3158  -12.9193   18.8113 C   0  0  0  0  0  0  0  0  0  0  0  0
    8.5472  -13.0040   19.6905 C   0  0  0  0  0  0  0  0  0  0  0  0
    8.4638  -14.3762   20.2910 C   0  0  1  0  0  0  0  0  0  0  0  0
    8.8521  -14.4297   21.6997 C   0  0  0  0  0  0  0  0  0  0  0  0
   10.0610  -14.3196   22.0098 O   0  0  0  0  0  0  0  0  0  0  0  0
    5.5900  -11.5932   26.5858 C   0  0  0  0  0  0  0  0  0  0  0  0
    7.3270  -12.0703   26.8048 S   0  0  0  0  0  0  0  0  0  0  0  0
    7.4535  -13.8267   26.3041 C   0  0  0  0  0  0  0  0  0  0  0  0
    7.1827  -13.8869   24.8409 C   0  0  0  0  0  0  0  0  0  0  0  0
    8.3674  -14.5218   24.1202 C   0  0  2  0  0  0  0  0  0  0  0  0
    7.8899  -14.6032   22.7178 N   0  0  0  0  0  0  0  0  0  0  0  0
    8.6648  -15.8796   24.6152 C   0  0  0  0  0  0  0  0  0  0  0  0
    7.8273  -16.8085   24.4293 O   0  0  0  0  0  0  0  0  0  0  0  0
    9.8452  -16.2616   25.3013 N   0  0  0  0  0  0  0  0  0  0  0  0
   10.1059  -17.6402   25.6655 C   0  0  1  0  0  0  0  0  0  0  0  0
   11.2425  -18.1194   24.7837 C   0  0  0  0  0  0  0  0  0  0  0  0
   11.7818  -19.7807   25.2860 S   0  0  0  0  0  0  0  0  0  0  0  0
   10.4838  -17.7841   27.0815 C   0  0  0  0  0  0  0  0  0  0  0  0
   11.1097  -16.7212   27.7080 O   0  0  0  0  0  0  0  0  0  0  0  0
   10.2413  -18.8365   27.6845 O   0  0  0  0  0  0  0  0  0  0  0  0
  1  5  1  0
  1  2  1  0
  2  3  1  0
  4  3  1  0
  5  4  1  0
  5  6  1  1
  6 13  1  0
  7  6  2  0
  8  9  1  0
 10  9  1  0
 11 10  1  0
 12 11  1  1
 12 13  1  0
 12 14  1  0
 14 15  2  0
 14 16  1  0
 16 17  1  0
 17 18  1  6
 17 20  1  0
 18 19  1  0
 20 21  1  0
 22 20  2  0
M  END
$$$$
