PMC.pdb
     RDKit          3D

 22 22  0  0  1  0  0  0  0  0999 V2000
    7.0979  -14.8690   20.1759 N   0  0  0  0  0  0  0  0  0  0  0  0
    6.7780  -14.4001   18.8198 C   0  0  0  0  0  0  0  0  0  0  0  0
    7.1140  -12.9186   18.9606 C   0  0  0  0  0  0  0  0  0  0  0  0
    8.3622  -12.9146   19.8201 C   0  0  0  0  0  0  0  0  0  0  0  0
    8.4547  -14.3251   20.3225 C   0  0  1  0  0  0  0  0  0  0  0  0
    8.8716  -14.4287   21.7202 C   0  0  0  0  0  0  0  0  0  0  0  0
   10.0671  -14.2087   22.0240 O   0  0  0  0  0  0  0  0  0  0  0  0
    6.3967  -10.8061   26.9759 C   0  0  0  0  0  0  0  0  0  0  0  0
    6.4216  -12.6075   26.7601 S   0  0  0  0  0  0  0  0  0  0  0  0
    7.1098  -12.9246   25.0936 C   0  0  0  0  0  0  0  0  0  0  0  0
    7.2011  -14.4020   24.9299 C   0  0  0  0  0  0  0  0  0  0  0  0
    8.4508  -14.7590   24.1318 C   0  0  2  0  0  0  0  0  0  0  0  0
    7.9521  -14.7722   22.7345 N   0  0  0  0  0  0  0  0  0  0  0  0
    8.9757  -16.0942   24.4764 C   0  0  0  0  0  0  0  0  0  0  0  0
    8.2177  -17.1029   24.3933 O   0  0  0  0  0  0  0  0  0  0  0  0
   10.2993  -16.3692   24.9036 N   0  0  0  0  0  0  0  0  0  0  0  0
   10.7473  -17.7188   25.1845 C   0  0  1  0  0  0  0  0  0  0  0  0
   12.2327  -17.7597   24.8826 C   0  0  0  0  0  0  0  0  0  0  0  0
   13.0546  -16.2710   25.5238 S   0  0  0  0  0  0  0  0  0  0  0  0
   10.5168  -18.1056   26.5866 C   0  0  0  0  0  0  0  0  0  0  0  0
   10.9185  -19.3639   26.9979 O   0  0  0  0  0  0  0  0  0  0  0  0
    9.9753  -17.3138   27.3676 O   0  0  0  0  0  0  0  0  0  0  0  0
  1  5  1  0
  1  2  1  0
  2  3  1  0
  4  3  1  0
  5  4  1  0
  5  6  1  1
  6 13  1  0
  7  6  2  0
  8  9  1  0
 10  9  1  0
 11 10  1  0
 12 11  1  1
 12 13  1  0
 12 14  1  0
 14 15  2  0
 14 16  1  0
 16 17  1  0
 17 18  1  1
 17 20  1  0
 18 19  1  0
 20 21  1  0
 22 20  2  0
M  END
$$$$
