PMC.pdb
     RDKit          3D

 22 22  0  0  1  0  0  0  0  0999 V2000
    7.3804  -15.0935   20.7046 N   0  0  0  0  0  0  0  0  0  0  0  0
    7.2128  -14.8387   19.2664 C   0  0  0  0  0  0  0  0  0  0  0  0
    7.4366  -13.3300   19.2322 C   0  0  0  0  0  0  0  0  0  0  0  0
    8.5588  -13.1117   20.2269 C   0  0  0  0  0  0  0  0  0  0  0  0
    8.6706  -14.4297   20.9347 C   0  0  1  0  0  0  0  0  0  0  0  0
    8.9063  -14.3104   22.3728 C   0  0  0  0  0  0  0  0  0  0  0  0
   10.0433  -13.9833   22.7852 O   0  0  0  0  0  0  0  0  0  0  0  0
    6.2473  -10.7206   26.1198 C   0  0  0  0  0  0  0  0  0  0  0  0
    6.0505  -12.1069   27.2738 S   0  0  0  0  0  0  0  0  0  0  0  0
    7.2491  -13.3908   26.7574 C   0  0  0  0  0  0  0  0  0  0  0  0
    7.0754  -13.5896   25.2918 C   0  0  0  0  0  0  0  0  0  0  0  0
    8.2225  -14.4319   24.7434 C   0  0  2  0  0  0  0  0  0  0  0  0
    7.8765  -14.5571   23.3060 N   0  0  0  0  0  0  0  0  0  0  0  0
    8.2753  -15.7749   25.3524 C   0  0  0  0  0  0  0  0  0  0  0  0
    8.3614  -15.8868   26.6089 O   0  0  0  0  0  0  0  0  0  0  0  0
    8.2325  -17.0000   24.6402 N   0  0  0  0  0  0  0  0  0  0  0  0
    8.2934  -18.2804   25.3169 C   0  0  1  0  0  0  0  0  0  0  0  0
    7.5183  -19.2651   24.4632 C   0  0  0  0  0  0  0  0  0  0  0  0
    5.8562  -18.6248   24.1018 S   0  0  0  0  0  0  0  0  0  0  0  0
    9.6757  -18.7575   25.4906 C   0  0  0  0  0  0  0  0  0  0  0  0
    9.8776  -19.9930   26.0795 O   0  0  0  0  0  0  0  0  0  0  0  0
   10.6249  -18.0594   25.1141 O   0  0  0  0  0  0  0  0  0  0  0  0
  1  5  1  0
  1  2  1  0
  2  3  1  0
  4  3  1  0
  5  4  1  0
  5  6  1  1
  6 13  1  0
  7  6  2  0
  8  9  1  0
 10  9  1  0
 11 10  1  0
 12 11  1  1
 12 13  1  0
 12 14  1  0
 14 15  2  0
 14 16  1  0
 16 17  1  0
 17 18  1  6
 17 20  1  0
 18 19  1  0
 20 21  1  0
 22 20  2  0
M  END
$$$$
