PMC.pdb
     RDKit          3D

 22 22  0  0  1  0  0  0  0  0999 V2000
    7.7297  -16.2221   20.9209 N   0  0  0  0  0  0  0  0  0  0  0  0
    7.5554  -16.2506   19.4615 C   0  0  0  0  0  0  0  0  0  0  0  0
    7.6889  -14.7642   19.1450 C   0  0  0  0  0  0  0  0  0  0  0  0
    8.7904  -14.2974   20.0752 C   0  0  0  0  0  0  0  0  0  0  0  0
    8.9766  -15.4512   21.0159 C   0  0  1  0  0  0  0  0  0  0  0  0
    9.1967  -15.0518   22.4051 C   0  0  0  0  0  0  0  0  0  0  0  0
   10.2655  -14.4781   22.7189 O   0  0  0  0  0  0  0  0  0  0  0  0
    6.5404  -11.0235   26.3593 C   0  0  0  0  0  0  0  0  0  0  0  0
    5.7312  -12.6139   26.6880 S   0  0  0  0  0  0  0  0  0  0  0  0
    7.0386  -13.8926   26.6043 C   0  0  0  0  0  0  0  0  0  0  0  0
    7.0126  -14.4579   25.2267 C   0  0  0  0  0  0  0  0  0  0  0  0
    8.4376  -14.6630   24.7235 C   0  0  2  0  0  0  0  0  0  0  0  0
    8.2271  -15.3004   23.4003 N   0  0  0  0  0  0  0  0  0  0  0  0
    9.2135  -15.5735   25.5872 C   0  0  0  0  0  0  0  0  0  0  0  0
    9.3238  -16.7922   25.2686 O   0  0  0  0  0  0  0  0  0  0  0  0
    9.8774  -15.2013   26.7832 N   0  0  0  0  0  0  0  0  0  0  0  0
   10.7490  -16.1180   27.4912 C   0  0  1  0  0  0  0  0  0  0  0  0
   11.2411  -15.3896   28.7267 C   0  0  0  0  0  0  0  0  0  0  0  0
   11.2673  -13.5950   28.4404 S   0  0  0  0  0  0  0  0  0  0  0  0
   10.0567  -17.3552   27.8893 C   0  0  0  0  0  0  0  0  0  0  0  0
   10.7957  -18.3618   28.4848 O   0  0  0  0  0  0  0  0  0  0  0  0
    8.8420  -17.4781   27.6900 O   0  0  0  0  0  0  0  0  0  0  0  0
  1  5  1  0
  1  2  1  0
  2  3  1  0
  4  3  1  0
  5  4  1  0
  5  6  1  1
  6 13  1  0
  7  6  2  0
  8  9  1  0
 10  9  1  0
 11 10  1  0
 12 11  1  1
 12 13  1  0
 12 14  1  0
 14 15  2  0
 14 16  1  0
 16 17  1  0
 17 18  1  1
 17 20  1  0
 18 19  1  0
 20 21  1  0
 22 20  2  0
M  END
$$$$
