PMC.pdb
     RDKit          3D

 22 22  0  0  1  0  0  0  0  0999 V2000
    7.2768  -14.9975   20.4990 N   0  0  0  0  0  0  0  0  0  0  0  0
    7.0805  -14.5792   19.1034 C   0  0  0  0  0  0  0  0  0  0  0  0
    7.3389  -13.0812   19.2322 C   0  0  0  0  0  0  0  0  0  0  0  0
    8.4897  -12.9993   20.2148 C   0  0  0  0  0  0  0  0  0  0  0  0
    8.5875  -14.3906   20.7674 C   0  0  1  0  0  0  0  0  0  0  0  0
    8.8607  -14.4387   22.2030 C   0  0  0  0  0  0  0  0  0  0  0  0
    9.9864  -14.0887   22.6276 O   0  0  0  0  0  0  0  0  0  0  0  0
    6.4766  -10.7606   26.8222 C   0  0  0  0  0  0  0  0  0  0  0  0
    6.7816  -12.5468   26.9179 S   0  0  0  0  0  0  0  0  0  0  0  0
    6.6332  -13.1943   25.2120 C   0  0  0  0  0  0  0  0  0  0  0  0
    6.9471  -14.6491   25.2656 C   0  0  0  0  0  0  0  0  0  0  0  0
    8.2671  -14.9213   24.5518 C   0  0  2  0  0  0  0  0  0  0  0  0
    7.8796  -14.8723   23.1205 N   0  0  0  0  0  0  0  0  0  0  0  0
    8.8114  -16.2564   24.8657 C   0  0  0  0  0  0  0  0  0  0  0  0
    8.1230  -17.2860   24.6114 O   0  0  0  0  0  0  0  0  0  0  0  0
   10.0815  -16.5087   25.4426 N   0  0  0  0  0  0  0  0  0  0  0  0
   10.5412  -17.8548   25.7212 C   0  0  1  0  0  0  0  0  0  0  0  0
   12.0159  -17.8962   25.3709 C   0  0  0  0  0  0  0  0  0  0  0  0
   12.2880  -17.2761   23.6844 S   0  0  0  0  0  0  0  0  0  0  0  0
   10.3576  -18.2289   27.1336 C   0  0  0  0  0  0  0  0  0  0  0  0
    9.8054  -17.2983   27.9956 O   0  0  0  0  0  0  0  0  0  0  0  0
   10.6937  -19.3527   27.5265 O   0  0  0  0  0  0  0  0  0  0  0  0
  1  5  1  0
  1  2  1  0
  2  3  1  0
  4  3  1  0
  5  4  1  0
  5  6  1  1
  6 13  1  0
  7  6  2  0
  8  9  1  0
 10  9  1  0
 11 10  1  0
 12 11  1  1
 12 13  1  0
 12 14  1  0
 14 15  2  0
 14 16  1  0
 16 17  1  0
 17 18  1  1
 17 20  1  0
 18 19  1  0
 20 21  1  0
 22 20  2  0
M  END
$$$$
