PMC.pdb
     RDKit          3D

 22 22  0  0  1  0  0  0  0  0999 V2000
    7.2163  -16.3169   20.7050 N   0  0  0  0  0  0  0  0  0  0  0  0
    6.8601  -16.3706   19.2797 C   0  0  0  0  0  0  0  0  0  0  0  0
    7.1762  -14.9358   18.8687 C   0  0  0  0  0  0  0  0  0  0  0  0
    8.4423  -14.6139   19.6368 C   0  0  0  0  0  0  0  0  0  0  0  0
    8.5674  -15.7477   20.6110 C   0  0  1  0  0  0  0  0  0  0  0  0
    9.0158  -15.3378   21.9410 C   0  0  0  0  0  0  0  0  0  0  0  0
   10.1942  -14.9424   22.0987 O   0  0  0  0  0  0  0  0  0  0  0  0
    6.8081  -11.5609   28.1430 C   0  0  0  0  0  0  0  0  0  0  0  0
    6.3507  -12.4001   26.6006 S   0  0  0  0  0  0  0  0  0  0  0  0
    7.6488  -13.6510   26.2816 C   0  0  0  0  0  0  0  0  0  0  0  0
    7.3436  -14.2745   24.9641 C   0  0  0  0  0  0  0  0  0  0  0  0
    8.6313  -14.7697   24.3141 C   0  0  2  0  0  0  0  0  0  0  0  0
    8.1455  -15.3790   23.0515 N   0  0  0  0  0  0  0  0  0  0  0  0
    9.3105  -15.7990   25.1243 C   0  0  0  0  0  0  0  0  0  0  0  0
    8.7738  -16.9349   25.2668 O   0  0  0  0  0  0  0  0  0  0  0  0
   10.5565  -15.6352   25.7804 N   0  0  0  0  0  0  0  0  0  0  0  0
   11.1950  -16.7245   26.4923 C   0  0  1  0  0  0  0  0  0  0  0  0
   12.6484  -16.3347   26.6786 C   0  0  0  0  0  0  0  0  0  0  0  0
   13.4126  -15.9399   25.0776 S   0  0  0  0  0  0  0  0  0  0  0  0
   10.5775  -16.9739   27.8057 C   0  0  0  0  0  0  0  0  0  0  0  0
   11.0678  -18.0116   28.5783 O   0  0  0  0  0  0  0  0  0  0  0  0
    9.6428  -16.2643   28.1967 O   0  0  0  0  0  0  0  0  0  0  0  0
  1  5  1  0
  1  2  1  0
  2  3  1  0
  4  3  1  0
  5  4  1  0
  5  6  1  1
  6 13  1  0
  7  6  2  0
  8  9  1  0
 10  9  1  0
 11 10  1  0
 12 11  1  1
 12 13  1  0
 12 14  1  0
 14 15  2  0
 14 16  1  0
 16 17  1  0
 17 18  1  1
 17 20  1  0
 18 19  1  0
 20 21  1  0
 22 20  2  0
M  END
$$$$
