PMC.pdb
     RDKit          3D

 22 22  0  0  1  0  0  0  0  0999 V2000
    8.1311  -16.9714   20.8087 N   0  0  0  0  0  0  0  0  0  0  0  0
    8.0426  -17.1573   19.3530 C   0  0  0  0  0  0  0  0  0  0  0  0
    8.0894  -15.7037   18.8924 C   0  0  0  0  0  0  0  0  0  0  0  0
    9.1008  -15.0653   19.8230 C   0  0  0  0  0  0  0  0  0  0  0  0
    9.3136  -16.1030   20.8854 C   0  0  1  0  0  0  0  0  0  0  0  0
    9.4257  -15.5526   22.2354 C   0  0  0  0  0  0  0  0  0  0  0  0
   10.3714  -14.7770   22.5075 O   0  0  0  0  0  0  0  0  0  0  0  0
    6.6109  -11.6298   27.3073 C   0  0  0  0  0  0  0  0  0  0  0  0
    6.3239  -12.6240   25.8167 S   0  0  0  0  0  0  0  0  0  0  0  0
    6.9142  -14.3151   26.1949 C   0  0  0  0  0  0  0  0  0  0  0  0
    7.0550  -15.0316   24.8970 C   0  0  0  0  0  0  0  0  0  0  0  0
    8.5225  -15.0727   24.4840 C   0  0  2  0  0  0  0  0  0  0  0  0
    8.4881  -15.8787   23.2388 N   0  0  0  0  0  0  0  0  0  0  0  0
    9.3692  -15.7524   25.4832 C   0  0  0  0  0  0  0  0  0  0  0  0
    9.5352  -17.0038   25.4122 O   0  0  0  0  0  0  0  0  0  0  0  0
   10.0451  -15.1151   26.5541 N   0  0  0  0  0  0  0  0  0  0  0  0
   10.9257  -15.8446   27.4448 C   0  0  1  0  0  0  0  0  0  0  0  0
   11.3671  -14.8709   28.5200 C   0  0  0  0  0  0  0  0  0  0  0  0
   10.8559  -13.1791   28.0964 S   0  0  0  0  0  0  0  0  0  0  0  0
   10.2603  -17.0012   28.0678 C   0  0  0  0  0  0  0  0  0  0  0  0
   11.0200  -17.8618   28.8398 O   0  0  0  0  0  0  0  0  0  0  0  0
    9.0493  -17.1867   27.8964 O   0  0  0  0  0  0  0  0  0  0  0  0
  1  5  1  0
  1  2  1  0
  2  3  1  0
  4  3  1  0
  5  4  1  0
  5  6  1  1
  6 13  1  0
  7  6  2  0
  8  9  1  0
 10  9  1  0
 11 10  1  0
 12 11  1  1
 12 13  1  0
 12 14  1  0
 14 15  2  0
 14 16  1  0
 16 17  1  0
 17 18  1  1
 17 20  1  0
 18 19  1  0
 20 21  1  0
 22 20  2  0
M  END
$$$$
