PMC.pdb
     RDKit          3D

 22 22  0  0  1  0  0  0  0  0999 V2000
    7.0142  -14.8029   19.9793 N   0  0  0  0  0  0  0  0  0  0  0  0
    6.7453  -14.4399   18.5803 C   0  0  0  0  0  0  0  0  0  0  0  0
    7.2915  -13.0155   18.5617 C   0  0  0  0  0  0  0  0  0  0  0  0
    8.5394  -13.0991   19.4175 C   0  0  0  0  0  0  0  0  0  0  0  0
    8.4367  -14.4468   20.0685 C   0  0  1  0  0  0  0  0  0  0  0  0
    8.8541  -14.4598   21.4698 C   0  0  0  0  0  0  0  0  0  0  0  0
   10.0732  -14.3862   21.7497 O   0  0  0  0  0  0  0  0  0  0  0  0
    6.6687  -11.8657   28.3526 C   0  0  0  0  0  0  0  0  0  0  0  0
    6.2010  -12.3047   26.6552 S   0  0  0  0  0  0  0  0  0  0  0  0
    7.5706  -13.3148   25.9806 C   0  0  0  0  0  0  0  0  0  0  0  0
    7.2396  -13.6099   24.5589 C   0  0  0  0  0  0  0  0  0  0  0  0
    8.4045  -14.3374   23.8956 C   0  0  2  0  0  0  0  0  0  0  0  0
    7.9091  -14.5539   22.5140 N   0  0  0  0  0  0  0  0  0  0  0  0
    8.6842  -15.6423   24.5250 C   0  0  0  0  0  0  0  0  0  0  0  0
    7.8126  -16.5572   24.4776 O   0  0  0  0  0  0  0  0  0  0  0  0
    9.8824  -15.9867   25.1999 N   0  0  0  0  0  0  0  0  0  0  0  0
   10.1187  -17.3250   25.7040 C   0  0  1  0  0  0  0  0  0  0  0  0
   11.4089  -17.8104   25.0723 C   0  0  0  0  0  0  0  0  0  0  0  0
   11.8752  -19.4340   25.7425 S   0  0  0  0  0  0  0  0  0  0  0  0
   10.2435  -17.3576   27.1710 C   0  0  0  0  0  0  0  0  0  0  0  0
    9.9296  -18.5309   27.8334 O   0  0  0  0  0  0  0  0  0  0  0  0
   10.6213  -16.3518   27.7840 O   0  0  0  0  0  0  0  0  0  0  0  0
  1  5  1  0
  1  2  1  0
  2  3  1  0
  4  3  1  0
  5  4  1  0
  5  6  1  1
  6 13  1  0
  7  6  2  0
  8  9  1  0
 10  9  1  0
 11 10  1  0
 12 11  1  1
 12 13  1  0
 12 14  1  0
 14 15  2  0
 14 16  1  0
 16 17  1  0
 17 18  1  6
 17 20  1  0
 18 19  1  0
 20 21  1  0
 22 20  2  0
M  END
$$$$
