PMC.pdb
     RDKit          3D

 22 22  0  0  1  0  0  0  0  0999 V2000
    7.3298  -15.3621   20.2373 N   0  0  0  0  0  0  0  0  0  0  0  0
    7.0326  -15.1897   18.8079 C   0  0  0  0  0  0  0  0  0  0  0  0
    7.3487  -13.7062   18.6440 C   0  0  0  0  0  0  0  0  0  0  0  0
    8.5787  -13.5046   19.5061 C   0  0  0  0  0  0  0  0  0  0  0  0
    8.6770  -14.7786   20.2920 C   0  0  1  0  0  0  0  0  0  0  0  0
    9.0660  -14.5837   21.6879 C   0  0  0  0  0  0  0  0  0  0  0  0
   10.2401  -14.2390   21.9575 O   0  0  0  0  0  0  0  0  0  0  0  0
    6.1954  -11.6321   28.1347 C   0  0  0  0  0  0  0  0  0  0  0  0
    5.8597  -12.4949   26.5741 S   0  0  0  0  0  0  0  0  0  0  0  0
    7.4581  -13.1790   26.0009 C   0  0  0  0  0  0  0  0  0  0  0  0
    7.2293  -13.7538   24.6463 C   0  0  0  0  0  0  0  0  0  0  0  0
    8.5403  -14.2938   24.0841 C   0  0  2  0  0  0  0  0  0  0  0  0
    8.1433  -14.7765   22.7385 N   0  0  0  0  0  0  0  0  0  0  0  0
    9.0676  -15.4236   24.8731 C   0  0  0  0  0  0  0  0  0  0  0  0
    8.6518  -16.5948   24.6401 O   0  0  0  0  0  0  0  0  0  0  0  0
   10.0357  -15.3222   25.9039 N   0  0  0  0  0  0  0  0  0  0  0  0
   10.6842  -16.4924   26.4617 C   0  0  1  0  0  0  0  0  0  0  0  0
   11.9372  -16.0066   27.1640 C   0  0  0  0  0  0  0  0  0  0  0  0
   11.5266  -14.7267   28.3871 S   0  0  0  0  0  0  0  0  0  0  0  0
    9.8245  -17.2059   27.4211 C   0  0  0  0  0  0  0  0  0  0  0  0
   10.2844  -18.3934   27.9619 O   0  0  0  0  0  0  0  0  0  0  0  0
    8.7192  -16.7428   27.7273 O   0  0  0  0  0  0  0  0  0  0  0  0
  1  5  1  0
  1  2  1  0
  2  3  1  0
  4  3  1  0
  5  4  1  0
  5  6  1  1
  6 13  1  0
  7  6  2  0
  8  9  1  0
 10  9  1  0
 11 10  1  0
 12 11  1  1
 12 13  1  0
 12 14  1  0
 14 15  2  0
 14 16  1  0
 16 17  1  0
 17 18  1  1
 17 20  1  0
 18 19  1  0
 20 21  1  0
 22 20  2  0
M  END
$$$$
