PMC.pdb
     RDKit          3D

 22 22  0  0  1  0  0  0  0  0999 V2000
    6.9796  -15.8697   20.5565 N   0  0  0  0  0  0  0  0  0  0  0  0
    6.6295  -15.6939   19.1395 C   0  0  0  0  0  0  0  0  0  0  0  0
    6.9825  -14.2212   18.9553 C   0  0  0  0  0  0  0  0  0  0  0  0
    8.2521  -14.0531   19.7655 C   0  0  0  0  0  0  0  0  0  0  0  0
    8.3446  -15.3265   20.5532 C   0  0  1  0  0  0  0  0  0  0  0  0
    8.7960  -15.1379   21.9312 C   0  0  0  0  0  0  0  0  0  0  0  0
    9.9996  -14.8702   22.1535 O   0  0  0  0  0  0  0  0  0  0  0  0
    7.0793  -11.7094   28.3717 C   0  0  0  0  0  0  0  0  0  0  0  0
    6.4523  -12.3956   26.8134 S   0  0  0  0  0  0  0  0  0  0  0  0
    7.5189  -13.8266   26.4060 C   0  0  0  0  0  0  0  0  0  0  0  0
    7.1893  -14.2377   25.0131 C   0  0  0  0  0  0  0  0  0  0  0  0
    8.4114  -14.8715   24.3567 C   0  0  2  0  0  0  0  0  0  0  0  0
    7.9008  -15.2516   23.0165 N   0  0  0  0  0  0  0  0  0  0  0  0
    8.8676  -16.0813   25.0675 C   0  0  0  0  0  0  0  0  0  0  0  0
    8.0930  -17.0759   25.1664 O   0  0  0  0  0  0  0  0  0  0  0  0
   10.1401  -16.2470   25.6700 N   0  0  0  0  0  0  0  0  0  0  0  0
   10.5222  -17.4837   26.3223 C   0  0  1  0  0  0  0  0  0  0  0  0
   12.0011  -17.6831   26.0530 C   0  0  0  0  0  0  0  0  0  0  0  0
   12.3287  -17.6850   24.2654 S   0  0  0  0  0  0  0  0  0  0  0  0
   10.2845  -17.4478   27.7752 C   0  0  0  0  0  0  0  0  0  0  0  0
   10.6046  -18.5666   28.5234 O   0  0  0  0  0  0  0  0  0  0  0  0
    9.8091  -16.4342   28.3012 O   0  0  0  0  0  0  0  0  0  0  0  0
  1  5  1  0
  1  2  1  0
  2  3  1  0
  4  3  1  0
  5  4  1  0
  5  6  1  1
  6 13  1  0
  7  6  2  0
  8  9  1  0
 10  9  1  0
 11 10  1  0
 12 11  1  1
 12 13  1  0
 12 14  1  0
 14 15  2  0
 14 16  1  0
 16 17  1  0
 17 18  1  1
 17 20  1  0
 18 19  1  0
 20 21  1  0
 22 20  2  0
M  END
$$$$
