PMC.pdb
     RDKit          3D

 22 22  0  0  1  0  0  0  0  0999 V2000
    6.9272  -14.9091   20.1445 N   0  0  0  0  0  0  0  0  0  0  0  0
    6.5747  -14.4964   18.7782 C   0  0  0  0  0  0  0  0  0  0  0  0
    6.9302  -13.0143   18.8442 C   0  0  0  0  0  0  0  0  0  0  0  0
    8.2017  -12.9872   19.6683 C   0  0  0  0  0  0  0  0  0  0  0  0
    8.2932  -14.3753   20.2299 C   0  0  1  0  0  0  0  0  0  0  0  0
    8.7476  -14.4224   21.6189 C   0  0  0  0  0  0  0  0  0  0  0  0
    9.9691  -14.3046   21.8714 O   0  0  0  0  0  0  0  0  0  0  0  0
    6.7740  -11.0968   26.9392 C   0  0  0  0  0  0  0  0  0  0  0  0
    6.2234  -12.8197   27.0836 S   0  0  0  0  0  0  0  0  0  0  0  0
    7.5094  -13.8480   26.2836 C   0  0  0  0  0  0  0  0  0  0  0  0
    7.1915  -13.8963   24.8295 C   0  0  0  0  0  0  0  0  0  0  0  0
    8.3720  -14.4794   24.0597 C   0  0  2  0  0  0  0  0  0  0  0  0
    7.8354  -14.5983   22.6816 N   0  0  0  0  0  0  0  0  0  0  0  0
    8.7587  -15.8159   24.5510 C   0  0  0  0  0  0  0  0  0  0  0  0
    7.9386  -16.7743   24.4625 O   0  0  0  0  0  0  0  0  0  0  0  0
   10.0097  -16.1455   25.1308 N   0  0  0  0  0  0  0  0  0  0  0  0
   10.3165  -17.4912   25.5736 C   0  0  1  0  0  0  0  0  0  0  0  0
   11.8184  -17.6612   25.4527 C   0  0  0  0  0  0  0  0  0  0  0  0
   12.3496  -19.2118   26.2378 S   0  0  0  0  0  0  0  0  0  0  0  0
    9.9021  -17.7313   26.9662 C   0  0  0  0  0  0  0  0  0  0  0  0
    9.5829  -19.0229   27.3456 O   0  0  0  0  0  0  0  0  0  0  0  0
    9.8452  -16.7907   27.7675 O   0  0  0  0  0  0  0  0  0  0  0  0
  1  5  1  0
  1  2  1  0
  2  3  1  0
  4  3  1  0
  5  4  1  0
  5  6  1  1
  6 13  1  0
  7  6  2  0
  8  9  1  0
 10  9  1  0
 11 10  1  0
 12 11  1  1
 12 13  1  0
 12 14  1  0
 14 15  2  0
 14 16  1  0
 16 17  1  0
 17 18  1  1
 17 20  1  0
 18 19  1  0
 20 21  1  0
 22 20  2  0
M  END
$$$$
