RCP.pdb
     RDKit          3D

 25 25  0  0  1  0  0  0  0  0999 V2000
   18.7582  -23.8613   -9.5224 N   0  0  0  0  0  0  0  0  0  0  0  0
   18.4898  -24.5330  -10.7567 C   0  0  0  0  0  0  0  0  0  0  0  0
   17.6534  -25.5082  -10.7644 N   0  0  0  0  0  0  0  0  0  0  0  0
   19.1309  -24.1319  -11.9390 N   0  0  0  0  0  0  0  0  0  0  0  0
   19.7806  -22.8059  -11.9911 C   0  0  0  0  0  0  0  0  0  0  0  0
   20.3796  -22.6693  -13.3413 C   0  0  0  0  0  0  0  0  0  0  0  0
   21.1980  -21.4720  -13.6155 C   0  0  0  0  0  0  0  0  0  0  0  0
   21.6320  -20.7582  -12.3796 C   0  0  2  0  0  0  0  0  0  0  0  0
   20.8039  -19.6036  -12.1479 N   0  0  0  0  0  0  0  0  0  0  0  0
   23.0541  -20.3186  -12.6204 C   0  0  0  0  0  0  0  0  0  0  0  0
   23.3008  -19.2209  -13.1837 O   0  0  0  0  0  0  0  0  0  0  0  0
   17.4396  -26.1104  -11.5796 N   0  0  0  0  0  0  0  0  0  0  0  0
   24.1318  -21.1446  -12.2111 C   0  0  2  0  0  0  0  0  0  0  0  0
   25.4937  -20.6480  -12.4550 C   0  0  0  0  0  0  0  0  0  0  0  0
   26.4410  -21.5680  -11.6895 S   0  0  0  0  0  0  0  0  0  0  0  0
   28.1458  -21.1108  -12.0801 C   0  0  0  0  0  0  0  0  0  0  0  0
   25.7975  -20.7508  -13.8951 O   0  0  0  0  0  0  0  0  0  0  0  0
   25.4761  -21.8593  -14.4754 N   0  0  0  0  0  0  0  0  0  0  0  0
   26.3988  -19.7190  -14.6222 C   0  0  0  0  0  0  0  0  0  0  0  0
   26.7731  -18.4138  -14.1355 C   0  0  0  0  0  0  0  0  0  0  0  0
   28.0831  -18.2273  -14.9259 C   0  0  0  0  0  0  0  0  0  0  0  0
   27.5209  -18.5167  -16.3259 C   0  0  1  0  0  0  0  0  0  0  0  0
   26.7220  -19.7757  -16.0657 C   0  0  0  0  0  0  0  0  0  0  0  0
   27.6317  -20.9206  -16.3597 O   0  0  0  0  0  0  0  0  0  0  0  0
   28.1403  -21.5112  -15.3757 O   0  0  0  0  0  0  0  0  0  0  0  0
  1  2  1  0
  2  3  2  0
  4  2  1  0
  5  4  1  0
  6  5  1  0
  7  6  1  0
  8  9  1  6
  8 10  1  0
  8  7  1  0
 10 12  1  0
 11 10  2  0
 12 13  1  0
 13 14  1  1
 14 15  1  0
 16 18  1  0
 16 13  1  0
 17 16  2  0
 18 22  1  0
 19 18  1  0
 20 21  1  0
 20 19  1  0
 21 22  1  0
 22 23  1  6
 23 25  1  0
 24 23  2  0
M  END
$$$$
