RCP.pdb
     RDKit          3D

 25 25  0  0  1  0  0  0  0  0999 V2000
   31.3458  -24.9275  -16.1622 N   0  0  0  0  0  0  0  0  0  0  0  0
   30.6635  -25.2818  -17.3687 C   0  0  0  0  0  0  0  0  0  0  0  0
   30.4402  -26.5229  -17.6148 N   0  0  0  0  0  0  0  0  0  0  0  0
   30.2458  -24.2885  -18.2679 N   0  0  0  0  0  0  0  0  0  0  0  0
   29.9873  -22.9240  -17.7636 C   0  0  0  0  0  0  0  0  0  0  0  0
   28.5502  -22.8606  -17.4013 C   0  0  0  0  0  0  0  0  0  0  0  0
   28.0197  -21.5763  -16.9038 C   0  0  0  0  0  0  0  0  0  0  0  0
   28.5291  -21.2122  -15.5498 C   0  0  2  0  0  0  0  0  0  0  0  0
   29.7729  -21.8857  -15.2819 N   0  0  0  0  0  0  0  0  0  0  0  0
   27.4841  -21.6726  -14.5651 C   0  0  0  0  0  0  0  0  0  0  0  0
   27.3706  -22.8907  -14.2710 O   0  0  0  0  0  0  0  0  0  0  0  0
   29.9160  -26.8894  -18.4296 N   0  0  0  0  0  0  0  0  0  0  0  0
   26.6153  -20.7299  -13.9588 C   0  0  1  0  0  0  0  0  0  0  0  0
   25.6348  -21.2408  -12.9900 C   0  0  0  0  0  0  0  0  0  0  0  0
   25.9082  -20.5263  -11.6692 S   0  0  0  0  0  0  0  0  0  0  0  0
   24.6500  -21.0147  -10.4667 C   0  0  0  0  0  0  0  0  0  0  0  0
   24.2755  -20.8897  -13.4436 O   0  0  0  0  0  0  0  0  0  0  0  0
   23.9793  -19.6325  -13.4613 N   0  0  0  0  0  0  0  0  0  0  0  0
   23.3354  -21.8447  -13.8425 C   0  0  0  0  0  0  0  0  0  0  0  0
   23.5683  -23.2469  -14.0876 C   0  0  0  0  0  0  0  0  0  0  0  0
   22.2505  -23.8134  -13.5235 C   0  0  0  0  0  0  0  0  0  0  0  0
   21.2860  -22.9276  -14.3267 C   0  0  1  0  0  0  0  0  0  0  0  0
   21.9112  -21.5630  -14.1320 C   0  0  0  0  0  0  0  0  0  0  0  0
   21.2398  -20.9571  -12.9458 O   0  0  0  0  0  0  0  0  0  0  0  0
   20.1026  -20.4580  -13.1283 O   0  0  0  0  0  0  0  0  0  0  0  0
  1  2  1  0
  2  3  2  0
  4  2  1  0
  5  4  1  0
  6  5  1  0
  7  6  1  0
  8  9  1  1
  8 10  1  0
  8  7  1  0
 10 12  1  0
 11 10  2  0
 12 13  1  0
 13 14  1  6
 14 15  1  0
 16 18  1  0
 16 13  1  0
 17 16  2  0
 18 22  1  0
 19 18  1  0
 20 21  1  0
 20 19  1  0
 21 22  1  0
 22 23  1  1
 23 25  1  0
 24 23  2  0
M  END
$$$$
