RCP.pdb
     RDKit          3D

 25 25  0  0  1  0  0  0  0  0999 V2000
   19.9596  -22.9731   -7.3697 N   0  0  0  0  0  0  0  0  0  0  0  0
   19.9322  -22.5714   -8.7425 C   0  0  0  0  0  0  0  0  0  0  0  0
   19.2243  -23.2482   -9.5740 N   0  0  0  0  0  0  0  0  0  0  0  0
   20.6675  -21.4558   -9.1722 N   0  0  0  0  0  0  0  0  0  0  0  0
   21.9660  -21.6656   -9.8451 C   0  0  0  0  0  0  0  0  0  0  0  0
   22.5072  -20.3235  -10.1711 C   0  0  0  0  0  0  0  0  0  0  0  0
   23.9365  -20.0716   -9.9025 C   0  0  0  0  0  0  0  0  0  0  0  0
   24.8142  -21.2278  -10.2462 C   0  0  2  0  0  0  0  0  0  0  0  0
   25.6093  -21.6117   -9.1092 N   0  0  0  0  0  0  0  0  0  0  0  0
   25.7181  -20.7589  -11.3583 C   0  0  0  0  0  0  0  0  0  0  0  0
   26.7088  -20.0227  -11.1141 O   0  0  0  0  0  0  0  0  0  0  0  0
   19.0214  -22.9752  -10.5524 N   0  0  0  0  0  0  0  0  0  0  0  0
   25.4566  -21.1467  -12.6971 C   0  0  2  0  0  0  0  0  0  0  0  0
   26.3789  -20.6603  -13.7334 C   0  0  0  0  0  0  0  0  0  0  0  0
   26.8454  -21.8844  -14.5167 S   0  0  0  0  0  0  0  0  0  0  0  0
   27.8811  -21.3394  -15.8945 C   0  0  0  0  0  0  0  0  0  0  0  0
   25.6498  -19.7634  -14.6503 O   0  0  0  0  0  0  0  0  0  0  0  0
   24.5131  -20.1891  -15.0922 N   0  0  0  0  0  0  0  0  0  0  0  0
   26.1361  -18.5108  -15.0372 C   0  0  0  0  0  0  0  0  0  0  0  0
   27.2982  -17.8301  -14.5208 C   0  0  0  0  0  0  0  0  0  0  0  0
   27.8039  -17.1889  -15.8281 C   0  0  0  0  0  0  0  0  0  0  0  0
   26.4928  -16.5029  -16.2406 C   0  0  1  0  0  0  0  0  0  0  0  0
   25.4987  -17.6263  -16.0385 C   0  0  0  0  0  0  0  0  0  0  0  0
   25.3730  -18.3194  -17.3533 O   0  0  0  0  0  0  0  0  0  0  0  0
   26.0262  -19.3810  -17.5022 O   0  0  0  0  0  0  0  0  0  0  0  0
  1  2  1  0
  2  3  2  0
  4  2  1  0
  5  4  1  0
  6  5  1  0
  7  6  1  0
  8  9  1  1
  8 10  1  0
  8  7  1  0
 10 12  1  0
 11 10  2  0
 12 13  1  0
 13 14  1  1
 14 15  1  0
 16 18  1  0
 16 13  1  0
 17 16  2  0
 18 22  1  0
 19 18  1  0
 20 21  1  0
 20 19  1  0
 21 22  1  0
 22 23  1  6
 23 25  1  0
 24 23  2  0
M  END
$$$$
