RCP.pdb
     RDKit          3D

 25 25  0  0  1  0  0  0  0  0999 V2000
   17.2710  -19.6953  -12.8738 N   0  0  0  0  0  0  0  0  0  0  0  0
   17.0353  -21.0819  -12.6125 C   0  0  0  0  0  0  0  0  0  0  0  0
   16.1489  -21.7029  -13.3049 N   0  0  0  0  0  0  0  0  0  0  0  0
   17.7614  -21.7515  -11.6154 N   0  0  0  0  0  0  0  0  0  0  0  0
   18.8943  -21.0618  -10.9643 C   0  0  0  0  0  0  0  0  0  0  0  0
   19.9189  -20.8276  -12.0111 C   0  0  0  0  0  0  0  0  0  0  0  0
   21.1758  -20.1655  -11.6109 C   0  0  0  0  0  0  0  0  0  0  0  0
   22.2217  -21.1198  -11.1409 C   0  0  2  0  0  0  0  0  0  0  0  0
   22.1732  -21.2544   -9.7084 N   0  0  0  0  0  0  0  0  0  0  0  0
   23.5484  -20.5298  -11.5473 C   0  0  0  0  0  0  0  0  0  0  0  0
   23.8274  -19.3319  -11.2817 O   0  0  0  0  0  0  0  0  0  0  0  0
   15.9008  -22.7036  -13.2053 N   0  0  0  0  0  0  0  0  0  0  0  0
   24.4983  -21.3257  -12.2367 C   0  0  2  0  0  0  0  0  0  0  0  0
   25.7897  -20.7042  -12.5640 C   0  0  0  0  0  0  0  0  0  0  0  0
   26.8682  -21.7350  -12.2414 S   0  0  0  0  0  0  0  0  0  0  0  0
   28.4627  -21.1196  -12.8303 C   0  0  0  0  0  0  0  0  0  0  0  0
   25.8350  -20.4104  -14.0090 O   0  0  0  0  0  0  0  0  0  0  0  0
   25.4977  -21.3708  -14.8044 N   0  0  0  0  0  0  0  0  0  0  0  0
   26.2163  -19.1668  -14.5218 C   0  0  0  0  0  0  0  0  0  0  0  0
   26.5134  -17.9700  -13.7735 C   0  0  0  0  0  0  0  0  0  0  0  0
   27.6737  -17.4295  -14.6321 C   0  0  0  0  0  0  0  0  0  0  0  0
   26.9567  -17.4631  -15.9903 C   0  0  1  0  0  0  0  0  0  0  0  0
   26.3402  -18.8452  -15.9614 C   0  0  0  0  0  0  0  0  0  0  0  0
   27.3170  -19.7564  -16.6251 O   0  0  0  0  0  0  0  0  0  0  0  0
   27.3620  -19.7271  -17.8792 O   0  0  0  0  0  0  0  0  0  0  0  0
  1  2  1  0
  2  3  2  0
  4  2  1  0
  5  4  1  0
  6  5  1  0
  7  6  1  0
  8  9  1  1
  8 10  1  0
  8  7  1  0
 10 12  1  0
 11 10  2  0
 12 13  1  0
 13 14  1  1
 14 15  1  0
 16 18  1  0
 16 13  1  0
 17 16  2  0
 18 22  1  0
 19 18  1  0
 20 21  1  0
 20 19  1  0
 21 22  1  0
 22 23  1  6
 23 25  1  0
 24 23  2  0
M  END
$$$$
