RCP.pdb
     RDKit          3D

 25 25  0  0  1  0  0  0  0  0999 V2000
   18.0354  -23.5392  -12.6041 N   0  0  0  0  0  0  0  0  0  0  0  0
   19.0099  -24.5804  -12.7184 C   0  0  0  0  0  0  0  0  0  0  0  0
   18.6788  -25.7795  -12.3968 N   0  0  0  0  0  0  0  0  0  0  0  0
   20.3061  -24.2949  -13.1744 N   0  0  0  0  0  0  0  0  0  0  0  0
   20.5352  -23.0728  -13.9726 C   0  0  0  0  0  0  0  0  0  0  0  0
   20.3049  -21.9170  -13.0718 C   0  0  0  0  0  0  0  0  0  0  0  0
   21.3434  -20.8699  -13.0131 C   0  0  0  0  0  0  0  0  0  0  0  0
   21.6751  -20.2923  -14.3479 C   0  0  2  0  0  0  0  0  0  0  0  0
   21.9232  -21.3408  -15.3026 N   0  0  0  0  0  0  0  0  0  0  0  0
   22.9289  -19.4765  -14.1578 C   0  0  0  0  0  0  0  0  0  0  0  0
   22.9725  -18.5552  -13.3020 O   0  0  0  0  0  0  0  0  0  0  0  0
   19.2992  -26.6076  -12.4437 N   0  0  0  0  0  0  0  0  0  0  0  0
   24.0761  -19.7430  -14.9476 C   0  0  1  0  0  0  0  0  0  0  0  0
   25.2337  -18.8527  -14.7791 C   0  0  0  0  0  0  0  0  0  0  0  0
   26.4467  -19.7484  -14.5424 S   0  0  0  0  0  0  0  0  0  0  0  0
   27.9475  -18.7486  -14.6681 C   0  0  0  0  0  0  0  0  0  0  0  0
   25.4458  -18.0908  -16.0246 O   0  0  0  0  0  0  0  0  0  0  0  0
   25.5283  -18.7782  -17.1152 N   0  0  0  0  0  0  0  0  0  0  0  0
   25.5532  -16.6970  -16.0559 C   0  0  0  0  0  0  0  0  0  0  0  0
   25.3762  -15.7848  -14.9528 C   0  0  0  0  0  0  0  0  0  0  0  0
   26.4734  -14.7616  -15.3064 C   0  0  0  0  0  0  0  0  0  0  0  0
   26.0389  -14.4871  -16.7541 C   0  0  1  0  0  0  0  0  0  0  0  0
   25.8306  -15.8951  -17.2689 C   0  0  0  0  0  0  0  0  0  0  0  0
   27.1195  -16.3103  -17.8945 O   0  0  0  0  0  0  0  0  0  0  0  0
   27.3072  -15.9737  -19.0891 O   0  0  0  0  0  0  0  0  0  0  0  0
  1  2  1  0
  2  3  2  0
  4  2  1  0
  5  4  1  0
  6  5  1  0
  7  6  1  0
  8  9  1  6
  8 10  1  0
  8  7  1  0
 10 12  1  0
 11 10  2  0
 12 13  1  0
 13 14  1  1
 14 15  1  0
 16 18  1  0
 16 13  1  0
 17 16  2  0
 18 22  1  0
 19 18  1  0
 20 21  1  0
 20 19  1  0
 21 22  1  0
 22 23  1  6
 23 25  1  0
 24 23  2  0
M  END
$$$$
