RCP.pdb
     RDKit          3D

 25 25  0  0  1  0  0  0  0  0999 V2000
   22.7015  -25.4229  -13.9202 N   0  0  0  0  0  0  0  0  0  0  0  0
   23.5457  -25.0594  -15.0165 C   0  0  0  0  0  0  0  0  0  0  0  0
   23.0853  -25.1517  -16.2125 N   0  0  0  0  0  0  0  0  0  0  0  0
   24.8552  -24.6096  -14.7875 N   0  0  0  0  0  0  0  0  0  0  0  0
   25.0746  -23.4666  -13.8774 C   0  0  0  0  0  0  0  0  0  0  0  0
   23.7362  -22.9631  -13.4831 C   0  0  0  0  0  0  0  0  0  0  0  0
   23.5507  -21.5024  -13.3809 C   0  0  0  0  0  0  0  0  0  0  0  0
   23.4621  -20.8247  -14.7068 C   0  0  2  0  0  0  0  0  0  0  0  0
   24.1893  -21.5684  -15.7020 N   0  0  0  0  0  0  0  0  0  0  0  0
   24.0924  -19.4661  -14.5322 C   0  0  0  0  0  0  0  0  0  0  0  0
   23.6456  -18.6550  -13.6804 O   0  0  0  0  0  0  0  0  0  0  0  0
   23.6029  -24.9090  -17.0763 N   0  0  0  0  0  0  0  0  0  0  0  0
   25.2011  -19.0894  -15.3322 C   0  0  2  0  0  0  0  0  0  0  0  0
   25.7871  -17.7627  -15.0926 C   0  0  0  0  0  0  0  0  0  0  0  0
   27.2800  -17.9772  -14.8578 S   0  0  0  0  0  0  0  0  0  0  0  0
   27.5122  -18.7788  -13.2542 C   0  0  0  0  0  0  0  0  0  0  0  0
   25.6141  -16.9303  -16.2983 O   0  0  0  0  0  0  0  0  0  0  0  0
   25.8821  -17.4912  -17.4306 N   0  0  0  0  0  0  0  0  0  0  0  0
   25.1816  -15.6015  -16.2507 C   0  0  0  0  0  0  0  0  0  0  0  0
   24.7751  -14.8591  -15.0828 C   0  0  0  0  0  0  0  0  0  0  0  0
   25.3645  -13.4838  -15.4531 C   0  0  0  0  0  0  0  0  0  0  0  0
   24.7260  -13.3549  -16.8444 C   0  0  1  0  0  0  0  0  0  0  0  0
   25.0203  -14.7198  -17.4288 C   0  0  0  0  0  0  0  0  0  0  0  0
   26.3063  -14.5910  -18.1735 O   0  0  0  0  0  0  0  0  0  0  0  0
   27.3423  -15.0026  -17.5964 O   0  0  0  0  0  0  0  0  0  0  0  0
  1  2  1  0
  2  3  2  0
  4  2  1  0
  5  4  1  0
  6  5  1  0
  7  6  1  0
  8  9  1  6
  8 10  1  0
  8  7  1  0
 10 12  1  0
 11 10  2  0
 12 13  1  0
 13 14  1  1
 14 15  1  0
 16 18  1  0
 16 13  1  0
 17 16  2  0
 18 22  1  0
 19 18  1  0
 20 21  1  0
 20 19  1  0
 21 22  1  0
 22 23  1  6
 23 25  1  0
 24 23  2  0
M  END
$$$$
