RCP.pdb
     RDKit          3D

 25 25  0  0  1  0  0  0  0  0999 V2000
   13.1203  -12.2932  -15.3845 N   0  0  0  0  0  0  0  0  0  0  0  0
   12.7540  -13.6363  -15.7140 C   0  0  0  0  0  0  0  0  0  0  0  0
   11.5602  -13.8715  -16.1265 N   0  0  0  0  0  0  0  0  0  0  0  0
   13.6849  -14.6790  -15.5878 N   0  0  0  0  0  0  0  0  0  0  0  0
   15.0528  -14.3700  -15.1224 C   0  0  0  0  0  0  0  0  0  0  0  0
   15.7862  -13.8004  -16.2792 C   0  0  0  0  0  0  0  0  0  0  0  0
   17.1851  -13.3789  -16.0700 C   0  0  0  0  0  0  0  0  0  0  0  0
   18.1276  -13.9383  -17.0819 C   0  0  2  0  0  0  0  0  0  0  0  0
   18.2973  -15.3540  -16.8834 N   0  0  0  0  0  0  0  0  0  0  0  0
   19.4454  -13.2376  -16.8679 C   0  0  0  0  0  0  0  0  0  0  0  0
   20.3107  -13.7191  -16.0917 O   0  0  0  0  0  0  0  0  0  0  0  0
   11.2120  -14.7842  -16.4708 N   0  0  0  0  0  0  0  0  0  0  0  0
   19.7215  -12.0221  -17.5444 C   0  0  2  0  0  0  0  0  0  0  0  0
   21.0585  -11.4380  -17.3648 C   0  0  0  0  0  0  0  0  0  0  0  0
   21.4136  -10.7411  -18.6756 S   0  0  0  0  0  0  0  0  0  0  0  0
   22.9211   -9.7727  -18.4353 C   0  0  0  0  0  0  0  0  0  0  0  0
   21.0067  -10.4268  -16.2919 O   0  0  0  0  0  0  0  0  0  0  0  0
   20.0304   -9.5822  -16.3409 N   0  0  0  0  0  0  0  0  0  0  0  0
   21.9486  -10.3616  -15.2605 C   0  0  0  0  0  0  0  0  0  0  0  0
   23.0465  -11.2670  -15.0252 C   0  0  0  0  0  0  0  0  0  0  0  0
   24.0999  -10.2499  -14.5437 C   0  0  0  0  0  0  0  0  0  0  0  0
   23.2562   -9.5852  -13.4455 C   0  0  1  0  0  0  0  0  0  0  0  0
   21.9533   -9.3506  -14.1793 C   0  0  0  0  0  0  0  0  0  0  0  0
   22.0298   -7.9721  -14.7440 O   0  0  0  0  0  0  0  0  0  0  0  0
   22.2976   -7.8714  -15.9663 O   0  0  0  0  0  0  0  0  0  0  0  0
  1  2  1  0
  2  3  2  0
  4  2  1  0
  5  4  1  0
  6  5  1  0
  7  6  1  0
  8  9  1  1
  8 10  1  0
  8  7  1  0
 10 12  1  0
 11 10  2  0
 12 13  1  0
 13 14  1  6
 14 15  1  0
 16 18  1  0
 16 13  1  0
 17 16  2  0
 18 22  1  0
 19 18  1  0
 20 21  1  0
 20 19  1  0
 21 22  1  0
 22 23  1  6
 23 25  1  0
 24 23  2  0
M  END
$$$$
