RCP.pdb
     RDKit          3D

 25 25  0  0  1  0  0  0  0  0999 V2000
   19.0174  -24.1662   -8.0140 N   0  0  0  0  0  0  0  0  0  0  0  0
   18.9345  -24.5065   -9.4011 C   0  0  0  0  0  0  0  0  0  0  0  0
   18.4058  -25.6288   -9.7352 N   0  0  0  0  0  0  0  0  0  0  0  0
   19.4234  -23.6273  -10.3798 N   0  0  0  0  0  0  0  0  0  0  0  0
   20.0051  -22.3354   -9.9606 C   0  0  0  0  0  0  0  0  0  0  0  0
   20.3296  -21.5841  -11.1978 C   0  0  0  0  0  0  0  0  0  0  0  0
   20.7380  -22.3564  -12.3874 C   0  0  0  0  0  0  0  0  0  0  0  0
   21.0960  -21.4982  -13.5538 C   0  0  2  0  0  0  0  0  0  0  0  0
   21.2279  -22.2964  -14.7446 N   0  0  0  0  0  0  0  0  0  0  0  0
   22.4231  -20.8635  -13.2227 C   0  0  0  0  0  0  0  0  0  0  0  0
   22.4777  -19.8035  -12.5470 O   0  0  0  0  0  0  0  0  0  0  0  0
   18.3133  -25.9852  -10.7034 N   0  0  0  0  0  0  0  0  0  0  0  0
   23.6279  -21.4605  -13.6733 C   0  0  1  0  0  0  0  0  0  0  0  0
   24.8612  -20.6702  -13.5482 C   0  0  0  0  0  0  0  0  0  0  0  0
   25.9307  -21.6086  -12.9957 S   0  0  0  0  0  0  0  0  0  0  0  0
   26.2363  -22.9227  -14.1989 C   0  0  0  0  0  0  0  0  0  0  0  0
   25.2817  -20.2112  -14.8858 O   0  0  0  0  0  0  0  0  0  0  0  0
   25.0999  -21.0362  -15.8631 N   0  0  0  0  0  0  0  0  0  0  0  0
   25.8478  -18.9537  -15.1163 C   0  0  0  0  0  0  0  0  0  0  0  0
   26.0637  -17.9052  -14.1496 C   0  0  0  0  0  0  0  0  0  0  0  0
   27.4133  -17.3714  -14.6688 C   0  0  0  0  0  0  0  0  0  0  0  0
   26.9971  -17.1488  -16.1307 C   0  0  1  0  0  0  0  0  0  0  0  0
   26.2936  -18.4537  -16.4364 C   0  0  0  0  0  0  0  0  0  0  0  0
   27.3221  -19.3592  -17.0255 O   0  0  0  0  0  0  0  0  0  0  0  0
   27.8419  -20.2060  -16.2584 O   0  0  0  0  0  0  0  0  0  0  0  0
  1  2  1  0
  2  3  2  0
  4  2  1  0
  5  4  1  0
  6  5  1  0
  7  6  1  0
  8  9  1  6
  8 10  1  0
  8  7  1  0
 10 12  1  0
 11 10  2  0
 12 13  1  0
 13 14  1  1
 14 15  1  0
 16 18  1  0
 16 13  1  0
 17 16  2  0
 18 22  1  0
 19 18  1  0
 20 21  1  0
 20 19  1  0
 21 22  1  0
 22 23  1  6
 23 25  1  0
 24 23  2  0
M  END
$$$$
