RCP.pdb
     RDKit          3D

 25 25  0  0  1  0  0  0  0  0999 V2000
   31.7297  -26.2505  -16.8439 N   0  0  0  0  0  0  0  0  0  0  0  0
   31.0335  -26.8295  -17.9515 C   0  0  0  0  0  0  0  0  0  0  0  0
   30.9190  -28.1077  -18.0140 N   0  0  0  0  0  0  0  0  0  0  0  0
   30.4851  -26.0131  -18.9527 N   0  0  0  0  0  0  0  0  0  0  0  0
   29.9460  -24.6875  -18.5851 C   0  0  0  0  0  0  0  0  0  0  0  0
   28.6924  -24.9239  -17.8281 C   0  0  0  0  0  0  0  0  0  0  0  0
   28.4793  -24.1531  -16.5876 C   0  0  0  0  0  0  0  0  0  0  0  0
   29.4912  -23.0767  -16.3804 C   0  0  2  0  0  0  0  0  0  0  0  0
   30.7269  -23.6339  -15.8958 N   0  0  0  0  0  0  0  0  0  0  0  0
   28.9158  -22.1471  -15.3421 C   0  0  0  0  0  0  0  0  0  0  0  0
   28.9916  -22.4256  -14.1174 O   0  0  0  0  0  0  0  0  0  0  0  0
   30.4262  -28.6314  -18.7595 N   0  0  0  0  0  0  0  0  0  0  0  0
   28.2802  -20.9435  -15.7405 C   0  0  2  0  0  0  0  0  0  0  0  0
   27.7646  -20.0683  -14.6779 C   0  0  0  0  0  0  0  0  0  0  0  0
   27.6350  -18.6726  -15.2820 S   0  0  0  0  0  0  0  0  0  0  0  0
   26.7080  -17.6226  -14.1391 C   0  0  0  0  0  0  0  0  0  0  0  0
   26.4243  -20.5335  -14.2733 O   0  0  0  0  0  0  0  0  0  0  0  0
   25.5530  -20.6752  -15.2165 N   0  0  0  0  0  0  0  0  0  0  0  0
   26.0848  -20.8170  -12.9469 C   0  0  0  0  0  0  0  0  0  0  0  0
   26.9649  -20.8207  -11.8042 C   0  0  0  0  0  0  0  0  0  0  0  0
   26.0003  -20.2359  -10.7538 C   0  0  0  0  0  0  0  0  0  0  0  0
   24.8388  -21.2171  -10.9734 C   0  0  1  0  0  0  0  0  0  0  0  0
   24.7367  -21.2161  -12.4836 C   0  0  0  0  0  0  0  0  0  0  0  0
   23.7264  -20.1772  -12.8371 O   0  0  0  0  0  0  0  0  0  0  0  0
   24.1622  -19.0871  -13.2816 O   0  0  0  0  0  0  0  0  0  0  0  0
  1  2  1  0
  2  3  2  0
  4  2  1  0
  5  4  1  0
  6  5  1  0
  7  6  1  0
  8  9  1  1
  8 10  1  0
  8  7  1  0
 10 12  1  0
 11 10  2  0
 12 13  1  0
 13 14  1  6
 14 15  1  0
 16 18  1  0
 16 13  1  0
 17 16  2  0
 18 22  1  0
 19 18  1  0
 20 21  1  0
 20 19  1  0
 21 22  1  0
 22 23  1  6
 23 25  1  0
 24 23  2  0
M  END
$$$$
