RCP.pdb
     RDKit          3D

 25 25  0  0  1  0  0  0  0  0999 V2000
   19.3717  -24.0707   -7.9371 N   0  0  0  0  0  0  0  0  0  0  0  0
   18.4772  -24.0684   -9.0536 C   0  0  0  0  0  0  0  0  0  0  0  0
   17.5882  -24.9920   -9.1395 N   0  0  0  0  0  0  0  0  0  0  0  0
   18.5708  -23.0727  -10.0382 N   0  0  0  0  0  0  0  0  0  0  0  0
   19.5751  -22.0001   -9.8838 C   0  0  0  0  0  0  0  0  0  0  0  0
   20.3749  -21.9717  -11.1327 C   0  0  0  0  0  0  0  0  0  0  0  0
   19.9027  -21.1119  -12.2355 C   0  0  0  0  0  0  0  0  0  0  0  0
   20.7738  -21.1718  -13.4450 C   0  0  2  0  0  0  0  0  0  0  0  0
   21.0633  -22.5392  -13.7897 N   0  0  0  0  0  0  0  0  0  0  0  0
   22.0534  -20.4615  -13.0823 C   0  0  0  0  0  0  0  0  0  0  0  0
   22.1231  -19.7524  -12.0453 O   0  0  0  0  0  0  0  0  0  0  0  0
   16.9296  -25.1209   -9.9285 N   0  0  0  0  0  0  0  0  0  0  0  0
   23.1958  -20.5879  -13.9130 C   0  0  1  0  0  0  0  0  0  0  0  0
   24.5102  -20.6100  -13.2549 C   0  0  0  0  0  0  0  0  0  0  0  0
   24.4775  -21.7545  -12.2456 S   0  0  0  0  0  0  0  0  0  0  0  0
   26.1272  -21.9571  -11.5349 C   0  0  0  0  0  0  0  0  0  0  0  0
   25.5517  -20.8968  -14.2597 O   0  0  0  0  0  0  0  0  0  0  0  0
   25.6124  -22.1103  -14.6984 N   0  0  0  0  0  0  0  0  0  0  0  0
   26.4397  -19.9267  -14.7344 C   0  0  0  0  0  0  0  0  0  0  0  0
   26.6949  -18.6263  -14.1651 C   0  0  0  0  0  0  0  0  0  0  0  0
   28.2112  -18.5402  -14.4281 C   0  0  0  0  0  0  0  0  0  0  0  0
   28.1764  -18.8512  -15.9320 C   0  0  2  0  0  0  0  0  0  0  0  0
   27.2590  -20.0548  -15.9607 C   0  0  0  0  0  0  0  0  0  0  0  0
   28.1386  -21.2572  -15.8863 O   0  0  0  0  0  0  0  0  0  0  0  0
   28.2083  -21.8442  -14.7789 O   0  0  0  0  0  0  0  0  0  0  0  0
  1  2  1  0
  2  3  2  0
  4  2  1  0
  5  4  1  0
  6  5  1  0
  7  6  1  0
  8  9  1  1
  8 10  1  0
  8  7  1  0
 10 12  1  0
 11 10  2  0
 12 13  1  0
 13 14  1  1
 14 15  1  0
 16 18  1  0
 16 13  1  0
 17 16  2  0
 18 22  1  0
 19 18  1  0
 20 21  1  0
 20 19  1  0
 21 22  1  0
 22 23  1  1
 23 25  1  0
 24 23  2  0
M  END
$$$$
