RCP.pdb
     RDKit          3D

 25 25  0  0  1  0  0  0  0  0999 V2000
   25.4268  -22.0413  -13.6480 N   0  0  0  0  0  0  0  0  0  0  0  0
   25.0854  -22.4743  -14.9681 C   0  0  0  0  0  0  0  0  0  0  0  0
   26.0062  -22.9626  -15.7195 N   0  0  0  0  0  0  0  0  0  0  0  0
   23.7657  -22.3667  -15.4332 N   0  0  0  0  0  0  0  0  0  0  0  0
   22.8465  -21.4147  -14.7760 C   0  0  0  0  0  0  0  0  0  0  0  0
   21.9725  -22.2067  -13.8763 C   0  0  0  0  0  0  0  0  0  0  0  0
   21.0070  -23.1363  -14.4944 C   0  0  0  0  0  0  0  0  0  0  0  0
   19.6456  -22.5493  -14.6599 C   0  0  2  0  0  0  0  0  0  0  0  0
   19.7344  -21.2130  -15.1879 N   0  0  0  0  0  0  0  0  0  0  0  0
   19.0309  -22.5079  -13.2837 C   0  0  0  0  0  0  0  0  0  0  0  0
   18.8038  -21.4092  -12.7141 O   0  0  0  0  0  0  0  0  0  0  0  0
   25.8947  -23.2204  -16.7165 N   0  0  0  0  0  0  0  0  0  0  0  0
   18.7019  -23.7151  -12.6163 C   0  0  2  0  0  0  0  0  0  0  0  0
   17.9217  -23.6093  -11.3748 C   0  0  0  0  0  0  0  0  0  0  0  0
   16.4519  -23.7335  -11.7672 S   0  0  0  0  0  0  0  0  0  0  0  0
   15.4566  -23.9017  -10.2674 C   0  0  0  0  0  0  0  0  0  0  0  0
   18.2691  -24.7341  -10.4855 O   0  0  0  0  0  0  0  0  0  0  0  0
   18.1815  -25.9192  -10.9921 N   0  0  0  0  0  0  0  0  0  0  0  0
   18.6780  -24.5587   -9.1600 C   0  0  0  0  0  0  0  0  0  0  0  0
   18.8736  -23.3090   -8.4668 C   0  0  0  0  0  0  0  0  0  0  0  0
   18.3467  -23.7180   -7.0772 C   0  0  0  0  0  0  0  0  0  0  0  0
   19.2129  -24.9729   -6.8907 C   0  0  1  0  0  0  0  0  0  0  0  0
   19.0323  -25.6546   -8.2300 C   0  0  0  0  0  0  0  0  0  0  0  0
   17.8918  -26.6025   -8.0701 O   0  0  0  0  0  0  0  0  0  0  0  0
   16.7738  -26.2260   -8.4992 O   0  0  0  0  0  0  0  0  0  0  0  0
  1  2  1  0
  2  3  2  0
  4  2  1  0
  5  4  1  0
  6  5  1  0
  7  6  1  0
  8  9  1  1
  8 10  1  0
  8  7  1  0
 10 12  1  0
 11 10  2  0
 12 13  1  0
 13 14  1  1
 14 15  1  0
 16 18  1  0
 16 13  1  0
 17 16  2  0
 18 22  1  0
 19 18  1  0
 20 21  1  0
 20 19  1  0
 21 22  1  0
 22 23  1  1
 23 25  1  0
 24 23  2  0
M  END
$$$$
