ARE.pdb
     RDKit          3D

 26 25  0  0  1  0  0  0  0  0999 V2000
   25.9443  -25.2627  -15.1678 C   0  0  0  0  0  0  0  0  0  0  0  0
   24.6015  -24.6168  -15.3059 C   0  0  2  0  0  0  0  0  0  0  0  0
   24.0387  -24.7826  -16.6295 N   0  0  0  0  0  0  0  0  0  0  0  0
   24.5809  -23.2070  -14.8703 C   0  0  0  0  0  0  0  0  0  0  0  0
   24.8007  -22.9662  -13.6555 O   0  0  0  0  0  0  0  0  0  0  0  0
   27.2690  -15.9187  -17.7671 N   0  0  0  0  0  0  0  0  0  0  0  0
   27.2277  -17.2746  -18.2071 C   0  0  0  0  0  0  0  0  0  0  0  0
   28.2698  -17.7855  -18.7843 N   0  0  0  0  0  0  0  0  0  0  0  0
   26.0458  -18.0196  -17.9981 N   0  0  0  0  0  0  0  0  0  0  0  0
   24.9309  -17.4643  -17.2785 C   0  0  0  0  0  0  0  0  0  0  0  0
   24.5403  -18.3488  -16.1505 C   0  0  0  0  0  0  0  0  0  0  0  0
   24.6910  -19.7957  -16.3639 C   0  0  0  0  0  0  0  0  0  0  0  0
   24.3055  -20.7174  -15.2660 C   0  0  2  0  0  0  0  0  0  0  0  0
   24.3289  -22.1166  -15.7385 N   0  0  0  0  0  0  0  0  0  0  0  0
   22.9353  -20.3756  -14.7964 C   0  0  0  0  0  0  0  0  0  0  0  0
   21.9437  -20.5682  -15.5384 O   0  0  0  0  0  0  0  0  0  0  0  0
   28.2173  -18.7701  -19.1038 N   0  0  0  0  0  0  0  0  0  0  0  0
   22.6964  -19.8247  -13.5068 C   0  0  2  0  0  0  0  0  0  0  0  0
   21.3101  -19.5251  -13.1058 C   0  0  0  0  0  0  0  0  0  0  0  0
   20.6807  -18.6516  -14.1758 C   0  0  0  0  0  0  0  0  0  0  0  0
   19.2415  -18.3263  -13.9181 C   0  0  0  0  0  0  0  0  0  0  0  0
   18.6997  -17.5403  -15.0826 O   0  0  0  0  0  0  0  0  0  0  0  0
   18.8343  -16.2967  -15.1316 C   0  0  0  0  0  0  0  0  0  0  0  0
   20.5704  -20.7515  -12.8162 O   0  0  0  0  0  0  0  0  0  0  0  0
   21.0475  -22.0347  -12.9732 O   0  0  0  0  0  0  0  0  0  0  0  0
   18.0537  -18.2225  -16.0904 O   0  0  0  0  0  0  0  0  0  0  0  0
  2  1  1  6
  2  3  1  0
  4  5  2  0
  4  2  1  0
  6  7  1  0
  7  8  2  0
  7  9  1  0
  9 10  1  0
 10 11  1  0
 13 12  1  6
 12 11  1  0
 13 14  1  0
 14  4  1  0
 15 17  1  0
 15 13  1  0
 16 15  2  0
 18 19  1  1
 18 17  1  0
 19 20  1  0
 20 21  1  0
 21 22  2  0
 23 18  1  0
 24 23  1  0
 25 21  1  0
 26 23  2  0
M  END
$$$$
