ARE.pdb
     RDKit          3D

 26 25  0  0  1  0  0  0  0  0999 V2000
   15.8128   -9.0515  -16.4625 C   0  0  0  0  0  0  0  0  0  0  0  0
   16.6499  -10.2709  -16.2353 C   0  0  2  0  0  0  0  0  0  0  0  0
   15.9278  -11.3203  -15.5473 N   0  0  0  0  0  0  0  0  0  0  0  0
   17.9467   -9.9812  -15.5932 C   0  0  0  0  0  0  0  0  0  0  0  0
   17.9708   -9.8856  -14.3392 O   0  0  0  0  0  0  0  0  0  0  0  0
   26.2948  -12.3721  -17.1374 N   0  0  0  0  0  0  0  0  0  0  0  0
   26.4014  -11.3874  -16.1114 C   0  0  0  0  0  0  0  0  0  0  0  0
   27.5614  -11.1402  -15.5885 N   0  0  0  0  0  0  0  0  0  0  0  0
   25.2327  -10.7107  -15.6968 N   0  0  0  0  0  0  0  0  0  0  0  0
   23.9644  -10.9551  -16.3301 C   0  0  0  0  0  0  0  0  0  0  0  0
   22.9003  -10.1207  -15.7146 C   0  0  0  0  0  0  0  0  0  0  0  0
   21.5395  -10.2903  -16.2446 C   0  0  0  0  0  0  0  0  0  0  0  0
   20.4376   -9.5076  -15.6307 C   0  0  2  0  0  0  0  0  0  0  0  0
   19.1582   -9.8058  -16.3058 N   0  0  0  0  0  0  0  0  0  0  0  0
   20.7378   -8.0554  -15.7565 C   0  0  0  0  0  0  0  0  0  0  0  0
   20.8896   -7.5343  -16.8862 O   0  0  0  0  0  0  0  0  0  0  0  0
   27.6086  -10.4680  -14.8009 N   0  0  0  0  0  0  0  0  0  0  0  0
   20.8632   -7.2108  -14.6187 C   0  0  2  0  0  0  0  0  0  0  0  0
   21.1712   -5.7838  -14.8215 C   0  0  0  0  0  0  0  0  0  0  0  0
   19.8901   -4.9883  -14.6481 C   0  0  0  0  0  0  0  0  0  0  0  0
   19.1747   -4.7108  -15.9344 C   0  0  0  0  0  0  0  0  0  0  0  0
   17.6896   -4.7611  -15.6910 O   0  0  0  0  0  0  0  0  0  0  0  0
   17.2373   -4.9855  -14.5455 C   0  0  0  0  0  0  0  0  0  0  0  0
   22.2687   -5.3553  -13.9572 O   0  0  0  0  0  0  0  0  0  0  0  0
   22.8871   -6.1291  -12.9992 O   0  0  0  0  0  0  0  0  0  0  0  0
   16.8428   -4.5544  -16.7581 O   0  0  0  0  0  0  0  0  0  0  0  0
  2  1  1  1
  2  3  1  0
  4  5  2  0
  4  2  1  0
  6  7  1  0
  7  8  2  0
  7  9  1  0
  9 10  1  0
 10 11  1  0
 13 12  1  6
 12 11  1  0
 13 14  1  0
 14  4  1  0
 15 17  1  0
 15 13  1  0
 16 15  2  0
 18 19  1  1
 18 17  1  0
 19 20  1  0
 20 21  1  0
 21 22  2  0
 23 18  1  0
 24 23  1  0
 25 21  1  0
 26 23  2  0
M  END
$$$$
