ARE.pdb
     RDKit          3D

 26 25  0  0  1  0  0  0  0  0999 V2000
   17.5394  -10.5851  -16.6288 C   0  0  0  0  0  0  0  0  0  0  0  0
   18.7127  -11.4693  -16.3444 C   0  0  2  0  0  0  0  0  0  0  0  0
   18.3532  -12.6368  -15.5673 N   0  0  0  0  0  0  0  0  0  0  0  0
   19.8615  -10.7502  -15.7604 C   0  0  0  0  0  0  0  0  0  0  0  0
   19.7974  -10.4334  -14.5449 O   0  0  0  0  0  0  0  0  0  0  0  0
   27.9471  -11.9301  -15.8159 N   0  0  0  0  0  0  0  0  0  0  0  0
   27.0885  -13.0685  -15.8416 C   0  0  0  0  0  0  0  0  0  0  0  0
   27.5041  -14.1871  -15.3357 N   0  0  0  0  0  0  0  0  0  0  0  0
   25.8067  -12.9381  -16.4208 N   0  0  0  0  0  0  0  0  0  0  0  0
   25.3151  -11.6616  -16.8660 C   0  0  0  0  0  0  0  0  0  0  0  0
   24.0754  -11.2920  -16.1352 C   0  0  0  0  0  0  0  0  0  0  0  0
   23.4277  -10.0324  -16.5295 C   0  0  0  0  0  0  0  0  0  0  0  0
   22.1479   -9.6595  -15.8765 C   0  0  2  0  0  0  0  0  0  0  0  0
   21.0250  -10.3990  -16.4879 N   0  0  0  0  0  0  0  0  0  0  0  0
   21.9234   -8.1969  -16.0358 C   0  0  0  0  0  0  0  0  0  0  0  0
   21.4500   -7.7401  -17.1026 O   0  0  0  0  0  0  0  0  0  0  0  0
   26.8585  -14.9980  -15.3475 N   0  0  0  0  0  0  0  0  0  0  0  0
   22.2315   -7.2704  -15.0014 C   0  0  1  0  0  0  0  0  0  0  0  0
   21.8174   -5.8645  -15.1578 C   0  0  0  0  0  0  0  0  0  0  0  0
   20.3047   -5.8215  -15.2757 C   0  0  0  0  0  0  0  0  0  0  0  0
   19.7390   -4.4347  -15.2661 C   0  0  0  0  0  0  0  0  0  0  0  0
   18.2356   -4.5176  -15.2876 O   0  0  0  0  0  0  0  0  0  0  0  0
   17.6583   -5.6240  -15.3851 C   0  0  0  0  0  0  0  0  0  0  0  0
   22.3626   -5.0340  -14.0862 O   0  0  0  0  0  0  0  0  0  0  0  0
   22.5824   -3.6754  -14.1543 O   0  0  0  0  0  0  0  0  0  0  0  0
   17.5131   -3.3479  -15.1973 O   0  0  0  0  0  0  0  0  0  0  0  0
  2  1  1  1
  2  3  1  0
  4  5  2  0
  4  2  1  0
  6  7  1  0
  7  8  2  0
  7  9  1  0
  9 10  1  0
 10 11  1  0
 13 12  1  6
 12 11  1  0
 13 14  1  0
 14  4  1  0
 15 17  1  0
 15 13  1  0
 16 15  2  0
 18 19  1  6
 18 17  1  0
 19 20  1  0
 20 21  1  0
 21 22  2  0
 23 18  1  0
 24 23  1  0
 25 21  1  0
 26 23  2  0
M  END
$$$$
