ARE.pdb
     RDKit          3D

 26 25  0  0  1  0  0  0  0  0999 V2000
   27.4851  -32.8319    2.3207 C   0  0  0  0  0  0  0  0  0  0  0  0
   28.2300  -33.5310    1.2270 C   0  0  2  0  0  0  0  0  0  0  0  0
   27.3663  -34.3478    0.4006 N   0  0  0  0  0  0  0  0  0  0  0  0
   29.4069  -34.2818    1.7055 C   0  0  0  0  0  0  0  0  0  0  0  0
   29.2031  -35.3566    2.3262 O   0  0  0  0  0  0  0  0  0  0  0  0
   34.0203  -33.0402   -2.5959 N   0  0  0  0  0  0  0  0  0  0  0  0
   34.4070  -32.0956   -1.5999 C   0  0  0  0  0  0  0  0  0  0  0  0
   34.3176  -30.8287   -1.8595 N   0  0  0  0  0  0  0  0  0  0  0  0
   34.8769  -32.5747   -0.3569 N   0  0  0  0  0  0  0  0  0  0  0  0
   35.0459  -33.9827   -0.1153 C   0  0  0  0  0  0  0  0  0  0  0  0
   33.7727  -34.5931    0.3470 C   0  0  0  0  0  0  0  0  0  0  0  0
   33.1699  -34.0224    1.5605 C   0  0  0  0  0  0  0  0  0  0  0  0
   31.8975  -34.6020    2.0590 C   0  0  2  0  0  0  0  0  0  0  0  0
   30.7449  -33.8621    1.5061 N   0  0  0  0  0  0  0  0  0  0  0  0
   31.8709  -34.5226    3.5449 C   0  0  0  0  0  0  0  0  0  0  0  0
   30.9837  -33.8573    4.1291 O   0  0  0  0  0  0  0  0  0  0  0  0
   34.5331  -30.1583   -1.0989 N   0  0  0  0  0  0  0  0  0  0  0  0
   32.8352  -35.1873    4.3523 C   0  0  1  0  0  0  0  0  0  0  0  0
   32.7208  -35.0963    5.8189 C   0  0  0  0  0  0  0  0  0  0  0  0
   31.3098  -35.4923    6.2143 C   0  0  0  0  0  0  0  0  0  0  0  0
   31.1098  -35.6112    7.6939 C   0  0  0  0  0  0  0  0  0  0  0  0
   29.6756  -35.9791    7.9675 O   0  0  0  0  0  0  0  0  0  0  0  0
   28.8783  -35.1361    8.4373 C   0  0  0  0  0  0  0  0  0  0  0  0
   33.7712  -35.8702    6.4767 O   0  0  0  0  0  0  0  0  0  0  0  0
   34.0596  -35.8521    7.8241 O   0  0  0  0  0  0  0  0  0  0  0  0
   29.2636  -37.2640    7.6885 O   0  0  0  0  0  0  0  0  0  0  0  0
  2  1  1  1
  2  3  1  0
  4  5  2  0
  4  2  1  0
  6  7  1  0
  7  8  2  0
  7  9  1  0
  9 10  1  0
 10 11  1  0
 13 12  1  6
 12 11  1  0
 13 14  1  0
 14  4  1  0
 15 17  1  0
 15 13  1  0
 16 15  2  0
 18 19  1  1
 18 17  1  0
 19 20  1  0
 20 21  1  0
 21 22  2  0
 23 18  1  0
 24 23  1  0
 25 21  1  0
 26 23  2  0
M  END
$$$$
