ARE.pdb
     RDKit          3D

 26 25  0  0  1  0  0  0  0  0999 V2000
   27.0109  -10.3786  -15.0231 C   0  0  0  0  0  0  0  0  0  0  0  0
   26.5551  -10.9920  -16.3098 C   0  0  2  0  0  0  0  0  0  0  0  0
   27.4267  -10.6679  -17.4194 N   0  0  0  0  0  0  0  0  0  0  0  0
   25.1392  -10.7168  -16.6218 C   0  0  0  0  0  0  0  0  0  0  0  0
   24.8870   -9.7735  -17.4147 O   0  0  0  0  0  0  0  0  0  0  0  0
   17.4022  -14.2330  -15.4023 N   0  0  0  0  0  0  0  0  0  0  0  0
   17.2766  -13.7396  -16.7344 C   0  0  0  0  0  0  0  0  0  0  0  0
   16.0977  -13.4739  -17.2031 N   0  0  0  0  0  0  0  0  0  0  0  0
   18.4478  -13.5558  -17.5027 N   0  0  0  0  0  0  0  0  0  0  0  0
   19.7540  -13.7223  -16.9237 C   0  0  0  0  0  0  0  0  0  0  0  0
   20.4529  -12.4154  -16.8187 C   0  0  0  0  0  0  0  0  0  0  0  0
   21.8652  -12.4532  -16.4118 C   0  0  0  0  0  0  0  0  0  0  0  0
   22.6537  -11.1970  -16.4729 C   0  0  2  0  0  0  0  0  0  0  0  0
   24.0551  -11.4511  -16.0816 N   0  0  0  0  0  0  0  0  0  0  0  0
   22.0546  -10.1961  -15.5488 C   0  0  0  0  0  0  0  0  0  0  0  0
   22.5466  -10.0082  -14.4114 O   0  0  0  0  0  0  0  0  0  0  0  0
   16.0230  -13.1644  -18.1895 N   0  0  0  0  0  0  0  0  0  0  0  0
   20.9170   -9.4226  -15.9108 C   0  0  2  0  0  0  0  0  0  0  0  0
   20.5626   -8.2501  -15.0909 C   0  0  0  0  0  0  0  0  0  0  0  0
   21.7606   -7.3192  -15.0440 C   0  0  0  0  0  0  0  0  0  0  0  0
   21.5270   -6.0769  -14.2406 C   0  0  0  0  0  0  0  0  0  0  0  0
   22.7981   -5.2705  -14.2025 O   0  0  0  0  0  0  0  0  0  0  0  0
   23.8081   -5.6397  -14.8434 C   0  0  0  0  0  0  0  0  0  0  0  0
   19.3321   -7.6257  -15.5715 O   0  0  0  0  0  0  0  0  0  0  0  0
   18.8470   -7.6909  -16.8597 O   0  0  0  0  0  0  0  0  0  0  0  0
   22.8217   -4.1189  -13.4464 O   0  0  0  0  0  0  0  0  0  0  0  0
  2  1  1  1
  2  3  1  0
  4  5  2  0
  4  2  1  0
  6  7  1  0
  7  8  2  0
  7  9  1  0
  9 10  1  0
 10 11  1  0
 13 12  1  1
 12 11  1  0
 13 14  1  0
 14  4  1  0
 15 17  1  0
 15 13  1  0
 16 15  2  0
 18 19  1  6
 18 17  1  0
 19 20  1  0
 20 21  1  0
 21 22  2  0
 23 18  1  0
 24 23  1  0
 25 21  1  0
 26 23  2  0
M  END
$$$$
