ARE.pdb
     RDKit          3D

 26 25  0  0  1  0  0  0  0  0999 V2000
   27.8745  -19.3273  -17.3887 C   0  0  0  0  0  0  0  0  0  0  0  0
   28.0836  -20.6622  -16.7453 C   0  0  2  0  0  0  0  0  0  0  0  0
   28.3202  -21.7138  -17.7118 N   0  0  0  0  0  0  0  0  0  0  0  0
   27.0225  -21.0236  -15.7855 C   0  0  0  0  0  0  0  0  0  0  0  0
   26.0082  -21.6195  -16.2309 O   0  0  0  0  0  0  0  0  0  0  0  0
   22.8335  -20.3748   -9.3066 N   0  0  0  0  0  0  0  0  0  0  0  0
   23.7298  -21.1001   -8.4673 C   0  0  0  0  0  0  0  0  0  0  0  0
   23.2519  -21.8085   -7.4926 N   0  0  0  0  0  0  0  0  0  0  0  0
   25.1160  -21.0219   -8.7277 N   0  0  0  0  0  0  0  0  0  0  0  0
   25.6390  -20.1239   -9.7224 C   0  0  0  0  0  0  0  0  0  0  0  0
   25.2382  -20.5585  -11.0854 C   0  0  0  0  0  0  0  0  0  0  0  0
   26.2995  -20.6058  -12.1017 C   0  0  0  0  0  0  0  0  0  0  0  0
   25.9268  -20.9353  -13.5003 C   0  0  2  0  0  0  0  0  0  0  0  0
   27.0821  -20.7387  -14.3993 N   0  0  0  0  0  0  0  0  0  0  0  0
   24.8079  -20.0535  -13.9308 C   0  0  0  0  0  0  0  0  0  0  0  0
   24.9550  -18.8091  -13.9580 O   0  0  0  0  0  0  0  0  0  0  0  0
   23.9167  -22.3545   -6.9144 N   0  0  0  0  0  0  0  0  0  0  0  0
   23.5447  -20.5766  -14.3234 C   0  0  2  0  0  0  0  0  0  0  0  0
   22.5147  -19.6495  -14.8256 C   0  0  0  0  0  0  0  0  0  0  0  0
   22.3590  -19.8709  -16.3192 C   0  0  0  0  0  0  0  0  0  0  0  0
   21.3155  -19.0020  -16.9513 C   0  0  0  0  0  0  0  0  0  0  0  0
   21.2100  -19.3460  -18.4134 O   0  0  0  0  0  0  0  0  0  0  0  0
   20.7188  -20.4379  -18.7789 C   0  0  0  0  0  0  0  0  0  0  0  0
   21.2745  -19.7797  -14.0640 O   0  0  0  0  0  0  0  0  0  0  0  0
   20.2957  -18.8164  -13.9501 O   0  0  0  0  0  0  0  0  0  0  0  0
   21.6667  -18.4311  -19.3369 O   0  0  0  0  0  0  0  0  0  0  0  0
  2  1  1  6
  2  3  1  0
  4  5  2  0
  4  2  1  0
  6  7  1  0
  7  8  2  0
  7  9  1  0
  9 10  1  0
 10 11  1  0
 13 12  1  1
 12 11  1  0
 13 14  1  0
 14  4  1  0
 15 17  1  0
 15 13  1  0
 16 15  2  0
 18 19  1  6
 18 17  1  0
 19 20  1  0
 20 21  1  0
 21 22  2  0
 23 18  1  0
 24 23  1  0
 25 21  1  0
 26 23  2  0
M  END
$$$$
