ARE.pdb
     RDKit          3D

 26 25  0  0  1  0  0  0  0  0999 V2000
   37.0639  -25.9899  -15.1535 C   0  0  0  0  0  0  0  0  0  0  0  0
   35.7553  -25.2898  -14.9612 C   0  0  2  0  0  0  0  0  0  0  0  0
   35.2611  -25.3984  -13.6047 N   0  0  0  0  0  0  0  0  0  0  0  0
   34.7327  -25.6744  -15.9533 C   0  0  0  0  0  0  0  0  0  0  0  0
   33.8749  -26.5276  -15.6094 O   0  0  0  0  0  0  0  0  0  0  0  0
   29.9006  -21.3759  -21.2598 N   0  0  0  0  0  0  0  0  0  0  0  0
   30.7382  -20.6029  -20.4027 C   0  0  0  0  0  0  0  0  0  0  0  0
   30.6506  -19.3099  -20.4289 N   0  0  0  0  0  0  0  0  0  0  0  0
   31.6403  -21.2760  -19.5490 N   0  0  0  0  0  0  0  0  0  0  0  0
   32.4396  -22.3736  -20.0240 C   0  0  0  0  0  0  0  0  0  0  0  0
   32.6154  -23.3950  -18.9594 C   0  0  0  0  0  0  0  0  0  0  0  0
   33.4563  -24.5548  -19.2901 C   0  0  0  0  0  0  0  0  0  0  0  0
   33.6669  -25.5956  -18.2530 C   0  0  2  0  0  0  0  0  0  0  0  0
   34.6639  -25.1396  -17.2631 N   0  0  0  0  0  0  0  0  0  0  0  0
   34.1486  -26.8451  -18.9022 C   0  0  0  0  0  0  0  0  0  0  0  0
   35.3421  -27.2064  -18.7760 O   0  0  0  0  0  0  0  0  0  0  0  0
   31.2559  -18.7666  -19.7864 N   0  0  0  0  0  0  0  0  0  0  0  0
   33.2894  -27.6691  -19.6809 C   0  0  1  0  0  0  0  0  0  0  0  0
   33.7503  -29.0148  -20.0667 C   0  0  0  0  0  0  0  0  0  0  0  0
   34.1199  -29.7740  -18.8054 C   0  0  0  0  0  0  0  0  0  0  0  0
   34.5069  -31.1998  -19.0520 C   0  0  0  0  0  0  0  0  0  0  0  0
   34.8282  -31.8560  -17.7354 O   0  0  0  0  0  0  0  0  0  0  0  0
   35.9649  -32.3345  -17.5208 C   0  0  0  0  0  0  0  0  0  0  0  0
   32.7625  -29.6873  -20.9077 O   0  0  0  0  0  0  0  0  0  0  0  0
   32.9919  -30.8043  -21.6814 O   0  0  0  0  0  0  0  0  0  0  0  0
   33.8421  -31.9166  -16.7751 O   0  0  0  0  0  0  0  0  0  0  0  0
  2  1  1  1
  2  3  1  0
  4  5  2  0
  4  2  1  0
  6  7  1  0
  7  8  2  0
  7  9  1  0
  9 10  1  0
 10 11  1  0
 13 12  1  6
 12 11  1  0
 13 14  1  0
 14  4  1  0
 15 17  1  0
 15 13  1  0
 16 15  2  0
 18 19  1  6
 18 17  1  0
 19 20  1  0
 20 21  1  0
 21 22  2  0
 23 18  1  0
 24 23  1  0
 25 21  1  0
 26 23  2  0
M  END
$$$$
