ARE.pdb
     RDKit          3D

 26 25  0  0  1  0  0  0  0  0999 V2000
   23.7525  -23.3648  -16.0664 C   0  0  0  0  0  0  0  0  0  0  0  0
   23.2333  -24.5993  -15.3986 C   0  0  2  0  0  0  0  0  0  0  0  0
   23.5236  -25.8018  -16.1509 N   0  0  0  0  0  0  0  0  0  0  0  0
   21.8074  -24.5108  -15.0287 C   0  0  0  0  0  0  0  0  0  0  0  0
   20.9547  -24.7131  -15.9310 O   0  0  0  0  0  0  0  0  0  0  0  0
   17.9371  -25.7868   -7.2704 N   0  0  0  0  0  0  0  0  0  0  0  0
   18.2859  -26.7296   -8.2819 C   0  0  0  0  0  0  0  0  0  0  0  0
   18.4592  -27.9724   -7.9571 N   0  0  0  0  0  0  0  0  0  0  0  0
   18.4318  -26.2750   -9.6115 N   0  0  0  0  0  0  0  0  0  0  0  0
   18.2261  -24.8932   -9.9545 C   0  0  0  0  0  0  0  0  0  0  0  0
   18.3615  -24.6898  -11.4200 C   0  0  0  0  0  0  0  0  0  0  0  0
   19.7298  -24.5938  -11.9493 C   0  0  0  0  0  0  0  0  0  0  0  0
   19.9140  -24.2045  -13.3698 C   0  0  2  0  0  0  0  0  0  0  0  0
   21.3484  -24.2125  -13.7224 N   0  0  0  0  0  0  0  0  0  0  0  0
   19.3593  -22.8398  -13.5808 C   0  0  0  0  0  0  0  0  0  0  0  0
   19.9508  -21.8360  -13.1188 O   0  0  0  0  0  0  0  0  0  0  0  0
   18.7007  -28.6442   -8.7086 N   0  0  0  0  0  0  0  0  0  0  0  0
   18.1540  -22.6199  -14.3037 C   0  0  1  0  0  0  0  0  0  0  0  0
   17.6625  -21.2399  -14.4662 C   0  0  0  0  0  0  0  0  0  0  0  0
   17.6873  -20.8940  -15.9439 C   0  0  0  0  0  0  0  0  0  0  0  0
   17.0918  -19.5564  -16.2595 C   0  0  0  0  0  0  0  0  0  0  0  0
   17.0921  -19.3587  -17.7523 O   0  0  0  0  0  0  0  0  0  0  0  0
   18.1551  -19.1049  -18.3628 C   0  0  0  0  0  0  0  0  0  0  0  0
   16.3592  -21.0680  -13.8283 O   0  0  0  0  0  0  0  0  0  0  0  0
   15.3710  -22.0249  -13.7472 O   0  0  0  0  0  0  0  0  0  0  0  0
   15.8958  -19.4640  -18.4278 O   0  0  0  0  0  0  0  0  0  0  0  0
  2  1  1  6
  2  3  1  0
  4  5  2  0
  4  2  1  0
  6  7  1  0
  7  8  2  0
  7  9  1  0
  9 10  1  0
 10 11  1  0
 13 12  1  1
 12 11  1  0
 13 14  1  0
 14  4  1  0
 15 17  1  0
 15 13  1  0
 16 15  2  0
 18 19  1  1
 18 17  1  0
 19 20  1  0
 20 21  1  0
 21 22  2  0
 23 18  1  0
 24 23  1  0
 25 21  1  0
 26 23  2  0
M  END
$$$$
