ARE.pdb
     RDKit          3D

 26 25  0  0  1  0  0  0  0  0999 V2000
   26.9819  -16.4433  -17.0338 C   0  0  0  0  0  0  0  0  0  0  0  0
   27.5487  -17.8142  -16.8362 C   0  0  2  0  0  0  0  0  0  0  0  0
   28.0734  -18.3804  -18.0611 N   0  0  0  0  0  0  0  0  0  0  0  0
   26.6234  -18.7388  -16.1531 C   0  0  0  0  0  0  0  0  0  0  0  0
   25.8387  -19.4151  -16.8664 O   0  0  0  0  0  0  0  0  0  0  0  0
   25.6866  -22.0539   -7.9809 N   0  0  0  0  0  0  0  0  0  0  0  0
   25.9165  -20.6976   -8.3569 C   0  0  0  0  0  0  0  0  0  0  0  0
   26.0285  -19.7945   -7.4339 N   0  0  0  0  0  0  0  0  0  0  0  0
   26.0151  -20.3820   -9.7303 N   0  0  0  0  0  0  0  0  0  0  0  0
   24.8748  -20.4786  -10.6020 C   0  0  0  0  0  0  0  0  0  0  0  0
   25.2618  -21.0676  -11.9100 C   0  0  0  0  0  0  0  0  0  0  0  0
   26.1295  -20.2504  -12.7707 C   0  0  0  0  0  0  0  0  0  0  0  0
   25.6133  -19.8230  -14.0952 C   0  0  2  0  0  0  0  0  0  0  0  0
   26.5701  -18.9061  -14.7476 N   0  0  0  0  0  0  0  0  0  0  0  0
   24.3085  -19.1307  -13.9134 C   0  0  0  0  0  0  0  0  0  0  0  0
   24.2071  -18.1664  -13.1193 O   0  0  0  0  0  0  0  0  0  0  0  0
   26.2207  -18.8188   -7.7264 N   0  0  0  0  0  0  0  0  0  0  0  0
   23.1402  -19.5272  -14.6214 C   0  0  1  0  0  0  0  0  0  0  0  0
   21.8593  -18.8689  -14.3077 C   0  0  0  0  0  0  0  0  0  0  0  0
   21.1606  -18.5348  -15.6131 C   0  0  0  0  0  0  0  0  0  0  0  0
   21.1479  -19.6650  -16.5959 C   0  0  0  0  0  0  0  0  0  0  0  0
   21.4073  -19.1193  -17.9751 O   0  0  0  0  0  0  0  0  0  0  0  0
   22.0694  -19.7781  -18.8086 C   0  0  0  0  0  0  0  0  0  0  0  0
   21.0638  -19.6789  -13.3879 O   0  0  0  0  0  0  0  0  0  0  0  0
   19.9081  -19.2758  -12.7547 O   0  0  0  0  0  0  0  0  0  0  0  0
   20.8988  -17.8796  -18.2961 O   0  0  0  0  0  0  0  0  0  0  0  0
  2  1  1  6
  2  3  1  0
  4  5  2  0
  4  2  1  0
  6  7  1  0
  7  8  2  0
  7  9  1  0
  9 10  1  0
 10 11  1  0
 13 12  1  1
 12 11  1  0
 13 14  1  0
 14  4  1  0
 15 17  1  0
 15 13  1  0
 16 15  2  0
 18 19  1  6
 18 17  1  0
 19 20  1  0
 20 21  1  0
 21 22  2  0
 23 18  1  0
 24 23  1  0
 25 21  1  0
 26 23  2  0
M  END
$$$$
