ARE.pdb
     RDKit          3D

 26 25  0  0  1  0  0  0  0  0999 V2000
   25.2427  -25.5728  -15.7449 C   0  0  0  0  0  0  0  0  0  0  0  0
   25.4416  -24.2693  -16.4524 C   0  0  2  0  0  0  0  0  0  0  0  0
   26.8388  -23.9085  -16.5700 N   0  0  0  0  0  0  0  0  0  0  0  0
   24.6328  -23.1688  -15.8933 C   0  0  0  0  0  0  0  0  0  0  0  0
   23.3866  -23.3287  -15.8359 O   0  0  0  0  0  0  0  0  0  0  0  0
   24.4639  -20.2664   -9.9740 N   0  0  0  0  0  0  0  0  0  0  0  0
   25.8400  -20.4776   -9.6651 C   0  0  0  0  0  0  0  0  0  0  0  0
   26.1637  -20.9395   -8.4981 N   0  0  0  0  0  0  0  0  0  0  0  0
   26.8096  -20.1748  -10.6468 N   0  0  0  0  0  0  0  0  0  0  0  0
   26.4431  -19.5521  -11.8907 C   0  0  0  0  0  0  0  0  0  0  0  0
   25.5069  -20.4162  -12.6550 C   0  0  0  0  0  0  0  0  0  0  0  0
   25.1549  -19.9699  -14.0110 C   0  0  0  0  0  0  0  0  0  0  0  0
   24.3386  -20.8702  -14.8634 C   0  0  2  0  0  0  0  0  0  0  0  0
   25.1783  -21.9500  -15.4208 N   0  0  0  0  0  0  0  0  0  0  0  0
   23.7399  -20.0836  -15.9758 C   0  0  0  0  0  0  0  0  0  0  0  0
   24.3164  -20.0149  -17.0865 O   0  0  0  0  0  0  0  0  0  0  0  0
   27.1709  -21.0442   -8.2768 N   0  0  0  0  0  0  0  0  0  0  0  0
   22.5081  -19.3874  -15.8283 C   0  0  1  0  0  0  0  0  0  0  0  0
   21.7466  -19.0234  -17.0366 C   0  0  0  0  0  0  0  0  0  0  0  0
   21.5556  -20.2731  -17.8766 C   0  0  0  0  0  0  0  0  0  0  0  0
   20.7935  -20.0364  -19.1441 C   0  0  0  0  0  0  0  0  0  0  0  0
   20.6314  -21.3450  -19.8712 O   0  0  0  0  0  0  0  0  0  0  0  0
   21.1969  -22.3813  -19.4549 C   0  0  0  0  0  0  0  0  0  0  0  0
   20.5055  -18.3355  -16.6879 O   0  0  0  0  0  0  0  0  0  0  0  0
   19.8177  -17.4577  -17.4974 O   0  0  0  0  0  0  0  0  0  0  0  0
   19.8468  -21.3731  -21.0035 O   0  0  0  0  0  0  0  0  0  0  0  0
  2  1  1  1
  2  3  1  0
  4  5  2  0
  4  2  1  0
  6  7  1  0
  7  8  2  0
  7  9  1  0
  9 10  1  0
 10 11  1  0
 13 12  1  1
 12 11  1  0
 13 14  1  0
 14  4  1  0
 15 17  1  0
 15 13  1  0
 16 15  2  0
 18 19  1  6
 18 17  1  0
 19 20  1  0
 20 21  1  0
 21 22  2  0
 23 18  1  0
 24 23  1  0
 25 21  1  0
 26 23  2  0
M  END
$$$$
