ARE.pdb
     RDKit          3D

 26 25  0  0  1  0  0  0  0  0999 V2000
   27.8667  -21.1696  -19.6096 C   0  0  0  0  0  0  0  0  0  0  0  0
   27.1400  -20.0467  -18.9384 C   0  0  2  0  0  0  0  0  0  0  0  0
   27.9611  -18.8635  -18.7902 N   0  0  0  0  0  0  0  0  0  0  0  0
   26.5017  -20.4380  -17.6666 C   0  0  0  0  0  0  0  0  0  0  0  0
   25.5512  -21.2602  -17.7172 O   0  0  0  0  0  0  0  0  0  0  0  0
   26.7065  -20.6823   -9.3463 N   0  0  0  0  0  0  0  0  0  0  0  0
   25.3653  -20.9107   -9.7738 C   0  0  0  0  0  0  0  0  0  0  0  0
   24.3917  -20.7038   -8.9434 N   0  0  0  0  0  0  0  0  0  0  0  0
   25.1414  -21.3572  -11.0952 N   0  0  0  0  0  0  0  0  0  0  0  0
   26.1999  -21.3666  -12.0693 C   0  0  0  0  0  0  0  0  0  0  0  0
   26.4015  -20.0094  -12.6393 C   0  0  0  0  0  0  0  0  0  0  0  0
   27.0177  -19.9385  -13.9723 C   0  0  0  0  0  0  0  0  0  0  0  0
   26.1974  -20.3097  -15.1524 C   0  0  2  0  0  0  0  0  0  0  0  0
   26.8973  -19.9424  -16.4001 N   0  0  0  0  0  0  0  0  0  0  0  0
   24.8928  -19.5965  -15.0874 C   0  0  0  0  0  0  0  0  0  0  0  0
   24.8421  -18.3522  -15.2290 O   0  0  0  0  0  0  0  0  0  0  0  0
   23.4219  -20.8285   -9.2874 N   0  0  0  0  0  0  0  0  0  0  0  0
   23.6680  -20.2850  -14.8654 C   0  0  2  0  0  0  0  0  0  0  0  0
   22.4124  -19.5137  -14.8359 C   0  0  0  0  0  0  0  0  0  0  0  0
   22.0272  -19.1717  -16.2637 C   0  0  0  0  0  0  0  0  0  0  0  0
   20.5487  -19.0721  -16.4813 C   0  0  0  0  0  0  0  0  0  0  0  0
   20.2687  -19.0771  -17.9608 O   0  0  0  0  0  0  0  0  0  0  0  0
   20.8652  -19.8729  -18.7210 C   0  0  0  0  0  0  0  0  0  0  0  0
   21.3782  -20.2223  -14.0854 O   0  0  0  0  0  0  0  0  0  0  0  0
   20.2271  -19.6613  -13.5761 O   0  0  0  0  0  0  0  0  0  0  0  0
   19.3416  -18.1860  -18.4557 O   0  0  0  0  0  0  0  0  0  0  0  0
  2  1  1  1
  2  3  1  0
  4  5  2  0
  4  2  1  0
  6  7  1  0
  7  8  2  0
  7  9  1  0
  9 10  1  0
 10 11  1  0
 13 12  1  1
 12 11  1  0
 13 14  1  0
 14  4  1  0
 15 17  1  0
 15 13  1  0
 16 15  2  0
 18 19  1  6
 18 17  1  0
 19 20  1  0
 20 21  1  0
 21 22  2  0
 23 18  1  0
 24 23  1  0
 25 21  1  0
 26 23  2  0
M  END
$$$$
