GPE.pdb
     RDKit          3D

 21 21  0  0  1  0  0  0  0  0999 V2000
    6.7580  -14.9498   21.6244 N   0  0  0  0  0  0  0  0  0  0  0  0
    6.3014  -14.4009   22.8449 C   0  0  0  0  0  0  0  0  0  0  0  0
    7.3166  -14.0293   23.8354 C   0  0  0  0  0  0  0  0  0  0  0  0
    8.5385  -14.3618   23.5825 O   0  0  0  0  0  0  0  0  0  0  0  0
    7.1127  -13.3398   25.0541 N   0  0  0  0  0  0  0  0  0  0  0  0
    5.8825  -12.7910   25.5813 C   0  0  0  0  0  0  0  0  0  0  0  0
    6.4022  -11.5381   26.3107 C   0  0  0  0  0  0  0  0  0  0  0  0
    7.6136  -12.0898   27.0095 C   0  0  0  0  0  0  0  0  0  0  0  0
    8.1727  -13.0547   26.0133 C   0  0  1  0  0  0  0  0  0  0  0  0
    8.6781  -14.2987   26.6439 C   0  0  0  0  0  0  0  0  0  0  0  0
    7.8619  -15.2357   26.8337 O   0  0  0  0  0  0  0  0  0  0  0  0
   10.0133  -14.5068   27.0466 N   0  0  0  0  0  0  0  0  0  0  0  0
   10.4720  -15.7921   27.6484 C   0  0  1  0  0  0  0  0  0  0  0  0
   11.7290  -16.1475   26.9469 C   0  0  0  0  0  0  0  0  0  0  0  0
   11.7094  -16.2107   25.4622 C   0  0  0  0  0  0  0  0  0  0  0  0
   13.0367  -16.4210   24.8949 C   0  0  0  0  0  0  0  0  0  0  0  0
   14.0409  -16.3497   25.6618 O   0  0  0  0  0  0  0  0  0  0  0  0
   10.4160  -15.7501   29.0844 C   0  0  0  0  0  0  0  0  0  0  0  0
   10.5427  -16.8589   29.9173 O   0  0  0  0  0  0  0  0  0  0  0  0
   13.2169  -16.7018   23.5343 O   0  0  0  0  0  0  0  0  0  0  0  0
   10.2325  -14.6555   29.7202 O   0  0  0  0  0  0  0  0  0  0  0  0
  1  2  1  0
  2  3  1  0
  3  4  2  0
  5  9  1  0
  5  3  1  0
  6  5  1  0
  7  6  1  0
  7  8  1  0
  8  9  1  0
 10 12  1  0
  9 10  1  1
 11 10  2  0
 13 12  1  0
 13 14  1  1
 14 15  1  0
 16 15  1  0
 16 20  1  0
 17 16  2  0
 18 13  1  0
 19 18  1  0
 21 18  2  0
M  END
$$$$
