GPE.pdb
     RDKit          3D

 21 21  0  0  1  0  0  0  0  0999 V2000
    5.7528  -13.7320   26.8021 N   0  0  0  0  0  0  0  0  0  0  0  0
    6.4212  -13.2432   25.6558 C   0  0  0  0  0  0  0  0  0  0  0  0
    7.0647  -14.2294   24.7823 C   0  0  0  0  0  0  0  0  0  0  0  0
    7.2108  -15.4250   25.2479 O   0  0  0  0  0  0  0  0  0  0  0  0
    7.5525  -14.0228   23.4701 N   0  0  0  0  0  0  0  0  0  0  0  0
    7.4424  -12.8389   22.6464 C   0  0  0  0  0  0  0  0  0  0  0  0
    7.3097  -13.4613   21.2440 C   0  0  0  0  0  0  0  0  0  0  0  0
    8.3673  -14.5286   21.2982 C   0  0  0  0  0  0  0  0  0  0  0  0
    8.2733  -15.0315   22.7033 C   0  0  1  0  0  0  0  0  0  0  0  0
    9.6019  -15.3144   23.2993 C   0  0  0  0  0  0  0  0  0  0  0  0
   10.2463  -14.3503   23.7847 O   0  0  0  0  0  0  0  0  0  0  0  0
   10.1960  -16.5916   23.3613 N   0  0  0  0  0  0  0  0  0  0  0  0
   11.5993  -16.7951   23.8237 C   0  0  1  0  0  0  0  0  0  0  0  0
   11.5248  -17.7599   24.9471 C   0  0  0  0  0  0  0  0  0  0  0  0
   10.5562  -17.4885   26.0412 C   0  0  0  0  0  0  0  0  0  0  0  0
   10.6354  -18.4738   27.1138 C   0  0  0  0  0  0  0  0  0  0  0  0
   11.3353  -18.2039   28.1330 O   0  0  0  0  0  0  0  0  0  0  0  0
   12.4904  -17.0190   22.7178 C   0  0  0  0  0  0  0  0  0  0  0  0
   12.0889  -17.3835   21.4351 O   0  0  0  0  0  0  0  0  0  0  0  0
    9.9549  -19.6960   27.0390 O   0  0  0  0  0  0  0  0  0  0  0  0
   13.7583  -16.9023   22.8394 O   0  0  0  0  0  0  0  0  0  0  0  0
  1  2  1  0
  2  3  1  0
  3  4  2  0
  5  9  1  0
  5  3  1  0
  6  5  1  0
  7  6  1  0
  7  8  1  0
  8  9  1  0
 10 12  1  0
  9 10  1  1
 11 10  2  0
 13 12  1  0
 13 14  1  1
 14 15  1  0
 16 15  1  0
 16 20  1  0
 17 16  2  0
 18 13  1  0
 19 18  1  0
 21 18  2  0
M  END
$$$$
