GPE.pdb
     RDKit          3D

 21 21  0  0  1  0  0  0  0  0999 V2000
    6.9853  -14.2956   21.4258 N   0  0  0  0  0  0  0  0  0  0  0  0
    6.4489  -14.0909   22.7180 C   0  0  0  0  0  0  0  0  0  0  0  0
    7.3974  -13.8265   23.8045 C   0  0  0  0  0  0  0  0  0  0  0  0
    8.6477  -14.0406   23.5626 O   0  0  0  0  0  0  0  0  0  0  0  0
    7.1004  -13.3581   25.1063 N   0  0  0  0  0  0  0  0  0  0  0  0
    5.8143  -12.9918   25.6579 C   0  0  0  0  0  0  0  0  0  0  0  0
    6.2097  -11.8378   26.5980 C   0  0  0  0  0  0  0  0  0  0  0  0
    7.4375  -12.4051   27.2545 C   0  0  0  0  0  0  0  0  0  0  0  0
    8.1029  -13.1544   26.1447 C   0  0  1  0  0  0  0  0  0  0  0  0
    8.6840  -14.4435   26.5933 C   0  0  0  0  0  0  0  0  0  0  0  0
    7.9023  -15.4124   26.7675 O   0  0  0  0  0  0  0  0  0  0  0  0
   10.0553  -14.6611   26.8388 N   0  0  0  0  0  0  0  0  0  0  0  0
   10.5629  -15.9179   27.4613 C   0  0  1  0  0  0  0  0  0  0  0  0
   11.7445  -16.3228   26.6623 C   0  0  0  0  0  0  0  0  0  0  0  0
   11.6363  -16.2823   25.1807 C   0  0  0  0  0  0  0  0  0  0  0  0
   12.9377  -16.3369   24.5243 C   0  0  0  0  0  0  0  0  0  0  0  0
   13.9795  -16.2965   25.2416 O   0  0  0  0  0  0  0  0  0  0  0  0
   10.6455  -15.8003   28.8918 C   0  0  0  0  0  0  0  0  0  0  0  0
   10.4953  -14.6114   29.6013 O   0  0  0  0  0  0  0  0  0  0  0  0
   13.0534  -16.4371   23.1317 O   0  0  0  0  0  0  0  0  0  0  0  0
   10.8779  -16.8120   29.6391 O   0  0  0  0  0  0  0  0  0  0  0  0
  1  2  1  0
  2  3  1  0
  3  4  2  0
  5  9  1  0
  5  3  1  0
  6  5  1  0
  7  6  1  0
  7  8  1  0
  8  9  1  0
 10 12  1  0
  9 10  1  1
 11 10  2  0
 13 12  1  0
 13 14  1  6
 14 15  1  0
 16 15  1  0
 16 20  1  0
 17 16  2  0
 18 13  1  0
 19 18  1  0
 21 18  2  0
M  END
$$$$
