GPE.pdb
     RDKit          3D

 21 21  0  0  1  0  0  0  0  0999 V2000
    9.3230  -15.9352   15.8189 N   0  0  0  0  0  0  0  0  0  0  0  0
    8.4967  -15.8403   16.9625 C   0  0  0  0  0  0  0  0  0  0  0  0
    9.0877  -15.2581   18.1714 C   0  0  0  0  0  0  0  0  0  0  0  0
   10.3265  -15.5307   18.4138 O   0  0  0  0  0  0  0  0  0  0  0  0
    8.4517  -14.4208   19.1184 N   0  0  0  0  0  0  0  0  0  0  0  0
    7.0910  -13.9302   19.1136 C   0  0  0  0  0  0  0  0  0  0  0  0
    7.2732  -12.5364   19.7428 C   0  0  0  0  0  0  0  0  0  0  0  0
    8.2028  -12.8508   20.8819 C   0  0  0  0  0  0  0  0  0  0  0  0
    9.1109  -13.8893   20.3050 C   0  0  1  0  0  0  0  0  0  0  0  0
    9.4331  -14.9676   21.2714 C   0  0  0  0  0  0  0  0  0  0  0  0
    8.7172  -16.0008   21.2603 O   0  0  0  0  0  0  0  0  0  0  0  0
   10.4887  -14.9170   22.2048 N   0  0  0  0  0  0  0  0  0  0  0  0
   10.7511  -16.0231   23.1703 C   0  0  1  0  0  0  0  0  0  0  0  0
   12.2254  -16.1663   23.2387 C   0  0  0  0  0  0  0  0  0  0  0  0
   13.0170  -15.8568   22.0196 C   0  0  0  0  0  0  0  0  0  0  0  0
   14.4502  -15.7996   22.2844 C   0  0  0  0  0  0  0  0  0  0  0  0
   14.8497  -15.9104   23.4800 O   0  0  0  0  0  0  0  0  0  0  0  0
    9.9690  -15.8731   24.3673 C   0  0  0  0  0  0  0  0  0  0  0  0
    9.8148  -16.8539   25.3438 O   0  0  0  0  0  0  0  0  0  0  0  0
   15.3811  -15.6310   21.2511 O   0  0  0  0  0  0  0  0  0  0  0  0
    9.3318  -14.7945   24.6256 O   0  0  0  0  0  0  0  0  0  0  0  0
  1  2  1  0
  2  3  1  0
  3  4  2  0
  5  9  1  0
  5  3  1  0
  6  5  1  0
  7  6  1  0
  7  8  1  0
  8  9  1  0
 10 12  1  0
  9 10  1  1
 11 10  2  0
 13 12  1  0
 13 14  1  1
 14 15  1  0
 16 15  1  0
 16 20  1  0
 17 16  2  0
 18 13  1  0
 19 18  1  0
 21 18  2  0
M  END
$$$$
