GPE.pdb
     RDKit          3D

 21 21  0  0  1  0  0  0  0  0999 V2000
    7.6937  -17.2522   16.5746 N   0  0  0  0  0  0  0  0  0  0  0  0
    7.1941  -16.4350   17.6149 C   0  0  0  0  0  0  0  0  0  0  0  0
    8.1740  -15.8267   18.5203 C   0  0  0  0  0  0  0  0  0  0  0  0
    9.3635  -16.3294   18.5277 O   0  0  0  0  0  0  0  0  0  0  0  0
    7.9673  -14.7381   19.4003 N   0  0  0  0  0  0  0  0  0  0  0  0
    6.8024  -13.8892   19.5218 C   0  0  0  0  0  0  0  0  0  0  0  0
    7.4520  -12.5382   19.8745 C   0  0  0  0  0  0  0  0  0  0  0  0
    8.4716  -12.9632   20.8944 C   0  0  0  0  0  0  0  0  0  0  0  0
    8.9559  -14.2758   20.3668 C   0  0  1  0  0  0  0  0  0  0  0  0
    9.1716  -15.2783   21.4388 C   0  0  0  0  0  0  0  0  0  0  0  0
    8.2008  -16.0059   21.7680 O   0  0  0  0  0  0  0  0  0  0  0  0
   10.3919  -15.4748   22.1172 N   0  0  0  0  0  0  0  0  0  0  0  0
   10.5814  -16.5682   23.1139 C   0  0  1  0  0  0  0  0  0  0  0  0
   11.8071  -17.2925   22.6996 C   0  0  0  0  0  0  0  0  0  0  0  0
   12.2492  -18.4493   23.5211 C   0  0  0  0  0  0  0  0  0  0  0  0
   13.4669  -19.0661   23.0069 C   0  0  0  0  0  0  0  0  0  0  0  0
   14.0014  -18.5771   21.9693 O   0  0  0  0  0  0  0  0  0  0  0  0
   10.4301  -16.0853   24.4596 C   0  0  0  0  0  0  0  0  0  0  0  0
   10.0829  -16.8750   25.5528 O   0  0  0  0  0  0  0  0  0  0  0  0
   14.0505  -20.1734   23.6362 O   0  0  0  0  0  0  0  0  0  0  0  0
   10.6024  -14.8533   24.7571 O   0  0  0  0  0  0  0  0  0  0  0  0
  1  2  1  0
  2  3  1  0
  3  4  2  0
  5  9  1  0
  5  3  1  0
  6  5  1  0
  7  6  1  0
  7  8  1  0
  8  9  1  0
 10 12  1  0
  9 10  1  1
 11 10  2  0
 13 12  1  0
 13 14  1  1
 14 15  1  0
 16 15  1  0
 16 20  1  0
 17 16  2  0
 18 13  1  0
 19 18  1  0
 21 18  2  0
M  END
$$$$
