GPE.pdb
     RDKit          3D

 21 21  0  0  1  0  0  0  0  0999 V2000
    5.9000  -17.2223   21.9290 N   0  0  0  0  0  0  0  0  0  0  0  0
    6.2546  -15.8846   21.6383 C   0  0  0  0  0  0  0  0  0  0  0  0
    7.4886  -15.6675   20.8768 C   0  0  0  0  0  0  0  0  0  0  0  0
    8.2656  -16.6851   20.7080 O   0  0  0  0  0  0  0  0  0  0  0  0
    7.9358  -14.4568   20.2968 N   0  0  0  0  0  0  0  0  0  0  0  0
    7.2356  -13.1949   20.1985 C   0  0  0  0  0  0  0  0  0  0  0  0
    7.7479  -12.6732   18.8431 C   0  0  0  0  0  0  0  0  0  0  0  0
    9.2160  -12.9792   18.9497 C   0  0  0  0  0  0  0  0  0  0  0  0
    9.2403  -14.2906   19.6677 C   0  0  1  0  0  0  0  0  0  0  0  0
   10.3348  -14.3759   20.6655 C   0  0  0  0  0  0  0  0  0  0  0  0
   10.1381  -13.8699   21.7993 O   0  0  0  0  0  0  0  0  0  0  0  0
   11.5843  -14.9863   20.4329 N   0  0  0  0  0  0  0  0  0  0  0  0
   12.6576  -15.0222   21.4679 C   0  0  1  0  0  0  0  0  0  0  0  0
   12.1626  -15.9179   22.5408 C   0  0  0  0  0  0  0  0  0  0  0  0
   12.0195  -17.3652   22.2353 C   0  0  0  0  0  0  0  0  0  0  0  0
   11.6737  -18.1528   23.4134 C   0  0  0  0  0  0  0  0  0  0  0  0
   12.4789  -18.1671   24.3895 O   0  0  0  0  0  0  0  0  0  0  0  0
   13.9521  -15.2261   20.8765 C   0  0  0  0  0  0  0  0  0  0  0  0
   15.1618  -15.1315   21.5600 O   0  0  0  0  0  0  0  0  0  0  0  0
   10.4787  -18.8806   23.4844 O   0  0  0  0  0  0  0  0  0  0  0  0
   14.0897  -15.5114   19.6373 O   0  0  0  0  0  0  0  0  0  0  0  0
  1  2  1  0
  2  3  1  0
  3  4  2  0
  5  9  1  0
  5  3  1  0
  6  5  1  0
  7  6  1  0
  7  8  1  0
  8  9  1  0
 10 12  1  0
  9 10  1  1
 11 10  2  0
 13 12  1  0
 13 14  1  1
 14 15  1  0
 16 15  1  0
 16 20  1  0
 17 16  2  0
 18 13  1  0
 19 18  1  0
 21 18  2  0
M  END
$$$$
