GPE.pdb
     RDKit          3D

 21 21  0  0  1  0  0  0  0  0999 V2000
    8.6203  -16.3806   15.6316 N   0  0  0  0  0  0  0  0  0  0  0  0
    7.9466  -15.8749   16.7673 C   0  0  0  0  0  0  0  0  0  0  0  0
    8.7716  -15.3265   17.8484 C   0  0  0  0  0  0  0  0  0  0  0  0
    9.9552  -15.8209   17.9974 O   0  0  0  0  0  0  0  0  0  0  0  0
    8.4186  -14.3049   18.7617 N   0  0  0  0  0  0  0  0  0  0  0  0
    7.1794  -13.5636   18.8461 C   0  0  0  0  0  0  0  0  0  0  0  0
    7.6872  -12.1826   19.3007 C   0  0  0  0  0  0  0  0  0  0  0  0
    8.6763  -12.5720   20.3639 C   0  0  0  0  0  0  0  0  0  0  0  0
    9.3033  -13.8112   19.8098 C   0  0  1  0  0  0  0  0  0  0  0  0
    9.5400  -14.8451   20.8469 C   0  0  0  0  0  0  0  0  0  0  0  0
    8.6450  -15.7082   21.0323 O   0  0  0  0  0  0  0  0  0  0  0  0
   10.7010  -14.9299   21.6425 N   0  0  0  0  0  0  0  0  0  0  0  0
   10.9457  -16.0682   22.5747 C   0  0  1  0  0  0  0  0  0  0  0  0
   12.3849  -16.4008   22.4464 C   0  0  0  0  0  0  0  0  0  0  0  0
   13.3683  -15.5470   23.1623 C   0  0  0  0  0  0  0  0  0  0  0  0
   14.7481  -15.9069   22.8550 C   0  0  0  0  0  0  0  0  0  0  0  0
   14.9631  -16.9443   22.1630 O   0  0  0  0  0  0  0  0  0  0  0  0
   10.3568  -15.8281   23.8641 C   0  0  0  0  0  0  0  0  0  0  0  0
   10.2179  -16.7863   24.8650 O   0  0  0  0  0  0  0  0  0  0  0  0
   15.8256  -15.1314   23.3025 O   0  0  0  0  0  0  0  0  0  0  0  0
    9.8967  -14.6806   24.1920 O   0  0  0  0  0  0  0  0  0  0  0  0
  1  2  1  0
  2  3  1  0
  3  4  2  0
  5  9  1  0
  5  3  1  0
  6  5  1  0
  7  6  1  0
  7  8  1  0
  8  9  1  0
 10 12  1  0
  9 10  1  1
 11 10  2  0
 13 12  1  0
 13 14  1  1
 14 15  1  0
 16 15  1  0
 16 20  1  0
 17 16  2  0
 18 13  1  0
 19 18  1  0
 21 18  2  0
M  END
$$$$
