GPE.pdb
     RDKit          3D

 21 21  0  0  1  0  0  0  0  0999 V2000
    6.9423  -14.5303   21.4195 N   0  0  0  0  0  0  0  0  0  0  0  0
    6.3639  -13.9997   22.5958 C   0  0  0  0  0  0  0  0  0  0  0  0
    7.2526  -13.7817   23.7415 C   0  0  0  0  0  0  0  0  0  0  0  0
    8.4803  -14.1625   23.6179 O   0  0  0  0  0  0  0  0  0  0  0  0
    6.9190  -13.1952   24.9853 N   0  0  0  0  0  0  0  0  0  0  0  0
    5.6486  -12.6486   25.4093 C   0  0  0  0  0  0  0  0  0  0  0  0
    6.1082  -11.4857   26.3082 C   0  0  0  0  0  0  0  0  0  0  0  0
    7.2091  -12.1427   27.0936 C   0  0  0  0  0  0  0  0  0  0  0  0
    7.8602  -13.0365   26.0870 C   0  0  1  0  0  0  0  0  0  0  0  0
    8.2504  -14.3496   26.6562 C   0  0  0  0  0  0  0  0  0  0  0  0
    7.3711  -15.2452   26.7262 O   0  0  0  0  0  0  0  0  0  0  0  0
    9.5416  -14.6669   27.1256 N   0  0  0  0  0  0  0  0  0  0  0  0
    9.8704  -15.9981   27.7123 C   0  0  1  0  0  0  0  0  0  0  0  0
   10.5280  -16.7712   26.6314 C   0  0  0  0  0  0  0  0  0  0  0  0
   11.5149  -16.0706   25.7690 C   0  0  0  0  0  0  0  0  0  0  0  0
   12.6193  -16.9353   25.3686 C   0  0  0  0  0  0  0  0  0  0  0  0
   13.5082  -16.4651   24.6003 O   0  0  0  0  0  0  0  0  0  0  0  0
   10.4876  -15.8657   29.0041 C   0  0  0  0  0  0  0  0  0  0  0  0
   10.8465  -16.9309   29.8261 O   0  0  0  0  0  0  0  0  0  0  0  0
   12.7149  -18.2588   25.8177 O   0  0  0  0  0  0  0  0  0  0  0  0
   10.7533  -14.7214   29.5101 O   0  0  0  0  0  0  0  0  0  0  0  0
  1  2  1  0
  2  3  1  0
  3  4  2  0
  5  9  1  0
  5  3  1  0
  6  5  1  0
  7  6  1  0
  7  8  1  0
  8  9  1  0
 10 12  1  0
  9 10  1  1
 11 10  2  0
 13 12  1  0
 13 14  1  6
 14 15  1  0
 16 15  1  0
 16 20  1  0
 17 16  2  0
 18 13  1  0
 19 18  1  0
 21 18  2  0
M  END
$$$$
