GPE.pdb
     RDKit          3D

 21 21  0  0  1  0  0  0  0  0999 V2000
    7.7264  -13.4212   20.8492 N   0  0  0  0  0  0  0  0  0  0  0  0
    6.9023  -13.5286   21.9933 C   0  0  0  0  0  0  0  0  0  0  0  0
    7.5703  -13.6419   23.2936 C   0  0  0  0  0  0  0  0  0  0  0  0
    8.8026  -14.0280   23.2932 O   0  0  0  0  0  0  0  0  0  0  0  0
    7.0160  -13.3748   24.5678 N   0  0  0  0  0  0  0  0  0  0  0  0
    5.6896  -12.8948   24.8883 C   0  0  0  0  0  0  0  0  0  0  0  0
    5.9779  -12.0205   26.1229 C   0  0  0  0  0  0  0  0  0  0  0  0
    6.9177  -12.9059   26.8932 C   0  0  0  0  0  0  0  0  0  0  0  0
    7.7411  -13.5448   25.8209 C   0  0  1  0  0  0  0  0  0  0  0  0
    8.0214  -14.9761   26.0918 C   0  0  0  0  0  0  0  0  0  0  0  0
    7.2697  -15.8333   25.5624 O   0  0  0  0  0  0  0  0  0  0  0  0
    9.0746  -15.4460   26.9030 N   0  0  0  0  0  0  0  0  0  0  0  0
    9.2869  -16.8981   27.1697 C   0  0  1  0  0  0  0  0  0  0  0  0
   10.3644  -16.9749   28.1854 C   0  0  0  0  0  0  0  0  0  0  0  0
   10.7009  -18.3074   28.7510 C   0  0  0  0  0  0  0  0  0  0  0  0
   11.2835  -18.2165   30.0851 C   0  0  0  0  0  0  0  0  0  0  0  0
   11.4389  -17.0714   30.6009 O   0  0  0  0  0  0  0  0  0  0  0  0
    8.0391  -17.5848   27.3656 C   0  0  0  0  0  0  0  0  0  0  0  0
    6.9276  -17.0455   28.0083 O   0  0  0  0  0  0  0  0  0  0  0  0
   11.6648  -19.3602   30.7986 O   0  0  0  0  0  0  0  0  0  0  0  0
    7.8575  -18.7828   26.9559 O   0  0  0  0  0  0  0  0  0  0  0  0
  1  2  1  0
  2  3  1  0
  3  4  2  0
  5  9  1  0
  5  3  1  0
  6  5  1  0
  7  6  1  0
  7  8  1  0
  8  9  1  0
 10 12  1  0
  9 10  1  1
 11 10  2  0
 13 12  1  0
 13 14  1  1
 14 15  1  0
 16 15  1  0
 16 20  1  0
 17 16  2  0
 18 13  1  0
 19 18  1  0
 21 18  2  0
M  END
$$$$
