GPE.pdb
     RDKit          3D

 21 21  0  0  1  0  0  0  0  0999 V2000
    4.8809  -17.8425   22.1803 N   0  0  0  0  0  0  0  0  0  0  0  0
    5.2878  -16.5384   21.8150 C   0  0  0  0  0  0  0  0  0  0  0  0
    6.6856  -16.3600   21.4100 C   0  0  0  0  0  0  0  0  0  0  0  0
    7.4411  -17.4073   21.4168 O   0  0  0  0  0  0  0  0  0  0  0  0
    7.3143  -15.1580   21.0071 N   0  0  0  0  0  0  0  0  0  0  0  0
    6.7266  -13.8458   20.8485 C   0  0  0  0  0  0  0  0  0  0  0  0
    7.5353  -13.2977   19.6579 C   0  0  0  0  0  0  0  0  0  0  0  0
    8.9295  -13.7131   20.0375 C   0  0  0  0  0  0  0  0  0  0  0  0
    8.7273  -15.0559   20.6636 C   0  0  1  0  0  0  0  0  0  0  0  0
    9.5880  -15.2674   21.8531 C   0  0  0  0  0  0  0  0  0  0  0  0
    9.2878  -14.6601   22.9120 O   0  0  0  0  0  0  0  0  0  0  0  0
   10.7225  -16.1042   21.8818 N   0  0  0  0  0  0  0  0  0  0  0  0
   11.5670  -16.2586   23.1014 C   0  0  1  0  0  0  0  0  0  0  0  0
   11.0768  -17.4782   23.7876 C   0  0  0  0  0  0  0  0  0  0  0  0
   11.7823  -17.9217   25.0182 C   0  0  0  0  0  0  0  0  0  0  0  0
   11.1950  -19.1259   25.5949 C   0  0  0  0  0  0  0  0  0  0  0  0
   10.1916  -19.6434   25.0233 O   0  0  0  0  0  0  0  0  0  0  0  0
   12.9628  -16.0937   22.7990 C   0  0  0  0  0  0  0  0  0  0  0  0
   13.9515  -15.8125   23.7386 O   0  0  0  0  0  0  0  0  0  0  0  0
   11.7186  -19.7151   26.7531 O   0  0  0  0  0  0  0  0  0  0  0  0
   13.4097  -16.1897   21.6044 O   0  0  0  0  0  0  0  0  0  0  0  0
  1  2  1  0
  2  3  1  0
  3  4  2  0
  5  9  1  0
  5  3  1  0
  6  5  1  0
  7  6  1  0
  7  8  1  0
  8  9  1  0
 10 12  1  0
  9 10  1  1
 11 10  2  0
 13 12  1  0
 13 14  1  6
 14 15  1  0
 16 15  1  0
 16 20  1  0
 17 16  2  0
 18 13  1  0
 19 18  1  0
 21 18  2  0
M  END
$$$$
