GPE.pdb
     RDKit          3D

 21 21  0  0  1  0  0  0  0  0999 V2000
    6.6119  -14.4914   21.5452 N   0  0  0  0  0  0  0  0  0  0  0  0
    6.1420  -14.1593   22.8369 C   0  0  0  0  0  0  0  0  0  0  0  0
    7.1483  -13.8739   23.8646 C   0  0  0  0  0  0  0  0  0  0  0  0
    8.3807  -14.1224   23.5699 O   0  0  0  0  0  0  0  0  0  0  0  0
    6.9252  -13.3513   25.1604 N   0  0  0  0  0  0  0  0  0  0  0  0
    5.6682  -12.9971   25.7826 C   0  0  0  0  0  0  0  0  0  0  0  0
    6.0880  -11.7869   26.6376 C   0  0  0  0  0  0  0  0  0  0  0  0
    7.3760  -12.2841   27.2328 C   0  0  0  0  0  0  0  0  0  0  0  0
    7.9889  -13.0667   26.1157 C   0  0  1  0  0  0  0  0  0  0  0  0
    8.6420  -14.3141   26.5828 C   0  0  0  0  0  0  0  0  0  0  0  0
    7.9373  -15.3518   26.6653 O   0  0  0  0  0  0  0  0  0  0  0  0
   10.0014  -14.4200   26.9416 N   0  0  0  0  0  0  0  0  0  0  0  0
   10.6430  -15.7303   27.2517 C   0  0  1  0  0  0  0  0  0  0  0  0
   11.8395  -15.8172   26.3802 C   0  0  0  0  0  0  0  0  0  0  0  0
   12.7368  -16.9915   26.5364 C   0  0  0  0  0  0  0  0  0  0  0  0
   13.9260  -16.9008   25.6968 C   0  0  0  0  0  0  0  0  0  0  0  0
   14.1180  -15.8415   25.0316 O   0  0  0  0  0  0  0  0  0  0  0  0
   10.7472  -15.9424   28.6698 C   0  0  0  0  0  0  0  0  0  0  0  0
   10.9829  -17.1750   29.2737 O   0  0  0  0  0  0  0  0  0  0  0  0
   14.8505  -17.9505   25.6184 O   0  0  0  0  0  0  0  0  0  0  0  0
   10.6195  -14.9831   29.5062 O   0  0  0  0  0  0  0  0  0  0  0  0
  1  2  1  0
  2  3  1  0
  3  4  2  0
  5  9  1  0
  5  3  1  0
  6  5  1  0
  7  6  1  0
  7  8  1  0
  8  9  1  0
 10 12  1  0
  9 10  1  1
 11 10  2  0
 13 12  1  0
 13 14  1  6
 14 15  1  0
 16 15  1  0
 16 20  1  0
 17 16  2  0
 18 13  1  0
 19 18  1  0
 21 18  2  0
M  END
$$$$
