GPE.pdb
     RDKit          3D

 21 21  0  0  1  0  0  0  0  0999 V2000
    8.5793  -17.3874   16.9748 N   0  0  0  0  0  0  0  0  0  0  0  0
    7.8159  -16.7714   17.9932 C   0  0  0  0  0  0  0  0  0  0  0  0
    8.5495  -16.0635   19.0471 C   0  0  0  0  0  0  0  0  0  0  0  0
    9.8254  -16.2530   19.1083 O   0  0  0  0  0  0  0  0  0  0  0  0
    8.0167  -15.1849   20.0200 N   0  0  0  0  0  0  0  0  0  0  0  0
    6.6421  -14.7732   20.2026 C   0  0  0  0  0  0  0  0  0  0  0  0
    6.8259  -13.3225   20.6858 C   0  0  0  0  0  0  0  0  0  0  0  0
    7.9451  -13.4856   21.6764 C   0  0  0  0  0  0  0  0  0  0  0  0
    8.8188  -14.5174   21.0379 C   0  0  1  0  0  0  0  0  0  0  0  0
    9.3650  -15.4891   22.0167 C   0  0  0  0  0  0  0  0  0  0  0  0
    8.7248  -16.5538   22.2088 O   0  0  0  0  0  0  0  0  0  0  0  0
   10.5553  -15.3040   22.7496 N   0  0  0  0  0  0  0  0  0  0  0  0
   11.1713  -16.3966   23.5566 C   0  0  1  0  0  0  0  0  0  0  0  0
   12.6162  -16.3871   23.2240 C   0  0  0  0  0  0  0  0  0  0  0  0
   13.5039  -17.3491   23.9275 C   0  0  0  0  0  0  0  0  0  0  0  0
   14.9094  -17.1670   23.5822 C   0  0  0  0  0  0  0  0  0  0  0  0
   15.4525  -17.9983   22.7977 O   0  0  0  0  0  0  0  0  0  0  0  0
   10.7295  -16.3539   24.9240 C   0  0  0  0  0  0  0  0  0  0  0  0
   10.7788  -17.4280   25.8089 O   0  0  0  0  0  0  0  0  0  0  0  0
   15.6579  -16.0988   24.0933 O   0  0  0  0  0  0  0  0  0  0  0  0
   10.2365  -15.2925   25.4403 O   0  0  0  0  0  0  0  0  0  0  0  0
  1  2  1  0
  2  3  1  0
  3  4  2  0
  5  9  1  0
  5  3  1  0
  6  5  1  0
  7  6  1  0
  7  8  1  0
  8  9  1  0
 10 12  1  0
  9 10  1  1
 11 10  2  0
 13 12  1  0
 13 14  1  1
 14 15  1  0
 16 15  1  0
 16 20  1  0
 17 16  2  0
 18 13  1  0
 19 18  1  0
 21 18  2  0
M  END
$$$$
