GPE.pdb
     RDKit          3D

 21 21  0  0  1  0  0  0  0  0999 V2000
    5.3312  -17.9470   19.5079 N   0  0  0  0  0  0  0  0  0  0  0  0
    5.6222  -16.6861   20.0780 C   0  0  0  0  0  0  0  0  0  0  0  0
    7.0241  -16.2562   20.0768 C   0  0  0  0  0  0  0  0  0  0  0  0
    7.9227  -17.1714   19.9272 O   0  0  0  0  0  0  0  0  0  0  0  0
    7.5160  -14.9375   20.2229 N   0  0  0  0  0  0  0  0  0  0  0  0
    6.7685  -13.7183   20.4402 C   0  0  0  0  0  0  0  0  0  0  0  0
    7.6215  -12.7012   19.6594 C   0  0  0  0  0  0  0  0  0  0  0  0
    9.0080  -13.0958   20.0865 C   0  0  0  0  0  0  0  0  0  0  0  0
    8.9298  -14.5869   20.1652 C   0  0  1  0  0  0  0  0  0  0  0  0
    9.6697  -15.1377   21.3270 C   0  0  0  0  0  0  0  0  0  0  0  0
    9.0882  -15.1528   22.4414 O   0  0  0  0  0  0  0  0  0  0  0  0
   10.9830  -15.6478   21.2710 N   0  0  0  0  0  0  0  0  0  0  0  0
   11.6351  -16.2979   22.4443 C   0  0  1  0  0  0  0  0  0  0  0  0
   11.3680  -17.7501   22.3091 C   0  0  0  0  0  0  0  0  0  0  0  0
   11.9470  -18.6671   23.3253 C   0  0  0  0  0  0  0  0  0  0  0  0
   11.7197  -20.0715   23.0038 C   0  0  0  0  0  0  0  0  0  0  0  0
   10.5487  -20.5370   23.1193 O   0  0  0  0  0  0  0  0  0  0  0  0
   12.9731  -15.8097   22.6398 C   0  0  0  0  0  0  0  0  0  0  0  0
   13.7407  -15.1820   21.6620 O   0  0  0  0  0  0  0  0  0  0  0  0
   12.7608  -20.9027   22.5702 O   0  0  0  0  0  0  0  0  0  0  0  0
   13.5766  -15.9276   23.7614 O   0  0  0  0  0  0  0  0  0  0  0  0
  1  2  1  0
  2  3  1  0
  3  4  2  0
  5  9  1  0
  5  3  1  0
  6  5  1  0
  7  6  1  0
  7  8  1  0
  8  9  1  0
 10 12  1  0
  9 10  1  1
 11 10  2  0
 13 12  1  0
 13 14  1  6
 14 15  1  0
 16 15  1  0
 16 20  1  0
 17 16  2  0
 18 13  1  0
 19 18  1  0
 21 18  2  0
M  END
$$$$
