ESF.pdb
     RDKit          3D

 27 27  0  0  1  0  0  0  0  0999 V2000
   27.2657  -19.6034  -17.3536 N   0  0  0  0  0  0  0  0  0  0  0  0
   26.7020  -20.8549  -16.8582 C   0  0  1  0  0  0  0  0  0  0  0  0
   27.4440  -21.1595  -15.5773 C   0  0  0  0  0  0  0  0  0  0  0  0
   28.8260  -21.6898  -15.7745 C   0  0  0  0  0  0  0  0  0  0  0  0
   28.9136  -22.8365  -16.6995 C   0  0  0  0  0  0  0  0  0  0  0  0
   28.1960  -23.8491  -16.5510 O   0  0  0  0  0  0  0  0  0  0  0  0
   25.2671  -20.5885  -16.5059 C   0  0  0  0  0  0  0  0  0  0  0  0
   24.9121  -19.4627  -16.0740 O   0  0  0  0  0  0  0  0  0  0  0  0
   29.8093  -22.7884  -17.7526 O   0  0  0  0  0  0  0  0  0  0  0  0
   22.2036  -23.4615  -17.0156 O   0  0  0  0  0  0  0  0  0  0  0  0
   21.9039  -22.1002  -17.0655 C   0  0  0  0  0  0  0  0  0  0  0  0
   22.9097  -21.2777  -16.2683 C   0  0  2  0  0  0  0  0  0  0  0  0
   24.2712  -21.5886  -16.6469 N   0  0  0  0  0  0  0  0  0  0  0  0
   22.7046  -21.5446  -14.8094 C   0  0  0  0  0  0  0  0  0  0  0  0
   23.2427  -22.5258  -14.2363 O   0  0  0  0  0  0  0  0  0  0  0  0
   21.8917  -20.7015  -14.0032 N   0  0  0  0  0  0  0  0  0  0  0  0
   21.6473  -21.0207  -12.5904 C   0  0  1  0  0  0  0  0  0  0  0  0
   22.3392  -19.9263  -11.8118 C   0  0  0  0  0  0  0  0  0  0  0  0
   23.7591  -20.2411  -11.5992 C   0  0  0  0  0  0  0  0  0  0  0  0
   24.1633  -20.8203  -10.4205 C   0  0  0  0  0  0  0  0  0  0  0  0
   25.5093  -21.1261  -10.2090 C   0  0  0  0  0  0  0  0  0  0  0  0
   26.4247  -20.8378  -11.2007 C   0  0  0  0  0  0  0  0  0  0  0  0
   26.0081  -20.2517  -12.3906 C   0  0  0  0  0  0  0  0  0  0  0  0
   24.6805  -19.9496  -12.6003 C   0  0  0  0  0  0  0  0  0  0  0  0
   20.2094  -21.1252  -12.3412 C   0  0  0  0  0  0  0  0  0  0  0  0
   19.2601  -20.8359  -13.3095 O   0  0  0  0  0  0  0  0  0  0  0  0
   19.8051  -21.4900  -11.2089 O   0  0  0  0  0  0  0  0  0  0  0  0
  2  1  1  1
  2  7  1  0
  3  2  1  0
  4  3  1  0
  4  5  1  0
  5  6  2  0
  5  9  1  0
  7  8  2  0
  7 13  1  0
 10 11  1  0
 12 14  1  0
 12 11  1  6
 13 12  1  0
 14 15  2  0
 16 17  1  0
 16 14  1  0
 17 18  1  1
 18 19  1  0
 19 20  2  0
 20 21  1  0
 22 21  2  0
 23 22  1  0
 24 23  2  0
 24 19  1  0
 25 26  1  0
 25 17  1  0
 27 25  2  0
M  END
$$$$
