ESF.pdb
     RDKit          3D

 27 27  0  0  1  0  0  0  0  0999 V2000
   22.8129  -11.3545  -19.2211 N   0  0  0  0  0  0  0  0  0  0  0  0
   21.7441  -10.4946  -19.7189 C   0  0  1  0  0  0  0  0  0  0  0  0
   20.4895  -10.9478  -19.0083 C   0  0  0  0  0  0  0  0  0  0  0  0
   19.9646  -12.2697  -19.4631 C   0  0  0  0  0  0  0  0  0  0  0  0
   20.2717  -13.3932  -18.5566 C   0  0  0  0  0  0  0  0  0  0  0  0
   20.8051  -14.4423  -18.9774 O   0  0  0  0  0  0  0  0  0  0  0  0
   22.0495   -9.0965  -19.2653 C   0  0  0  0  0  0  0  0  0  0  0  0
   23.1113   -8.8429  -18.6421 O   0  0  0  0  0  0  0  0  0  0  0  0
   19.9623  -13.2814  -17.2130 O   0  0  0  0  0  0  0  0  0  0  0  0
   19.5167   -5.8384  -20.1362 O   0  0  0  0  0  0  0  0  0  0  0  0
   20.8971   -5.6447  -20.0860 C   0  0  0  0  0  0  0  0  0  0  0  0
   21.5731   -6.6765  -19.1903 C   0  0  2  0  0  0  0  0  0  0  0  0
   21.1590   -8.0227  -19.5219 N   0  0  0  0  0  0  0  0  0  0  0  0
   21.2407   -6.3697  -17.7630 C   0  0  0  0  0  0  0  0  0  0  0  0
   20.2147   -6.8398  -17.2090 O   0  0  0  0  0  0  0  0  0  0  0  0
   22.0692   -5.5325  -16.9668 N   0  0  0  0  0  0  0  0  0  0  0  0
   21.7158   -5.2317  -15.5732 C   0  0  1  0  0  0  0  0  0  0  0  0
   22.9663   -5.5209  -14.7762 C   0  0  0  0  0  0  0  0  0  0  0  0
   23.2805   -6.9568  -14.7822 C   0  0  0  0  0  0  0  0  0  0  0  0
   22.5733   -7.8162  -13.9762 C   0  0  0  0  0  0  0  0  0  0  0  0
   22.8616   -9.1825  -13.9761 C   0  0  0  0  0  0  0  0  0  0  0  0
   23.8659   -9.6544  -14.7965 C   0  0  0  0  0  0  0  0  0  0  0  0
   24.5771   -8.7788  -15.6091 C   0  0  0  0  0  0  0  0  0  0  0  0
   24.2935   -7.4307  -15.6102 C   0  0  0  0  0  0  0  0  0  0  0  0
   21.2328   -3.8550  -15.4641 C   0  0  0  0  0  0  0  0  0  0  0  0
   21.1565   -3.0011  -16.5539 O   0  0  0  0  0  0  0  0  0  0  0  0
   20.8702   -3.4161  -14.3440 O   0  0  0  0  0  0  0  0  0  0  0  0
  2  1  1  1
  2  7  1  0
  3  2  1  0
  4  3  1  0
  4  5  1  0
  5  6  2  0
  5  9  1  0
  7  8  2  0
  7 13  1  0
 10 11  1  0
 12 14  1  0
 12 11  1  6
 13 12  1  0
 14 15  2  0
 16 17  1  0
 16 14  1  0
 17 18  1  1
 18 19  1  0
 19 20  2  0
 20 21  1  0
 22 21  2  0
 23 22  1  0
 24 23  2  0
 24 19  1  0
 25 26  1  0
 25 17  1  0
 27 25  2  0
M  END
$$$$
