ESF.pdb
     RDKit          3D

 27 27  0  0  1  0  0  0  0  0999 V2000
   34.0755    3.6177   -8.9757 N   0  0  0  0  0  0  0  0  0  0  0  0
   33.0085    4.5941   -9.1698 C   0  0  1  0  0  0  0  0  0  0  0  0
   32.5697    4.4406  -10.6079 C   0  0  0  0  0  0  0  0  0  0  0  0
   33.1563    5.4454  -11.5439 C   0  0  0  0  0  0  0  0  0  0  0  0
   32.6487    5.3603  -12.9272 C   0  0  0  0  0  0  0  0  0  0  0  0
   33.4266    5.2901  -13.9030 O   0  0  0  0  0  0  0  0  0  0  0  0
   31.8621    4.1813   -8.2929 C   0  0  0  0  0  0  0  0  0  0  0  0
   31.2032    3.1416   -8.5473 O   0  0  0  0  0  0  0  0  0  0  0  0
   31.2830    5.3583  -13.1469 O   0  0  0  0  0  0  0  0  0  0  0  0
   30.3941    6.5969   -5.1556 O   0  0  0  0  0  0  0  0  0  0  0  0
   30.3062    5.2117   -5.0175 C   0  0  0  0  0  0  0  0  0  0  0  0
   30.3500    4.5120   -6.3710 C   0  0  2  0  0  0  0  0  0  0  0  0
   31.4858    4.9432   -7.1571 N   0  0  0  0  0  0  0  0  0  0  0  0
   29.0757    4.7965   -7.1039 C   0  0  0  0  0  0  0  0  0  0  0  0
   29.0237    5.6423   -8.0325 O   0  0  0  0  0  0  0  0  0  0  0  0
   27.8645    4.1238   -6.7844 N   0  0  0  0  0  0  0  0  0  0  0  0
   26.6171    4.4464   -7.4896 C   0  0  1  0  0  0  0  0  0  0  0  0
   26.4621    3.3659   -8.5343 C   0  0  0  0  0  0  0  0  0  0  0  0
   26.1071    2.0789   -7.9195 C   0  0  0  0  0  0  0  0  0  0  0  0
   25.7200    2.0326   -6.6018 C   0  0  0  0  0  0  0  0  0  0  0  0
   25.3779    0.8157   -6.0085 C   0  0  0  0  0  0  0  0  0  0  0  0
   25.4351   -0.3369   -6.7652 C   0  0  0  0  0  0  0  0  0  0  0  0
   25.8279   -0.2822   -8.0977 C   0  0  0  0  0  0  0  0  0  0  0  0
   26.1655    0.9178   -8.6841 C   0  0  0  0  0  0  0  0  0  0  0  0
   25.5099    4.5314   -6.5371 C   0  0  0  0  0  0  0  0  0  0  0  0
   24.2091    4.8124   -6.9264 O   0  0  0  0  0  0  0  0  0  0  0  0
   25.7328    4.3453   -5.3147 O   0  0  0  0  0  0  0  0  0  0  0  0
  2  1  1  6
  2  7  1  0
  3  2  1  0
  4  3  1  0
  4  5  1  0
  5  6  2  0
  5  9  1  0
  7  8  2  0
  7 13  1  0
 10 11  1  0
 12 14  1  0
 12 11  1  1
 13 12  1  0
 14 15  2  0
 16 17  1  0
 16 14  1  0
 17 18  1  6
 18 19  1  0
 19 20  2  0
 20 21  1  0
 22 21  2  0
 23 22  1  0
 24 23  2  0
 24 19  1  0
 25 26  1  0
 25 17  1  0
 27 25  2  0
M  END
$$$$
