ESF.pdb
     RDKit          3D

 27 27  0  0  1  0  0  0  0  0999 V2000
   24.5437  -17.2355  -15.1401 N   0  0  0  0  0  0  0  0  0  0  0  0
   25.7434  -17.9178  -14.6663 C   0  0  1  0  0  0  0  0  0  0  0  0
   26.5917  -16.8497  -14.0152 C   0  0  0  0  0  0  0  0  0  0  0  0
   27.4698  -16.0966  -14.9596 C   0  0  0  0  0  0  0  0  0  0  0  0
   28.1125  -16.9315  -15.9931 C   0  0  0  0  0  0  0  0  0  0  0  0
   27.5796  -17.1110  -17.1093 O   0  0  0  0  0  0  0  0  0  0  0  0
   25.3154  -18.8802  -13.5965 C   0  0  0  0  0  0  0  0  0  0  0  0
   24.3166  -18.6327  -12.8747 O   0  0  0  0  0  0  0  0  0  0  0  0
   29.3306  -17.5272  -15.7194 O   0  0  0  0  0  0  0  0  0  0  0  0
   25.3198  -23.2845  -11.6629 O   0  0  0  0  0  0  0  0  0  0  0  0
   25.7603  -22.4378  -12.6800 C   0  0  0  0  0  0  0  0  0  0  0  0
   25.5618  -20.9721  -12.3111 C   0  0  2  0  0  0  0  0  0  0  0  0
   26.0167  -20.0912  -13.3651 N   0  0  0  0  0  0  0  0  0  0  0  0
   26.3047  -20.6879  -11.0427 C   0  0  0  0  0  0  0  0  0  0  0  0
   27.5475  -20.4985  -11.0344 O   0  0  0  0  0  0  0  0  0  0  0  0
   25.6401  -20.6186   -9.7877 N   0  0  0  0  0  0  0  0  0  0  0  0
   26.3701  -20.8604   -8.5363 C   0  0  1  0  0  0  0  0  0  0  0  0
   27.2866  -19.6699   -8.3762 C   0  0  0  0  0  0  0  0  0  0  0  0
   28.0086  -19.7229   -7.0970 C   0  0  0  0  0  0  0  0  0  0  0  0
   27.6984  -18.8320   -6.0978 C   0  0  0  0  0  0  0  0  0  0  0  0
   28.3761  -18.8752   -4.8777 C   0  0  0  0  0  0  0  0  0  0  0  0
   29.3602  -19.8247   -4.6922 C   0  0  0  0  0  0  0  0  0  0  0  0
   29.6685  -20.7226   -5.7079 C   0  0  0  0  0  0  0  0  0  0  0  0
   29.0005  -20.6810   -6.9120 C   0  0  0  0  0  0  0  0  0  0  0  0
   25.4271  -21.0514   -7.4342 C   0  0  0  0  0  0  0  0  0  0  0  0
   25.7987  -21.6103   -6.2209 O   0  0  0  0  0  0  0  0  0  0  0  0
   24.2296  -20.7000   -7.5798 O   0  0  0  0  0  0  0  0  0  0  0  0
  2  1  1  1
  2  7  1  0
  3  2  1  0
  4  3  1  0
  4  5  1  0
  5  6  2  0
  5  9  1  0
  7  8  2  0
  7 13  1  0
 10 11  1  0
 12 14  1  0
 12 11  1  6
 13 12  1  0
 14 15  2  0
 16 17  1  0
 16 14  1  0
 17 18  1  1
 18 19  1  0
 19 20  2  0
 20 21  1  0
 22 21  2  0
 23 22  1  0
 24 23  2  0
 24 19  1  0
 25 26  1  0
 25 17  1  0
 27 25  2  0
M  END
$$$$
