ESF.pdb
     RDKit          3D

 27 27  0  0  1  0  0  0  0  0999 V2000
   16.5972   -7.2268  -21.6322 N   0  0  0  0  0  0  0  0  0  0  0  0
   15.8635   -6.8546  -20.4270 C   0  0  1  0  0  0  0  0  0  0  0  0
   15.5662   -8.1522  -19.7115 C   0  0  0  0  0  0  0  0  0  0  0  0
   14.4714   -8.9605  -20.3263 C   0  0  0  0  0  0  0  0  0  0  0  0
   14.1172  -10.1804  -19.5746 C   0  0  0  0  0  0  0  0  0  0  0  0
   13.2079  -10.9442  -19.9643 O   0  0  0  0  0  0  0  0  0  0  0  0
   16.7989   -6.0580  -19.5643 C   0  0  0  0  0  0  0  0  0  0  0  0
   18.0111   -5.9384  -19.8745 O   0  0  0  0  0  0  0  0  0  0  0  0
   14.8071  -10.4834  -18.4145 O   0  0  0  0  0  0  0  0  0  0  0  0
   17.5776   -2.7881  -16.1089 O   0  0  0  0  0  0  0  0  0  0  0  0
   16.6488   -3.5146  -16.8539 C   0  0  0  0  0  0  0  0  0  0  0  0
   17.3064   -4.6830  -17.5791 C   0  0  2  0  0  0  0  0  0  0  0  0
   16.3516   -5.4183  -18.3799 N   0  0  0  0  0  0  0  0  0  0  0  0
   17.9374   -5.5874  -16.5663 C   0  0  0  0  0  0  0  0  0  0  0  0
   17.2869   -6.5058  -16.0060 O   0  0  0  0  0  0  0  0  0  0  0  0
   19.3018   -5.4505  -16.1903 N   0  0  0  0  0  0  0  0  0  0  0  0
   19.8789   -6.2939  -15.1353 C   0  0  1  0  0  0  0  0  0  0  0  0
   21.2766   -6.6185  -15.6082 C   0  0  0  0  0  0  0  0  0  0  0  0
   21.9752   -7.4845  -14.6478 C   0  0  0  0  0  0  0  0  0  0  0  0
   22.0558   -8.8370  -14.8774 C   0  0  0  0  0  0  0  0  0  0  0  0
   22.7195   -9.6685  -13.9730 C   0  0  0  0  0  0  0  0  0  0  0  0
   23.2916   -9.1114  -12.8476 C   0  0  0  0  0  0  0  0  0  0  0  0
   23.2058   -7.7422  -12.6220 C   0  0  0  0  0  0  0  0  0  0  0  0
   22.5514   -6.9208  -13.5136 C   0  0  0  0  0  0  0  0  0  0  0  0
   19.8206   -5.5988  -13.8493 C   0  0  0  0  0  0  0  0  0  0  0  0
   20.0085   -4.2302  -13.7302 O   0  0  0  0  0  0  0  0  0  0  0  0
   19.5926   -6.2563  -12.8032 O   0  0  0  0  0  0  0  0  0  0  0  0
  2  1  1  6
  2  7  1  0
  3  2  1  0
  4  3  1  0
  4  5  1  0
  5  6  2  0
  5  9  1  0
  7  8  2  0
  7 13  1  0
 10 11  1  0
 12 14  1  0
 12 11  1  1
 13 12  1  0
 14 15  2  0
 16 17  1  0
 16 14  1  0
 17 18  1  6
 18 19  1  0
 19 20  2  0
 20 21  1  0
 22 21  2  0
 23 22  1  0
 24 23  2  0
 24 19  1  0
 25 26  1  0
 25 17  1  0
 27 25  2  0
M  END
$$$$
