ESF.pdb
     RDKit          3D

 27 27  0  0  1  0  0  0  0  0999 V2000
   18.8002  -12.6975  -15.9926 N   0  0  0  0  0  0  0  0  0  0  0  0
   19.6940  -11.9212  -16.8458 C   0  0  1  0  0  0  0  0  0  0  0  0
   18.7949  -11.0895  -17.7313 C   0  0  0  0  0  0  0  0  0  0  0  0
   17.7510  -10.3134  -16.9977 C   0  0  0  0  0  0  0  0  0  0  0  0
   16.9254   -9.4397  -17.8541 C   0  0  0  0  0  0  0  0  0  0  0  0
   15.7920   -9.7935  -18.2445 O   0  0  0  0  0  0  0  0  0  0  0  0
   20.4567  -10.9836  -15.9553 C   0  0  0  0  0  0  0  0  0  0  0  0
   19.8559  -10.2668  -15.1155 O   0  0  0  0  0  0  0  0  0  0  0  0
   17.4177   -8.2034  -18.2319 O   0  0  0  0  0  0  0  0  0  0  0  0
   24.5372  -10.1611  -16.5443 O   0  0  0  0  0  0  0  0  0  0  0  0
   24.0497  -10.0598  -15.2414 C   0  0  0  0  0  0  0  0  0  0  0  0
   22.5367   -9.8752  -15.2243 C   0  0  2  0  0  0  0  0  0  0  0  0
   21.8690  -10.8748  -16.0298 N   0  0  0  0  0  0  0  0  0  0  0  0
   22.2112   -8.5032  -15.7278 C   0  0  0  0  0  0  0  0  0  0  0  0
   21.8209   -8.3087  -16.9069 O   0  0  0  0  0  0  0  0  0  0  0  0
   22.3282   -7.3557  -14.8965 N   0  0  0  0  0  0  0  0  0  0  0  0
   22.0863   -6.0104  -15.4342 C   0  0  1  0  0  0  0  0  0  0  0  0
   20.6558   -6.0295  -15.9200 C   0  0  0  0  0  0  0  0  0  0  0  0
   20.2391   -4.7039  -16.3991 C   0  0  0  0  0  0  0  0  0  0  0  0
   21.1675   -3.8489  -16.9425 C   0  0  0  0  0  0  0  0  0  0  0  0
   20.7822   -2.5883  -17.4034 C   0  0  0  0  0  0  0  0  0  0  0  0
   19.4570   -2.2161  -17.3043 C   0  0  0  0  0  0  0  0  0  0  0  0
   18.5235   -3.0866  -16.7532 C   0  0  0  0  0  0  0  0  0  0  0  0
   18.9025   -4.3305  -16.2983 C   0  0  0  0  0  0  0  0  0  0  0  0
   22.3649   -5.0033  -14.4102 C   0  0  0  0  0  0  0  0  0  0  0  0
   22.9311   -3.7727  -14.7067 O   0  0  0  0  0  0  0  0  0  0  0  0
   22.0854   -5.2505  -13.2104 O   0  0  0  0  0  0  0  0  0  0  0  0
  2  1  1  1
  2  7  1  0
  3  2  1  0
  4  3  1  0
  4  5  1  0
  5  6  2  0
  5  9  1  0
  7  8  2  0
  7 13  1  0
 10 11  1  0
 12 14  1  0
 12 11  1  6
 13 12  1  0
 14 15  2  0
 16 17  1  0
 16 14  1  0
 17 18  1  1
 18 19  1  0
 19 20  2  0
 20 21  1  0
 22 21  2  0
 23 22  1  0
 24 23  2  0
 24 19  1  0
 25 26  1  0
 25 17  1  0
 27 25  2  0
M  END
$$$$
