ESF.pdb
     RDKit          3D

 27 27  0  0  1  0  0  0  0  0999 V2000
   18.0891  -11.3444  -15.7718 N   0  0  0  0  0  0  0  0  0  0  0  0
   18.4276   -9.9312  -15.6385 C   0  0  1  0  0  0  0  0  0  0  0  0
   17.2340   -9.1722  -16.1710 C   0  0  0  0  0  0  0  0  0  0  0  0
   17.2855   -8.8880  -17.6361 C   0  0  0  0  0  0  0  0  0  0  0  0
   17.9742   -7.6316  -17.9904 C   0  0  0  0  0  0  0  0  0  0  0  0
   17.5978   -6.9327  -18.9558 O   0  0  0  0  0  0  0  0  0  0  0  0
   18.5417   -9.6370  -14.1708 C   0  0  0  0  0  0  0  0  0  0  0  0
   18.0638  -10.4291  -13.3198 O   0  0  0  0  0  0  0  0  0  0  0  0
   19.0590   -7.2200  -17.2371 O   0  0  0  0  0  0  0  0  0  0  0  0
   20.2830   -6.0714  -12.5865 O   0  0  0  0  0  0  0  0  0  0  0  0
   20.3875   -7.2850  -11.9070 C   0  0  0  0  0  0  0  0  0  0  0  0
   19.2470   -8.2285  -12.2713 C   0  0  2  0  0  0  0  0  0  0  0  0
   19.1868   -8.4658  -13.6974 N   0  0  0  0  0  0  0  0  0  0  0  0
   17.9581   -7.6376  -11.7903 C   0  0  0  0  0  0  0  0  0  0  0  0
   17.2330   -6.9369  -12.5412 O   0  0  0  0  0  0  0  0  0  0  0  0
   17.4933   -7.8408  -10.4621 N   0  0  0  0  0  0  0  0  0  0  0  0
   16.2547   -7.2051   -9.9938 C   0  0  1  0  0  0  0  0  0  0  0  0
   15.7917   -8.0498   -8.8298 C   0  0  0  0  0  0  0  0  0  0  0  0
   14.5087   -7.5670   -8.2995 C   0  0  0  0  0  0  0  0  0  0  0  0
   13.3307   -7.9853   -8.8699 C   0  0  0  0  0  0  0  0  0  0  0  0
   12.1061   -7.5351   -8.3723 C   0  0  0  0  0  0  0  0  0  0  0  0
   12.0983   -6.6652   -7.3011 C   0  0  0  0  0  0  0  0  0  0  0  0
   13.2943   -6.2463   -6.7293 C   0  0  0  0  0  0  0  0  0  0  0  0
   14.5031   -6.6899   -7.2193 C   0  0  0  0  0  0  0  0  0  0  0  0
   16.5050   -5.8022   -9.6625 C   0  0  0  0  0  0  0  0  0  0  0  0
   15.5970   -4.7936   -9.9467 O   0  0  0  0  0  0  0  0  0  0  0  0
   17.5819   -5.4849   -9.0983 O   0  0  0  0  0  0  0  0  0  0  0  0
  2  1  1  1
  2  7  1  0
  3  2  1  0
  4  3  1  0
  4  5  1  0
  5  6  2  0
  5  9  1  0
  7  8  2  0
  7 13  1  0
 10 11  1  0
 12 14  1  0
 12 11  1  6
 13 12  1  0
 14 15  2  0
 16 17  1  0
 16 14  1  0
 17 18  1  1
 18 19  1  0
 19 20  2  0
 20 21  1  0
 22 21  2  0
 23 22  1  0
 24 23  2  0
 24 19  1  0
 25 26  1  0
 25 17  1  0
 27 25  2  0
M  END
$$$$
