ESF.pdb
     RDKit          3D

 27 27  0  0  1  0  0  0  0  0999 V2000
   25.7147  -23.0569  -16.4085 N   0  0  0  0  0  0  0  0  0  0  0  0
   25.0101  -23.2538  -15.1459 C   0  0  1  0  0  0  0  0  0  0  0  0
   25.3342  -24.6647  -14.7118 C   0  0  0  0  0  0  0  0  0  0  0  0
   25.2535  -25.6812  -15.8028 C   0  0  0  0  0  0  0  0  0  0  0  0
   23.9403  -25.7552  -16.4723 C   0  0  0  0  0  0  0  0  0  0  0  0
   23.8232  -25.5535  -17.7002 O   0  0  0  0  0  0  0  0  0  0  0  0
   25.6180  -22.3140  -14.1453 C   0  0  0  0  0  0  0  0  0  0  0  0
   26.7762  -21.8571  -14.3172 O   0  0  0  0  0  0  0  0  0  0  0  0
   22.8161  -26.0543  -15.7238 O   0  0  0  0  0  0  0  0  0  0  0  0
   23.1463  -20.2741  -11.5297 O   0  0  0  0  0  0  0  0  0  0  0  0
   24.3219  -19.7215  -12.0378 C   0  0  0  0  0  0  0  0  0  0  0  0
   25.4018  -20.7812  -12.2236 C   0  0  2  0  0  0  0  0  0  0  0  0
   24.9130  -21.9127  -12.9817 N   0  0  0  0  0  0  0  0  0  0  0  0
   25.8777  -21.2280  -10.8761 C   0  0  0  0  0  0  0  0  0  0  0  0
   25.4961  -22.3129  -10.3682 O   0  0  0  0  0  0  0  0  0  0  0  0
   26.7836  -20.4469  -10.1075 N   0  0  0  0  0  0  0  0  0  0  0  0
   26.9701  -20.7061   -8.6738 C   0  0  1  0  0  0  0  0  0  0  0  0
   28.0547  -19.7495   -8.2363 C   0  0  0  0  0  0  0  0  0  0  0  0
   28.3196  -19.8689   -6.7955 C   0  0  0  0  0  0  0  0  0  0  0  0
   27.8574  -18.9053   -5.9318 C   0  0  0  0  0  0  0  0  0  0  0  0
   28.1009  -19.0101   -4.5608 C   0  0  0  0  0  0  0  0  0  0  0  0
   28.8118  -20.0946   -4.0887 C   0  0  0  0  0  0  0  0  0  0  0  0
   29.2763  -21.0655   -4.9687 C   0  0  0  0  0  0  0  0  0  0  0  0
   29.0366  -20.9631   -6.3214 C   0  0  0  0  0  0  0  0  0  0  0  0
   25.6998  -20.5464   -7.9657 C   0  0  0  0  0  0  0  0  0  0  0  0
   25.3191  -21.3715   -6.9184 O   0  0  0  0  0  0  0  0  0  0  0  0
   24.9130  -19.6295   -8.3105 O   0  0  0  0  0  0  0  0  0  0  0  0
  2  1  1  6
  2  7  1  0
  3  2  1  0
  4  3  1  0
  4  5  1  0
  5  6  2  0
  5  9  1  0
  7  8  2  0
  7 13  1  0
 10 11  1  0
 12 14  1  0
 12 11  1  1
 13 12  1  0
 14 15  2  0
 16 17  1  0
 16 14  1  0
 17 18  1  1
 18 19  1  0
 19 20  2  0
 20 21  1  0
 22 21  2  0
 23 22  1  0
 24 23  2  0
 24 19  1  0
 25 26  1  0
 25 17  1  0
 27 25  2  0
M  END
$$$$
