ESF.pdb
     RDKit          3D

 27 27  0  0  1  0  0  0  0  0999 V2000
   20.7043  -11.5649  -18.5594 N   0  0  0  0  0  0  0  0  0  0  0  0
   20.3561  -10.4516  -19.4362 C   0  0  1  0  0  0  0  0  0  0  0  0
   18.9112  -10.1282  -19.1332 C   0  0  0  0  0  0  0  0  0  0  0  0
   18.6113   -9.9372  -17.6829 C   0  0  0  0  0  0  0  0  0  0  0  0
   17.1993   -9.6257  -17.3873 C   0  0  0  0  0  0  0  0  0  0  0  0
   16.8471   -8.4834  -17.0225 O   0  0  0  0  0  0  0  0  0  0  0  0
   21.1884   -9.2754  -19.0147 C   0  0  0  0  0  0  0  0  0  0  0  0
   21.9900   -9.3705  -18.0511 O   0  0  0  0  0  0  0  0  0  0  0  0
   16.2464  -10.6201  -17.5172 O   0  0  0  0  0  0  0  0  0  0  0  0
   20.6794   -5.4604  -20.6598 O   0  0  0  0  0  0  0  0  0  0  0  0
   21.9759   -5.8104  -20.2826 C   0  0  0  0  0  0  0  0  0  0  0  0
   21.9741   -6.9503  -19.2706 C   0  0  2  0  0  0  0  0  0  0  0  0
   21.1002   -8.0273  -19.6829 N   0  0  0  0  0  0  0  0  0  0  0  0
   21.5434   -6.4151  -17.9402 C   0  0  0  0  0  0  0  0  0  0  0  0
   20.3832   -6.6079  -17.4959 O   0  0  0  0  0  0  0  0  0  0  0  0
   22.4258   -5.6638  -17.1165 N   0  0  0  0  0  0  0  0  0  0  0  0
   21.9601   -5.0829  -15.8504 C   0  0  1  0  0  0  0  0  0  0  0  0
   22.9753   -5.5164  -14.8188 C   0  0  0  0  0  0  0  0  0  0  0  0
   22.9650   -6.9757  -14.6431 C   0  0  0  0  0  0  0  0  0  0  0  0
   21.9937   -7.5659  -13.8709 C   0  0  0  0  0  0  0  0  0  0  0  0
   21.9728   -8.9516  -13.6995 C   0  0  0  0  0  0  0  0  0  0  0  0
   22.9414   -9.7167  -14.3168 C   0  0  0  0  0  0  0  0  0  0  0  0
   23.9210   -9.1123  -15.0964 C   0  0  0  0  0  0  0  0  0  0  0  0
   23.9425   -7.7453  -15.2663 C   0  0  0  0  0  0  0  0  0  0  0  0
   21.8159   -3.6333  -15.9864 C   0  0  0  0  0  0  0  0  0  0  0  0
   22.0964   -2.9618  -17.1667 O   0  0  0  0  0  0  0  0  0  0  0  0
   21.4237   -2.9579  -15.0022 O   0  0  0  0  0  0  0  0  0  0  0  0
  2  1  1  1
  2  7  1  0
  3  2  1  0
  4  3  1  0
  4  5  1  0
  5  6  2  0
  5  9  1  0
  7  8  2  0
  7 13  1  0
 10 11  1  0
 12 14  1  0
 12 11  1  6
 13 12  1  0
 14 15  2  0
 16 17  1  0
 16 14  1  0
 17 18  1  1
 18 19  1  0
 19 20  2  0
 20 21  1  0
 22 21  2  0
 23 22  1  0
 24 23  2  0
 24 19  1  0
 25 26  1  0
 25 17  1  0
 27 25  2  0
M  END
$$$$
