ESF.pdb
     RDKit          3D

 27 27  0  0  1  0  0  0  0  0999 V2000
   23.7355  -24.1492  -14.4561 N   0  0  0  0  0  0  0  0  0  0  0  0
   23.2798  -22.8631  -14.9734 C   0  0  1  0  0  0  0  0  0  0  0  0
   21.9079  -22.6451  -14.3780 C   0  0  0  0  0  0  0  0  0  0  0  0
   21.3061  -21.3129  -14.6828 C   0  0  0  0  0  0  0  0  0  0  0  0
   19.9238  -21.1414  -14.1948 C   0  0  0  0  0  0  0  0  0  0  0  0
   18.9627  -21.7218  -14.7440 O   0  0  0  0  0  0  0  0  0  0  0  0
   24.1944  -21.8102  -14.4178 C   0  0  0  0  0  0  0  0  0  0  0  0
   24.6272  -21.8941  -13.2406 O   0  0  0  0  0  0  0  0  0  0  0  0
   19.6883  -20.3205  -13.1066 O   0  0  0  0  0  0  0  0  0  0  0  0
   28.2272  -20.2119  -14.7722 O   0  0  0  0  0  0  0  0  0  0  0  0
   27.0497  -20.8645  -15.1373 C   0  0  0  0  0  0  0  0  0  0  0  0
   25.8234  -20.0070  -14.8468 C   0  0  2  0  0  0  0  0  0  0  0  0
   24.5984  -20.6942  -15.1945 N   0  0  0  0  0  0  0  0  0  0  0  0
   25.9349  -18.7272  -15.6159 C   0  0  0  0  0  0  0  0  0  0  0  0
   25.6754  -18.6715  -16.8448 O   0  0  0  0  0  0  0  0  0  0  0  0
   26.3394  -17.5148  -14.9932 N   0  0  0  0  0  0  0  0  0  0  0  0
   26.4588  -16.2742  -15.7705 C   0  0  1  0  0  0  0  0  0  0  0  0
   26.8686  -15.2183  -14.7705 C   0  0  0  0  0  0  0  0  0  0  0  0
   27.0439  -13.9110  -15.4191 C   0  0  0  0  0  0  0  0  0  0  0  0
   28.3020  -13.3740  -15.5493 C   0  0  0  0  0  0  0  0  0  0  0  0
   28.4802  -12.1341  -16.1663 C   0  0  0  0  0  0  0  0  0  0  0  0
   27.3749  -11.4584  -16.6419 C   0  0  0  0  0  0  0  0  0  0  0  0
   26.1051  -12.0081  -16.5064 C   0  0  0  0  0  0  0  0  0  0  0  0
   25.9281  -13.2314  -15.8979 C   0  0  0  0  0  0  0  0  0  0  0  0
   27.4013  -16.4620  -16.8736 C   0  0  0  0  0  0  0  0  0  0  0  0
   28.5175  -17.2784  -16.7723 O   0  0  0  0  0  0  0  0  0  0  0  0
   27.2037  -15.8651  -17.9614 O   0  0  0  0  0  0  0  0  0  0  0  0
  2  1  1  1
  2  7  1  0
  3  2  1  0
  4  3  1  0
  4  5  1  0
  5  6  2  0
  5  9  1  0
  7  8  2  0
  7 13  1  0
 10 11  1  0
 12 14  1  0
 12 11  1  6
 13 12  1  0
 14 15  2  0
 16 17  1  0
 16 14  1  0
 17 18  1  1
 18 19  1  0
 19 20  2  0
 20 21  1  0
 22 21  2  0
 23 22  1  0
 24 23  2  0
 24 19  1  0
 25 26  1  0
 25 17  1  0
 27 25  2  0
M  END
$$$$
