ESF.pdb
     RDKit          3D

 27 27  0  0  1  0  0  0  0  0999 V2000
   30.2599  -24.9563  -18.0327 N   0  0  0  0  0  0  0  0  0  0  0  0
   28.9399  -24.6204  -18.5565 C   0  0  1  0  0  0  0  0  0  0  0  0
   28.0826  -25.8425  -18.3206 C   0  0  0  0  0  0  0  0  0  0  0  0
   28.0842  -26.3362  -16.9113 C   0  0  0  0  0  0  0  0  0  0  0  0
   27.2424  -27.5263  -16.6804 C   0  0  0  0  0  0  0  0  0  0  0  0
   27.3300  -28.5373  -17.4100 O   0  0  0  0  0  0  0  0  0  0  0  0
   28.3952  -23.5065  -17.7101 C   0  0  0  0  0  0  0  0  0  0  0  0
   29.0080  -23.1257  -16.6808 O   0  0  0  0  0  0  0  0  0  0  0  0
   26.3376  -27.5213  -15.6339 O   0  0  0  0  0  0  0  0  0  0  0  0
   24.5559  -21.7356  -18.1588 O   0  0  0  0  0  0  0  0  0  0  0  0
   25.6706  -20.9124  -17.9995 C   0  0  0  0  0  0  0  0  0  0  0  0
   26.8167  -21.6509  -17.3177 C   0  0  2  0  0  0  0  0  0  0  0  0
   27.1811  -22.8510  -18.0393 N   0  0  0  0  0  0  0  0  0  0  0  0
   26.4074  -21.9926  -15.9186 C   0  0  0  0  0  0  0  0  0  0  0  0
   25.9795  -23.1356  -15.6171 O   0  0  0  0  0  0  0  0  0  0  0  0
   26.4833  -21.0409  -14.8650 N   0  0  0  0  0  0  0  0  0  0  0  0
   25.9893  -21.3669  -13.5207 C   0  0  1  0  0  0  0  0  0  0  0  0
   26.5804  -20.3120  -12.6150 C   0  0  0  0  0  0  0  0  0  0  0  0
   26.0576  -20.4323  -11.2465 C   0  0  0  0  0  0  0  0  0  0  0  0
   26.8212  -21.0270  -10.2712 C   0  0  0  0  0  0  0  0  0  0  0  0
   26.3354  -21.1440   -8.9672 C   0  0  0  0  0  0  0  0  0  0  0  0
   25.0789  -20.6540   -8.6749 C   0  0  0  0  0  0  0  0  0  0  0  0
   24.3121  -20.0537   -9.6671 C   0  0  0  0  0  0  0  0  0  0  0  0
   24.7903  -19.9377  -10.9539 C   0  0  0  0  0  0  0  0  0  0  0  0
   24.5270  -21.4144  -13.5215 C   0  0  0  0  0  0  0  0  0  0  0  0
   23.8085  -22.3298  -12.7676 O   0  0  0  0  0  0  0  0  0  0  0  0
   23.8843  -20.5993  -14.2295 O   0  0  0  0  0  0  0  0  0  0  0  0
  2  1  1  1
  2  7  1  0
  3  2  1  0
  4  3  1  0
  4  5  1  0
  5  6  2  0
  5  9  1  0
  7  8  2  0
  7 13  1  0
 10 11  1  0
 12 14  1  0
 12 11  1  6
 13 12  1  0
 14 15  2  0
 16 17  1  0
 16 14  1  0
 17 18  1  1
 18 19  1  0
 19 20  2  0
 20 21  1  0
 22 21  2  0
 23 22  1  0
 24 23  2  0
 24 19  1  0
 25 26  1  0
 25 17  1  0
 27 25  2  0
M  END
$$$$
