ESF.pdb
     RDKit          3D

 27 27  0  0  1  0  0  0  0  0999 V2000
   18.9659  -15.0720  -16.3981 N   0  0  0  0  0  0  0  0  0  0  0  0
   20.1054  -14.1970  -16.6537 C   0  0  1  0  0  0  0  0  0  0  0  0
   20.5738  -14.5321  -18.0510 C   0  0  0  0  0  0  0  0  0  0  0  0
   21.2415  -15.8618  -18.1770 C   0  0  0  0  0  0  0  0  0  0  0  0
   21.7137  -16.1813  -19.5384 C   0  0  0  0  0  0  0  0  0  0  0  0
   21.5352  -17.3117  -20.0409 O   0  0  0  0  0  0  0  0  0  0  0  0
   19.5900  -12.7870  -16.6675 C   0  0  0  0  0  0  0  0  0  0  0  0
   18.4067  -12.5410  -17.0128 O   0  0  0  0  0  0  0  0  0  0  0  0
   22.3673  -15.2080  -20.2727 O   0  0  0  0  0  0  0  0  0  0  0  0
   18.1801   -9.0425  -15.0565 O   0  0  0  0  0  0  0  0  0  0  0  0
   18.6290  -10.3451  -15.2740 C   0  0  0  0  0  0  0  0  0  0  0  0
   19.8268  -10.3726  -16.2164 C   0  0  2  0  0  0  0  0  0  0  0  0
   20.4127  -11.6933  -16.2948 N   0  0  0  0  0  0  0  0  0  0  0  0
   20.8429   -9.3835  -15.7358 C   0  0  0  0  0  0  0  0  0  0  0  0
   21.5610   -9.6117  -14.7294 O   0  0  0  0  0  0  0  0  0  0  0  0
   21.0439   -8.1397  -16.3946 N   0  0  0  0  0  0  0  0  0  0  0  0
   22.0422   -7.1812  -15.9025 C   0  0  1  0  0  0  0  0  0  0  0  0
   22.5032   -6.4258  -17.1271 C   0  0  0  0  0  0  0  0  0  0  0  0
   23.5135   -5.4162  -16.7801 C   0  0  0  0  0  0  0  0  0  0  0  0
   24.8431   -5.7615  -16.7445 C   0  0  0  0  0  0  0  0  0  0  0  0
   25.8115   -4.8097  -16.4187 C   0  0  0  0  0  0  0  0  0  0  0  0
   25.4124   -3.5197  -16.1338 C   0  0  0  0  0  0  0  0  0  0  0  0
   24.0654   -3.1779  -16.1717 C   0  0  0  0  0  0  0  0  0  0  0  0
   23.1091   -4.1161  -16.4930 C   0  0  0  0  0  0  0  0  0  0  0  0
   21.4583   -6.3411  -14.8567 C   0  0  0  0  0  0  0  0  0  0  0  0
   22.1977   -5.8537  -13.7898 O   0  0  0  0  0  0  0  0  0  0  0  0
   20.2393   -6.0422  -14.9153 O   0  0  0  0  0  0  0  0  0  0  0  0
  2  1  1  6
  2  7  1  0
  3  2  1  0
  4  3  1  0
  4  5  1  0
  5  6  2  0
  5  9  1  0
  7  8  2  0
  7 13  1  0
 10 11  1  0
 12 14  1  0
 12 11  1  1
 13 12  1  0
 14 15  2  0
 16 17  1  0
 16 14  1  0
 17 18  1  6
 18 19  1  0
 19 20  2  0
 20 21  1  0
 22 21  2  0
 23 22  1  0
 24 23  2  0
 24 19  1  0
 25 26  1  0
 25 17  1  0
 27 25  2  0
M  END
$$$$
