FAE.pdb
     RDKit          3D

 26 26  0  0  1  0  0  0  0  0999 V2000
   16.6000  -27.1265    1.7437 N   0  0  0  0  0  0  0  0  0  0  0  0
   17.8973  -26.9884    2.3371 C   0  0  1  0  0  0  0  0  0  0  0  0
   18.3349  -25.5287    2.3007 C   0  0  0  0  0  0  0  0  0  0  0  0
   19.4481  -25.2754    1.3863 C   0  0  0  0  0  0  0  0  0  0  0  0
   19.4092  -25.7402    0.0895 C   0  0  0  0  0  0  0  0  0  0  0  0
   20.4540  -25.5048   -0.7829 C   0  0  0  0  0  0  0  0  0  0  0  0
   21.5767  -24.7936   -0.3834 C   0  0  0  0  0  0  0  0  0  0  0  0
   21.6092  -24.3328    0.9122 C   0  0  0  0  0  0  0  0  0  0  0  0
   20.5618  -24.5656    1.7947 C   0  0  0  0  0  0  0  0  0  0  0  0
   17.8826  -27.3516    3.7910 C   0  0  0  0  0  0  0  0  0  0  0  0
   16.9379  -26.9973    4.5344 O   0  0  0  0  0  0  0  0  0  0  0  0
   19.4409  -29.8271    6.0607 C   0  0  0  0  0  0  0  0  0  0  0  0
   18.9136  -28.4338    5.7778 C   0  0  2  0  0  0  0  0  0  0  0  0
   18.9260  -28.1065    4.3898 N   0  0  0  0  0  0  0  0  0  0  0  0
   19.6926  -27.4363    6.5713 C   0  0  0  0  0  0  0  0  0  0  0  0
   20.6771  -26.8379    6.0477 O   0  0  0  0  0  0  0  0  0  0  0  0
   19.3718  -27.1251    7.9133 N   0  0  0  0  0  0  0  0  0  0  0  0
   20.2680  -26.1930    8.6700 C   0  0  1  0  0  0  0  0  0  0  0  0
   19.3425  -25.5244    9.6418 C   0  0  0  0  0  0  0  0  0  0  0  0
   19.8886  -24.6328   10.6739 C   0  0  0  0  0  0  0  0  0  0  0  0
   19.0129  -24.0819   11.6928 C   0  0  0  0  0  0  0  0  0  0  0  0
   18.1152  -24.7579   12.2973 O   0  0  0  0  0  0  0  0  0  0  0  0
   21.3117  -26.9827    9.3208 C   0  0  0  0  0  0  0  0  0  0  0  0
   21.0955  -28.3672    9.4693 O   0  0  0  0  0  0  0  0  0  0  0  0
   19.1537  -22.7333   12.0429 O   0  0  0  0  0  0  0  0  0  0  0  0
   22.3827  -26.5535    9.7607 O   0  0  0  0  0  0  0  0  0  0  0  0
  2  1  1  1
  3  2  1  0
  3  4  1  0
  4  9  2  0
  5  4  1  0
  5  6  2  0
  6  7  1  0
  7  8  2  0
  9  8  1  0
 10  2  1  0
 10 11  2  0
 13 12  1  6
 13 14  1  0
 13 15  1  0
 14 10  1  0
 15 17  1  0
 16 15  2  0
 17 18  1  0
 18 19  1  1
 19 20  1  0
 20 21  1  0
 21 22  2  0
 21 25  1  0
 23 24  1  0
 23 18  1  0
 26 23  2  0
M  END
$$$$
