FAE.pdb
     RDKit          3D

 26 26  0  0  1  0  0  0  0  0999 V2000
   25.1454  -20.9033   -7.7401 N   0  0  0  0  0  0  0  0  0  0  0  0
   26.2045  -20.2831   -8.4802 C   0  0  1  0  0  0  0  0  0  0  0  0
   27.5512  -20.8322   -8.0235 C   0  0  0  0  0  0  0  0  0  0  0  0
   27.9491  -20.3715   -6.6934 C   0  0  0  0  0  0  0  0  0  0  0  0
   28.1189  -19.0277   -6.4393 C   0  0  0  0  0  0  0  0  0  0  0  0
   28.4924  -18.5817   -5.1864 C   0  0  0  0  0  0  0  0  0  0  0  0
   28.7092  -19.4705   -4.1430 C   0  0  0  0  0  0  0  0  0  0  0  0
   28.5382  -20.8103   -4.4035 C   0  0  0  0  0  0  0  0  0  0  0  0
   28.1623  -21.2657   -5.6610 C   0  0  0  0  0  0  0  0  0  0  0  0
   26.1271  -20.6133   -9.9399 C   0  0  0  0  0  0  0  0  0  0  0  0
   25.0331  -20.9032  -10.4781 O   0  0  0  0  0  0  0  0  0  0  0  0
   28.5550  -20.2600  -12.8380 C   0  0  0  0  0  0  0  0  0  0  0  0
   27.2363  -20.1033  -12.1059 C   0  0  2  0  0  0  0  0  0  0  0  0
   27.2763  -20.6133  -10.7746 N   0  0  0  0  0  0  0  0  0  0  0  0
   26.1479  -20.7523  -12.8967 C   0  0  0  0  0  0  0  0  0  0  0  0
   26.0141  -22.0106  -12.8791 O   0  0  0  0  0  0  0  0  0  0  0  0
   25.2403  -20.0053  -13.6835 N   0  0  0  0  0  0  0  0  0  0  0  0
   24.0837  -20.7158  -14.3176 C   0  0  1  0  0  0  0  0  0  0  0  0
   23.1458  -20.9554  -13.1726 C   0  0  0  0  0  0  0  0  0  0  0  0
   21.8094  -21.5098  -13.4281 C   0  0  0  0  0  0  0  0  0  0  0  0
   20.8756  -21.6853  -12.3300 C   0  0  0  0  0  0  0  0  0  0  0  0
   21.1409  -21.3844  -11.1187 O   0  0  0  0  0  0  0  0  0  0  0  0
   23.5195  -19.8492  -15.3507 C   0  0  0  0  0  0  0  0  0  0  0  0
   22.7485  -20.4491  -16.3663 O   0  0  0  0  0  0  0  0  0  0  0  0
   19.6071  -22.2117  -12.6037 O   0  0  0  0  0  0  0  0  0  0  0  0
   23.6507  -18.6237  -15.4253 O   0  0  0  0  0  0  0  0  0  0  0  0
  2  1  1  1
  3  2  1  0
  3  4  1  0
  4  9  2  0
  5  4  1  0
  5  6  2  0
  6  7  1  0
  7  8  2  0
  9  8  1  0
 10  2  1  0
 10 11  2  0
 13 12  1  6
 13 14  1  0
 13 15  1  0
 14 10  1  0
 15 17  1  0
 16 15  2  0
 17 18  1  0
 18 19  1  1
 19 20  1  0
 20 21  1  0
 21 22  2  0
 21 25  1  0
 23 24  1  0
 23 18  1  0
 26 23  2  0
M  END
$$$$
