FAE.pdb
     RDKit          3D

 26 26  0  0  1  0  0  0  0  0999 V2000
   27.9557  -20.7604  -15.2195 N   0  0  0  0  0  0  0  0  0  0  0  0
   27.1477  -21.1765  -14.1112 C   0  0  1  0  0  0  0  0  0  0  0  0
   27.0379  -20.0477  -13.0928 C   0  0  0  0  0  0  0  0  0  0  0  0
   26.3596  -20.4394  -11.8575 C   0  0  0  0  0  0  0  0  0  0  0  0
   25.0002  -20.2609  -11.7178 C   0  0  0  0  0  0  0  0  0  0  0  0
   24.3495  -20.6293  -10.5564 C   0  0  0  0  0  0  0  0  0  0  0  0
   25.0415  -21.1905   -9.4925 C   0  0  0  0  0  0  0  0  0  0  0  0
   26.3981  -21.3657   -9.6385 C   0  0  0  0  0  0  0  0  0  0  0  0
   27.0588  -20.9979  -10.8038 C   0  0  0  0  0  0  0  0  0  0  0  0
   25.7366  -21.4585  -14.5298 C   0  0  0  0  0  0  0  0  0  0  0  0
   25.1301  -20.6892  -15.3114 O   0  0  0  0  0  0  0  0  0  0  0  0
   23.5640  -24.4882  -14.6199 C   0  0  0  0  0  0  0  0  0  0  0  0
   23.7788  -22.9872  -14.6373 C   0  0  2  0  0  0  0  0  0  0  0  0
   25.0266  -22.5982  -14.0669 N   0  0  0  0  0  0  0  0  0  0  0  0
   22.6392  -22.3134  -13.9455 C   0  0  0  0  0  0  0  0  0  0  0  0
   22.6131  -22.2473  -12.6820 O   0  0  0  0  0  0  0  0  0  0  0  0
   21.5626  -21.7339  -14.6568 N   0  0  0  0  0  0  0  0  0  0  0  0
   20.4938  -21.0191  -13.8878 C   0  0  1  0  0  0  0  0  0  0  0  0
   20.3456  -19.7170  -14.6161 C   0  0  0  0  0  0  0  0  0  0  0  0
   19.4553  -19.6301  -15.7815 C   0  0  0  0  0  0  0  0  0  0  0  0
   18.7784  -18.3818  -16.0850 C   0  0  0  0  0  0  0  0  0  0  0  0
   18.8591  -17.3364  -15.3576 O   0  0  0  0  0  0  0  0  0  0  0  0
   19.2809  -21.8344  -13.9160 C   0  0  0  0  0  0  0  0  0  0  0  0
   18.2934  -21.5817  -12.9431 O   0  0  0  0  0  0  0  0  0  0  0  0
   17.9911  -18.3075  -17.2407 O   0  0  0  0  0  0  0  0  0  0  0  0
   19.0281  -22.7369  -14.7200 O   0  0  0  0  0  0  0  0  0  0  0  0
  2  1  1  6
  3  2  1  0
  3  4  1  0
  4  9  2  0
  5  4  1  0
  5  6  2  0
  6  7  1  0
  7  8  2  0
  9  8  1  0
 10  2  1  0
 10 11  2  0
 13 12  1  1
 13 14  1  0
 13 15  1  0
 14 10  1  0
 15 17  1  0
 16 15  2  0
 17 18  1  0
 18 19  1  6
 19 20  1  0
 20 21  1  0
 21 22  2  0
 21 25  1  0
 23 24  1  0
 23 18  1  0
 26 23  2  0
M  END
$$$$
