FAE.pdb
     RDKit          3D

 26 26  0  0  1  0  0  0  0  0999 V2000
   27.4770  -22.2270  -11.1034 N   0  0  0  0  0  0  0  0  0  0  0  0
   26.4176  -21.4870  -10.4836 C   0  0  1  0  0  0  0  0  0  0  0  0
   26.9100  -20.0980  -10.0942 C   0  0  0  0  0  0  0  0  0  0  0  0
   27.5344  -20.0489   -8.7723 C   0  0  0  0  0  0  0  0  0  0  0  0
   26.8424  -19.5526   -7.6887 C   0  0  0  0  0  0  0  0  0  0  0  0
   27.4218  -19.5038   -6.4357 C   0  0  0  0  0  0  0  0  0  0  0  0
   28.7184  -19.9518   -6.2261 C   0  0  0  0  0  0  0  0  0  0  0  0
   29.4034  -20.4456   -7.3120 C   0  0  0  0  0  0  0  0  0  0  0  0
   28.8267  -20.4981   -8.5747 C   0  0  0  0  0  0  0  0  0  0  0  0
   25.2835  -21.2435  -11.4325 C   0  0  0  0  0  0  0  0  0  0  0  0
   25.4971  -20.9952  -12.6422 O   0  0  0  0  0  0  0  0  0  0  0  0
   21.5371  -21.7595  -11.2876 C   0  0  0  0  0  0  0  0  0  0  0  0
   22.8559  -21.4023  -11.9454 C   0  0  2  0  0  0  0  0  0  0  0  0
   23.9274  -21.2822  -11.0120 N   0  0  0  0  0  0  0  0  0  0  0  0
   22.6924  -20.1474  -12.7390 C   0  0  0  0  0  0  0  0  0  0  0  0
   22.6164  -19.0295  -12.1506 O   0  0  0  0  0  0  0  0  0  0  0  0
   22.6154  -20.1539  -14.1513 N   0  0  0  0  0  0  0  0  0  0  0  0
   22.4469  -18.8495  -14.8689 C   0  0  1  0  0  0  0  0  0  0  0  0
   23.2743  -19.0186  -16.1078 C   0  0  0  0  0  0  0  0  0  0  0  0
   23.2475  -17.9832  -17.1498 C   0  0  0  0  0  0  0  0  0  0  0  0
   23.9352  -18.2048  -18.4094 C   0  0  0  0  0  0  0  0  0  0  0  0
   24.5952  -19.2627  -18.6804 O   0  0  0  0  0  0  0  0  0  0  0  0
   21.0254  -18.6570  -15.1493 C   0  0  0  0  0  0  0  0  0  0  0  0
   20.5648  -17.3403  -15.3491 O   0  0  0  0  0  0  0  0  0  0  0  0
   23.8759  -17.2088  -19.3921 O   0  0  0  0  0  0  0  0  0  0  0  0
   20.1719  -19.5456  -15.2314 O   0  0  0  0  0  0  0  0  0  0  0  0
  2  1  1  6
  3  2  1  0
  3  4  1  0
  4  9  2  0
  5  4  1  0
  5  6  2  0
  6  7  1  0
  7  8  2  0
  9  8  1  0
 10  2  1  0
 10 11  2  0
 13 12  1  1
 13 14  1  0
 13 15  1  0
 14 10  1  0
 15 17  1  0
 16 15  2  0
 17 18  1  0
 18 19  1  6
 19 20  1  0
 20 21  1  0
 21 22  2  0
 21 25  1  0
 23 24  1  0
 23 18  1  0
 26 23  2  0
M  END
$$$$
