FAE.pdb
     RDKit          3D

 26 26  0  0  1  0  0  0  0  0999 V2000
   25.2815   -9.4732  -19.4167 N   0  0  0  0  0  0  0  0  0  0  0  0
   24.4380   -8.6023  -18.6523 C   0  0  1  0  0  0  0  0  0  0  0  0
   25.2612   -7.8725  -17.5973 C   0  0  0  0  0  0  0  0  0  0  0  0
   25.9998   -8.7697  -16.7090 C   0  0  0  0  0  0  0  0  0  0  0  0
   27.3412   -9.0104  -16.9140 C   0  0  0  0  0  0  0  0  0  0  0  0
   28.0487   -9.8542  -16.0800 C   0  0  0  0  0  0  0  0  0  0  0  0
   27.4334  -10.4873  -15.0093 C   0  0  0  0  0  0  0  0  0  0  0  0
   26.0944  -10.2429  -14.8107 C   0  0  0  0  0  0  0  0  0  0  0  0
   25.3770   -9.3952  -15.6452 C   0  0  0  0  0  0  0  0  0  0  0  0
   23.8478   -7.5175  -19.5012 C   0  0  0  0  0  0  0  0  0  0  0  0
   24.5647   -6.8463  -20.2798 O   0  0  0  0  0  0  0  0  0  0  0  0
   20.7438   -6.6023  -21.1088 C   0  0  0  0  0  0  0  0  0  0  0  0
   21.9137   -6.1500  -20.2566 C   0  0  2  0  0  0  0  0  0  0  0  0
   22.4636   -7.2013  -19.4654 N   0  0  0  0  0  0  0  0  0  0  0  0
   21.4915   -4.9999  -19.4020 C   0  0  0  0  0  0  0  0  0  0  0  0
   21.1597   -3.9010  -19.9349 O   0  0  0  0  0  0  0  0  0  0  0  0
   21.4465   -5.0865  -17.9909 N   0  0  0  0  0  0  0  0  0  0  0  0
   21.0631   -3.8687  -17.2069 C   0  0  1  0  0  0  0  0  0  0  0  0
   19.6348   -4.1263  -16.8305 C   0  0  0  0  0  0  0  0  0  0  0  0
   18.9805   -3.2766  -15.8263 C   0  0  0  0  0  0  0  0  0  0  0  0
   17.5933   -3.5145  -15.4688 C   0  0  0  0  0  0  0  0  0  0  0  0
   17.2296   -4.1783  -14.4415 O   0  0  0  0  0  0  0  0  0  0  0  0
   21.9520   -3.7645  -16.0513 C   0  0  0  0  0  0  0  0  0  0  0  0
   21.8841   -2.5936  -15.2702 O   0  0  0  0  0  0  0  0  0  0  0  0
   16.5877   -2.9880  -16.2890 O   0  0  0  0  0  0  0  0  0  0  0  0
   22.7699   -4.6128  -15.6823 O   0  0  0  0  0  0  0  0  0  0  0  0
  2  1  1  6
  3  2  1  0
  3  4  1  0
  4  9  2  0
  5  4  1  0
  5  6  2  0
  6  7  1  0
  7  8  2  0
  9  8  1  0
 10  2  1  0
 10 11  2  0
 13 12  1  1
 13 14  1  0
 13 15  1  0
 14 10  1  0
 15 17  1  0
 16 15  2  0
 17 18  1  0
 18 19  1  1
 19 20  1  0
 20 21  1  0
 21 22  2  0
 21 25  1  0
 23 24  1  0
 23 18  1  0
 26 23  2  0
M  END
$$$$
