FAE.pdb
     RDKit          3D

 26 26  0  0  1  0  0  0  0  0999 V2000
   25.7893  -18.9789  -16.3450 N   0  0  0  0  0  0  0  0  0  0  0  0
   25.0495  -18.5112  -15.2101 C   0  0  1  0  0  0  0  0  0  0  0  0
   24.3615  -17.1924  -15.5432 C   0  0  0  0  0  0  0  0  0  0  0  0
   25.2936  -16.0878  -15.7682 C   0  0  0  0  0  0  0  0  0  0  0  0
   25.3210  -15.4299  -16.9788 C   0  0  0  0  0  0  0  0  0  0  0  0
   26.1957  -14.3841  -17.2011 C   0  0  0  0  0  0  0  0  0  0  0  0
   27.0753  -13.9616  -16.2145 C   0  0  0  0  0  0  0  0  0  0  0  0
   27.0429  -14.6228  -15.0087 C   0  0  0  0  0  0  0  0  0  0  0  0
   26.1655  -15.6749  -14.7782 C   0  0  0  0  0  0  0  0  0  0  0  0
   23.9366  -19.4480  -14.8502 C   0  0  0  0  0  0  0  0  0  0  0  0
   23.4172  -20.1937  -15.7131 O   0  0  0  0  0  0  0  0  0  0  0  0
   22.1938  -20.5759  -11.6784 C   0  0  0  0  0  0  0  0  0  0  0  0
   22.4226  -20.4885  -13.1749 C   0  0  2  0  0  0  0  0  0  0  0  0
   23.4226  -19.5355  -13.5290 N   0  0  0  0  0  0  0  0  0  0  0  0
   21.1292  -20.1886  -13.8593 C   0  0  0  0  0  0  0  0  0  0  0  0
   20.8247  -18.9942  -14.1462 O   0  0  0  0  0  0  0  0  0  0  0  0
   20.2080  -21.2039  -14.2076 N   0  0  0  0  0  0  0  0  0  0  0  0
   18.9428  -20.8174  -14.9109 C   0  0  1  0  0  0  0  0  0  0  0  0
   18.8416  -21.8124  -16.0278 C   0  0  0  0  0  0  0  0  0  0  0  0
   17.6921  -21.7688  -16.9418 C   0  0  0  0  0  0  0  0  0  0  0  0
   17.5185  -22.8107  -17.9382 C   0  0  0  0  0  0  0  0  0  0  0  0
   16.5793  -22.8165  -18.8019 O   0  0  0  0  0  0  0  0  0  0  0  0
   17.8382  -20.9091  -13.9580 C   0  0  0  0  0  0  0  0  0  0  0  0
   16.6601  -20.1903  -14.2425 O   0  0  0  0  0  0  0  0  0  0  0  0
   18.4293  -23.8741  -17.9647 O   0  0  0  0  0  0  0  0  0  0  0  0
   17.8312  -21.5643  -12.9113 O   0  0  0  0  0  0  0  0  0  0  0  0
  2  1  1  6
  3  2  1  0
  3  4  1  0
  4  9  2  0
  5  4  1  0
  5  6  2  0
  6  7  1  0
  7  8  2  0
  9  8  1  0
 10  2  1  0
 10 11  2  0
 13 12  1  1
 13 14  1  0
 13 15  1  0
 14 10  1  0
 15 17  1  0
 16 15  2  0
 17 18  1  0
 18 19  1  6
 19 20  1  0
 20 21  1  0
 21 22  2  0
 21 25  1  0
 23 24  1  0
 23 18  1  0
 26 23  2  0
M  END
$$$$
