FAE.pdb
     RDKit          3D

 26 26  0  0  1  0  0  0  0  0999 V2000
   18.3145  -16.3163  -17.5716 N   0  0  0  0  0  0  0  0  0  0  0  0
   18.3422  -15.3670  -16.4982 C   0  0  1  0  0  0  0  0  0  0  0  0
   19.7843  -15.0399  -16.1282 C   0  0  0  0  0  0  0  0  0  0  0  0
   20.5312  -16.1889  -15.6168 C   0  0  0  0  0  0  0  0  0  0  0  0
   21.3664  -16.9066  -16.4454 C   0  0  0  0  0  0  0  0  0  0  0  0
   22.0779  -17.9919  -15.9722 C   0  0  0  0  0  0  0  0  0  0  0  0
   21.9755  -18.3958  -14.6485 C   0  0  0  0  0  0  0  0  0  0  0  0
   21.1400  -17.6753  -13.8270 C   0  0  0  0  0  0  0  0  0  0  0  0
   20.4219  -16.5826  -14.2962 C   0  0  0  0  0  0  0  0  0  0  0  0
   17.7397  -14.0559  -16.9029 C   0  0  0  0  0  0  0  0  0  0  0  0
   18.0256  -13.5272  -18.0025 O   0  0  0  0  0  0  0  0  0  0  0  0
   14.8348  -11.9299  -15.9443 C   0  0  0  0  0  0  0  0  0  0  0  0
   16.2457  -12.1168  -16.4677 C   0  0  2  0  0  0  0  0  0  0  0  0
   16.8259  -13.3573  -16.0698 N   0  0  0  0  0  0  0  0  0  0  0  0
   17.0933  -10.9651  -16.0359 C   0  0  0  0  0  0  0  0  0  0  0  0
   17.8738  -11.0866  -15.0472 O   0  0  0  0  0  0  0  0  0  0  0  0
   17.0601   -9.7155  -16.6979 N   0  0  0  0  0  0  0  0  0  0  0  0
   17.8465   -8.5763  -16.1246 C   0  0  1  0  0  0  0  0  0  0  0  0
   17.8106   -7.5414  -17.2089 C   0  0  0  0  0  0  0  0  0  0  0  0
   18.5122   -6.2643  -17.0220 C   0  0  0  0  0  0  0  0  0  0  0  0
   18.4627   -5.2513  -18.0612 C   0  0  0  0  0  0  0  0  0  0  0  0
   17.9268   -5.4342  -19.2047 O   0  0  0  0  0  0  0  0  0  0  0  0
   17.1944   -8.1392  -14.8916 C   0  0  0  0  0  0  0  0  0  0  0  0
   18.0119   -7.6767  -13.8412 O   0  0  0  0  0  0  0  0  0  0  0  0
   19.0297   -3.9967  -17.8049 O   0  0  0  0  0  0  0  0  0  0  0  0
   15.9792   -8.1328  -14.6727 O   0  0  0  0  0  0  0  0  0  0  0  0
  2  1  1  6
  3  2  1  0
  3  4  1  0
  4  9  2  0
  5  4  1  0
  5  6  2  0
  6  7  1  0
  7  8  2  0
  9  8  1  0
 10  2  1  0
 10 11  2  0
 13 12  1  1
 13 14  1  0
 13 15  1  0
 14 10  1  0
 15 17  1  0
 16 15  2  0
 17 18  1  0
 18 19  1  6
 19 20  1  0
 20 21  1  0
 21 22  2  0
 21 25  1  0
 23 24  1  0
 23 18  1  0
 26 23  2  0
M  END
$$$$
