FAE.pdb
     RDKit          3D

 26 26  0  0  1  0  0  0  0  0999 V2000
   28.6182  -21.2335  -10.0192 N   0  0  0  0  0  0  0  0  0  0  0  0
   27.1996  -21.0874   -9.8772 C   0  0  1  0  0  0  0  0  0  0  0  0
   26.8784  -19.7742   -9.1731 C   0  0  0  0  0  0  0  0  0  0  0  0
   27.2768  -19.7533   -7.7658 C   0  0  0  0  0  0  0  0  0  0  0  0
   26.6196  -20.5345   -6.8400 C   0  0  0  0  0  0  0  0  0  0  0  0
   26.9892  -20.5239   -5.5091 C   0  0  0  0  0  0  0  0  0  0  0  0
   28.0328  -19.7273   -5.0598 C   0  0  0  0  0  0  0  0  0  0  0  0
   28.6842  -18.9499   -5.9891 C   0  0  0  0  0  0  0  0  0  0  0  0
   28.3182  -18.9559   -7.3291 C   0  0  0  0  0  0  0  0  0  0  0  0
   26.5170  -20.9900  -11.2078 C   0  0  0  0  0  0  0  0  0  0  0  0
   27.0359  -20.3516  -12.1532 O   0  0  0  0  0  0  0  0  0  0  0  0
   24.1003  -22.9787  -13.1291 C   0  0  0  0  0  0  0  0  0  0  0  0
   24.6845  -21.6283  -12.7621 C   0  0  2  0  0  0  0  0  0  0  0  0
   25.2639  -21.6094  -11.4591 N   0  0  0  0  0  0  0  0  0  0  0  0
   23.6315  -20.5775  -12.8964 C   0  0  0  0  0  0  0  0  0  0  0  0
   23.0001  -20.1772  -11.8752 O   0  0  0  0  0  0  0  0  0  0  0  0
   23.3003  -19.9978  -14.1434 N   0  0  0  0  0  0  0  0  0  0  0  0
   22.2518  -18.9284  -14.1842 C   0  0  1  0  0  0  0  0  0  0  0  0
   22.4887  -18.2516  -15.5010 C   0  0  0  0  0  0  0  0  0  0  0  0
   21.5616  -17.2098  -15.9629 C   0  0  0  0  0  0  0  0  0  0  0  0
   21.6760  -16.6842  -17.3117 C   0  0  0  0  0  0  0  0  0  0  0  0
   22.5530  -17.0739  -18.1526 O   0  0  0  0  0  0  0  0  0  0  0  0
   20.9391  -19.5649  -14.0934 C   0  0  0  0  0  0  0  0  0  0  0  0
   19.9096  -18.8628  -13.4354 O   0  0  0  0  0  0  0  0  0  0  0  0
   20.7762  -15.6943  -17.7262 O   0  0  0  0  0  0  0  0  0  0  0  0
   20.6343  -20.6738  -14.5430 O   0  0  0  0  0  0  0  0  0  0  0  0
  2  1  1  6
  3  2  1  0
  3  4  1  0
  4  9  2  0
  5  4  1  0
  5  6  2  0
  6  7  1  0
  7  8  2  0
  9  8  1  0
 10  2  1  0
 10 11  2  0
 13 12  1  1
 13 14  1  0
 13 15  1  0
 14 10  1  0
 15 17  1  0
 16 15  2  0
 17 18  1  0
 18 19  1  6
 19 20  1  0
 20 21  1  0
 21 22  2  0
 21 25  1  0
 23 24  1  0
 23 18  1  0
 26 23  2  0
M  END
$$$$
