FAE.pdb
     RDKit          3D

 26 26  0  0  1  0  0  0  0  0999 V2000
   22.0520  -10.3579  -16.0562 N   0  0  0  0  0  0  0  0  0  0  0  0
   22.1561   -9.0259  -16.5749 C   0  0  1  0  0  0  0  0  0  0  0  0
   21.4756   -8.9415  -17.9362 C   0  0  0  0  0  0  0  0  0  0  0  0
   22.1193   -9.7608  -18.9628 C   0  0  0  0  0  0  0  0  0  0  0  0
   21.5147  -10.9110  -19.4220 C   0  0  0  0  0  0  0  0  0  0  0  0
   22.1128  -11.6909  -20.3927 C   0  0  0  0  0  0  0  0  0  0  0  0
   23.3410  -11.3433  -20.9371 C   0  0  0  0  0  0  0  0  0  0  0  0
   23.9389  -10.1943  -20.4741 C   0  0  0  0  0  0  0  0  0  0  0  0
   23.3429   -9.4051  -19.4985 C   0  0  0  0  0  0  0  0  0  0  0  0
   21.4263   -8.0385  -15.7157 C   0  0  0  0  0  0  0  0  0  0  0  0
   20.2736   -8.2832  -15.2892 O   0  0  0  0  0  0  0  0  0  0  0  0
   22.1963   -4.8325  -13.8846 C   0  0  0  0  0  0  0  0  0  0  0  0
   21.2868   -5.8449  -14.5537 C   0  0  2  0  0  0  0  0  0  0  0  0
   21.9990   -6.7921  -15.3470 N   0  0  0  0  0  0  0  0  0  0  0  0
   20.2586   -5.1290  -15.3670 C   0  0  0  0  0  0  0  0  0  0  0  0
   20.4756   -4.8806  -16.5888 O   0  0  0  0  0  0  0  0  0  0  0  0
   19.0254   -4.7055  -14.8187 N   0  0  0  0  0  0  0  0  0  0  0  0
   18.0278   -4.0418  -15.7183 C   0  0  1  0  0  0  0  0  0  0  0  0
   16.7153   -4.2990  -15.0406 C   0  0  0  0  0  0  0  0  0  0  0  0
   15.4812   -3.7336  -15.6025 C   0  0  0  0  0  0  0  0  0  0  0  0
   14.2218   -3.9007  -14.8991 C   0  0  0  0  0  0  0  0  0  0  0  0
   14.0893   -3.7566  -13.6382 O   0  0  0  0  0  0  0  0  0  0  0  0
   18.3598   -2.6211  -15.8073 C   0  0  0  0  0  0  0  0  0  0  0  0
   18.0505   -1.9452  -17.0045 O   0  0  0  0  0  0  0  0  0  0  0  0
   13.0794   -4.2365  -15.6362 O   0  0  0  0  0  0  0  0  0  0  0  0
   18.8917   -1.9404  -14.9251 O   0  0  0  0  0  0  0  0  0  0  0  0
  2  1  1  1
  3  2  1  0
  3  4  1  0
  4  9  2  0
  5  4  1  0
  5  6  2  0
  6  7  1  0
  7  8  2  0
  9  8  1  0
 10  2  1  0
 10 11  2  0
 13 12  1  6
 13 14  1  0
 13 15  1  0
 14 10  1  0
 15 17  1  0
 16 15  2  0
 17 18  1  0
 18 19  1  1
 19 20  1  0
 20 21  1  0
 21 22  2  0
 21 25  1  0
 23 24  1  0
 23 18  1  0
 26 23  2  0
M  END
$$$$
