FAE.pdb
     RDKit          3D

 26 26  0  0  1  0  0  0  0  0999 V2000
   24.9796  -20.1766   -7.7727 N   0  0  0  0  0  0  0  0  0  0  0  0
   26.2430  -19.9795   -8.4200 C   0  0  1  0  0  0  0  0  0  0  0  0
   27.3192  -20.8068   -7.7265 C   0  0  0  0  0  0  0  0  0  0  0  0
   27.7904  -20.2189   -6.4728 C   0  0  0  0  0  0  0  0  0  0  0  0
   28.5053  -19.0406   -6.4767 C   0  0  0  0  0  0  0  0  0  0  0  0
   28.9532  -18.4757   -5.2984 C   0  0  0  0  0  0  0  0  0  0  0  0
   28.6992  -19.0749   -4.0727 C   0  0  0  0  0  0  0  0  0  0  0  0
   27.9854  -20.2508   -4.0761 C   0  0  0  0  0  0  0  0  0  0  0  0
   27.5316  -20.8241   -5.2572 C   0  0  0  0  0  0  0  0  0  0  0  0
   26.2242  -20.4763   -9.8337 C   0  0  0  0  0  0  0  0  0  0  0  0
   25.1439  -20.7529  -10.4056 O   0  0  0  0  0  0  0  0  0  0  0  0
   28.8438  -20.5925  -12.5792 C   0  0  0  0  0  0  0  0  0  0  0  0
   27.4523  -20.4430  -11.9953 C   0  0  2  0  0  0  0  0  0  0  0  0
   27.4159  -20.6553  -10.5856 N   0  0  0  0  0  0  0  0  0  0  0  0
   26.5145  -21.3666  -12.7015 C   0  0  0  0  0  0  0  0  0  0  0  0
   26.3236  -22.5371  -12.2599 O   0  0  0  0  0  0  0  0  0  0  0  0
   25.8155  -20.9821  -13.8695 N   0  0  0  0  0  0  0  0  0  0  0  0
   24.7665  -21.9018  -14.4160 C   0  0  1  0  0  0  0  0  0  0  0  0
   23.6473  -21.7897  -13.4246 C   0  0  0  0  0  0  0  0  0  0  0  0
   22.7334  -20.6409  -13.4831 C   0  0  0  0  0  0  0  0  0  0  0  0
   21.6437  -20.5326  -12.5295 C   0  0  0  0  0  0  0  0  0  0  0  0
   21.0187  -19.4467  -12.2873 O   0  0  0  0  0  0  0  0  0  0  0  0
   24.3982  -21.4396  -15.7529 C   0  0  0  0  0  0  0  0  0  0  0  0
   23.6732  -22.3212  -16.5792 O   0  0  0  0  0  0  0  0  0  0  0  0
   21.2446  -21.6791  -11.8314 O   0  0  0  0  0  0  0  0  0  0  0  0
   24.6610  -20.3360  -16.2405 O   0  0  0  0  0  0  0  0  0  0  0  0
  2  1  1  1
  3  2  1  0
  3  4  1  0
  4  9  2  0
  5  4  1  0
  5  6  2  0
  6  7  1  0
  7  8  2  0
  9  8  1  0
 10  2  1  0
 10 11  2  0
 13 12  1  6
 13 14  1  0
 13 15  1  0
 14 10  1  0
 15 17  1  0
 16 15  2  0
 17 18  1  0
 18 19  1  1
 19 20  1  0
 20 21  1  0
 21 22  2  0
 21 25  1  0
 23 24  1  0
 23 18  1  0
 26 23  2  0
M  END
$$$$
