FAE.pdb
     RDKit          3D

 26 26  0  0  1  0  0  0  0  0999 V2000
   23.9402  -10.3543  -16.0764 N   0  0  0  0  0  0  0  0  0  0  0  0
   23.8476   -9.3536  -17.0981 C   0  0  1  0  0  0  0  0  0  0  0  0
   22.5383   -9.5088  -17.8632 C   0  0  0  0  0  0  0  0  0  0  0  0
   22.5260  -10.6535  -18.7737 C   0  0  0  0  0  0  0  0  0  0  0  0
   23.3869  -10.7028  -19.8487 C   0  0  0  0  0  0  0  0  0  0  0  0
   23.3851  -11.7801  -20.7134 C   0  0  0  0  0  0  0  0  0  0  0  0
   22.5174  -12.8473  -20.5292 C   0  0  0  0  0  0  0  0  0  0  0  0
   21.6607  -12.7915  -19.4544 C   0  0  0  0  0  0  0  0  0  0  0  0
   21.6575  -11.7115  -18.5807 C   0  0  0  0  0  0  0  0  0  0  0  0
   23.7952   -7.9729  -16.5178 C   0  0  0  0  0  0  0  0  0  0  0  0
   23.2442   -7.7587  -15.4127 O   0  0  0  0  0  0  0  0  0  0  0  0
   25.8415   -4.9696  -16.6572 C   0  0  0  0  0  0  0  0  0  0  0  0
   24.4554   -5.5762  -16.5563 C   0  0  2  0  0  0  0  0  0  0  0  0
   24.3611   -6.8534  -17.1838 N   0  0  0  0  0  0  0  0  0  0  0  0
   23.4533   -4.6245  -17.1232 C   0  0  0  0  0  0  0  0  0  0  0  0
   23.2003   -4.6330  -18.3632 O   0  0  0  0  0  0  0  0  0  0  0  0
   22.7599   -3.6920  -16.3169 N   0  0  0  0  0  0  0  0  0  0  0  0
   21.8136   -2.7348  -16.9752 C   0  0  1  0  0  0  0  0  0  0  0  0
   20.6274   -2.7242  -16.0583 C   0  0  0  0  0  0  0  0  0  0  0  0
   19.5000   -1.8235  -16.3344 C   0  0  0  0  0  0  0  0  0  0  0  0
   18.3747   -1.7691  -15.4182 C   0  0  0  0  0  0  0  0  0  0  0  0
   18.2889   -2.4739  -14.3579 O   0  0  0  0  0  0  0  0  0  0  0  0
   22.4710   -1.4334  -17.0790 C   0  0  0  0  0  0  0  0  0  0  0  0
   22.0935   -0.5864  -18.1400 O   0  0  0  0  0  0  0  0  0  0  0  0
   17.3182   -0.8949  -15.7021 O   0  0  0  0  0  0  0  0  0  0  0  0
   23.3378   -0.9921  -16.3183 O   0  0  0  0  0  0  0  0  0  0  0  0
  2  1  1  1
  3  2  1  0
  3  4  1  0
  4  9  2  0
  5  4  1  0
  5  6  2  0
  6  7  1  0
  7  8  2  0
  9  8  1  0
 10  2  1  0
 10 11  2  0
 13 12  1  6
 13 14  1  0
 13 15  1  0
 14 10  1  0
 15 17  1  0
 16 15  2  0
 17 18  1  0
 18 19  1  1
 19 20  1  0
 20 21  1  0
 21 22  2  0
 21 25  1  0
 23 24  1  0
 23 18  1  0
 26 23  2  0
M  END
$$$$
