FAE.pdb
     RDKit          3D

 26 26  0  0  1  0  0  0  0  0999 V2000
   25.8817  -22.8992  -10.7254 N   0  0  0  0  0  0  0  0  0  0  0  0
   25.2739  -21.6388  -10.4156 C   0  0  1  0  0  0  0  0  0  0  0  0
   26.2615  -20.5063  -10.6721 C   0  0  0  0  0  0  0  0  0  0  0  0
   27.2771  -20.3694   -9.6285 C   0  0  0  0  0  0  0  0  0  0  0  0
   27.0050  -19.6676   -8.4740 C   0  0  0  0  0  0  0  0  0  0  0  0
   27.9562  -19.5339   -7.4812 C   0  0  0  0  0  0  0  0  0  0  0  0
   29.2160  -20.1006   -7.6128 C   0  0  0  0  0  0  0  0  0  0  0  0
   29.4810  -20.7995   -8.7676 C   0  0  0  0  0  0  0  0  0  0  0  0
   28.5291  -20.9382   -9.7698 C   0  0  0  0  0  0  0  0  0  0  0  0
   24.1108  -21.3490  -11.3150 C   0  0  0  0  0  0  0  0  0  0  0  0
   23.9867  -21.9331  -12.4168 O   0  0  0  0  0  0  0  0  0  0  0  0
   20.8212  -19.5226  -10.8307 C   0  0  0  0  0  0  0  0  0  0  0  0
   21.7741  -20.5140  -11.4700 C   0  0  2  0  0  0  0  0  0  0  0  0
   23.1042  -20.4096  -10.9663 N   0  0  0  0  0  0  0  0  0  0  0  0
   21.7473  -20.3441  -12.9538 C   0  0  0  0  0  0  0  0  0  0  0  0
   22.5909  -19.5911  -13.5220 O   0  0  0  0  0  0  0  0  0  0  0  0
   20.7977  -21.0017  -13.7703 N   0  0  0  0  0  0  0  0  0  0  0  0
   20.8507  -20.7864  -15.2520 C   0  0  1  0  0  0  0  0  0  0  0  0
   20.6510  -22.1613  -15.8159 C   0  0  0  0  0  0  0  0  0  0  0  0
   21.6346  -22.7137  -16.7571 C   0  0  0  0  0  0  0  0  0  0  0  0
   21.3845  -23.9917  -17.3995 C   0  0  0  0  0  0  0  0  0  0  0  0
   22.1213  -24.4786  -18.3205 O   0  0  0  0  0  0  0  0  0  0  0  0
   19.7876  -19.8539  -15.6216 C   0  0  0  0  0  0  0  0  0  0  0  0
   19.8389  -19.2690  -16.9026 O   0  0  0  0  0  0  0  0  0  0  0  0
   20.2757  -24.7437  -16.9917 O   0  0  0  0  0  0  0  0  0  0  0  0
   18.8318  -19.5211  -14.9142 O   0  0  0  0  0  0  0  0  0  0  0  0
  2  1  1  6
  3  2  1  0
  3  4  1  0
  4  9  2  0
  5  4  1  0
  5  6  2  0
  6  7  1  0
  7  8  2  0
  9  8  1  0
 10  2  1  0
 10 11  2  0
 13 12  1  1
 13 14  1  0
 13 15  1  0
 14 10  1  0
 15 17  1  0
 16 15  2  0
 17 18  1  0
 18 19  1  6
 19 20  1  0
 20 21  1  0
 21 22  2  0
 21 25  1  0
 23 24  1  0
 23 18  1  0
 26 23  2  0
M  END
$$$$
