KDK.pdb
     RDKit          3D

 27 26  0  0  1  0  0  0  0  0999 V2000
   21.1954  -12.5211  -19.2758 N   0  0  0  0  0  0  0  0  0  0  0  0
   21.7729  -11.1849  -19.3820 C   0  0  1  0  0  0  0  0  0  0  0  0
   21.7845  -10.7738  -20.8349 C   0  0  0  0  0  0  0  0  0  0  0  0
   20.8639  -11.6458  -21.6218 C   0  0  0  0  0  0  0  0  0  0  0  0
   21.5484  -12.8369  -22.2713 C   0  0  0  0  0  0  0  0  0  0  0  0
   20.5876  -13.4968  -23.2303 C   0  0  0  0  0  0  0  0  0  0  0  0
   21.2122  -14.7009  -23.7853 N   0  0  0  0  0  0  0  0  0  0  0  0
   21.1236  -10.2035  -18.5034 C   0  0  0  0  0  0  0  0  0  0  0  0
   19.9099   -9.9479  -18.6787 O   0  0  0  0  0  0  0  0  0  0  0  0
   21.7888   -9.5005  -17.4420 N   0  0  0  0  0  0  0  0  0  0  0  0
   21.0880   -8.6407  -16.5315 C   0  0  1  0  0  0  0  0  0  0  0  0
   21.5523   -8.6667  -15.1152 C   0  0  0  0  0  0  0  0  0  0  0  0
   20.7303   -7.8824  -14.1762 C   0  0  0  0  0  0  0  0  0  0  0  0
   19.6777   -7.2710  -14.4857 O   0  0  0  0  0  0  0  0  0  0  0  0
   21.1806   -7.2377  -17.0926 C   0  0  0  0  0  0  0  0  0  0  0  0
   22.2746   -6.7737  -17.4870 O   0  0  0  0  0  0  0  0  0  0  0  0
   21.0945   -7.7660  -12.8198 O   0  0  0  0  0  0  0  0  0  0  0  0
   20.0435   -6.4006  -17.1923 N   0  0  0  0  0  0  0  0  0  0  0  0
   20.1630   -5.0988  -17.8485 C   0  0  1  0  0  0  0  0  0  0  0  0
   18.7992   -4.5942  -18.2682 C   0  0  0  0  0  0  0  0  0  0  0  0
   18.5280   -4.7153  -19.7403 C   0  0  0  0  0  0  0  0  0  0  0  0
   17.1569   -4.1693  -20.0752 C   0  0  0  0  0  0  0  0  0  0  0  0
   16.8245   -4.3045  -21.5356 C   0  0  0  0  0  0  0  0  0  0  0  0
   15.5139   -3.7675  -21.8723 N   0  0  0  0  0  0  0  0  0  0  0  0
   20.7263   -4.1621  -16.8613 C   0  0  0  0  0  0  0  0  0  0  0  0
   20.9179   -4.4222  -15.6562 O   0  0  0  0  0  0  0  0  0  0  0  0
   21.0815   -2.8831  -17.2736 O   0  0  0  0  0  0  0  0  0  0  0  0
  2  8  1  0
  2  1  1  6
  3  2  1  0
  4  3  1  0
  5  6  1  0
  5  4  1  0
  7  6  1  0
  8  9  2  0
 10 11  1  0
 10  8  1  0
 12 13  1  0
 11 12  1  1
 13 14  2  0
 15 16  2  0
 15 11  1  0
 17 13  1  0
 18 15  1  0
 19 25  1  0
 19 18  1  0
 19 20  1  1
 21 20  1  0
 22 21  1  0
 23 22  1  0
 23 24  1  0
 25 27  1  0
 26 25  2  0
M  END
$$$$
