KDK.pdb
     RDKit          3D

 27 26  0  0  1  0  0  0  0  0999 V2000
   13.2391  -11.2779   -9.8680 N   0  0  0  0  0  0  0  0  0  0  0  0
   14.5478  -10.6692   -9.6512 C   0  0  1  0  0  0  0  0  0  0  0  0
   15.5725  -11.4119  -10.4750 C   0  0  0  0  0  0  0  0  0  0  0  0
   14.8914  -12.3289  -11.4353 C   0  0  0  0  0  0  0  0  0  0  0  0
   15.8423  -13.0668  -12.3628 C   0  0  0  0  0  0  0  0  0  0  0  0
   15.0405  -13.9109  -13.3234 C   0  0  0  0  0  0  0  0  0  0  0  0
   15.9552  -14.6002  -14.2378 N   0  0  0  0  0  0  0  0  0  0  0  0
   14.5553   -9.2187   -9.8808 C   0  0  0  0  0  0  0  0  0  0  0  0
   13.6961   -8.7255  -10.6473 O   0  0  0  0  0  0  0  0  0  0  0  0
   15.4925   -8.3084   -9.2840 N   0  0  0  0  0  0  0  0  0  0  0  0
   15.5432   -6.9175   -9.6340 C   0  0  1  0  0  0  0  0  0  0  0  0
   15.9709   -5.9840   -8.5534 C   0  0  0  0  0  0  0  0  0  0  0  0
   14.8809   -5.4809   -7.6980 C   0  0  0  0  0  0  0  0  0  0  0  0
   14.2326   -6.1801   -6.8805 O   0  0  0  0  0  0  0  0  0  0  0  0
   16.4634   -6.7987  -10.8302 C   0  0  0  0  0  0  0  0  0  0  0  0
   17.6217   -7.2734  -10.8002 O   0  0  0  0  0  0  0  0  0  0  0  0
   14.4844   -4.1297   -7.7523 O   0  0  0  0  0  0  0  0  0  0  0  0
   16.0550   -6.1509  -12.0207 N   0  0  0  0  0  0  0  0  0  0  0  0
   16.9790   -6.0741  -13.1521 C   0  0  1  0  0  0  0  0  0  0  0  0
   16.2515   -6.3692  -14.4461 C   0  0  0  0  0  0  0  0  0  0  0  0
   17.0960   -6.1973  -15.6760 C   0  0  0  0  0  0  0  0  0  0  0  0
   16.2717   -6.4289  -16.9238 C   0  0  0  0  0  0  0  0  0  0  0  0
   17.0814   -6.2872  -18.1831 C   0  0  0  0  0  0  0  0  0  0  0  0
   16.2675   -6.3265  -19.3895 N   0  0  0  0  0  0  0  0  0  0  0  0
   17.4902   -4.6939  -13.2056 C   0  0  0  0  0  0  0  0  0  0  0  0
   18.4200   -4.3031  -13.9399 O   0  0  0  0  0  0  0  0  0  0  0  0
   16.9127   -3.7302  -12.3871 O   0  0  0  0  0  0  0  0  0  0  0  0
  2  8  1  0
  2  1  1  6
  3  2  1  0
  4  3  1  0
  5  6  1  0
  5  4  1  0
  7  6  1  0
  8  9  2  0
 10 11  1  0
 10  8  1  0
 12 13  1  0
 11 12  1  1
 13 14  2  0
 15 16  2  0
 15 11  1  0
 17 13  1  0
 18 15  1  0
 19 25  1  0
 19 18  1  0
 19 20  1  6
 21 20  1  0
 22 21  1  0
 23 22  1  0
 23 24  1  0
 25 27  1  0
 26 25  2  0
M  END
$$$$
