KDK.pdb
     RDKit          3D

 27 26  0  0  1  0  0  0  0  0999 V2000
   28.2466  -24.5836  -18.6080 N   0  0  0  0  0  0  0  0  0  0  0  0
   28.4636  -24.3260  -17.1879 C   0  0  1  0  0  0  0  0  0  0  0  0
   29.8767  -24.7217  -16.8318 C   0  0  0  0  0  0  0  0  0  0  0  0
   30.1608  -26.1030  -17.3199 C   0  0  0  0  0  0  0  0  0  0  0  0
   29.2359  -27.1624  -16.7443 C   0  0  0  0  0  0  0  0  0  0  0  0
   29.7156  -28.5261  -17.1782 C   0  0  0  0  0  0  0  0  0  0  0  0
   28.8487  -29.5511  -16.5901 N   0  0  0  0  0  0  0  0  0  0  0  0
   28.1251  -22.9531  -16.7915 C   0  0  0  0  0  0  0  0  0  0  0  0
   28.2471  -22.6257  -15.5886 O   0  0  0  0  0  0  0  0  0  0  0  0
   27.6536  -21.9413  -17.6954 N   0  0  0  0  0  0  0  0  0  0  0  0
   27.2794  -20.6284  -17.2529 C   0  0  1  0  0  0  0  0  0  0  0  0
   27.7347  -19.4938  -18.1058 C   0  0  0  0  0  0  0  0  0  0  0  0
   27.5756  -18.1584  -17.5022 C   0  0  0  0  0  0  0  0  0  0  0  0
   26.5848  -17.7948  -16.8213 O   0  0  0  0  0  0  0  0  0  0  0  0
   25.7710  -20.6212  -17.1245 C   0  0  0  0  0  0  0  0  0  0  0  0
   25.0422  -20.9585  -18.0851 O   0  0  0  0  0  0  0  0  0  0  0  0
   28.5667  -17.1696  -17.6632 O   0  0  0  0  0  0  0  0  0  0  0  0
   25.1292  -20.2354  -15.9233 N   0  0  0  0  0  0  0  0  0  0  0  0
   23.6722  -20.3205  -15.8258 C   0  0  1  0  0  0  0  0  0  0  0  0
   23.2430  -20.3520  -14.3748 C   0  0  0  0  0  0  0  0  0  0  0  0
   21.7589  -20.4698  -14.1778 C   0  0  0  0  0  0  0  0  0  0  0  0
   21.4082  -20.3747  -12.7088 C   0  0  0  0  0  0  0  0  0  0  0  0
   19.9435  -20.5982  -12.4511 C   0  0  0  0  0  0  0  0  0  0  0  0
   19.5864  -20.4624  -11.0463 N   0  0  0  0  0  0  0  0  0  0  0  0
   23.1210  -19.1066  -16.4518 C   0  0  0  0  0  0  0  0  0  0  0  0
   23.7383  -18.0319  -16.5949 O   0  0  0  0  0  0  0  0  0  0  0  0
   21.8159  -19.1291  -16.9295 O   0  0  0  0  0  0  0  0  0  0  0  0
  2  8  1  0
  2  1  1  6
  3  2  1  0
  4  3  1  0
  5  6  1  0
  5  4  1  0
  7  6  1  0
  8  9  2  0
 10 11  1  0
 10  8  1  0
 12 13  1  0
 11 12  1  6
 13 14  2  0
 15 16  2  0
 15 11  1  0
 17 13  1  0
 18 15  1  0
 19 25  1  0
 19 18  1  0
 19 20  1  1
 21 20  1  0
 22 21  1  0
 23 22  1  0
 23 24  1  0
 25 27  1  0
 26 25  2  0
M  END
$$$$
