KDK.pdb
     RDKit          3D

 27 26  0  0  1  0  0  0  0  0999 V2000
   19.5914  -27.9755   -9.6215 N   0  0  0  0  0  0  0  0  0  0  0  0
   19.0050  -26.7584  -10.1736 C   0  0  1  0  0  0  0  0  0  0  0  0
   18.8922  -25.7301   -9.0735 C   0  0  0  0  0  0  0  0  0  0  0  0
   17.9288  -26.1958   -8.0333 C   0  0  0  0  0  0  0  0  0  0  0  0
   17.6351  -25.1623   -6.9586 C   0  0  0  0  0  0  0  0  0  0  0  0
   16.5184  -25.6683   -6.0782 C   0  0  0  0  0  0  0  0  0  0  0  0
   16.2554  -24.6866   -5.0222 N   0  0  0  0  0  0  0  0  0  0  0  0
   19.7113  -26.2649  -11.3628 C   0  0  0  0  0  0  0  0  0  0  0  0
   20.8874  -26.6452  -11.5662 O   0  0  0  0  0  0  0  0  0  0  0  0
   19.1454  -25.3608  -12.3248 N   0  0  0  0  0  0  0  0  0  0  0  0
   19.8470  -24.9625  -13.5117 C   0  0  1  0  0  0  0  0  0  0  0  0
   19.4462  -25.6492  -14.7726 C   0  0  0  0  0  0  0  0  0  0  0  0
   20.0158  -26.9964  -14.9558 C   0  0  0  0  0  0  0  0  0  0  0  0
   19.3609  -28.0075  -15.3113 O   0  0  0  0  0  0  0  0  0  0  0  0
   19.6692  -23.4651  -13.6456 C   0  0  0  0  0  0  0  0  0  0  0  0
   18.6039  -22.9098  -13.2927 O   0  0  0  0  0  0  0  0  0  0  0  0
   21.3856  -27.2388  -14.7305 O   0  0  0  0  0  0  0  0  0  0  0  0
   20.6915  -22.6394  -14.1716 N   0  0  0  0  0  0  0  0  0  0  0  0
   20.4115  -21.2289  -14.4396 C   0  0  1  0  0  0  0  0  0  0  0  0
   21.6566  -20.5322  -14.9446 C   0  0  0  0  0  0  0  0  0  0  0  0
   21.4521  -19.0841  -15.2856 C   0  0  0  0  0  0  0  0  0  0  0  0
   22.7175  -18.4903  -15.8653 C   0  0  0  0  0  0  0  0  0  0  0  0
   22.5744  -17.0271  -16.1816 C   0  0  0  0  0  0  0  0  0  0  0  0
   23.8032  -16.4320  -16.6868 N   0  0  0  0  0  0  0  0  0  0  0  0
   19.3858  -21.1803  -15.4955 C   0  0  0  0  0  0  0  0  0  0  0  0
   19.3570  -21.9200  -16.4998 O   0  0  0  0  0  0  0  0  0  0  0  0
   18.3584  -20.2498  -15.3933 O   0  0  0  0  0  0  0  0  0  0  0  0
  2  8  1  0
  2  1  1  1
  3  2  1  0
  4  3  1  0
  5  6  1  0
  5  4  1  0
  7  6  1  0
  8  9  2  0
 10 11  1  0
 10  8  1  0
 12 13  1  0
 11 12  1  6
 13 14  2  0
 15 16  2  0
 15 11  1  0
 17 13  1  0
 18 15  1  0
 19 25  1  0
 19 18  1  0
 19 20  1  6
 21 20  1  0
 22 21  1  0
 23 22  1  0
 23 24  1  0
 25 27  1  0
 26 25  2  0
M  END
$$$$
