KDK.pdb
     RDKit          3D

 27 26  0  0  1  0  0  0  0  0999 V2000
   22.8727  -10.2964  -17.2446 N   0  0  0  0  0  0  0  0  0  0  0  0
   22.1099  -10.6822  -16.0616 C   0  0  1  0  0  0  0  0  0  0  0  0
   22.8992  -11.7110  -15.2877 C   0  0  0  0  0  0  0  0  0  0  0  0
   23.8761  -12.3911  -16.1878 C   0  0  0  0  0  0  0  0  0  0  0  0
   24.7884  -13.3756  -15.4755 C   0  0  0  0  0  0  0  0  0  0  0  0
   25.8592  -13.8392  -16.4329 C   0  0  0  0  0  0  0  0  0  0  0  0
   26.8062  -14.6986  -15.7169 N   0  0  0  0  0  0  0  0  0  0  0  0
   21.6895   -9.5355  -15.2461 C   0  0  0  0  0  0  0  0  0  0  0  0
   21.0087   -9.7461  -14.2158 O   0  0  0  0  0  0  0  0  0  0  0  0
   22.0035   -8.1670  -15.5487 N   0  0  0  0  0  0  0  0  0  0  0  0
   21.5297   -7.0740  -14.7483 C   0  0  1  0  0  0  0  0  0  0  0  0
   22.5239   -6.0068  -14.4404 C   0  0  0  0  0  0  0  0  0  0  0  0
   22.0627   -4.9836  -13.4848 C   0  0  0  0  0  0  0  0  0  0  0  0
   21.2721   -5.1986  -12.5328 O   0  0  0  0  0  0  0  0  0  0  0  0
   20.3324   -6.4897  -15.4672 C   0  0  0  0  0  0  0  0  0  0  0  0
   20.4256   -6.0861  -16.6488 O   0  0  0  0  0  0  0  0  0  0  0  0
   22.4985   -3.6476  -13.5900 O   0  0  0  0  0  0  0  0  0  0  0  0
   19.0699   -6.3764  -14.8373 N   0  0  0  0  0  0  0  0  0  0  0  0
   17.9169   -5.9186  -15.6125 C   0  0  1  0  0  0  0  0  0  0  0  0
   16.6676   -6.6573  -15.1830 C   0  0  0  0  0  0  0  0  0  0  0  0
   15.4089   -6.1623  -15.8356 C   0  0  0  0  0  0  0  0  0  0  0  0
   14.1990   -6.8643  -15.2583 C   0  0  0  0  0  0  0  0  0  0  0  0
   12.9151   -6.4261  -15.9073 C   0  0  0  0  0  0  0  0  0  0  0  0
   11.7395   -7.0568  -15.3246 N   0  0  0  0  0  0  0  0  0  0  0  0
   17.7373   -4.4857  -15.3233 C   0  0  0  0  0  0  0  0  0  0  0  0
   17.1000   -3.6858  -16.0379 O   0  0  0  0  0  0  0  0  0  0  0  0
   18.3097   -3.9543  -14.1736 O   0  0  0  0  0  0  0  0  0  0  0  0
  2  8  1  0
  2  1  1  6
  3  2  1  0
  4  3  1  0
  5  6  1  0
  5  4  1  0
  7  6  1  0
  8  9  2  0
 10 11  1  0
 10  8  1  0
 12 13  1  0
 11 12  1  6
 13 14  2  0
 15 16  2  0
 15 11  1  0
 17 13  1  0
 18 15  1  0
 19 25  1  0
 19 18  1  0
 19 20  1  1
 21 20  1  0
 22 21  1  0
 23 22  1  0
 23 24  1  0
 25 27  1  0
 26 25  2  0
M  END
$$$$
