KDK.pdb
     RDKit          3D

 27 26  0  0  1  0  0  0  0  0999 V2000
   21.2602  -11.4304  -15.4364 N   0  0  0  0  0  0  0  0  0  0  0  0
   20.2317  -10.5010  -15.8933 C   0  0  1  0  0  0  0  0  0  0  0  0
   18.8988  -11.2107  -15.8913 C   0  0  0  0  0  0  0  0  0  0  0  0
   18.9329  -12.3682  -16.8324 C   0  0  0  0  0  0  0  0  0  0  0  0
   17.7059  -12.4751  -17.7225 C   0  0  0  0  0  0  0  0  0  0  0  0
   17.8612  -13.6654  -18.6376 C   0  0  0  0  0  0  0  0  0  0  0  0
   16.7570  -13.6790  -19.6014 N   0  0  0  0  0  0  0  0  0  0  0  0
   20.2208   -9.2378  -15.1444 C   0  0  0  0  0  0  0  0  0  0  0  0
   19.5884   -9.1830  -14.0644 O   0  0  0  0  0  0  0  0  0  0  0  0
   20.8902   -8.0392  -15.5667 N   0  0  0  0  0  0  0  0  0  0  0  0
   20.8980   -6.8426  -14.7743 C   0  0  1  0  0  0  0  0  0  0  0  0
   22.2396   -6.2830  -14.4442 C   0  0  0  0  0  0  0  0  0  0  0  0
   22.2173   -5.0234  -13.6788 C   0  0  0  0  0  0  0  0  0  0  0  0
   22.2358   -3.8759  -14.1893 O   0  0  0  0  0  0  0  0  0  0  0  0
   20.0660   -5.8186  -15.5166 C   0  0  0  0  0  0  0  0  0  0  0  0
   20.2772   -5.5729  -16.7261 O   0  0  0  0  0  0  0  0  0  0  0  0
   22.1750   -5.0341  -12.2703 O   0  0  0  0  0  0  0  0  0  0  0  0
   19.0249   -5.1030  -14.8782 N   0  0  0  0  0  0  0  0  0  0  0  0
   18.2126   -4.1670  -15.6553 C   0  0  1  0  0  0  0  0  0  0  0  0
   16.7403   -4.4408  -15.4362 C   0  0  0  0  0  0  0  0  0  0  0  0
   15.8282   -3.4435  -16.0908 C   0  0  0  0  0  0  0  0  0  0  0  0
   14.3820   -3.7578  -15.7748 C   0  0  0  0  0  0  0  0  0  0  0  0
   13.4314   -2.7588  -16.3748 C   0  0  0  0  0  0  0  0  0  0  0  0
   12.0357   -3.0625  -16.0935 N   0  0  0  0  0  0  0  0  0  0  0  0
   18.5162   -2.8125  -15.1631 C   0  0  0  0  0  0  0  0  0  0  0  0
   18.9971   -2.5494  -14.0423 O   0  0  0  0  0  0  0  0  0  0  0  0
   18.2581   -1.7235  -15.9873 O   0  0  0  0  0  0  0  0  0  0  0  0
  2  8  1  0
  2  1  1  1
  3  2  1  0
  4  3  1  0
  5  6  1  0
  5  4  1  0
  7  6  1  0
  8  9  2  0
 10 11  1  0
 10  8  1  0
 12 13  1  0
 11 12  1  6
 13 14  2  0
 15 16  2  0
 15 11  1  0
 17 13  1  0
 18 15  1  0
 19 25  1  0
 19 18  1  0
 19 20  1  1
 21 20  1  0
 22 21  1  0
 23 22  1  0
 23 24  1  0
 25 27  1  0
 26 25  2  0
M  END
$$$$
