KDK.pdb
     RDKit          3D

 27 26  0  0  1  0  0  0  0  0999 V2000
   23.8686  -19.4268  -17.0754 N   0  0  0  0  0  0  0  0  0  0  0  0
   23.9450  -19.1351  -15.6474 C   0  0  1  0  0  0  0  0  0  0  0  0
   24.7586  -17.8784  -15.4501 C   0  0  0  0  0  0  0  0  0  0  0  0
   26.2137  -18.1845  -15.5771 C   0  0  0  0  0  0  0  0  0  0  0  0
   26.6639  -18.4574  -17.0026 C   0  0  0  0  0  0  0  0  0  0  0  0
   28.1640  -18.6233  -17.0241 C   0  0  0  0  0  0  0  0  0  0  0  0
   28.6237  -18.6672  -18.4151 N   0  0  0  0  0  0  0  0  0  0  0  0
   22.6293  -19.0860  -14.9968 C   0  0  0  0  0  0  0  0  0  0  0  0
   22.2034  -17.9837  -14.5811 O   0  0  0  0  0  0  0  0  0  0  0  0
   21.7814  -20.2277  -14.7953 N   0  0  0  0  0  0  0  0  0  0  0  0
   20.4758  -20.1223  -14.2090 C   0  0  1  0  0  0  0  0  0  0  0  0
   19.3847  -19.6634  -15.1151 C   0  0  0  0  0  0  0  0  0  0  0  0
   18.0595  -19.5410  -14.4812 C   0  0  0  0  0  0  0  0  0  0  0  0
   17.2247  -20.4743  -14.3830 O   0  0  0  0  0  0  0  0  0  0  0  0
   20.1442  -21.4802  -13.6276 C   0  0  0  0  0  0  0  0  0  0  0  0
   20.2126  -22.5146  -14.3298 O   0  0  0  0  0  0  0  0  0  0  0  0
   17.6333  -18.3172  -13.9276 O   0  0  0  0  0  0  0  0  0  0  0  0
   19.7461  -21.6337  -12.2780 N   0  0  0  0  0  0  0  0  0  0  0  0
   19.3995  -22.9633  -11.7762 C   0  0  1  0  0  0  0  0  0  0  0  0
   19.1924  -22.9223  -10.2775 C   0  0  0  0  0  0  0  0  0  0  0  0
   18.8862  -24.2589   -9.6650 C   0  0  0  0  0  0  0  0  0  0  0  0
   18.7958  -24.1456   -8.1587 C   0  0  0  0  0  0  0  0  0  0  0  0
   18.4494  -25.4538   -7.5028 C   0  0  0  0  0  0  0  0  0  0  0  0
   18.3281  -25.3495   -6.0558 N   0  0  0  0  0  0  0  0  0  0  0  0
   18.1309  -23.3539  -12.4144 C   0  0  0  0  0  0  0  0  0  0  0  0
   17.2036  -22.5704  -12.7022 O   0  0  0  0  0  0  0  0  0  0  0  0
   17.9214  -24.6906  -12.7327 O   0  0  0  0  0  0  0  0  0  0  0  0
  2  8  1  0
  2  1  1  6
  3  2  1  0
  4  3  1  0
  5  6  1  0
  5  4  1  0
  7  6  1  0
  8  9  2  0
 10 11  1  0
 10  8  1  0
 12 13  1  0
 11 12  1  6
 13 14  2  0
 15 16  2  0
 15 11  1  0
 17 13  1  0
 18 15  1  0
 19 25  1  0
 19 18  1  0
 19 20  1  1
 21 20  1  0
 22 21  1  0
 23 22  1  0
 23 24  1  0
 25 27  1  0
 26 25  2  0
M  END
$$$$
