KDK.pdb
     RDKit          3D

 27 26  0  0  1  0  0  0  0  0999 V2000
   17.1529  -13.9966  -15.5310 N   0  0  0  0  0  0  0  0  0  0  0  0
   17.6078  -13.5496  -16.8438 C   0  0  1  0  0  0  0  0  0  0  0  0
   16.5870  -13.9595  -17.8783 C   0  0  0  0  0  0  0  0  0  0  0  0
   16.0457  -15.3124  -17.5563 C   0  0  0  0  0  0  0  0  0  0  0  0
   14.8828  -15.7366  -18.4377 C   0  0  0  0  0  0  0  0  0  0  0  0
   14.3706  -17.0769  -17.9693 C   0  0  0  0  0  0  0  0  0  0  0  0
   13.2331  -17.4759  -18.8030 N   0  0  0  0  0  0  0  0  0  0  0  0
   17.9373  -12.1191  -16.8847 C   0  0  0  0  0  0  0  0  0  0  0  0
   18.3936  -11.6359  -17.9466 O   0  0  0  0  0  0  0  0  0  0  0  0
   17.7755  -11.2179  -15.7780 N   0  0  0  0  0  0  0  0  0  0  0  0
   18.1121   -9.8255  -15.8642 C   0  0  1  0  0  0  0  0  0  0  0  0
   17.0993   -8.8712  -15.3300 C   0  0  0  0  0  0  0  0  0  0  0  0
   17.5147   -7.4569  -15.3323 C   0  0  0  0  0  0  0  0  0  0  0  0
   17.6700   -6.7554  -14.3020 O   0  0  0  0  0  0  0  0  0  0  0  0
   19.4347   -9.6481  -15.1492 C   0  0  0  0  0  0  0  0  0  0  0  0
   19.6333  -10.1658  -14.0265 O   0  0  0  0  0  0  0  0  0  0  0  0
   17.7699   -6.7804  -16.5419 O   0  0  0  0  0  0  0  0  0  0  0  0
   20.4909   -8.8954  -15.7161 N   0  0  0  0  0  0  0  0  0  0  0  0
   21.7876   -8.8520  -15.0405 C   0  0  1  0  0  0  0  0  0  0  0  0
   22.8149   -9.6413  -15.8230 C   0  0  0  0  0  0  0  0  0  0  0  0
   24.2024   -9.5752  -15.2522 C   0  0  0  0  0  0  0  0  0  0  0  0
   25.1322  -10.5012  -16.0057 C   0  0  0  0  0  0  0  0  0  0  0  0
   26.5140  -10.5367  -15.4132 C   0  0  0  0  0  0  0  0  0  0  0  0
   27.4403  -11.3574  -16.1798 N   0  0  0  0  0  0  0  0  0  0  0  0
   22.2114   -7.4421  -14.9989 C   0  0  0  0  0  0  0  0  0  0  0  0
   23.0787   -6.9779  -14.2315 O   0  0  0  0  0  0  0  0  0  0  0  0
   21.6180   -6.5351  -15.8690 O   0  0  0  0  0  0  0  0  0  0  0  0
  2  8  1  0
  2  1  1  1
  3  2  1  0
  4  3  1  0
  5  6  1  0
  5  4  1  0
  7  6  1  0
  8  9  2  0
 10 11  1  0
 10  8  1  0
 12 13  1  0
 11 12  1  1
 13 14  2  0
 15 16  2  0
 15 11  1  0
 17 13  1  0
 18 15  1  0
 19 25  1  0
 19 18  1  0
 19 20  1  6
 21 20  1  0
 22 21  1  0
 23 22  1  0
 23 24  1  0
 25 27  1  0
 26 25  2  0
M  END
$$$$
