KDK.pdb
     RDKit          3D

 27 26  0  0  1  0  0  0  0  0999 V2000
   25.2964  -19.7022  -17.9568 N   0  0  0  0  0  0  0  0  0  0  0  0
   25.5439  -19.5362  -16.5281 C   0  0  1  0  0  0  0  0  0  0  0  0
   26.6676  -18.5450  -16.3407 C   0  0  0  0  0  0  0  0  0  0  0  0
   27.9831  -19.2485  -16.3770 C   0  0  0  0  0  0  0  0  0  0  0  0
   27.9109  -20.6624  -16.9292 C   0  0  0  0  0  0  0  0  0  0  0  0
   29.2698  -21.3087  -16.8126 C   0  0  0  0  0  0  0  0  0  0  0  0
   29.1741  -22.7100  -17.2312 N   0  0  0  0  0  0  0  0  0  0  0  0
   24.3341  -19.1967  -15.7679 C   0  0  0  0  0  0  0  0  0  0  0  0
   24.4274  -19.0296  -14.5299 O   0  0  0  0  0  0  0  0  0  0  0  0
   23.0290  -19.0424  -16.3477 N   0  0  0  0  0  0  0  0  0  0  0  0
   21.8726  -18.7155  -15.5632 C   0  0  1  0  0  0  0  0  0  0  0  0
   21.0121  -17.6176  -16.0887 C   0  0  0  0  0  0  0  0  0  0  0  0
   21.6518  -16.2902  -16.1286 C   0  0  0  0  0  0  0  0  0  0  0  0
   22.1880  -15.7248  -15.1435 O   0  0  0  0  0  0  0  0  0  0  0  0
   21.0699  -19.9900  -15.4115 C   0  0  0  0  0  0  0  0  0  0  0  0
   20.8591  -20.7380  -16.3933 O   0  0  0  0  0  0  0  0  0  0  0  0
   21.6983  -15.5458  -17.3243 O   0  0  0  0  0  0  0  0  0  0  0  0
   20.5292  -20.3837  -14.1641 N   0  0  0  0  0  0  0  0  0  0  0  0
   19.7571  -21.6228  -14.0727 C   0  0  1  0  0  0  0  0  0  0  0  0
   19.7018  -22.1036  -12.6387 C   0  0  0  0  0  0  0  0  0  0  0  0
   19.0402  -23.4407  -12.4664 C   0  0  0  0  0  0  0  0  0  0  0  0
   19.1598  -23.9126  -11.0336 C   0  0  0  0  0  0  0  0  0  0  0  0
   18.5642  -25.2777  -10.8255 C   0  0  0  0  0  0  0  0  0  0  0  0
   18.7683  -25.7874   -9.4772 N   0  0  0  0  0  0  0  0  0  0  0  0
   18.3869  -21.3174  -14.5182 C   0  0  0  0  0  0  0  0  0  0  0  0
   17.8054  -20.2267  -14.3479 O   0  0  0  0  0  0  0  0  0  0  0  0
   17.6605  -22.2991  -15.1821 O   0  0  0  0  0  0  0  0  0  0  0  0
  2  8  1  0
  2  1  1  6
  3  2  1  0
  4  3  1  0
  5  6  1  0
  5  4  1  0
  7  6  1  0
  8  9  2  0
 10 11  1  0
 10  8  1  0
 12 13  1  0
 11 12  1  6
 13 14  2  0
 15 16  2  0
 15 11  1  0
 17 13  1  0
 18 15  1  0
 19 25  1  0
 19 18  1  0
 19 20  1  1
 21 20  1  0
 22 21  1  0
 23 22  1  0
 23 24  1  0
 25 27  1  0
 26 25  2  0
M  END
$$$$
