KDK.pdb
     RDKit          3D

 27 26  0  0  1  0  0  0  0  0999 V2000
   19.6413  -13.7860  -16.8260 N   0  0  0  0  0  0  0  0  0  0  0  0
   19.5262  -12.4909  -17.4891 C   0  0  1  0  0  0  0  0  0  0  0  0
   18.3652  -12.5394  -18.4535 C   0  0  0  0  0  0  0  0  0  0  0  0
   18.7069  -13.3989  -19.6246 C   0  0  0  0  0  0  0  0  0  0  0  0
   19.8291  -12.8467  -20.4876 C   0  0  0  0  0  0  0  0  0  0  0  0
   20.0673  -13.7829  -21.6474 C   0  0  0  0  0  0  0  0  0  0  0  0
   21.1690  -13.2666  -22.4646 N   0  0  0  0  0  0  0  0  0  0  0  0
   19.4567  -11.3648  -16.5491 C   0  0  0  0  0  0  0  0  0  0  0  0
   18.5233  -11.3335  -15.7142 O   0  0  0  0  0  0  0  0  0  0  0  0
   20.3935  -10.2764  -16.5173 N   0  0  0  0  0  0  0  0  0  0  0  0
   20.2946   -9.2040  -15.5687 C   0  0  1  0  0  0  0  0  0  0  0  0
   21.5711   -8.5194  -15.2168 C   0  0  0  0  0  0  0  0  0  0  0  0
   21.4506   -7.4658  -14.1930 C   0  0  0  0  0  0  0  0  0  0  0  0
   22.0207   -6.3479  -14.2467 O   0  0  0  0  0  0  0  0  0  0  0  0
   19.2995   -8.2110  -16.1304 C   0  0  0  0  0  0  0  0  0  0  0  0
   19.3599   -7.8467  -17.3268 O   0  0  0  0  0  0  0  0  0  0  0  0
   20.6573   -7.6609  -13.0448 O   0  0  0  0  0  0  0  0  0  0  0  0
   18.2696   -7.6584  -15.3319 N   0  0  0  0  0  0  0  0  0  0  0  0
   17.3712   -6.6574  -15.9068 C   0  0  1  0  0  0  0  0  0  0  0  0
   16.0532   -6.6445  -15.1630 C   0  0  0  0  0  0  0  0  0  0  0  0
   15.0606   -5.6502  -15.6935 C   0  0  0  0  0  0  0  0  0  0  0  0
   13.7424   -5.7715  -14.9601 C   0  0  0  0  0  0  0  0  0  0  0  0
   12.6843   -4.8638  -15.5240 C   0  0  0  0  0  0  0  0  0  0  0  0
   11.4076   -4.9821  -14.8345 N   0  0  0  0  0  0  0  0  0  0  0  0
   18.0167   -5.3441  -15.7401 C   0  0  0  0  0  0  0  0  0  0  0  0
   17.8556   -4.3661  -16.4978 O   0  0  0  0  0  0  0  0  0  0  0  0
   18.8766   -5.1485  -14.6657 O   0  0  0  0  0  0  0  0  0  0  0  0
  2  8  1  0
  2  1  1  1
  3  2  1  0
  4  3  1  0
  5  6  1  0
  5  4  1  0
  7  6  1  0
  8  9  2  0
 10 11  1  0
 10  8  1  0
 12 13  1  0
 11 12  1  6
 13 14  2  0
 15 16  2  0
 15 11  1  0
 17 13  1  0
 18 15  1  0
 19 25  1  0
 19 18  1  0
 19 20  1  1
 21 20  1  0
 22 21  1  0
 23 22  1  0
 23 24  1  0
 25 27  1  0
 26 25  2  0
M  END
$$$$
