KDK.pdb
     RDKit          3D

 27 26  0  0  1  0  0  0  0  0999 V2000
   20.0013  -11.2120  -15.9443 N   0  0  0  0  0  0  0  0  0  0  0  0
   19.0057  -10.2025  -15.5980 C   0  0  1  0  0  0  0  0  0  0  0  0
   17.6522  -10.8656  -15.5052 C   0  0  0  0  0  0  0  0  0  0  0  0
   17.4012  -11.6912  -16.7228 C   0  0  0  0  0  0  0  0  0  0  0  0
   15.9797  -12.2178  -16.8278 C   0  0  0  0  0  0  0  0  0  0  0  0
   15.9243  -13.6105  -16.2485 C   0  0  0  0  0  0  0  0  0  0  0  0
   16.0885  -14.5880  -17.3282 N   0  0  0  0  0  0  0  0  0  0  0  0
   19.3595   -9.4292  -14.4008 C   0  0  0  0  0  0  0  0  0  0  0  0
   19.1943   -9.9527  -13.2747 O   0  0  0  0  0  0  0  0  0  0  0  0
   19.8869   -8.0934  -14.4250 N   0  0  0  0  0  0  0  0  0  0  0  0
   20.2685   -7.3953  -13.2306 C   0  0  1  0  0  0  0  0  0  0  0  0
   21.2612   -6.2965  -13.4015 C   0  0  0  0  0  0  0  0  0  0  0  0
   21.6446   -5.6051  -12.1574 C   0  0  0  0  0  0  0  0  0  0  0  0
   22.0411   -4.4150  -12.0936 O   0  0  0  0  0  0  0  0  0  0  0  0
   18.9955   -6.8654  -12.6057 C   0  0  0  0  0  0  0  0  0  0  0  0
   18.2160   -6.1330  -13.2567 O   0  0  0  0  0  0  0  0  0  0  0  0
   21.5887   -6.2681  -10.9151 O   0  0  0  0  0  0  0  0  0  0  0  0
   18.6387   -7.1733  -11.2710 N   0  0  0  0  0  0  0  0  0  0  0  0
   17.3688   -6.6846  -10.7341 C   0  0  1  0  0  0  0  0  0  0  0  0
   16.5074   -7.8444  -10.2829 C   0  0  0  0  0  0  0  0  0  0  0  0
   15.2150   -7.4326   -9.6383 C   0  0  0  0  0  0  0  0  0  0  0  0
   14.4374   -8.6479   -9.1819 C   0  0  0  0  0  0  0  0  0  0  0  0
   13.1415   -8.2836   -8.5114 C   0  0  0  0  0  0  0  0  0  0  0  0
   12.3989   -9.4442   -8.0414 N   0  0  0  0  0  0  0  0  0  0  0  0
   17.6827   -5.8496   -9.5621 C   0  0  0  0  0  0  0  0  0  0  0  0
   18.7587   -5.8773   -8.9312 O   0  0  0  0  0  0  0  0  0  0  0  0
   16.7271   -4.9524   -9.0998 O   0  0  0  0  0  0  0  0  0  0  0  0
  2  8  1  0
  2  1  1  1
  3  2  1  0
  4  3  1  0
  5  6  1  0
  5  4  1  0
  7  6  1  0
  8  9  2  0
 10 11  1  0
 10  8  1  0
 12 13  1  0
 11 12  1  6
 13 14  2  0
 15 16  2  0
 15 11  1  0
 17 13  1  0
 18 15  1  0
 19 25  1  0
 19 18  1  0
 19 20  1  1
 21 20  1  0
 22 21  1  0
 23 22  1  0
 23 24  1  0
 25 27  1  0
 26 25  2  0
M  END
$$$$
