KDK.pdb
     RDKit          3D

 27 26  0  0  1  0  0  0  0  0999 V2000
   17.0890  -23.8932  -11.0824 N   0  0  0  0  0  0  0  0  0  0  0  0
   18.0528  -22.8335  -10.8026 C   0  0  1  0  0  0  0  0  0  0  0  0
   19.2541  -23.4373  -10.1150 C   0  0  0  0  0  0  0  0  0  0  0  0
   18.9399  -23.7133   -8.6825 C   0  0  0  0  0  0  0  0  0  0  0  0
   18.1715  -25.0049   -8.4579 C   0  0  0  0  0  0  0  0  0  0  0  0
   17.8565  -25.1436   -6.9883 C   0  0  0  0  0  0  0  0  0  0  0  0
   17.0232  -26.3320   -6.7846 N   0  0  0  0  0  0  0  0  0  0  0  0
   18.3980  -22.0388  -11.9883 C   0  0  0  0  0  0  0  0  0  0  0  0
   18.5098  -22.6206  -13.0921 O   0  0  0  0  0  0  0  0  0  0  0  0
   18.6240  -20.6204  -11.9760 N   0  0  0  0  0  0  0  0  0  0  0  0
   18.9485  -19.8828  -13.1635 C   0  0  1  0  0  0  0  0  0  0  0  0
   18.5051  -18.4600  -13.1940 C   0  0  0  0  0  0  0  0  0  0  0  0
   17.0442  -18.2633  -13.1983 C   0  0  0  0  0  0  0  0  0  0  0  0
   16.2450  -18.8557  -13.9651 O   0  0  0  0  0  0  0  0  0  0  0  0
   20.4494  -19.9728  -13.3402 C   0  0  0  0  0  0  0  0  0  0  0  0
   21.2266  -19.4142  -12.5330 O   0  0  0  0  0  0  0  0  0  0  0  0
   16.4340  -17.3589  -12.3063 O   0  0  0  0  0  0  0  0  0  0  0  0
   21.0295  -20.6855  -14.4168 N   0  0  0  0  0  0  0  0  0  0  0  0
   22.4857  -20.7858  -14.5125 C   0  0  1  0  0  0  0  0  0  0  0  0
   22.8926  -22.1956  -14.8835 C   0  0  0  0  0  0  0  0  0  0  0  0
   24.3772  -22.3971  -14.9868 C   0  0  0  0  0  0  0  0  0  0  0  0
   24.6948  -23.8286  -15.3609 C   0  0  0  0  0  0  0  0  0  0  0  0
   26.1719  -24.1111  -15.3542 C   0  0  0  0  0  0  0  0  0  0  0  0
   26.4923  -25.4708  -15.7639 N   0  0  0  0  0  0  0  0  0  0  0  0
   22.9165  -19.8751  -15.5869 C   0  0  0  0  0  0  0  0  0  0  0  0
   22.2014  -19.5028  -16.5391 O   0  0  0  0  0  0  0  0  0  0  0  0
   24.2133  -19.3755  -15.5659 O   0  0  0  0  0  0  0  0  0  0  0  0
  2  8  1  0
  2  1  1  6
  3  2  1  0
  4  3  1  0
  5  6  1  0
  5  4  1  0
  7  6  1  0
  8  9  2  0
 10 11  1  0
 10  8  1  0
 12 13  1  0
 11 12  1  1
 13 14  2  0
 15 16  2  0
 15 11  1  0
 17 13  1  0
 18 15  1  0
 19 25  1  0
 19 18  1  0
 19 20  1  6
 21 20  1  0
 22 21  1  0
 23 22  1  0
 23 24  1  0
 25 27  1  0
 26 25  2  0
M  END
$$$$
