VKV.pdb
     RDKit          3D

 24 23  0  0  1  0  0  0  0  0999 V2000
   26.3919  -16.2782  -18.4071 C   0  0  0  0  0  0  0  0  0  0  0  0
   26.4324  -17.4395  -17.4481 C   0  0  2  0  0  0  0  0  0  0  0  0
   27.8216  -18.0305  -17.4913 C   0  0  0  0  0  0  0  0  0  0  0  0
   25.3681  -18.4600  -17.7373 C   0  0  2  0  0  0  0  0  0  0  0  0
   25.5729  -18.9712  -19.0657 N   0  0  0  0  0  0  0  0  0  0  0  0
   24.0156  -17.8993  -17.6126 C   0  0  0  0  0  0  0  0  0  0  0  0
   23.4433  -17.3607  -18.6217 O   0  0  0  0  0  0  0  0  0  0  0  0
   23.2532  -17.9087  -16.4144 N   0  0  0  0  0  0  0  0  0  0  0  0
   22.0004  -17.2937  -16.2120 C   0  0  1  0  0  0  0  0  0  0  0  0
   20.9230  -18.1467  -15.6004 C   0  0  0  0  0  0  0  0  0  0  0  0
   19.5939  -17.4173  -15.5982 C   0  0  0  0  0  0  0  0  0  0  0  0
   18.4335  -18.2890  -15.1881 C   0  0  0  0  0  0  0  0  0  0  0  0
   17.1242  -17.5229  -15.2686 C   0  0  0  0  0  0  0  0  0  0  0  0
   15.9839  -18.3458  -14.9252 N   0  0  0  0  0  0  0  0  0  0  0  0
   22.0984  -16.0488  -15.4257 C   0  0  0  0  0  0  0  0  0  0  0  0
   22.5100  -16.1358  -14.2223 O   0  0  0  0  0  0  0  0  0  0  0  0
   23.8672  -12.5436  -16.4609 C   0  0  0  0  0  0  0  0  0  0  0  0
   23.5117  -13.1011  -15.0937 C   0  0  1  0  0  0  0  0  0  0  0  0
   23.7667  -11.9713  -14.1097 C   0  0  0  0  0  0  0  0  0  0  0  0
   22.1324  -13.6181  -15.0003 C   0  0  2  0  0  0  0  0  0  0  0  0
   21.7803  -14.7352  -15.8476 N   0  0  0  0  0  0  0  0  0  0  0  0
   21.1182  -12.4994  -15.2050 C   0  0  0  0  0  0  0  0  0  0  0  0
   20.2006  -12.5580  -16.2316 O   0  0  0  0  0  0  0  0  0  0  0  0
   21.0736  -11.5008  -14.4681 O   0  0  0  0  0  0  0  0  0  0  0  0
  2  1  1  6
  2  4  1  0
  2  3  1  0
  4  5  1  6
  6  4  1  0
  7  6  2  0
  8  6  1  0
  9 10  1  1
  9  8  1  0
 10 11  1  0
 11 12  1  0
 13 12  1  0
 14 13  1  0
 15  9  1  0
 16 15  2  0
 18 17  1  6
 18 19  1  0
 18 20  1  0
 20 21  1  6
 21 15  1  0
 22 20  1  0
 22 23  1  0
 24 22  2  0
M  END
$$$$
