VKV.pdb
     RDKit          3D

 24 23  0  0  1  0  0  0  0  0999 V2000
   35.7187   -7.1186  -15.7659 C   0  0  0  0  0  0  0  0  0  0  0  0
   35.6532   -8.2729  -14.7998 C   0  0  2  0  0  0  0  0  0  0  0  0
   36.5925   -7.9756  -13.6551 C   0  0  0  0  0  0  0  0  0  0  0  0
   35.9533   -9.5899  -15.4581 C   0  0  2  0  0  0  0  0  0  0  0  0
   37.2959   -9.5496  -15.9714 N   0  0  0  0  0  0  0  0  0  0  0  0
   35.0061   -9.8967  -16.5388 C   0  0  0  0  0  0  0  0  0  0  0  0
   35.2981   -9.6195  -17.7526 O   0  0  0  0  0  0  0  0  0  0  0  0
   33.7385  -10.5066  -16.3422 N   0  0  0  0  0  0  0  0  0  0  0  0
   32.7544  -10.7327  -17.3265 C   0  0  1  0  0  0  0  0  0  0  0  0
   31.9984  -12.0300  -17.2366 C   0  0  0  0  0  0  0  0  0  0  0  0
   30.9901  -12.1458  -18.3629 C   0  0  0  0  0  0  0  0  0  0  0  0
   30.1815  -13.4179  -18.3138 C   0  0  0  0  0  0  0  0  0  0  0  0
   29.2529  -13.5171  -19.5120 C   0  0  0  0  0  0  0  0  0  0  0  0
   28.4403  -14.7147  -19.4798 N   0  0  0  0  0  0  0  0  0  0  0  0
   31.7707   -9.6360  -17.4098 C   0  0  0  0  0  0  0  0  0  0  0  0
   31.2850   -9.1880  -16.3195 O   0  0  0  0  0  0  0  0  0  0  0  0
   29.5507   -5.6054  -19.0107 C   0  0  0  0  0  0  0  0  0  0  0  0
   30.5456   -6.7217  -19.2763 C   0  0  1  0  0  0  0  0  0  0  0  0
   31.9188   -6.1117  -19.0487 C   0  0  0  0  0  0  0  0  0  0  0  0
   30.3280   -7.9243  -18.4488 C   0  0  2  0  0  0  0  0  0  0  0  0
   31.2807   -9.0040  -18.5782 N   0  0  0  0  0  0  0  0  0  0  0  0
   28.9216   -8.4750  -18.6505 C   0  0  0  0  0  0  0  0  0  0  0  0
   27.9241   -8.2150  -17.7356 O   0  0  0  0  0  0  0  0  0  0  0  0
   28.6159   -9.1715  -19.6321 O   0  0  0  0  0  0  0  0  0  0  0  0
  2  1  1  6
  2  4  1  0
  2  3  1  0
  4  5  1  6
  6  4  1  0
  7  6  2  0
  8  6  1  0
  9 10  1  1
  9  8  1  0
 10 11  1  0
 11 12  1  0
 13 12  1  0
 14 13  1  0
 15  9  1  0
 16 15  2  0
 18 17  1  1
 18 19  1  0
 18 20  1  0
 20 21  1  6
 21 15  1  0
 22 20  1  0
 22 23  1  0
 24 22  2  0
M  END
$$$$
