VKV.pdb
     RDKit          3D

 24 23  0  0  1  0  0  0  0  0999 V2000
   19.9876  -12.7190  -16.1968 C   0  0  0  0  0  0  0  0  0  0  0  0
   18.7589  -13.0714  -15.3994 C   0  0  2  0  0  0  0  0  0  0  0  0
   18.7502  -14.5677  -15.1945 C   0  0  0  0  0  0  0  0  0  0  0  0
   17.4951  -12.5755  -16.0434 C   0  0  2  0  0  0  0  0  0  0  0  0
   17.3247  -13.2542  -17.2996 N   0  0  0  0  0  0  0  0  0  0  0  0
   17.5141  -11.1210  -16.2513 C   0  0  0  0  0  0  0  0  0  0  0  0
   17.9439  -10.6305  -17.3515 O   0  0  0  0  0  0  0  0  0  0  0  0
   17.0717  -10.1703  -15.2933 N   0  0  0  0  0  0  0  0  0  0  0  0
   16.9957   -8.7733  -15.4706 C   0  0  1  0  0  0  0  0  0  0  0  0
   15.7044   -8.1136  -15.0709 C   0  0  0  0  0  0  0  0  0  0  0  0
   15.7247   -6.6368  -15.4135 C   0  0  0  0  0  0  0  0  0  0  0  0
   14.4768   -5.9059  -14.9855 C   0  0  0  0  0  0  0  0  0  0  0  0
   14.5337   -4.4458  -15.4007 C   0  0  0  0  0  0  0  0  0  0  0  0
   13.4673   -3.6647  -14.8108 N   0  0  0  0  0  0  0  0  0  0  0  0
   18.1002   -8.0548  -14.8062 C   0  0  0  0  0  0  0  0  0  0  0  0
   18.2824   -8.2634  -13.5618 O   0  0  0  0  0  0  0  0  0  0  0  0
   22.4556   -6.2350  -13.9689 C   0  0  0  0  0  0  0  0  0  0  0  0
   21.4374   -6.9055  -14.8745 C   0  0  1  0  0  0  0  0  0  0  0  0
   21.6871   -8.3985  -14.7395 C   0  0  0  0  0  0  0  0  0  0  0  0
   20.0389   -6.5464  -14.5685 C   0  0  2  0  0  0  0  0  0  0  0  0
   19.0046   -7.1348  -15.3895 N   0  0  0  0  0  0  0  0  0  0  0  0
   19.8585   -5.0334  -14.5495 C   0  0  0  0  0  0  0  0  0  0  0  0
   20.3974   -4.2712  -13.5356 O   0  0  0  0  0  0  0  0  0  0  0  0
   19.2280   -4.4290  -15.4324 O   0  0  0  0  0  0  0  0  0  0  0  0
  2  1  1  6
  2  4  1  0
  2  3  1  0
  4  5  1  6
  6  4  1  0
  7  6  2  0
  8  6  1  0
  9 10  1  1
  9  8  1  0
 10 11  1  0
 11 12  1  0
 13 12  1  0
 14 13  1  0
 15  9  1  0
 16 15  2  0
 18 17  1  1
 18 19  1  0
 18 20  1  0
 20 21  1  6
 21 15  1  0
 22 20  1  0
 22 23  1  0
 24 22  2  0
M  END
$$$$
