VKV.pdb
     RDKit          3D

 24 23  0  0  1  0  0  0  0  0999 V2000
   22.0294  -14.4128  -20.3445 C   0  0  0  0  0  0  0  0  0  0  0  0
   21.2131  -13.2788  -19.7811 C   0  0  2  0  0  0  0  0  0  0  0  0
   22.1683  -12.2186  -19.2866 C   0  0  0  0  0  0  0  0  0  0  0  0
   20.2605  -13.7334  -18.7116 C   0  0  2  0  0  0  0  0  0  0  0  0
   19.3904  -14.7336  -19.2686 N   0  0  0  0  0  0  0  0  0  0  0  0
   19.4706  -12.6212  -18.1653 C   0  0  0  0  0  0  0  0  0  0  0  0
   18.5725  -12.0546  -18.8781 O   0  0  0  0  0  0  0  0  0  0  0  0
   19.6229  -12.1012  -16.8525 N   0  0  0  0  0  0  0  0  0  0  0  0
   18.9676  -10.9740  -16.3151 C   0  0  1  0  0  0  0  0  0  0  0  0
   17.9620  -11.2352  -15.2274 C   0  0  0  0  0  0  0  0  0  0  0  0
   16.6880  -11.8239  -15.8010 C   0  0  0  0  0  0  0  0  0  0  0  0
   15.6382  -12.1104  -14.7568 C   0  0  0  0  0  0  0  0  0  0  0  0
   14.3987  -12.7219  -15.3871 C   0  0  0  0  0  0  0  0  0  0  0  0
   13.4496  -13.1843  -14.3966 N   0  0  0  0  0  0  0  0  0  0  0  0
   19.9091   -9.9468  -15.8293 C   0  0  0  0  0  0  0  0  0  0  0  0
   20.9171  -10.3357  -15.1526 O   0  0  0  0  0  0  0  0  0  0  0  0
   22.3969   -7.8661  -17.5640 C   0  0  0  0  0  0  0  0  0  0  0  0
   21.6922   -6.9710  -16.5597 C   0  0  1  0  0  0  0  0  0  0  0  0
   20.8228   -6.0345  -17.3823 C   0  0  0  0  0  0  0  0  0  0  0  0
   20.9109   -7.7089  -15.5481 C   0  0  2  0  0  0  0  0  0  0  0  0
   19.8308   -8.5460  -16.0201 N   0  0  0  0  0  0  0  0  0  0  0  0
   20.3768   -6.7636  -14.4789 C   0  0  0  0  0  0  0  0  0  0  0  0
   21.2366   -6.1004  -13.6301 O   0  0  0  0  0  0  0  0  0  0  0  0
   19.1626   -6.5517  -14.3267 O   0  0  0  0  0  0  0  0  0  0  0  0
  2  1  1  1
  2  4  1  0
  2  3  1  0
  4  5  1  6
  6  4  1  0
  7  6  2  0
  8  6  1  0
  9 10  1  1
  9  8  1  0
 10 11  1  0
 11 12  1  0
 13 12  1  0
 14 13  1  0
 15  9  1  0
 16 15  2  0
 18 17  1  6
 18 19  1  0
 18 20  1  0
 20 21  1  6
 21 15  1  0
 22 20  1  0
 22 23  1  0
 24 22  2  0
M  END
$$$$
