VKV.pdb
     RDKit          3D

 24 23  0  0  1  0  0  0  0  0999 V2000
   25.5392  -12.2511  -15.7845 C   0  0  0  0  0  0  0  0  0  0  0  0
   24.5055  -11.1909  -16.0627 C   0  0  2  0  0  0  0  0  0  0  0  0
   24.6153  -10.1395  -14.9840 C   0  0  0  0  0  0  0  0  0  0  0  0
   23.1177  -11.7566  -16.1701 C   0  0  2  0  0  0  0  0  0  0  0  0
   23.1239  -12.7997  -17.1599 N   0  0  0  0  0  0  0  0  0  0  0  0
   22.1274  -10.7296  -16.5219 C   0  0  0  0  0  0  0  0  0  0  0  0
   22.1338  -10.1963  -17.6843 O   0  0  0  0  0  0  0  0  0  0  0  0
   21.1149  -10.2605  -15.6432 N   0  0  0  0  0  0  0  0  0  0  0  0
   20.1937   -9.2244  -15.9012 C   0  0  1  0  0  0  0  0  0  0  0  0
   18.7363   -9.5701  -15.7639 C   0  0  0  0  0  0  0  0  0  0  0  0
   18.2617  -10.3866  -16.9499 C   0  0  0  0  0  0  0  0  0  0  0  0
   17.6530  -11.7103  -16.5601 C   0  0  0  0  0  0  0  0  0  0  0  0
   17.2662  -12.5130  -17.7904 C   0  0  0  0  0  0  0  0  0  0  0  0
   16.6756  -13.7901  -17.4501 N   0  0  0  0  0  0  0  0  0  0  0  0
   20.4547   -8.0172  -15.0936 C   0  0  0  0  0  0  0  0  0  0  0  0
   20.6915   -8.1725  -13.8506 O   0  0  0  0  0  0  0  0  0  0  0  0
   22.5245   -4.5759  -16.1695 C   0  0  0  0  0  0  0  0  0  0  0  0
   22.2189   -5.0631  -14.7639 C   0  0  1  0  0  0  0  0  0  0  0  0
   22.4415   -3.8649  -13.8558 C   0  0  0  0  0  0  0  0  0  0  0  0
   20.8658   -5.6322  -14.6106 C   0  0  2  0  0  0  0  0  0  0  0  0
   20.4711   -6.6718  -15.5344 N   0  0  0  0  0  0  0  0  0  0  0  0
   19.8104   -4.5331  -14.6181 C   0  0  0  0  0  0  0  0  0  0  0  0
   18.8012   -4.5304  -15.5567 O   0  0  0  0  0  0  0  0  0  0  0  0
   19.8120   -3.6056  -13.7924 O   0  0  0  0  0  0  0  0  0  0  0  0
  2  1  1  1
  2  4  1  0
  2  3  1  0
  4  5  1  6
  6  4  1  0
  7  6  2  0
  8  6  1  0
  9 10  1  1
  9  8  1  0
 10 11  1  0
 11 12  1  0
 13 12  1  0
 14 13  1  0
 15  9  1  0
 16 15  2  0
 18 17  1  6
 18 19  1  0
 18 20  1  0
 20 21  1  6
 21 15  1  0
 22 20  1  0
 22 23  1  0
 24 22  2  0
M  END
$$$$
