VKV.pdb
     RDKit          3D

 24 23  0  0  1  0  0  0  0  0999 V2000
   27.5766  -20.4349  -19.3697 C   0  0  0  0  0  0  0  0  0  0  0  0
   28.6788  -20.0963  -18.3999 C   0  0  2  0  0  0  0  0  0  0  0  0
   29.9873  -20.5412  -19.0087 C   0  0  0  0  0  0  0  0  0  0  0  0
   28.4495  -20.6921  -17.0397 C   0  0  2  0  0  0  0  0  0  0  0  0
   28.4353  -22.1247  -17.1640 N   0  0  0  0  0  0  0  0  0  0  0  0
   27.1952  -20.2231  -16.4346 C   0  0  0  0  0  0  0  0  0  0  0  0
   27.0442  -18.9892  -16.1338 O   0  0  0  0  0  0  0  0  0  0  0  0
   26.0843  -21.0597  -16.1465 N   0  0  0  0  0  0  0  0  0  0  0  0
   24.8915  -20.6774  -15.4987 C   0  0  1  0  0  0  0  0  0  0  0  0
   23.6053  -21.0268  -16.1959 C   0  0  0  0  0  0  0  0  0  0  0  0
   23.3990  -20.1523  -17.4171 C   0  0  0  0  0  0  0  0  0  0  0  0
   22.6147  -18.8968  -17.1284 C   0  0  0  0  0  0  0  0  0  0  0  0
   22.4067  -18.0838  -18.3947 C   0  0  0  0  0  0  0  0  0  0  0  0
   21.6964  -16.8477  -18.1437 N   0  0  0  0  0  0  0  0  0  0  0  0
   24.8107  -21.1790  -14.1133 C   0  0  0  0  0  0  0  0  0  0  0  0
   24.9494  -22.4323  -13.9251 O   0  0  0  0  0  0  0  0  0  0  0  0
   25.5736  -19.2981  -10.2681 C   0  0  0  0  0  0  0  0  0  0  0  0
   25.5660  -20.7646  -10.6625 C   0  0  1  0  0  0  0  0  0  0  0  0
   25.3864  -21.5381   -9.3667 C   0  0  0  0  0  0  0  0  0  0  0  0
   24.5357  -21.1084  -11.6618 C   0  0  2  0  0  0  0  0  0  0  0  0
   24.5879  -20.4260  -12.9352 N   0  0  0  0  0  0  0  0  0  0  0  0
   23.1378  -20.9586  -11.0740 C   0  0  0  0  0  0  0  0  0  0  0  0
   22.7341  -21.7327  -10.0075 O   0  0  0  0  0  0  0  0  0  0  0  0
   22.3129  -20.1457  -11.5221 O   0  0  0  0  0  0  0  0  0  0  0  0
  2  1  1  6
  2  4  1  0
  2  3  1  0
  4  5  1  6
  6  4  1  0
  7  6  2  0
  8  6  1  0
  9 10  1  6
  9  8  1  0
 10 11  1  0
 11 12  1  0
 13 12  1  0
 14 13  1  0
 15  9  1  0
 16 15  2  0
 18 17  1  1
 18 19  1  0
 18 20  1  0
 20 21  1  6
 21 15  1  0
 22 20  1  0
 22 23  1  0
 24 22  2  0
M  END
$$$$
