VKV.pdb
     RDKit          3D

 24 23  0  0  1  0  0  0  0  0999 V2000
   22.6907   -7.2628  -21.7035 C   0  0  0  0  0  0  0  0  0  0  0  0
   23.3144   -8.5503  -21.2309 C   0  0  2  0  0  0  0  0  0  0  0  0
   24.4243   -8.9093  -22.1902 C   0  0  0  0  0  0  0  0  0  0  0  0
   22.3071   -9.6555  -21.0830 C   0  0  2  0  0  0  0  0  0  0  0  0
   21.7272   -9.9217  -22.3717 N   0  0  0  0  0  0  0  0  0  0  0  0
   21.2556   -9.3193  -20.1133 C   0  0  0  0  0  0  0  0  0  0  0  0
   20.1127   -8.9090  -20.5149 O   0  0  0  0  0  0  0  0  0  0  0  0
   21.4049   -9.4201  -18.7045 N   0  0  0  0  0  0  0  0  0  0  0  0
   20.4298   -9.1131  -17.7331 C   0  0  1  0  0  0  0  0  0  0  0  0
   19.6267  -10.2668  -17.1979 C   0  0  0  0  0  0  0  0  0  0  0  0
   18.5862   -9.7854  -16.2058 C   0  0  0  0  0  0  0  0  0  0  0  0
   17.6722  -10.8814  -15.7179 C   0  0  0  0  0  0  0  0  0  0  0  0
   16.6487  -10.3374  -14.7361 C   0  0  0  0  0  0  0  0  0  0  0  0
   15.9148  -11.3908  -14.0671 N   0  0  0  0  0  0  0  0  0  0  0  0
   20.9849   -8.3715  -16.5845 C   0  0  0  0  0  0  0  0  0  0  0  0
   21.9923   -8.8713  -15.9840 O   0  0  0  0  0  0  0  0  0  0  0  0
   22.3304   -4.4716  -13.9660 C   0  0  0  0  0  0  0  0  0  0  0  0
   21.5953   -5.0736  -15.1508 C   0  0  1  0  0  0  0  0  0  0  0  0
   22.4765   -4.8074  -16.3601 C   0  0  0  0  0  0  0  0  0  0  0  0
   21.2855   -6.5081  -14.9944 C   0  0  2  0  0  0  0  0  0  0  0  0
   20.5258   -7.1448  -16.0468 N   0  0  0  0  0  0  0  0  0  0  0  0
   20.6034   -6.7739  -13.6580 C   0  0  0  0  0  0  0  0  0  0  0  0
   21.3411   -7.1144  -12.5447 O   0  0  0  0  0  0  0  0  0  0  0  0
   19.3724   -6.6968  -13.5141 O   0  0  0  0  0  0  0  0  0  0  0  0
  2  1  1  6
  2  4  1  0
  2  3  1  0
  4  5  1  6
  6  4  1  0
  7  6  2  0
  8  6  1  0
  9 10  1  1
  9  8  1  0
 10 11  1  0
 11 12  1  0
 13 12  1  0
 14 13  1  0
 15  9  1  0
 16 15  2  0
 18 17  1  1
 18 19  1  0
 18 20  1  0
 20 21  1  6
 21 15  1  0
 22 20  1  0
 22 23  1  0
 24 22  2  0
M  END
$$$$
