VKV.pdb
     RDKit          3D

 24 23  0  0  1  0  0  0  0  0999 V2000
   28.0059  -17.2577  -16.5464 C   0  0  0  0  0  0  0  0  0  0  0  0
   27.8488  -18.5611  -17.2855 C   0  0  2  0  0  0  0  0  0  0  0  0
   28.8243  -18.5628  -18.4385 C   0  0  0  0  0  0  0  0  0  0  0  0
   26.4344  -18.8000  -17.7332 C   0  0  2  0  0  0  0  0  0  0  0  0
   26.0635  -17.7591  -18.6534 N   0  0  0  0  0  0  0  0  0  0  0  0
   25.4954  -18.8367  -16.6036 C   0  0  0  0  0  0  0  0  0  0  0  0
   24.9026  -17.7701  -16.2206 O   0  0  0  0  0  0  0  0  0  0  0  0
   25.1715  -20.0093  -15.8705 N   0  0  0  0  0  0  0  0  0  0  0  0
   24.3119  -20.0912  -14.7556 C   0  0  1  0  0  0  0  0  0  0  0  0
   23.0384  -20.8693  -14.9435 C   0  0  0  0  0  0  0  0  0  0  0  0
   22.2098  -20.8622  -13.6739 C   0  0  0  0  0  0  0  0  0  0  0  0
   20.9538  -21.6911  -13.7743 C   0  0  0  0  0  0  0  0  0  0  0  0
   20.0993  -21.5346  -12.5282 C   0  0  0  0  0  0  0  0  0  0  0  0
   18.9126  -22.3627  -12.5679 N   0  0  0  0  0  0  0  0  0  0  0  0
   24.9899  -20.6093  -13.5516 C   0  0  0  0  0  0  0  0  0  0  0  0
   25.4473  -21.7986  -13.5915 O   0  0  0  0  0  0  0  0  0  0  0  0
   27.9566  -20.8797   -9.8246 C   0  0  0  0  0  0  0  0  0  0  0  0
   27.2789  -20.1240  -10.9542 C   0  0  1  0  0  0  0  0  0  0  0  0
   28.2147  -20.2396  -12.1461 C   0  0  0  0  0  0  0  0  0  0  0  0
   25.9202  -20.6090  -11.2658 C   0  0  2  0  0  0  0  0  0  0  0  0
   25.1985  -19.9372  -12.3230 N   0  0  0  0  0  0  0  0  0  0  0  0
   25.0536  -20.6386  -10.0128 C   0  0  0  0  0  0  0  0  0  0  0  0
   25.2078  -21.6334   -9.0715 O   0  0  0  0  0  0  0  0  0  0  0  0
   24.1836  -19.7817   -9.7870 O   0  0  0  0  0  0  0  0  0  0  0  0
  2  1  1  6
  2  4  1  0
  2  3  1  0
  4  5  1  6
  6  4  1  0
  7  6  2  0
  8  6  1  0
  9 10  1  6
  9  8  1  0
 10 11  1  0
 11 12  1  0
 13 12  1  0
 14 13  1  0
 15  9  1  0
 16 15  2  0
 18 17  1  1
 18 19  1  0
 18 20  1  0
 20 21  1  6
 21 15  1  0
 22 20  1  0
 22 23  1  0
 24 22  2  0
M  END
$$$$
