VKV.pdb
     RDKit          3D

 24 23  0  0  1  0  0  0  0  0999 V2000
   16.2103   -7.5305  -16.6840 C   0  0  0  0  0  0  0  0  0  0  0  0
   16.5598   -8.0722  -18.0457 C   0  0  2  0  0  0  0  0  0  0  0  0
   15.2975   -8.0975  -18.8746 C   0  0  0  0  0  0  0  0  0  0  0  0
   17.2238   -9.4183  -17.9747 C   0  0  2  0  0  0  0  0  0  0  0  0
   16.2710  -10.3730  -17.4762 N   0  0  0  0  0  0  0  0  0  0  0  0
   18.4191   -9.4010  -17.1202 C   0  0  0  0  0  0  0  0  0  0  0  0
   18.3351   -9.7193  -15.8843 O   0  0  0  0  0  0  0  0  0  0  0  0
   19.7194   -9.0498  -17.5707 N   0  0  0  0  0  0  0  0  0  0  0  0
   20.8874   -8.9715  -16.7843 C   0  0  1  0  0  0  0  0  0  0  0  0
   22.1326   -9.5824  -17.3663 C   0  0  0  0  0  0  0  0  0  0  0  0
   21.9386  -11.0646  -17.6193 C   0  0  0  0  0  0  0  0  0  0  0  0
   23.0976  -11.7053  -18.3409 C   0  0  0  0  0  0  0  0  0  0  0  0
   22.7628  -13.1301  -18.7476 C   0  0  0  0  0  0  0  0  0  0  0  0
   23.8874  -13.8057  -19.3596 N   0  0  0  0  0  0  0  0  0  0  0  0
   21.2053   -7.5901  -16.3742 C   0  0  0  0  0  0  0  0  0  0  0  0
   21.0679   -6.6654  -17.2410 O   0  0  0  0  0  0  0  0  0  0  0  0
   19.6436   -5.2138  -16.1935 C   0  0  0  0  0  0  0  0  0  0  0  0
   20.3937   -5.0087  -14.8890 C   0  0  1  0  0  0  0  0  0  0  0  0
   19.4342   -5.4372  -13.7910 C   0  0  0  0  0  0  0  0  0  0  0  0
   21.6775   -5.7334  -14.8185 C   0  0  2  0  0  0  0  0  0  0  0  0
   21.6605   -7.1497  -15.1079 N   0  0  0  0  0  0  0  0  0  0  0  0
   22.3546   -5.5089  -13.4720 C   0  0  0  0  0  0  0  0  0  0  0  0
   22.8068   -4.2585  -13.1093 O   0  0  0  0  0  0  0  0  0  0  0  0
   22.5266   -6.4274  -12.6542 O   0  0  0  0  0  0  0  0  0  0  0  0
  2  1  1  1
  2  4  1  0
  2  3  1  0
  4  5  1  1
  6  4  1  0
  7  6  2  0
  8  6  1  0
  9 10  1  6
  9  8  1  0
 10 11  1  0
 11 12  1  0
 13 12  1  0
 14 13  1  0
 15  9  1  0
 16 15  2  0
 18 17  1  6
 18 19  1  0
 18 20  1  0
 20 21  1  1
 21 15  1  0
 22 20  1  0
 22 23  1  0
 24 22  2  0
M  END
$$$$
