VKV.pdb
     RDKit          3D

 24 23  0  0  1  0  0  0  0  0999 V2000
   32.2229  -30.4532  -19.0584 C   0  0  0  0  0  0  0  0  0  0  0  0
   30.9281  -30.2299  -18.3212 C   0  0  2  0  0  0  0  0  0  0  0  0
   30.5844  -31.5045  -17.5876 C   0  0  0  0  0  0  0  0  0  0  0  0
   29.8207  -29.7775  -19.2306 C   0  0  2  0  0  0  0  0  0  0  0  0
   30.2022  -28.5272  -19.8296 N   0  0  0  0  0  0  0  0  0  0  0  0
   28.5447  -29.6296  -18.5170 C   0  0  0  0  0  0  0  0  0  0  0  0
   27.9238  -28.5116  -18.5273 O   0  0  0  0  0  0  0  0  0  0  0  0
   27.9109  -30.6706  -17.7876 N   0  0  0  0  0  0  0  0  0  0  0  0
   26.5431  -30.7485  -17.4534 C   0  0  1  0  0  0  0  0  0  0  0  0
   25.5637  -30.5777  -18.5822 C   0  0  0  0  0  0  0  0  0  0  0  0
   24.1380  -30.5990  -18.0671 C   0  0  0  0  0  0  0  0  0  0  0  0
   23.1077  -30.3909  -19.1487 C   0  0  0  0  0  0  0  0  0  0  0  0
   21.7019  -30.4363  -18.5749 C   0  0  0  0  0  0  0  0  0  0  0  0
   20.6887  -30.2132  -19.5846 N   0  0  0  0  0  0  0  0  0  0  0  0
   26.2024  -31.9934  -16.7380 C   0  0  0  0  0  0  0  0  0  0  0  0
   26.6241  -33.0938  -17.2244 O   0  0  0  0  0  0  0  0  0  0  0  0
   24.6107  -32.4966  -12.6033 C   0  0  0  0  0  0  0  0  0  0  0  0
   25.7597  -33.1900  -13.3142 C   0  0  1  0  0  0  0  0  0  0  0  0
   25.9213  -34.5331  -12.6217 C   0  0  0  0  0  0  0  0  0  0  0  0
   25.5601  -33.3358  -14.7692 C   0  0  2  0  0  0  0  0  0  0  0  0
   25.4423  -32.1253  -15.5508 N   0  0  0  0  0  0  0  0  0  0  0  0
   24.3682  -34.2375  -15.0662 C   0  0  0  0  0  0  0  0  0  0  0  0
   24.4672  -35.6055  -14.9303 O   0  0  0  0  0  0  0  0  0  0  0  0
   23.2720  -33.7878  -15.4379 O   0  0  0  0  0  0  0  0  0  0  0  0
  2  1  1  6
  2  4  1  0
  2  3  1  0
  4  5  1  1
  6  4  1  0
  7  6  2  0
  8  6  1  0
  9 10  1  6
  9  8  1  0
 10 11  1  0
 11 12  1  0
 13 12  1  0
 14 13  1  0
 15  9  1  0
 16 15  2  0
 18 17  1  1
 18 19  1  0
 18 20  1  0
 20 21  1  1
 21 15  1  0
 22 20  1  0
 22 23  1  0
 24 22  2  0
M  END
$$$$
