VKV.pdb
     RDKit          3D

 24 23  0  0  1  0  0  0  0  0999 V2000
   19.6074  -13.1713  -17.3214 C   0  0  0  0  0  0  0  0  0  0  0  0
   20.0924  -13.8216  -16.0518 C   0  0  2  0  0  0  0  0  0  0  0  0
   21.5924  -13.6579  -15.9887 C   0  0  0  0  0  0  0  0  0  0  0  0
   19.6695  -15.2596  -15.9459 C   0  0  2  0  0  0  0  0  0  0  0  0
   20.3265  -16.0076  -16.9835 N   0  0  0  0  0  0  0  0  0  0  0  0
   18.2124  -15.4169  -16.0523 C   0  0  0  0  0  0  0  0  0  0  0  0
   17.6639  -15.6056  -17.1921 O   0  0  0  0  0  0  0  0  0  0  0  0
   17.3211  -15.3803  -14.9470 N   0  0  0  0  0  0  0  0  0  0  0  0
   15.9125  -15.4159  -15.0033 C   0  0  1  0  0  0  0  0  0  0  0  0
   15.2340  -16.4936  -14.2030 C   0  0  0  0  0  0  0  0  0  0  0  0
   15.5957  -17.8673  -14.7328 C   0  0  0  0  0  0  0  0  0  0  0  0
   15.0538  -18.9952  -13.8909 C   0  0  0  0  0  0  0  0  0  0  0  0
   15.4277  -20.3429  -14.4837 C   0  0  0  0  0  0  0  0  0  0  0  0
   15.0987  -21.4420  -13.6009 N   0  0  0  0  0  0  0  0  0  0  0  0
   15.2962  -14.1241  -14.6442 C   0  0  0  0  0  0  0  0  0  0  0  0
   15.7141  -13.5373  -13.5924 O   0  0  0  0  0  0  0  0  0  0  0  0
   15.1285  -10.6709  -16.4204 C   0  0  0  0  0  0  0  0  0  0  0  0
   13.7793  -11.0384  -15.8279 C   0  0  1  0  0  0  0  0  0  0  0  0
   12.8856  -11.3669  -17.0125 C   0  0  0  0  0  0  0  0  0  0  0  0
   13.8373  -12.1445  -14.8525 C   0  0  2  0  0  0  0  0  0  0  0  0
   14.2688  -13.4371  -15.3350 N   0  0  0  0  0  0  0  0  0  0  0  0
   12.5045  -12.3025  -14.1308 C   0  0  0  0  0  0  0  0  0  0  0  0
   12.0370  -11.3169  -13.2885 O   0  0  0  0  0  0  0  0  0  0  0  0
   11.7912  -13.3099  -14.2671 O   0  0  0  0  0  0  0  0  0  0  0  0
  2  1  1  6
  2  4  1  0
  2  3  1  0
  4  5  1  6
  6  4  1  0
  7  6  2  0
  8  6  1  0
  9 10  1  1
  9  8  1  0
 10 11  1  0
 11 12  1  0
 13 12  1  0
 14 13  1  0
 15  9  1  0
 16 15  2  0
 18 17  1  6
 18 19  1  0
 18 20  1  0
 20 21  1  6
 21 15  1  0
 22 20  1  0
 22 23  1  0
 24 22  2  0
M  END
$$$$
