VKV.pdb
     RDKit          3D

 24 23  0  0  1  0  0  0  0  0999 V2000
   22.2364  -17.6721  -20.1167 C   0  0  0  0  0  0  0  0  0  0  0  0
   23.3043  -16.8617  -19.4291 C   0  0  2  0  0  0  0  0  0  0  0  0
   23.7411  -15.7689  -20.3756 C   0  0  0  0  0  0  0  0  0  0  0  0
   24.4553  -17.7074  -18.9625 C   0  0  2  0  0  0  0  0  0  0  0  0
   25.0474  -18.3461  -20.1067 N   0  0  0  0  0  0  0  0  0  0  0  0
   24.0378  -18.7156  -17.9784 C   0  0  0  0  0  0  0  0  0  0  0  0
   23.6181  -19.8605  -18.3639 O   0  0  0  0  0  0  0  0  0  0  0  0
   24.0661  -18.5202  -16.5719 N   0  0  0  0  0  0  0  0  0  0  0  0
   23.7383  -19.4732  -15.5855 C   0  0  1  0  0  0  0  0  0  0  0  0
   24.3898  -19.3011  -14.2407 C   0  0  0  0  0  0  0  0  0  0  0  0
   23.9560  -20.3970  -13.2871 C   0  0  0  0  0  0  0  0  0  0  0  0
   24.7819  -21.6535  -13.4040 C   0  0  0  0  0  0  0  0  0  0  0  0
   24.2869  -22.7197  -12.4417 C   0  0  0  0  0  0  0  0  0  0  0  0
   25.1278  -23.8980  -12.4471 N   0  0  0  0  0  0  0  0  0  0  0  0
   22.2829  -19.5965  -15.3752 C   0  0  0  0  0  0  0  0  0  0  0  0
   21.6371  -18.5459  -15.0520 O   0  0  0  0  0  0  0  0  0  0  0  0
   17.6916  -21.0878  -15.9219 C   0  0  0  0  0  0  0  0  0  0  0  0
   19.1652  -21.2544  -16.2494 C   0  0  1  0  0  0  0  0  0  0  0  0
   19.3580  -20.6147  -17.6145 C   0  0  0  0  0  0  0  0  0  0  0  0
   20.0705  -20.6810  -15.2346 C   0  0  2  0  0  0  0  0  0  0  0  0
   21.4918  -20.7656  -15.4850 N   0  0  0  0  0  0  0  0  0  0  0  0
   19.7734  -21.2559  -13.8550 C   0  0  0  0  0  0  0  0  0  0  0  0
   19.0424  -20.5374  -12.9337 O   0  0  0  0  0  0  0  0  0  0  0  0
   20.1700  -22.3793  -13.5045 O   0  0  0  0  0  0  0  0  0  0  0  0
  2  1  1  6
  2  4  1  0
  2  3  1  0
  4  5  1  6
  6  4  1  0
  7  6  2  0
  8  6  1  0
  9 10  1  1
  9  8  1  0
 10 11  1  0
 11 12  1  0
 13 12  1  0
 14 13  1  0
 15  9  1  0
 16 15  2  0
 18 17  1  1
 18 19  1  0
 18 20  1  0
 20 21  1  6
 21 15  1  0
 22 20  1  0
 22 23  1  0
 24 22  2  0
M  END
$$$$
