VKV.pdb
     RDKit          3D

 24 23  0  0  1  0  0  0  0  0999 V2000
   23.5017  -18.0473  -15.4010 C   0  0  0  0  0  0  0  0  0  0  0  0
   22.9828  -16.6954  -15.8169 C   0  0  2  0  0  0  0  0  0  0  0  0
   23.3506  -15.7039  -14.7386 C   0  0  0  0  0  0  0  0  0  0  0  0
   21.5073  -16.7095  -16.1009 C   0  0  2  0  0  0  0  0  0  0  0  0
   21.2340  -17.7543  -17.0504 N   0  0  0  0  0  0  0  0  0  0  0  0
   21.0308  -15.4185  -16.6163 C   0  0  0  0  0  0  0  0  0  0  0  0
   21.4074  -15.0022  -17.7654 O   0  0  0  0  0  0  0  0  0  0  0  0
   20.1440  -14.5567  -15.9178 N   0  0  0  0  0  0  0  0  0  0  0  0
   19.6892  -13.2931  -16.3480 C   0  0  1  0  0  0  0  0  0  0  0  0
   18.2006  -13.1230  -16.4806 C   0  0  0  0  0  0  0  0  0  0  0  0
   17.6811  -13.8541  -17.7030 C   0  0  0  0  0  0  0  0  0  0  0  0
   16.1844  -13.7614  -17.8647 C   0  0  0  0  0  0  0  0  0  0  0  0
   15.7209  -14.5417  -19.0828 C   0  0  0  0  0  0  0  0  0  0  0  0
   14.2923  -14.4365  -19.2919 N   0  0  0  0  0  0  0  0  0  0  0  0
   20.2021  -12.1895  -15.5134 C   0  0  0  0  0  0  0  0  0  0  0  0
   20.0592  -12.2828  -14.2500 O   0  0  0  0  0  0  0  0  0  0  0  0
   23.0861   -8.7830  -13.7635 C   0  0  0  0  0  0  0  0  0  0  0  0
   22.7265   -9.8059  -14.8269 C   0  0  1  0  0  0  0  0  0  0  0  0
   23.4715  -11.0746  -14.4459 C   0  0  0  0  0  0  0  0  0  0  0  0
   21.2754  -10.0352  -14.9679 C   0  0  2  0  0  0  0  0  0  0  0  0
   20.8459  -11.0062  -15.9491 N   0  0  0  0  0  0  0  0  0  0  0  0
   20.5395   -8.7232  -15.2112 C   0  0  0  0  0  0  0  0  0  0  0  0
   20.3633   -7.8134  -14.1911 O   0  0  0  0  0  0  0  0  0  0  0  0
   20.0731   -8.4198  -16.3214 O   0  0  0  0  0  0  0  0  0  0  0  0
  2  1  1  1
  2  4  1  0
  2  3  1  0
  4  5  1  6
  6  4  1  0
  7  6  2  0
  8  6  1  0
  9 10  1  1
  9  8  1  0
 10 11  1  0
 11 12  1  0
 13 12  1  0
 14 13  1  0
 15  9  1  0
 16 15  2  0
 18 17  1  1
 18 19  1  0
 18 20  1  0
 20 21  1  6
 21 15  1  0
 22 20  1  0
 22 23  1  0
 24 22  2  0
M  END
$$$$
