PWL.pdb
     RDKit          3D

 30 32  0  0  1  0  0  0  0  0999 V2000
   26.9479  -22.6309  -16.6222 N   0  0  0  0  0  0  0  0  0  0  0  0
   26.8471  -22.1727  -17.9750 C   0  0  0  0  0  0  0  0  0  0  0  0
   28.2876  -21.8454  -18.3300 C   0  0  0  0  0  0  0  0  0  0  0  0
   28.7166  -21.1158  -17.0743 C   0  0  0  0  0  0  0  0  0  0  0  0
   28.0788  -21.9951  -16.0081 C   0  0  1  0  0  0  0  0  0  0  0  0
   27.6592  -21.1476  -14.8446 C   0  0  0  0  0  0  0  0  0  0  0  0
   28.5079  -20.3600  -14.3835 O   0  0  0  0  0  0  0  0  0  0  0  0
   26.3379  -21.3234  -14.3814 N   0  0  0  0  0  0  0  0  0  0  0  0
   25.8134  -20.4117  -13.3624 C   0  0  1  0  0  0  0  0  0  0  0  0
   24.5762  -19.8309  -13.9163 C   0  0  0  0  0  0  0  0  0  0  0  0
   24.6654  -19.0250  -15.1430 C   0  0  0  0  0  0  0  0  0  0  0  0
   23.8948  -19.0626  -16.2989 C   0  0  0  0  0  0  0  0  0  0  0  0
   24.3442  -18.1451  -17.1688 N   0  0  0  0  0  0  0  0  0  0  0  0
   25.3946  -17.4762  -16.6567 C   0  0  0  0  0  0  0  0  0  0  0  0
   26.1745  -16.4477  -17.1482 C   0  0  0  0  0  0  0  0  0  0  0  0
   27.1791  -15.9630  -16.3450 C   0  0  0  0  0  0  0  0  0  0  0  0
   27.4175  -16.4794  -15.0761 C   0  0  0  0  0  0  0  0  0  0  0  0
   26.6240  -17.4990  -14.6234 C   0  0  0  0  0  0  0  0  0  0  0  0
   25.6030  -18.0158  -15.3975 C   0  0  0  0  0  0  0  0  0  0  0  0
   25.7416  -21.1306  -12.0853 C   0  0  0  0  0  0  0  0  0  0  0  0
   25.3606  -22.3428  -12.0473 O   0  0  0  0  0  0  0  0  0  0  0  0
   29.0579  -20.6155   -9.4437 C   0  0  0  0  0  0  0  0  0  0  0  0
   27.8053  -20.0341   -8.9025 C   0  0  2  0  0  0  0  0  0  0  0  0
   28.1513  -19.2057   -7.6375 C   0  0  0  0  0  0  0  0  0  0  0  0
   26.7388  -20.9933   -8.5823 C   0  0  0  0  0  0  0  0  0  0  0  0
   25.6934  -21.2730   -9.6082 C   0  0  2  0  0  0  0  0  0  0  0  0
   26.0941  -20.5353  -10.8440 N   0  0  0  0  0  0  0  0  0  0  0  0
   24.3419  -20.8121   -9.2885 C   0  0  0  0  0  0  0  0  0  0  0  0
   23.6700  -21.3190   -8.1392 O   0  0  0  0  0  0  0  0  0  0  0  0
   23.6622  -19.9811   -9.9387 O   0  0  0  0  0  0  0  0  0  0  0  0
  1  2  1  0
  3  2  1  0
  4  3  1  0
  5  4  1  0
  5  1  1  0
  6  7  2  0
  5  6  1  1
  8  6  1  0
  9  8  1  0
 10 11  1  0
  9 10  1  6
 11 19  1  0
 11 12  2  0
 12 13  1  0
 14 13  1  0
 14 15  2  0
 16 15  1  0
 17 16  2  0
 18 19  2  0
 18 17  1  0
 19 14  1  0
 20 27  1  0
 20  9  1  0
 21 20  2  0
 23 22  1  1
 23 25  1  0
 24 23  1  0
 26 25  1  1
 26 27  1  0
 26 28  1  0
 28 29  1  0
 30 28  2  0
M  END
$$$$
