PWL.pdb
     RDKit          3D

 30 32  0  0  1  0  0  0  0  0999 V2000
   27.4109  -19.1679  -14.8238 N   0  0  0  0  0  0  0  0  0  0  0  0
   28.7978  -18.8242  -14.7298 C   0  0  0  0  0  0  0  0  0  0  0  0
   29.4783  -19.9511  -15.4881 C   0  0  0  0  0  0  0  0  0  0  0  0
   28.7213  -21.1423  -14.9391 C   0  0  0  0  0  0  0  0  0  0  0  0
   27.3012  -20.5946  -14.9373 C   0  0  1  0  0  0  0  0  0  0  0  0
   26.5420  -21.1740  -13.7815 C   0  0  0  0  0  0  0  0  0  0  0  0
   26.4159  -22.4136  -13.7522 O   0  0  0  0  0  0  0  0  0  0  0  0
   26.0412  -20.2566  -12.8335 N   0  0  0  0  0  0  0  0  0  0  0  0
   25.1776  -20.7457  -11.7565 C   0  0  1  0  0  0  0  0  0  0  0  0
   25.6835  -20.1453  -10.5082 C   0  0  0  0  0  0  0  0  0  0  0  0
   26.9260  -20.6745   -9.9263 C   0  0  0  0  0  0  0  0  0  0  0  0
   27.9205  -21.4596  -10.4972 C   0  0  0  0  0  0  0  0  0  0  0  0
   28.8716  -21.7135   -9.5854 N   0  0  0  0  0  0  0  0  0  0  0  0
   28.5712  -21.1332   -8.4081 C   0  0  0  0  0  0  0  0  0  0  0  0
   29.2303  -21.0891   -7.1952 C   0  0  0  0  0  0  0  0  0  0  0  0
   28.6503  -20.3742   -6.1745 C   0  0  0  0  0  0  0  0  0  0  0  0
   27.4394  -19.7109   -6.3393 C   0  0  0  0  0  0  0  0  0  0  0  0
   26.8153  -19.7780   -7.5559 C   0  0  0  0  0  0  0  0  0  0  0  0
   27.3631  -20.4849   -8.6090 C   0  0  0  0  0  0  0  0  0  0  0  0
   23.7800  -20.5079  -12.1344 C   0  0  0  0  0  0  0  0  0  0  0  0
   23.3920  -19.3463  -12.4753 O   0  0  0  0  0  0  0  0  0  0  0  0
   21.4020  -21.2652  -15.8297 C   0  0  0  0  0  0  0  0  0  0  0  0
   21.6448  -22.3866  -14.8897 C   0  0  2  0  0  0  0  0  0  0  0  0
   21.1846  -23.7053  -15.5645 C   0  0  0  0  0  0  0  0  0  0  0  0
   21.0107  -22.2656  -13.5694 C   0  0  0  0  0  0  0  0  0  0  0  0
   21.4458  -21.1649  -12.6624 C   0  0  2  0  0  0  0  0  0  0  0  0
   22.7999  -21.5367  -12.1522 N   0  0  0  0  0  0  0  0  0  0  0  0
   20.6179  -20.9470  -11.4757 C   0  0  0  0  0  0  0  0  0  0  0  0
   20.9370  -21.6064  -10.2540 O   0  0  0  0  0  0  0  0  0  0  0  0
   19.6036  -20.2120  -11.3967 O   0  0  0  0  0  0  0  0  0  0  0  0
  1  2  1  0
  3  2  1  0
  4  3  1  0
  5  4  1  0
  5  1  1  0
  6  7  2  0
  5  6  1  1
  8  6  1  0
  9  8  1  0
 10 11  1  0
  9 10  1  1
 11 19  1  0
 11 12  2  0
 12 13  1  0
 14 13  1  0
 14 15  2  0
 16 15  1  0
 17 16  2  0
 18 19  2  0
 18 17  1  0
 19 14  1  0
 20 27  1  0
 20  9  1  0
 21 20  2  0
 23 22  1  6
 23 25  1  0
 24 23  1  0
 26 25  1  6
 26 27  1  0
 26 28  1  0
 28 29  1  0
 30 28  2  0
M  END
$$$$
