PWL.pdb
     RDKit          3D

 30 32  0  0  1  0  0  0  0  0999 V2000
   27.8458  -20.6851  -15.1049 N   0  0  0  0  0  0  0  0  0  0  0  0
   27.2526  -20.4332  -16.3836 C   0  0  0  0  0  0  0  0  0  0  0  0
   27.7726  -19.0487  -16.7314 C   0  0  0  0  0  0  0  0  0  0  0  0
   27.5813  -18.3464  -15.4035 C   0  0  0  0  0  0  0  0  0  0  0  0
   28.0559  -19.4284  -14.4439 C   0  0  1  0  0  0  0  0  0  0  0  0
   27.2703  -19.3477  -13.1694 C   0  0  0  0  0  0  0  0  0  0  0  0
   27.2479  -18.2457  -12.5877 O   0  0  0  0  0  0  0  0  0  0  0  0
   26.6287  -20.5321  -12.7490 N   0  0  0  0  0  0  0  0  0  0  0  0
   25.6374  -20.4616  -11.6731 C   0  0  1  0  0  0  0  0  0  0  0  0
   24.4766  -21.2537  -12.1200 C   0  0  0  0  0  0  0  0  0  0  0  0
   23.4347  -20.5875  -12.9154 C   0  0  0  0  0  0  0  0  0  0  0  0
   23.2881  -20.4822  -14.2934 C   0  0  0  0  0  0  0  0  0  0  0  0
   22.1855  -19.7711  -14.5750 N   0  0  0  0  0  0  0  0  0  0  0  0
   21.5663  -19.3826  -13.4442 C   0  0  0  0  0  0  0  0  0  0  0  0
   20.4103  -18.6628  -13.2143 C   0  0  0  0  0  0  0  0  0  0  0  0
   20.0330  -18.4528  -11.9093 C   0  0  0  0  0  0  0  0  0  0  0  0
   20.7790  -18.9415  -10.8424 C   0  0  0  0  0  0  0  0  0  0  0  0
   21.9194  -19.6501  -11.1097 C   0  0  0  0  0  0  0  0  0  0  0  0
   22.3350  -19.8846  -12.4063 C   0  0  0  0  0  0  0  0  0  0  0  0
   26.2918  -20.8245  -10.4110 C   0  0  0  0  0  0  0  0  0  0  0  0
   26.9689  -21.8965  -10.3198 O   0  0  0  0  0  0  0  0  0  0  0  0
   28.5300  -18.4061   -5.2754 C   0  0  0  0  0  0  0  0  0  0  0  0
   28.2244  -19.6257   -6.0622 C   0  0  2  0  0  0  0  0  0  0  0  0
   29.5425  -20.4123   -6.2863 C   0  0  0  0  0  0  0  0  0  0  0  0
   27.5605  -19.4057   -7.3548 C   0  0  0  0  0  0  0  0  0  0  0  0
   26.8748  -20.5539   -8.0140 C   0  0  2  0  0  0  0  0  0  0  0  0
   26.2199  -20.0162   -9.2445 N   0  0  0  0  0  0  0  0  0  0  0  0
   25.8091  -21.1936   -7.2416 C   0  0  0  0  0  0  0  0  0  0  0  0
   26.1360  -22.0567   -6.1565 O   0  0  0  0  0  0  0  0  0  0  0  0
   24.5740  -21.0713   -7.4282 O   0  0  0  0  0  0  0  0  0  0  0  0
  1  2  1  0
  3  2  1  0
  4  3  1  0
  5  4  1  0
  5  1  1  0
  6  7  2  0
  5  6  1  1
  8  6  1  0
  9  8  1  0
 10 11  1  0
  9 10  1  6
 11 19  1  0
 11 12  2  0
 12 13  1  0
 14 13  1  0
 14 15  2  0
 16 15  1  0
 17 16  2  0
 18 19  2  0
 18 17  1  0
 19 14  1  0
 20 27  1  0
 20  9  1  0
 21 20  2  0
 23 22  1  6
 23 25  1  0
 24 23  1  0
 26 25  1  1
 26 27  1  0
 26 28  1  0
 28 29  1  0
 30 28  2  0
M  END
$$$$
