PWL.pdb
     RDKit          3D

 30 32  0  0  1  0  0  0  0  0999 V2000
   25.3534  -17.7473  -16.5899 N   0  0  0  0  0  0  0  0  0  0  0  0
   26.2116  -16.6482  -16.9152 C   0  0  0  0  0  0  0  0  0  0  0  0
   26.9062  -17.1238  -18.1799 C   0  0  0  0  0  0  0  0  0  0  0  0
   27.2388  -18.5479  -17.7869 C   0  0  0  0  0  0  0  0  0  0  0  0
   25.9482  -18.9542  -17.0897 C   0  0  1  0  0  0  0  0  0  0  0  0
   26.2594  -19.9077  -15.9752 C   0  0  0  0  0  0  0  0  0  0  0  0
   26.7680  -21.0006  -16.2914 O   0  0  0  0  0  0  0  0  0  0  0  0
   25.9456  -19.4742  -14.6695 N   0  0  0  0  0  0  0  0  0  0  0  0
   26.2984  -20.3268  -13.5321 C   0  0  1  0  0  0  0  0  0  0  0  0
   27.1153  -19.4991  -12.6253 C   0  0  0  0  0  0  0  0  0  0  0  0
   27.8657  -20.1647  -11.5500 C   0  0  0  0  0  0  0  0  0  0  0  0
   28.9633  -21.0146  -11.6154 C   0  0  0  0  0  0  0  0  0  0  0  0
   29.3134  -21.3928  -10.3765 N   0  0  0  0  0  0  0  0  0  0  0  0
   28.4996  -20.8359   -9.4596 C   0  0  0  0  0  0  0  0  0  0  0  0
   28.4647  -20.9029   -8.0806 C   0  0  0  0  0  0  0  0  0  0  0  0
   27.4959  -20.1797   -7.4265 C   0  0  0  0  0  0  0  0  0  0  0  0
   26.5722  -19.4007   -8.1146 C   0  0  0  0  0  0  0  0  0  0  0  0
   26.6378  -19.3597   -9.4814 C   0  0  0  0  0  0  0  0  0  0  0  0
   27.5955  -20.0706  -10.1786 C   0  0  0  0  0  0  0  0  0  0  0  0
   25.0719  -20.9399  -13.0101 C   0  0  0  0  0  0  0  0  0  0  0  0
   25.1255  -21.7848  -12.0618 O   0  0  0  0  0  0  0  0  0  0  0  0
   22.0682  -21.7361   -9.7357 C   0  0  0  0  0  0  0  0  0  0  0  0
   22.7658  -20.5187  -10.2166 C   0  0  2  0  0  0  0  0  0  0  0  0
   22.4594  -19.3547   -9.2382 C   0  0  0  0  0  0  0  0  0  0  0  0
   22.4513  -20.0992  -11.5896 C   0  0  0  0  0  0  0  0  0  0  0  0
   22.6144  -21.0850  -12.6963 C   0  0  2  0  0  0  0  0  0  0  0  0
   23.7795  -20.6283  -13.5123 N   0  0  0  0  0  0  0  0  0  0  0  0
   21.4919  -21.1936  -13.6289 C   0  0  0  0  0  0  0  0  0  0  0  0
   20.3831  -22.0306  -13.3141 O   0  0  0  0  0  0  0  0  0  0  0  0
   21.3796  -20.6102  -14.7344 O   0  0  0  0  0  0  0  0  0  0  0  0
  1  2  1  0
  3  2  1  0
  4  3  1  0
  5  4  1  0
  5  1  1  0
  6  7  2  0
  5  6  1  1
  8  6  1  0
  9  8  1  0
 10 11  1  0
  9 10  1  1
 11 19  1  0
 11 12  2  0
 12 13  1  0
 14 13  1  0
 14 15  2  0
 16 15  1  0
 17 16  2  0
 18 19  2  0
 18 17  1  0
 19 14  1  0
 20 27  1  0
 20  9  1  0
 21 20  2  0
 23 22  1  1
 23 25  1  0
 24 23  1  0
 26 25  1  1
 26 27  1  0
 26 28  1  0
 28 29  1  0
 30 28  2  0
M  END
$$$$
