PWL.pdb
     RDKit          3D

 30 32  0  0  1  0  0  0  0  0999 V2000
   28.2749  -20.9866  -14.0696 N   0  0  0  0  0  0  0  0  0  0  0  0
   27.7289  -21.2871  -15.3587 C   0  0  0  0  0  0  0  0  0  0  0  0
   27.7977  -19.9496  -16.0759 C   0  0  0  0  0  0  0  0  0  0  0  0
   27.2915  -19.0306  -14.9838 C   0  0  0  0  0  0  0  0  0  0  0  0
   28.0178  -19.6053  -13.7759 C   0  0  1  0  0  0  0  0  0  0  0  0
   27.1559  -19.4610  -12.5575 C   0  0  0  0  0  0  0  0  0  0  0  0
   26.6678  -18.3350  -12.3402 O   0  0  0  0  0  0  0  0  0  0  0  0
   26.9788  -20.6188  -11.7705 N   0  0  0  0  0  0  0  0  0  0  0  0
   26.1140  -20.5523  -10.5904 C   0  0  1  0  0  0  0  0  0  0  0  0
   24.9847  -21.4654  -10.8462 C   0  0  0  0  0  0  0  0  0  0  0  0
   23.7913  -20.9357  -11.5227 C   0  0  0  0  0  0  0  0  0  0  0  0
   23.5085  -20.8134  -12.8779 C   0  0  0  0  0  0  0  0  0  0  0  0
   22.2950  -20.2630  -13.0359 N   0  0  0  0  0  0  0  0  0  0  0  0
   21.7303  -20.0017  -11.8419 C   0  0  0  0  0  0  0  0  0  0  0  0
   20.5085  -19.4651  -11.4857 C   0  0  0  0  0  0  0  0  0  0  0  0
   20.2234  -19.3498  -10.1460 C   0  0  0  0  0  0  0  0  0  0  0  0
   21.1239  -19.7548   -9.1669 C   0  0  0  0  0  0  0  0  0  0  0  0
   22.3253  -20.2815   -9.5585 C   0  0  0  0  0  0  0  0  0  0  0  0
   22.6525  -20.4156  -10.8941 C   0  0  0  0  0  0  0  0  0  0  0  0
   26.9373  -20.7705   -9.3956 C   0  0  0  0  0  0  0  0  0  0  0  0
   27.7876  -21.7148   -9.3612 O   0  0  0  0  0  0  0  0  0  0  0  0
   29.3200  -17.8459   -4.6089 C   0  0  0  0  0  0  0  0  0  0  0  0
   29.0136  -19.1489   -5.2478 C   0  0  2  0  0  0  0  0  0  0  0  0
   30.3454  -19.9071   -5.4872 C   0  0  0  0  0  0  0  0  0  0  0  0
   28.2548  -19.0843   -6.5049 C   0  0  0  0  0  0  0  0  0  0  0  0
   27.6957  -20.3452   -7.0713 C   0  0  2  0  0  0  0  0  0  0  0  0
   26.8450  -19.9548   -8.2357 N   0  0  0  0  0  0  0  0  0  0  0  0
   26.8263  -21.1170   -6.1826 C   0  0  0  0  0  0  0  0  0  0  0  0
   27.3952  -21.9470   -5.1743 O   0  0  0  0  0  0  0  0  0  0  0  0
   25.5715  -21.1418   -6.2009 O   0  0  0  0  0  0  0  0  0  0  0  0
  1  2  1  0
  3  2  1  0
  4  3  1  0
  5  4  1  0
  5  1  1  0
  6  7  2  0
  5  6  1  1
  8  6  1  0
  9  8  1  0
 10 11  1  0
  9 10  1  6
 11 19  1  0
 11 12  2  0
 12 13  1  0
 14 13  1  0
 14 15  2  0
 16 15  1  0
 17 16  2  0
 18 19  2  0
 18 17  1  0
 19 14  1  0
 20 27  1  0
 20  9  1  0
 21 20  2  0
 23 22  1  6
 23 25  1  0
 24 23  1  0
 26 25  1  1
 26 27  1  0
 26 28  1  0
 28 29  1  0
 30 28  2  0
M  END
$$$$
