PWL.pdb
     RDKit          3D

 30 32  0  0  1  0  0  0  0  0999 V2000
   26.5710  -17.0700  -17.5598 N   0  0  0  0  0  0  0  0  0  0  0  0
   27.6751  -16.7321  -18.4067 C   0  0  0  0  0  0  0  0  0  0  0  0
   28.1023  -18.0807  -18.9606 C   0  0  0  0  0  0  0  0  0  0  0  0
   28.0503  -18.9195  -17.7008 C   0  0  0  0  0  0  0  0  0  0  0  0
   26.7586  -18.4091  -17.0781 C   0  0  1  0  0  0  0  0  0  0  0  0
   26.8775  -18.4365  -15.5837 C   0  0  0  0  0  0  0  0  0  0  0  0
   27.6874  -17.6430  -15.0663 O   0  0  0  0  0  0  0  0  0  0  0  0
   26.0573  -19.3615  -14.9035 N   0  0  0  0  0  0  0  0  0  0  0  0
   26.1399  -19.4476  -13.4438 C   0  0  1  0  0  0  0  0  0  0  0  0
   24.7525  -19.4417  -12.9442 C   0  0  0  0  0  0  0  0  0  0  0  0
   24.4939  -19.9274  -11.5805 C   0  0  0  0  0  0  0  0  0  0  0  0
   23.4981  -20.7707  -11.1025 C   0  0  0  0  0  0  0  0  0  0  0  0
   23.6449  -20.9344   -9.7787 N   0  0  0  0  0  0  0  0  0  0  0  0
   24.7039  -20.2367   -9.3261 C   0  0  0  0  0  0  0  0  0  0  0  0
   25.2632  -20.1007   -8.0707 C   0  0  0  0  0  0  0  0  0  0  0  0
   26.3827  -19.3125   -7.9481 C   0  0  0  0  0  0  0  0  0  0  0  0
   26.9472  -18.6651   -9.0415 C   0  0  0  0  0  0  0  0  0  0  0  0
   26.3643  -18.8232  -10.2700 C   0  0  0  0  0  0  0  0  0  0  0  0
   25.2387  -19.6064  -10.4382 C   0  0  0  0  0  0  0  0  0  0  0  0
   27.0089  -20.5760  -13.0912 C   0  0  0  0  0  0  0  0  0  0  0  0
   27.0412  -21.6179  -13.8188 O   0  0  0  0  0  0  0  0  0  0  0  0
   31.8068  -21.9715   -9.4402 C   0  0  0  0  0  0  0  0  0  0  0  0
   30.8004  -22.4024  -10.4410 C   0  0  2  0  0  0  0  0  0  0  0  0
   31.5450  -22.9094  -11.7038 C   0  0  0  0  0  0  0  0  0  0  0  0
   29.8093  -21.3897  -10.8312 C   0  0  0  0  0  0  0  0  0  0  0  0
   28.6847  -21.7926  -11.7236 C   0  0  2  0  0  0  0  0  0  0  0  0
   27.8546  -20.5712  -11.9492 N   0  0  0  0  0  0  0  0  0  0  0  0
   27.7715  -22.8028  -11.1879 C   0  0  0  0  0  0  0  0  0  0  0  0
   26.5857  -22.4017  -10.5080 O   0  0  0  0  0  0  0  0  0  0  0  0
   27.9122  -24.0482  -11.2547 O   0  0  0  0  0  0  0  0  0  0  0  0
  1  2  1  0
  3  2  1  0
  4  3  1  0
  5  4  1  0
  5  1  1  0
  6  7  2  0
  5  6  1  1
  8  6  1  0
  9  8  1  0
 10 11  1  0
  9 10  1  1
 11 19  1  0
 11 12  2  0
 12 13  1  0
 14 13  1  0
 14 15  2  0
 16 15  1  0
 17 16  2  0
 18 19  2  0
 18 17  1  0
 19 14  1  0
 20 27  1  0
 20  9  1  0
 21 20  2  0
 23 22  1  1
 23 25  1  0
 24 23  1  0
 26 25  1  1
 26 27  1  0
 26 28  1  0
 28 29  1  0
 30 28  2  0
M  END
$$$$
