PWL.pdb
     RDKit          3D

 30 32  0  0  1  0  0  0  0  0999 V2000
   27.2224  -21.7253  -15.0852 N   0  0  0  0  0  0  0  0  0  0  0  0
   26.6042  -21.0577  -16.1908 C   0  0  0  0  0  0  0  0  0  0  0  0
   27.1023  -19.6298  -16.0457 C   0  0  0  0  0  0  0  0  0  0  0  0
   26.9264  -19.4320  -14.5547 C   0  0  0  0  0  0  0  0  0  0  0  0
   27.4299  -20.7706  -14.0337 C   0  0  1  0  0  0  0  0  0  0  0  0
   26.6658  -21.1477  -12.7999 C   0  0  0  0  0  0  0  0  0  0  0  0
   25.9262  -22.1479  -12.8765 O   0  0  0  0  0  0  0  0  0  0  0  0
   26.8585  -20.3309  -11.6655 N   0  0  0  0  0  0  0  0  0  0  0  0
   26.2475  -20.7232  -10.3936 C   0  0  1  0  0  0  0  0  0  0  0  0
   27.0066  -20.0339   -9.3337 C   0  0  0  0  0  0  0  0  0  0  0  0
   26.7114  -20.3613   -7.9308 C   0  0  0  0  0  0  0  0  0  0  0  0
   25.6795  -21.1145   -7.3835 C   0  0  0  0  0  0  0  0  0  0  0  0
   25.8014  -21.1399   -6.0474 N   0  0  0  0  0  0  0  0  0  0  0  0
   26.8777  -20.4336   -5.6528 C   0  0  0  0  0  0  0  0  0  0  0  0
   27.4234  -20.1825   -4.4092 C   0  0  0  0  0  0  0  0  0  0  0  0
   28.5681  -19.4238   -4.3512 C   0  0  0  0  0  0  0  0  0  0  0  0
   29.1710  -18.9169   -5.4971 C   0  0  0  0  0  0  0  0  0  0  0  0
   28.6006  -19.1864   -6.7121 C   0  0  0  0  0  0  0  0  0  0  0  0
   27.4505  -19.9448   -6.8161 C   0  0  0  0  0  0  0  0  0  0  0  0
   24.8004  -20.4974  -10.4816 C   0  0  0  0  0  0  0  0  0  0  0  0
   24.0749  -20.5456   -9.4389 O   0  0  0  0  0  0  0  0  0  0  0  0
   20.5103  -18.5700  -14.4666 C   0  0  0  0  0  0  0  0  0  0  0  0
   20.9106  -18.7695  -13.0524 C   0  0  2  0  0  0  0  0  0  0  0  0
   20.5725  -17.4816  -12.2567 C   0  0  0  0  0  0  0  0  0  0  0  0
   22.3185  -19.1273  -12.8286 C   0  0  0  0  0  0  0  0  0  0  0  0
   22.6712  -19.9343  -11.6254 C   0  0  2  0  0  0  0  0  0  0  0  0
   24.1377  -20.2083  -11.7050 N   0  0  0  0  0  0  0  0  0  0  0  0
   22.0256  -21.2432  -11.5196 C   0  0  0  0  0  0  0  0  0  0  0  0
   20.9072  -21.4177  -10.6548 O   0  0  0  0  0  0  0  0  0  0  0  0
   22.3548  -22.2904  -12.1282 O   0  0  0  0  0  0  0  0  0  0  0  0
  1  2  1  0
  3  2  1  0
  4  3  1  0
  5  4  1  0
  5  1  1  0
  6  7  2  0
  5  6  1  1
  8  6  1  0
  9  8  1  0
 10 11  1  0
  9 10  1  1
 11 19  1  0
 11 12  2  0
 12 13  1  0
 14 13  1  0
 14 15  2  0
 16 15  1  0
 17 16  2  0
 18 19  2  0
 18 17  1  0
 19 14  1  0
 20 27  1  0
 20  9  1  0
 21 20  2  0
 23 22  1  6
 23 25  1  0
 24 23  1  0
 26 25  1  6
 26 27  1  0
 26 28  1  0
 28 29  1  0
 30 28  2  0
M  END
$$$$
