PWL.pdb
     RDKit          3D

 30 32  0  0  1  0  0  0  0  0999 V2000
   26.9473  -19.9644  -15.1931 N   0  0  0  0  0  0  0  0  0  0  0  0
   28.0578  -19.3016  -15.8076 C   0  0  0  0  0  0  0  0  0  0  0  0
   29.2370  -20.1691  -15.4016 C   0  0  0  0  0  0  0  0  0  0  0  0
   28.9145  -20.3970  -13.9396 C   0  0  0  0  0  0  0  0  0  0  0  0
   27.4151  -20.6457  -14.0195 C   0  0  1  0  0  0  0  0  0  0  0  0
   26.7525  -20.1148  -12.7837 C   0  0  0  0  0  0  0  0  0  0  0  0
   26.5765  -18.8825  -12.7213 O   0  0  0  0  0  0  0  0  0  0  0  0
   26.3897  -21.0651  -11.8057 N   0  0  0  0  0  0  0  0  0  0  0  0
   25.6726  -20.6179  -10.6096 C   0  0  1  0  0  0  0  0  0  0  0  0
   24.3650  -21.2995  -10.6253 C   0  0  0  0  0  0  0  0  0  0  0  0
   23.1614  -20.5054  -10.9135 C   0  0  0  0  0  0  0  0  0  0  0  0
   22.1033  -20.1480  -10.0863 C   0  0  0  0  0  0  0  0  0  0  0  0
   21.2150  -19.4212  -10.7815 N   0  0  0  0  0  0  0  0  0  0  0  0
   21.6203  -19.2635  -12.0558 C   0  0  0  0  0  0  0  0  0  0  0  0
   21.0721  -18.5945  -13.1325 C   0  0  0  0  0  0  0  0  0  0  0  0
   21.7661  -18.6090  -14.3189 C   0  0  0  0  0  0  0  0  0  0  0  0
   22.9820  -19.2710  -14.4494 C   0  0  0  0  0  0  0  0  0  0  0  0
   23.4935  -19.9237  -13.3601 C   0  0  0  0  0  0  0  0  0  0  0  0
   22.8293  -19.9342  -12.1487 C   0  0  0  0  0  0  0  0  0  0  0  0
   26.5466  -20.8014   -9.4455 C   0  0  0  0  0  0  0  0  0  0  0  0
   27.3004  -21.8213   -9.3585 O   0  0  0  0  0  0  0  0  0  0  0  0
   28.4135  -19.4445   -4.3573 C   0  0  0  0  0  0  0  0  0  0  0  0
   29.0381  -18.9733   -5.6174 C   0  0  2  0  0  0  0  0  0  0  0  0
   29.6229  -17.5565   -5.3794 C   0  0  0  0  0  0  0  0  0  0  0  0
   28.1623  -18.9490   -6.7975 C   0  0  0  0  0  0  0  0  0  0  0  0
   27.5126  -20.2177   -7.2353 C   0  0  2  0  0  0  0  0  0  0  0  0
   26.6111  -19.8695   -8.3746 N   0  0  0  0  0  0  0  0  0  0  0  0
   26.6648  -20.8794   -6.2430 C   0  0  0  0  0  0  0  0  0  0  0  0
   27.1743  -21.9749   -5.4883 O   0  0  0  0  0  0  0  0  0  0  0  0
   25.4775  -20.5870   -5.9602 O   0  0  0  0  0  0  0  0  0  0  0  0
  1  2  1  0
  3  2  1  0
  4  3  1  0
  5  4  1  0
  5  1  1  0
  6  7  2  0
  5  6  1  1
  8  6  1  0
  9  8  1  0
 10 11  1  0
  9 10  1  1
 11 19  1  0
 11 12  2  0
 12 13  1  0
 14 13  1  0
 14 15  2  0
 16 15  1  0
 17 16  2  0
 18 19  2  0
 18 17  1  0
 19 14  1  0
 20 27  1  0
 20  9  1  0
 21 20  2  0
 23 22  1  1
 23 25  1  0
 24 23  1  0
 26 25  1  1
 26 27  1  0
 26 28  1  0
 28 29  1  0
 30 28  2  0
M  END
$$$$
