PWL.pdb
     RDKit          3D

 30 32  0  0  1  0  0  0  0  0999 V2000
   28.0315  -20.9780  -14.5204 N   0  0  0  0  0  0  0  0  0  0  0  0
   27.4462  -20.9105  -15.8255 C   0  0  0  0  0  0  0  0  0  0  0  0
   27.8539  -19.5290  -16.3085 C   0  0  0  0  0  0  0  0  0  0  0  0
   27.5757  -18.7138  -15.0629 C   0  0  0  0  0  0  0  0  0  0  0  0
   28.1202  -19.6469  -13.9907 C   0  0  1  0  0  0  0  0  0  0  0  0
   27.3038  -19.5048  -12.7411 C   0  0  0  0  0  0  0  0  0  0  0  0
   27.1737  -18.3549  -12.2783 O   0  0  0  0  0  0  0  0  0  0  0  0
   26.7586  -20.6915  -12.2066 N   0  0  0  0  0  0  0  0  0  0  0  0
   25.8548  -20.6053  -11.0574 C   0  0  1  0  0  0  0  0  0  0  0  0
   24.6532  -21.3843  -11.4096 C   0  0  0  0  0  0  0  0  0  0  0  0
   23.6455  -20.7659  -12.2840 C   0  0  0  0  0  0  0  0  0  0  0  0
   23.5464  -20.7545  -13.6701 C   0  0  0  0  0  0  0  0  0  0  0  0
   22.4614  -20.0556  -14.0374 N   0  0  0  0  0  0  0  0  0  0  0  0
   21.8086  -19.5853  -12.9578 C   0  0  0  0  0  0  0  0  0  0  0  0
   20.6531  -18.8420  -12.8174 C   0  0  0  0  0  0  0  0  0  0  0  0
   20.2344  -18.5397  -11.5436 C   0  0  0  0  0  0  0  0  0  0  0  0
   20.9390  -18.9598  -10.4208 C   0  0  0  0  0  0  0  0  0  0  0  0
   22.0803  -19.6943  -10.5997 C   0  0  0  0  0  0  0  0  0  0  0  0
   22.5368  -20.0208  -11.8622 C   0  0  0  0  0  0  0  0  0  0  0  0
   26.6008  -20.9726   -9.8484 C   0  0  0  0  0  0  0  0  0  0  0  0
   27.4022  -21.9593   -9.8591 O   0  0  0  0  0  0  0  0  0  0  0  0
   28.2355  -20.1825   -4.5487 C   0  0  0  0  0  0  0  0  0  0  0  0
   28.9515  -19.8121   -5.7937 C   0  0  2  0  0  0  0  0  0  0  0  0
   29.7687  -18.5207   -5.5281 C   0  0  0  0  0  0  0  0  0  0  0  0
   28.1115  -19.6230   -6.9849 C   0  0  0  0  0  0  0  0  0  0  0  0
   27.2910  -20.7681   -7.4735 C   0  0  2  0  0  0  0  0  0  0  0  0
   26.4845  -20.2606   -8.6241 N   0  0  0  0  0  0  0  0  0  0  0  0
   26.3257  -21.3177   -6.5208 C   0  0  0  0  0  0  0  0  0  0  0  0
   26.7581  -22.2282   -5.5142 O   0  0  0  0  0  0  0  0  0  0  0  0
   25.0950  -21.0749   -6.4797 O   0  0  0  0  0  0  0  0  0  0  0  0
  1  2  1  0
  3  2  1  0
  4  3  1  0
  5  4  1  0
  5  1  1  0
  6  7  2  0
  5  6  1  1
  8  6  1  0
  9  8  1  0
 10 11  1  0
  9 10  1  6
 11 19  1  0
 11 12  2  0
 12 13  1  0
 14 13  1  0
 14 15  2  0
 16 15  1  0
 17 16  2  0
 18 19  2  0
 18 17  1  0
 19 14  1  0
 20 27  1  0
 20  9  1  0
 21 20  2  0
 23 22  1  1
 23 25  1  0
 24 23  1  0
 26 25  1  1
 26 27  1  0
 26 28  1  0
 28 29  1  0
 30 28  2  0
M  END
$$$$
