PWL.pdb
     RDKit          3D

 30 32  0  0  1  0  0  0  0  0999 V2000
   28.7242  -21.7014  -15.4551 N   0  0  0  0  0  0  0  0  0  0  0  0
   28.3707  -21.8978  -16.8286 C   0  0  0  0  0  0  0  0  0  0  0  0
   28.9599  -20.6736  -17.5085 C   0  0  0  0  0  0  0  0  0  0  0  0
   28.5437  -19.5946  -16.5309 C   0  0  0  0  0  0  0  0  0  0  0  0
   28.8279  -20.2912  -15.2078 C   0  0  1  0  0  0  0  0  0  0  0  0
   27.8293  -19.8454  -14.1821 C   0  0  0  0  0  0  0  0  0  0  0  0
   27.7952  -18.6279  -13.9178 O   0  0  0  0  0  0  0  0  0  0  0  0
   27.0201  -20.8512  -13.6121 N   0  0  0  0  0  0  0  0  0  0  0  0
   25.8773  -20.4612  -12.7833 C   0  0  1  0  0  0  0  0  0  0  0  0
   24.6662  -20.8464  -13.5312 C   0  0  0  0  0  0  0  0  0  0  0  0
   23.9586  -19.8144  -14.3036 C   0  0  0  0  0  0  0  0  0  0  0  0
   24.4538  -18.8346  -15.1558 C   0  0  0  0  0  0  0  0  0  0  0  0
   23.4376  -18.1032  -15.6385 N   0  0  0  0  0  0  0  0  0  0  0  0
   22.2610  -18.5415  -15.1522 C   0  0  0  0  0  0  0  0  0  0  0  0
   20.9571  -18.1368  -15.3607 C   0  0  0  0  0  0  0  0  0  0  0  0
   19.9592  -18.8259  -14.7135 C   0  0  0  0  0  0  0  0  0  0  0  0
   20.2349  -19.8980  -13.8720 C   0  0  0  0  0  0  0  0  0  0  0  0
   21.5398  -20.2697  -13.6895 C   0  0  0  0  0  0  0  0  0  0  0  0
   22.5735  -19.6050  -14.3207 C   0  0  0  0  0  0  0  0  0  0  0  0
   26.0724  -21.0040  -11.4342 C   0  0  0  0  0  0  0  0  0  0  0  0
   26.3479  -22.2336  -11.2666 O   0  0  0  0  0  0  0  0  0  0  0  0
   28.9500  -20.6540   -8.0007 C   0  0  0  0  0  0  0  0  0  0  0  0
   27.9213  -19.5906   -8.1044 C   0  0  2  0  0  0  0  0  0  0  0  0
   28.2453  -18.4865   -7.0642 C   0  0  0  0  0  0  0  0  0  0  0  0
   26.5280  -20.0273   -7.9361 C   0  0  0  0  0  0  0  0  0  0  0  0
   25.9324  -20.9359   -8.9574 C   0  0  2  0  0  0  0  0  0  0  0  0
   25.9777  -20.2077  -10.2611 N   0  0  0  0  0  0  0  0  0  0  0  0
   24.5300  -21.2998   -8.7518 C   0  0  0  0  0  0  0  0  0  0  0  0
   24.1681  -22.1608   -7.6762 O   0  0  0  0  0  0  0  0  0  0  0  0
   23.5522  -20.9289   -9.4457 O   0  0  0  0  0  0  0  0  0  0  0  0
  1  2  1  0
  3  2  1  0
  4  3  1  0
  5  4  1  0
  5  1  1  0
  6  7  2  0
  5  6  1  1
  8  6  1  0
  9  8  1  0
 10 11  1  0
  9 10  1  6
 11 19  1  0
 11 12  2  0
 12 13  1  0
 14 13  1  0
 14 15  2  0
 16 15  1  0
 17 16  2  0
 18 19  2  0
 18 17  1  0
 19 14  1  0
 20 27  1  0
 20  9  1  0
 21 20  2  0
 23 22  1  1
 23 25  1  0
 24 23  1  0
 26 25  1  1
 26 27  1  0
 26 28  1  0
 28 29  1  0
 30 28  2  0
M  END
$$$$
