PWL.pdb
     RDKit          3D

 30 32  0  0  1  0  0  0  0  0999 V2000
   14.6216  -21.8881    0.3136 N   0  0  0  0  0  0  0  0  0  0  0  0
   14.5367  -23.3165    0.3660 C   0  0  0  0  0  0  0  0  0  0  0  0
   13.7292  -23.5616    1.6293 C   0  0  0  0  0  0  0  0  0  0  0  0
   14.3961  -22.5812    2.5713 C   0  0  0  0  0  0  0  0  0  0  0  0
   14.5580  -21.3777    1.6536 C   0  0  1  0  0  0  0  0  0  0  0  0
   15.8121  -20.6386    2.0128 C   0  0  0  0  0  0  0  0  0  0  0  0
   16.8692  -21.0252    1.4777 O   0  0  0  0  0  0  0  0  0  0  0  0
   15.6747  -19.5715    2.9258 N   0  0  0  0  0  0  0  0  0  0  0  0
   16.8585  -18.7907    3.2918 C   0  0  1  0  0  0  0  0  0  0  0  0
   16.5574  -17.3880    2.9507 C   0  0  0  0  0  0  0  0  0  0  0  0
   17.6597  -16.4149    2.9386 C   0  0  0  0  0  0  0  0  0  0  0  0
   18.9585  -16.5368    2.4594 C   0  0  0  0  0  0  0  0  0  0  0  0
   19.6239  -15.3903    2.6676 N   0  0  0  0  0  0  0  0  0  0  0  0
   18.8336  -14.4826    3.2713 C   0  0  0  0  0  0  0  0  0  0  0  0
   19.0478  -13.1776    3.6693 C   0  0  0  0  0  0  0  0  0  0  0  0
   18.0008  -12.5032    4.2510 C   0  0  0  0  0  0  0  0  0  0  0  0
   16.7592  -13.0997    4.4410 C   0  0  0  0  0  0  0  0  0  0  0  0
   16.5849  -14.3951    4.0342 C   0  0  0  0  0  0  0  0  0  0  0  0
   17.6101  -15.1096    3.4449 C   0  0  0  0  0  0  0  0  0  0  0  0
   17.2218  -19.1147    4.6760 C   0  0  0  0  0  0  0  0  0  0  0  0
   16.3757  -19.6549    5.4559 O   0  0  0  0  0  0  0  0  0  0  0  0
   19.4761  -22.1271    7.3822 C   0  0  0  0  0  0  0  0  0  0  0  0
   20.2448  -21.2008    6.5155 C   0  0  2  0  0  0  0  0  0  0  0  0
   21.7493  -21.5653    6.6147 C   0  0  0  0  0  0  0  0  0  0  0  0
   20.0693  -19.7682    6.7931 C   0  0  0  0  0  0  0  0  0  0  0  0
   18.7084  -19.1733    6.6622 C   0  0  2  0  0  0  0  0  0  0  0  0
   18.5120  -18.8607    5.2146 N   0  0  0  0  0  0  0  0  0  0  0  0
   18.4872  -17.9152    7.3761 C   0  0  0  0  0  0  0  0  0  0  0  0
   18.2933  -17.9218    8.7873 O   0  0  0  0  0  0  0  0  0  0  0  0
   18.4423  -16.7672    6.8709 O   0  0  0  0  0  0  0  0  0  0  0  0
  1  2  1  0
  3  2  1  0
  4  3  1  0
  5  4  1  0
  5  1  1  0
  6  7  2  0
  5  6  1  1
  8  6  1  0
  9  8  1  0
 10 11  1  0
  9 10  1  1
 11 19  1  0
 11 12  2  0
 12 13  1  0
 14 13  1  0
 14 15  2  0
 16 15  1  0
 17 16  2  0
 18 19  2  0
 18 17  1  0
 19 14  1  0
 20 27  1  0
 20  9  1  0
 21 20  2  0
 23 22  1  1
 23 25  1  0
 24 23  1  0
 26 25  1  6
 26 27  1  0
 26 28  1  0
 28 29  1  0
 30 28  2  0
M  END
$$$$
