PWL.pdb
     RDKit          3D

 30 32  0  0  1  0  0  0  0  0999 V2000
   28.0569  -21.4593  -17.4626 N   0  0  0  0  0  0  0  0  0  0  0  0
   29.4220  -21.6003  -17.8711 C   0  0  0  0  0  0  0  0  0  0  0  0
   29.8355  -22.9112  -17.2240 C   0  0  0  0  0  0  0  0  0  0  0  0
   29.2355  -22.7333  -15.8450 C   0  0  0  0  0  0  0  0  0  0  0  0
   27.8862  -22.1267  -16.2033 C   0  0  1  0  0  0  0  0  0  0  0  0
   27.4687  -21.1648  -15.1316 C   0  0  0  0  0  0  0  0  0  0  0  0
   28.0371  -20.0558  -15.1145 O   0  0  0  0  0  0  0  0  0  0  0  0
   26.4678  -21.6089  -14.2417 N   0  0  0  0  0  0  0  0  0  0  0  0
   25.8074  -20.6353  -13.3694 C   0  0  1  0  0  0  0  0  0  0  0  0
   24.6086  -20.1707  -14.0915 C   0  0  0  0  0  0  0  0  0  0  0  0
   24.7297  -19.0037  -14.9780 C   0  0  0  0  0  0  0  0  0  0  0  0
   25.7068  -18.0170  -15.0334 C   0  0  0  0  0  0  0  0  0  0  0  0
   25.4031  -17.1376  -16.0004 N   0  0  0  0  0  0  0  0  0  0  0  0
   24.2547  -17.4805  -16.6139 C   0  0  0  0  0  0  0  0  0  0  0  0
   23.5515  -16.9154  -17.6597 C   0  0  0  0  0  0  0  0  0  0  0  0
   22.3981  -17.5404  -18.0703 C   0  0  0  0  0  0  0  0  0  0  0  0
   21.9388  -18.7044  -17.4640 C   0  0  0  0  0  0  0  0  0  0  0  0
   22.6624  -19.2346  -16.4299 C   0  0  0  0  0  0  0  0  0  0  0  0
   23.8273  -18.6392  -15.9856 C   0  0  0  0  0  0  0  0  0  0  0  0
   25.6388  -21.2369  -12.0418 C   0  0  0  0  0  0  0  0  0  0  0  0
   25.1497  -22.4039  -11.9193 O   0  0  0  0  0  0  0  0  0  0  0  0
   28.7610  -19.8212   -9.6343 C   0  0  0  0  0  0  0  0  0  0  0  0
   27.5842  -19.7992   -8.7317 C   0  0  2  0  0  0  0  0  0  0  0  0
   28.0553  -19.3751   -7.3160 C   0  0  0  0  0  0  0  0  0  0  0  0
   26.8235  -21.0533   -8.6388 C   0  0  0  0  0  0  0  0  0  0  0  0
   25.6704  -21.2632   -9.5604 C   0  0  2  0  0  0  0  0  0  0  0  0
   26.0114  -20.5740  -10.8414 N   0  0  0  0  0  0  0  0  0  0  0  0
   24.3929  -20.6946   -9.1289 C   0  0  0  0  0  0  0  0  0  0  0  0
   23.8130  -21.1027   -7.8934 O   0  0  0  0  0  0  0  0  0  0  0  0
   23.7052  -19.8465   -9.7477 O   0  0  0  0  0  0  0  0  0  0  0  0
  1  2  1  0
  3  2  1  0
  4  3  1  0
  5  4  1  0
  5  1  1  0
  6  7  2  0
  5  6  1  1
  8  6  1  0
  9  8  1  0
 10 11  1  0
  9 10  1  6
 11 19  1  0
 11 12  2  0
 12 13  1  0
 14 13  1  0
 14 15  2  0
 16 15  1  0
 17 16  2  0
 18 19  2  0
 18 17  1  0
 19 14  1  0
 20 27  1  0
 20  9  1  0
 21 20  2  0
 23 22  1  6
 23 25  1  0
 24 23  1  0
 26 25  1  1
 26 27  1  0
 26 28  1  0
 28 29  1  0
 30 28  2  0
M  END
$$$$
