PWL.pdb
     RDKit          3D

 30 32  0  0  1  0  0  0  0  0999 V2000
   27.0609  -19.9139  -14.7762 N   0  0  0  0  0  0  0  0  0  0  0  0
   28.4013  -19.4219  -14.8852 C   0  0  0  0  0  0  0  0  0  0  0  0
   29.1667  -20.6334  -15.3895 C   0  0  0  0  0  0  0  0  0  0  0  0
   28.5845  -21.7112  -14.4993 C   0  0  0  0  0  0  0  0  0  0  0  0
   27.1123  -21.3250  -14.5189 C   0  0  1  0  0  0  0  0  0  0  0  0
   26.4891  -21.6584  -13.1966 C   0  0  0  0  0  0  0  0  0  0  0  0
   26.4643  -22.8610  -12.8702 O   0  0  0  0  0  0  0  0  0  0  0  0
   25.9885  -20.5741  -12.4450 N   0  0  0  0  0  0  0  0  0  0  0  0
   25.3631  -20.8359  -11.1468 C   0  0  1  0  0  0  0  0  0  0  0  0
   26.0639  -19.9877  -10.1650 C   0  0  0  0  0  0  0  0  0  0  0  0
   27.3586  -20.4445   -9.6382 C   0  0  0  0  0  0  0  0  0  0  0  0
   28.3846  -21.1438  -10.2624 C   0  0  0  0  0  0  0  0  0  0  0  0
   29.3811  -21.3548   -9.3888 N   0  0  0  0  0  0  0  0  0  0  0  0
   29.0816  -20.8273   -8.1867 C   0  0  0  0  0  0  0  0  0  0  0  0
   29.7767  -20.7692   -6.9947 C   0  0  0  0  0  0  0  0  0  0  0  0
   29.1839  -20.1228   -5.9363 C   0  0  0  0  0  0  0  0  0  0  0  0
   27.9257  -19.5409   -6.0437 C   0  0  0  0  0  0  0  0  0  0  0  0
   27.2669  -19.6195   -7.2412 C   0  0  0  0  0  0  0  0  0  0  0  0
   27.8259  -20.2593   -8.3306 C   0  0  0  0  0  0  0  0  0  0  0  0
   23.9102  -20.6902  -11.2908 C   0  0  0  0  0  0  0  0  0  0  0  0
   23.1646  -20.6088  -10.2645 O   0  0  0  0  0  0  0  0  0  0  0  0
   22.8813  -20.7711  -15.2831 C   0  0  0  0  0  0  0  0  0  0  0  0
   21.7841  -19.7966  -15.0677 C   0  0  2  0  0  0  0  0  0  0  0  0
   21.9670  -18.6192  -16.0608 C   0  0  0  0  0  0  0  0  0  0  0  0
   21.6538  -19.2688  -13.7022 C   0  0  0  0  0  0  0  0  0  0  0  0
   21.8296  -20.2017  -12.5524 C   0  0  2  0  0  0  0  0  0  0  0  0
   23.2631  -20.6227  -12.5542 N   0  0  0  0  0  0  0  0  0  0  0  0
   21.0500  -21.4390  -12.6056 C   0  0  0  0  0  0  0  0  0  0  0  0
   19.6479  -21.4084  -12.3560 O   0  0  0  0  0  0  0  0  0  0  0  0
   21.4881  -22.5883  -12.8554 O   0  0  0  0  0  0  0  0  0  0  0  0
  1  2  1  0
  3  2  1  0
  4  3  1  0
  5  4  1  0
  5  1  1  0
  6  7  2  0
  5  6  1  1
  8  6  1  0
  9  8  1  0
 10 11  1  0
  9 10  1  1
 11 19  1  0
 11 12  2  0
 12 13  1  0
 14 13  1  0
 14 15  2  0
 16 15  1  0
 17 16  2  0
 18 19  2  0
 18 17  1  0
 19 14  1  0
 20 27  1  0
 20  9  1  0
 21 20  2  0
 23 22  1  1
 23 25  1  0
 24 23  1  0
 26 25  1  6
 26 27  1  0
 26 28  1  0
 28 29  1  0
 30 28  2  0
M  END
$$$$
