YIF.pdb
     RDKit          3D

 32 33  0  0  1  0  0  0  0  0999 V2000
  -10.9005    2.6508  -37.4975 O   0  0  0  0  0  0  0  0  0  0  0  0
  -10.8691    1.2626  -37.3542 C   0  0  0  0  0  0  0  0  0  0  0  0
  -11.7994    0.6271  -36.5788 C   0  0  0  0  0  0  0  0  0  0  0  0
  -11.8046   -0.7208  -36.4133 C   0  0  0  0  0  0  0  0  0  0  0  0
  -10.8497   -1.4847  -37.0394 C   0  0  0  0  0  0  0  0  0  0  0  0
  -10.8441   -2.9318  -36.8403 C   0  0  0  0  0  0  0  0  0  0  0  0
  -10.3094   -3.2905  -35.4870 C   0  0  2  0  0  0  0  0  0  0  0  0
  -10.6768   -4.6845  -35.1852 N   0  0  0  0  0  0  0  0  0  0  0  0
  -10.9493   -2.4436  -34.4574 C   0  0  0  0  0  0  0  0  0  0  0  0
  -12.1802   -2.1852  -34.5933 O   0  0  0  0  0  0  0  0  0  0  0  0
   -9.8956   -0.8899  -37.8273 C   0  0  0  0  0  0  0  0  0  0  0  0
   -9.9173    0.4792  -37.9753 C   0  0  0  0  0  0  0  0  0  0  0  0
  -14.1904   -2.9800  -31.4090 C   0  0  0  0  0  0  0  0  0  0  0  0
  -12.9495   -2.9151  -32.2392 C   0  0  0  0  0  0  0  0  0  0  0  0
  -12.4359   -1.4868  -32.3845 C   0  0  2  0  0  0  0  0  0  0  0  0
  -12.8217   -0.8780  -33.6815 C   0  0  0  0  0  0  0  0  0  0  0  0
  -10.9500   -1.4289  -32.1261 C   0  0  2  0  0  0  0  0  0  0  0  0
  -10.2529   -1.9210  -33.3515 N   0  0  0  0  0  0  0  0  0  0  0  0
  -10.5163   -2.2326  -30.9760 C   0  0  0  0  0  0  0  0  0  0  0  0
   -9.3736   -1.9649  -30.4567 O   0  0  0  0  0  0  0  0  0  0  0  0
  -11.2015   -3.2811  -30.3461 N   0  0  0  0  0  0  0  0  0  0  0  0
  -11.1358   -3.5601  -28.9068 C   0  0  1  0  0  0  0  0  0  0  0  0
  -11.4466   -2.3397  -28.1020 C   0  0  0  0  0  0  0  0  0  0  0  0
  -11.0767   -2.5619  -26.6920 C   0  0  0  0  0  0  0  0  0  0  0  0
  -10.6030   -3.7516  -26.2127 C   0  0  0  0  0  0  0  0  0  0  0  0
  -10.2686   -3.9215  -24.8991 C   0  0  0  0  0  0  0  0  0  0  0  0
  -10.4129   -2.8539  -24.0194 C   0  0  0  0  0  0  0  0  0  0  0  0
  -10.8850   -1.6372  -24.4528 C   0  0  0  0  0  0  0  0  0  0  0  0
  -11.2080   -1.5251  -25.7969 C   0  0  0  0  0  0  0  0  0  0  0  0
  -11.9224   -4.7476  -28.5570 C   0  0  0  0  0  0  0  0  0  0  0  0
  -13.0281   -4.5991  -27.9808 O   0  0  0  0  0  0  0  0  0  0  0  0
  -11.5362   -6.0453  -28.8183 O   0  0  0  0  0  0  0  0  0  0  0  0
  2  1  1  0
  3  2  2  0
  4  3  1  0
  5 11  1  0
  5  4  2  0
  6  5  1  0
  7  8  1  1
  7  6  1  0
  9 10  2  0
  9  7  1  0
 11 12  2  0
 12  2  1  0
 14 13  1  0
 15 14  1  0
 15 16  1  6
 17 15  1  0
 17 18  1  6
 18  9  1  0
 19 17  1  0
 20 19  2  0
 21 19  1  0
 22 23  1  1
 22 21  1  0
 23 24  1  0
 24 29  1  0
 25 24  2  0
 25 26  1  0
 26 27  2  0
 27 28  1  0
 29 28  2  0
 30 32  1  0
 30 22  1  0
 31 30  2  0
M  END
$$$$
