YIF.pdb
     RDKit          3D

 32 33  0  0  1  0  0  0  0  0999 V2000
   33.3443  -37.6014  -20.4788 O   0  0  0  0  0  0  0  0  0  0  0  0
   33.0945  -36.3589  -19.8937 C   0  0  0  0  0  0  0  0  0  0  0  0
   33.4018  -36.1402  -18.5790 C   0  0  0  0  0  0  0  0  0  0  0  0
   33.1754  -34.9468  -17.9717 C   0  0  0  0  0  0  0  0  0  0  0  0
   32.6195  -33.9154  -18.6891 C   0  0  0  0  0  0  0  0  0  0  0  0
   32.3557  -32.6406  -18.0264 C   0  0  0  0  0  0  0  0  0  0  0  0
   33.2387  -31.5566  -18.5660 C   0  0  2  0  0  0  0  0  0  0  0  0
   34.5924  -31.7261  -18.0109 N   0  0  0  0  0  0  0  0  0  0  0  0
   32.7472  -30.2391  -18.1084 C   0  0  0  0  0  0  0  0  0  0  0  0
   33.2051  -29.7890  -17.0184 O   0  0  0  0  0  0  0  0  0  0  0  0
   32.2943  -34.0893  -20.0115 C   0  0  0  0  0  0  0  0  0  0  0  0
   32.5365  -35.3114  -20.5986 C   0  0  0  0  0  0  0  0  0  0  0  0
   33.7894  -26.1227  -20.4465 C   0  0  0  0  0  0  0  0  0  0  0  0
   33.2980  -27.1235  -19.4513 C   0  0  0  0  0  0  0  0  0  0  0  0
   31.7781  -27.1062  -19.3299 C   0  0  2  0  0  0  0  0  0  0  0  0
   31.2522  -25.7526  -19.0249 C   0  0  0  0  0  0  0  0  0  0  0  0
   31.3129  -28.1534  -18.3475 C   0  0  2  0  0  0  0  0  0  0  0  0
   31.8037  -29.4799  -18.8259 N   0  0  0  0  0  0  0  0  0  0  0  0
   29.8538  -28.2133  -18.1912 C   0  0  0  0  0  0  0  0  0  0  0  0
   29.1617  -28.6195  -19.1927 O   0  0  0  0  0  0  0  0  0  0  0  0
   29.0906  -27.8814  -17.0629 N   0  0  0  0  0  0  0  0  0  0  0  0
   27.6445  -27.6328  -17.0914 C   0  0  1  0  0  0  0  0  0  0  0  0
   27.3367  -26.2783  -17.6428 C   0  0  0  0  0  0  0  0  0  0  0  0
   26.5500  -25.5058  -16.6637 C   0  0  0  0  0  0  0  0  0  0  0  0
   25.6988  -26.0761  -15.7584 C   0  0  0  0  0  0  0  0  0  0  0  0
   24.9861  -25.3289  -14.8641 C   0  0  0  0  0  0  0  0  0  0  0  0
   25.1280  -23.9453  -14.8716 C   0  0  0  0  0  0  0  0  0  0  0  0
   25.9716  -23.3242  -15.7625 C   0  0  0  0  0  0  0  0  0  0  0  0
   26.6686  -24.1350  -16.6459 C   0  0  0  0  0  0  0  0  0  0  0  0
   26.9255  -28.7388  -17.7327 C   0  0  0  0  0  0  0  0  0  0  0  0
   26.8863  -28.7957  -18.9864 O   0  0  0  0  0  0  0  0  0  0  0  0
   26.2750  -29.7464  -17.0523 O   0  0  0  0  0  0  0  0  0  0  0  0
  2  1  1  0
  3  2  2  0
  4  3  1  0
  5 11  1  0
  5  4  2  0
  6  5  1  0
  7  8  1  1
  7  6  1  0
  9 10  2  0
  9  7  1  0
 11 12  2  0
 12  2  1  0
 14 13  1  0
 15 14  1  0
 15 16  1  1
 17 15  1  0
 17 18  1  6
 18  9  1  0
 19 17  1  0
 20 19  2  0
 21 19  1  0
 22 23  1  6
 22 21  1  0
 23 24  1  0
 24 29  1  0
 25 24  2  0
 25 26  1  0
 26 27  2  0
 27 28  1  0
 29 28  2  0
 30 32  1  0
 30 22  1  0
 31 30  2  0
M  END
$$$$
