YIF.pdb
     RDKit          3D

 32 33  0  0  1  0  0  0  0  0999 V2000
   24.7742  -27.5136  -20.5870 O   0  0  0  0  0  0  0  0  0  0  0  0
   25.3968  -26.8044  -19.5585 C   0  0  0  0  0  0  0  0  0  0  0  0
   24.7365  -25.7908  -18.9203 C   0  0  0  0  0  0  0  0  0  0  0  0
   25.3055  -25.0765  -17.9152 C   0  0  0  0  0  0  0  0  0  0  0  0
   26.5865  -25.3703  -17.5152 C   0  0  0  0  0  0  0  0  0  0  0  0
   27.2037  -24.5845  -16.4496 C   0  0  0  0  0  0  0  0  0  0  0  0
   27.5242  -23.1967  -16.9158 C   0  0  2  0  0  0  0  0  0  0  0  0
   28.7629  -23.2370  -17.7115 N   0  0  0  0  0  0  0  0  0  0  0  0
   27.7895  -22.3276  -15.7492 C   0  0  0  0  0  0  0  0  0  0  0  0
   28.9305  -22.4046  -15.2084 O   0  0  0  0  0  0  0  0  0  0  0  0
   27.2879  -26.3793  -18.1274 C   0  0  0  0  0  0  0  0  0  0  0  0
   26.6830  -27.0853  -19.1435 C   0  0  0  0  0  0  0  0  0  0  0  0
   27.9422  -17.4552  -16.2508 C   0  0  0  0  0  0  0  0  0  0  0  0
   28.0651  -18.8330  -15.6851 C   0  0  0  0  0  0  0  0  0  0  0  0
   27.0275  -19.0971  -14.5994 C   0  0  2  0  0  0  0  0  0  0  0  0
   27.0767  -18.0861  -13.5144 C   0  0  0  0  0  0  0  0  0  0  0  0
   27.1421  -20.5131  -14.0898 C   0  0  2  0  0  0  0  0  0  0  0  0
   26.8366  -21.4341  -15.2248 N   0  0  0  0  0  0  0  0  0  0  0  0
   26.2376  -20.8166  -12.9733 C   0  0  0  0  0  0  0  0  0  0  0  0
   24.9856  -20.9288  -13.2319 O   0  0  0  0  0  0  0  0  0  0  0  0
   26.5645  -21.0102  -11.6237 N   0  0  0  0  0  0  0  0  0  0  0  0
   25.5967  -21.3934  -10.5891 C   0  0  1  0  0  0  0  0  0  0  0  0
   26.2812  -21.9623   -9.3886 C   0  0  0  0  0  0  0  0  0  0  0  0
   27.0110  -20.8972   -8.6764 C   0  0  0  0  0  0  0  0  0  0  0  0
   26.3978  -19.9250   -7.9359 C   0  0  0  0  0  0  0  0  0  0  0  0
   27.1063  -18.9534   -7.2876 C   0  0  0  0  0  0  0  0  0  0  0  0
   28.4940  -18.9499   -7.3813 C   0  0  0  0  0  0  0  0  0  0  0  0
   29.1574  -19.9062   -8.1137 C   0  0  0  0  0  0  0  0  0  0  0  0
   28.3847  -20.8665   -8.7495 C   0  0  0  0  0  0  0  0  0  0  0  0
   24.6583  -20.3022  -10.3059 C   0  0  0  0  0  0  0  0  0  0  0  0
   25.0251  -19.1168  -10.4973 O   0  0  0  0  0  0  0  0  0  0  0  0
   23.3737  -20.4787   -9.8366 O   0  0  0  0  0  0  0  0  0  0  0  0
  2  1  1  0
  3  2  2  0
  4  3  1  0
  5 11  1  0
  5  4  2  0
  6  5  1  0
  7  8  1  6
  7  6  1  0
  9 10  2  0
  9  7  1  0
 11 12  2  0
 12  2  1  0
 14 13  1  0
 15 14  1  0
 15 16  1  1
 17 15  1  0
 17 18  1  6
 18  9  1  0
 19 17  1  0
 20 19  2  0
 21 19  1  0
 22 23  1  1
 22 21  1  0
 23 24  1  0
 24 29  1  0
 25 24  2  0
 25 26  1  0
 26 27  2  0
 27 28  1  0
 29 28  2  0
 30 32  1  0
 30 22  1  0
 31 30  2  0
M  END
$$$$
