YIF.pdb
     RDKit          3D

 32 33  0  0  1  0  0  0  0  0999 V2000
   29.7339  -16.2145  -19.1063 O   0  0  0  0  0  0  0  0  0  0  0  0
   28.9186  -16.9920  -18.2821 C   0  0  0  0  0  0  0  0  0  0  0  0
   28.3632  -18.1496  -18.7536 C   0  0  0  0  0  0  0  0  0  0  0  0
   27.5650  -18.9347  -17.9850 C   0  0  0  0  0  0  0  0  0  0  0  0
   27.2976  -18.5669  -16.6887 C   0  0  0  0  0  0  0  0  0  0  0  0
   26.4198  -19.4018  -15.8723 C   0  0  0  0  0  0  0  0  0  0  0  0
   27.2062  -20.2187  -14.8925 C   0  0  2  0  0  0  0  0  0  0  0  0
   27.8654  -21.3207  -15.6138 N   0  0  0  0  0  0  0  0  0  0  0  0
   26.2905  -20.8346  -13.9082 C   0  0  0  0  0  0  0  0  0  0  0  0
   25.7940  -21.9622  -14.1953 O   0  0  0  0  0  0  0  0  0  0  0  0
   27.8330  -17.4129  -16.1727 C   0  0  0  0  0  0  0  0  0  0  0  0
   28.6387  -16.6382  -16.9774 C   0  0  0  0  0  0  0  0  0  0  0  0
   27.5236  -20.7696   -8.7954 C   0  0  0  0  0  0  0  0  0  0  0  0
   26.9404  -21.1432  -10.1196 C   0  0  0  0  0  0  0  0  0  0  0  0
   25.5483  -20.5525  -10.3155 C   0  0  2  0  0  0  0  0  0  0  0  0
   24.6074  -20.9588   -9.2425 C   0  0  0  0  0  0  0  0  0  0  0  0
   25.0314  -20.8614  -11.6995 C   0  0  2  0  0  0  0  0  0  0  0  0
   25.9540  -20.2240  -12.6855 N   0  0  0  0  0  0  0  0  0  0  0  0
   23.6659  -20.3790  -11.9438 C   0  0  0  0  0  0  0  0  0  0  0  0
   23.4272  -19.1340  -11.7437 O   0  0  0  0  0  0  0  0  0  0  0  0
   22.5550  -21.1131  -12.3826 N   0  0  0  0  0  0  0  0  0  0  0  0
   21.5658  -20.6132  -13.3445 C   0  0  1  0  0  0  0  0  0  0  0  0
   22.2272  -19.9514  -14.5099 C   0  0  0  0  0  0  0  0  0  0  0  0
   21.2054  -19.4382  -15.4409 C   0  0  0  0  0  0  0  0  0  0  0  0
   20.4516  -18.3238  -15.1973 C   0  0  0  0  0  0  0  0  0  0  0  0
   19.5138  -17.8758  -16.0839 C   0  0  0  0  0  0  0  0  0  0  0  0
   19.3169  -18.5721  -17.2718 C   0  0  0  0  0  0  0  0  0  0  0  0
   20.0500  -19.6985  -17.5630 C   0  0  0  0  0  0  0  0  0  0  0  0
   20.9871  -20.1048  -16.6248 C   0  0  0  0  0  0  0  0  0  0  0  0
   20.5907  -21.6512  -13.6953 C   0  0  0  0  0  0  0  0  0  0  0  0
   20.9905  -22.8274  -13.8778 O   0  0  0  0  0  0  0  0  0  0  0  0
   19.2370  -21.4337  -13.8424 O   0  0  0  0  0  0  0  0  0  0  0  0
  2  1  1  0
  3  2  2  0
  4  3  1  0
  5 11  1  0
  5  4  2  0
  6  5  1  0
  7  8  1  6
  7  6  1  0
  9 10  2  0
  9  7  1  0
 11 12  2  0
 12  2  1  0
 14 13  1  0
 15 14  1  0
 15 16  1  1
 17 15  1  0
 17 18  1  6
 18  9  1  0
 19 17  1  0
 20 19  2  0
 21 19  1  0
 22 23  1  6
 22 21  1  0
 23 24  1  0
 24 29  1  0
 25 24  2  0
 25 26  1  0
 26 27  2  0
 27 28  1  0
 29 28  2  0
 30 32  1  0
 30 22  1  0
 31 30  2  0
M  END
$$$$
