YIF.pdb
     RDKit          3D

 32 33  0  0  1  0  0  0  0  0999 V2000
   16.2699  -12.5561  -21.4639 O   0  0  0  0  0  0  0  0  0  0  0  0
   16.8971  -11.9267  -20.3874 C   0  0  0  0  0  0  0  0  0  0  0  0
   18.0874  -11.2770  -20.5651 C   0  0  0  0  0  0  0  0  0  0  0  0
   18.7301  -10.6521  -19.5450 C   0  0  0  0  0  0  0  0  0  0  0  0
   18.1785  -10.6645  -18.2869 C   0  0  0  0  0  0  0  0  0  0  0  0
   18.8842  -10.0113  -17.1873 C   0  0  0  0  0  0  0  0  0  0  0  0
   20.0213  -10.8549  -16.6961 C   0  0  2  0  0  0  0  0  0  0  0  0
   19.4736  -12.0364  -16.0080 N   0  0  0  0  0  0  0  0  0  0  0  0
   20.8070  -10.0998  -15.6966 C   0  0  0  0  0  0  0  0  0  0  0  0
   20.3408  -10.0199  -14.5233 O   0  0  0  0  0  0  0  0  0  0  0  0
   16.9851  -11.3047  -18.0613 C   0  0  0  0  0  0  0  0  0  0  0  0
   16.3579  -11.9291  -19.1166 C   0  0  0  0  0  0  0  0  0  0  0  0
   26.3021   -9.7849  -16.2558 C   0  0  0  0  0  0  0  0  0  0  0  0
   24.8979   -9.2743  -16.2862 C   0  0  0  0  0  0  0  0  0  0  0  0
   24.2124   -9.4131  -14.9312 C   0  0  2  0  0  0  0  0  0  0  0  0
   24.1818  -10.8185  -14.4562 C   0  0  0  0  0  0  0  0  0  0  0  0
   22.8464   -8.7719  -14.9601 C   0  0  2  0  0  0  0  0  0  0  0  0
   22.0324   -9.4752  -15.9957 N   0  0  0  0  0  0  0  0  0  0  0  0
   22.8717   -7.3361  -15.2680 C   0  0  0  0  0  0  0  0  0  0  0  0
   22.7482   -6.9861  -16.4965 O   0  0  0  0  0  0  0  0  0  0  0  0
   23.0125   -6.2629  -14.3769 N   0  0  0  0  0  0  0  0  0  0  0  0
   22.9343   -4.8511  -14.7698 C   0  0  1  0  0  0  0  0  0  0  0  0
   23.7821   -4.5728  -15.9686 C   0  0  0  0  0  0  0  0  0  0  0  0
   23.6706   -3.1507  -16.3419 C   0  0  0  0  0  0  0  0  0  0  0  0
   23.8483   -2.1209  -15.4600 C   0  0  0  0  0  0  0  0  0  0  0  0
   23.7386   -0.8138  -15.8414 C   0  0  0  0  0  0  0  0  0  0  0  0
   23.4369   -0.5174  -17.1665 C   0  0  0  0  0  0  0  0  0  0  0  0
   23.2490   -1.5175  -18.0914 C   0  0  0  0  0  0  0  0  0  0  0  0
   23.3733   -2.8248  -17.6453 C   0  0  0  0  0  0  0  0  0  0  0  0
   21.5416   -4.4046  -14.8811 C   0  0  0  0  0  0  0  0  0  0  0  0
   20.7973   -4.9360  -15.7415 O   0  0  0  0  0  0  0  0  0  0  0  0
   20.9700   -3.4255  -14.0962 O   0  0  0  0  0  0  0  0  0  0  0  0
  2  1  1  0
  3  2  2  0
  4  3  1  0
  5 11  1  0
  5  4  2  0
  6  5  1  0
  7  8  1  1
  7  6  1  0
  9 10  2  0
  9  7  1  0
 11 12  2  0
 12  2  1  0
 14 13  1  0
 15 14  1  0
 15 16  1  6
 17 15  1  0
 17 18  1  6
 18  9  1  0
 19 17  1  0
 20 19  2  0
 21 19  1  0
 22 23  1  6
 22 21  1  0
 23 24  1  0
 24 29  1  0
 25 24  2  0
 25 26  1  0
 26 27  2  0
 27 28  1  0
 29 28  2  0
 30 32  1  0
 30 22  1  0
 31 30  2  0
M  END
$$$$
