YIF.pdb
     RDKit          3D

 32 33  0  0  1  0  0  0  0  0999 V2000
   31.4316  -15.5476  -18.4649 O   0  0  0  0  0  0  0  0  0  0  0  0
   30.2993  -16.2330  -18.0215 C   0  0  0  0  0  0  0  0  0  0  0  0
   29.0493  -15.7410  -18.2785 C   0  0  0  0  0  0  0  0  0  0  0  0
   27.9224  -16.3764  -17.8655 C   0  0  0  0  0  0  0  0  0  0  0  0
   28.0257  -17.5537  -17.1650 C   0  0  0  0  0  0  0  0  0  0  0  0
   26.8121  -18.2222  -16.7020 C   0  0  0  0  0  0  0  0  0  0  0  0
   26.5890  -19.5095  -17.4362 C   0  0  2  0  0  0  0  0  0  0  0  0
   26.4123  -19.2151  -18.8685 N   0  0  0  0  0  0  0  0  0  0  0  0
   25.3359  -20.1398  -16.9681 C   0  0  0  0  0  0  0  0  0  0  0  0
   24.2832  -19.9156  -17.6328 O   0  0  0  0  0  0  0  0  0  0  0  0
   29.2599  -18.0850  -16.8835 C   0  0  0  0  0  0  0  0  0  0  0  0
   30.3837  -17.4168  -17.3163 C   0  0  0  0  0  0  0  0  0  0  0  0
   23.7949  -25.6606  -15.5804 C   0  0  0  0  0  0  0  0  0  0  0  0
   23.4133  -24.2347  -15.3470 C   0  0  0  0  0  0  0  0  0  0  0  0
   24.5476  -23.2774  -15.6966 C   0  0  2  0  0  0  0  0  0  0  0  0
   25.7902  -23.5765  -14.9428 C   0  0  0  0  0  0  0  0  0  0  0  0
   24.0978  -21.8447  -15.5449 C   0  0  2  0  0  0  0  0  0  0  0  0
   25.2700  -20.9645  -15.8293 N   0  0  0  0  0  0  0  0  0  0  0  0
   23.5748  -21.5254  -14.2102 C   0  0  0  0  0  0  0  0  0  0  0  0
   24.2970  -21.8351  -13.1956 O   0  0  0  0  0  0  0  0  0  0  0  0
   22.3602  -20.9065  -13.8827 N   0  0  0  0  0  0  0  0  0  0  0  0
   21.8606  -20.7479  -12.5119 C   0  0  1  0  0  0  0  0  0  0  0  0
   22.4175  -19.5188  -11.8694 C   0  0  0  0  0  0  0  0  0  0  0  0
   23.6244  -19.8616  -11.0947 C   0  0  0  0  0  0  0  0  0  0  0  0
   24.8935  -19.7845  -11.5978 C   0  0  0  0  0  0  0  0  0  0  0  0
   25.9898  -20.1090  -10.8502 C   0  0  0  0  0  0  0  0  0  0  0  0
   25.8137  -20.5312   -9.5367 C   0  0  0  0  0  0  0  0  0  0  0  0
   24.5577  -20.6253   -8.9848 C   0  0  0  0  0  0  0  0  0  0  0  0
   23.4834  -20.2825   -9.7922 C   0  0  0  0  0  0  0  0  0  0  0  0
   20.3994  -20.8641  -12.4597 C   0  0  0  0  0  0  0  0  0  0  0  0
   19.7501  -20.8850  -13.5342 O   0  0  0  0  0  0  0  0  0  0  0  0
   19.6641  -20.9563  -11.2968 O   0  0  0  0  0  0  0  0  0  0  0  0
  2  1  1  0
  3  2  2  0
  4  3  1  0
  5 11  1  0
  5  4  2  0
  6  5  1  0
  7  8  1  6
  7  6  1  0
  9 10  2  0
  9  7  1  0
 11 12  2  0
 12  2  1  0
 14 13  1  0
 15 14  1  0
 15 16  1  1
 17 15  1  0
 17 18  1  1
 18  9  1  0
 19 17  1  0
 20 19  2  0
 21 19  1  0
 22 23  1  6
 22 21  1  0
 23 24  1  0
 24 29  1  0
 25 24  2  0
 25 26  1  0
 26 27  2  0
 27 28  1  0
 29 28  2  0
 30 32  1  0
 30 22  1  0
 31 30  2  0
M  END
$$$$
