YIF.pdb
     RDKit          3D

 32 33  0  0  1  0  0  0  0  0999 V2000
   10.3663  -10.8923  -18.2143 O   0  0  0  0  0  0  0  0  0  0  0  0
   11.5648  -10.6910  -17.5275 C   0  0  0  0  0  0  0  0  0  0  0  0
   12.7081  -10.3786  -18.2102 C   0  0  0  0  0  0  0  0  0  0  0  0
   13.8940  -10.1747  -17.5807 C   0  0  0  0  0  0  0  0  0  0  0  0
   13.9632  -10.2823  -16.2129 C   0  0  0  0  0  0  0  0  0  0  0  0
   15.2454  -10.0853  -15.5414 C   0  0  0  0  0  0  0  0  0  0  0  0
   16.1103  -11.3037  -15.6568 C   0  0  2  0  0  0  0  0  0  0  0  0
   15.5856  -12.3457  -14.7577 N   0  0  0  0  0  0  0  0  0  0  0  0
   17.4801  -10.9882  -15.1976 C   0  0  0  0  0  0  0  0  0  0  0  0
   17.6769  -10.9103  -13.9504 O   0  0  0  0  0  0  0  0  0  0  0  0
   12.8410  -10.5944  -15.4861 C   0  0  0  0  0  0  0  0  0  0  0  0
   11.6533  -10.7952  -16.1538 C   0  0  0  0  0  0  0  0  0  0  0  0
   20.9107  -13.3707  -17.6293 C   0  0  0  0  0  0  0  0  0  0  0  0
   20.7320  -12.6647  -16.3242 C   0  0  0  0  0  0  0  0  0  0  0  0
   20.9208  -11.1579  -16.4618 C   0  0  2  0  0  0  0  0  0  0  0  0
   22.3226  -10.7401  -16.2126 C   0  0  0  0  0  0  0  0  0  0  0  0
   19.9247  -10.4182  -15.6022 C   0  0  2  0  0  0  0  0  0  0  0  0
   18.5553  -10.7729  -16.0802 N   0  0  0  0  0  0  0  0  0  0  0  0
   20.0788   -8.9581  -15.6388 C   0  0  0  0  0  0  0  0  0  0  0  0
   19.7368   -8.3478  -16.7147 O   0  0  0  0  0  0  0  0  0  0  0  0
   20.5592   -8.1137  -14.6279 N   0  0  0  0  0  0  0  0  0  0  0  0
   20.7546   -6.6679  -14.7868 C   0  0  1  0  0  0  0  0  0  0  0  0
   21.0465   -6.0117  -13.4762 C   0  0  0  0  0  0  0  0  0  0  0  0
   21.1777   -4.5550  -13.6636 C   0  0  0  0  0  0  0  0  0  0  0  0
   22.3343   -3.9448  -14.0629 C   0  0  0  0  0  0  0  0  0  0  0  0
   22.4195   -2.5914  -14.2277 C   0  0  0  0  0  0  0  0  0  0  0  0
   21.2974   -1.8068  -13.9828 C   0  0  0  0  0  0  0  0  0  0  0  0
   20.1109   -2.3730  -13.5795 C   0  0  0  0  0  0  0  0  0  0  0  0
   20.0853   -3.7516  -13.4295 C   0  0  0  0  0  0  0  0  0  0  0  0
   21.7180   -6.3738  -15.8530 C   0  0  0  0  0  0  0  0  0  0  0  0
   21.3833   -5.5966  -16.7806 O   0  0  0  0  0  0  0  0  0  0  0  0
   22.9935   -6.8937  -15.9186 O   0  0  0  0  0  0  0  0  0  0  0  0
  2  1  1  0
  3  2  2  0
  4  3  1  0
  5 11  1  0
  5  4  2  0
  6  5  1  0
  7  8  1  1
  7  6  1  0
  9 10  2  0
  9  7  1  0
 11 12  2  0
 12  2  1  0
 14 13  1  0
 15 14  1  0
 15 16  1  1
 17 15  1  0
 17 18  1  6
 18  9  1  0
 19 17  1  0
 20 19  2  0
 21 19  1  0
 22 23  1  1
 22 21  1  0
 23 24  1  0
 24 29  1  0
 25 24  2  0
 25 26  1  0
 26 27  2  0
 27 28  1  0
 29 28  2  0
 30 32  1  0
 30 22  1  0
 31 30  2  0
M  END
$$$$
