YIF.pdb
     RDKit          3D

 32 33  0  0  1  0  0  0  0  0999 V2000
   20.0113  -18.6330  -25.8493 O   0  0  0  0  0  0  0  0  0  0  0  0
   19.1550  -18.9065  -24.7814 C   0  0  0  0  0  0  0  0  0  0  0  0
   19.6519  -19.0387  -23.5140 C   0  0  0  0  0  0  0  0  0  0  0  0
   18.8538  -19.3043  -22.4478 C   0  0  0  0  0  0  0  0  0  0  0  0
   17.5001  -19.4475  -22.6329 C   0  0  0  0  0  0  0  0  0  0  0  0
   16.6477  -19.7563  -21.4875 C   0  0  0  0  0  0  0  0  0  0  0  0
   16.5856  -21.2332  -21.2409 C   0  0  2  0  0  0  0  0  0  0  0  0
   15.7793  -21.8587  -22.3029 N   0  0  0  0  0  0  0  0  0  0  0  0
   15.8919  -21.4964  -19.9617 C   0  0  0  0  0  0  0  0  0  0  0  0
   14.6288  -21.4265  -19.9547 O   0  0  0  0  0  0  0  0  0  0  0  0
   16.9567  -19.3236  -23.8876 C   0  0  0  0  0  0  0  0  0  0  0  0
   17.7927  -19.0539  -24.9484 C   0  0  0  0  0  0  0  0  0  0  0  0
   17.0334  -25.6325  -16.9765 C   0  0  0  0  0  0  0  0  0  0  0  0
   16.3069  -24.4746  -17.5806 C   0  0  0  0  0  0  0  0  0  0  0  0
   16.5067  -23.1949  -16.7759 C   0  0  2  0  0  0  0  0  0  0  0  0
   16.0682  -23.3412  -15.3659 C   0  0  0  0  0  0  0  0  0  0  0  0
   15.8607  -22.0232  -17.4745 C   0  0  2  0  0  0  0  0  0  0  0  0
   16.5716  -21.8146  -18.7709 N   0  0  0  0  0  0  0  0  0  0  0  0
   15.9031  -20.7751  -16.7016 C   0  0  0  0  0  0  0  0  0  0  0  0
   17.0521  -20.2478  -16.4806 O   0  0  0  0  0  0  0  0  0  0  0  0
   14.8281  -20.0570  -16.1590 N   0  0  0  0  0  0  0  0  0  0  0  0
   14.9709  -18.8069  -15.4036 C   0  0  1  0  0  0  0  0  0  0  0  0
   15.7269  -17.7824  -16.1861 C   0  0  0  0  0  0  0  0  0  0  0  0
   14.8525  -17.1941  -17.2174 C   0  0  0  0  0  0  0  0  0  0  0  0
   13.9312  -16.2171  -16.9604 C   0  0  0  0  0  0  0  0  0  0  0  0
   13.1379  -15.6936  -17.9416 C   0  0  0  0  0  0  0  0  0  0  0  0
   13.2686  -16.1664  -19.2432 C   0  0  0  0  0  0  0  0  0  0  0  0
   14.1807  -17.1480  -19.5524 C   0  0  0  0  0  0  0  0  0  0  0  0
   14.9579  -17.6406  -18.5147 C   0  0  0  0  0  0  0  0  0  0  0  0
   13.6803  -18.3522  -14.8755 C   0  0  0  0  0  0  0  0  0  0  0  0
   13.6438  -17.3253  -14.1539 O   0  0  0  0  0  0  0  0  0  0  0  0
   12.4744  -18.9764  -15.1156 O   0  0  0  0  0  0  0  0  0  0  0  0
  2  1  1  0
  3  2  2  0
  4  3  1  0
  5 11  1  0
  5  4  2  0
  6  5  1  0
  7  8  1  6
  7  6  1  0
  9 10  2  0
  9  7  1  0
 11 12  2  0
 12  2  1  0
 14 13  1  0
 15 14  1  0
 15 16  1  1
 17 15  1  0
 17 18  1  6
 18  9  1  0
 19 17  1  0
 20 19  2  0
 21 19  1  0
 22 23  1  6
 22 21  1  0
 23 24  1  0
 24 29  1  0
 25 24  2  0
 25 26  1  0
 26 27  2  0
 27 28  1  0
 29 28  2  0
 30 32  1  0
 30 22  1  0
 31 30  2  0
M  END
$$$$
