YIF.pdb
     RDKit          3D

 32 33  0  0  1  0  0  0  0  0999 V2000
   17.9699  -16.9586  -15.5510 O   0  0  0  0  0  0  0  0  0  0  0  0
   18.9953  -17.7001  -14.9617 C   0  0  0  0  0  0  0  0  0  0  0  0
   18.8091  -19.0222  -14.6651 C   0  0  0  0  0  0  0  0  0  0  0  0
   19.7803  -19.7790  -14.0921 C   0  0  0  0  0  0  0  0  0  0  0  0
   20.9955  -19.2116  -13.7948 C   0  0  0  0  0  0  0  0  0  0  0  0
   22.0297  -20.0227  -13.1572 C   0  0  0  0  0  0  0  0  0  0  0  0
   23.2214  -20.1823  -14.0519 C   0  0  2  0  0  0  0  0  0  0  0  0
   22.8380  -21.0055  -15.2115 N   0  0  0  0  0  0  0  0  0  0  0  0
   24.2874  -20.9159  -13.3363 C   0  0  0  0  0  0  0  0  0  0  0  0
   24.1505  -22.1665  -13.2031 O   0  0  0  0  0  0  0  0  0  0  0  0
   21.2275  -17.8876  -14.0745 C   0  0  0  0  0  0  0  0  0  0  0  0
   20.2225  -17.1468  -14.6558 C   0  0  0  0  0  0  0  0  0  0  0  0
   30.2739  -20.9700  -12.2265 C   0  0  0  0  0  0  0  0  0  0  0  0
   28.9077  -21.4125  -11.8131 C   0  0  0  0  0  0  0  0  0  0  0  0
   27.8152  -20.5793  -12.4744 C   0  0  2  0  0  0  0  0  0  0  0  0
   28.0369  -19.1219  -12.3047 C   0  0  0  0  0  0  0  0  0  0  0  0
   26.4515  -21.0255  -12.0060 C   0  0  2  0  0  0  0  0  0  0  0  0
   25.4289  -20.2867  -12.8048 N   0  0  0  0  0  0  0  0  0  0  0  0
   26.2065  -20.7838  -10.5783 C   0  0  0  0  0  0  0  0  0  0  0  0
   25.7194  -19.6458  -10.2397 O   0  0  0  0  0  0  0  0  0  0  0  0
   26.4349  -21.6534   -9.5024 N   0  0  0  0  0  0  0  0  0  0  0  0
   26.8207  -21.2138   -8.1564 C   0  0  1  0  0  0  0  0  0  0  0  0
   28.2503  -20.7800   -8.1154 C   0  0  0  0  0  0  0  0  0  0  0  0
   28.6005  -20.3370   -6.7532 C   0  0  0  0  0  0  0  0  0  0  0  0
   29.2849  -21.1118   -5.8583 C   0  0  0  0  0  0  0  0  0  0  0  0
   29.5936  -20.6680   -4.6038 C   0  0  0  0  0  0  0  0  0  0  0  0
   29.2015  -19.3894   -4.2215 C   0  0  0  0  0  0  0  0  0  0  0  0
   28.5113  -18.5718   -5.0853 C   0  0  0  0  0  0  0  0  0  0  0  0
   28.2267  -19.0772   -6.3451 C   0  0  0  0  0  0  0  0  0  0  0  0
   25.8643  -20.2408   -7.6182 C   0  0  0  0  0  0  0  0  0  0  0  0
   25.9878  -19.0296   -7.9253 O   0  0  0  0  0  0  0  0  0  0  0  0
   24.8137  -20.5578   -6.7832 O   0  0  0  0  0  0  0  0  0  0  0  0
  2  1  1  0
  3  2  2  0
  4  3  1  0
  5 11  1  0
  5  4  2  0
  6  5  1  0
  7  8  1  6
  7  6  1  0
  9 10  2  0
  9  7  1  0
 11 12  2  0
 12  2  1  0
 14 13  1  0
 15 14  1  0
 15 16  1  1
 17 15  1  0
 17 18  1  6
 18  9  1  0
 19 17  1  0
 20 19  2  0
 21 19  1  0
 22 23  1  6
 22 21  1  0
 23 24  1  0
 24 29  1  0
 25 24  2  0
 25 26  1  0
 26 27  2  0
 27 28  1  0
 29 28  2  0
 30 32  1  0
 30 22  1  0
 31 30  2  0
M  END
$$$$
