YIF.pdb
     RDKit          3D

 32 33  0  0  1  0  0  0  0  0999 V2000
   16.5088  -18.5382  -12.6594 O   0  0  0  0  0  0  0  0  0  0  0  0
   17.7591  -19.0717  -12.3420 C   0  0  0  0  0  0  0  0  0  0  0  0
   18.8976  -18.3521  -12.5799 C   0  0  0  0  0  0  0  0  0  0  0  0
   20.1329  -18.8339  -12.2859 C   0  0  0  0  0  0  0  0  0  0  0  0
   20.2587  -20.0841  -11.7306 C   0  0  0  0  0  0  0  0  0  0  0  0
   21.5903  -20.6085  -11.4372 C   0  0  0  0  0  0  0  0  0  0  0  0
   22.4580  -20.5978  -12.6590 C   0  0  2  0  0  0  0  0  0  0  0  0
   21.9024  -21.5407  -13.6447 N   0  0  0  0  0  0  0  0  0  0  0  0
   23.8115  -21.0833  -12.3137 C   0  0  0  0  0  0  0  0  0  0  0  0
   23.9445  -22.3147  -12.0565 O   0  0  0  0  0  0  0  0  0  0  0  0
   19.1434  -20.8426  -11.4745 C   0  0  0  0  0  0  0  0  0  0  0  0
   17.9049  -20.3258  -11.7840 C   0  0  0  0  0  0  0  0  0  0  0  0
   27.6310  -20.0461  -15.5061 C   0  0  0  0  0  0  0  0  0  0  0  0
   26.7610  -20.6138  -14.4317 C   0  0  0  0  0  0  0  0  0  0  0  0
   27.2356  -20.2070  -13.0409 C   0  0  2  0  0  0  0  0  0  0  0  0
   28.6584  -20.5566  -12.8059 C   0  0  0  0  0  0  0  0  0  0  0  0
   26.3115  -20.7593  -11.9829 C   0  0  2  0  0  0  0  0  0  0  0  0
   24.9384  -20.2417  -12.2592 N   0  0  0  0  0  0  0  0  0  0  0  0
   26.6923  -20.3924  -10.6128 C   0  0  0  0  0  0  0  0  0  0  0  0
   26.1195  -19.3717  -10.0863 O   0  0  0  0  0  0  0  0  0  0  0  0
   27.6208  -21.0255   -9.7744 N   0  0  0  0  0  0  0  0  0  0  0  0
   28.0886  -20.4721   -8.4982 C   0  0  1  0  0  0  0  0  0  0  0  0
   26.9537  -20.2601   -7.5492 C   0  0  0  0  0  0  0  0  0  0  0  0
   27.4645  -19.7506   -6.2632 C   0  0  0  0  0  0  0  0  0  0  0  0
   27.8137  -18.4457   -6.0516 C   0  0  0  0  0  0  0  0  0  0  0  0
   28.2826  -18.0079   -4.8455 C   0  0  0  0  0  0  0  0  0  0  0  0
   28.4102  -18.9145   -3.7984 C   0  0  0  0  0  0  0  0  0  0  0  0
   28.0722  -20.2375   -3.9612 C   0  0  0  0  0  0  0  0  0  0  0  0
   27.6020  -20.6227   -5.2078 C   0  0  0  0  0  0  0  0  0  0  0  0
   29.2085  -21.2501   -7.9579 C   0  0  0  0  0  0  0  0  0  0  0  0
   29.2330  -22.4921   -8.1402 O   0  0  0  0  0  0  0  0  0  0  0  0
   30.2631  -20.7131   -7.2500 O   0  0  0  0  0  0  0  0  0  0  0  0
  2  1  1  0
  3  2  2  0
  4  3  1  0
  5 11  1  0
  5  4  2  0
  6  5  1  0
  7  8  1  6
  7  6  1  0
  9 10  2  0
  9  7  1  0
 11 12  2  0
 12  2  1  0
 14 13  1  0
 15 14  1  0
 15 16  1  1
 17 15  1  0
 17 18  1  6
 18  9  1  0
 19 17  1  0
 20 19  2  0
 21 19  1  0
 22 23  1  1
 22 21  1  0
 23 24  1  0
 24 29  1  0
 25 24  2  0
 25 26  1  0
 26 27  2  0
 27 28  1  0
 29 28  2  0
 30 32  1  0
 30 22  1  0
 31 30  2  0
M  END
$$$$
