IAG.pdb
     RDKit          3D

 18 17  0  0  1  0  0  0  0  0999 V2000
    6.9138  -11.8145   27.6921 C   0  0  0  0  0  0  0  0  0  0  0  0
    6.3503  -13.0016   26.9935 C   0  0  0  0  0  0  0  0  0  0  0  0
    7.2792  -13.6104   25.9502 C   0  0  2  0  0  0  0  0  0  0  0  0
    7.5504  -12.4986   24.9595 C   0  0  0  0  0  0  0  0  0  0  0  0
    6.5211  -14.7384   25.2839 C   0  0  2  0  0  0  0  0  0  0  0  0
    6.3242  -15.7709   26.3073 N   0  0  0  0  0  0  0  0  0  0  0  0
    7.2137  -15.3496   24.1508 C   0  0  0  0  0  0  0  0  0  0  0  0
    7.9079  -16.4104   24.3366 O   0  0  0  0  0  0  0  0  0  0  0  0
    7.4828  -15.0211   20.3791 C   0  0  0  0  0  0  0  0  0  0  0  0
    7.8467  -15.5816   21.7138 C   0  0  2  0  0  0  0  0  0  0  0  0
    7.2090  -14.8903   22.8116 N   0  0  0  0  0  0  0  0  0  0  0  0
    9.3204  -15.5906   21.8413 C   0  0  0  0  0  0  0  0  0  0  0  0
   10.0038  -16.1701   20.9700 O   0  0  0  0  0  0  0  0  0  0  0  0
    9.9753  -14.9604   22.9233 N   0  0  0  0  0  0  0  0  0  0  0  0
   11.4209  -15.0012   23.0997 C   0  0  0  0  0  0  0  0  0  0  0  0
   11.8216  -16.2560   23.8052 C   0  0  0  0  0  0  0  0  0  0  0  0
   12.8929  -16.9724   23.3270 O   0  0  0  0  0  0  0  0  0  0  0  0
   11.2138  -16.6603   24.8032 O   0  0  0  0  0  0  0  0  0  0  0  0
  2  1  1  0
  3  2  1  0
  3  4  1  6
  5  7  1  0
  5  3  1  0
  5  6  1  1
  7  8  2  0
 10  9  1  6
 10 12  1  0
 11 10  1  0
 11  7  1  0
 12 13  2  0
 12 14  1  0
 14 15  1  0
 15 16  1  0
 16 18  2  0
 16 17  1  0
M  END
$$$$
