IAG.pdb
     RDKit          3D

 18 17  0  0  1  0  0  0  0  0999 V2000
    6.6891  -11.4963   27.5703 C   0  0  0  0  0  0  0  0  0  0  0  0
    6.1785  -12.7126   26.8815 C   0  0  0  0  0  0  0  0  0  0  0  0
    7.2289  -13.4525   26.0621 C   0  0  2  0  0  0  0  0  0  0  0  0
    7.7282  -12.4445   25.0493 C   0  0  0  0  0  0  0  0  0  0  0  0
    6.5245  -14.5969   25.3655 C   0  0  2  0  0  0  0  0  0  0  0  0
    6.1595  -15.5602   26.4099 N   0  0  0  0  0  0  0  0  0  0  0  0
    7.3368  -15.2939   24.3698 C   0  0  0  0  0  0  0  0  0  0  0  0
    8.2783  -16.0709   24.7591 O   0  0  0  0  0  0  0  0  0  0  0  0
    7.7001  -15.6373   20.6008 C   0  0  0  0  0  0  0  0  0  0  0  0
    8.1224  -15.8088   22.0221 C   0  0  2  0  0  0  0  0  0  0  0  0
    7.2018  -15.2110   22.9628 N   0  0  0  0  0  0  0  0  0  0  0  0
    9.4970  -15.2848   22.1774 C   0  0  0  0  0  0  0  0  0  0  0  0
    9.6810  -14.0486   22.1808 O   0  0  0  0  0  0  0  0  0  0  0  0
   10.6075  -16.1465   22.3221 N   0  0  0  0  0  0  0  0  0  0  0  0
   11.9812  -15.6620   22.3486 C   0  0  0  0  0  0  0  0  0  0  0  0
   12.9285  -16.8005   22.5476 C   0  0  0  0  0  0  0  0  0  0  0  0
   13.2912  -17.1451   23.8279 O   0  0  0  0  0  0  0  0  0  0  0  0
   13.3894  -17.4343   21.5912 O   0  0  0  0  0  0  0  0  0  0  0  0
  2  1  1  0
  3  2  1  0
  3  4  1  6
  5  7  1  0
  5  3  1  0
  5  6  1  1
  7  8  2  0
 10  9  1  6
 10 12  1  0
 11 10  1  0
 11  7  1  0
 12 13  2  0
 12 14  1  0
 14 15  1  0
 15 16  1  0
 16 18  2  0
 16 17  1  0
M  END
$$$$
