IAG.pdb
     RDKit          3D

 18 17  0  0  1  0  0  0  0  0999 V2000
    7.6882  -11.7701   19.5955 C   0  0  0  0  0  0  0  0  0  0  0  0
    7.9552  -13.1912   19.2434 C   0  0  0  0  0  0  0  0  0  0  0  0
    8.4840  -14.0313   20.3995 C   0  0  2  0  0  0  0  0  0  0  0  0
    9.8580  -13.4733   20.7030 C   0  0  0  0  0  0  0  0  0  0  0  0
    8.5909  -15.4565   19.9010 C   0  0  2  0  0  0  0  0  0  0  0  0
    7.2627  -15.8236   19.3979 N   0  0  0  0  0  0  0  0  0  0  0  0
    8.9738  -16.4300   20.9222 C   0  0  0  0  0  0  0  0  0  0  0  0
    8.1799  -16.6584   21.9017 O   0  0  0  0  0  0  0  0  0  0  0  0
   10.6910  -19.4878   21.6243 C   0  0  0  0  0  0  0  0  0  0  0  0
   10.5411  -18.0642   22.0476 C   0  0  2  0  0  0  0  0  0  0  0  0
   10.1702  -17.1861   20.9608 N   0  0  0  0  0  0  0  0  0  0  0  0
   11.7889  -17.6310   22.7134 C   0  0  0  0  0  0  0  0  0  0  0  0
   12.1385  -18.1897   23.7754 O   0  0  0  0  0  0  0  0  0  0  0  0
   12.5960  -16.6015   22.1792 N   0  0  0  0  0  0  0  0  0  0  0  0
   13.8058  -16.1278   22.8384 C   0  0  0  0  0  0  0  0  0  0  0  0
   14.7414  -15.5310   21.8377 C   0  0  0  0  0  0  0  0  0  0  0  0
   15.4287  -14.3884   22.1718 O   0  0  0  0  0  0  0  0  0  0  0  0
   14.9089  -16.0401   20.7235 O   0  0  0  0  0  0  0  0  0  0  0  0
  2  1  1  0
  3  2  1  0
  3  4  1  6
  5  7  1  0
  5  3  1  0
  5  6  1  1
  7  8  2  0
 10  9  1  6
 10 12  1  0
 11 10  1  0
 11  7  1  0
 12 13  2  0
 12 14  1  0
 14 15  1  0
 15 16  1  0
 16 18  2  0
 16 17  1  0
M  END
$$$$
