IAG.pdb
     RDKit          3D

 18 17  0  0  1  0  0  0  0  0999 V2000
    8.4132  -12.1686   27.3408 C   0  0  0  0  0  0  0  0  0  0  0  0
    7.8207  -13.4503   26.8710 C   0  0  0  0  0  0  0  0  0  0  0  0
    6.7377  -13.2855   25.8117 C   0  0  2  0  0  0  0  0  0  0  0  0
    5.5766  -12.6281   26.5264 C   0  0  0  0  0  0  0  0  0  0  0  0
    6.3546  -14.6743   25.3476 C   0  0  2  0  0  0  0  0  0  0  0  0
    6.3283  -15.5221   26.5445 N   0  0  0  0  0  0  0  0  0  0  0  0
    7.2827  -15.2719   24.3892 C   0  0  0  0  0  0  0  0  0  0  0  0
    8.1739  -16.0929   24.8057 O   0  0  0  0  0  0  0  0  0  0  0  0
    8.0726  -15.2500   20.6696 C   0  0  0  0  0  0  0  0  0  0  0  0
    8.2920  -15.6248   22.0978 C   0  0  2  0  0  0  0  0  0  0  0  0
    7.3166  -15.0433   22.9923 N   0  0  0  0  0  0  0  0  0  0  0  0
    9.6772  -15.2697   22.4763 C   0  0  0  0  0  0  0  0  0  0  0  0
    9.9394  -14.0886   22.7898 O   0  0  0  0  0  0  0  0  0  0  0  0
   10.7116  -16.2322   22.4924 N   0  0  0  0  0  0  0  0  0  0  0  0
   12.0906  -15.8996   22.8246 C   0  0  0  0  0  0  0  0  0  0  0  0
   12.9673  -17.0982   22.6576 C   0  0  0  0  0  0  0  0  0  0  0  0
   14.3162  -16.9704   22.8891 O   0  0  0  0  0  0  0  0  0  0  0  0
   12.5077  -18.1946   22.3180 O   0  0  0  0  0  0  0  0  0  0  0  0
  2  1  1  0
  3  2  1  0
  3  4  1  1
  5  7  1  0
  5  3  1  0
  5  6  1  1
  7  8  2  0
 10  9  1  6
 10 12  1  0
 11 10  1  0
 11  7  1  0
 12 13  2  0
 12 14  1  0
 14 15  1  0
 15 16  1  0
 16 18  2  0
 16 17  1  0
M  END
$$$$
