IAG.pdb
     RDKit          3D

 18 17  0  0  1  0  0  0  0  0999 V2000
    6.2796  -11.4362   27.4892 C   0  0  0  0  0  0  0  0  0  0  0  0
    5.9045  -12.7155   26.8279 C   0  0  0  0  0  0  0  0  0  0  0  0
    7.0432  -13.3796   26.0634 C   0  0  2  0  0  0  0  0  0  0  0  0
    7.4779  -12.3620   25.0306 C   0  0  0  0  0  0  0  0  0  0  0  0
    6.4691  -14.6062   25.3875 C   0  0  2  0  0  0  0  0  0  0  0  0
    6.1596  -15.5644   26.4543 N   0  0  0  0  0  0  0  0  0  0  0  0
    7.3735  -15.2576   24.4415 C   0  0  0  0  0  0  0  0  0  0  0  0
    8.3601  -15.9438   24.8861 O   0  0  0  0  0  0  0  0  0  0  0  0
    7.8730  -15.7123   20.7000 C   0  0  0  0  0  0  0  0  0  0  0  0
    8.2486  -15.8317   22.1397 C   0  0  2  0  0  0  0  0  0  0  0  0
    7.2863  -15.2209   23.0289 N   0  0  0  0  0  0  0  0  0  0  0  0
    9.6082  -15.2790   22.3250 C   0  0  0  0  0  0  0  0  0  0  0  0
    9.7579  -14.0402   22.3957 O   0  0  0  0  0  0  0  0  0  0  0  0
   10.7422  -16.1162   22.4240 N   0  0  0  0  0  0  0  0  0  0  0  0
   12.0991  -15.5948   22.5213 C   0  0  0  0  0  0  0  0  0  0  0  0
   13.0854  -16.7172   22.5410 C   0  0  0  0  0  0  0  0  0  0  0  0
   14.4274  -16.4204   22.5604 O   0  0  0  0  0  0  0  0  0  0  0  0
   12.7218  -17.8990   22.5403 O   0  0  0  0  0  0  0  0  0  0  0  0
  2  1  1  0
  3  2  1  0
  3  4  1  6
  5  7  1  0
  5  3  1  0
  5  6  1  1
  7  8  2  0
 10  9  1  6
 10 12  1  0
 11 10  1  0
 11  7  1  0
 12 13  2  0
 12 14  1  0
 14 15  1  0
 15 16  1  0
 16 18  2  0
 16 17  1  0
M  END
$$$$
