IAG.pdb
     RDKit          3D

 18 17  0  0  1  0  0  0  0  0999 V2000
    6.2967  -11.4922   27.3964 C   0  0  0  0  0  0  0  0  0  0  0  0
    5.9873  -12.7793   26.7164 C   0  0  0  0  0  0  0  0  0  0  0  0
    7.1999  -13.4664   26.1003 C   0  0  2  0  0  0  0  0  0  0  0  0
    7.7583  -12.4732   25.1038 C   0  0  0  0  0  0  0  0  0  0  0  0
    6.6961  -14.7031   25.3880 C   0  0  2  0  0  0  0  0  0  0  0  0
    6.2189  -15.6196   26.4293 N   0  0  0  0  0  0  0  0  0  0  0  0
    7.7072  -15.4028   24.5971 C   0  0  0  0  0  0  0  0  0  0  0  0
    8.6506  -16.0296   25.1962 O   0  0  0  0  0  0  0  0  0  0  0  0
    8.5800  -16.2033   20.9877 C   0  0  0  0  0  0  0  0  0  0  0  0
    8.8489  -16.1033   22.4525 C   0  0  2  0  0  0  0  0  0  0  0  0
    7.7721  -15.4755   23.1847 N   0  0  0  0  0  0  0  0  0  0  0  0
   10.1393  -15.4087   22.6539 C   0  0  0  0  0  0  0  0  0  0  0  0
   10.1608  -14.1594   22.6829 O   0  0  0  0  0  0  0  0  0  0  0  0
   11.3486  -16.1220   22.8142 N   0  0  0  0  0  0  0  0  0  0  0  0
   12.6167  -15.4657   23.1034 C   0  0  0  0  0  0  0  0  0  0  0  0
   13.7022  -16.4810   23.2581 C   0  0  0  0  0  0  0  0  0  0  0  0
   14.8795  -16.3027   22.5713 O   0  0  0  0  0  0  0  0  0  0  0  0
   13.5641  -17.4710   23.9858 O   0  0  0  0  0  0  0  0  0  0  0  0
  2  1  1  0
  3  2  1  0
  3  4  1  6
  5  7  1  0
  5  3  1  0
  5  6  1  1
  7  8  2  0
 10  9  1  6
 10 12  1  0
 11 10  1  0
 11  7  1  0
 12 13  2  0
 12 14  1  0
 14 15  1  0
 15 16  1  0
 16 18  2  0
 16 17  1  0
M  END
$$$$
