IAG.pdb
     RDKit          3D

 18 17  0  0  1  0  0  0  0  0999 V2000
    6.6578  -11.6947   27.7034 C   0  0  0  0  0  0  0  0  0  0  0  0
    6.1903  -12.9482   27.0515 C   0  0  0  0  0  0  0  0  0  0  0  0
    7.1762  -13.5346   26.0484 C   0  0  2  0  0  0  0  0  0  0  0  0
    7.3976  -12.4444   25.0219 C   0  0  0  0  0  0  0  0  0  0  0  0
    6.5034  -14.7314   25.4112 C   0  0  2  0  0  0  0  0  0  0  0  0
    6.3815  -15.7495   26.4603 N   0  0  0  0  0  0  0  0  0  0  0  0
    7.2402  -15.3185   24.2934 C   0  0  0  0  0  0  0  0  0  0  0  0
    7.9053  -16.3982   24.4770 O   0  0  0  0  0  0  0  0  0  0  0  0
    7.4850  -14.9729   20.5316 C   0  0  0  0  0  0  0  0  0  0  0  0
    7.8753  -15.5403   21.8559 C   0  0  2  0  0  0  0  0  0  0  0  0
    7.3099  -14.8157   22.9717 N   0  0  0  0  0  0  0  0  0  0  0  0
    9.3511  -15.6116   21.9277 C   0  0  0  0  0  0  0  0  0  0  0  0
    9.9813  -16.1488   20.9916 O   0  0  0  0  0  0  0  0  0  0  0  0
   10.0665  -15.0876   23.0278 N   0  0  0  0  0  0  0  0  0  0  0  0
   11.5221  -15.0463   23.0722 C   0  0  0  0  0  0  0  0  0  0  0  0
   12.0662  -16.3785   23.4751 C   0  0  0  0  0  0  0  0  0  0  0  0
   11.1936  -17.4266   23.6471 O   0  0  0  0  0  0  0  0  0  0  0  0
   13.2764  -16.5561   23.6558 O   0  0  0  0  0  0  0  0  0  0  0  0
  2  1  1  0
  3  2  1  0
  3  4  1  6
  5  7  1  0
  5  3  1  0
  5  6  1  1
  7  8  2  0
 10  9  1  6
 10 12  1  0
 11 10  1  0
 11  7  1  0
 12 13  2  0
 12 14  1  0
 14 15  1  0
 15 16  1  0
 16 18  2  0
 16 17  1  0
M  END
$$$$
