IAG.pdb
     RDKit          3D

 18 17  0  0  1  0  0  0  0  0999 V2000
    6.8328  -11.8795   27.6910 C   0  0  0  0  0  0  0  0  0  0  0  0
    6.2766  -12.8531   26.7124 C   0  0  0  0  0  0  0  0  0  0  0  0
    7.3087  -13.8120   26.1314 C   0  0  2  0  0  0  0  0  0  0  0  0
    8.3200  -12.9321   25.4283 C   0  0  0  0  0  0  0  0  0  0  0  0
    6.5868  -14.6899   25.1318 C   0  0  2  0  0  0  0  0  0  0  0  0
    5.6232  -15.4886   25.8969 N   0  0  0  0  0  0  0  0  0  0  0  0
    7.4523  -15.6085   24.3940 C   0  0  0  0  0  0  0  0  0  0  0  0
    7.5413  -16.8292   24.7731 O   0  0  0  0  0  0  0  0  0  0  0  0
    9.5617  -15.7192   21.2381 C   0  0  0  0  0  0  0  0  0  0  0  0
    8.9947  -16.2720   22.5034 C   0  0  2  0  0  0  0  0  0  0  0  0
    8.2392  -15.2980   23.2587 N   0  0  0  0  0  0  0  0  0  0  0  0
   10.0921  -16.8649   23.2984 C   0  0  0  0  0  0  0  0  0  0  0  0
   10.6792  -17.8796   22.8649 O   0  0  0  0  0  0  0  0  0  0  0  0
   10.4936  -16.3133   24.5359 N   0  0  0  0  0  0  0  0  0  0  0  0
   11.5400  -16.9053   25.3587 C   0  0  0  0  0  0  0  0  0  0  0  0
   12.8863  -16.5833   24.7958 C   0  0  0  0  0  0  0  0  0  0  0  0
   13.9977  -17.1583   25.3648 O   0  0  0  0  0  0  0  0  0  0  0  0
   13.0202  -15.8158   23.8357 O   0  0  0  0  0  0  0  0  0  0  0  0
  2  1  1  0
  3  2  1  0
  3  4  1  6
  5  7  1  0
  5  3  1  0
  5  6  1  1
  7  8  2  0
 10  9  1  6
 10 12  1  0
 11 10  1  0
 11  7  1  0
 12 13  2  0
 12 14  1  0
 14 15  1  0
 15 16  1  0
 16 18  2  0
 16 17  1  0
M  END
$$$$
