IAG.pdb
     RDKit          3D

 18 17  0  0  1  0  0  0  0  0999 V2000
    5.8272  -11.5530   27.1263 C   0  0  0  0  0  0  0  0  0  0  0  0
    5.6478  -12.8927   26.5035 C   0  0  0  0  0  0  0  0  0  0  0  0
    6.9208  -13.4768   25.9031 C   0  0  2  0  0  0  0  0  0  0  0  0
    7.3484  -12.4910   24.8370 C   0  0  0  0  0  0  0  0  0  0  0  0
    6.5490  -14.8038   25.2772 C   0  0  2  0  0  0  0  0  0  0  0  0
    6.1686  -15.6935   26.3797 N   0  0  0  0  0  0  0  0  0  0  0  0
    7.6281  -15.4456   24.5284 C   0  0  0  0  0  0  0  0  0  0  0  0
    8.5774  -16.0241   25.1656 O   0  0  0  0  0  0  0  0  0  0  0  0
    8.5910  -16.3284   20.9656 C   0  0  0  0  0  0  0  0  0  0  0  0
    8.8319  -16.1868   22.4319 C   0  0  2  0  0  0  0  0  0  0  0  0
    7.7562  -15.5089   23.1199 N   0  0  0  0  0  0  0  0  0  0  0  0
   10.1349  -15.5179   22.6385 C   0  0  0  0  0  0  0  0  0  0  0  0
   10.2216  -14.2840   22.4594 O   0  0  0  0  0  0  0  0  0  0  0  0
   11.2845  -16.2386   23.0332 N   0  0  0  0  0  0  0  0  0  0  0  0
   12.5746  -15.6003   23.2585 C   0  0  0  0  0  0  0  0  0  0  0  0
   13.6114  -16.6270   23.5808 C   0  0  0  0  0  0  0  0  0  0  0  0
   13.3040  -17.6202   24.4799 O   0  0  0  0  0  0  0  0  0  0  0  0
   14.7321  -16.6016   23.0591 O   0  0  0  0  0  0  0  0  0  0  0  0
  2  1  1  0
  3  2  1  0
  3  4  1  6
  5  7  1  0
  5  3  1  0
  5  6  1  1
  7  8  2  0
 10  9  1  6
 10 12  1  0
 11 10  1  0
 11  7  1  0
 12 13  2  0
 12 14  1  0
 14 15  1  0
 15 16  1  0
 16 18  2  0
 16 17  1  0
M  END
$$$$
