IAG.pdb
     RDKit          3D

 18 17  0  0  1  0  0  0  0  0999 V2000
    5.8546  -11.6684   27.4298 C   0  0  0  0  0  0  0  0  0  0  0  0
    5.6718  -12.9936   26.7777 C   0  0  0  0  0  0  0  0  0  0  0  0
    6.8589  -13.4427   25.9344 C   0  0  2  0  0  0  0  0  0  0  0  0
    7.0347  -12.3649   24.8862 C   0  0  0  0  0  0  0  0  0  0  0  0
    6.4720  -14.7537   25.2845 C   0  0  2  0  0  0  0  0  0  0  0  0
    6.2755  -15.7173   26.3729 N   0  0  0  0  0  0  0  0  0  0  0  0
    7.4759  -15.2989   24.3723 C   0  0  0  0  0  0  0  0  0  0  0  0
    8.5166  -15.8716   24.8528 O   0  0  0  0  0  0  0  0  0  0  0  0
    8.1392  -15.7041   20.6499 C   0  0  0  0  0  0  0  0  0  0  0  0
    8.4389  -15.8633   22.1035 C   0  0  2  0  0  0  0  0  0  0  0  0
    7.4347  -15.2699   22.9574 N   0  0  0  0  0  0  0  0  0  0  0  0
    9.7897  -15.3242   22.3734 C   0  0  0  0  0  0  0  0  0  0  0  0
    9.9386  -14.0900   22.5021 O   0  0  0  0  0  0  0  0  0  0  0  0
   10.9162  -16.1694   22.4895 N   0  0  0  0  0  0  0  0  0  0  0  0
   12.2325  -15.6776   22.8742 C   0  0  0  0  0  0  0  0  0  0  0  0
   13.2392  -16.7795   22.8004 C   0  0  0  0  0  0  0  0  0  0  0  0
   14.2982  -16.6530   21.9332 O   0  0  0  0  0  0  0  0  0  0  0  0
   13.1400  -17.7952   23.4984 O   0  0  0  0  0  0  0  0  0  0  0  0
  2  1  1  0
  3  2  1  0
  3  4  1  6
  5  7  1  0
  5  3  1  0
  5  6  1  1
  7  8  2  0
 10  9  1  6
 10 12  1  0
 11 10  1  0
 11  7  1  0
 12 13  2  0
 12 14  1  0
 14 15  1  0
 15 16  1  0
 16 18  2  0
 16 17  1  0
M  END
$$$$
