IAG.pdb
     RDKit          3D

 18 17  0  0  1  0  0  0  0  0999 V2000
    7.3877  -11.6674   19.7951 C   0  0  0  0  0  0  0  0  0  0  0  0
    7.6581  -13.0910   19.4559 C   0  0  0  0  0  0  0  0  0  0  0  0
    9.0977  -13.5275   19.6991 C   0  0  2  0  0  0  0  0  0  0  0  0
    9.9359  -12.6738   18.7718 C   0  0  0  0  0  0  0  0  0  0  0  0
    9.1927  -14.9857   19.3050 C   0  0  2  0  0  0  0  0  0  0  0  0
    8.2242  -15.7073   20.1377 N   0  0  0  0  0  0  0  0  0  0  0  0
   10.5084  -15.5872   19.5157 C   0  0  0  0  0  0  0  0  0  0  0  0
   10.8607  -15.9295   20.6991 O   0  0  0  0  0  0  0  0  0  0  0  0
   13.4720  -16.9295   17.5789 C   0  0  0  0  0  0  0  0  0  0  0  0
   12.7921  -16.4021   18.7986 C   0  0  2  0  0  0  0  0  0  0  0  0
   11.4845  -15.8501   18.5244 N   0  0  0  0  0  0  0  0  0  0  0  0
   13.6845  -15.4222   19.4556 C   0  0  0  0  0  0  0  0  0  0  0  0
   13.6622  -14.2303   19.0801 O   0  0  0  0  0  0  0  0  0  0  0  0
   14.5617  -15.7995   20.4972 N   0  0  0  0  0  0  0  0  0  0  0  0
   15.4245  -14.8468   21.1831 C   0  0  0  0  0  0  0  0  0  0  0  0
   16.1611  -15.5216   22.2944 C   0  0  0  0  0  0  0  0  0  0  0  0
   15.9172  -16.8519   22.5397 O   0  0  0  0  0  0  0  0  0  0  0  0
   16.9796  -14.9123   22.9928 O   0  0  0  0  0  0  0  0  0  0  0  0
  2  1  1  0
  3  2  1  0
  3  4  1  6
  5  7  1  0
  5  3  1  0
  5  6  1  1
  7  8  2  0
 10  9  1  6
 10 12  1  0
 11 10  1  0
 11  7  1  0
 12 13  2  0
 12 14  1  0
 14 15  1  0
 15 16  1  0
 16 18  2  0
 16 17  1  0
M  END
$$$$
