IAG.pdb
     RDKit          3D

 18 17  0  0  1  0  0  0  0  0999 V2000
    6.9668  -11.8431   27.6798 C   0  0  0  0  0  0  0  0  0  0  0  0
    6.3991  -13.0508   27.0210 C   0  0  0  0  0  0  0  0  0  0  0  0
    7.2786  -13.6326   25.9210 C   0  0  2  0  0  0  0  0  0  0  0  0
    7.4489  -12.5160   24.9133 C   0  0  0  0  0  0  0  0  0  0  0  0
    6.5167  -14.7871   25.3065 C   0  0  2  0  0  0  0  0  0  0  0  0
    6.3929  -15.8091   26.3516 N   0  0  0  0  0  0  0  0  0  0  0  0
    7.1693  -15.3984   24.1499 C   0  0  0  0  0  0  0  0  0  0  0  0
    7.8878  -16.4464   24.3149 O   0  0  0  0  0  0  0  0  0  0  0  0
    7.1683  -15.1500   20.3656 C   0  0  0  0  0  0  0  0  0  0  0  0
    7.6323  -15.6830   21.6805 C   0  0  2  0  0  0  0  0  0  0  0  0
    7.0991  -14.9523   22.8081 N   0  0  0  0  0  0  0  0  0  0  0  0
    9.1111  -15.7161   21.6863 C   0  0  0  0  0  0  0  0  0  0  0  0
    9.7099  -16.3522   20.7926 O   0  0  0  0  0  0  0  0  0  0  0  0
    9.8642  -15.0465   22.6769 N   0  0  0  0  0  0  0  0  0  0  0  0
   11.3198  -15.0890   22.7214 C   0  0  0  0  0  0  0  0  0  0  0  0
   11.7794  -16.2465   23.5472 C   0  0  0  0  0  0  0  0  0  0  0  0
   13.1229  -16.3871   23.8021 O   0  0  0  0  0  0  0  0  0  0  0  0
   10.9820  -17.0744   24.0026 O   0  0  0  0  0  0  0  0  0  0  0  0
  2  1  1  0
  3  2  1  0
  3  4  1  6
  5  7  1  0
  5  3  1  0
  5  6  1  1
  7  8  2  0
 10  9  1  6
 10 12  1  0
 11 10  1  0
 11  7  1  0
 12 13  2  0
 12 14  1  0
 14 15  1  0
 15 16  1  0
 16 18  2  0
 16 17  1  0
M  END
$$$$
