IAG.pdb
     RDKit          3D

 18 17  0  0  1  0  0  0  0  0999 V2000
    6.5492  -11.6088   27.4557 C   0  0  0  0  0  0  0  0  0  0  0  0
    6.1868  -12.9097   26.8303 C   0  0  0  0  0  0  0  0  0  0  0  0
    7.3365  -13.5916   26.0987 C   0  0  2  0  0  0  0  0  0  0  0  0
    7.7863  -12.5988   25.0484 C   0  0  0  0  0  0  0  0  0  0  0  0
    6.7723  -14.8341   25.4440 C   0  0  2  0  0  0  0  0  0  0  0  0
    6.3907  -15.7423   26.5311 N   0  0  0  0  0  0  0  0  0  0  0  0
    7.7094  -15.5399   24.5718 C   0  0  0  0  0  0  0  0  0  0  0  0
    8.6915  -16.1788   25.0906 O   0  0  0  0  0  0  0  0  0  0  0  0
    8.3107  -16.2823   20.8936 C   0  0  0  0  0  0  0  0  0  0  0  0
    8.6816  -16.2172   22.3380 C   0  0  2  0  0  0  0  0  0  0  0  0
    7.6600  -15.6065   23.1584 N   0  0  0  0  0  0  0  0  0  0  0  0
    9.9844  -15.5283   22.4649 C   0  0  0  0  0  0  0  0  0  0  0  0
   10.0194  -14.2795   22.4280 O   0  0  0  0  0  0  0  0  0  0  0  0
   11.1907  -16.2463   22.6268 N   0  0  0  0  0  0  0  0  0  0  0  0
   12.4926  -15.5948   22.6837 C   0  0  0  0  0  0  0  0  0  0  0  0
   13.5724  -16.6103   22.8727 C   0  0  0  0  0  0  0  0  0  0  0  0
   14.3261  -16.5707   24.0215 O   0  0  0  0  0  0  0  0  0  0  0  0
   13.8001  -17.4793   22.0231 O   0  0  0  0  0  0  0  0  0  0  0  0
  2  1  1  0
  3  2  1  0
  3  4  1  6
  5  7  1  0
  5  3  1  0
  5  6  1  1
  7  8  2  0
 10  9  1  6
 10 12  1  0
 11 10  1  0
 11  7  1  0
 12 13  2  0
 12 14  1  0
 14 15  1  0
 15 16  1  0
 16 18  2  0
 16 17  1  0
M  END
$$$$
