PYI.pdb
     RDKit          3D

 28 29  0  0  1  0  0  0  0  0999 V2000
   27.6170  -20.6866  -15.3388 N   0  0  0  0  0  0  0  0  0  0  0  0
   28.3889  -20.4496  -16.5684 C   0  0  0  0  0  0  0  0  0  0  0  0
   28.5838  -18.9394  -16.6143 C   0  0  0  0  0  0  0  0  0  0  0  0
   28.1164  -18.4504  -15.2576 C   0  0  0  0  0  0  0  0  0  0  0  0
   28.2251  -19.7201  -14.4520 C   0  0  1  0  0  0  0  0  0  0  0  0
   27.5977  -19.6530  -13.1400 C   0  0  0  0  0  0  0  0  0  0  0  0
   27.9216  -18.7590  -12.3255 O   0  0  0  0  0  0  0  0  0  0  0  0
   19.5764  -19.5592   -9.3760 O   0  0  0  0  0  0  0  0  0  0  0  0
   20.7324  -19.8850  -10.0814 C   0  0  0  0  0  0  0  0  0  0  0  0
   21.5836  -20.8864   -9.6636 C   0  0  0  0  0  0  0  0  0  0  0  0
   22.7359  -21.2301  -10.3434 C   0  0  0  0  0  0  0  0  0  0  0  0
   23.0816  -20.5637  -11.4952 C   0  0  0  0  0  0  0  0  0  0  0  0
   24.2636  -20.8528  -12.2968 C   0  0  0  0  0  0  0  0  0  0  0  0
   25.5356  -20.2752  -11.7859 C   0  0  2  0  0  0  0  0  0  0  0  0
   26.6138  -20.6055  -12.7818 N   0  0  0  0  0  0  0  0  0  0  0  0
   25.9819  -20.8960  -10.5486 C   0  0  0  0  0  0  0  0  0  0  0  0
   26.4096  -22.1096  -10.5937 O   0  0  0  0  0  0  0  0  0  0  0  0
   22.2428  -19.5563  -11.9317 C   0  0  0  0  0  0  0  0  0  0  0  0
   21.1024  -19.2326  -11.2382 C   0  0  0  0  0  0  0  0  0  0  0  0
   28.1850  -18.3961   -5.9741 C   0  0  0  0  0  0  0  0  0  0  0  0
   27.1494  -18.9527   -6.8914 C   0  0  0  0  0  0  0  0  0  0  0  0
   27.4082  -20.2985   -7.4440 C   0  0  2  0  0  0  0  0  0  0  0  0
   28.7016  -20.4243   -8.2302 C   0  0  0  0  0  0  0  0  0  0  0  0
   26.2723  -21.0357   -8.0769 C   0  0  2  0  0  0  0  0  0  0  0  0
   25.9855  -20.2514   -9.3089 N   0  0  0  0  0  0  0  0  0  0  0  0
   25.1020  -21.2732   -7.2723 C   0  0  0  0  0  0  0  0  0  0  0  0
   23.8864  -20.6663   -7.4976 O   0  0  0  0  0  0  0  0  0  0  0  0
   25.1487  -22.0692   -6.3007 O   0  0  0  0  0  0  0  0  0  0  0  0
  1  2  1  0
  3  2  1  0
  4  5  1  0
  4  3  1  0
  5  1  1  0
  6 15  1  0
  5  6  1  1
  7  6  2  0
  9  8  1  0
 10  9  2  0
 11 10  1  0
 12 11  2  0
 12 18  1  0
 14 13  1  6
 13 12  1  0
 14 15  1  0
 16 17  2  0
 16 14  1  0
 18 19  2  0
 19  9  1  0
 21 20  1  0
 21 22  1  0
 22 23  1  6
 24 22  1  0
 24 25  1  6
 25 16  1  0
 26 24  1  0
 27 26  1  0
 28 26  2  0
M  END
$$$$
