PYI.pdb
     RDKit          3D

 28 29  0  0  1  0  0  0  0  0999 V2000
   26.9134  -22.1192  -16.7153 N   0  0  0  0  0  0  0  0  0  0  0  0
   27.6432  -22.6982  -17.8538 C   0  0  0  0  0  0  0  0  0  0  0  0
   29.0614  -22.1597  -17.7147 C   0  0  0  0  0  0  0  0  0  0  0  0
   29.0918  -21.5066  -16.3468 C   0  0  0  0  0  0  0  0  0  0  0  0
   27.9246  -22.1939  -15.6848 C   0  0  1  0  0  0  0  0  0  0  0  0
   27.5174  -21.5987  -14.4201 C   0  0  0  0  0  0  0  0  0  0  0  0
   28.3195  -21.5328  -13.4611 O   0  0  0  0  0  0  0  0  0  0  0  0
   20.0696  -22.5204  -14.2433 O   0  0  0  0  0  0  0  0  0  0  0  0
   21.1992  -21.7138  -14.1271 C   0  0  0  0  0  0  0  0  0  0  0  0
   21.4410  -20.9557  -13.0006 C   0  0  0  0  0  0  0  0  0  0  0  0
   22.5522  -20.1476  -12.8588 C   0  0  0  0  0  0  0  0  0  0  0  0
   23.4825  -20.0714  -13.8682 C   0  0  0  0  0  0  0  0  0  0  0  0
   24.6948  -19.2643  -13.8187 C   0  0  0  0  0  0  0  0  0  0  0  0
   25.9065  -19.9667  -13.3179 C   0  0  2  0  0  0  0  0  0  0  0  0
   26.2046  -21.0902  -14.2731 N   0  0  0  0  0  0  0  0  0  0  0  0
   25.6905  -20.6253  -12.0392 C   0  0  0  0  0  0  0  0  0  0  0  0
   25.4652  -21.8929  -12.0352 O   0  0  0  0  0  0  0  0  0  0  0  0
   23.2598  -20.8227  -15.0061 C   0  0  0  0  0  0  0  0  0  0  0  0
   22.1468  -21.6188  -15.1239 C   0  0  0  0  0  0  0  0  0  0  0  0
   28.7406  -19.4176   -7.8902 C   0  0  0  0  0  0  0  0  0  0  0  0
   27.8551  -20.1110   -8.8695 C   0  0  0  0  0  0  0  0  0  0  0  0
   26.4086  -20.1142   -8.5681 C   0  0  2  0  0  0  0  0  0  0  0  0
   26.0597  -20.4641   -7.1320 C   0  0  0  0  0  0  0  0  0  0  0  0
   25.4793  -20.7395   -9.5581 C   0  0  2  0  0  0  0  0  0  0  0  0
   25.7226  -19.9672  -10.8069 N   0  0  0  0  0  0  0  0  0  0  0  0
   24.0857  -20.8194   -9.2049 C   0  0  0  0  0  0  0  0  0  0  0  0
   23.5618  -21.7953   -8.3866 O   0  0  0  0  0  0  0  0  0  0  0  0
   23.2679  -19.9732   -9.6466 O   0  0  0  0  0  0  0  0  0  0  0  0
  1  2  1  0
  3  2  1  0
  4  5  1  0
  4  3  1  0
  5  1  1  0
  6 15  1  0
  5  6  1  1
  7  6  2  0
  9  8  1  0
 10  9  2  0
 11 10  1  0
 12 11  2  0
 12 18  1  0
 14 13  1  6
 13 12  1  0
 14 15  1  0
 16 17  2  0
 16 14  1  0
 18 19  2  0
 19  9  1  0
 21 20  1  0
 21 22  1  0
 22 23  1  1
 24 22  1  0
 24 25  1  6
 25 16  1  0
 26 24  1  0
 27 26  1  0
 28 26  2  0
M  END
$$$$
