PYI.pdb
     RDKit          3D

 28 29  0  0  1  0  0  0  0  0999 V2000
   29.1371  -21.6523  -17.4205 N   0  0  0  0  0  0  0  0  0  0  0  0
   30.1721  -22.1383  -18.3461 C   0  0  0  0  0  0  0  0  0  0  0  0
   30.6050  -23.4795  -17.7679 C   0  0  0  0  0  0  0  0  0  0  0  0
   29.5912  -23.7740  -16.6798 C   0  0  0  0  0  0  0  0  0  0  0  0
   28.4516  -22.8879  -17.1147 C   0  0  1  0  0  0  0  0  0  0  0  0
   27.3946  -22.7418  -16.1244 C   0  0  0  0  0  0  0  0  0  0  0  0
   26.5062  -23.6164  -16.0091 O   0  0  0  0  0  0  0  0  0  0  0  0
   24.0802  -20.2227   -8.2534 O   0  0  0  0  0  0  0  0  0  0  0  0
   24.8014  -20.3369   -9.4396 C   0  0  0  0  0  0  0  0  0  0  0  0
   24.7043  -19.3981  -10.4452 C   0  0  0  0  0  0  0  0  0  0  0  0
   25.4075  -19.4865  -11.6308 C   0  0  0  0  0  0  0  0  0  0  0  0
   26.2541  -20.5468  -11.8529 C   0  0  0  0  0  0  0  0  0  0  0  0
   27.0525  -20.7315  -13.0578 C   0  0  0  0  0  0  0  0  0  0  0  0
   26.3880  -21.4904  -14.1510 C   0  0  2  0  0  0  0  0  0  0  0  0
   27.3704  -21.6022  -15.2850 N   0  0  0  0  0  0  0  0  0  0  0  0
   25.2534  -20.7821  -14.7224 C   0  0  0  0  0  0  0  0  0  0  0  0
   25.4828  -19.7333  -15.4331 O   0  0  0  0  0  0  0  0  0  0  0  0
   26.3663  -21.4993  -10.8584 C   0  0  0  0  0  0  0  0  0  0  0  0
   25.6563  -21.3897   -9.6878 C   0  0  0  0  0  0  0  0  0  0  0  0
   23.0518  -20.8887  -18.2521 C   0  0  0  0  0  0  0  0  0  0  0  0
   22.7217  -21.8038  -17.1219 C   0  0  0  0  0  0  0  0  0  0  0  0
   22.0414  -21.1999  -15.9575 C   0  0  2  0  0  0  0  0  0  0  0  0
   20.6468  -20.6695  -16.2413 C   0  0  0  0  0  0  0  0  0  0  0  0
   22.8315  -20.3003  -15.0625 C   0  0  2  0  0  0  0  0  0  0  0  0
   23.9231  -21.1763  -14.5565 N   0  0  0  0  0  0  0  0  0  0  0  0
   22.1226  -19.6161  -14.0124 C   0  0  0  0  0  0  0  0  0  0  0  0
   21.6046  -18.3469  -14.1442 O   0  0  0  0  0  0  0  0  0  0  0  0
   21.9458  -20.1704  -12.8983 O   0  0  0  0  0  0  0  0  0  0  0  0
  1  2  1  0
  3  2  1  0
  4  5  1  0
  4  3  1  0
  5  1  1  0
  6 15  1  0
  5  6  1  1
  7  6  2  0
  9  8  1  0
 10  9  2  0
 11 10  1  0
 12 11  2  0
 12 18  1  0
 14 13  1  1
 13 12  1  0
 14 15  1  0
 16 17  2  0
 16 14  1  0
 18 19  2  0
 19  9  1  0
 21 20  1  0
 21 22  1  0
 22 23  1  6
 24 22  1  0
 24 25  1  1
 25 16  1  0
 26 24  1  0
 27 26  1  0
 28 26  2  0
M  END
$$$$
