PYI.pdb
     RDKit          3D

 28 29  0  0  1  0  0  0  0  0999 V2000
   24.4885  -18.8995  -16.8230 N   0  0  0  0  0  0  0  0  0  0  0  0
   23.6581  -18.7129  -18.0229 C   0  0  0  0  0  0  0  0  0  0  0  0
   23.2925  -20.1255  -18.4603 C   0  0  0  0  0  0  0  0  0  0  0  0
   23.7421  -21.0108  -17.3146 C   0  0  0  0  0  0  0  0  0  0  0  0
   23.8020  -20.0050  -16.1932 C   0  0  1  0  0  0  0  0  0  0  0  0
   24.4568  -20.4906  -14.9870 C   0  0  0  0  0  0  0  0  0  0  0  0
   23.8744  -21.2991  -14.2290 O   0  0  0  0  0  0  0  0  0  0  0  0
   31.6834  -21.8009   -9.7544 O   0  0  0  0  0  0  0  0  0  0  0  0
   30.7747  -21.4640  -10.7548 C   0  0  0  0  0  0  0  0  0  0  0  0
   29.8286  -22.3576  -11.2116 C   0  0  0  0  0  0  0  0  0  0  0  0
   28.9160  -22.0502  -12.2018 C   0  0  0  0  0  0  0  0  0  0  0  0
   28.9216  -20.8037  -12.7818 C   0  0  0  0  0  0  0  0  0  0  0  0
   27.9978  -20.3693  -13.8216 C   0  0  0  0  0  0  0  0  0  0  0  0
   26.5691  -20.7093  -13.5857 C   0  0  2  0  0  0  0  0  0  0  0  0
   25.7621  -20.0455  -14.6682 N   0  0  0  0  0  0  0  0  0  0  0  0
   26.0504  -20.1459  -12.3492 C   0  0  0  0  0  0  0  0  0  0  0  0
   25.9139  -18.8680  -12.2701 O   0  0  0  0  0  0  0  0  0  0  0  0
   29.8615  -19.8928  -12.3392 C   0  0  0  0  0  0  0  0  0  0  0  0
   30.7590  -20.2220  -11.3531 C   0  0  0  0  0  0  0  0  0  0  0  0
   21.4637  -20.6323  -10.9155 C   0  0  0  0  0  0  0  0  0  0  0  0
   22.8951  -20.2316  -11.0359 C   0  0  0  0  0  0  0  0  0  0  0  0
   23.7781  -20.5805   -9.9037 C   0  0  2  0  0  0  0  0  0  0  0  0
   23.1917  -20.3004   -8.5310 C   0  0  0  0  0  0  0  0  0  0  0  0
   25.2267  -20.2234   -9.9979 C   0  0  2  0  0  0  0  0  0  0  0  0
   25.6789  -20.9089  -11.2391 N   0  0  0  0  0  0  0  0  0  0  0  0
   26.0585  -20.5103   -8.8581 C   0  0  0  0  0  0  0  0  0  0  0  0
   26.2578  -19.6287   -7.8190 O   0  0  0  0  0  0  0  0  0  0  0  0
   26.6550  -21.6129   -8.7672 O   0  0  0  0  0  0  0  0  0  0  0  0
  1  2  1  0
  3  2  1  0
  4  5  1  0
  4  3  1  0
  5  1  1  0
  6 15  1  0
  5  6  1  1
  7  6  2  0
  9  8  1  0
 10  9  2  0
 11 10  1  0
 12 11  2  0
 12 18  1  0
 14 13  1  6
 13 12  1  0
 14 15  1  0
 16 17  2  0
 16 14  1  0
 18 19  2  0
 19  9  1  0
 21 20  1  0
 21 22  1  0
 22 23  1  1
 24 22  1  0
 24 25  1  6
 25 16  1  0
 26 24  1  0
 27 26  1  0
 28 26  2  0
M  END
$$$$
