PYI.pdb
     RDKit          3D

 28 29  0  0  1  0  0  0  0  0999 V2000
   27.0407  -20.1633  -14.3637 N   0  0  0  0  0  0  0  0  0  0  0  0
   27.9328  -20.8944  -15.2767 C   0  0  0  0  0  0  0  0  0  0  0  0
   29.2170  -21.0926  -14.4817 C   0  0  0  0  0  0  0  0  0  0  0  0
   28.8628  -20.6725  -13.0687 C   0  0  0  0  0  0  0  0  0  0  0  0
   27.3614  -20.8039  -13.1080 C   0  0  1  0  0  0  0  0  0  0  0  0
   26.6787  -20.2211  -11.9618 C   0  0  0  0  0  0  0  0  0  0  0  0
   26.2754  -19.0364  -11.9970 O   0  0  0  0  0  0  0  0  0  0  0  0
   20.4551  -18.8701  -12.8306 O   0  0  0  0  0  0  0  0  0  0  0  0
   21.4412  -19.4166  -12.0127 C   0  0  0  0  0  0  0  0  0  0  0  0
   22.2966  -20.4015  -12.4603 C   0  0  0  0  0  0  0  0  0  0  0  0
   23.2827  -20.9607  -11.6712 C   0  0  0  0  0  0  0  0  0  0  0  0
   23.4485  -20.5394  -10.3730 C   0  0  0  0  0  0  0  0  0  0  0  0
   24.4627  -21.0493   -9.4594 C   0  0  0  0  0  0  0  0  0  0  0  0
   25.8037  -20.4173   -9.5808 C   0  0  2  0  0  0  0  0  0  0  0  0
   26.4689  -20.9994  -10.7983 N   0  0  0  0  0  0  0  0  0  0  0  0
   26.6926  -20.7614   -8.4822 C   0  0  0  0  0  0  0  0  0  0  0  0
   27.2961  -21.8982   -8.5178 O   0  0  0  0  0  0  0  0  0  0  0  0
   22.6018  -19.5535   -9.9038 C   0  0  0  0  0  0  0  0  0  0  0  0
   21.6284  -19.0128  -10.7078 C   0  0  0  0  0  0  0  0  0  0  0  0
   29.8275  -17.1298   -5.9838 C   0  0  0  0  0  0  0  0  0  0  0  0
   29.2467  -18.3675   -6.5792 C   0  0  0  0  0  0  0  0  0  0  0  0
   28.3900  -19.1876   -5.6978 C   0  0  2  0  0  0  0  0  0  0  0  0
   28.9303  -19.3861   -4.2924 C   0  0  0  0  0  0  0  0  0  0  0  0
   27.7741  -20.4276   -6.2614 C   0  0  2  0  0  0  0  0  0  0  0  0
   26.9423  -19.9271   -7.3895 N   0  0  0  0  0  0  0  0  0  0  0  0
   27.0467  -21.2799   -5.3571 C   0  0  0  0  0  0  0  0  0  0  0  0
   27.6511  -22.1607   -4.4877 O   0  0  0  0  0  0  0  0  0  0  0  0
   25.7905  -21.2515   -5.3278 O   0  0  0  0  0  0  0  0  0  0  0  0
  1  2  1  0
  3  2  1  0
  4  5  1  0
  4  3  1  0
  5  1  1  0
  6 15  1  0
  5  6  1  1
  7  6  2  0
  9  8  1  0
 10  9  2  0
 11 10  1  0
 12 11  2  0
 12 18  1  0
 14 13  1  1
 13 12  1  0
 14 15  1  0
 16 17  2  0
 16 14  1  0
 18 19  2  0
 19  9  1  0
 21 20  1  0
 21 22  1  0
 22 23  1  1
 24 22  1  0
 24 25  1  6
 25 16  1  0
 26 24  1  0
 27 26  1  0
 28 26  2  0
M  END
$$$$
