PYI.pdb
     RDKit          3D

 28 29  0  0  1  0  0  0  0  0999 V2000
   27.4523  -20.5893  -16.9673 N   0  0  0  0  0  0  0  0  0  0  0  0
   28.1636  -20.8417  -18.2300 C   0  0  0  0  0  0  0  0  0  0  0  0
   29.1053  -21.9971  -17.9159 C   0  0  0  0  0  0  0  0  0  0  0  0
   28.6719  -22.4847  -16.5474 C   0  0  0  0  0  0  0  0  0  0  0  0
   27.2666  -21.9416  -16.4912 C   0  0  1  0  0  0  0  0  0  0  0  0
   26.6461  -22.0198  -15.1765 C   0  0  0  0  0  0  0  0  0  0  0  0
   25.8930  -22.9765  -14.8850 O   0  0  0  0  0  0  0  0  0  0  0  0
   26.3381  -20.2486   -6.3705 O   0  0  0  0  0  0  0  0  0  0  0  0
   26.5891  -20.2912   -7.7399 C   0  0  0  0  0  0  0  0  0  0  0  0
   25.6894  -19.7984   -8.6618 C   0  0  0  0  0  0  0  0  0  0  0  0
   25.9127  -19.8278  -10.0245 C   0  0  0  0  0  0  0  0  0  0  0  0
   27.0762  -20.3660  -10.5212 C   0  0  0  0  0  0  0  0  0  0  0  0
   27.4197  -20.4353  -11.9356 C   0  0  0  0  0  0  0  0  0  0  0  0
   26.4385  -21.1515  -12.7941 C   0  0  2  0  0  0  0  0  0  0  0  0
   26.8958  -21.0067  -14.2201 N   0  0  0  0  0  0  0  0  0  0  0  0
   25.1180  -20.5424  -12.7728 C   0  0  0  0  0  0  0  0  0  0  0  0
   24.9335  -19.4600  -13.4454 O   0  0  0  0  0  0  0  0  0  0  0  0
   27.9916  -20.8659   -9.6149 C   0  0  0  0  0  0  0  0  0  0  0  0
   27.7468  -20.8256   -8.2641 C   0  0  0  0  0  0  0  0  0  0  0  0
   21.2796  -20.0553  -15.8911 C   0  0  0  0  0  0  0  0  0  0  0  0
   21.4623  -19.8266  -14.4289 C   0  0  0  0  0  0  0  0  0  0  0  0
   22.4012  -20.7281  -13.7296 C   0  0  2  0  0  0  0  0  0  0  0  0
   22.2258  -22.2019  -14.0520 C   0  0  0  0  0  0  0  0  0  0  0  0
   22.6751  -20.4814  -12.2809 C   0  0  2  0  0  0  0  0  0  0  0  0
   24.0278  -21.0663  -12.0731 N   0  0  0  0  0  0  0  0  0  0  0  0
   21.7026  -20.9533  -11.3297 C   0  0  0  0  0  0  0  0  0  0  0  0
   21.9355  -21.9884  -10.4517 O   0  0  0  0  0  0  0  0  0  0  0  0
   20.5660  -20.4205  -11.2644 O   0  0  0  0  0  0  0  0  0  0  0  0
  1  2  1  0
  3  2  1  0
  4  5  1  0
  4  3  1  0
  5  1  1  0
  6 15  1  0
  5  6  1  1
  7  6  2  0
  9  8  1  0
 10  9  2  0
 11 10  1  0
 12 11  2  0
 12 18  1  0
 14 13  1  1
 13 12  1  0
 14 15  1  0
 16 17  2  0
 16 14  1  0
 18 19  2  0
 19  9  1  0
 21 20  1  0
 21 22  1  0
 22 23  1  1
 24 22  1  0
 24 25  1  1
 25 16  1  0
 26 24  1  0
 27 26  1  0
 28 26  2  0
M  END
$$$$
