PYI.pdb
     RDKit          3D

 28 29  0  0  1  0  0  0  0  0999 V2000
   24.2809  -24.0908  -17.8889 N   0  0  0  0  0  0  0  0  0  0  0  0
   23.8309  -24.8161  -19.0870 C   0  0  0  0  0  0  0  0  0  0  0  0
   22.3557  -24.4600  -19.2199 C   0  0  0  0  0  0  0  0  0  0  0  0
   22.1379  -23.3446  -18.2165 C   0  0  0  0  0  0  0  0  0  0  0  0
   23.5514  -22.8515  -18.0380 C   0  0  1  0  0  0  0  0  0  0  0  0
   23.7285  -21.9299  -16.9250 C   0  0  0  0  0  0  0  0  0  0  0  0
   23.2052  -20.7929  -16.9517 O   0  0  0  0  0  0  0  0  0  0  0  0
   25.2714  -19.6574   -8.4298 O   0  0  0  0  0  0  0  0  0  0  0  0
   25.2063  -20.3056   -9.6609 C   0  0  0  0  0  0  0  0  0  0  0  0
   26.3414  -20.6507  -10.3642 C   0  0  0  0  0  0  0  0  0  0  0  0
   26.3060  -21.2935  -11.5862 C   0  0  0  0  0  0  0  0  0  0  0  0
   25.0994  -21.6207  -12.1585 C   0  0  0  0  0  0  0  0  0  0  0  0
   24.9465  -22.3097  -13.4333 C   0  0  0  0  0  0  0  0  0  0  0  0
   24.6167  -21.4376  -14.5922 C   0  0  2  0  0  0  0  0  0  0  0  0
   24.4984  -22.3218  -15.8037 N   0  0  0  0  0  0  0  0  0  0  0  0
   25.6861  -20.5091  -14.9237 C   0  0  0  0  0  0  0  0  0  0  0  0
   26.8908  -20.9599  -14.9808 O   0  0  0  0  0  0  0  0  0  0  0  0
   23.9493  -21.2838  -11.4709 C   0  0  0  0  0  0  0  0  0  0  0  0
   24.0102  -20.6444  -10.2569 C   0  0  0  0  0  0  0  0  0  0  0  0
   27.0567  -18.7310  -19.1294 C   0  0  0  0  0  0  0  0  0  0  0  0
   27.0025  -19.0665  -17.6775 C   0  0  0  0  0  0  0  0  0  0  0  0
   26.7656  -17.9438  -16.7465 C   0  0  2  0  0  0  0  0  0  0  0  0
   27.5844  -16.6972  -17.0334 C   0  0  0  0  0  0  0  0  0  0  0  0
   26.6609  -18.2438  -15.2858 C   0  0  2  0  0  0  0  0  0  0  0  0
   25.4862  -19.1532  -15.1958 N   0  0  0  0  0  0  0  0  0  0  0  0
   26.5820  -17.1267  -14.3807 C   0  0  0  0  0  0  0  0  0  0  0  0
   27.6804  -16.5562  -13.7768 O   0  0  0  0  0  0  0  0  0  0  0  0
   25.4696  -16.6145  -14.0977 O   0  0  0  0  0  0  0  0  0  0  0  0
  1  2  1  0
  3  2  1  0
  4  5  1  0
  4  3  1  0
  5  1  1  0
  6 15  1  0
  5  6  1  1
  7  6  2  0
  9  8  1  0
 10  9  2  0
 11 10  1  0
 12 11  2  0
 12 18  1  0
 14 13  1  1
 13 12  1  0
 14 15  1  0
 16 17  2  0
 16 14  1  0
 18 19  2  0
 19  9  1  0
 21 20  1  0
 21 22  1  0
 22 23  1  1
 24 22  1  0
 24 25  1  6
 25 16  1  0
 26 24  1  0
 27 26  1  0
 28 26  2  0
M  END
$$$$
