PYI.pdb
     RDKit          3D

 28 29  0  0  1  0  0  0  0  0999 V2000
   28.3910  -20.8717  -16.7579 N   0  0  0  0  0  0  0  0  0  0  0  0
   29.3722  -21.8230  -17.3022 C   0  0  0  0  0  0  0  0  0  0  0  0
   30.0652  -22.4033  -16.0760 C   0  0  0  0  0  0  0  0  0  0  0  0
   29.2405  -21.9149  -14.9015 C   0  0  0  0  0  0  0  0  0  0  0  0
   27.9384  -21.5944  -15.5904 C   0  0  1  0  0  0  0  0  0  0  0  0
   26.9938  -20.8498  -14.7701 C   0  0  0  0  0  0  0  0  0  0  0  0
   26.9030  -19.6056  -14.8758 O   0  0  0  0  0  0  0  0  0  0  0  0
   19.3755  -19.2488  -10.5782 O   0  0  0  0  0  0  0  0  0  0  0  0
   20.4631  -19.7084  -11.3172 C   0  0  0  0  0  0  0  0  0  0  0  0
   21.1980  -18.8713  -12.1305 C   0  0  0  0  0  0  0  0  0  0  0  0
   22.2803  -19.3002  -12.8738 C   0  0  0  0  0  0  0  0  0  0  0  0
   22.6723  -20.6171  -12.8246 C   0  0  0  0  0  0  0  0  0  0  0  0
   23.8046  -21.1725  -13.5544 C   0  0  0  0  0  0  0  0  0  0  0  0
   25.1450  -20.8074  -13.0228 C   0  0  2  0  0  0  0  0  0  0  0  0
   26.1714  -21.5374  -13.8457 N   0  0  0  0  0  0  0  0  0  0  0  0
   25.3635  -21.2822  -11.6655 C   0  0  0  0  0  0  0  0  0  0  0  0
   25.5506  -22.5428  -11.4819 O   0  0  0  0  0  0  0  0  0  0  0  0
   21.9496  -21.4732  -12.0161 C   0  0  0  0  0  0  0  0  0  0  0  0
   20.8766  -21.0232  -11.2864 C   0  0  0  0  0  0  0  0  0  0  0  0
   28.7783  -19.4628   -8.1354 C   0  0  0  0  0  0  0  0  0  0  0  0
   27.8037  -20.3059   -8.8857 C   0  0  0  0  0  0  0  0  0  0  0  0
   26.3984  -20.2573   -8.4317 C   0  0  2  0  0  0  0  0  0  0  0  0
   26.2141  -20.3393   -6.9263 C   0  0  0  0  0  0  0  0  0  0  0  0
   25.3823  -21.0556   -9.1833 C   0  0  2  0  0  0  0  0  0  0  0  0
   25.3939  -20.4506  -10.5430 N   0  0  0  0  0  0  0  0  0  0  0  0
   24.0613  -21.1526   -8.6186 C   0  0  0  0  0  0  0  0  0  0  0  0
   23.7035  -22.0880   -7.6733 O   0  0  0  0  0  0  0  0  0  0  0  0
   23.1548  -20.3609   -8.9810 O   0  0  0  0  0  0  0  0  0  0  0  0
  1  2  1  0
  3  2  1  0
  4  5  1  0
  4  3  1  0
  5  1  1  0
  6 15  1  0
  5  6  1  1
  7  6  2  0
  9  8  1  0
 10  9  2  0
 11 10  1  0
 12 11  2  0
 12 18  1  0
 14 13  1  6
 13 12  1  0
 14 15  1  0
 16 17  2  0
 16 14  1  0
 18 19  2  0
 19  9  1  0
 21 20  1  0
 21 22  1  0
 22 23  1  1
 24 22  1  0
 24 25  1  6
 25 16  1  0
 26 24  1  0
 27 26  1  0
 28 26  2  0
M  END
$$$$
