PYI.pdb
     RDKit          3D

 28 29  0  0  1  0  0  0  0  0999 V2000
   28.0023  -20.4686  -15.7775 N   0  0  0  0  0  0  0  0  0  0  0  0
   29.0405  -20.1542  -16.7711 C   0  0  0  0  0  0  0  0  0  0  0  0
   29.1293  -18.6335  -16.7656 C   0  0  0  0  0  0  0  0  0  0  0  0
   28.2995  -18.2047  -15.5714 C   0  0  0  0  0  0  0  0  0  0  0  0
   28.2939  -19.4786  -14.7651 C   0  0  1  0  0  0  0  0  0  0  0  0
   27.3521  -19.4809  -13.6549 C   0  0  0  0  0  0  0  0  0  0  0  0
   27.4793  -18.6676  -12.7117 O   0  0  0  0  0  0  0  0  0  0  0  0
   18.7536  -20.1071  -11.3401 O   0  0  0  0  0  0  0  0  0  0  0  0
   20.0132  -20.2509  -11.9171 C   0  0  0  0  0  0  0  0  0  0  0  0
   20.5645  -19.2725  -12.7176 C   0  0  0  0  0  0  0  0  0  0  0  0
   21.8106  -19.3888  -13.3020 C   0  0  0  0  0  0  0  0  0  0  0  0
   22.5653  -20.5197  -13.0973 C   0  0  0  0  0  0  0  0  0  0  0  0
   23.8944  -20.7406  -13.6521 C   0  0  0  0  0  0  0  0  0  0  0  0
   25.0127  -20.1244  -12.8891 C   0  0  2  0  0  0  0  0  0  0  0  0
   26.2841  -20.4098  -13.6413 N   0  0  0  0  0  0  0  0  0  0  0  0
   25.2156  -20.7398  -11.5870 C   0  0  0  0  0  0  0  0  0  0  0  0
   25.7081  -21.9287  -11.5432 O   0  0  0  0  0  0  0  0  0  0  0  0
   22.0318  -21.5129  -12.2986 C   0  0  0  0  0  0  0  0  0  0  0  0
   20.7900  -21.3741  -11.7285 C   0  0  0  0  0  0  0  0  0  0  0  0
   28.2428  -19.2233   -7.8695 C   0  0  0  0  0  0  0  0  0  0  0  0
   27.3154  -20.0027   -8.7391 C   0  0  0  0  0  0  0  0  0  0  0  0
   25.9277  -20.1581   -8.2560 C   0  0  2  0  0  0  0  0  0  0  0  0
   25.8033  -20.5094   -6.7837 C   0  0  0  0  0  0  0  0  0  0  0  0
   24.9579  -20.9060   -9.1133 C   0  0  2  0  0  0  0  0  0  0  0  0
   24.9177  -20.1148  -10.3732 N   0  0  0  0  0  0  0  0  0  0  0  0
   23.6513  -21.1677   -8.5678 C   0  0  0  0  0  0  0  0  0  0  0  0
   22.5043  -20.5424   -9.0038 O   0  0  0  0  0  0  0  0  0  0  0  0
   23.5046  -22.0039   -7.6409 O   0  0  0  0  0  0  0  0  0  0  0  0
  1  2  1  0
  3  2  1  0
  4  5  1  0
  4  3  1  0
  5  1  1  0
  6 15  1  0
  5  6  1  1
  7  6  2  0
  9  8  1  0
 10  9  2  0
 11 10  1  0
 12 11  2  0
 12 18  1  0
 14 13  1  6
 13 12  1  0
 14 15  1  0
 16 17  2  0
 16 14  1  0
 18 19  2  0
 19  9  1  0
 21 20  1  0
 21 22  1  0
 22 23  1  1
 24 22  1  0
 24 25  1  6
 25 16  1  0
 26 24  1  0
 27 26  1  0
 28 26  2  0
M  END
$$$$
