PYI.pdb
     RDKit          3D

 28 29  0  0  1  0  0  0  0  0999 V2000
   32.8784  -22.3496  -13.1650 N   0  0  0  0  0  0  0  0  0  0  0  0
   33.7847  -23.3433  -12.5691 C   0  0  0  0  0  0  0  0  0  0  0  0
   33.5998  -23.1789  -11.0660 C   0  0  0  0  0  0  0  0  0  0  0  0
   32.4000  -22.2631  -10.9245 C   0  0  0  0  0  0  0  0  0  0  0  0
   31.7472  -22.4504  -12.2705 C   0  0  1  0  0  0  0  0  0  0  0  0
   30.6852  -21.4974  -12.5593 C   0  0  0  0  0  0  0  0  0  0  0  0
   30.9535  -20.3726  -13.0391 O   0  0  0  0  0  0  0  0  0  0  0  0
   22.7988  -18.1227  -14.6277 O   0  0  0  0  0  0  0  0  0  0  0  0
   23.9783  -18.8320  -14.4137 C   0  0  0  0  0  0  0  0  0  0  0  0
   25.2124  -18.2164  -14.4294 C   0  0  0  0  0  0  0  0  0  0  0  0
   26.3971  -18.8951  -14.2204 C   0  0  0  0  0  0  0  0  0  0  0  0
   26.3833  -20.2490  -13.9820 C   0  0  0  0  0  0  0  0  0  0  0  0
   27.5691  -21.0592  -13.7353 C   0  0  0  0  0  0  0  0  0  0  0  0
   28.2332  -20.8319  -12.4239 C   0  0  2  0  0  0  0  0  0  0  0  0
   29.3384  -21.8446  -12.2957 N   0  0  0  0  0  0  0  0  0  0  0  0
   27.3597  -21.1031  -11.2931 C   0  0  0  0  0  0  0  0  0  0  0  0
   27.1553  -22.3297  -10.9593 O   0  0  0  0  0  0  0  0  0  0  0  0
   25.1574  -20.8860  -13.9621 C   0  0  0  0  0  0  0  0  0  0  0  0
   23.9926  -20.1894  -14.1730 C   0  0  0  0  0  0  0  0  0  0  0  0
   28.1574  -18.7017   -6.8307 C   0  0  0  0  0  0  0  0  0  0  0  0
   27.7337  -19.6442   -7.9058 C   0  0  0  0  0  0  0  0  0  0  0  0
   26.3046  -19.6224   -8.2807 C   0  0  2  0  0  0  0  0  0  0  0  0
   25.3401  -19.6216   -7.1075 C   0  0  0  0  0  0  0  0  0  0  0  0
   25.8519  -20.5021   -9.4014 C   0  0  2  0  0  0  0  0  0  0  0  0
   26.7329  -20.1104  -10.5352 N   0  0  0  0  0  0  0  0  0  0  0  0
   24.4524  -20.4824   -9.7395 C   0  0  0  0  0  0  0  0  0  0  0  0
   23.9555  -19.9214  -10.8949 O   0  0  0  0  0  0  0  0  0  0  0  0
   23.6036  -20.9926   -8.9655 O   0  0  0  0  0  0  0  0  0  0  0  0
  1  2  1  0
  3  2  1  0
  4  5  1  0
  4  3  1  0
  5  1  1  0
  6 15  1  0
  5  6  1  6
  7  6  2  0
  9  8  1  0
 10  9  2  0
 11 10  1  0
 12 11  2  0
 12 18  1  0
 14 13  1  6
 13 12  1  0
 14 15  1  0
 16 17  2  0
 16 14  1  0
 18 19  2  0
 19  9  1  0
 21 20  1  0
 21 22  1  0
 22 23  1  1
 24 22  1  0
 24 25  1  6
 25 16  1  0
 26 24  1  0
 27 26  1  0
 28 26  2  0
M  END
$$$$
