PYI.pdb
     RDKit          3D

 28 29  0  0  1  0  0  0  0  0999 V2000
   27.8159  -20.6547  -16.7313 N   0  0  0  0  0  0  0  0  0  0  0  0
   28.5599  -20.9254  -17.9712 C   0  0  0  0  0  0  0  0  0  0  0  0
   29.4954  -22.0735  -17.6146 C   0  0  0  0  0  0  0  0  0  0  0  0
   29.0279  -22.5405  -16.2501 C   0  0  0  0  0  0  0  0  0  0  0  0
   27.6206  -21.9998  -16.2386 C   0  0  1  0  0  0  0  0  0  0  0  0
   26.9666  -22.0586  -14.9393 C   0  0  0  0  0  0  0  0  0  0  0  0
   26.1904  -23.0004  -14.6603 O   0  0  0  0  0  0  0  0  0  0  0  0
   26.1050  -20.1792   -6.2533 O   0  0  0  0  0  0  0  0  0  0  0  0
   26.5097  -20.2607   -7.5836 C   0  0  0  0  0  0  0  0  0  0  0  0
   27.5776  -21.0411   -7.9744 C   0  0  0  0  0  0  0  0  0  0  0  0
   28.0000  -21.1403   -9.2857 C   0  0  0  0  0  0  0  0  0  0  0  0
   27.3483  -20.4422  -10.2747 C   0  0  0  0  0  0  0  0  0  0  0  0
   27.6997  -20.4846  -11.6882 C   0  0  0  0  0  0  0  0  0  0  0  0
   26.7163  -21.1712  -12.5679 C   0  0  2  0  0  0  0  0  0  0  0  0
   27.2099  -21.0433  -13.9834 N   0  0  0  0  0  0  0  0  0  0  0  0
   25.4153  -20.5209  -12.5772 C   0  0  0  0  0  0  0  0  0  0  0  0
   25.3353  -19.3211  -13.0374 O   0  0  0  0  0  0  0  0  0  0  0  0
   26.2755  -19.6538   -9.9052 C   0  0  0  0  0  0  0  0  0  0  0  0
   25.8742  -19.5712   -8.5943 C   0  0  0  0  0  0  0  0  0  0  0  0
   20.9075  -22.8325  -14.4678 C   0  0  0  0  0  0  0  0  0  0  0  0
   21.6839  -22.3301  -13.2980 C   0  0  0  0  0  0  0  0  0  0  0  0
   22.2955  -20.9919  -13.4341 C   0  0  2  0  0  0  0  0  0  0  0  0
   23.0970  -20.7864  -14.7078 C   0  0  0  0  0  0  0  0  0  0  0  0
   22.9501  -20.3859  -12.2345 C   0  0  2  0  0  0  0  0  0  0  0  0
   24.2383  -21.1233  -12.1254 N   0  0  0  0  0  0  0  0  0  0  0  0
   22.2015  -20.3700  -11.0046 C   0  0  0  0  0  0  0  0  0  0  0  0
   21.0790  -19.5973  -10.8057 O   0  0  0  0  0  0  0  0  0  0  0  0
   22.5581  -21.0839  -10.0335 O   0  0  0  0  0  0  0  0  0  0  0  0
  1  2  1  0
  3  2  1  0
  4  5  1  0
  4  3  1  0
  5  1  1  0
  6 15  1  0
  5  6  1  1
  7  6  2  0
  9  8  1  0
 10  9  2  0
 11 10  1  0
 12 11  2  0
 12 18  1  0
 14 13  1  1
 13 12  1  0
 14 15  1  0
 16 17  2  0
 16 14  1  0
 18 19  2  0
 19  9  1  0
 21 20  1  0
 21 22  1  0
 22 23  1  6
 24 22  1  0
 24 25  1  1
 25 16  1  0
 26 24  1  0
 27 26  1  0
 28 26  2  0
M  END
$$$$
