PYI.pdb
     RDKit          3D

 28 29  0  0  1  0  0  0  0  0999 V2000
   27.5180  -21.6857  -15.4150 N   0  0  0  0  0  0  0  0  0  0  0  0
   28.3074  -21.7435  -16.6550 C   0  0  0  0  0  0  0  0  0  0  0  0
   28.2205  -20.3361  -17.2314 C   0  0  0  0  0  0  0  0  0  0  0  0
   27.5869  -19.5086  -16.1305 C   0  0  0  0  0  0  0  0  0  0  0  0
   27.8794  -20.3725  -14.9301 C   0  0  1  0  0  0  0  0  0  0  0  0
   27.1702  -19.9788  -13.7212 C   0  0  0  0  0  0  0  0  0  0  0  0
   27.2842  -18.8178  -13.2669 O   0  0  0  0  0  0  0  0  0  0  0  0
   21.6168  -18.4302  -16.9359 O   0  0  0  0  0  0  0  0  0  0  0  0
   22.2025  -19.0474  -15.8331 C   0  0  0  0  0  0  0  0  0  0  0  0
   22.2169  -18.4546  -14.5879 C   0  0  0  0  0  0  0  0  0  0  0  0
   22.7903  -19.0438  -13.4780 C   0  0  0  0  0  0  0  0  0  0  0  0
   23.3835  -20.2796  -13.5825 C   0  0  0  0  0  0  0  0  0  0  0  0
   24.0041  -20.9971  -12.4765 C   0  0  0  0  0  0  0  0  0  0  0  0
   25.3257  -20.4726  -12.0397 C   0  0  2  0  0  0  0  0  0  0  0  0
   26.3450  -20.9155  -13.0538 N   0  0  0  0  0  0  0  0  0  0  0  0
   25.7808  -21.0577  -10.7883 C   0  0  0  0  0  0  0  0  0  0  0  0
   26.1550  -22.2897  -10.7903 O   0  0  0  0  0  0  0  0  0  0  0  0
   23.3806  -20.8916  -14.8212 C   0  0  0  0  0  0  0  0  0  0  0  0
   22.8042  -20.2855  -15.9105 C   0  0  0  0  0  0  0  0  0  0  0  0
   27.4442  -18.3037   -6.0085 C   0  0  0  0  0  0  0  0  0  0  0  0
   26.5135  -19.0151   -6.9312 C   0  0  0  0  0  0  0  0  0  0  0  0
   27.0147  -20.2616   -7.5463 C   0  0  2  0  0  0  0  0  0  0  0  0
   28.3616  -20.1326   -8.2361 C   0  0  0  0  0  0  0  0  0  0  0  0
   26.0520  -21.1119   -8.3111 C   0  0  2  0  0  0  0  0  0  0  0  0
   25.8479  -20.3603   -9.5793 N   0  0  0  0  0  0  0  0  0  0  0  0
   24.8181  -21.4701   -7.6610 C   0  0  0  0  0  0  0  0  0  0  0  0
   24.7504  -22.2729   -6.5441 O   0  0  0  0  0  0  0  0  0  0  0  0
   23.7199  -21.0500   -8.1050 O   0  0  0  0  0  0  0  0  0  0  0  0
  1  2  1  0
  3  2  1  0
  4  5  1  0
  4  3  1  0
  5  1  1  0
  6 15  1  0
  5  6  1  1
  7  6  2  0
  9  8  1  0
 10  9  2  0
 11 10  1  0
 12 11  2  0
 12 18  1  0
 14 13  1  6
 13 12  1  0
 14 15  1  0
 16 17  2  0
 16 14  1  0
 18 19  2  0
 19  9  1  0
 21 20  1  0
 21 22  1  0
 22 23  1  6
 24 22  1  0
 24 25  1  6
 25 16  1  0
 26 24  1  0
 27 26  1  0
 28 26  2  0
M  END
$$$$
