PYI.pdb
     RDKit          3D

 28 29  0  0  1  0  0  0  0  0999 V2000
   28.4147  -22.3520  -16.1887 N   0  0  0  0  0  0  0  0  0  0  0  0
   29.4351  -22.5310  -17.2330 C   0  0  0  0  0  0  0  0  0  0  0  0
   29.6423  -21.1367  -17.8104 C   0  0  0  0  0  0  0  0  0  0  0  0
   28.8952  -20.2152  -16.8665 C   0  0  0  0  0  0  0  0  0  0  0  0
   28.8213  -21.0803  -15.6340 C   0  0  1  0  0  0  0  0  0  0  0  0
   27.9257  -20.5780  -14.6020 C   0  0  0  0  0  0  0  0  0  0  0  0
   28.1408  -19.4715  -14.0571 O   0  0  0  0  0  0  0  0  0  0  0  0
   19.6759  -18.2425  -13.1354 O   0  0  0  0  0  0  0  0  0  0  0  0
   20.8371  -18.9626  -13.4058 C   0  0  0  0  0  0  0  0  0  0  0  0
   21.7803  -18.5137  -14.3064 C   0  0  0  0  0  0  0  0  0  0  0  0
   22.9399  -19.2071  -14.5934 C   0  0  0  0  0  0  0  0  0  0  0  0
   23.1994  -20.4047  -13.9700 C   0  0  0  0  0  0  0  0  0  0  0  0
   24.3943  -21.2099  -14.1867 C   0  0  0  0  0  0  0  0  0  0  0  0
   25.6269  -20.7113  -13.5199 C   0  0  2  0  0  0  0  0  0  0  0  0
   26.8028  -21.3461  -14.2112 N   0  0  0  0  0  0  0  0  0  0  0  0
   25.7388  -21.1494  -12.1375 C   0  0  0  0  0  0  0  0  0  0  0  0
   25.9606  -22.3967  -11.9080 O   0  0  0  0  0  0  0  0  0  0  0  0
   22.2674  -20.8732  -13.0640 C   0  0  0  0  0  0  0  0  0  0  0  0
   21.1213  -20.1656  -12.7954 C   0  0  0  0  0  0  0  0  0  0  0  0
   28.9297  -19.7632   -8.3800 C   0  0  0  0  0  0  0  0  0  0  0  0
   27.9042  -20.4816   -9.1899 C   0  0  0  0  0  0  0  0  0  0  0  0
   26.4899  -20.2152   -8.8553 C   0  0  2  0  0  0  0  0  0  0  0  0
   26.1745  -20.2330   -7.3697 C   0  0  0  0  0  0  0  0  0  0  0  0
   25.4301  -20.8724   -9.6796 C   0  0  2  0  0  0  0  0  0  0  0  0
   25.6305  -20.2954  -11.0368 N   0  0  0  0  0  0  0  0  0  0  0  0
   24.0700  -20.7728   -9.2178 C   0  0  0  0  0  0  0  0  0  0  0  0
   23.5526  -21.5426   -8.1998 O   0  0  0  0  0  0  0  0  0  0  0  0
   23.2773  -19.9525   -9.7456 O   0  0  0  0  0  0  0  0  0  0  0  0
  1  2  1  0
  3  2  1  0
  4  5  1  0
  4  3  1  0
  5  1  1  0
  6 15  1  0
  5  6  1  1
  7  6  2  0
  9  8  1  0
 10  9  2  0
 11 10  1  0
 12 11  2  0
 12 18  1  0
 14 13  1  6
 13 12  1  0
 14 15  1  0
 16 17  2  0
 16 14  1  0
 18 19  2  0
 19  9  1  0
 21 20  1  0
 21 22  1  0
 22 23  1  1
 24 22  1  0
 24 25  1  6
 25 16  1  0
 26 24  1  0
 27 26  1  0
 28 26  2  0
M  END
$$$$
