AWT.pdb
     RDKit          3D

 27 28  0  0  1  0  0  0  0  0999 V2000
    7.3568  -17.4669   20.0674 C   0  0  0  0  0  0  0  0  0  0  0  0
    7.0846  -16.1507   20.7238 C   0  0  2  0  0  0  0  0  0  0  0  0
    6.9664  -15.1414   19.6946 N   0  0  0  0  0  0  0  0  0  0  0  0
    8.1613  -15.7437   21.6764 C   0  0  0  0  0  0  0  0  0  0  0  0
    9.0946  -14.9872   21.2393 O   0  0  0  0  0  0  0  0  0  0  0  0
    8.1423  -16.1844   23.0167 N   0  0  0  0  0  0  0  0  0  0  0  0
    9.1659  -15.7960   23.9217 C   0  0  1  0  0  0  0  0  0  0  0  0
    8.7248  -15.7895   25.3614 C   0  0  0  0  0  0  0  0  0  0  0  0
    7.5164  -14.9927   25.5953 C   0  0  0  0  0  0  0  0  0  0  0  0
    6.2264  -15.4449   25.6522 C   0  0  0  0  0  0  0  0  0  0  0  0
    5.3981  -14.4150   25.8834 N   0  0  0  0  0  0  0  0  0  0  0  0
    6.1336  -13.2803   25.9803 C   0  0  0  0  0  0  0  0  0  0  0  0
    5.7640  -11.9572   26.2109 C   0  0  0  0  0  0  0  0  0  0  0  0
    6.7123  -10.9657   26.2663 C   0  0  0  0  0  0  0  0  0  0  0  0
    8.0317  -11.3110   26.0889 C   0  0  0  0  0  0  0  0  0  0  0  0
    8.3980  -12.6147   25.8616 C   0  0  0  0  0  0  0  0  0  0  0  0
    7.4523  -13.6409   25.8009 C   0  0  0  0  0  0  0  0  0  0  0  0
   10.3137  -16.7718   23.8436 C   0  0  0  0  0  0  0  0  0  0  0  0
   10.1375  -18.0086   24.0173 O   0  0  0  0  0  0  0  0  0  0  0  0
   13.1907  -16.5958   21.0496 C   0  0  0  0  0  0  0  0  0  0  0  0
   13.7594  -16.8221   22.4078 C   0  0  1  0  0  0  0  0  0  0  0  0
   14.3918  -15.6867   22.8813 O   0  0  0  0  0  0  0  0  0  0  0  0
   12.7555  -17.2532   23.4482 C   0  0  2  0  0  0  0  0  0  0  0  0
   11.6362  -16.3418   23.5721 N   0  0  0  0  0  0  0  0  0  0  0  0
   13.3578  -17.5291   24.7567 C   0  0  0  0  0  0  0  0  0  0  0  0
   14.2241  -18.5538   25.0331 O   0  0  0  0  0  0  0  0  0  0  0  0
   13.0607  -16.7613   25.7285 O   0  0  0  0  0  0  0  0  0  0  0  0
  2  1  1  6
  2  3  1  0
  4  5  2  0
  4  2  1  0
  6  4  1  0
  7  6  1  0
  8  9  1  0
  7  8  1  1
  9 17  1  0
 10  9  2  0
 10 11  1  0
 11 12  1  0
 12 13  1  0
 13 14  2  0
 15 14  1  0
 16 15  2  0
 17 12  2  0
 17 16  1  0
 18  7  1  0
 18 19  2  0
 21 20  1  6
 22 21  1  0
 23 24  1  1
 23 21  1  0
 24 18  1  0
 25 23  1  0
 26 25  1  0
 27 25  2  0
M  END
$$$$
