AWT.pdb
     RDKit          3D

 27 28  0  0  1  0  0  0  0  0999 V2000
    6.7909  -14.4289   20.5589 C   0  0  0  0  0  0  0  0  0  0  0  0
    7.5532  -15.6620   20.9271 C   0  0  2  0  0  0  0  0  0  0  0  0
    6.6196  -16.6430   21.4350 N   0  0  0  0  0  0  0  0  0  0  0  0
    8.5988  -15.4098   21.9641 C   0  0  0  0  0  0  0  0  0  0  0  0
    9.5387  -14.5907   21.6816 O   0  0  0  0  0  0  0  0  0  0  0  0
    8.5443  -16.0594   23.2155 N   0  0  0  0  0  0  0  0  0  0  0  0
    9.5177  -15.7905   24.2144 C   0  0  1  0  0  0  0  0  0  0  0  0
    8.9594  -15.7888   25.6129 C   0  0  0  0  0  0  0  0  0  0  0  0
    7.6876  -15.0686   25.7299 C   0  0  0  0  0  0  0  0  0  0  0  0
    6.4284  -15.5899   25.6082 C   0  0  0  0  0  0  0  0  0  0  0  0
    5.5202  -14.6173   25.7792 N   0  0  0  0  0  0  0  0  0  0  0  0
    6.1717  -13.4518   26.0141 C   0  0  0  0  0  0  0  0  0  0  0  0
    5.7011  -12.1628   26.2534 C   0  0  0  0  0  0  0  0  0  0  0  0
    6.5768  -11.1271   26.4672 C   0  0  0  0  0  0  0  0  0  0  0  0
    7.9258  -11.3939   26.4391 C   0  0  0  0  0  0  0  0  0  0  0  0
    8.3916  -12.6639   26.2035 C   0  0  0  0  0  0  0  0  0  0  0  0
    7.5211  -13.7338   25.9832 C   0  0  0  0  0  0  0  0  0  0  0  0
   10.5804  -16.8612   24.1930 C   0  0  0  0  0  0  0  0  0  0  0  0
   10.2888  -18.0792   24.3423 O   0  0  0  0  0  0  0  0  0  0  0  0
   13.3285  -17.0163   21.3924 C   0  0  0  0  0  0  0  0  0  0  0  0
   13.9511  -17.2232   22.7299 C   0  0  1  0  0  0  0  0  0  0  0  0
   14.6726  -16.1107   23.1236 O   0  0  0  0  0  0  0  0  0  0  0  0
   12.9776  -17.5507   23.8350 C   0  0  2  0  0  0  0  0  0  0  0  0
   11.9486  -16.5451   24.0046 N   0  0  0  0  0  0  0  0  0  0  0  0
   13.6307  -17.8570   25.1120 C   0  0  0  0  0  0  0  0  0  0  0  0
   14.4065  -18.9576   25.3644 O   0  0  0  0  0  0  0  0  0  0  0  0
   13.4732  -17.0418   26.0778 O   0  0  0  0  0  0  0  0  0  0  0  0
  2  1  1  1
  2  3  1  0
  4  5  2  0
  4  2  1  0
  6  4  1  0
  7  6  1  0
  8  9  1  0
  7  8  1  1
  9 17  1  0
 10  9  2  0
 10 11  1  0
 11 12  1  0
 12 13  1  0
 13 14  2  0
 15 14  1  0
 16 15  2  0
 17 12  2  0
 17 16  1  0
 18  7  1  0
 18 19  2  0
 21 20  1  6
 22 21  1  0
 23 24  1  1
 23 21  1  0
 24 18  1  0
 25 23  1  0
 26 25  1  0
 27 25  2  0
M  END
$$$$
