AWT.pdb
     RDKit          3D

 27 28  0  0  1  0  0  0  0  0999 V2000
    6.8777  -21.1875   21.6553 C   0  0  0  0  0  0  0  0  0  0  0  0
    7.0448  -19.8200   21.0727 C   0  0  2  0  0  0  0  0  0  0  0  0
    7.7681  -19.9387   19.8259 N   0  0  0  0  0  0  0  0  0  0  0  0
    7.7902  -18.8917   21.9756 C   0  0  0  0  0  0  0  0  0  0  0  0
    9.0677  -18.9113   21.9339 O   0  0  0  0  0  0  0  0  0  0  0  0
    7.0985  -18.0223   22.8455 N   0  0  0  0  0  0  0  0  0  0  0  0
    7.8027  -17.0665   23.6253 C   0  0  1  0  0  0  0  0  0  0  0  0
    6.9744  -15.8645   23.9951 C   0  0  0  0  0  0  0  0  0  0  0  0
    7.7293  -14.8410   24.7248 C   0  0  0  0  0  0  0  0  0  0  0  0
    9.0848  -14.6552   24.7224 C   0  0  0  0  0  0  0  0  0  0  0  0
    9.3983  -13.6175   25.5131 N   0  0  0  0  0  0  0  0  0  0  0  0
    8.2555  -13.1134   26.0405 C   0  0  0  0  0  0  0  0  0  0  0  0
    8.0312  -12.0496   26.9115 C   0  0  0  0  0  0  0  0  0  0  0  0
    6.7568  -11.7278   27.3086 C   0  0  0  0  0  0  0  0  0  0  0  0
    5.7112  -12.4800   26.8263 C   0  0  0  0  0  0  0  0  0  0  0  0
    5.9304  -13.5289   25.9677 C   0  0  0  0  0  0  0  0  0  0  0  0
    7.2170  -13.8758   25.5491 C   0  0  0  0  0  0  0  0  0  0  0  0
    8.2347  -17.6900   24.9293 C   0  0  0  0  0  0  0  0  0  0  0  0
    7.4125  -18.2881   25.6757 O   0  0  0  0  0  0  0  0  0  0  0  0
   10.9857  -20.3089   25.0814 C   0  0  0  0  0  0  0  0  0  0  0  0
   11.2666  -19.2727   26.1144 C   0  0  1  0  0  0  0  0  0  0  0  0
   12.2889  -18.4313   25.7143 O   0  0  0  0  0  0  0  0  0  0  0  0
   10.0837  -18.4115   26.4821 C   0  0  2  0  0  0  0  0  0  0  0  0
    9.5798  -17.6309   25.3706 N   0  0  0  0  0  0  0  0  0  0  0  0
   10.3246  -17.5643   27.6548 C   0  0  0  0  0  0  0  0  0  0  0  0
   10.5708  -18.0157   28.9247 O   0  0  0  0  0  0  0  0  0  0  0  0
   10.3067  -16.3006   27.4966 O   0  0  0  0  0  0  0  0  0  0  0  0
  2  1  1  1
  2  3  1  0
  4  5  2  0
  4  2  1  0
  6  4  1  0
  7  6  1  0
  8  9  1  0
  7  8  1  1
  9 17  1  0
 10  9  2  0
 10 11  1  0
 11 12  1  0
 12 13  1  0
 13 14  2  0
 15 14  1  0
 16 15  2  0
 17 12  2  0
 17 16  1  0
 18  7  1  0
 18 19  2  0
 21 20  1  6
 22 21  1  0
 23 24  1  6
 23 21  1  0
 24 18  1  0
 25 23  1  0
 26 25  1  0
 27 25  2  0
M  END
$$$$
