AWT.pdb
     RDKit          3D

 27 28  0  0  1  0  0  0  0  0999 V2000
    9.7011  -20.7933   20.9186 C   0  0  0  0  0  0  0  0  0  0  0  0
    8.9763  -19.6071   20.3662 C   0  0  2  0  0  0  0  0  0  0  0  0
    9.4108  -19.3993   19.0025 N   0  0  0  0  0  0  0  0  0  0  0  0
    9.2269  -18.3584   21.1475 C   0  0  0  0  0  0  0  0  0  0  0  0
   10.2984  -17.7044   20.9057 O   0  0  0  0  0  0  0  0  0  0  0  0
    8.3045  -17.9199   22.1210 N   0  0  0  0  0  0  0  0  0  0  0  0
    8.5578  -16.7485   22.8834 C   0  0  1  0  0  0  0  0  0  0  0  0
    7.3066  -16.0510   23.3475 C   0  0  0  0  0  0  0  0  0  0  0  0
    7.5526  -14.7037   23.8711 C   0  0  0  0  0  0  0  0  0  0  0  0
    8.0648  -13.6332   23.1900 C   0  0  0  0  0  0  0  0  0  0  0  0
    8.1416  -12.5734   24.0093 N   0  0  0  0  0  0  0  0  0  0  0  0
    7.6821  -12.9364   25.2321 C   0  0  0  0  0  0  0  0  0  0  0  0
    7.5515  -12.2198   26.4195 C   0  0  0  0  0  0  0  0  0  0  0  0
    7.0492  -12.8208   27.5473 C   0  0  0  0  0  0  0  0  0  0  0  0
    6.6797  -14.1437   27.4749 C   0  0  0  0  0  0  0  0  0  0  0  0
    6.8077  -14.8516   26.3054 C   0  0  0  0  0  0  0  0  0  0  0  0
    7.3157  -14.2628   25.1450 C   0  0  0  0  0  0  0  0  0  0  0  0
    9.3205  -17.1085   24.1342 C   0  0  0  0  0  0  0  0  0  0  0  0
    8.9619  -18.0691   24.8688 O   0  0  0  0  0  0  0  0  0  0  0  0
   13.1113  -17.4348   23.7491 C   0  0  0  0  0  0  0  0  0  0  0  0
   12.8442  -16.8011   25.0707 C   0  0  1  0  0  0  0  0  0  0  0  0
   13.2164  -15.4689   25.0713 O   0  0  0  0  0  0  0  0  0  0  0  0
   11.4079  -16.8742   25.5265 C   0  0  2  0  0  0  0  0  0  0  0  0
   10.4702  -16.3847   24.5366 N   0  0  0  0  0  0  0  0  0  0  0  0
   11.1791  -16.2390   26.8285 C   0  0  0  0  0  0  0  0  0  0  0  0
   10.3977  -15.1353   27.0484 O   0  0  0  0  0  0  0  0  0  0  0  0
   11.7473  -16.7431   27.8508 O   0  0  0  0  0  0  0  0  0  0  0  0
  2  1  1  1
  2  3  1  0
  4  5  2  0
  4  2  1  0
  6  4  1  0
  7  6  1  0
  8  9  1  0
  7  8  1  1
  9 17  1  0
 10  9  2  0
 10 11  1  0
 11 12  1  0
 12 13  1  0
 13 14  2  0
 15 14  1  0
 16 15  2  0
 17 12  2  0
 17 16  1  0
 18  7  1  0
 18 19  2  0
 21 20  1  6
 22 21  1  0
 23 24  1  6
 23 21  1  0
 24 18  1  0
 25 23  1  0
 26 25  1  0
 27 25  2  0
M  END
$$$$
