AWT.pdb
     RDKit          3D

 27 28  0  0  1  0  0  0  0  0999 V2000
    6.7321  -14.3160   20.4946 C   0  0  0  0  0  0  0  0  0  0  0  0
    7.5191  -15.5551   20.7823 C   0  0  2  0  0  0  0  0  0  0  0  0
    6.6041  -16.5890   21.2129 N   0  0  0  0  0  0  0  0  0  0  0  0
    8.5519  -15.3532   21.8430 C   0  0  0  0  0  0  0  0  0  0  0  0
    9.4999  -14.5284   21.6080 O   0  0  0  0  0  0  0  0  0  0  0  0
    8.4769  -16.0549   23.0648 N   0  0  0  0  0  0  0  0  0  0  0  0
    9.4335  -15.8287   24.0901 C   0  0  1  0  0  0  0  0  0  0  0  0
    8.8757  -15.9909   25.4793 C   0  0  0  0  0  0  0  0  0  0  0  0
    7.6829  -15.1745   25.7255 C   0  0  0  0  0  0  0  0  0  0  0  0
    6.3795  -15.5906   25.7130 C   0  0  0  0  0  0  0  0  0  0  0  0
    5.5731  -14.5528   25.9831 N   0  0  0  0  0  0  0  0  0  0  0  0
    6.3364  -13.4489   26.1749 C   0  0  0  0  0  0  0  0  0  0  0  0
    5.9964  -12.1323   26.4773 C   0  0  0  0  0  0  0  0  0  0  0  0
    6.9696  -11.1751   26.6253 C   0  0  0  0  0  0  0  0  0  0  0  0
    8.2841  -11.5480   26.4677 C   0  0  0  0  0  0  0  0  0  0  0  0
    8.6211  -12.8453   26.1696 C   0  0  0  0  0  0  0  0  0  0  0  0
    7.6498  -13.8369   26.0143 C   0  0  0  0  0  0  0  0  0  0  0  0
   10.5541  -16.8319   23.9731 C   0  0  0  0  0  0  0  0  0  0  0  0
   10.3320  -18.0728   24.0144 O   0  0  0  0  0  0  0  0  0  0  0  0
   13.1778  -16.8758   21.1747 C   0  0  0  0  0  0  0  0  0  0  0  0
   13.8883  -17.0252   22.4756 C   0  0  1  0  0  0  0  0  0  0  0  0
   14.5912  -15.8780   22.7968 O   0  0  0  0  0  0  0  0  0  0  0  0
   12.9970  -17.3576   23.6466 C   0  0  2  0  0  0  0  0  0  0  0  0
   11.9015  -16.4242   23.8119 N   0  0  0  0  0  0  0  0  0  0  0  0
   13.7319  -17.5355   24.9034 C   0  0  0  0  0  0  0  0  0  0  0  0
   14.7032  -18.4746   25.1304 O   0  0  0  0  0  0  0  0  0  0  0  0
   13.4558  -16.7602   25.8754 O   0  0  0  0  0  0  0  0  0  0  0  0
  2  1  1  1
  2  3  1  0
  4  5  2  0
  4  2  1  0
  6  4  1  0
  7  6  1  0
  8  9  1  0
  7  8  1  1
  9 17  1  0
 10  9  2  0
 10 11  1  0
 11 12  1  0
 12 13  1  0
 13 14  2  0
 15 14  1  0
 16 15  2  0
 17 12  2  0
 17 16  1  0
 18  7  1  0
 18 19  2  0
 21 20  1  6
 22 21  1  0
 23 24  1  1
 23 21  1  0
 24 18  1  0
 25 23  1  0
 26 25  1  0
 27 25  2  0
M  END
$$$$
