AWT.pdb
     RDKit          3D

 27 28  0  0  1  0  0  0  0  0999 V2000
    7.7089  -17.3766   19.7185 C   0  0  0  0  0  0  0  0  0  0  0  0
    7.0577  -16.4104   20.6566 C   0  0  2  0  0  0  0  0  0  0  0  0
    6.5020  -15.3233   19.8813 N   0  0  0  0  0  0  0  0  0  0  0  0
    8.0085  -15.8480   21.6626 C   0  0  0  0  0  0  0  0  0  0  0  0
    8.6908  -14.8183   21.3332 O   0  0  0  0  0  0  0  0  0  0  0  0
    8.1442  -16.4404   22.9360 N   0  0  0  0  0  0  0  0  0  0  0  0
    9.1480  -15.9973   23.8380 C   0  0  1  0  0  0  0  0  0  0  0  0
    8.7127  -16.0178   25.2794 C   0  0  0  0  0  0  0  0  0  0  0  0
    7.5615  -15.1512   25.5510 C   0  0  0  0  0  0  0  0  0  0  0  0
    6.2415  -15.5110   25.5656 C   0  0  0  0  0  0  0  0  0  0  0  0
    5.4862  -14.4400   25.8532 N   0  0  0  0  0  0  0  0  0  0  0  0
    6.3001  -13.3701   26.0297 C   0  0  0  0  0  0  0  0  0  0  0  0
    6.0233  -12.0407   26.3401 C   0  0  0  0  0  0  0  0  0  0  0  0
    7.0397  -11.1263   26.4683 C   0  0  0  0  0  0  0  0  0  0  0  0
    8.3333  -11.5551   26.2830 C   0  0  0  0  0  0  0  0  0  0  0  0
    8.6080  -12.8652   25.9770 C   0  0  0  0  0  0  0  0  0  0  0  0
    7.5919  -13.8139   25.8414 C   0  0  0  0  0  0  0  0  0  0  0  0
   10.3480  -16.9078   23.7539 C   0  0  0  0  0  0  0  0  0  0  0  0
   10.2186  -18.1606   23.6871 O   0  0  0  0  0  0  0  0  0  0  0  0
   15.2053  -17.3106   22.6723 C   0  0  0  0  0  0  0  0  0  0  0  0
   13.9426  -16.5293   22.7935 C   0  0  1  0  0  0  0  0  0  0  0  0
   13.4449  -16.1862   21.5494 O   0  0  0  0  0  0  0  0  0  0  0  0
   12.8394  -17.2268   23.5502 C   0  0  2  0  0  0  0  0  0  0  0  0
   11.6690  -16.3957   23.7462 N   0  0  0  0  0  0  0  0  0  0  0  0
   13.2864  -17.8147   24.8173 C   0  0  0  0  0  0  0  0  0  0  0  0
   13.8930  -19.0351   24.9573 O   0  0  0  0  0  0  0  0  0  0  0  0
   13.1025  -17.1479   25.8867 O   0  0  0  0  0  0  0  0  0  0  0  0
  2  1  1  6
  2  3  1  0
  4  5  2  0
  4  2  1  0
  6  4  1  0
  7  6  1  0
  8  9  1  0
  7  8  1  1
  9 17  1  0
 10  9  2  0
 10 11  1  0
 11 12  1  0
 12 13  1  0
 13 14  2  0
 15 14  1  0
 16 15  2  0
 17 12  2  0
 17 16  1  0
 18  7  1  0
 18 19  2  0
 21 20  1  6
 22 21  1  0
 23 24  1  1
 23 21  1  0
 24 18  1  0
 25 23  1  0
 26 25  1  0
 27 25  2  0
M  END
$$$$
