AWT.pdb
     RDKit          3D

 27 28  0  0  1  0  0  0  0  0999 V2000
    7.9782  -17.1578   19.2815 C   0  0  0  0  0  0  0  0  0  0  0  0
    7.3049  -16.1539   20.1625 C   0  0  2  0  0  0  0  0  0  0  0  0
    7.0287  -14.9697   19.3794 N   0  0  0  0  0  0  0  0  0  0  0  0
    8.1357  -15.7680   21.3428 C   0  0  0  0  0  0  0  0  0  0  0  0
    9.0303  -14.8696   21.1789 O   0  0  0  0  0  0  0  0  0  0  0  0
    7.9335  -16.3805   22.5978 N   0  0  0  0  0  0  0  0  0  0  0  0
    8.8014  -16.1034   23.6875 C   0  0  1  0  0  0  0  0  0  0  0  0
    8.1588  -16.3048   25.0343 C   0  0  0  0  0  0  0  0  0  0  0  0
    7.1751  -15.2703   25.3692 C   0  0  0  0  0  0  0  0  0  0  0  0
    5.8202  -15.4239   25.4822 C   0  0  0  0  0  0  0  0  0  0  0  0
    5.2591  -14.2478   25.8018 N   0  0  0  0  0  0  0  0  0  0  0  0
    6.2366  -13.3136   25.9014 C   0  0  0  0  0  0  0  0  0  0  0  0
    6.1881  -11.9551   26.2055 C   0  0  0  0  0  0  0  0  0  0  0  0
    7.3382  -11.2060   26.2457 C   0  0  0  0  0  0  0  0  0  0  0  0
    8.5350  -11.8290   25.9788 C   0  0  0  0  0  0  0  0  0  0  0  0
    8.5847  -13.1680   25.6789 C   0  0  0  0  0  0  0  0  0  0  0  0
    7.4291  -13.9512   25.6319 C   0  0  0  0  0  0  0  0  0  0  0  0
    9.9847  -17.0384   23.6482 C   0  0  0  0  0  0  0  0  0  0  0  0
    9.8561  -18.2470   23.3108 O   0  0  0  0  0  0  0  0  0  0  0  0
   14.0607  -15.5120   23.4754 C   0  0  0  0  0  0  0  0  0  0  0  0
   13.5319  -16.8136   22.9797 C   0  0  1  0  0  0  0  0  0  0  0  0
   14.5459  -17.7431   22.8341 O   0  0  0  0  0  0  0  0  0  0  0  0
   12.4655  -17.4333   23.8485 C   0  0  2  0  0  0  0  0  0  0  0  0
   11.2886  -16.6001   23.9878 N   0  0  0  0  0  0  0  0  0  0  0  0
   12.9631  -17.8658   25.1587 C   0  0  0  0  0  0  0  0  0  0  0  0
   13.9076  -18.8354   25.3700 O   0  0  0  0  0  0  0  0  0  0  0  0
   12.4874  -17.3029   26.1975 O   0  0  0  0  0  0  0  0  0  0  0  0
  2  1  1  6
  2  3  1  0
  4  5  2  0
  4  2  1  0
  6  4  1  0
  7  6  1  0
  8  9  1  0
  7  8  1  1
  9 17  1  0
 10  9  2  0
 10 11  1  0
 11 12  1  0
 12 13  1  0
 13 14  2  0
 15 14  1  0
 16 15  2  0
 17 12  2  0
 17 16  1  0
 18  7  1  0
 18 19  2  0
 21 20  1  1
 22 21  1  0
 23 24  1  1
 23 21  1  0
 24 18  1  0
 25 23  1  0
 26 25  1  0
 27 25  2  0
M  END
$$$$
