AWT.pdb
     RDKit          3D

 27 28  0  0  1  0  0  0  0  0999 V2000
    6.3950  -14.6843   20.6203 C   0  0  0  0  0  0  0  0  0  0  0  0
    7.4584  -15.7093   20.8567 C   0  0  2  0  0  0  0  0  0  0  0  0
    6.8196  -16.9833   21.1029 N   0  0  0  0  0  0  0  0  0  0  0  0
    8.3359  -15.3775   22.0195 C   0  0  0  0  0  0  0  0  0  0  0  0
    9.0208  -14.2994   21.9659 O   0  0  0  0  0  0  0  0  0  0  0  0
    8.4019  -16.2327   23.1399 N   0  0  0  0  0  0  0  0  0  0  0  0
    9.3345  -15.9893   24.1833 C   0  0  1  0  0  0  0  0  0  0  0  0
    8.7461  -16.1348   25.5617 C   0  0  0  0  0  0  0  0  0  0  0  0
    7.5953  -15.2574   25.7978 C   0  0  0  0  0  0  0  0  0  0  0  0
    6.2718  -15.6024   25.7616 C   0  0  0  0  0  0  0  0  0  0  0  0
    5.5183  -14.5251   26.0297 N   0  0  0  0  0  0  0  0  0  0  0  0
    6.3368  -13.4657   26.2438 C   0  0  0  0  0  0  0  0  0  0  0  0
    6.0635  -12.1355   26.5540 C   0  0  0  0  0  0  0  0  0  0  0  0
    7.0844  -11.2336   26.7260 C   0  0  0  0  0  0  0  0  0  0  0  0
    8.3792  -11.6755   26.5845 C   0  0  0  0  0  0  0  0  0  0  0  0
    8.6505  -12.9863   26.2789 C   0  0  0  0  0  0  0  0  0  0  0  0
    7.6297  -13.9226   26.0992 C   0  0  0  0  0  0  0  0  0  0  0  0
   10.4607  -16.9899   24.1050 C   0  0  0  0  0  0  0  0  0  0  0  0
   10.3884  -18.1073   24.6857 O   0  0  0  0  0  0  0  0  0  0  0  0
   12.7691  -17.3388   20.6970 C   0  0  0  0  0  0  0  0  0  0  0  0
   13.5414  -17.4348   21.9674 C   0  0  1  0  0  0  0  0  0  0  0  0
   14.2778  -16.2860   22.1936 O   0  0  0  0  0  0  0  0  0  0  0  0
   12.7046  -17.6903   23.1965 C   0  0  2  0  0  0  0  0  0  0  0  0
   11.6456  -16.7183   23.3771 N   0  0  0  0  0  0  0  0  0  0  0  0
   13.4999  -17.8366   24.4201 C   0  0  0  0  0  0  0  0  0  0  0  0
   13.3850  -17.0574   25.5410 O   0  0  0  0  0  0  0  0  0  0  0  0
   14.3755  -18.7607   24.4603 O   0  0  0  0  0  0  0  0  0  0  0  0
  2  1  1  1
  2  3  1  0
  4  5  2  0
  4  2  1  0
  6  4  1  0
  7  6  1  0
  8  9  1  0
  7  8  1  1
  9 17  1  0
 10  9  2  0
 10 11  1  0
 11 12  1  0
 12 13  1  0
 13 14  2  0
 15 14  1  0
 16 15  2  0
 17 12  2  0
 17 16  1  0
 18  7  1  0
 18 19  2  0
 21 20  1  6
 22 21  1  0
 23 24  1  1
 23 21  1  0
 24 18  1  0
 25 23  1  0
 26 25  1  0
 27 25  2  0
M  END
$$$$
