AWT.pdb
     RDKit          3D

 27 28  0  0  1  0  0  0  0  0999 V2000
    7.7285  -13.0484   18.3271 C   0  0  0  0  0  0  0  0  0  0  0  0
    8.2883  -14.3559   18.7901 C   0  0  2  0  0  0  0  0  0  0  0  0
    7.3210  -15.3936   18.5085 N   0  0  0  0  0  0  0  0  0  0  0  0
    8.5978  -14.3696   20.2518 C   0  0  0  0  0  0  0  0  0  0  0  0
    9.6616  -13.7797   20.6453 O   0  0  0  0  0  0  0  0  0  0  0  0
    7.7376  -15.0156   21.1647 N   0  0  0  0  0  0  0  0  0  0  0  0
    8.0126  -14.9952   22.5581 C   0  0  1  0  0  0  0  0  0  0  0  0
    6.7873  -15.1716   23.4154 C   0  0  0  0  0  0  0  0  0  0  0  0
    7.0353  -14.9297   24.8401 C   0  0  0  0  0  0  0  0  0  0  0  0
    7.2752  -15.8666   25.8080 C   0  0  0  0  0  0  0  0  0  0  0  0
    7.4538  -15.2572   26.9900 N   0  0  0  0  0  0  0  0  0  0  0  0
    7.3333  -13.9188   26.8104 C   0  0  0  0  0  0  0  0  0  0  0  0
    7.4291  -12.8549   27.7045 C   0  0  0  0  0  0  0  0  0  0  0  0
    7.2650  -11.5618   27.2729 C   0  0  0  0  0  0  0  0  0  0  0  0
    7.0045  -11.3446   25.9400 C   0  0  0  0  0  0  0  0  0  0  0  0
    6.9098  -12.3921   25.0572 C   0  0  0  0  0  0  0  0  0  0  0  0
    7.0728  -13.7159   25.4717 C   0  0  0  0  0  0  0  0  0  0  0  0
    8.9351  -16.1349   22.9131 C   0  0  0  0  0  0  0  0  0  0  0  0
    8.6977  -17.3145   22.5348 O   0  0  0  0  0  0  0  0  0  0  0  0
   13.4837  -17.6834   23.7674 C   0  0  0  0  0  0  0  0  0  0  0  0
   12.4397  -16.6836   23.4070 C   0  0  1  0  0  0  0  0  0  0  0  0
   12.3205  -16.5568   22.0348 O   0  0  0  0  0  0  0  0  0  0  0  0
   11.0670  -16.9778   23.9595 C   0  0  2  0  0  0  0  0  0  0  0  0
   10.1055  -15.9296   23.6849 N   0  0  0  0  0  0  0  0  0  0  0  0
   11.0768  -17.3238   25.3847 C   0  0  0  0  0  0  0  0  0  0  0  0
   11.4429  -18.5367   25.9060 O   0  0  0  0  0  0  0  0  0  0  0  0
   10.7173  -16.4333   26.2214 O   0  0  0  0  0  0  0  0  0  0  0  0
  2  1  1  1
  2  3  1  0
  4  5  2  0
  4  2  1  0
  6  4  1  0
  7  6  1  0
  8  9  1  0
  7  8  1  1
  9 17  1  0
 10  9  2  0
 10 11  1  0
 11 12  1  0
 12 13  1  0
 13 14  2  0
 15 14  1  0
 16 15  2  0
 17 12  2  0
 17 16  1  0
 18  7  1  0
 18 19  2  0
 21 20  1  6
 22 21  1  0
 23 24  1  1
 23 21  1  0
 24 18  1  0
 25 23  1  0
 26 25  1  0
 27 25  2  0
M  END
$$$$
