AWT.pdb
     RDKit          3D

 27 28  0  0  1  0  0  0  0  0999 V2000
    7.3698  -16.3969   19.6792 C   0  0  0  0  0  0  0  0  0  0  0  0
    7.2236  -15.1816   20.5389 C   0  0  2  0  0  0  0  0  0  0  0  0
    7.3633  -14.0098   19.7029 N   0  0  0  0  0  0  0  0  0  0  0  0
    8.2407  -15.1181   21.6316 C   0  0  0  0  0  0  0  0  0  0  0  0
    9.3429  -14.5169   21.3909 O   0  0  0  0  0  0  0  0  0  0  0  0
    7.9857  -15.7058   22.8887 N   0  0  0  0  0  0  0  0  0  0  0  0
    8.9402  -15.6172   23.9369 C   0  0  1  0  0  0  0  0  0  0  0  0
    8.3410  -15.7684   25.3101 C   0  0  0  0  0  0  0  0  0  0  0  0
    7.2432  -14.8322   25.5713 C   0  0  0  0  0  0  0  0  0  0  0  0
    5.9031  -15.1082   25.5679 C   0  0  0  0  0  0  0  0  0  0  0  0
    5.2131  -13.9929   25.8510 N   0  0  0  0  0  0  0  0  0  0  0  0
    6.0903  -12.9771   26.0425 C   0  0  0  0  0  0  0  0  0  0  0  0
    5.8938  -11.6340   26.3554 C   0  0  0  0  0  0  0  0  0  0  0  0
    6.9639  -10.7859   26.5003 C   0  0  0  0  0  0  0  0  0  0  0  0
    8.2302  -11.2945   26.3290 C   0  0  0  0  0  0  0  0  0  0  0  0
    8.4259  -12.6182   26.0206 C   0  0  0  0  0  0  0  0  0  0  0  0
    7.3540  -13.5006   25.8681 C   0  0  0  0  0  0  0  0  0  0  0  0
    9.9522  -16.7277   23.8011 C   0  0  0  0  0  0  0  0  0  0  0  0
    9.6328  -17.8537   23.3311 O   0  0  0  0  0  0  0  0  0  0  0  0
   14.1475  -15.7779   23.7606 C   0  0  0  0  0  0  0  0  0  0  0  0
   13.4966  -16.9666   23.1418 C   0  0  1  0  0  0  0  0  0  0  0  0
   14.4065  -17.9897   22.9450 O   0  0  0  0  0  0  0  0  0  0  0  0
   12.3376  -17.5307   23.9257 C   0  0  2  0  0  0  0  0  0  0  0  0
   11.3022  -16.5538   24.1945 N   0  0  0  0  0  0  0  0  0  0  0  0
   12.7476  -18.2162   25.1557 C   0  0  0  0  0  0  0  0  0  0  0  0
   13.5522  -19.3232   25.2187 O   0  0  0  0  0  0  0  0  0  0  0  0
   12.3289  -17.7567   26.2674 O   0  0  0  0  0  0  0  0  0  0  0  0
  2  1  1  6
  2  3  1  0
  4  5  2  0
  4  2  1  0
  6  4  1  0
  7  6  1  0
  8  9  1  0
  7  8  1  1
  9 17  1  0
 10  9  2  0
 10 11  1  0
 11 12  1  0
 12 13  1  0
 13 14  2  0
 15 14  1  0
 16 15  2  0
 17 12  2  0
 17 16  1  0
 18  7  1  0
 18 19  2  0
 21 20  1  1
 22 21  1  0
 23 24  1  1
 23 21  1  0
 24 18  1  0
 25 23  1  0
 26 25  1  0
 27 25  2  0
M  END
$$$$
