AWT.pdb
     RDKit          3D

 27 28  0  0  1  0  0  0  0  0999 V2000
    7.3750  -17.4511   19.8548 C   0  0  0  0  0  0  0  0  0  0  0  0
    6.9021  -16.4189   20.8286 C   0  0  2  0  0  0  0  0  0  0  0  0
    6.3654  -15.3002   20.0854 N   0  0  0  0  0  0  0  0  0  0  0  0
    7.9907  -15.9244   21.7245 C   0  0  0  0  0  0  0  0  0  0  0  0
    8.7534  -14.9968   21.2863 O   0  0  0  0  0  0  0  0  0  0  0  0
    8.1659  -16.4692   23.0142 N   0  0  0  0  0  0  0  0  0  0  0  0
    9.1620  -15.9571   23.8879 C   0  0  1  0  0  0  0  0  0  0  0  0
    8.7573  -15.9765   25.3382 C   0  0  0  0  0  0  0  0  0  0  0  0
    7.5748  -15.1575   25.6224 C   0  0  0  0  0  0  0  0  0  0  0  0
    6.2731  -15.5757   25.6753 C   0  0  0  0  0  0  0  0  0  0  0  0
    5.4771  -14.5345   25.9624 N   0  0  0  0  0  0  0  0  0  0  0  0
    6.2457  -13.4262   26.1004 C   0  0  0  0  0  0  0  0  0  0  0  0
    5.9164  -12.1049   26.3941 C   0  0  0  0  0  0  0  0  0  0  0  0
    6.8931  -11.1437   26.4816 C   0  0  0  0  0  0  0  0  0  0  0  0
    8.2001  -11.5175   26.2725 C   0  0  0  0  0  0  0  0  0  0  0  0
    8.5265  -12.8194   25.9829 C   0  0  0  0  0  0  0  0  0  0  0  0
    7.5515  -13.8151   25.8886 C   0  0  0  0  0  0  0  0  0  0  0  0
   10.4077  -16.8027   23.7932 C   0  0  0  0  0  0  0  0  0  0  0  0
   10.3557  -18.0604   23.8735 O   0  0  0  0  0  0  0  0  0  0  0  0
   15.3286  -16.9668   22.7919 C   0  0  0  0  0  0  0  0  0  0  0  0
   14.0209  -16.2532   22.8063 C   0  0  1  0  0  0  0  0  0  0  0  0
   13.6035  -15.9473   21.5235 O   0  0  0  0  0  0  0  0  0  0  0  0
   12.9008  -17.0025   23.4845 C   0  0  2  0  0  0  0  0  0  0  0  0
   11.6870  -16.2217   23.6102 N   0  0  0  0  0  0  0  0  0  0  0  0
   13.2889  -17.5845   24.7736 C   0  0  0  0  0  0  0  0  0  0  0  0
   13.1568  -16.9747   25.9933 O   0  0  0  0  0  0  0  0  0  0  0  0
   13.7928  -18.7542   24.7771 O   0  0  0  0  0  0  0  0  0  0  0  0
  2  1  1  6
  2  3  1  0
  4  5  2  0
  4  2  1  0
  6  4  1  0
  7  6  1  0
  8  9  1  0
  7  8  1  1
  9 17  1  0
 10  9  2  0
 10 11  1  0
 11 12  1  0
 12 13  1  0
 13 14  2  0
 15 14  1  0
 16 15  2  0
 17 12  2  0
 17 16  1  0
 18  7  1  0
 18 19  2  0
 21 20  1  6
 22 21  1  0
 23 24  1  1
 23 21  1  0
 24 18  1  0
 25 23  1  0
 26 25  1  0
 27 25  2  0
M  END
$$$$
