SYF.pdb
     RDKit          3D

 30 31  0  0  1  0  0  0  0  0999 V2000
   13.1537  -19.8957   19.9709 O   0  0  0  0  0  0  0  0  0  0  0  0
   12.7489  -18.9804   20.9284 C   0  0  0  0  0  0  0  0  0  0  0  0
   11.9034  -17.8651   20.3571 C   0  0  2  0  0  0  0  0  0  0  0  0
   12.7135  -17.1451   19.3952 N   0  0  0  0  0  0  0  0  0  0  0  0
   11.4254  -16.9302   21.3783 C   0  0  0  0  0  0  0  0  0  0  0  0
   12.1441  -15.9663   21.7463 O   0  0  0  0  0  0  0  0  0  0  0  0
    7.2182  -13.2293   17.7885 O   0  0  0  0  0  0  0  0  0  0  0  0
    7.4733  -13.8604   19.0199 C   0  0  0  0  0  0  0  0  0  0  0  0
    7.2584  -15.2172   19.1338 C   0  0  0  0  0  0  0  0  0  0  0  0
    7.4991  -15.8650   20.3277 C   0  0  0  0  0  0  0  0  0  0  0  0
    7.9559  -15.1947   21.4352 C   0  0  0  0  0  0  0  0  0  0  0  0
    8.2112  -15.8696   22.7078 C   0  0  0  0  0  0  0  0  0  0  0  0
    9.6664  -16.0450   22.9726 C   0  0  2  0  0  0  0  0  0  0  0  0
   10.1538  -17.0338   22.0140 N   0  0  0  0  0  0  0  0  0  0  0  0
    9.9475  -16.4371   24.3540 C   0  0  0  0  0  0  0  0  0  0  0  0
   10.0795  -17.6016   24.7633 O   0  0  0  0  0  0  0  0  0  0  0  0
    8.1676  -13.8215   21.3002 C   0  0  0  0  0  0  0  0  0  0  0  0
    7.9304  -13.1673   20.1138 C   0  0  0  0  0  0  0  0  0  0  0  0
   10.0842  -15.3985   25.3261 N   0  0  0  0  0  0  0  0  0  0  0  0
   10.5771  -15.6944   26.6684 C   0  0  1  0  0  0  0  0  0  0  0  0
   10.7884  -14.4712   27.4752 C   0  0  0  0  0  0  0  0  0  0  0  0
    9.5321  -13.7222   27.6463 C   0  0  0  0  0  0  0  0  0  0  0  0
    9.0055  -13.3845   28.8591 C   0  0  0  0  0  0  0  0  0  0  0  0
    7.8323  -12.6764   28.9319 C   0  0  0  0  0  0  0  0  0  0  0  0
    7.1404  -12.2787   27.8132 C   0  0  0  0  0  0  0  0  0  0  0  0
    7.6503  -12.6070   26.5838 C   0  0  0  0  0  0  0  0  0  0  0  0
    8.8200  -13.3129   26.5105 C   0  0  0  0  0  0  0  0  0  0  0  0
    9.5872  -16.5589   27.3078 C   0  0  0  0  0  0  0  0  0  0  0  0
    9.7905  -17.0269   28.4409 O   0  0  0  0  0  0  0  0  0  0  0  0
    8.4113  -16.8669   26.6592 O   0  0  0  0  0  0  0  0  0  0  0  0
  1  2  1  0
  2  3  1  0
  3  5  1  0
  3  4  1  6
  5 14  1  0
  6  5  2  0
  8  7  1  0
  9  8  2  0
 10  9  1  0
 11 10  2  0
 11 17  1  0
 12 11  1  0
 13 12  1  1
 14 13  1  0
 15 13  1  0
 16 15  2  0
 17 18  2  0
 18  8  1  0
 19 15  1  0
 20 19  1  0
 21 22  1  0
 20 21  1  1
 22 23  2  0
 23 24  1  0
 25 24  2  0
 26 25  1  0
 27 26  2  0
 27 22  1  0
 28 20  1  0
 28 30  1  0
 29 28  2  0
M  END
$$$$
