SYF.pdb
     RDKit          3D

 30 31  0  0  1  0  0  0  0  0999 V2000
   10.3852  -14.4422   19.0648 O   0  0  0  0  0  0  0  0  0  0  0  0
    9.6686  -15.2369   18.1854 C   0  0  0  0  0  0  0  0  0  0  0  0
    8.1725  -15.1092   18.3611 C   0  0  2  0  0  0  0  0  0  0  0  0
    7.7873  -13.7844   17.9180 N   0  0  0  0  0  0  0  0  0  0  0  0
    7.7424  -15.2958   19.7488 C   0  0  0  0  0  0  0  0  0  0  0  0
    7.3416  -14.3171   20.4287 O   0  0  0  0  0  0  0  0  0  0  0  0
    1.7399  -18.7547   19.1495 O   0  0  0  0  0  0  0  0  0  0  0  0
    2.9557  -18.5904   19.8385 C   0  0  0  0  0  0  0  0  0  0  0  0
    4.1353  -18.9049   19.1987 C   0  0  0  0  0  0  0  0  0  0  0  0
    5.3436  -18.7547   19.8472 C   0  0  0  0  0  0  0  0  0  0  0  0
    5.4195  -18.2928   21.1377 C   0  0  0  0  0  0  0  0  0  0  0  0
    6.6942  -18.1330   21.8375 C   0  0  0  0  0  0  0  0  0  0  0  0
    7.2087  -16.7372   21.7631 C   0  0  2  0  0  0  0  0  0  0  0  0
    7.7435  -16.5556   20.4158 N   0  0  0  0  0  0  0  0  0  0  0  0
    8.2073  -16.4460   22.7921 C   0  0  0  0  0  0  0  0  0  0  0  0
    9.4336  -16.5989   22.6746 O   0  0  0  0  0  0  0  0  0  0  0  0
    4.2143  -17.9795   21.7688 C   0  0  0  0  0  0  0  0  0  0  0  0
    3.0051  -18.1260   21.1300 C   0  0  0  0  0  0  0  0  0  0  0  0
    7.7434  -15.9410   24.0459 N   0  0  0  0  0  0  0  0  0  0  0  0
    8.6889  -15.5521   25.0886 C   0  0  1  0  0  0  0  0  0  0  0  0
    8.1117  -14.5750   26.0392 C   0  0  0  0  0  0  0  0  0  0  0  0
    9.0196  -14.3348   27.1734 C   0  0  0  0  0  0  0  0  0  0  0  0
   10.2058  -13.6678   27.0718 C   0  0  0  0  0  0  0  0  0  0  0  0
   10.9910  -13.4783   28.1812 C   0  0  0  0  0  0  0  0  0  0  0  0
   10.6336  -13.9396   29.4252 C   0  0  0  0  0  0  0  0  0  0  0  0
    9.4461  -14.6129   29.5513 C   0  0  0  0  0  0  0  0  0  0  0  0
    8.6627  -14.8021   28.4457 C   0  0  0  0  0  0  0  0  0  0  0  0
    9.0789  -16.7732   25.7909 C   0  0  0  0  0  0  0  0  0  0  0  0
   10.2454  -16.9315   26.1890 O   0  0  0  0  0  0  0  0  0  0  0  0
    8.1538  -17.7680   26.0211 O   0  0  0  0  0  0  0  0  0  0  0  0
  1  2  1  0
  2  3  1  0
  3  5  1  0
  3  4  1  1
  5 14  1  0
  6  5  2  0
  8  7  1  0
  9  8  2  0
 10  9  1  0
 11 10  2  0
 11 17  1  0
 12 11  1  0
 13 12  1  6
 14 13  1  0
 15 13  1  0
 16 15  2  0
 17 18  2  0
 18  8  1  0
 19 15  1  0
 20 19  1  0
 21 22  1  0
 20 21  1  1
 22 23  2  0
 23 24  1  0
 25 24  2  0
 26 25  1  0
 27 26  2  0
 27 22  1  0
 28 20  1  0
 28 30  1  0
 29 28  2  0
M  END
$$$$
