SYF.pdb
     RDKit          3D

 30 31  0  0  1  0  0  0  0  0999 V2000
    7.1294  -20.4463   21.3786 O   0  0  0  0  0  0  0  0  0  0  0  0
    5.7502  -20.5358   21.2888 C   0  0  0  0  0  0  0  0  0  0  0  0
    5.0777  -20.6443   22.6383 C   0  0  2  0  0  0  0  0  0  0  0  0
    3.6452  -20.6233   22.4209 N   0  0  0  0  0  0  0  0  0  0  0  0
    5.4418  -19.5548   23.5471 C   0  0  0  0  0  0  0  0  0  0  0  0
    4.9390  -18.4112   23.4046 O   0  0  0  0  0  0  0  0  0  0  0  0
   10.5014  -15.7161   29.7797 O   0  0  0  0  0  0  0  0  0  0  0  0
    9.6563  -16.5502   29.0248 C   0  0  0  0  0  0  0  0  0  0  0  0
    9.4716  -17.8558   29.4266 C   0  0  0  0  0  0  0  0  0  0  0  0
    8.6494  -18.6985   28.7078 C   0  0  0  0  0  0  0  0  0  0  0  0
    7.9911  -18.2775   27.5791 C   0  0  0  0  0  0  0  0  0  0  0  0
    7.1197  -19.1626   26.8060 C   0  0  0  0  0  0  0  0  0  0  0  0
    6.7538  -18.5819   25.4841 C   0  0  2  0  0  0  0  0  0  0  0  0
    6.3615  -19.6979   24.6267 N   0  0  0  0  0  0  0  0  0  0  0  0
    7.8347  -17.7919   24.8937 C   0  0  0  0  0  0  0  0  0  0  0  0
    8.8952  -18.2453   24.4346 O   0  0  0  0  0  0  0  0  0  0  0  0
    8.1907  -16.9524   27.1881 C   0  0  0  0  0  0  0  0  0  0  0  0
    9.0085  -16.1050   27.8987 C   0  0  0  0  0  0  0  0  0  0  0  0
    7.6671  -16.3739   24.8346 N   0  0  0  0  0  0  0  0  0  0  0  0
    8.4092  -15.5756   23.8628 C   0  0  1  0  0  0  0  0  0  0  0  0
    7.7873  -14.2534   23.6248 C   0  0  0  0  0  0  0  0  0  0  0  0
    7.5579  -13.5368   24.8906 C   0  0  0  0  0  0  0  0  0  0  0  0
    8.5068  -12.7895   25.5258 C   0  0  0  0  0  0  0  0  0  0  0  0
    8.2090  -12.1446   26.6999 C   0  0  0  0  0  0  0  0  0  0  0  0
    6.9680  -12.2153   27.2859 C   0  0  0  0  0  0  0  0  0  0  0  0
    5.9989  -12.9607   26.6657 C   0  0  0  0  0  0  0  0  0  0  0  0
    6.2951  -13.6037   25.4951 C   0  0  0  0  0  0  0  0  0  0  0  0
    9.7636  -15.4119   24.3873 C   0  0  0  0  0  0  0  0  0  0  0  0
   10.0302  -15.7149   25.5627 O   0  0  0  0  0  0  0  0  0  0  0  0
   10.7658  -14.9176   23.5814 O   0  0  0  0  0  0  0  0  0  0  0  0
  1  2  1  0
  2  3  1  0
  3  5  1  0
  3  4  1  6
  5 14  1  0
  6  5  2  0
  8  7  1  0
  9  8  2  0
 10  9  1  0
 11 10  2  0
 11 17  1  0
 12 11  1  0
 13 12  1  1
 14 13  1  0
 15 13  1  0
 16 15  2  0
 17 18  2  0
 18  8  1  0
 19 15  1  0
 20 19  1  0
 21 22  1  0
 20 21  1  1
 22 23  2  0
 23 24  1  0
 25 24  2  0
 26 25  1  0
 27 26  2  0
 27 22  1  0
 28 20  1  0
 28 30  1  0
 29 28  2  0
M  END
$$$$
