SYF.pdb
     RDKit          3D

 30 31  0  0  1  0  0  0  0  0999 V2000
    9.3705  -17.6699   16.6906 O   0  0  0  0  0  0  0  0  0  0  0  0
    8.7343  -18.8874   16.5134 C   0  0  0  0  0  0  0  0  0  0  0  0
    7.3998  -18.9631   17.2196 C   0  0  2  0  0  0  0  0  0  0  0  0
    6.4674  -18.1251   16.4929 N   0  0  0  0  0  0  0  0  0  0  0  0
    7.4643  -18.5144   18.6124 C   0  0  0  0  0  0  0  0  0  0  0  0
    7.0035  -17.3921   18.9423 O   0  0  0  0  0  0  0  0  0  0  0  0
    7.9161  -18.9477   27.4510 O   0  0  0  0  0  0  0  0  0  0  0  0
    7.9681  -19.2357   26.0747 C   0  0  0  0  0  0  0  0  0  0  0  0
    6.8259  -19.0904   25.3169 C   0  0  0  0  0  0  0  0  0  0  0  0
    6.8446  -19.3649   23.9652 C   0  0  0  0  0  0  0  0  0  0  0  0
    7.9848  -19.7879   23.3286 C   0  0  0  0  0  0  0  0  0  0  0  0
    8.0164  -20.0860   21.8966 C   0  0  0  0  0  0  0  0  0  0  0  0
    8.0152  -18.8521   21.0624 C   0  0  2  0  0  0  0  0  0  0  0  0
    8.0339  -19.2856   19.6674 N   0  0  0  0  0  0  0  0  0  0  0  0
    9.1309  -17.9576   21.3725 C   0  0  0  0  0  0  0  0  0  0  0  0
   10.2827  -18.0530   20.9193 O   0  0  0  0  0  0  0  0  0  0  0  0
    9.1312  -19.9290   24.1126 C   0  0  0  0  0  0  0  0  0  0  0  0
    9.1219  -19.6576   25.4610 C   0  0  0  0  0  0  0  0  0  0  0  0
    8.8862  -16.8762   22.2742 N   0  0  0  0  0  0  0  0  0  0  0  0
    9.9023  -15.8528   22.5035 C   0  0  1  0  0  0  0  0  0  0  0  0
    9.3135  -14.5174   22.7517 C   0  0  0  0  0  0  0  0  0  0  0  0
    8.4943  -14.0758   21.6104 C   0  0  0  0  0  0  0  0  0  0  0  0
    8.9841  -13.3742   20.5474 C   0  0  0  0  0  0  0  0  0  0  0  0
    8.1540  -13.0075   19.5180 C   0  0  0  0  0  0  0  0  0  0  0  0
    6.8159  -13.3196   19.5027 C   0  0  0  0  0  0  0  0  0  0  0  0
    6.3015  -14.0238   20.5605 C   0  0  0  0  0  0  0  0  0  0  0  0
    7.1286  -14.3898   21.5870 C   0  0  0  0  0  0  0  0  0  0  0  0
   10.6903  -16.2819   23.6573 C   0  0  0  0  0  0  0  0  0  0  0  0
   11.7256  -15.6750   23.9801 O   0  0  0  0  0  0  0  0  0  0  0  0
   10.2932  -17.3693   24.4044 O   0  0  0  0  0  0  0  0  0  0  0  0
  1  2  1  0
  2  3  1  0
  3  5  1  0
  3  4  1  6
  5 14  1  0
  6  5  2  0
  8  7  1  0
  9  8  2  0
 10  9  1  0
 11 10  2  0
 11 17  1  0
 12 11  1  0
 13 12  1  1
 14 13  1  0
 15 13  1  0
 16 15  2  0
 17 18  2  0
 18  8  1  0
 19 15  1  0
 20 19  1  0
 21 22  1  0
 20 21  1  1
 22 23  2  0
 23 24  1  0
 25 24  2  0
 26 25  1  0
 27 26  2  0
 27 22  1  0
 28 20  1  0
 28 30  1  0
 29 28  2  0
M  END
$$$$
