SYF.pdb
     RDKit          3D

 30 31  0  0  1  0  0  0  0  0999 V2000
    9.2837  -13.7633   19.9804 O   0  0  0  0  0  0  0  0  0  0  0  0
    8.1361  -14.0267   19.2509 C   0  0  0  0  0  0  0  0  0  0  0  0
    7.6447  -15.4466   19.4177 C   0  0  2  0  0  0  0  0  0  0  0  0
    6.5798  -15.6609   18.4586 N   0  0  0  0  0  0  0  0  0  0  0  0
    7.1406  -15.7220   20.7651 C   0  0  0  0  0  0  0  0  0  0  0  0
    6.1154  -15.1341   21.1943 O   0  0  0  0  0  0  0  0  0  0  0  0
    2.1773  -19.1222   19.7188 O   0  0  0  0  0  0  0  0  0  0  0  0
    3.3300  -18.9404   20.5049 C   0  0  0  0  0  0  0  0  0  0  0  0
    3.1908  -18.5135   21.8082 C   0  0  0  0  0  0  0  0  0  0  0  0
    4.3015  -18.3259   22.6044 C   0  0  0  0  0  0  0  0  0  0  0  0
    5.5726  -18.5532   22.1383 C   0  0  0  0  0  0  0  0  0  0  0  0
    6.7585  -18.3541   22.9715 C   0  0  0  0  0  0  0  0  0  0  0  0
    7.2043  -16.9331   22.9897 C   0  0  2  0  0  0  0  0  0  0  0  0
    7.7492  -16.6446   21.6652 N   0  0  0  0  0  0  0  0  0  0  0  0
    8.1721  -16.6566   24.0517 C   0  0  0  0  0  0  0  0  0  0  0  0
    9.4060  -16.6309   23.9179 O   0  0  0  0  0  0  0  0  0  0  0  0
    5.6932  -18.9851   20.8162 C   0  0  0  0  0  0  0  0  0  0  0  0
    4.5914  -19.1749   20.0151 C   0  0  0  0  0  0  0  0  0  0  0  0
    7.6654  -16.3915   25.3615 N   0  0  0  0  0  0  0  0  0  0  0  0
    8.5726  -16.0788   26.4622 C   0  0  1  0  0  0  0  0  0  0  0  0
    7.9217  -15.2721   27.5192 C   0  0  0  0  0  0  0  0  0  0  0  0
    7.5326  -13.9451   27.0131 C   0  0  0  0  0  0  0  0  0  0  0  0
    6.2646  -13.6179   26.6291 C   0  0  0  0  0  0  0  0  0  0  0  0
    5.9826  -12.3536   26.1763 C   0  0  0  0  0  0  0  0  0  0  0  0
    6.9398  -11.3717   26.0868 C   0  0  0  0  0  0  0  0  0  0  0  0
    8.2209  -11.6777   26.4669 C   0  0  0  0  0  0  0  0  0  0  0  0
    8.5027  -12.9379   26.9186 C   0  0  0  0  0  0  0  0  0  0  0  0
    9.0374  -17.3518   27.0097 C   0  0  0  0  0  0  0  0  0  0  0  0
    8.5204  -18.4235   26.6513 O   0  0  0  0  0  0  0  0  0  0  0  0
   10.0590  -17.3792   27.9337 O   0  0  0  0  0  0  0  0  0  0  0  0
  1  2  1  0
  2  3  1  0
  3  5  1  0
  3  4  1  6
  5 14  1  0
  6  5  2  0
  8  7  1  0
  9  8  2  0
 10  9  1  0
 11 10  2  0
 11 17  1  0
 12 11  1  0
 13 12  1  6
 14 13  1  0
 15 13  1  0
 16 15  2  0
 17 18  2  0
 18  8  1  0
 19 15  1  0
 20 19  1  0
 21 22  1  0
 20 21  1  1
 22 23  2  0
 23 24  1  0
 25 24  2  0
 26 25  1  0
 27 26  2  0
 27 22  1  0
 28 20  1  0
 28 30  1  0
 29 28  2  0
M  END
$$$$
