SYF.pdb
     RDKit          3D

 30 31  0  0  1  0  0  0  0  0999 V2000
    8.1086  -19.4036   22.9132 O   0  0  0  0  0  0  0  0  0  0  0  0
    8.5812  -19.6567   21.6361 C   0  0  0  0  0  0  0  0  0  0  0  0
    8.5157  -18.4462   20.7329 C   0  0  2  0  0  0  0  0  0  0  0  0
    9.1406  -18.8000   19.4743 N   0  0  0  0  0  0  0  0  0  0  0  0
    9.1953  -17.2768   21.2950 C   0  0  0  0  0  0  0  0  0  0  0  0
   10.4211  -17.0907   21.0863 O   0  0  0  0  0  0  0  0  0  0  0  0
    7.8267  -13.1241   16.7752 O   0  0  0  0  0  0  0  0  0  0  0  0
    7.9498  -13.3247   18.1624 C   0  0  0  0  0  0  0  0  0  0  0  0
    9.2077  -13.4537   18.7110 C   0  0  0  0  0  0  0  0  0  0  0  0
    9.3615  -13.6513   20.0676 C   0  0  0  0  0  0  0  0  0  0  0  0
    8.2837  -13.7266   20.9145 C   0  0  0  0  0  0  0  0  0  0  0  0
    8.4335  -13.9398   22.3540 C   0  0  0  0  0  0  0  0  0  0  0  0
    9.2505  -15.1459   22.6647 C   0  0  2  0  0  0  0  0  0  0  0  0
    8.5456  -16.2915   22.0945 N   0  0  0  0  0  0  0  0  0  0  0  0
    9.4940  -15.3113   24.0980 C   0  0  0  0  0  0  0  0  0  0  0  0
   10.2786  -14.6345   24.7817 O   0  0  0  0  0  0  0  0  0  0  0  0
    7.0182  -13.5936   20.3403 C   0  0  0  0  0  0  0  0  0  0  0  0
    6.8553  -13.3964   18.9889 C   0  0  0  0  0  0  0  0  0  0  0  0
    8.7722  -16.3377   24.7817 N   0  0  0  0  0  0  0  0  0  0  0  0
    8.8637  -16.4729   26.2328 C   0  0  1  0  0  0  0  0  0  0  0  0
    7.5755  -16.1977   26.9084 C   0  0  0  0  0  0  0  0  0  0  0  0
    7.2502  -14.7619   26.8707 C   0  0  0  0  0  0  0  0  0  0  0  0
    7.9981  -13.7951   27.4775 C   0  0  0  0  0  0  0  0  0  0  0  0
    7.6302  -12.4762   27.3869 C   0  0  0  0  0  0  0  0  0  0  0  0
    6.5146  -12.0674   26.6966 C   0  0  0  0  0  0  0  0  0  0  0  0
    5.7477  -13.0214   26.0792 C   0  0  0  0  0  0  0  0  0  0  0  0
    6.1140  -14.3365   26.1689 C   0  0  0  0  0  0  0  0  0  0  0  0
    9.2993  -17.8404   26.5094 C   0  0  0  0  0  0  0  0  0  0  0  0
    9.4396  -18.6609   25.5866 O   0  0  0  0  0  0  0  0  0  0  0  0
    9.5609  -18.2383   27.8023 O   0  0  0  0  0  0  0  0  0  0  0  0
  1  2  1  0
  2  3  1  0
  3  5  1  0
  3  4  1  6
  5 14  1  0
  6  5  2  0
  8  7  1  0
  9  8  2  0
 10  9  1  0
 11 10  2  0
 11 17  1  0
 12 11  1  0
 13 12  1  1
 14 13  1  0
 15 13  1  0
 16 15  2  0
 17 18  2  0
 18  8  1  0
 19 15  1  0
 20 19  1  0
 21 22  1  0
 20 21  1  1
 22 23  2  0
 23 24  1  0
 25 24  2  0
 26 25  1  0
 27 26  2  0
 27 22  1  0
 28 20  1  0
 28 30  1  0
 29 28  2  0
M  END
$$$$
