SYF.pdb
     RDKit          3D

 30 31  0  0  1  0  0  0  0  0999 V2000
   11.1799  -16.4551   19.5279 O   0  0  0  0  0  0  0  0  0  0  0  0
   12.3179  -17.2444   19.5485 C   0  0  0  0  0  0  0  0  0  0  0  0
   12.1683  -18.4713   20.4189 C   0  0  2  0  0  0  0  0  0  0  0  0
   11.3549  -19.4287   19.6967 N   0  0  0  0  0  0  0  0  0  0  0  0
   11.5388  -18.1827   21.7096 C   0  0  0  0  0  0  0  0  0  0  0  0
   10.3121  -18.3978   21.8825 O   0  0  0  0  0  0  0  0  0  0  0  0
   10.5713  -16.5025   30.3504 O   0  0  0  0  0  0  0  0  0  0  0  0
   11.0882  -16.6574   29.0509 C   0  0  0  0  0  0  0  0  0  0  0  0
   11.2842  -17.9288   28.5558 C   0  0  0  0  0  0  0  0  0  0  0  0
   11.7895  -18.1138   27.2856 C   0  0  0  0  0  0  0  0  0  0  0  0
   12.1132  -17.0547   26.4744 C   0  0  0  0  0  0  0  0  0  0  0  0
   12.6534  -17.2379   25.1272 C   0  0  0  0  0  0  0  0  0  0  0  0
   11.5820  -17.3360   24.0972 C   0  0  2  0  0  0  0  0  0  0  0  0
   12.2402  -17.6542   22.8324 N   0  0  0  0  0  0  0  0  0  0  0  0
   10.7740  -16.1198   24.0028 C   0  0  0  0  0  0  0  0  0  0  0  0
   11.1443  -15.0408   23.5132 O   0  0  0  0  0  0  0  0  0  0  0  0
   11.9076  -15.7752   26.9934 C   0  0  0  0  0  0  0  0  0  0  0  0
   11.4043  -15.5812   28.2586 C   0  0  0  0  0  0  0  0  0  0  0  0
    9.4407  -16.1650   24.5153 N   0  0  0  0  0  0  0  0  0  0  0  0
    8.7973  -14.9577   25.0262 C   0  0  1  0  0  0  0  0  0  0  0  0
    7.5054  -14.6801   24.3587 C   0  0  0  0  0  0  0  0  0  0  0  0
    6.8826  -13.4566   24.8913 C   0  0  0  0  0  0  0  0  0  0  0  0
    7.2373  -12.1944   24.5130 C   0  0  0  0  0  0  0  0  0  0  0  0
    6.6000  -11.1050   25.0518 C   0  0  0  0  0  0  0  0  0  0  0  0
    5.5938  -11.2238   25.9800 C   0  0  0  0  0  0  0  0  0  0  0  0
    5.2207  -12.4824   26.3754 C   0  0  0  0  0  0  0  0  0  0  0  0
    5.8556  -13.5688   25.8385 C   0  0  0  0  0  0  0  0  0  0  0  0
    8.5953  -15.1536   26.4604 C   0  0  0  0  0  0  0  0  0  0  0  0
    8.7738  -14.2192   27.2601 O   0  0  0  0  0  0  0  0  0  0  0  0
    8.2026  -16.3819   26.9455 O   0  0  0  0  0  0  0  0  0  0  0  0
  1  2  1  0
  2  3  1  0
  3  5  1  0
  3  4  1  6
  5 14  1  0
  6  5  2  0
  8  7  1  0
  9  8  2  0
 10  9  1  0
 11 10  2  0
 11 17  1  0
 12 11  1  0
 13 12  1  1
 14 13  1  0
 15 13  1  0
 16 15  2  0
 17 18  2  0
 18  8  1  0
 19 15  1  0
 20 19  1  0
 21 22  1  0
 20 21  1  6
 22 23  2  0
 23 24  1  0
 25 24  2  0
 26 25  1  0
 27 26  2  0
 27 22  1  0
 28 20  1  0
 28 30  1  0
 29 28  2  0
M  END
$$$$
