SYF.pdb
     RDKit          3D

 30 31  0  0  1  0  0  0  0  0999 V2000
    6.7499  -19.1226   23.2194 O   0  0  0  0  0  0  0  0  0  0  0  0
    7.0059  -19.5403   21.9239 C   0  0  0  0  0  0  0  0  0  0  0  0
    7.1766  -18.3908   20.9570 C   0  0  2  0  0  0  0  0  0  0  0  0
    7.5877  -18.9434   19.6821 N   0  0  0  0  0  0  0  0  0  0  0  0
    8.1735  -17.4140   21.4012 C   0  0  0  0  0  0  0  0  0  0  0  0
    9.3908  -17.5792   21.1336 O   0  0  0  0  0  0  0  0  0  0  0  0
    7.9443  -13.2724   16.5562 O   0  0  0  0  0  0  0  0  0  0  0  0
    8.0153  -13.4378   17.9517 C   0  0  0  0  0  0  0  0  0  0  0  0
    9.2327  -13.2928   18.5818 C   0  0  0  0  0  0  0  0  0  0  0  0
    9.3351  -13.4488   19.9486 C   0  0  0  0  0  0  0  0  0  0  0  0
    8.2446  -13.7505   20.7259 C   0  0  0  0  0  0  0  0  0  0  0  0
    8.3410  -13.9223   22.1756 C   0  0  0  0  0  0  0  0  0  0  0  0
    8.8644  -15.2650   22.5520 C   0  0  2  0  0  0  0  0  0  0  0  0
    7.8557  -16.2404   22.1454 N   0  0  0  0  0  0  0  0  0  0  0  0
    9.1840  -15.3695   23.9760 C   0  0  0  0  0  0  0  0  0  0  0  0
   10.1612  -14.8502   24.5386 O   0  0  0  0  0  0  0  0  0  0  0  0
    7.0207  -13.8933   20.0699 C   0  0  0  0  0  0  0  0  0  0  0  0
    6.9092  -13.7395   18.7076 C   0  0  0  0  0  0  0  0  0  0  0  0
    8.3024  -16.1332   24.8018 N   0  0  0  0  0  0  0  0  0  0  0  0
    8.4787  -16.1641   26.2510 C   0  0  1  0  0  0  0  0  0  0  0  0
    7.2418  -15.8002   26.9786 C   0  0  0  0  0  0  0  0  0  0  0  0
    7.0131  -14.3458   26.9465 C   0  0  0  0  0  0  0  0  0  0  0  0
    5.8634  -13.7651   26.4955 C   0  0  0  0  0  0  0  0  0  0  0  0
    5.7263  -12.3998   26.5073 C   0  0  0  0  0  0  0  0  0  0  0  0
    6.7165  -11.5631   26.9631 C   0  0  0  0  0  0  0  0  0  0  0  0
    7.8806  -12.1241   27.4207 C   0  0  0  0  0  0  0  0  0  0  0  0
    8.0179  -13.4853   27.4094 C   0  0  0  0  0  0  0  0  0  0  0  0
    8.8940  -17.5203   26.6037 C   0  0  0  0  0  0  0  0  0  0  0  0
    9.1411  -17.8220   27.7837 O   0  0  0  0  0  0  0  0  0  0  0  0
    9.0171  -18.4852   25.6280 O   0  0  0  0  0  0  0  0  0  0  0  0
  1  2  1  0
  2  3  1  0
  3  5  1  0
  3  4  1  6
  5 14  1  0
  6  5  2  0
  8  7  1  0
  9  8  2  0
 10  9  1  0
 11 10  2  0
 11 17  1  0
 12 11  1  0
 13 12  1  1
 14 13  1  0
 15 13  1  0
 16 15  2  0
 17 18  2  0
 18  8  1  0
 19 15  1  0
 20 19  1  0
 21 22  1  0
 20 21  1  1
 22 23  2  0
 23 24  1  0
 25 24  2  0
 26 25  1  0
 27 26  2  0
 27 22  1  0
 28 20  1  0
 28 30  1  0
 29 28  2  0
M  END
$$$$
