SYF.pdb
     RDKit          3D

 30 31  0  0  1  0  0  0  0  0999 V2000
    5.6153  -17.7670   24.0511 O   0  0  0  0  0  0  0  0  0  0  0  0
    5.6082  -18.3643   22.8014 C   0  0  0  0  0  0  0  0  0  0  0  0
    6.2454  -17.5044   21.7337 C   0  0  2  0  0  0  0  0  0  0  0  0
    6.2372  -18.2584   20.4963 N   0  0  0  0  0  0  0  0  0  0  0  0
    7.6226  -17.1224   22.0546 C   0  0  0  0  0  0  0  0  0  0  0  0
    8.5571  -17.9564   21.9453 O   0  0  0  0  0  0  0  0  0  0  0  0
    7.0099  -13.5740   17.4353 O   0  0  0  0  0  0  0  0  0  0  0  0
    7.7451  -13.8108   18.6114 C   0  0  0  0  0  0  0  0  0  0  0  0
    7.4174  -13.1172   19.7566 C   0  0  0  0  0  0  0  0  0  0  0  0
    8.1193  -13.3270   20.9256 C   0  0  0  0  0  0  0  0  0  0  0  0
    9.1578  -14.2221   20.9951 C   0  0  0  0  0  0  0  0  0  0  0  0
    9.9122  -14.4505   22.2276 C   0  0  0  0  0  0  0  0  0  0  0  0
    9.3171  -15.5310   23.0624 C   0  0  2  0  0  0  0  0  0  0  0  0
    8.0005  -15.8222   22.5002 N   0  0  0  0  0  0  0  0  0  0  0  0
    9.2404  -15.1747   24.4795 C   0  0  0  0  0  0  0  0  0  0  0  0
    9.5265  -14.0682   24.9642 O   0  0  0  0  0  0  0  0  0  0  0  0
    9.4746  -14.9148   19.8253 C   0  0  0  0  0  0  0  0  0  0  0  0
    8.7803  -14.7122   18.6553 C   0  0  0  0  0  0  0  0  0  0  0  0
    8.7992  -16.1791   25.3954 N   0  0  0  0  0  0  0  0  0  0  0  0
    9.2955  -16.2052   26.7685 C   0  0  1  0  0  0  0  0  0  0  0  0
    8.3067  -15.6799   27.7369 C   0  0  0  0  0  0  0  0  0  0  0  0
    7.6101  -14.4990   27.1995 C   0  0  0  0  0  0  0  0  0  0  0  0
    6.6324  -14.5581   26.2493 C   0  0  0  0  0  0  0  0  0  0  0  0
    6.0256  -13.4093   25.8076 C   0  0  0  0  0  0  0  0  0  0  0  0
    6.3623  -12.1662   26.2870 C   0  0  0  0  0  0  0  0  0  0  0  0
    7.3422  -12.0824   27.2420 C   0  0  0  0  0  0  0  0  0  0  0  0
    7.9474  -13.2274   27.6829 C   0  0  0  0  0  0  0  0  0  0  0  0
    9.6214  -17.5955   27.0803 C   0  0  0  0  0  0  0  0  0  0  0  0
    9.4266  -18.4957   26.2459 O   0  0  0  0  0  0  0  0  0  0  0  0
   10.1511  -17.9265   28.3084 O   0  0  0  0  0  0  0  0  0  0  0  0
  1  2  1  0
  2  3  1  0
  3  5  1  0
  3  4  1  6
  5 14  1  0
  6  5  2  0
  8  7  1  0
  9  8  2  0
 10  9  1  0
 11 10  2  0
 11 17  1  0
 12 11  1  0
 13 12  1  6
 14 13  1  0
 15 13  1  0
 16 15  2  0
 17 18  2  0
 18  8  1  0
 19 15  1  0
 20 19  1  0
 21 22  1  0
 20 21  1  1
 22 23  2  0
 23 24  1  0
 25 24  2  0
 26 25  1  0
 27 26  2  0
 27 22  1  0
 28 20  1  0
 28 30  1  0
 29 28  2  0
M  END
$$$$
