SYF.pdb
     RDKit          3D

 30 31  0  0  1  0  0  0  0  0999 V2000
    9.0104  -19.3579   23.0775 O   0  0  0  0  0  0  0  0  0  0  0  0
    8.0918  -19.3599   22.0409 C   0  0  0  0  0  0  0  0  0  0  0  0
    8.4076  -18.3389   20.9717 C   0  0  2  0  0  0  0  0  0  0  0  0
    9.4213  -18.9059   20.1052 N   0  0  0  0  0  0  0  0  0  0  0  0
    8.8975  -17.0716   21.5190 C   0  0  0  0  0  0  0  0  0  0  0  0
   10.1185  -16.7789   21.4539 O   0  0  0  0  0  0  0  0  0  0  0  0
    7.6035  -13.4302   16.4500 O   0  0  0  0  0  0  0  0  0  0  0  0
    7.6263  -13.4979   17.8553 C   0  0  0  0  0  0  0  0  0  0  0  0
    6.7721  -14.3687   18.4973 C   0  0  0  0  0  0  0  0  0  0  0  0
    6.7705  -14.4583   19.8739 C   0  0  0  0  0  0  0  0  0  0  0  0
    7.6072  -13.6949   20.6495 C   0  0  0  0  0  0  0  0  0  0  0  0
    7.6121  -13.7779   22.1101 C   0  0  0  0  0  0  0  0  0  0  0  0
    8.5581  -14.8121   22.6142 C   0  0  2  0  0  0  0  0  0  0  0  0
    8.0602  -16.1035   22.1466 N   0  0  0  0  0  0  0  0  0  0  0  0
    8.7111  -14.7788   24.0690 C   0  0  0  0  0  0  0  0  0  0  0  0
    8.6740  -13.7602   24.7777 O   0  0  0  0  0  0  0  0  0  0  0  0
    8.4648  -12.8193   19.9812 C   0  0  0  0  0  0  0  0  0  0  0  0
    8.4734  -12.7233   18.6092 C   0  0  0  0  0  0  0  0  0  0  0  0
    8.9221  -16.0203   24.7447 N   0  0  0  0  0  0  0  0  0  0  0  0
    8.9119  -16.0859   26.2034 C   0  0  1  0  0  0  0  0  0  0  0  0
    7.5687  -15.8312   26.7712 C   0  0  0  0  0  0  0  0  0  0  0  0
    7.2874  -14.3878   26.8477 C   0  0  0  0  0  0  0  0  0  0  0  0
    6.1399  -13.8098   26.3879 C   0  0  0  0  0  0  0  0  0  0  0  0
    5.9513  -12.4556   26.5053 C   0  0  0  0  0  0  0  0  0  0  0  0
    6.8863  -11.6278   27.0787 C   0  0  0  0  0  0  0  0  0  0  0  0
    8.0472  -12.1863   27.5475 C   0  0  0  0  0  0  0  0  0  0  0  0
    8.2358  -13.5363   27.4308 C   0  0  0  0  0  0  0  0  0  0  0  0
    9.3750  -17.4212   26.5758 C   0  0  0  0  0  0  0  0  0  0  0  0
    9.5206  -17.7325   27.7701 O   0  0  0  0  0  0  0  0  0  0  0  0
    9.6569  -18.3554   25.6031 O   0  0  0  0  0  0  0  0  0  0  0  0
  1  2  1  0
  2  3  1  0
  3  5  1  0
  3  4  1  6
  5 14  1  0
  6  5  2  0
  8  7  1  0
  9  8  2  0
 10  9  1  0
 11 10  2  0
 11 17  1  0
 12 11  1  0
 13 12  1  1
 14 13  1  0
 15 13  1  0
 16 15  2  0
 17 18  2  0
 18  8  1  0
 19 15  1  0
 20 19  1  0
 21 22  1  0
 20 21  1  6
 22 23  2  0
 23 24  1  0
 25 24  2  0
 26 25  1  0
 27 26  2  0
 27 22  1  0
 28 20  1  0
 28 30  1  0
 29 28  2  0
M  END
$$$$
