SYF.pdb
     RDKit          3D

 30 31  0  0  1  0  0  0  0  0999 V2000
    6.4690  -19.1213   23.1931 O   0  0  0  0  0  0  0  0  0  0  0  0
    5.7623  -18.1256   22.5391 C   0  0  0  0  0  0  0  0  0  0  0  0
    6.2968  -17.8356   21.1551 C   0  0  2  0  0  0  0  0  0  0  0  0
    6.1932  -19.0539   20.3773 N   0  0  0  0  0  0  0  0  0  0  0  0
    7.6915  -17.3881   21.1636 C   0  0  0  0  0  0  0  0  0  0  0  0
    8.6166  -18.1794   20.8492 O   0  0  0  0  0  0  0  0  0  0  0  0
    7.6413  -13.8491   15.7182 O   0  0  0  0  0  0  0  0  0  0  0  0
    8.1359  -13.9668   17.0302 C   0  0  0  0  0  0  0  0  0  0  0  0
    7.4488  -13.3627   18.0612 C   0  0  0  0  0  0  0  0  0  0  0  0
    7.9080  -13.4598   19.3584 C   0  0  0  0  0  0  0  0  0  0  0  0
    9.0516  -14.1518   19.6711 C   0  0  0  0  0  0  0  0  0  0  0  0
    9.5509  -14.2586   21.0421 C   0  0  0  0  0  0  0  0  0  0  0  0
    9.4987  -15.6559   21.5553 C   0  0  2  0  0  0  0  0  0  0  0  0
    8.0976  -16.0679   21.5160 N   0  0  0  0  0  0  0  0  0  0  0  0
   10.0708  -15.7888   22.8954 C   0  0  0  0  0  0  0  0  0  0  0  0
   11.2444  -15.5344   23.2100 O   0  0  0  0  0  0  0  0  0  0  0  0
    9.7335  -14.7566   18.6137 C   0  0  0  0  0  0  0  0  0  0  0  0
    9.2830  -14.6651   17.3174 C   0  0  0  0  0  0  0  0  0  0  0  0
    9.2142  -16.2508   23.9420 N   0  0  0  0  0  0  0  0  0  0  0  0
    8.9050  -15.3952   25.0842 C   0  0  1  0  0  0  0  0  0  0  0  0
    7.7593  -14.4950   24.8223 C   0  0  0  0  0  0  0  0  0  0  0  0
    7.4610  -13.6569   25.9958 C   0  0  0  0  0  0  0  0  0  0  0  0
    8.3880  -13.2967   26.9302 C   0  0  0  0  0  0  0  0  0  0  0  0
    8.0297  -12.5042   27.9917 C   0  0  0  0  0  0  0  0  0  0  0  0
    6.7476  -12.0416   28.1669 C   0  0  0  0  0  0  0  0  0  0  0  0
    5.7993  -12.3910   27.2406 C   0  0  0  0  0  0  0  0  0  0  0  0
    6.1559  -13.1809   26.1821 C   0  0  0  0  0  0  0  0  0  0  0  0
    8.6101  -16.2762   26.2125 C   0  0  0  0  0  0  0  0  0  0  0  0
    7.9721  -17.3295   26.0456 O   0  0  0  0  0  0  0  0  0  0  0  0
    9.0378  -15.9483   27.4805 O   0  0  0  0  0  0  0  0  0  0  0  0
  1  2  1  0
  2  3  1  0
  3  5  1  0
  3  4  1  6
  5 14  1  0
  6  5  2  0
  8  7  1  0
  9  8  2  0
 10  9  1  0
 11 10  2  0
 11 17  1  0
 12 11  1  0
 13 12  1  1
 14 13  1  0
 15 13  1  0
 16 15  2  0
 17 18  2  0
 18  8  1  0
 19 15  1  0
 20 19  1  0
 21 22  1  0
 20 21  1  6
 22 23  2  0
 23 24  1  0
 25 24  2  0
 26 25  1  0
 27 26  2  0
 27 22  1  0
 28 20  1  0
 28 30  1  0
 29 28  2  0
M  END
$$$$
