SYF.pdb
     RDKit          3D

 30 31  0  0  1  0  0  0  0  0999 V2000
   10.8125  -16.7747   18.6386 O   0  0  0  0  0  0  0  0  0  0  0  0
   10.5732  -15.5192   18.1050 C   0  0  0  0  0  0  0  0  0  0  0  0
    9.2155  -14.9692   18.4783 C   0  0  2  0  0  0  0  0  0  0  0  0
    9.0768  -13.6710   17.8498 N   0  0  0  0  0  0  0  0  0  0  0  0
    9.0359  -14.8245   19.9248 C   0  0  0  0  0  0  0  0  0  0  0  0
    9.5577  -13.8590   20.5382 O   0  0  0  0  0  0  0  0  0  0  0  0
    2.9727  -19.2291   21.4785 O   0  0  0  0  0  0  0  0  0  0  0  0
    3.9229  -18.2291   21.7562 C   0  0  0  0  0  0  0  0  0  0  0  0
    4.3844  -17.4395   20.7250 C   0  0  0  0  0  0  0  0  0  0  0  0
    5.3159  -16.4508   20.9649 C   0  0  0  0  0  0  0  0  0  0  0  0
    5.8143  -16.2162   22.2224 C   0  0  0  0  0  0  0  0  0  0  0  0
    6.8053  -15.1735   22.4889 C   0  0  0  0  0  0  0  0  0  0  0  0
    8.1921  -15.6191   22.1779 C   0  0  2  0  0  0  0  0  0  0  0  0
    8.2828  -15.7332   20.7243 N   0  0  0  0  0  0  0  0  0  0  0  0
    8.5490  -16.8697   22.8483 C   0  0  0  0  0  0  0  0  0  0  0  0
    9.3264  -17.7312   22.4073 O   0  0  0  0  0  0  0  0  0  0  0  0
    5.3349  -17.0259   23.2535 C   0  0  0  0  0  0  0  0  0  0  0  0
    4.4061  -18.0140   23.0236 C   0  0  0  0  0  0  0  0  0  0  0  0
    7.9578  -17.1342   24.1223 N   0  0  0  0  0  0  0  0  0  0  0  0
    8.6267  -16.7240   25.3538 C   0  0  1  0  0  0  0  0  0  0  0  0
    8.7635  -15.2538   25.4599 C   0  0  0  0  0  0  0  0  0  0  0  0
    9.3304  -14.8640   26.7620 C   0  0  0  0  0  0  0  0  0  0  0  0
   10.5849  -15.2026   27.1789 C   0  0  0  0  0  0  0  0  0  0  0  0
   11.0416  -14.7911   28.4058 C   0  0  0  0  0  0  0  0  0  0  0  0
   10.2778  -14.0338   29.2610 C   0  0  0  0  0  0  0  0  0  0  0  0
    9.0138  -13.6820   28.8634 C   0  0  0  0  0  0  0  0  0  0  0  0
    8.5580  -14.0917   27.6403 C   0  0  0  0  0  0  0  0  0  0  0  0
    7.8319  -17.2410   26.4661 C   0  0  0  0  0  0  0  0  0  0  0  0
    8.3831  -17.6895   27.4857 O   0  0  0  0  0  0  0  0  0  0  0  0
    6.4558  -17.2371   26.3977 O   0  0  0  0  0  0  0  0  0  0  0  0
  1  2  1  0
  2  3  1  0
  3  5  1  0
  3  4  1  6
  5 14  1  0
  6  5  2  0
  8  7  1  0
  9  8  2  0
 10  9  1  0
 11 10  2  0
 11 17  1  0
 12 11  1  0
 13 12  1  6
 14 13  1  0
 15 13  1  0
 16 15  2  0
 17 18  2  0
 18  8  1  0
 19 15  1  0
 20 19  1  0
 21 22  1  0
 20 21  1  1
 22 23  2  0
 23 24  1  0
 25 24  2  0
 26 25  1  0
 27 26  2  0
 27 22  1  0
 28 20  1  0
 28 30  1  0
 29 28  2  0
M  END
$$$$
