SYF.pdb
     RDKit          3D

 30 31  0  0  1  0  0  0  0  0999 V2000
    8.8632  -19.4218   22.9596 O   0  0  0  0  0  0  0  0  0  0  0  0
    9.4102  -19.5894   21.6982 C   0  0  0  0  0  0  0  0  0  0  0  0
    9.0574  -18.4671   20.7490 C   0  0  2  0  0  0  0  0  0  0  0  0
    9.7298  -18.7244   19.4915 N   0  0  0  0  0  0  0  0  0  0  0  0
    9.4588  -17.1497   21.2479 C   0  0  0  0  0  0  0  0  0  0  0  0
   10.6180  -16.7130   21.0329 O   0  0  0  0  0  0  0  0  0  0  0  0
    7.4889  -13.4014   16.5053 O   0  0  0  0  0  0  0  0  0  0  0  0
    7.5879  -13.5716   17.8986 C   0  0  0  0  0  0  0  0  0  0  0  0
    8.4657  -12.7808   18.6087 C   0  0  0  0  0  0  0  0  0  0  0  0
    8.5857  -12.9235   19.9755 C   0  0  0  0  0  0  0  0  0  0  0  0
    7.8468  -13.8455   20.6743 C   0  0  0  0  0  0  0  0  0  0  0  0
    7.9679  -14.0091   22.1230 C   0  0  0  0  0  0  0  0  0  0  0  0
    9.0288  -14.9862   22.4946 C   0  0  2  0  0  0  0  0  0  0  0  0
    8.5991  -16.2882   21.9900 N   0  0  0  0  0  0  0  0  0  0  0  0
    9.2919  -15.0168   23.9337 C   0  0  0  0  0  0  0  0  0  0  0  0
    9.8953  -14.1439   24.5779 O   0  0  0  0  0  0  0  0  0  0  0  0
    6.9635  -14.6368   19.9378 C   0  0  0  0  0  0  0  0  0  0  0  0
    6.8371  -14.5015   18.5749 C   0  0  0  0  0  0  0  0  0  0  0  0
    8.8181  -16.1442   24.6732 N   0  0  0  0  0  0  0  0  0  0  0  0
    9.0007  -16.2164   26.1201 C   0  0  1  0  0  0  0  0  0  0  0  0
    7.7774  -15.8390   26.8637 C   0  0  0  0  0  0  0  0  0  0  0  0
    7.5269  -14.3905   26.7772 C   0  0  0  0  0  0  0  0  0  0  0  0
    8.4116  -13.4381   27.1926 C   0  0  0  0  0  0  0  0  0  0  0  0
    8.1045  -12.1064   27.0686 C   0  0  0  0  0  0  0  0  0  0  0  0
    6.9169  -11.6703   26.5322 C   0  0  0  0  0  0  0  0  0  0  0  0
    6.0125  -12.6093   26.1084 C   0  0  0  0  0  0  0  0  0  0  0  0
    6.3181  -13.9371   26.2316 C   0  0  0  0  0  0  0  0  0  0  0  0
    9.3822  -17.5915   26.4361 C   0  0  0  0  0  0  0  0  0  0  0  0
    9.4612  -18.4500   25.5410 O   0  0  0  0  0  0  0  0  0  0  0  0
    9.6602  -17.9544   27.7358 O   0  0  0  0  0  0  0  0  0  0  0  0
  1  2  1  0
  2  3  1  0
  3  5  1  0
  3  4  1  6
  5 14  1  0
  6  5  2  0
  8  7  1  0
  9  8  2  0
 10  9  1  0
 11 10  2  0
 11 17  1  0
 12 11  1  0
 13 12  1  1
 14 13  1  0
 15 13  1  0
 16 15  2  0
 17 18  2  0
 18  8  1  0
 19 15  1  0
 20 19  1  0
 21 22  1  0
 20 21  1  1
 22 23  2  0
 23 24  1  0
 25 24  2  0
 26 25  1  0
 27 26  2  0
 27 22  1  0
 28 20  1  0
 28 30  1  0
 29 28  2  0
M  END
$$$$
