LDG.pdb
     RDKit          3D

 21 20  0  0  1  0  0  0  0  0999 V2000
    6.3133  -12.4242   24.2432 C   0  0  0  0  0  0  0  0  0  0  0  0
    6.2869  -12.9039   25.6727 C   0  0  2  0  0  0  0  0  0  0  0  0
    6.5737  -11.7240   26.5607 C   0  0  0  0  0  0  0  0  0  0  0  0
    7.2985  -13.9834   25.9336 C   0  0  0  0  0  0  0  0  0  0  0  0
    7.0583  -15.1955   25.0971 C   0  0  2  0  0  0  0  0  0  0  0  0
    5.8216  -15.8167   25.4260 N   0  0  0  0  0  0  0  0  0  0  0  0
    8.1982  -16.1676   25.2635 C   0  0  0  0  0  0  0  0  0  0  0  0
    8.0699  -16.9824   26.1882 O   0  0  0  0  0  0  0  0  0  0  0  0
    9.2988  -16.1066   24.4031 N   0  0  0  0  0  0  0  0  0  0  0  0
   10.4279  -16.9656   24.4187 C   0  0  1  0  0  0  0  0  0  0  0  0
   11.3801  -16.7144   23.2812 C   0  0  0  0  0  0  0  0  0  0  0  0
   10.8073  -17.1043   21.9904 C   0  0  0  0  0  0  0  0  0  0  0  0
   11.2820  -16.5799   20.9399 O   0  0  0  0  0  0  0  0  0  0  0  0
   11.0497  -16.9871   25.7391 C   0  0  0  0  0  0  0  0  0  0  0  0
   11.6288  -15.9255   26.1520 O   0  0  0  0  0  0  0  0  0  0  0  0
    9.7688  -18.0226   21.8372 O   0  0  0  0  0  0  0  0  0  0  0  0
   11.0564  -18.1140   26.6034 N   0  0  0  0  0  0  0  0  0  0  0  0
   11.6693  -17.9941   27.8944 C   0  0  0  0  0  0  0  0  0  0  0  0
   11.5157  -19.2550   28.6603 C   0  0  0  0  0  0  0  0  0  0  0  0
   10.9635  -20.2677   28.1887 O   0  0  0  0  0  0  0  0  0  0  0  0
   12.0018  -19.3210   29.9545 O   0  0  0  0  0  0  0  0  0  0  0  0
  2  3  1  1
  2  1  1  0
  4  2  1  0
  5  4  1  0
  5  6  1  1
  7  5  1  0
  7  9  1  0
  8  7  2  0
 10 14  1  0
 10  9  1  0
 10 11  1  6
 12 11  1  0
 12 16  1  0
 13 12  2  0
 14 17  1  0
 15 14  2  0
 17 18  1  0
 19 18  1  0
 20 19  2  0
 21 19  1  0
M  END
$$$$
