LDG.pdb
     RDKit          3D

 21 20  0  0  1  0  0  0  0  0999 V2000
    9.1887  -12.6357   19.5098 C   0  0  0  0  0  0  0  0  0  0  0  0
    7.9128  -13.4352   19.5942 C   0  0  2  0  0  0  0  0  0  0  0  0
    6.8095  -12.6083   18.9927 C   0  0  0  0  0  0  0  0  0  0  0  0
    7.5543  -13.7945   21.0082 C   0  0  0  0  0  0  0  0  0  0  0  0
    8.5894  -14.6556   21.6511 C   0  0  2  0  0  0  0  0  0  0  0  0
    8.9041  -15.7819   20.8412 N   0  0  0  0  0  0  0  0  0  0  0  0
    8.1146  -15.0996   23.0112 C   0  0  0  0  0  0  0  0  0  0  0  0
    7.7327  -14.1912   23.7624 O   0  0  0  0  0  0  0  0  0  0  0  0
    8.1270  -16.4573   23.3458 N   0  0  0  0  0  0  0  0  0  0  0  0
    7.8105  -17.0150   24.6115 C   0  0  1  0  0  0  0  0  0  0  0  0
    7.0294  -18.2973   24.5160 C   0  0  0  0  0  0  0  0  0  0  0  0
    6.0325  -18.2535   23.4433 C   0  0  0  0  0  0  0  0  0  0  0  0
    5.0297  -17.4934   23.5862 O   0  0  0  0  0  0  0  0  0  0  0  0
    8.9947  -17.0858   25.4619 C   0  0  0  0  0  0  0  0  0  0  0  0
    8.8660  -17.5674   26.6385 O   0  0  0  0  0  0  0  0  0  0  0  0
    6.1137  -18.9951   22.2648 O   0  0  0  0  0  0  0  0  0  0  0  0
   10.2894  -16.6533   25.0702 N   0  0  0  0  0  0  0  0  0  0  0  0
   11.3461  -16.6614   26.0399 C   0  0  0  0  0  0  0  0  0  0  0  0
   12.2700  -17.7946   25.7904 C   0  0  0  0  0  0  0  0  0  0  0  0
   12.0801  -18.6338   24.8890 O   0  0  0  0  0  0  0  0  0  0  0  0
   13.3934  -17.9363   26.5864 O   0  0  0  0  0  0  0  0  0  0  0  0
  2  3  1  1
  2  1  1  0
  4  2  1  0
  5  4  1  0
  5  6  1  6
  7  5  1  0
  7  9  1  0
  8  7  2  0
 10 14  1  0
 10  9  1  0
 10 11  1  6
 12 11  1  0
 12 16  1  0
 13 12  2  0
 14 17  1  0
 15 14  2  0
 17 18  1  0
 19 18  1  0
 20 19  2  0
 21 19  1  0
M  END
$$$$
