LDG.pdb
     RDKit          3D

 21 20  0  0  1  0  0  0  0  0999 V2000
    7.5541  -12.0088   27.1807 C   0  0  0  0  0  0  0  0  0  0  0  0
    6.9168  -12.4476   25.8863 C   0  0  2  0  0  0  0  0  0  0  0  0
    5.5139  -11.9053   25.8557 C   0  0  0  0  0  0  0  0  0  0  0  0
    6.8779  -13.9427   25.7448 C   0  0  0  0  0  0  0  0  0  0  0  0
    8.1876  -14.5750   26.0784 C   0  0  2  0  0  0  0  0  0  0  0  0
    9.2637  -13.6599   25.9109 N   0  0  0  0  0  0  0  0  0  0  0  0
    8.3982  -15.7995   25.2248 C   0  0  0  0  0  0  0  0  0  0  0  0
    7.4508  -16.5978   25.1993 O   0  0  0  0  0  0  0  0  0  0  0  0
    9.6010  -15.9688   24.5319 N   0  0  0  0  0  0  0  0  0  0  0  0
    9.9881  -17.1110   23.7845 C   0  0  1  0  0  0  0  0  0  0  0  0
   10.7067  -16.7688   22.5077 C   0  0  0  0  0  0  0  0  0  0  0  0
    9.7797  -16.3593   21.4496 C   0  0  0  0  0  0  0  0  0  0  0  0
    8.5371  -16.4878   21.6572 O   0  0  0  0  0  0  0  0  0  0  0  0
   10.6787  -18.0794   24.6306 C   0  0  0  0  0  0  0  0  0  0  0  0
   10.9755  -19.2168   24.1293 O   0  0  0  0  0  0  0  0  0  0  0  0
   10.1745  -15.8309   20.2207 O   0  0  0  0  0  0  0  0  0  0  0  0
   11.0462  -17.8442   25.9820 N   0  0  0  0  0  0  0  0  0  0  0  0
   11.6913  -18.8928   26.7177 C   0  0  0  0  0  0  0  0  0  0  0  0
   10.8425  -19.3267   27.8541 C   0  0  0  0  0  0  0  0  0  0  0  0
    9.9743  -20.2143   27.7471 O   0  0  0  0  0  0  0  0  0  0  0  0
   11.0127  -18.7273   29.0900 O   0  0  0  0  0  0  0  0  0  0  0  0
  2  3  1  1
  2  1  1  0
  4  2  1  0
  5  4  1  0
  5  6  1  6
  7  5  1  0
  7  9  1  0
  8  7  2  0
 10 14  1  0
 10  9  1  0
 10 11  1  6
 12 11  1  0
 12 16  1  0
 13 12  2  0
 14 17  1  0
 15 14  2  0
 17 18  1  0
 19 18  1  0
 20 19  2  0
 21 19  1  0
M  END
$$$$
