LDG.pdb
     RDKit          3D

 21 20  0  0  1  0  0  0  0  0999 V2000
    9.8601  -12.7313   19.8883 C   0  0  0  0  0  0  0  0  0  0  0  0
    8.4768  -13.0650   19.3891 C   0  0  2  0  0  0  0  0  0  0  0  0
    7.7248  -11.7737   19.2160 C   0  0  0  0  0  0  0  0  0  0  0  0
    7.7258  -13.9577   20.3357 C   0  0  0  0  0  0  0  0  0  0  0  0
    8.3888  -15.2835   20.5064 C   0  0  2  0  0  0  0  0  0  0  0  0
    8.4986  -15.9726   19.2669 N   0  0  0  0  0  0  0  0  0  0  0  0
    7.6252  -16.1137   21.5063 C   0  0  0  0  0  0  0  0  0  0  0  0
    6.5235  -16.5289   21.1201 O   0  0  0  0  0  0  0  0  0  0  0  0
    8.1733  -16.3655   22.7680 N   0  0  0  0  0  0  0  0  0  0  0  0
    7.5640  -17.0979   23.8193 C   0  0  1  0  0  0  0  0  0  0  0  0
    7.8552  -18.5728   23.7611 C   0  0  0  0  0  0  0  0  0  0  0  0
    7.1805  -19.3077   24.8340 C   0  0  0  0  0  0  0  0  0  0  0  0
    5.9147  -19.3458   24.8318 O   0  0  0  0  0  0  0  0  0  0  0  0
    7.8310  -16.4756   25.1124 C   0  0  0  0  0  0  0  0  0  0  0  0
    7.0442  -16.7393   26.0842 O   0  0  0  0  0  0  0  0  0  0  0  0
    7.8415  -19.9760   25.8644 O   0  0  0  0  0  0  0  0  0  0  0  0
    8.9121  -15.5907   25.3678 N   0  0  0  0  0  0  0  0  0  0  0  0
    9.0551  -15.0315   26.6806 C   0  0  0  0  0  0  0  0  0  0  0  0
    9.9867  -15.8502   27.4942 C   0  0  0  0  0  0  0  0  0  0  0  0
   10.4470  -16.9394   27.1009 O   0  0  0  0  0  0  0  0  0  0  0  0
   10.3674  -15.3955   28.7448 O   0  0  0  0  0  0  0  0  0  0  0  0
  2  3  1  1
  2  1  1  0
  4  2  1  0
  5  4  1  0
  5  6  1  6
  7  5  1  0
  7  9  1  0
  8  7  2  0
 10 14  1  0
 10  9  1  0
 10 11  1  1
 12 11  1  0
 12 16  1  0
 13 12  2  0
 14 17  1  0
 15 14  2  0
 17 18  1  0
 19 18  1  0
 20 19  2  0
 21 19  1  0
M  END
$$$$
