LDG.pdb
     RDKit          3D

 21 20  0  0  1  0  0  0  0  0999 V2000
    8.7622  -12.2819   18.7709 C   0  0  0  0  0  0  0  0  0  0  0  0
    8.2246  -13.6740   18.9883 C   0  0  2  0  0  0  0  0  0  0  0  0
    6.7283  -13.5771   19.1093 C   0  0  0  0  0  0  0  0  0  0  0  0
    8.7853  -14.3182   20.2243 C   0  0  0  0  0  0  0  0  0  0  0  0
   10.2761  -14.3765   20.2031 C   0  0  2  0  0  0  0  0  0  0  0  0
   10.7560  -14.9572   18.9964 N   0  0  0  0  0  0  0  0  0  0  0  0
   10.7762  -15.1498   21.3964 C   0  0  0  0  0  0  0  0  0  0  0  0
   10.2593  -14.8452   22.4806 O   0  0  0  0  0  0  0  0  0  0  0  0
   11.7573  -16.1323   21.2303 N   0  0  0  0  0  0  0  0  0  0  0  0
   12.3671  -16.8953   22.2593 C   0  0  1  0  0  0  0  0  0  0  0  0
   12.5435  -18.3451   21.8977 C   0  0  0  0  0  0  0  0  0  0  0  0
   11.2586  -19.0280   21.7272 C   0  0  0  0  0  0  0  0  0  0  0  0
   10.3749  -18.8766   22.6217 O   0  0  0  0  0  0  0  0  0  0  0  0
   13.5752  -16.2393   22.7500 C   0  0  0  0  0  0  0  0  0  0  0  0
   14.1189  -16.6916   23.8142 O   0  0  0  0  0  0  0  0  0  0  0  0
   10.9378  -19.8375   20.6377 O   0  0  0  0  0  0  0  0  0  0  0  0
   14.1928  -15.1249   22.1227 N   0  0  0  0  0  0  0  0  0  0  0  0
   15.3851  -14.5765   22.7011 C   0  0  0  0  0  0  0  0  0  0  0  0
   16.5880  -15.1373   22.0389 C   0  0  0  0  0  0  0  0  0  0  0  0
   16.6087  -16.2739   21.5283 O   0  0  0  0  0  0  0  0  0  0  0  0
   17.7421  -14.3755   21.9802 O   0  0  0  0  0  0  0  0  0  0  0  0
  2  3  1  1
  2  1  1  0
  4  2  1  0
  5  4  1  0
  5  6  1  6
  7  5  1  0
  7  9  1  0
  8  7  2  0
 10 14  1  0
 10  9  1  0
 10 11  1  6
 12 11  1  0
 12 16  1  0
 13 12  2  0
 14 17  1  0
 15 14  2  0
 17 18  1  0
 19 18  1  0
 20 19  2  0
 21 19  1  0
M  END
$$$$
