LDG.pdb
     RDKit          3D

 21 20  0  0  1  0  0  0  0  0999 V2000
    5.8201  -12.2249   27.3699 C   0  0  0  0  0  0  0  0  0  0  0  0
    6.8640  -12.3800   26.2927 C   0  0  2  0  0  0  0  0  0  0  0  0
    7.0716  -11.0338   25.6542 C   0  0  0  0  0  0  0  0  0  0  0  0
    6.4598  -13.3746   25.2419 C   0  0  0  0  0  0  0  0  0  0  0  0
    6.6600  -14.7831   25.6919 C   0  0  2  0  0  0  0  0  0  0  0  0
    7.2862  -14.8366   26.9680 N   0  0  0  0  0  0  0  0  0  0  0  0
    7.4750  -15.5364   24.6718 C   0  0  0  0  0  0  0  0  0  0  0  0
    6.8348  -15.9956   23.7154 O   0  0  0  0  0  0  0  0  0  0  0  0
    8.8556  -15.6749   24.8458 N   0  0  0  0  0  0  0  0  0  0  0  0
    9.7298  -16.4586   24.0492 C   0  0  1  0  0  0  0  0  0  0  0  0
   10.2719  -15.7166   22.8579 C   0  0  0  0  0  0  0  0  0  0  0  0
   10.9929  -16.6034   21.9413 C   0  0  0  0  0  0  0  0  0  0  0  0
   12.2555  -16.5184   21.8925 O   0  0  0  0  0  0  0  0  0  0  0  0
   10.7433  -17.1107   24.8727 C   0  0  0  0  0  0  0  0  0  0  0  0
   11.1931  -16.4807   25.8894 O   0  0  0  0  0  0  0  0  0  0  0  0
   10.3800  -17.5443   21.1140 O   0  0  0  0  0  0  0  0  0  0  0  0
   11.2687  -18.4058   24.6207 N   0  0  0  0  0  0  0  0  0  0  0  0
   12.2534  -18.9408   25.5157 C   0  0  0  0  0  0  0  0  0  0  0  0
   12.6251  -20.3192   25.1135 C   0  0  0  0  0  0  0  0  0  0  0  0
   12.1330  -20.8878   24.1197 O   0  0  0  0  0  0  0  0  0  0  0  0
   13.5562  -21.0132   25.8665 O   0  0  0  0  0  0  0  0  0  0  0  0
  2  3  1  6
  2  1  1  0
  4  2  1  0
  5  4  1  0
  5  6  1  1
  7  5  1  0
  7  9  1  0
  8  7  2  0
 10 14  1  0
 10  9  1  0
 10 11  1  6
 12 11  1  0
 12 16  1  0
 13 12  2  0
 14 17  1  0
 15 14  2  0
 17 18  1  0
 19 18  1  0
 20 19  2  0
 21 19  1  0
M  END
$$$$
