LDG.pdb
     RDKit          3D

 21 20  0  0  1  0  0  0  0  0999 V2000
    7.3520  -12.8570   21.6254 C   0  0  0  0  0  0  0  0  0  0  0  0
    8.4342  -13.4344   20.7480 C   0  0  2  0  0  0  0  0  0  0  0  0
    8.5101  -12.5991   19.4991 C   0  0  0  0  0  0  0  0  0  0  0  0
    8.1681  -14.8655   20.3767 C   0  0  0  0  0  0  0  0  0  0  0  0
    8.0669  -15.7494   21.5746 C   0  0  2  0  0  0  0  0  0  0  0  0
    8.3259  -15.0301   22.7741 N   0  0  0  0  0  0  0  0  0  0  0  0
    9.0200  -16.9093   21.4382 C   0  0  0  0  0  0  0  0  0  0  0  0
    8.5762  -17.8916   20.8269 O   0  0  0  0  0  0  0  0  0  0  0  0
   10.3046  -16.8249   21.9842 N   0  0  0  0  0  0  0  0  0  0  0  0
   11.2797  -17.8553   22.0046 C   0  0  1  0  0  0  0  0  0  0  0  0
   12.6471  -17.3862   21.5876 C   0  0  0  0  0  0  0  0  0  0  0  0
   13.5756  -18.5034   21.3971 C   0  0  0  0  0  0  0  0  0  0  0  0
   13.3793  -19.2877   20.4224 O   0  0  0  0  0  0  0  0  0  0  0  0
   11.2455  -18.5819   23.2701 C   0  0  0  0  0  0  0  0  0  0  0  0
   11.9049  -19.6729   23.3588 O   0  0  0  0  0  0  0  0  0  0  0  0
   14.6712  -18.7632   22.2202 O   0  0  0  0  0  0  0  0  0  0  0  0
   10.5248  -18.1581   24.4181 N   0  0  0  0  0  0  0  0  0  0  0  0
   10.5327  -18.9884   25.5874 C   0  0  0  0  0  0  0  0  0  0  0  0
   11.7178  -18.6894   26.4276 C   0  0  0  0  0  0  0  0  0  0  0  0
   12.6472  -17.9526   26.0452 O   0  0  0  0  0  0  0  0  0  0  0  0
   11.8063  -19.2471   27.6913 O   0  0  0  0  0  0  0  0  0  0  0  0
  2  3  1  6
  2  1  1  0
  4  2  1  0
  5  4  1  0
  5  6  1  1
  7  5  1  0
  7  9  1  0
  8  7  2  0
 10 14  1  0
 10  9  1  0
 10 11  1  1
 12 11  1  0
 12 16  1  0
 13 12  2  0
 14 17  1  0
 15 14  2  0
 17 18  1  0
 19 18  1  0
 20 19  2  0
 21 19  1  0
M  END
$$$$
