LDG.pdb
     RDKit          3D

 21 20  0  0  1  0  0  0  0  0999 V2000
    5.5226  -11.8927   27.0712 C   0  0  0  0  0  0  0  0  0  0  0  0
    6.7476  -11.9976   26.1978 C   0  0  2  0  0  0  0  0  0  0  0  0
    6.9036  -10.6940   25.4634 C   0  0  0  0  0  0  0  0  0  0  0  0
    6.6495  -13.1215   25.2059 C   0  0  0  0  0  0  0  0  0  0  0  0
    7.0254  -14.4359   25.8038 C   0  0  2  0  0  0  0  0  0  0  0  0
    7.8211  -14.2669   26.9708 N   0  0  0  0  0  0  0  0  0  0  0  0
    7.7546  -15.2733   24.7844 C   0  0  0  0  0  0  0  0  0  0  0  0
    7.0673  -15.6662   23.8311 O   0  0  0  0  0  0  0  0  0  0  0  0
    9.1136  -15.5546   24.9555 N   0  0  0  0  0  0  0  0  0  0  0  0
    9.8927  -16.4483   24.1761 C   0  0  1  0  0  0  0  0  0  0  0  0
   10.6836  -15.7596   23.0972 C   0  0  0  0  0  0  0  0  0  0  0  0
   11.2324  -16.7110   22.1276 C   0  0  0  0  0  0  0  0  0  0  0  0
   12.4383  -17.0744   22.2596 O   0  0  0  0  0  0  0  0  0  0  0  0
   10.6739  -17.3396   25.0282 C   0  0  0  0  0  0  0  0  0  0  0  0
   11.7127  -16.8686   25.6042 O   0  0  0  0  0  0  0  0  0  0  0  0
   10.5116  -17.2506   21.0624 O   0  0  0  0  0  0  0  0  0  0  0  0
   10.3578  -18.7041   25.2631 N   0  0  0  0  0  0  0  0  0  0  0  0
   11.2639  -19.5025   26.0367 C   0  0  0  0  0  0  0  0  0  0  0  0
   10.8663  -19.5005   27.4656 C   0  0  0  0  0  0  0  0  0  0  0  0
   11.6269  -19.1209   28.3768 O   0  0  0  0  0  0  0  0  0  0  0  0
    9.5999  -19.9371   27.8136 O   0  0  0  0  0  0  0  0  0  0  0  0
  2  3  1  6
  2  1  1  0
  4  2  1  0
  5  4  1  0
  5  6  1  1
  7  5  1  0
  7  9  1  0
  8  7  2  0
 10 14  1  0
 10  9  1  0
 10 11  1  6
 12 11  1  0
 12 16  1  0
 13 12  2  0
 14 17  1  0
 15 14  2  0
 17 18  1  0
 19 18  1  0
 20 19  2  0
 21 19  1  0
M  END
$$$$
