LDG.pdb
     RDKit          3D

 21 20  0  0  1  0  0  0  0  0999 V2000
    7.1617  -11.4697   24.8403 C   0  0  0  0  0  0  0  0  0  0  0  0
    6.4508  -12.5514   25.6140 C   0  0  2  0  0  0  0  0  0  0  0  0
    5.6560  -11.8905   26.7069 C   0  0  0  0  0  0  0  0  0  0  0  0
    7.4030  -13.5437   26.2184 C   0  0  0  0  0  0  0  0  0  0  0  0
    8.2509  -14.2115   25.1881 C   0  0  2  0  0  0  0  0  0  0  0  0
    7.4602  -14.7574   24.1392 N   0  0  0  0  0  0  0  0  0  0  0  0
    9.0890  -15.2864   25.8318 C   0  0  0  0  0  0  0  0  0  0  0  0
    9.4927  -15.0311   26.9751 O   0  0  0  0  0  0  0  0  0  0  0  0
    9.3591  -16.4701   25.1378 N   0  0  0  0  0  0  0  0  0  0  0  0
   10.2458  -17.5003   25.5443 C   0  0  1  0  0  0  0  0  0  0  0  0
    9.7921  -18.8726   25.1264 C   0  0  0  0  0  0  0  0  0  0  0  0
   10.6719  -19.9228   25.6454 C   0  0  0  0  0  0  0  0  0  0  0  0
   10.5819  -20.2304   26.8705 O   0  0  0  0  0  0  0  0  0  0  0  0
   11.6224  -17.1780   25.1815 C   0  0  0  0  0  0  0  0  0  0  0  0
   12.5641  -17.6425   25.9097 O   0  0  0  0  0  0  0  0  0  0  0  0
   11.6075  -20.6147   24.8764 O   0  0  0  0  0  0  0  0  0  0  0  0
   11.9910  -16.3778   24.0676 N   0  0  0  0  0  0  0  0  0  0  0  0
   13.3508  -15.9373   23.9499 C   0  0  0  0  0  0  0  0  0  0  0  0
   13.8439  -16.1412   22.5660 C   0  0  0  0  0  0  0  0  0  0  0  0
   13.2200  -16.8096   21.7193 O   0  0  0  0  0  0  0  0  0  0  0  0
   15.0467  -15.5702   22.1880 O   0  0  0  0  0  0  0  0  0  0  0  0
  2  3  1  1
  2  1  1  0
  4  2  1  0
  5  4  1  0
  5  6  1  6
  7  5  1  0
  7  9  1  0
  8  7  2  0
 10 14  1  0
 10  9  1  0
 10 11  1  6
 12 11  1  0
 12 16  1  0
 13 12  2  0
 14 17  1  0
 15 14  2  0
 17 18  1  0
 19 18  1  0
 20 19  2  0
 21 19  1  0
M  END
$$$$
