LDG.pdb
     RDKit          3D

 21 20  0  0  1  0  0  0  0  0999 V2000
    6.5824  -12.7568   27.0617 C   0  0  0  0  0  0  0  0  0  0  0  0
    7.2397  -13.2809   25.8097 C   0  0  2  0  0  0  0  0  0  0  0  0
    7.8614  -12.1141   25.0920 C   0  0  0  0  0  0  0  0  0  0  0  0
    6.2656  -13.9684   24.8959 C   0  0  0  0  0  0  0  0  0  0  0  0
    6.9392  -14.5909   23.7190 C   0  0  2  0  0  0  0  0  0  0  0  0
    5.9957  -15.1792   22.8318 N   0  0  0  0  0  0  0  0  0  0  0  0
    7.9386  -15.6188   24.1844 C   0  0  0  0  0  0  0  0  0  0  0  0
    7.4548  -16.6175   24.7359 O   0  0  0  0  0  0  0  0  0  0  0  0
    9.3055  -15.4059   23.9801 N   0  0  0  0  0  0  0  0  0  0  0  0
   10.3528  -16.3152   24.2788 C   0  0  1  0  0  0  0  0  0  0  0  0
   11.6032  -16.0625   23.4812 C   0  0  0  0  0  0  0  0  0  0  0  0
   11.7144  -16.9676   22.3345 C   0  0  0  0  0  0  0  0  0  0  0  0
   10.8199  -17.8501   22.1772 O   0  0  0  0  0  0  0  0  0  0  0  0
   10.5608  -16.4172   25.7200 C   0  0  0  0  0  0  0  0  0  0  0  0
   11.2111  -15.4853   26.3044 O   0  0  0  0  0  0  0  0  0  0  0  0
   12.7442  -16.9221   21.3949 O   0  0  0  0  0  0  0  0  0  0  0  0
   10.0875  -17.4880   26.5239 N   0  0  0  0  0  0  0  0  0  0  0  0
   10.3979  -17.4935   27.9241 C   0  0  0  0  0  0  0  0  0  0  0  0
   11.2700  -18.6461   28.2573 C   0  0  0  0  0  0  0  0  0  0  0  0
   12.3894  -18.8174   27.7372 O   0  0  0  0  0  0  0  0  0  0  0  0
   10.8323  -19.5772   29.1831 O   0  0  0  0  0  0  0  0  0  0  0  0
  2  3  1  6
  2  1  1  0
  4  2  1  0
  5  4  1  0
  5  6  1  6
  7  5  1  0
  7  9  1  0
  8  7  2  0
 10 14  1  0
 10  9  1  0
 10 11  1  6
 12 11  1  0
 12 16  1  0
 13 12  2  0
 14 17  1  0
 15 14  2  0
 17 18  1  0
 19 18  1  0
 20 19  2  0
 21 19  1  0
M  END
$$$$
