LDG.pdb
     RDKit          3D

 21 20  0  0  1  0  0  0  0  0999 V2000
    7.2596  -11.9463   27.2587 C   0  0  0  0  0  0  0  0  0  0  0  0
    6.8783  -12.3730   25.8635 C   0  0  2  0  0  0  0  0  0  0  0  0
    5.5418  -11.7613   25.5430 C   0  0  0  0  0  0  0  0  0  0  0  0
    6.7907  -13.8663   25.7248 C   0  0  0  0  0  0  0  0  0  0  0  0
    8.0137  -14.5527   26.2344 C   0  0  2  0  0  0  0  0  0  0  0  0
    9.1163  -13.6575   26.3147 N   0  0  0  0  0  0  0  0  0  0  0  0
    8.3496  -15.7260   25.3496 C   0  0  0  0  0  0  0  0  0  0  0  0
    7.4209  -16.5208   25.1471 O   0  0  0  0  0  0  0  0  0  0  0  0
    9.6380  -15.8557   24.8217 N   0  0  0  0  0  0  0  0  0  0  0  0
   10.1568  -16.9842   24.1358 C   0  0  1  0  0  0  0  0  0  0  0  0
   10.9586  -16.6198   22.9160 C   0  0  0  0  0  0  0  0  0  0  0  0
   10.1067  -16.1541   21.8188 C   0  0  0  0  0  0  0  0  0  0  0  0
   10.6465  -15.5107   20.8710 O   0  0  0  0  0  0  0  0  0  0  0  0
   10.8317  -17.8916   25.0588 C   0  0  0  0  0  0  0  0  0  0  0  0
   11.2716  -19.0011   24.6023 O   0  0  0  0  0  0  0  0  0  0  0  0
    8.7314  -16.3746   21.7442 O   0  0  0  0  0  0  0  0  0  0  0  0
   11.0347  -17.6256   26.4389 N   0  0  0  0  0  0  0  0  0  0  0  0
   11.7042  -18.6065   27.2429 C   0  0  0  0  0  0  0  0  0  0  0  0
   10.7321  -19.3200   28.1067 C   0  0  0  0  0  0  0  0  0  0  0  0
    9.6472  -19.7605   27.6802 O   0  0  0  0  0  0  0  0  0  0  0  0
   11.0317  -19.5099   29.4446 O   0  0  0  0  0  0  0  0  0  0  0  0
  2  3  1  1
  2  1  1  0
  4  2  1  0
  5  4  1  0
  5  6  1  6
  7  5  1  0
  7  9  1  0
  8  7  2  0
 10 14  1  0
 10  9  1  0
 10 11  1  6
 12 11  1  0
 12 16  1  0
 13 12  2  0
 14 17  1  0
 15 14  2  0
 17 18  1  0
 19 18  1  0
 20 19  2  0
 21 19  1  0
M  END
$$$$
