CMR.pdb
     RDKit          3D

 26 25  0  0  1  0  0  0  0  0999 V2000
    8.3398  -13.7543   19.6799 N   0  0  0  0  0  0  0  0  0  0  0  0
    7.4373  -14.3938   20.5951 C   0  0  1  0  0  0  0  0  0  0  0  0
    7.0895  -15.7666   20.0697 C   0  0  0  0  0  0  0  0  0  0  0  0
    6.2275  -16.6358   21.4315 S   0  0  0  0  0  0  0  0  0  0  0  0
    8.0208  -14.4205   21.9493 C   0  0  0  0  0  0  0  0  0  0  0  0
    9.2694  -14.4841   22.0864 O   0  0  0  0  0  0  0  0  0  0  0  0
    7.0728  -11.6798   27.9550 C   0  0  0  0  0  0  0  0  0  0  0  0
    6.1336  -11.2719   26.4652 S   0  0  0  0  0  0  0  0  0  0  0  0
    6.8360  -12.2241   25.0923 C   0  0  0  0  0  0  0  0  0  0  0  0
    6.9597  -13.6966   25.4712 C   0  0  0  0  0  0  0  0  0  0  0  0
    7.8021  -14.4430   24.4598 C   0  0  2  0  0  0  0  0  0  0  0  0
    7.2351  -14.3779   23.1367 N   0  0  0  0  0  0  0  0  0  0  0  0
    8.0677  -15.8400   24.8921 C   0  0  0  0  0  0  0  0  0  0  0  0
    7.0932  -16.5449   25.2486 O   0  0  0  0  0  0  0  0  0  0  0  0
   11.7088  -23.2562   22.2872 N   0  0  0  0  0  0  0  0  0  0  0  0
   10.6063  -23.2524   23.1558 C   0  0  0  0  0  0  0  0  0  0  0  0
    9.7200  -24.1791   23.0619 N   0  0  0  0  0  0  0  0  0  0  0  0
   10.4816  -22.2243   24.1250 N   0  0  0  0  0  0  0  0  0  0  0  0
   10.2316  -20.8774   23.6656 C   0  0  0  0  0  0  0  0  0  0  0  0
   10.8826  -19.8516   24.5451 C   0  0  0  0  0  0  0  0  0  0  0  0
   10.4428  -18.4689   24.2321 C   0  0  0  0  0  0  0  0  0  0  0  0
    9.7349  -17.7225   25.2904 C   0  0  2  0  0  0  0  0  0  0  0  0
    9.3817  -16.3728   24.9052 N   0  0  0  0  0  0  0  0  0  0  0  0
   10.3706  -17.7760   26.6414 C   0  0  0  0  0  0  0  0  0  0  0  0
   11.2184  -16.7897   27.1207 O   0  0  0  0  0  0  0  0  0  0  0  0
   10.1759  -18.7334   27.4454 O   0  0  0  0  0  0  0  0  0  0  0  0
  2  1  1  6
  2  3  1  0
  4  3  1  0
  5  2  1  0
  5  6  2  0
  7  8  1  0
  8  9  1  0
  9 10  1  0
 11 10  1  1
 11 12  1  0
 12  5  1  0
 13 11  1  0
 14 13  2  0
 16 15  1  0
 16 18  1  0
 17 16  2  0
 19 18  1  0
 19 20  1  0
 20 21  1  0
 22 23  1  0
 22 21  1  6
 23 13  1  0
 24 22  1  0
 25 24  1  0
 26 24  2  0
M  END
$$$$
