CMR.pdb
     RDKit          3D

 26 25  0  0  1  0  0  0  0  0999 V2000
    8.2803  -16.2539   18.9360 N   0  0  0  0  0  0  0  0  0  0  0  0
    7.4111  -16.3321   20.0759 C   0  0  1  0  0  0  0  0  0  0  0  0
    7.0450  -17.7768   20.3214 C   0  0  0  0  0  0  0  0  0  0  0  0
    8.5688  -18.5999   20.9162 S   0  0  0  0  0  0  0  0  0  0  0  0
    8.0425  -15.6863   21.2418 C   0  0  0  0  0  0  0  0  0  0  0  0
    9.2930  -15.5578   21.2791 O   0  0  0  0  0  0  0  0  0  0  0  0
    7.3979  -11.3329   27.7988 C   0  0  0  0  0  0  0  0  0  0  0  0
    6.4676  -12.1759   26.4982 S   0  0  0  0  0  0  0  0  0  0  0  0
    7.6360  -13.1861   25.5501 C   0  0  0  0  0  0  0  0  0  0  0  0
    6.9406  -13.8250   24.3520 C   0  0  0  0  0  0  0  0  0  0  0  0
    7.9221  -14.6265   23.5251 C   0  0  2  0  0  0  0  0  0  0  0  0
    7.3019  -15.1894   22.3526 N   0  0  0  0  0  0  0  0  0  0  0  0
    8.6183  -15.6532   24.3437 C   0  0  0  0  0  0  0  0  0  0  0  0
    8.0098  -16.7204   24.5976 O   0  0  0  0  0  0  0  0  0  0  0  0
   16.7374  -16.8605   22.7545 N   0  0  0  0  0  0  0  0  0  0  0  0
   16.4526  -16.2112   23.9657 C   0  0  0  0  0  0  0  0  0  0  0  0
   17.4181  -15.8133   24.7159 N   0  0  0  0  0  0  0  0  0  0  0  0
   15.1029  -16.0044   24.3493 N   0  0  0  0  0  0  0  0  0  0  0  0
   14.5893  -16.7506   25.4750 C   0  0  0  0  0  0  0  0  0  0  0  0
   13.2265  -17.3149   25.2030 C   0  0  0  0  0  0  0  0  0  0  0  0
   12.2345  -16.2682   24.8517 C   0  0  0  0  0  0  0  0  0  0  0  0
   10.8373  -16.4830   25.2761 C   0  0  2  0  0  0  0  0  0  0  0  0
    9.9338  -15.4440   24.8298 N   0  0  0  0  0  0  0  0  0  0  0  0
   10.6540  -16.8074   26.7229 C   0  0  0  0  0  0  0  0  0  0  0  0
   11.0047  -18.0286   27.2770 O   0  0  0  0  0  0  0  0  0  0  0  0
   10.1621  -15.9821   27.5462 O   0  0  0  0  0  0  0  0  0  0  0  0
  2  1  1  6
  2  3  1  0
  4  3  1  0
  5  2  1  0
  5  6  2  0
  7  8  1  0
  8  9  1  0
  9 10  1  0
 11 10  1  1
 11 12  1  0
 12  5  1  0
 13 11  1  0
 14 13  2  0
 16 15  1  0
 16 18  1  0
 17 16  2  0
 19 18  1  0
 19 20  1  0
 20 21  1  0
 22 23  1  0
 22 21  1  1
 23 13  1  0
 24 22  1  0
 25 24  1  0
 26 24  2  0
M  END
$$$$
