CMR.pdb
     RDKit          3D

 26 25  0  0  1  0  0  0  0  0999 V2000
    7.2063  -15.1470   27.4536 N   0  0  0  0  0  0  0  0  0  0  0  0
    7.4800  -14.4346   26.2376 C   0  0  1  0  0  0  0  0  0  0  0  0
    8.8010  -13.7146   26.3721 C   0  0  0  0  0  0  0  0  0  0  0  0
    8.4404  -12.1317   27.2192 S   0  0  0  0  0  0  0  0  0  0  0  0
    7.4350  -15.3565   25.0874 C   0  0  0  0  0  0  0  0  0  0  0  0
    6.9590  -16.5112   25.2351 O   0  0  0  0  0  0  0  0  0  0  0  0
    9.2754  -12.0236   19.1121 C   0  0  0  0  0  0  0  0  0  0  0  0
    7.9144  -13.1298   19.5497 S   0  0  0  0  0  0  0  0  0  0  0  0
    8.4163  -14.0688   21.0164 C   0  0  0  0  0  0  0  0  0  0  0  0
    7.3278  -15.0609   21.4142 C   0  0  0  0  0  0  0  0  0  0  0  0
    7.7419  -15.8523   22.6357 C   0  0  2  0  0  0  0  0  0  0  0  0
    7.9102  -15.0074   23.7907 N   0  0  0  0  0  0  0  0  0  0  0  0
    8.9419  -16.6869   22.3669 C   0  0  0  0  0  0  0  0  0  0  0  0
    8.9148  -17.4631   21.3818 O   0  0  0  0  0  0  0  0  0  0  0  0
   12.5573  -13.4980   19.4255 N   0  0  0  0  0  0  0  0  0  0  0  0
   13.0978  -14.6535   18.8403 C   0  0  0  0  0  0  0  0  0  0  0  0
   13.6137  -14.5885   17.6643 N   0  0  0  0  0  0  0  0  0  0  0  0
   13.0657  -15.8799   19.5520 N   0  0  0  0  0  0  0  0  0  0  0  0
   12.8177  -15.8390   20.9750 C   0  0  0  0  0  0  0  0  0  0  0  0
   12.8772  -17.2025   21.5971 C   0  0  0  0  0  0  0  0  0  0  0  0
   12.4590  -17.1992   23.0213 C   0  0  0  0  0  0  0  0  0  0  0  0
   11.0901  -17.6557   23.3310 C   0  0  2  0  0  0  0  0  0  0  0  0
   10.0918  -16.6165   23.1937 N   0  0  0  0  0  0  0  0  0  0  0  0
   10.9453  -18.4120   24.6113 C   0  0  0  0  0  0  0  0  0  0  0  0
   11.6585  -19.5659   24.8956 O   0  0  0  0  0  0  0  0  0  0  0  0
   10.1553  -18.0465   25.5296 O   0  0  0  0  0  0  0  0  0  0  0  0
  2  1  1  1
  2  3  1  0
  4  3  1  0
  5  2  1  0
  5  6  2  0
  7  8  1  0
  8  9  1  0
  9 10  1  0
 11 10  1  6
 11 12  1  0
 12  5  1  0
 13 11  1  0
 14 13  2  0
 16 15  1  0
 16 18  1  0
 17 16  2  0
 19 18  1  0
 19 20  1  0
 20 21  1  0
 22 23  1  0
 22 21  1  1
 23 13  1  0
 24 22  1  0
 25 24  1  0
 26 24  2  0
M  END
$$$$
