CMR.pdb
     RDKit          3D

 26 25  0  0  1  0  0  0  0  0999 V2000
    8.3610  -15.3992   19.6872 N   0  0  0  0  0  0  0  0  0  0  0  0
    7.3925  -15.4064   20.7470 C   0  0  1  0  0  0  0  0  0  0  0  0
    6.7805  -16.7836   20.8492 C   0  0  0  0  0  0  0  0  0  0  0  0
    8.0495  -17.8546   21.6210 S   0  0  0  0  0  0  0  0  0  0  0  0
    8.0125  -14.9510   22.0052 C   0  0  0  0  0  0  0  0  0  0  0  0
    9.2435  -14.6953   22.0341 O   0  0  0  0  0  0  0  0  0  0  0  0
    5.3780  -10.9559   26.7489 C   0  0  0  0  0  0  0  0  0  0  0  0
    6.1659  -12.3120   27.6476 S   0  0  0  0  0  0  0  0  0  0  0  0
    7.4367  -13.0239   26.5691 C   0  0  0  0  0  0  0  0  0  0  0  0
    6.8002  -13.6367   25.3254 C   0  0  0  0  0  0  0  0  0  0  0  0
    7.8570  -14.2170   24.4110 C   0  0  2  0  0  0  0  0  0  0  0  0
    7.2819  -14.7808   23.2162 N   0  0  0  0  0  0  0  0  0  0  0  0
    8.7309  -15.1827   25.1270 C   0  0  0  0  0  0  0  0  0  0  0  0
    9.3841  -14.7701   26.1153 O   0  0  0  0  0  0  0  0  0  0  0  0
   13.0962  -21.4860   22.0282 N   0  0  0  0  0  0  0  0  0  0  0  0
   13.4430  -20.1298   21.9262 C   0  0  0  0  0  0  0  0  0  0  0  0
   14.0831  -19.7135   20.8917 N   0  0  0  0  0  0  0  0  0  0  0  0
   13.0860  -19.2352   22.9674 N   0  0  0  0  0  0  0  0  0  0  0  0
   12.4157  -19.7708   24.1300 C   0  0  0  0  0  0  0  0  0  0  0  0
   11.9428  -18.6900   25.0562 C   0  0  0  0  0  0  0  0  0  0  0  0
   10.8753  -17.8508   24.4569 C   0  0  0  0  0  0  0  0  0  0  0  0
    9.7080  -17.5274   25.3002 C   0  0  2  0  0  0  0  0  0  0  0  0
    8.8316  -16.5355   24.7143 N   0  0  0  0  0  0  0  0  0  0  0  0
   10.0188  -17.2314   26.7313 C   0  0  0  0  0  0  0  0  0  0  0  0
   10.1150  -18.2127   27.7054 O   0  0  0  0  0  0  0  0  0  0  0  0
   10.2165  -16.0552   27.1533 O   0  0  0  0  0  0  0  0  0  0  0  0
  2  1  1  6
  2  3  1  0
  4  3  1  0
  5  2  1  0
  5  6  2  0
  7  8  1  0
  8  9  1  0
  9 10  1  0
 11 10  1  1
 11 12  1  0
 12  5  1  0
 13 11  1  0
 14 13  2  0
 16 15  1  0
 16 18  1  0
 17 16  2  0
 19 18  1  0
 19 20  1  0
 20 21  1  0
 22 23  1  0
 22 21  1  6
 23 13  1  0
 24 22  1  0
 25 24  1  0
 26 24  2  0
M  END
$$$$
