CMR.pdb
     RDKit          3D

 26 25  0  0  1  0  0  0  0  0999 V2000
    6.8695  -16.0330   19.4283 N   0  0  0  0  0  0  0  0  0  0  0  0
    6.5307  -16.5309   20.7316 C   0  0  1  0  0  0  0  0  0  0  0  0
    6.5926  -18.0400   20.7166 C   0  0  0  0  0  0  0  0  0  0  0  0
    5.9277  -18.5983   22.3289 S   0  0  0  0  0  0  0  0  0  0  0  0
    7.4060  -15.9233   21.7511 C   0  0  0  0  0  0  0  0  0  0  0  0
    8.6452  -15.8574   21.5464 O   0  0  0  0  0  0  0  0  0  0  0  0
    5.7180  -11.5529   26.4665 C   0  0  0  0  0  0  0  0  0  0  0  0
    6.9657  -12.5427   27.3216 S   0  0  0  0  0  0  0  0  0  0  0  0
    7.9191  -13.4346   26.0645 C   0  0  0  0  0  0  0  0  0  0  0  0
    6.9876  -14.0563   25.0285 C   0  0  0  0  0  0  0  0  0  0  0  0
    7.7757  -14.8193   23.9862 C   0  0  2  0  0  0  0  0  0  0  0  0
    6.9188  -15.3956   22.9813 N   0  0  0  0  0  0  0  0  0  0  0  0
    8.6742  -15.8270   24.6076 C   0  0  0  0  0  0  0  0  0  0  0  0
    8.1957  -16.9511   24.8927 O   0  0  0  0  0  0  0  0  0  0  0  0
   16.2798  -17.0493   22.3778 N   0  0  0  0  0  0  0  0  0  0  0  0
   16.7263  -17.5012   23.6293 C   0  0  0  0  0  0  0  0  0  0  0  0
   17.9417  -17.8984   23.7650 N   0  0  0  0  0  0  0  0  0  0  0  0
   15.8304  -17.5174   24.7287 N   0  0  0  0  0  0  0  0  0  0  0  0
   14.7649  -16.5418   24.7577 C   0  0  0  0  0  0  0  0  0  0  0  0
   13.4494  -17.1309   24.3431 C   0  0  0  0  0  0  0  0  0  0  0  0
   12.3484  -16.1356   24.3560 C   0  0  0  0  0  0  0  0  0  0  0  0
   11.0886  -16.5210   25.0214 C   0  0  2  0  0  0  0  0  0  0  0  0
   10.0363  -15.5379   24.8755 N   0  0  0  0  0  0  0  0  0  0  0  0
   11.2315  -16.9898   26.4328 C   0  0  0  0  0  0  0  0  0  0  0  0
   10.6498  -16.3407   27.5104 O   0  0  0  0  0  0  0  0  0  0  0  0
   11.8987  -18.0197   26.7413 O   0  0  0  0  0  0  0  0  0  0  0  0
  2  1  1  6
  2  3  1  0
  4  3  1  0
  5  2  1  0
  5  6  2  0
  7  8  1  0
  8  9  1  0
  9 10  1  0
 11 10  1  1
 11 12  1  0
 12  5  1  0
 13 11  1  0
 14 13  2  0
 16 15  1  0
 16 18  1  0
 17 16  2  0
 19 18  1  0
 19 20  1  0
 20 21  1  0
 22 23  1  0
 22 21  1  1
 23 13  1  0
 24 22  1  0
 25 24  1  0
 26 24  2  0
M  END
$$$$
