CMR.pdb
     RDKit          3D

 26 25  0  0  1  0  0  0  0  0999 V2000
    7.6109  -15.9571   20.0329 N   0  0  0  0  0  0  0  0  0  0  0  0
    6.9780  -16.5085   21.1976 C   0  0  1  0  0  0  0  0  0  0  0  0
    6.8462  -18.0037   21.0285 C   0  0  0  0  0  0  0  0  0  0  0  0
    5.9865  -18.6170   22.5244 S   0  0  0  0  0  0  0  0  0  0  0  0
    7.7231  -16.1243   22.4109 C   0  0  0  0  0  0  0  0  0  0  0  0
    8.9800  -16.1685   22.4080 O   0  0  0  0  0  0  0  0  0  0  0  0
    6.6872  -10.4469   26.1924 C   0  0  0  0  0  0  0  0  0  0  0  0
    6.9031  -12.1320   26.8100 S   0  0  0  0  0  0  0  0  0  0  0  0
    6.7398  -13.2610   25.4016 C   0  0  0  0  0  0  0  0  0  0  0  0
    6.9583  -14.7042   25.8454 C   0  0  0  0  0  0  0  0  0  0  0  0
    7.8035  -15.4540   24.8389 C   0  0  2  0  0  0  0  0  0  0  0  0
    7.0878  -15.6971   23.6122 N   0  0  0  0  0  0  0  0  0  0  0  0
    8.3696  -16.6999   25.4187 C   0  0  0  0  0  0  0  0  0  0  0  0
    7.6837  -17.7483   25.3535 O   0  0  0  0  0  0  0  0  0  0  0  0
   14.8462  -20.1574   22.3064 N   0  0  0  0  0  0  0  0  0  0  0  0
   14.1332  -21.2105   22.9002 C   0  0  0  0  0  0  0  0  0  0  0  0
   14.2498  -22.4016   22.4302 N   0  0  0  0  0  0  0  0  0  0  0  0
   13.2901  -20.9474   24.0100 N   0  0  0  0  0  0  0  0  0  0  0  0
   13.3510  -19.6394   24.6210 C   0  0  0  0  0  0  0  0  0  0  0  0
   12.2732  -19.4449   25.6458 C   0  0  0  0  0  0  0  0  0  0  0  0
   11.4734  -18.2174   25.4076 C   0  0  0  0  0  0  0  0  0  0  0  0
   10.3999  -17.9055   26.3711 C   0  0  2  0  0  0  0  0  0  0  0  0
    9.6486  -16.7160   26.0309 N   0  0  0  0  0  0  0  0  0  0  0  0
   10.8089  -17.9231   27.8080 C   0  0  0  0  0  0  0  0  0  0  0  0
   11.4353  -19.0057   28.4053 O   0  0  0  0  0  0  0  0  0  0  0  0
   10.6090  -16.9426   28.5823 O   0  0  0  0  0  0  0  0  0  0  0  0
  2  1  1  6
  2  3  1  0
  4  3  1  0
  5  2  1  0
  5  6  2  0
  7  8  1  0
  8  9  1  0
  9 10  1  0
 11 10  1  1
 11 12  1  0
 12  5  1  0
 13 11  1  0
 14 13  2  0
 16 15  1  0
 16 18  1  0
 17 16  2  0
 19 18  1  0
 19 20  1  0
 20 21  1  0
 22 23  1  0
 22 21  1  6
 23 13  1  0
 24 22  1  0
 25 24  1  0
 26 24  2  0
M  END
$$$$
