CMR.pdb
     RDKit          3D

 26 25  0  0  1  0  0  0  0  0999 V2000
    5.0800  -19.5919   24.3849 N   0  0  0  0  0  0  0  0  0  0  0  0
    6.0966  -19.0687   25.2533 C   0  0  1  0  0  0  0  0  0  0  0  0
    7.0777  -20.1681   25.5858 C   0  0  0  0  0  0  0  0  0  0  0  0
    8.2329  -19.4700   26.8232 S   0  0  0  0  0  0  0  0  0  0  0  0
    6.7325  -17.8887   24.6383 C   0  0  0  0  0  0  0  0  0  0  0  0
    6.8959  -17.8501   23.3919 O   0  0  0  0  0  0  0  0  0  0  0  0
    5.2509  -11.6978   27.2916 C   0  0  0  0  0  0  0  0  0  0  0  0
    6.8976  -12.4063   27.0591 S   0  0  0  0  0  0  0  0  0  0  0  0
    6.7260  -13.8644   25.9963 C   0  0  0  0  0  0  0  0  0  0  0  0
    8.0835  -14.5219   25.7676 C   0  0  0  0  0  0  0  0  0  0  0  0
    7.9597  -15.6952   24.8201 C   0  0  2  0  0  0  0  0  0  0  0  0
    7.1824  -16.7659   25.3906 N   0  0  0  0  0  0  0  0  0  0  0  0
    9.2893  -16.1556   24.3415 C   0  0  0  0  0  0  0  0  0  0  0  0
    9.9464  -16.9323   25.0754 O   0  0  0  0  0  0  0  0  0  0  0  0
    9.1681  -12.3082   19.2114 N   0  0  0  0  0  0  0  0  0  0  0  0
    8.5061  -13.3501   18.5436 C   0  0  0  0  0  0  0  0  0  0  0  0
    7.2649  -13.2194   18.2343 N   0  0  0  0  0  0  0  0  0  0  0  0
    9.2135  -14.5362   18.2205 N   0  0  0  0  0  0  0  0  0  0  0  0
   10.4004  -14.8539   18.9810 C   0  0  0  0  0  0  0  0  0  0  0  0
   10.0732  -15.3197   20.3686 C   0  0  0  0  0  0  0  0  0  0  0  0
   11.2797  -15.7136   21.1382 C   0  0  0  0  0  0  0  0  0  0  0  0
   11.0867  -16.1387   22.5383 C   0  0  2  0  0  0  0  0  0  0  0  0
    9.8113  -15.7359   23.0917 N   0  0  0  0  0  0  0  0  0  0  0  0
   12.2232  -15.8336   23.4589 C   0  0  0  0  0  0  0  0  0  0  0  0
   12.0732  -15.1247   24.6405 O   0  0  0  0  0  0  0  0  0  0  0  0
   13.4087  -16.2052   23.2195 O   0  0  0  0  0  0  0  0  0  0  0  0
  2  1  1  6
  2  3  1  0
  4  3  1  0
  5  2  1  0
  5  6  2  0
  7  8  1  0
  8  9  1  0
  9 10  1  0
 11 10  1  1
 11 12  1  0
 12  5  1  0
 13 11  1  0
 14 13  2  0
 16 15  1  0
 16 18  1  0
 17 16  2  0
 19 18  1  0
 19 20  1  0
 20 21  1  0
 22 23  1  0
 22 21  1  6
 23 13  1  0
 24 22  1  0
 25 24  1  0
 26 24  2  0
M  END
$$$$
