CMR.pdb
     RDKit          3D

 26 25  0  0  1  0  0  0  0  0999 V2000
    8.7017  -16.0884   20.0539 N   0  0  0  0  0  0  0  0  0  0  0  0
    7.7131  -15.4393   20.8678 C   0  0  1  0  0  0  0  0  0  0  0  0
    6.4785  -16.3072   20.9339 C   0  0  0  0  0  0  0  0  0  0  0  0
    6.8696  -17.6710   22.0915 S   0  0  0  0  0  0  0  0  0  0  0  0
    8.2741  -15.1247   22.1949 C   0  0  0  0  0  0  0  0  0  0  0  0
    9.5189  -15.1678   22.3691 O   0  0  0  0  0  0  0  0  0  0  0  0
    6.3041  -10.2614   26.1626 C   0  0  0  0  0  0  0  0  0  0  0  0
    6.5863  -11.6052   27.3382 S   0  0  0  0  0  0  0  0  0  0  0  0
    7.6907  -12.8061   26.5489 C   0  0  0  0  0  0  0  0  0  0  0  0
    7.0709  -13.3352   25.2592 C   0  0  0  0  0  0  0  0  0  0  0  0
    8.0187  -14.2824   24.5563 C   0  0  2  0  0  0  0  0  0  0  0  0
    7.4702  -14.7676   23.3154 N   0  0  0  0  0  0  0  0  0  0  0  0
    8.4539  -15.3864   25.4512 C   0  0  0  0  0  0  0  0  0  0  0  0
    8.7748  -15.1015   26.6300 O   0  0  0  0  0  0  0  0  0  0  0  0
    6.0357  -23.0050   22.8633 N   0  0  0  0  0  0  0  0  0  0  0  0
    5.1354  -21.9304   22.9297 C   0  0  0  0  0  0  0  0  0  0  0  0
    3.9740  -22.0399   22.3891 N   0  0  0  0  0  0  0  0  0  0  0  0
    5.5189  -20.7350   23.5899 N   0  0  0  0  0  0  0  0  0  0  0  0
    6.8682  -20.6360   24.0972 C   0  0  0  0  0  0  0  0  0  0  0  0
    7.1182  -19.3257   24.7829 C   0  0  0  0  0  0  0  0  0  0  0  0
    8.5313  -19.1633   25.2069 C   0  0  0  0  0  0  0  0  0  0  0  0
    8.9232  -17.8657   25.7907 C   0  0  2  0  0  0  0  0  0  0  0  0
    8.5088  -16.7285   24.9969 N   0  0  0  0  0  0  0  0  0  0  0  0
   10.3511  -17.7651   26.2186 C   0  0  0  0  0  0  0  0  0  0  0  0
   11.3127  -17.0755   25.4969 O   0  0  0  0  0  0  0  0  0  0  0  0
   10.7818  -18.3075   27.2775 O   0  0  0  0  0  0  0  0  0  0  0  0
  2  1  1  6
  2  3  1  0
  4  3  1  0
  5  2  1  0
  5  6  2  0
  7  8  1  0
  8  9  1  0
  9 10  1  0
 11 10  1  1
 11 12  1  0
 12  5  1  0
 13 11  1  0
 14 13  2  0
 16 15  1  0
 16 18  1  0
 17 16  2  0
 19 18  1  0
 19 20  1  0
 20 21  1  0
 22 23  1  0
 22 21  1  6
 23 13  1  0
 24 22  1  0
 25 24  1  0
 26 24  2  0
M  END
$$$$
