CMR.pdb
     RDKit          3D

 26 25  0  0  1  0  0  0  0  0999 V2000
    7.5399  -16.8308   20.4413 N   0  0  0  0  0  0  0  0  0  0  0  0
    8.5499  -15.8215   20.2922 C   0  0  1  0  0  0  0  0  0  0  0  0
    8.0513  -14.7585   19.3420 C   0  0  0  0  0  0  0  0  0  0  0  0
    6.5564  -14.0372   20.1155 S   0  0  0  0  0  0  0  0  0  0  0  0
    8.9336  -15.2875   21.6123 C   0  0  0  0  0  0  0  0  0  0  0  0
   10.0596  -14.7474   21.7604 O   0  0  0  0  0  0  0  0  0  0  0  0
    7.0940  -10.8601   26.1419 C   0  0  0  0  0  0  0  0  0  0  0  0
    6.7561  -12.4781   26.8737 S   0  0  0  0  0  0  0  0  0  0  0  0
    7.9126  -13.6667   26.1426 C   0  0  0  0  0  0  0  0  0  0  0  0
    7.4978  -14.0069   24.7144 C   0  0  0  0  0  0  0  0  0  0  0  0
    8.5017  -14.9381   24.0704 C   0  0  2  0  0  0  0  0  0  0  0  0
    8.0842  -15.3497   22.7541 N   0  0  0  0  0  0  0  0  0  0  0  0
    8.8194  -16.0938   24.9491 C   0  0  0  0  0  0  0  0  0  0  0  0
    7.9080  -16.9207   25.1927 O   0  0  0  0  0  0  0  0  0  0  0  0
   14.4611  -14.4681   22.8823 N   0  0  0  0  0  0  0  0  0  0  0  0
   13.8869  -15.4114   22.0161 C   0  0  0  0  0  0  0  0  0  0  0  0
   13.6476  -15.0896   20.7945 N   0  0  0  0  0  0  0  0  0  0  0  0
   13.5746  -16.7077   22.4997 N   0  0  0  0  0  0  0  0  0  0  0  0
   13.3863  -16.8806   23.9218 C   0  0  0  0  0  0  0  0  0  0  0  0
   12.2368  -17.7929   24.2317 C   0  0  0  0  0  0  0  0  0  0  0  0
   11.9471  -17.8733   25.6852 C   0  0  0  0  0  0  0  0  0  0  0  0
   10.5985  -17.4765   26.1347 C   0  0  2  0  0  0  0  0  0  0  0  0
   10.1133  -16.2682   25.5026 N   0  0  0  0  0  0  0  0  0  0  0  0
   10.4007  -17.4576   27.6155 C   0  0  0  0  0  0  0  0  0  0  0  0
   10.7205  -18.5269   28.4373 O   0  0  0  0  0  0  0  0  0  0  0  0
    9.9238  -16.4557   28.2235 O   0  0  0  0  0  0  0  0  0  0  0  0
  2  1  1  1
  2  3  1  0
  4  3  1  0
  5  2  1  0
  5  6  2  0
  7  8  1  0
  8  9  1  0
  9 10  1  0
 11 10  1  1
 11 12  1  0
 12  5  1  0
 13 11  1  0
 14 13  2  0
 16 15  1  0
 16 18  1  0
 17 16  2  0
 19 18  1  0
 19 20  1  0
 20 21  1  0
 22 23  1  0
 22 21  1  1
 23 13  1  0
 24 22  1  0
 25 24  1  0
 26 24  2  0
M  END
$$$$
