CMR.pdb
     RDKit          3D

 26 25  0  0  1  0  0  0  0  0999 V2000
    8.1806  -12.6858   19.3195 N   0  0  0  0  0  0  0  0  0  0  0  0
    7.2322  -13.1861   20.2741 C   0  0  1  0  0  0  0  0  0  0  0  0
    6.5196  -14.3805   19.6848 C   0  0  0  0  0  0  0  0  0  0  0  0
    7.7939  -15.6734   19.4451 S   0  0  0  0  0  0  0  0  0  0  0  0
    7.9059  -13.4835   21.5519 C   0  0  0  0  0  0  0  0  0  0  0  0
    9.1625  -13.4931   21.6041 O   0  0  0  0  0  0  0  0  0  0  0  0
    6.0982  -10.3812   27.2602 C   0  0  0  0  0  0  0  0  0  0  0  0
    6.7220  -12.0707   27.1046 S   0  0  0  0  0  0  0  0  0  0  0  0
    6.5949  -12.5474   25.3607 C   0  0  0  0  0  0  0  0  0  0  0  0
    6.9651  -14.0162   25.1798 C   0  0  0  0  0  0  0  0  0  0  0  0
    7.8504  -14.2021   23.9667 C   0  0  2  0  0  0  0  0  0  0  0  0
    7.2005  -13.7673   22.7564 N   0  0  0  0  0  0  0  0  0  0  0  0
    8.3569  -15.5957   23.8663 C   0  0  0  0  0  0  0  0  0  0  0  0
    7.5447  -16.5000   23.5559 O   0  0  0  0  0  0  0  0  0  0  0  0
   15.5415  -18.8186   20.3472 N   0  0  0  0  0  0  0  0  0  0  0  0
   14.8602  -19.9834   20.7330 C   0  0  0  0  0  0  0  0  0  0  0  0
   15.2526  -21.1252   20.2907 N   0  0  0  0  0  0  0  0  0  0  0  0
   13.7450  -19.8868   21.6040 N   0  0  0  0  0  0  0  0  0  0  0  0
   13.1602  -18.5841   21.8251 C   0  0  0  0  0  0  0  0  0  0  0  0
   12.0708  -18.6225   22.8554 C   0  0  0  0  0  0  0  0  0  0  0  0
   11.4067  -17.3071   23.0337 C   0  0  0  0  0  0  0  0  0  0  0  0
   10.3070  -17.2259   24.0147 C   0  0  2  0  0  0  0  0  0  0  0  0
    9.7183  -15.9072   24.1118 N   0  0  0  0  0  0  0  0  0  0  0  0
   10.6060  -17.8110   25.3565 C   0  0  0  0  0  0  0  0  0  0  0  0
   10.8896  -19.1534   25.5527 O   0  0  0  0  0  0  0  0  0  0  0  0
   10.6204  -17.1141   26.4124 O   0  0  0  0  0  0  0  0  0  0  0  0
  2  1  1  6
  2  3  1  0
  4  3  1  0
  5  2  1  0
  5  6  2  0
  7  8  1  0
  8  9  1  0
  9 10  1  0
 11 10  1  1
 11 12  1  0
 12  5  1  0
 13 11  1  0
 14 13  2  0
 16 15  1  0
 16 18  1  0
 17 16  2  0
 19 18  1  0
 19 20  1  0
 20 21  1  0
 22 23  1  0
 22 21  1  6
 23 13  1  0
 24 22  1  0
 25 24  1  0
 26 24  2  0
M  END
$$$$
