CMR.pdb
     RDKit          3D

 26 25  0  0  1  0  0  0  0  0999 V2000
    7.2575  -16.5817   20.2399 N   0  0  0  0  0  0  0  0  0  0  0  0
    8.5880  -16.0458   20.1793 C   0  0  1  0  0  0  0  0  0  0  0  0
    8.6683  -15.0465   19.0494 C   0  0  0  0  0  0  0  0  0  0  0  0
    7.5775  -13.6521   19.5171 S   0  0  0  0  0  0  0  0  0  0  0  0
    8.9668  -15.4771   21.4862 C   0  0  0  0  0  0  0  0  0  0  0  0
   10.1709  -15.1952   21.7153 O   0  0  0  0  0  0  0  0  0  0  0  0
    6.2414  -12.0419   27.9082 C   0  0  0  0  0  0  0  0  0  0  0  0
    6.5108  -11.8100   26.1358 S   0  0  0  0  0  0  0  0  0  0  0  0
    7.7419  -13.0277   25.6008 C   0  0  0  0  0  0  0  0  0  0  0  0
    7.3431  -13.6374   24.2604 C   0  0  0  0  0  0  0  0  0  0  0  0
    8.3891  -14.6223   23.7854 C   0  0  2  0  0  0  0  0  0  0  0  0
    8.0277  -15.2235   22.5267 N   0  0  0  0  0  0  0  0  0  0  0  0
    8.7000  -15.6362   24.8267 C   0  0  0  0  0  0  0  0  0  0  0  0
    7.7680  -16.3687   25.2370 O   0  0  0  0  0  0  0  0  0  0  0  0
   12.3079  -22.0018   26.2849 N   0  0  0  0  0  0  0  0  0  0  0  0
   12.5328  -21.7917   24.9156 C   0  0  0  0  0  0  0  0  0  0  0  0
   12.3385  -22.7534   24.0846 N   0  0  0  0  0  0  0  0  0  0  0  0
   12.9748  -20.5215   24.4651 N   0  0  0  0  0  0  0  0  0  0  0  0
   13.1181  -19.4623   25.4375 C   0  0  0  0  0  0  0  0  0  0  0  0
   11.7910  -18.9382   25.9002 C   0  0  0  0  0  0  0  0  0  0  0  0
   11.7156  -17.4565   25.8573 C   0  0  0  0  0  0  0  0  0  0  0  0
   10.4408  -16.8269   26.2530 C   0  0  2  0  0  0  0  0  0  0  0  0
   10.0101  -15.7813   25.3495 N   0  0  0  0  0  0  0  0  0  0  0  0
   10.3552  -16.4069   27.6843 C   0  0  0  0  0  0  0  0  0  0  0  0
   10.3960  -15.0822   28.0900 O   0  0  0  0  0  0  0  0  0  0  0  0
   10.2388  -17.2396   28.6298 O   0  0  0  0  0  0  0  0  0  0  0  0
  2  1  1  1
  2  3  1  0
  4  3  1  0
  5  2  1  0
  5  6  2  0
  7  8  1  0
  8  9  1  0
  9 10  1  0
 11 10  1  1
 11 12  1  0
 12  5  1  0
 13 11  1  0
 14 13  2  0
 16 15  1  0
 16 18  1  0
 17 16  2  0
 19 18  1  0
 19 20  1  0
 20 21  1  0
 22 23  1  0
 22 21  1  6
 23 13  1  0
 24 22  1  0
 25 24  1  0
 26 24  2  0
M  END
$$$$
