CMR.pdb
     RDKit          3D

 26 25  0  0  1  0  0  0  0  0999 V2000
    9.5566  -16.9098   19.8912 N   0  0  0  0  0  0  0  0  0  0  0  0
    8.3494  -16.4798   20.5384 C   0  0  1  0  0  0  0  0  0  0  0  0
    7.4339  -17.6678   20.7182 C   0  0  0  0  0  0  0  0  0  0  0  0
    6.8113  -17.5819   22.4382 S   0  0  0  0  0  0  0  0  0  0  0  0
    8.6679  -15.7946   21.8048 C   0  0  0  0  0  0  0  0  0  0  0  0
    9.8222  -15.8975   22.2935 O   0  0  0  0  0  0  0  0  0  0  0  0
    6.5350  -11.2243   27.7018 C   0  0  0  0  0  0  0  0  0  0  0  0
    5.9794  -12.0237   26.1788 S   0  0  0  0  0  0  0  0  0  0  0  0
    7.4311  -12.2652   25.1209 C   0  0  0  0  0  0  0  0  0  0  0  0
    7.0636  -13.0851   23.8880 C   0  0  0  0  0  0  0  0  0  0  0  0
    8.0792  -14.1811   23.6490 C   0  0  2  0  0  0  0  0  0  0  0  0
    7.7233  -15.0060   22.5224 N   0  0  0  0  0  0  0  0  0  0  0  0
    8.3234  -14.9795   24.8786 C   0  0  0  0  0  0  0  0  0  0  0  0
    8.7046  -14.3762   25.9103 O   0  0  0  0  0  0  0  0  0  0  0  0
    5.6635  -23.2031   26.7658 N   0  0  0  0  0  0  0  0  0  0  0  0
    6.4037  -22.8857   27.9153 C   0  0  0  0  0  0  0  0  0  0  0  0
    6.4920  -23.7415   28.8708 N   0  0  0  0  0  0  0  0  0  0  0  0
    7.0429  -21.6231   28.0103 N   0  0  0  0  0  0  0  0  0  0  0  0
    6.8293  -20.6662   26.9490 C   0  0  0  0  0  0  0  0  0  0  0  0
    7.6480  -19.4235   27.1368 C   0  0  0  0  0  0  0  0  0  0  0  0
    7.5412  -18.4901   25.9877 C   0  0  0  0  0  0  0  0  0  0  0  0
    8.3238  -17.2403   26.0495 C   0  0  2  0  0  0  0  0  0  0  0  0
    8.1340  -16.3847   24.8976 N   0  0  0  0  0  0  0  0  0  0  0  0
    9.7673  -17.4093   26.3956 C   0  0  0  0  0  0  0  0  0  0  0  0
   10.2725  -17.1949   27.6684 O   0  0  0  0  0  0  0  0  0  0  0  0
   10.6326  -17.7625   25.5427 O   0  0  0  0  0  0  0  0  0  0  0  0
  2  1  1  1
  2  3  1  0
  4  3  1  0
  5  2  1  0
  5  6  2  0
  7  8  1  0
  8  9  1  0
  9 10  1  0
 11 10  1  1
 11 12  1  0
 12  5  1  0
 13 11  1  0
 14 13  2  0
 16 15  1  0
 16 18  1  0
 17 16  2  0
 19 18  1  0
 19 20  1  0
 20 21  1  0
 22 23  1  0
 22 21  1  6
 23 13  1  0
 24 22  1  0
 25 24  1  0
 26 24  2  0
M  END
$$$$
