SVC.pdb
     RDKit          3D

 20 19  0  0  1  0  0  0  0  0999 V2000
   -4.0501  -22.9839   31.9054 O   0  0  0  0  0  0  0  0  0  0  0  0
   -4.2028  -23.6021   33.1459 C   0  0  0  0  0  0  0  0  0  0  0  0
   -2.9395  -23.5146   33.9695 C   0  0  2  0  0  0  0  0  0  0  0  0
   -1.9199  -24.3124   33.3159 N   0  0  0  0  0  0  0  0  0  0  0  0
   -3.2261  -24.0615   35.3385 C   0  0  0  0  0  0  0  0  0  0  0  0
   -3.3001  -25.2976   35.5484 O   0  0  0  0  0  0  0  0  0  0  0  0
   -2.3890  -21.9564   38.7260 C   0  0  0  0  0  0  0  0  0  0  0  0
   -2.7204  -23.4090   38.7262 C   0  0  2  0  0  0  0  0  0  0  0  0
   -1.5396  -24.2687   38.3959 C   0  0  0  0  0  0  0  0  0  0  0  0
   -3.8340  -23.7652   37.7488 C   0  0  2  0  0  0  0  0  0  0  0  0
   -3.4283  -23.2200   36.4658 N   0  0  0  0  0  0  0  0  0  0  0  0
   -5.0890  -23.0883   38.2208 C   0  0  0  0  0  0  0  0  0  0  0  0
   -5.2823  -21.8680   38.0599 O   0  0  0  0  0  0  0  0  0  0  0  0
   -6.0929  -23.8486   38.8709 N   0  0  0  0  0  0  0  0  0  0  0  0
   -7.2423  -23.1505   39.4169 C   0  0  1  0  0  0  0  0  0  0  0  0
   -8.5414  -23.7643   38.9244 C   0  0  0  0  0  0  0  0  0  0  0  0
   -9.9406  -22.9501   39.6962 S   0  0  0  0  0  0  0  0  0  0  0  0
   -7.1970  -23.1682   40.9156 C   0  0  0  0  0  0  0  0  0  0  0  0
   -6.6485  -24.1029   41.5423 O   0  0  0  0  0  0  0  0  0  0  0  0
   -7.7712  -22.1333   41.6374 O   0  0  0  0  0  0  0  0  0  0  0  0
  2  1  1  0
  3  5  1  0
  3  2  1  0
  3  4  1  6
  5  6  2  0
  8  7  1  6
  8  9  1  0
  8 10  1  0
 10 12  1  0
 10 11  1  6
 11  5  1  0
 12 14  1  0
 12 13  2  0
 14 15  1  0
 15 18  1  0
 15 16  1  1
 17 16  1  0
 18 19  2  0
 18 20  1  0
M  END
$$$$
