SVC.pdb
     RDKit          3D

 20 19  0  0  1  0  0  0  0  0999 V2000
    7.3590  -19.5822   18.7604 O   0  0  0  0  0  0  0  0  0  0  0  0
    6.3533  -18.7393   18.2889 C   0  0  0  0  0  0  0  0  0  0  0  0
    6.9097  -17.6572   17.3937 C   0  0  2  0  0  0  0  0  0  0  0  0
    7.5899  -18.2966   16.2838 N   0  0  0  0  0  0  0  0  0  0  0  0
    7.8805  -16.8339   18.1907 C   0  0  0  0  0  0  0  0  0  0  0  0
    9.1018  -17.1231   18.2372 O   0  0  0  0  0  0  0  0  0  0  0  0
    8.5318  -12.8351   21.0919 C   0  0  0  0  0  0  0  0  0  0  0  0
    7.6835  -13.7218   20.2468 C   0  0  2  0  0  0  0  0  0  0  0  0
    6.4340  -14.1598   20.9462 C   0  0  0  0  0  0  0  0  0  0  0  0
    8.4128  -14.9768   19.7828 C   0  0  2  0  0  0  0  0  0  0  0  0
    7.4775  -15.6901   18.9318 N   0  0  0  0  0  0  0  0  0  0  0  0
    8.7280  -15.7976   21.0005 C   0  0  0  0  0  0  0  0  0  0  0  0
    7.8595  -16.4727   21.5855 O   0  0  0  0  0  0  0  0  0  0  0  0
   10.0501  -15.8141   21.5111 N   0  0  0  0  0  0  0  0  0  0  0  0
   10.3319  -16.6409   22.6702 C   0  0  1  0  0  0  0  0  0  0  0  0
   11.1734  -17.8473   22.2914 C   0  0  0  0  0  0  0  0  0  0  0  0
   11.5923  -18.7925   23.7569 S   0  0  0  0  0  0  0  0  0  0  0  0
   11.0280  -15.8353   23.7261 C   0  0  0  0  0  0  0  0  0  0  0  0
   10.7180  -15.9346   24.9349 O   0  0  0  0  0  0  0  0  0  0  0  0
   12.0396  -14.9564   23.3712 O   0  0  0  0  0  0  0  0  0  0  0  0
  2  1  1  0
  3  5  1  0
  3  2  1  0
  3  4  1  6
  5  6  2  0
  8  7  1  1
  8  9  1  0
  8 10  1  0
 10 12  1  0
 10 11  1  6
 11  5  1  0
 12 14  1  0
 12 13  2  0
 14 15  1  0
 15 18  1  0
 15 16  1  6
 17 16  1  0
 18 19  2  0
 18 20  1  0
M  END
$$$$
