SVC.pdb
     RDKit          3D

 20 19  0  0  1  0  0  0  0  0999 V2000
    6.5233  -17.4607   21.1003 O   0  0  0  0  0  0  0  0  0  0  0  0
    7.2881  -16.8484   22.0925 C   0  0  0  0  0  0  0  0  0  0  0  0
    7.1914  -15.3427   22.0184 C   0  0  2  0  0  0  0  0  0  0  0  0
    7.7836  -14.9146   20.7657 N   0  0  0  0  0  0  0  0  0  0  0  0
    7.9511  -14.7604   23.1757 C   0  0  0  0  0  0  0  0  0  0  0  0
    9.1909  -14.5691   23.1163 O   0  0  0  0  0  0  0  0  0  0  0  0
    6.4621  -11.9955   25.6626 C   0  0  0  0  0  0  0  0  0  0  0  0
    7.1060  -13.1246   26.3909 C   0  0  2  0  0  0  0  0  0  0  0  0
    7.8453  -12.6742   27.6127 C   0  0  0  0  0  0  0  0  0  0  0  0
    8.0854  -13.9089   25.5259 C   0  0  2  0  0  0  0  0  0  0  0  0
    7.3172  -14.3954   24.3942 N   0  0  0  0  0  0  0  0  0  0  0  0
    8.5883  -15.0659   26.3409 C   0  0  0  0  0  0  0  0  0  0  0  0
    7.8265  -15.9552   26.7665 O   0  0  0  0  0  0  0  0  0  0  0  0
    9.9698  -15.1620   26.6428 N   0  0  0  0  0  0  0  0  0  0  0  0
   10.4246  -16.2836   27.4440 C   0  0  1  0  0  0  0  0  0  0  0  0
   11.7704  -16.7939   26.9587 C   0  0  0  0  0  0  0  0  0  0  0  0
   11.7719  -16.9268   25.1702 S   0  0  0  0  0  0  0  0  0  0  0  0
   10.5108  -15.8894   28.8881 C   0  0  0  0  0  0  0  0  0  0  0  0
   10.3578  -14.7013   29.2518 O   0  0  0  0  0  0  0  0  0  0  0  0
   10.7649  -16.8508   29.8538 O   0  0  0  0  0  0  0  0  0  0  0  0
  2  1  1  0
  3  5  1  0
  3  2  1  0
  3  4  1  6
  5  6  2  0
  8  7  1  6
  8  9  1  0
  8 10  1  0
 10 12  1  0
 10 11  1  6
 11  5  1  0
 12 14  1  0
 12 13  2  0
 14 15  1  0
 15 18  1  0
 15 16  1  6
 17 16  1  0
 18 19  2  0
 18 20  1  0
M  END
$$$$
