SVC.pdb
     RDKit          3D

 20 19  0  0  1  0  0  0  0  0999 V2000
    7.7800  -19.0984   19.2724 O   0  0  0  0  0  0  0  0  0  0  0  0
    6.8115  -18.4930   18.4726 C   0  0  0  0  0  0  0  0  0  0  0  0
    7.3500  -17.2605   17.7850 C   0  0  2  0  0  0  0  0  0  0  0  0
    8.0975  -17.6866   16.6176 N   0  0  0  0  0  0  0  0  0  0  0  0
    8.2535  -16.5386   18.7431 C   0  0  0  0  0  0  0  0  0  0  0  0
    9.4789  -16.8044   18.8154 O   0  0  0  0  0  0  0  0  0  0  0  0
    6.6400  -13.9975   21.7856 C   0  0  0  0  0  0  0  0  0  0  0  0
    7.9116  -13.6602   21.0861 C   0  0  2  0  0  0  0  0  0  0  0  0
    7.7004  -12.7514   19.9149 C   0  0  0  0  0  0  0  0  0  0  0  0
    8.6579  -14.8899   20.5830 C   0  0  2  0  0  0  0  0  0  0  0  0
    7.7790  -15.5220   19.6156 N   0  0  0  0  0  0  0  0  0  0  0  0
    8.8735  -15.8039   21.7552 C   0  0  0  0  0  0  0  0  0  0  0  0
    8.0246  -16.6482   22.0998 O   0  0  0  0  0  0  0  0  0  0  0  0
   10.0751  -15.7144   22.5015 N   0  0  0  0  0  0  0  0  0  0  0  0
   10.3368  -16.7233   23.5115 C   0  0  1  0  0  0  0  0  0  0  0  0
   10.4004  -18.1108   22.8968 C   0  0  0  0  0  0  0  0  0  0  0  0
   11.8104  -18.2341   21.7955 S   0  0  0  0  0  0  0  0  0  0  0  0
   11.6157  -16.4174   24.2321 C   0  0  0  0  0  0  0  0  0  0  0  0
   11.9896  -17.0943   25.2167 O   0  0  0  0  0  0  0  0  0  0  0  0
   12.4127  -15.3645   23.8104 O   0  0  0  0  0  0  0  0  0  0  0  0
  2  1  1  0
  3  5  1  0
  3  2  1  0
  3  4  1  6
  5  6  2  0
  8  7  1  6
  8  9  1  0
  8 10  1  0
 10 12  1  0
 10 11  1  6
 11  5  1  0
 12 14  1  0
 12 13  2  0
 14 15  1  0
 15 18  1  0
 15 16  1  6
 17 16  1  0
 18 19  2  0
 18 20  1  0
M  END
$$$$
