SVC.pdb
     RDKit          3D

 20 19  0  0  1  0  0  0  0  0999 V2000
   -3.1746  -28.1103   26.3086 O   0  0  0  0  0  0  0  0  0  0  0  0
   -3.5762  -27.1581   27.2448 C   0  0  0  0  0  0  0  0  0  0  0  0
   -2.7915  -25.8750   27.1038 C   0  0  2  0  0  0  0  0  0  0  0  0
   -1.4206  -26.1402   27.4958 N   0  0  0  0  0  0  0  0  0  0  0  0
   -3.3992  -24.8444   28.0114 C   0  0  0  0  0  0  0  0  0  0  0  0
   -3.1307  -24.8108   29.2379 O   0  0  0  0  0  0  0  0  0  0  0  0
   -5.1701  -21.5143   26.3099 C   0  0  0  0  0  0  0  0  0  0  0  0
   -4.6202  -21.5059   27.6946 C   0  0  2  0  0  0  0  0  0  0  0  0
   -3.1560  -21.1940   27.7304 C   0  0  0  0  0  0  0  0  0  0  0  0
   -4.8248  -22.8283   28.4239 C   0  0  2  0  0  0  0  0  0  0  0  0
   -4.3051  -23.8560   27.5398 N   0  0  0  0  0  0  0  0  0  0  0  0
   -6.3019  -23.0177   28.6192 C   0  0  0  0  0  0  0  0  0  0  0  0
   -7.0677  -23.2670   27.6685 O   0  0  0  0  0  0  0  0  0  0  0  0
   -6.8557  -22.9124   29.9196 N   0  0  0  0  0  0  0  0  0  0  0  0
   -8.2706  -23.1867   30.0913 C   0  0  1  0  0  0  0  0  0  0  0  0
   -8.4998  -24.2270   31.1740 C   0  0  0  0  0  0  0  0  0  0  0  0
   -7.6367  -25.7448   30.7645 S   0  0  0  0  0  0  0  0  0  0  0  0
   -9.0080  -21.9238   30.4226 C   0  0  0  0  0  0  0  0  0  0  0  0
   -8.4003  -20.8603   30.6810 O   0  0  0  0  0  0  0  0  0  0  0  0
  -10.3940  -21.9181   30.4472 O   0  0  0  0  0  0  0  0  0  0  0  0
  2  1  1  0
  3  5  1  0
  3  2  1  0
  3  4  1  1
  5  6  2  0
  8  7  1  6
  8  9  1  0
  8 10  1  0
 10 12  1  0
 10 11  1  6
 11  5  1  0
 12 14  1  0
 12 13  2  0
 14 15  1  0
 15 18  1  0
 15 16  1  1
 17 16  1  0
 18 19  2  0
 18 20  1  0
M  END
$$$$
