SVC.pdb
     RDKit          3D

 20 19  0  0  1  0  0  0  0  0999 V2000
    5.9725  -19.2737   17.7505 O   0  0  0  0  0  0  0  0  0  0  0  0
    7.2291  -18.8461   18.1775 C   0  0  0  0  0  0  0  0  0  0  0  0
    7.6305  -17.5505   17.5126 C   0  0  2  0  0  0  0  0  0  0  0  0
    8.4837  -17.8690   16.3839 N   0  0  0  0  0  0  0  0  0  0  0  0
    8.3822  -16.7173   18.5107 C   0  0  0  0  0  0  0  0  0  0  0  0
    9.6328  -16.7800   18.6077 O   0  0  0  0  0  0  0  0  0  0  0  0
    7.1514  -12.9903   19.6916 C   0  0  0  0  0  0  0  0  0  0  0  0
    7.5377  -13.9096   20.7987 C   0  0  2  0  0  0  0  0  0  0  0  0
    8.1974  -13.1942   21.9368 C   0  0  0  0  0  0  0  0  0  0  0  0
    8.4790  -15.0203   20.3485 C   0  0  2  0  0  0  0  0  0  0  0  0
    7.7282  -15.8177   19.3955 N   0  0  0  0  0  0  0  0  0  0  0  0
    8.8187  -15.8473   21.5554 C   0  0  0  0  0  0  0  0  0  0  0  0
    7.9450  -16.4364   22.2201 O   0  0  0  0  0  0  0  0  0  0  0  0
   10.1708  -15.9702   21.9622 N   0  0  0  0  0  0  0  0  0  0  0  0
   10.4707  -16.7911   23.1210 C   0  0  1  0  0  0  0  0  0  0  0  0
   11.5353  -17.8256   22.7992 C   0  0  0  0  0  0  0  0  0  0  0  0
   11.0212  -18.8269   21.4030 S   0  0  0  0  0  0  0  0  0  0  0  0
   10.9145  -15.9308   24.2662 C   0  0  0  0  0  0  0  0  0  0  0  0
   11.1179  -14.7040   24.1220 O   0  0  0  0  0  0  0  0  0  0  0  0
   11.1083  -16.4921   25.5188 O   0  0  0  0  0  0  0  0  0  0  0  0
  2  1  1  0
  3  5  1  0
  3  2  1  0
  3  4  1  6
  5  6  2  0
  8  7  1  6
  8  9  1  0
  8 10  1  0
 10 12  1  0
 10 11  1  6
 11  5  1  0
 12 14  1  0
 12 13  2  0
 14 15  1  0
 15 18  1  0
 15 16  1  6
 17 16  1  0
 18 19  2  0
 18 20  1  0
M  END
$$$$
