SVC.pdb
     RDKit          3D

 20 19  0  0  1  0  0  0  0  0999 V2000
    6.5641  -16.6931   20.6099 O   0  0  0  0  0  0  0  0  0  0  0  0
    7.0115  -16.1584   21.8174 C   0  0  0  0  0  0  0  0  0  0  0  0
    7.0468  -14.6487   21.7773 C   0  0  2  0  0  0  0  0  0  0  0  0
    7.7152  -14.2464   20.5547 N   0  0  0  0  0  0  0  0  0  0  0  0
    7.8144  -14.1596   22.9718 C   0  0  0  0  0  0  0  0  0  0  0  0
    9.0468  -13.9258   22.9084 O   0  0  0  0  0  0  0  0  0  0  0  0
    5.7868  -13.5811   26.6258 C   0  0  0  0  0  0  0  0  0  0  0  0
    7.0047  -12.7859   26.3029 C   0  0  2  0  0  0  0  0  0  0  0  0
    6.6813  -11.4771   25.6510 C   0  0  0  0  0  0  0  0  0  0  0  0
    7.9733  -13.5261   25.3885 C   0  0  2  0  0  0  0  0  0  0  0  0
    7.1968  -13.9349   24.2320 N   0  0  0  0  0  0  0  0  0  0  0  0
    8.4663  -14.7358   26.1298 C   0  0  0  0  0  0  0  0  0  0  0  0
    8.9594  -14.6560   27.2712 O   0  0  0  0  0  0  0  0  0  0  0  0
    8.3740  -16.0140   25.5246 N   0  0  0  0  0  0  0  0  0  0  0  0
    8.9483  -17.1504   26.2212 C   0  0  1  0  0  0  0  0  0  0  0  0
    8.0169  -18.3493   26.1754 C   0  0  0  0  0  0  0  0  0  0  0  0
    6.8654  -18.2894   27.5490 S   0  0  0  0  0  0  0  0  0  0  0  0
   10.2786  -17.5056   25.6273 C   0  0  0  0  0  0  0  0  0  0  0  0
   10.7587  -16.8621   24.6667 O   0  0  0  0  0  0  0  0  0  0  0  0
   11.0049  -18.5679   26.1426 O   0  0  0  0  0  0  0  0  0  0  0  0
  2  1  1  0
  3  5  1  0
  3  2  1  0
  3  4  1  6
  5  6  2  0
  8  7  1  6
  8  9  1  0
  8 10  1  0
 10 12  1  0
 10 11  1  6
 11  5  1  0
 12 14  1  0
 12 13  2  0
 14 15  1  0
 15 18  1  0
 15 16  1  6
 17 16  1  0
 18 19  2  0
 18 20  1  0
M  END
$$$$
