SVC.pdb
     RDKit          3D

 20 19  0  0  1  0  0  0  0  0999 V2000
    4.3471  -19.3531   20.9497 O   0  0  0  0  0  0  0  0  0  0  0  0
    5.4400  -18.5450   21.2612 C   0  0  0  0  0  0  0  0  0  0  0  0
    6.0114  -17.8843   20.0288 C   0  0  2  0  0  0  0  0  0  0  0  0
    6.6085  -18.9148   19.2013 N   0  0  0  0  0  0  0  0  0  0  0  0
    7.0574  -16.8970   20.4609 C   0  0  0  0  0  0  0  0  0  0  0  0
    8.2320  -17.2578   20.7208 O   0  0  0  0  0  0  0  0  0  0  0  0
    7.2015  -13.0576   19.2413 C   0  0  0  0  0  0  0  0  0  0  0  0
    7.3308  -13.2009   20.7187 C   0  0  2  0  0  0  0  0  0  0  0  0
    8.3004  -12.2242   21.3088 C   0  0  0  0  0  0  0  0  0  0  0  0
    7.7700  -14.5966   21.1448 C   0  0  2  0  0  0  0  0  0  0  0  0
    6.7815  -15.5097   20.5997 N   0  0  0  0  0  0  0  0  0  0  0  0
    7.7417  -14.6453   22.6457 C   0  0  0  0  0  0  0  0  0  0  0  0
    6.8487  -14.0836   23.3085 O   0  0  0  0  0  0  0  0  0  0  0  0
    8.7559  -15.3482   23.3429 N   0  0  0  0  0  0  0  0  0  0  0  0
    8.7190  -15.3537   24.7938 C   0  0  1  0  0  0  0  0  0  0  0  0
    7.4257  -15.9630   25.3069 C   0  0  0  0  0  0  0  0  0  0  0  0
    7.1116  -17.5265   24.4862 S   0  0  0  0  0  0  0  0  0  0  0  0
    9.8969  -16.1034   25.3406 C   0  0  0  0  0  0  0  0  0  0  0  0
   10.0757  -16.2314   26.5730 O   0  0  0  0  0  0  0  0  0  0  0  0
   10.8172  -16.6730   24.4745 O   0  0  0  0  0  0  0  0  0  0  0  0
  2  1  1  0
  3  5  1  0
  3  2  1  0
  3  4  1  6
  5  6  2  0
  8  7  1  6
  8  9  1  0
  8 10  1  0
 10 12  1  0
 10 11  1  6
 11  5  1  0
 12 14  1  0
 12 13  2  0
 14 15  1  0
 15 18  1  0
 15 16  1  6
 17 16  1  0
 18 19  2  0
 18 20  1  0
M  END
$$$$
