SVC.pdb
     RDKit          3D

 20 19  0  0  1  0  0  0  0  0999 V2000
   10.7401  -14.0858   18.1332 O   0  0  0  0  0  0  0  0  0  0  0  0
   10.0818  -13.7218   19.3072 C   0  0  0  0  0  0  0  0  0  0  0  0
    8.6245  -14.1180   19.2727 C   0  0  2  0  0  0  0  0  0  0  0  0
    7.8985  -13.1003   18.5377 N   0  0  0  0  0  0  0  0  0  0  0  0
    8.1198  -14.1956   20.6851 C   0  0  0  0  0  0  0  0  0  0  0  0
    7.8090  -13.1624   21.3279 O   0  0  0  0  0  0  0  0  0  0  0  0
    6.2283  -17.1455   24.1925 C   0  0  0  0  0  0  0  0  0  0  0  0
    6.7902  -16.8841   22.8375 C   0  0  2  0  0  0  0  0  0  0  0  0
    7.8549  -17.8659   22.4570 C   0  0  0  0  0  0  0  0  0  0  0  0
    7.3843  -15.4876   22.6992 C   0  0  2  0  0  0  0  0  0  0  0  0
    7.9659  -15.4313   21.3702 N   0  0  0  0  0  0  0  0  0  0  0  0
    8.4604  -15.3448   23.7373 C   0  0  0  0  0  0  0  0  0  0  0  0
    9.6382  -15.6881   23.5198 O   0  0  0  0  0  0  0  0  0  0  0  0
    8.1406  -14.8045   25.0079 N   0  0  0  0  0  0  0  0  0  0  0  0
    9.1873  -14.7339   26.0110 C   0  0  1  0  0  0  0  0  0  0  0  0
    9.0564  -13.4760   26.8522 C   0  0  0  0  0  0  0  0  0  0  0  0
    7.3333  -12.9955   26.9804 S   0  0  0  0  0  0  0  0  0  0  0  0
    9.1489  -15.9494   26.8882 C   0  0  0  0  0  0  0  0  0  0  0  0
    8.1867  -16.7496   26.8552 O   0  0  0  0  0  0  0  0  0  0  0  0
   10.1952  -16.2064   27.7605 O   0  0  0  0  0  0  0  0  0  0  0  0
  2  1  1  0
  3  5  1  0
  3  2  1  0
  3  4  1  6
  5  6  2  0
  8  7  1  1
  8  9  1  0
  8 10  1  0
 10 12  1  0
 10 11  1  6
 11  5  1  0
 12 14  1  0
 12 13  2  0
 14 15  1  0
 15 18  1  0
 15 16  1  1
 17 16  1  0
 18 19  2  0
 18 20  1  0
M  END
$$$$
