SVC.pdb
     RDKit          3D

 20 19  0  0  1  0  0  0  0  0999 V2000
    8.8467  -20.1493   19.3596 O   0  0  0  0  0  0  0  0  0  0  0  0
    9.6742  -19.0878   19.7241 C   0  0  0  0  0  0  0  0  0  0  0  0
    9.4448  -18.6717   21.1580 C   0  0  2  0  0  0  0  0  0  0  0  0
    8.0594  -18.9435   21.4895 N   0  0  0  0  0  0  0  0  0  0  0  0
    9.7265  -17.2014   21.2768 C   0  0  0  0  0  0  0  0  0  0  0  0
   10.8768  -16.7364   21.0821 O   0  0  0  0  0  0  0  0  0  0  0  0
    6.8781  -13.9151   22.6584 C   0  0  0  0  0  0  0  0  0  0  0  0
    7.7015  -14.1185   21.4334 C   0  0  2  0  0  0  0  0  0  0  0  0
    6.9773  -14.8921   20.3753 C   0  0  0  0  0  0  0  0  0  0  0  0
    9.0138  -14.8413   21.7120 C   0  0  2  0  0  0  0  0  0  0  0  0
    8.7172  -16.2591   21.6134 N   0  0  0  0  0  0  0  0  0  0  0  0
    9.4336  -14.5007   23.1133 C   0  0  0  0  0  0  0  0  0  0  0  0
    9.7203  -13.3367   23.4528 O   0  0  0  0  0  0  0  0  0  0  0  0
    9.5103  -15.5248   24.0901 N   0  0  0  0  0  0  0  0  0  0  0  0
    9.7318  -15.1441   25.4730 C   0  0  1  0  0  0  0  0  0  0  0  0
    8.6360  -14.2162   25.9684 C   0  0  0  0  0  0  0  0  0  0  0  0
    9.1868  -13.3355   27.4304 S   0  0  0  0  0  0  0  0  0  0  0  0
    9.8088  -16.3640   26.3417 C   0  0  0  0  0  0  0  0  0  0  0  0
   10.1372  -16.2885   27.5474 O   0  0  0  0  0  0  0  0  0  0  0  0
    9.5127  -17.6103   25.8120 O   0  0  0  0  0  0  0  0  0  0  0  0
  2  1  1  0
  3  5  1  0
  3  2  1  0
  3  4  1  6
  5  6  2  0
  8  7  1  1
  8  9  1  0
  8 10  1  0
 10 12  1  0
 10 11  1  1
 11  5  1  0
 12 14  1  0
 12 13  2  0
 14 15  1  0
 15 18  1  0
 15 16  1  1
 17 16  1  0
 18 19  2  0
 18 20  1  0
M  END
$$$$
