SVC.pdb
     RDKit          3D

 20 19  0  0  1  0  0  0  0  0999 V2000
    5.5000  -18.3283   21.9782 O   0  0  0  0  0  0  0  0  0  0  0  0
    5.9725  -17.4790   22.9781 C   0  0  0  0  0  0  0  0  0  0  0  0
    6.3838  -16.1374   22.4188 C   0  0  2  0  0  0  0  0  0  0  0  0
    6.9130  -16.3486   21.0853 N   0  0  0  0  0  0  0  0  0  0  0  0
    7.4434  -15.5558   23.3101 C   0  0  0  0  0  0  0  0  0  0  0  0
    8.6595  -15.8207   23.1418 O   0  0  0  0  0  0  0  0  0  0  0  0
    8.4357  -12.6826   27.2583 C   0  0  0  0  0  0  0  0  0  0  0  0
    7.5283  -13.1799   26.1862 C   0  0  2  0  0  0  0  0  0  0  0  0
    6.2174  -13.6667   26.7218 C   0  0  0  0  0  0  0  0  0  0  0  0
    8.1381  -14.3121   25.3687 C   0  0  2  0  0  0  0  0  0  0  0  0
    7.1347  -14.6800   24.3860 N   0  0  0  0  0  0  0  0  0  0  0  0
    8.3907  -15.4627   26.3004 C   0  0  0  0  0  0  0  0  0  0  0  0
    7.4683  -16.1861   26.7226 O   0  0  0  0  0  0  0  0  0  0  0  0
    9.7142  -15.7461   26.7208 N   0  0  0  0  0  0  0  0  0  0  0  0
    9.9493  -16.9514   27.4946 C   0  0  1  0  0  0  0  0  0  0  0  0
   10.9056  -17.8868   26.7753 C   0  0  0  0  0  0  0  0  0  0  0  0
   12.4289  -17.0273   26.3788 S   0  0  0  0  0  0  0  0  0  0  0  0
   10.4884  -16.6019   28.8495 C   0  0  0  0  0  0  0  0  0  0  0  0
   10.8184  -15.4296   29.1395 O   0  0  0  0  0  0  0  0  0  0  0  0
   10.6304  -17.5882   29.8131 O   0  0  0  0  0  0  0  0  0  0  0  0
  2  1  1  0
  3  5  1  0
  3  2  1  0
  3  4  1  6
  5  6  2  0
  8  7  1  1
  8  9  1  0
  8 10  1  0
 10 12  1  0
 10 11  1  6
 11  5  1  0
 12 14  1  0
 12 13  2  0
 14 15  1  0
 15 18  1  0
 15 16  1  6
 17 16  1  0
 18 19  2  0
 18 20  1  0
M  END
$$$$
