DHC.pdb
     RDKit          3D

 25 25  0  0  1  0  0  0  0  0999 V2000
   10.9625  -18.2011   20.6130 N   0  0  0  0  0  0  0  0  0  0  0  0
   12.1514  -17.4693   20.9210 C   0  0  1  0  0  0  0  0  0  0  0  0
   12.8236  -16.9026   19.7023 C   0  0  0  0  0  0  0  0  0  0  0  0
   13.5797  -17.9950   19.0425 C   0  0  0  0  0  0  0  0  0  0  0  0
   13.4845  -19.1951   19.4345 O   0  0  0  0  0  0  0  0  0  0  0  0
   11.8431  -16.3475   21.8780 C   0  0  0  0  0  0  0  0  0  0  0  0
   12.7228  -15.5898   22.3152 O   0  0  0  0  0  0  0  0  0  0  0  0
   14.4201  -17.7406   17.9698 O   0  0  0  0  0  0  0  0  0  0  0  0
   10.5073  -16.1355   22.3045 N   0  0  0  0  0  0  0  0  0  0  0  0
   10.1514  -15.1187   23.2684 C   0  0  1  0  0  0  0  0  0  0  0  0
    8.6482  -15.1138   23.4387 C   0  0  0  0  0  0  0  0  0  0  0  0
    7.9596  -14.7342   22.1747 C   0  0  0  0  0  0  0  0  0  0  0  0
    8.2947  -13.6275   21.4336 C   0  0  0  0  0  0  0  0  0  0  0  0
    7.4955  -13.5607   20.3590 N   0  0  0  0  0  0  0  0  0  0  0  0
    6.6608  -14.6120   20.4139 C   0  0  0  0  0  0  0  0  0  0  0  0
    6.9472  -15.3346   21.5327 N   0  0  0  0  0  0  0  0  0  0  0  0
   10.7165  -15.5143   24.6078 C   0  0  0  0  0  0  0  0  0  0  0  0
   11.9413  -15.3037   24.8623 O   0  0  0  0  0  0  0  0  0  0  0  0
    9.9267  -16.1182   25.6039 N   0  0  0  0  0  0  0  0  0  0  0  0
   10.0429  -15.6600   26.9643 C   0  0  1  0  0  0  0  0  0  0  0  0
    9.4426  -14.2823   27.1508 C   0  0  0  0  0  0  0  0  0  0  0  0
   10.0775  -13.4691   28.6369 S   0  0  0  0  0  0  0  0  0  0  0  0
    9.4318  -16.6550   27.8692 C   0  0  0  0  0  0  0  0  0  0  0  0
   10.0124  -17.0377   29.0642 O   0  0  0  0  0  0  0  0  0  0  0  0
    8.3399  -17.1737   27.5380 O   0  0  0  0  0  0  0  0  0  0  0  0
  2  1  1  6
  3  2  1  0
  3  4  1  0
  4  8  1  0
  5  4  2  0
  6  7  2  0
  6  2  1  0
  9  6  1  0
 10 11  1  1
 10  9  1  0
 11 12  1  0
 12 16  1  0
 12 13  2  0
 13 14  1  0
 15 14  1  0
 16 15  2  0
 17 10  1  0
 18 17  2  0
 19 17  1  0
 20 19  1  0
 20 21  1  6
 21 22  1  0
 23 24  1  0
 23 20  1  0
 25 23  2  0
M  END
$$$$
