DHC.pdb
     RDKit          3D

 25 25  0  0  1  0  0  0  0  0999 V2000
    9.0894  -16.3147   20.8133 N   0  0  0  0  0  0  0  0  0  0  0  0
    8.3032  -15.1365   21.0061 C   0  0  1  0  0  0  0  0  0  0  0  0
    7.2274  -14.9731   19.9698 C   0  0  0  0  0  0  0  0  0  0  0  0
    7.8752  -14.9228   18.6363 C   0  0  0  0  0  0  0  0  0  0  0  0
    8.7760  -15.7494   18.3075 O   0  0  0  0  0  0  0  0  0  0  0  0
    7.6704  -15.1466   22.3732 C   0  0  0  0  0  0  0  0  0  0  0  0
    6.8353  -14.2983   22.7225 O   0  0  0  0  0  0  0  0  0  0  0  0
    7.5167  -13.9660   17.6994 O   0  0  0  0  0  0  0  0  0  0  0  0
    8.0297  -16.1529   23.3058 N   0  0  0  0  0  0  0  0  0  0  0  0
    7.5896  -16.1293   24.6826 C   0  0  1  0  0  0  0  0  0  0  0  0
    7.2275  -17.5368   25.1024 C   0  0  0  0  0  0  0  0  0  0  0  0
    6.8848  -18.3831   23.9267 C   0  0  0  0  0  0  0  0  0  0  0  0
    6.9026  -17.9232   22.6327 C   0  0  0  0  0  0  0  0  0  0  0  0
    6.5479  -18.9193   21.8081 N   0  0  0  0  0  0  0  0  0  0  0  0
    6.3067  -20.0014   22.5669 C   0  0  0  0  0  0  0  0  0  0  0  0
    6.5144  -19.6705   23.8720 N   0  0  0  0  0  0  0  0  0  0  0  0
    8.7559  -15.7283   25.5480 C   0  0  0  0  0  0  0  0  0  0  0  0
    9.9384  -15.9993   25.1774 O   0  0  0  0  0  0  0  0  0  0  0  0
    8.5825  -15.0540   26.7711 N   0  0  0  0  0  0  0  0  0  0  0  0
    9.7432  -14.5909   27.4870 C   0  0  1  0  0  0  0  0  0  0  0  0
    9.5116  -13.2374   28.1255 C   0  0  0  0  0  0  0  0  0  0  0  0
    8.1157  -12.3691   27.3704 S   0  0  0  0  0  0  0  0  0  0  0  0
   10.1429  -15.6083   28.4806 C   0  0  0  0  0  0  0  0  0  0  0  0
   11.3116  -15.5211   29.2142 O   0  0  0  0  0  0  0  0  0  0  0  0
    9.3891  -16.5925   28.6655 O   0  0  0  0  0  0  0  0  0  0  0  0
  2  1  1  6
  3  2  1  0
  3  4  1  0
  4  8  1  0
  5  4  2  0
  6  7  2  0
  6  2  1  0
  9  6  1  0
 10 11  1  1
 10  9  1  0
 11 12  1  0
 12 16  1  0
 12 13  2  0
 13 14  1  0
 15 14  1  0
 16 15  2  0
 17 10  1  0
 18 17  2  0
 19 17  1  0
 20 19  1  0
 20 21  1  1
 21 22  1  0
 23 24  1  0
 23 20  1  0
 25 23  2  0
M  END
$$$$
