DHC.pdb
     RDKit          3D

 25 25  0  0  1  0  0  0  0  0999 V2000
   13.0935  -16.4903   17.5989 N   0  0  0  0  0  0  0  0  0  0  0  0
   13.7926  -15.4321   18.2584 C   0  0  1  0  0  0  0  0  0  0  0  0
   14.1044  -14.2781   17.3477 C   0  0  0  0  0  0  0  0  0  0  0  0
   15.1356  -14.7214   16.3779 C   0  0  0  0  0  0  0  0  0  0  0  0
   15.5572  -15.9150   16.3609 O   0  0  0  0  0  0  0  0  0  0  0  0
   12.9945  -14.9288   19.4328 C   0  0  0  0  0  0  0  0  0  0  0  0
   13.4028  -14.0177   20.1691 O   0  0  0  0  0  0  0  0  0  0  0  0
   15.6764  -13.8420   15.4527 O   0  0  0  0  0  0  0  0  0  0  0  0
   11.7310  -15.5047   19.7216 N   0  0  0  0  0  0  0  0  0  0  0  0
   10.9355  -15.1025   20.8597 C   0  0  1  0  0  0  0  0  0  0  0  0
    9.4890  -15.4555   20.5921 C   0  0  0  0  0  0  0  0  0  0  0  0
    8.8594  -14.4893   19.6509 C   0  0  0  0  0  0  0  0  0  0  0  0
    9.5013  -13.3748   19.1690 C   0  0  0  0  0  0  0  0  0  0  0  0
    8.6733  -12.7120   18.3486 N   0  0  0  0  0  0  0  0  0  0  0  0
    7.5173  -13.3953   18.3076 C   0  0  0  0  0  0  0  0  0  0  0  0
    7.6325  -14.4902   19.1101 N   0  0  0  0  0  0  0  0  0  0  0  0
   11.3496  -15.9328   22.0468 C   0  0  0  0  0  0  0  0  0  0  0  0
   12.1162  -16.9299   21.8820 O   0  0  0  0  0  0  0  0  0  0  0  0
   10.9123  -15.6413   23.3523 N   0  0  0  0  0  0  0  0  0  0  0  0
   11.3004  -16.5115   24.4323 C   0  0  1  0  0  0  0  0  0  0  0  0
   10.9805  -15.9115   25.7854 C   0  0  0  0  0  0  0  0  0  0  0  0
    9.2117  -15.5812   25.9719 S   0  0  0  0  0  0  0  0  0  0  0  0
   10.6630  -17.8315   24.2497 C   0  0  0  0  0  0  0  0  0  0  0  0
   11.0778  -18.9641   24.9257 O   0  0  0  0  0  0  0  0  0  0  0  0
    9.7051  -17.9275   23.4472 O   0  0  0  0  0  0  0  0  0  0  0  0
  2  1  1  6
  3  2  1  0
  3  4  1  0
  4  8  1  0
  5  4  2  0
  6  7  2  0
  6  2  1  0
  9  6  1  0
 10 11  1  6
 10  9  1  0
 11 12  1  0
 12 16  1  0
 12 13  2  0
 13 14  1  0
 15 14  1  0
 16 15  2  0
 17 10  1  0
 18 17  2  0
 19 17  1  0
 20 19  1  0
 20 21  1  1
 21 22  1  0
 23 24  1  0
 23 20  1  0
 25 23  2  0
M  END
$$$$
