DHC.pdb
     RDKit          3D

 25 25  0  0  1  0  0  0  0  0999 V2000
    8.0121  -18.3517   20.0616 N   0  0  0  0  0  0  0  0  0  0  0  0
    9.3717  -18.7894   20.1215 C   0  0  1  0  0  0  0  0  0  0  0  0
    9.8787  -19.3104   18.8064 C   0  0  0  0  0  0  0  0  0  0  0  0
    8.9189  -20.3277   18.3123 C   0  0  0  0  0  0  0  0  0  0  0  0
    8.1349  -20.9343   19.0999 O   0  0  0  0  0  0  0  0  0  0  0  0
   10.2640  -17.6662   20.5815 C   0  0  0  0  0  0  0  0  0  0  0  0
   11.4885  -17.8082   20.7210 O   0  0  0  0  0  0  0  0  0  0  0  0
    8.8456  -20.6520   16.9664 O   0  0  0  0  0  0  0  0  0  0  0  0
    9.7023  -16.3962   20.8695 N   0  0  0  0  0  0  0  0  0  0  0  0
   10.4640  -15.3300   21.4802 C   0  0  1  0  0  0  0  0  0  0  0  0
   10.4033  -14.1128   20.5840 C   0  0  0  0  0  0  0  0  0  0  0  0
    9.1569  -14.0992   19.7702 C   0  0  0  0  0  0  0  0  0  0  0  0
    8.0063  -13.4579   20.1591 C   0  0  0  0  0  0  0  0  0  0  0  0
    7.0683  -13.6297   19.2166 N   0  0  0  0  0  0  0  0  0  0  0  0
    7.6137  -14.3715   18.2382 C   0  0  0  0  0  0  0  0  0  0  0  0
    8.9005  -14.6605   18.5798 N   0  0  0  0  0  0  0  0  0  0  0  0
    9.7811  -14.9319   22.7629 C   0  0  0  0  0  0  0  0  0  0  0  0
    9.4999  -13.7133   22.9753 O   0  0  0  0  0  0  0  0  0  0  0  0
    9.4374  -15.8736   23.7505 N   0  0  0  0  0  0  0  0  0  0  0  0
    8.6775  -15.4429   24.8956 C   0  0  1  0  0  0  0  0  0  0  0  0
    7.3997  -14.7366   24.4938 C   0  0  0  0  0  0  0  0  0  0  0  0
    6.3784  -14.3282   25.9301 S   0  0  0  0  0  0  0  0  0  0  0  0
    8.4144  -16.6026   25.7721 C   0  0  0  0  0  0  0  0  0  0  0  0
    8.2147  -16.4821   27.1349 O   0  0  0  0  0  0  0  0  0  0  0  0
    8.3706  -17.7443   25.2567 O   0  0  0  0  0  0  0  0  0  0  0  0
  2  1  1  6
  3  2  1  0
  3  4  1  0
  4  8  1  0
  5  4  2  0
  6  7  2  0
  6  2  1  0
  9  6  1  0
 10 11  1  6
 10  9  1  0
 11 12  1  0
 12 16  1  0
 12 13  2  0
 13 14  1  0
 15 14  1  0
 16 15  2  0
 17 10  1  0
 18 17  2  0
 19 17  1  0
 20 19  1  0
 20 21  1  6
 21 22  1  0
 23 24  1  0
 23 20  1  0
 25 23  2  0
M  END
$$$$
