DHC.pdb
     RDKit          3D

 25 25  0  0  1  0  0  0  0  0999 V2000
    9.9276  -14.6486   18.9391 N   0  0  0  0  0  0  0  0  0  0  0  0
    8.6560  -14.0280   19.1430 C   0  0  1  0  0  0  0  0  0  0  0  0
    7.7188  -14.2160   17.9835 C   0  0  0  0  0  0  0  0  0  0  0  0
    8.4637  -13.9189   16.7355 C   0  0  0  0  0  0  0  0  0  0  0  0
    9.7177  -13.7450   16.7397 O   0  0  0  0  0  0  0  0  0  0  0  0
    8.0056  -14.5637   20.3917 C   0  0  0  0  0  0  0  0  0  0  0  0
    6.8049  -14.3798   20.6439 O   0  0  0  0  0  0  0  0  0  0  0  0
    7.8115  -13.8206   15.5161 O   0  0  0  0  0  0  0  0  0  0  0  0
    8.7769  -15.3058   21.3221 N   0  0  0  0  0  0  0  0  0  0  0  0
    8.2134  -15.8575   22.5338 C   0  0  1  0  0  0  0  0  0  0  0  0
    9.0492  -17.0428   22.9639 C   0  0  0  0  0  0  0  0  0  0  0  0
    8.7580  -18.2429   22.1327 C   0  0  0  0  0  0  0  0  0  0  0  0
    7.6344  -18.3685   21.3529 C   0  0  0  0  0  0  0  0  0  0  0  0
    7.6626  -19.5561   20.7309 N   0  0  0  0  0  0  0  0  0  0  0  0
    8.7904  -20.1804   21.1093 C   0  0  0  0  0  0  0  0  0  0  0  0
    9.4648  -19.3709   21.9729 N   0  0  0  0  0  0  0  0  0  0  0  0
    8.3527  -14.8350   23.6316 C   0  0  0  0  0  0  0  0  0  0  0  0
    9.4110  -14.1408   23.7159 O   0  0  0  0  0  0  0  0  0  0  0  0
    7.3387  -14.6161   24.5826 N   0  0  0  0  0  0  0  0  0  0  0  0
    7.5524  -13.6449   25.6244 C   0  0  1  0  0  0  0  0  0  0  0  0
    6.3003  -12.8457   25.9186 C   0  0  0  0  0  0  0  0  0  0  0  0
    6.4926  -11.8155   27.3932 S   0  0  0  0  0  0  0  0  0  0  0  0
    8.0678  -14.3261   26.8296 C   0  0  0  0  0  0  0  0  0  0  0  0
    8.8664  -13.6936   27.7643 O   0  0  0  0  0  0  0  0  0  0  0  0
    7.7673  -15.5293   27.0113 O   0  0  0  0  0  0  0  0  0  0  0  0
  2  1  1  6
  3  2  1  0
  3  4  1  0
  4  8  1  0
  5  4  2  0
  6  7  2  0
  6  2  1  0
  9  6  1  0
 10 11  1  1
 10  9  1  0
 11 12  1  0
 12 16  1  0
 12 13  2  0
 13 14  1  0
 15 14  1  0
 16 15  2  0
 17 10  1  0
 18 17  2  0
 19 17  1  0
 20 19  1  0
 20 21  1  1
 21 22  1  0
 23 24  1  0
 23 20  1  0
 25 23  2  0
M  END
$$$$
