DHC.pdb
     RDKit          3D

 25 25  0  0  1  0  0  0  0  0999 V2000
   10.9084  -17.8775   20.5757 N   0  0  0  0  0  0  0  0  0  0  0  0
   11.4182  -17.1247   21.6789 C   0  0  1  0  0  0  0  0  0  0  0  0
   12.8668  -16.7583   21.5196 C   0  0  0  0  0  0  0  0  0  0  0  0
   13.6662  -18.0070   21.5648 C   0  0  0  0  0  0  0  0  0  0  0  0
   14.7175  -18.1442   20.8729 O   0  0  0  0  0  0  0  0  0  0  0  0
   10.6120  -15.8669   21.8722 C   0  0  0  0  0  0  0  0  0  0  0  0
   10.9720  -14.7726   21.4119 O   0  0  0  0  0  0  0  0  0  0  0  0
   13.2897  -19.0719   22.3687 O   0  0  0  0  0  0  0  0  0  0  0  0
    9.3975  -15.9167   22.6028 N   0  0  0  0  0  0  0  0  0  0  0  0
    8.5289  -14.7699   22.7456 C   0  0  1  0  0  0  0  0  0  0  0  0
    7.1367  -15.1543   22.2955 C   0  0  0  0  0  0  0  0  0  0  0  0
    7.0957  -15.4310   20.8334 C   0  0  0  0  0  0  0  0  0  0  0  0
    7.3192  -14.4725   19.8755 C   0  0  0  0  0  0  0  0  0  0  0  0
    7.2126  -15.0322   18.6616 N   0  0  0  0  0  0  0  0  0  0  0  0
    6.9247  -16.3318   18.8430 C   0  0  0  0  0  0  0  0  0  0  0  0
    6.8528  -16.5770   20.1812 N   0  0  0  0  0  0  0  0  0  0  0  0
    8.4121  -14.4412   24.2113 C   0  0  0  0  0  0  0  0  0  0  0  0
    7.5528  -13.5932   24.6006 O   0  0  0  0  0  0  0  0  0  0  0  0
    9.2318  -15.0476   25.1813 N   0  0  0  0  0  0  0  0  0  0  0  0
    9.5282  -14.3319   26.3954 C   0  0  1  0  0  0  0  0  0  0  0  0
    8.3044  -13.6389   26.9570 C   0  0  0  0  0  0  0  0  0  0  0  0
    8.6198  -12.9449   28.5976 S   0  0  0  0  0  0  0  0  0  0  0  0
   10.1349  -15.2582   27.3732 C   0  0  0  0  0  0  0  0  0  0  0  0
   10.2868  -16.6107   27.1302 O   0  0  0  0  0  0  0  0  0  0  0  0
   10.5285  -14.7966   28.4700 O   0  0  0  0  0  0  0  0  0  0  0  0
  2  1  1  6
  3  2  1  0
  3  4  1  0
  4  8  1  0
  5  4  2  0
  6  7  2  0
  6  2  1  0
  9  6  1  0
 10 11  1  1
 10  9  1  0
 11 12  1  0
 12 16  1  0
 12 13  2  0
 13 14  1  0
 15 14  1  0
 16 15  2  0
 17 10  1  0
 18 17  2  0
 19 17  1  0
 20 19  1  0
 20 21  1  1
 21 22  1  0
 23 24  1  0
 23 20  1  0
 25 23  2  0
M  END
$$$$
