DHC.pdb
     RDKit          3D

 25 25  0  0  1  0  0  0  0  0999 V2000
   11.6900  -17.5154   19.6286 N   0  0  0  0  0  0  0  0  0  0  0  0
   12.4165  -16.2910   19.7577 C   0  0  1  0  0  0  0  0  0  0  0  0
   12.8185  -15.7051   18.4336 C   0  0  0  0  0  0  0  0  0  0  0  0
   13.7847  -16.6310   17.7937 C   0  0  0  0  0  0  0  0  0  0  0  0
   13.4731  -17.3073   16.7698 O   0  0  0  0  0  0  0  0  0  0  0  0
   11.6023  -15.2760   20.5168 C   0  0  0  0  0  0  0  0  0  0  0  0
   12.0460  -14.1545   20.8070 O   0  0  0  0  0  0  0  0  0  0  0  0
   15.0673  -16.7896   18.2952 O   0  0  0  0  0  0  0  0  0  0  0  0
   10.2813  -15.5963   20.9215 N   0  0  0  0  0  0  0  0  0  0  0  0
    9.4400  -14.6635   21.6371 C   0  0  1  0  0  0  0  0  0  0  0  0
    8.0311  -14.7639   21.0955 C   0  0  0  0  0  0  0  0  0  0  0  0
    7.9759  -14.3967   19.6539 C   0  0  0  0  0  0  0  0  0  0  0  0
    8.1415  -13.1135   19.1932 C   0  0  0  0  0  0  0  0  0  0  0  0
    8.0373  -13.1105   17.8564 N   0  0  0  0  0  0  0  0  0  0  0  0
    7.8081  -14.3763   17.4690 C   0  0  0  0  0  0  0  0  0  0  0  0
    7.7704  -15.1683   18.5769 N   0  0  0  0  0  0  0  0  0  0  0  0
    9.3605  -15.1021   23.0763 C   0  0  0  0  0  0  0  0  0  0  0  0
   10.0029  -16.1266   23.4595 O   0  0  0  0  0  0  0  0  0  0  0  0
    8.5893  -14.4088   24.0277 N   0  0  0  0  0  0  0  0  0  0  0  0
    8.5486  -14.8921   25.3838 C   0  0  1  0  0  0  0  0  0  0  0  0
    7.8272  -13.9313   26.3056 C   0  0  0  0  0  0  0  0  0  0  0  0
    8.5215  -12.2633   26.2131 S   0  0  0  0  0  0  0  0  0  0  0  0
    7.9407  -16.2382   25.4051 C   0  0  0  0  0  0  0  0  0  0  0  0
    7.8747  -17.0129   26.5484 O   0  0  0  0  0  0  0  0  0  0  0  0
    7.4647  -16.6965   24.3401 O   0  0  0  0  0  0  0  0  0  0  0  0
  2  1  1  6
  3  2  1  0
  3  4  1  0
  4  8  1  0
  5  4  2  0
  6  7  2  0
  6  2  1  0
  9  6  1  0
 10 11  1  6
 10  9  1  0
 11 12  1  0
 12 16  1  0
 12 13  2  0
 13 14  1  0
 15 14  1  0
 16 15  2  0
 17 10  1  0
 18 17  2  0
 19 17  1  0
 20 19  1  0
 20 21  1  1
 21 22  1  0
 23 24  1  0
 23 20  1  0
 25 23  2  0
M  END
$$$$
