DHC.pdb
     RDKit          3D

 25 25  0  0  1  0  0  0  0  0999 V2000
   12.5681  -17.2766   19.8543 N   0  0  0  0  0  0  0  0  0  0  0  0
   11.6779  -17.6759   20.8991 C   0  0  1  0  0  0  0  0  0  0  0  0
   12.2763  -18.7019   21.8195 C   0  0  0  0  0  0  0  0  0  0  0  0
   12.6511  -19.8862   21.0087 C   0  0  0  0  0  0  0  0  0  0  0  0
   13.1038  -19.7656   19.8326 O   0  0  0  0  0  0  0  0  0  0  0  0
   11.2504  -16.4797   21.7090 C   0  0  0  0  0  0  0  0  0  0  0  0
   12.0135  -15.5291   21.9393 O   0  0  0  0  0  0  0  0  0  0  0  0
   12.5188  -21.1715   21.5111 O   0  0  0  0  0  0  0  0  0  0  0  0
    9.9342  -16.4214   22.2340 N   0  0  0  0  0  0  0  0  0  0  0  0
    9.5037  -15.3787   23.1381 C   0  0  1  0  0  0  0  0  0  0  0  0
    8.0112  -15.1858   22.9838 C   0  0  0  0  0  0  0  0  0  0  0  0
    7.6795  -14.5264   21.6912 C   0  0  0  0  0  0  0  0  0  0  0  0
    8.6057  -13.8726   20.9158 C   0  0  0  0  0  0  0  0  0  0  0  0
    7.9993  -13.3893   19.8220 N   0  0  0  0  0  0  0  0  0  0  0  0
    6.7022  -13.7304   19.8985 C   0  0  0  0  0  0  0  0  0  0  0  0
    6.5057  -14.4310   21.0503 N   0  0  0  0  0  0  0  0  0  0  0  0
    9.7135  -15.8576   24.5511 C   0  0  0  0  0  0  0  0  0  0  0  0
   10.2749  -16.9756   24.7609 O   0  0  0  0  0  0  0  0  0  0  0  0
    9.3046  -15.1015   25.6654 N   0  0  0  0  0  0  0  0  0  0  0  0
   10.0662  -15.1823   26.8851 C   0  0  1  0  0  0  0  0  0  0  0  0
    9.8824  -13.9527   27.7496 C   0  0  0  0  0  0  0  0  0  0  0  0
   10.8889  -14.0312   29.2508 S   0  0  0  0  0  0  0  0  0  0  0  0
    9.7066  -16.4213   27.6048 C   0  0  0  0  0  0  0  0  0  0  0  0
   10.6180  -17.1469   28.3495 O   0  0  0  0  0  0  0  0  0  0  0  0
    8.5241  -16.8311   27.5364 O   0  0  0  0  0  0  0  0  0  0  0  0
  2  1  1  6
  3  2  1  0
  3  4  1  0
  4  8  1  0
  5  4  2  0
  6  7  2  0
  6  2  1  0
  9  6  1  0
 10 11  1  1
 10  9  1  0
 11 12  1  0
 12 16  1  0
 12 13  2  0
 13 14  1  0
 15 14  1  0
 16 15  2  0
 17 10  1  0
 18 17  2  0
 19 17  1  0
 20 19  1  0
 20 21  1  1
 21 22  1  0
 23 24  1  0
 23 20  1  0
 25 23  2  0
M  END
$$$$
