DHC.pdb
     RDKit          3D

 25 25  0  0  1  0  0  0  0  0999 V2000
   12.8258  -18.0097   21.7966 N   0  0  0  0  0  0  0  0  0  0  0  0
   12.2527  -16.8373   21.2130 C   0  0  1  0  0  0  0  0  0  0  0  0
   11.7832  -17.0539   19.8020 C   0  0  0  0  0  0  0  0  0  0  0  0
   12.9773  -17.1315   18.9253 C   0  0  0  0  0  0  0  0  0  0  0  0
   14.1436  -17.2418   19.4053 O   0  0  0  0  0  0  0  0  0  0  0  0
   11.0962  -16.3490   22.0457 C   0  0  0  0  0  0  0  0  0  0  0  0
   10.4219  -15.3581   21.7257 O   0  0  0  0  0  0  0  0  0  0  0  0
   12.8588  -17.0859   17.5449 O   0  0  0  0  0  0  0  0  0  0  0  0
   10.7522  -17.0333   23.2393 N   0  0  0  0  0  0  0  0  0  0  0  0
    9.6890  -16.5877   24.1117 C   0  0  1  0  0  0  0  0  0  0  0  0
    9.0087  -17.7998   24.7088 C   0  0  0  0  0  0  0  0  0  0  0  0
    8.1133  -18.4618   23.7210 C   0  0  0  0  0  0  0  0  0  0  0  0
    7.5179  -17.7984   22.6761 C   0  0  0  0  0  0  0  0  0  0  0  0
    6.7771  -18.6655   21.9710 N   0  0  0  0  0  0  0  0  0  0  0  0
    6.8983  -19.8674   22.5589 C   0  0  0  0  0  0  0  0  0  0  0  0
    7.7216  -19.7413   23.6370 N   0  0  0  0  0  0  0  0  0  0  0  0
   10.3037  -15.8472   25.2709 C   0  0  0  0  0  0  0  0  0  0  0  0
   11.5065  -16.0791   25.6005 O   0  0  0  0  0  0  0  0  0  0  0  0
    9.5846  -14.8931   26.0146 N   0  0  0  0  0  0  0  0  0  0  0  0
   10.2485  -14.1914   27.0829 C   0  0  1  0  0  0  0  0  0  0  0  0
    9.5795  -12.8687   27.3928 C   0  0  0  0  0  0  0  0  0  0  0  0
    7.8244  -12.8853   26.9548 S   0  0  0  0  0  0  0  0  0  0  0  0
   10.3197  -15.0653   28.2717 C   0  0  0  0  0  0  0  0  0  0  0  0
    9.6984  -16.2990   28.3335 O   0  0  0  0  0  0  0  0  0  0  0  0
   10.9719  -14.6702   29.2664 O   0  0  0  0  0  0  0  0  0  0  0  0
  2  1  1  1
  3  2  1  0
  3  4  1  0
  4  8  1  0
  5  4  2  0
  6  7  2  0
  6  2  1  0
  9  6  1  0
 10 11  1  1
 10  9  1  0
 11 12  1  0
 12 16  1  0
 12 13  2  0
 13 14  1  0
 15 14  1  0
 16 15  2  0
 17 10  1  0
 18 17  2  0
 19 17  1  0
 20 19  1  0
 20 21  1  1
 21 22  1  0
 23 24  1  0
 23 20  1  0
 25 23  2  0
M  END
$$$$
