DHC.pdb
     RDKit          3D

 25 25  0  0  1  0  0  0  0  0999 V2000
   11.6142  -17.5583   16.9010 N   0  0  0  0  0  0  0  0  0  0  0  0
   12.7469  -16.7522   17.2338 C   0  0  1  0  0  0  0  0  0  0  0  0
   13.1415  -15.8109   16.1309 C   0  0  0  0  0  0  0  0  0  0  0  0
   13.4337  -16.6161   14.9198 C   0  0  0  0  0  0  0  0  0  0  0  0
   13.6536  -17.8608   14.9909 O   0  0  0  0  0  0  0  0  0  0  0  0
   12.4750  -15.9569   18.4840 C   0  0  0  0  0  0  0  0  0  0  0  0
   13.2967  -15.1517   18.9483 O   0  0  0  0  0  0  0  0  0  0  0  0
   13.4768  -16.0328   13.6629 O   0  0  0  0  0  0  0  0  0  0  0  0
   11.2429  -16.1215   19.1668 N   0  0  0  0  0  0  0  0  0  0  0  0
   10.9500  -15.4515   20.4139 C   0  0  1  0  0  0  0  0  0  0  0  0
    9.4488  -15.3766   20.5856 C   0  0  0  0  0  0  0  0  0  0  0  0
    8.8665  -14.2597   19.7924 C   0  0  0  0  0  0  0  0  0  0  0  0
    9.6226  -13.3759   19.0619 C   0  0  0  0  0  0  0  0  0  0  0  0
    8.8098  -12.4926   18.4644 N   0  0  0  0  0  0  0  0  0  0  0  0
    7.5506  -12.8089   18.8095 C   0  0  0  0  0  0  0  0  0  0  0  0
    7.5860  -13.8976   19.6276 N   0  0  0  0  0  0  0  0  0  0  0  0
   11.4518  -16.3109   21.5450 C   0  0  0  0  0  0  0  0  0  0  0  0
   11.5441  -17.5665   21.3896 O   0  0  0  0  0  0  0  0  0  0  0  0
   11.8283  -15.7671   22.7872 N   0  0  0  0  0  0  0  0  0  0  0  0
   12.3915  -16.6338   23.7902 C   0  0  1  0  0  0  0  0  0  0  0  0
   13.4924  -15.9512   24.5745 C   0  0  0  0  0  0  0  0  0  0  0  0
   14.6577  -15.0938   23.4885 S   0  0  0  0  0  0  0  0  0  0  0  0
   11.3130  -17.1288   24.6699 C   0  0  0  0  0  0  0  0  0  0  0  0
   11.5212  -18.0873   25.6444 O   0  0  0  0  0  0  0  0  0  0  0  0
   10.1601  -16.6588   24.5256 O   0  0  0  0  0  0  0  0  0  0  0  0
  2  1  1  6
  3  2  1  0
  3  4  1  0
  4  8  1  0
  5  4  2  0
  6  7  2  0
  6  2  1  0
  9  6  1  0
 10 11  1  1
 10  9  1  0
 11 12  1  0
 12 16  1  0
 12 13  2  0
 13 14  1  0
 15 14  1  0
 16 15  2  0
 17 10  1  0
 18 17  2  0
 19 17  1  0
 20 19  1  0
 20 21  1  1
 21 22  1  0
 23 24  1  0
 23 20  1  0
 25 23  2  0
M  END
$$$$
