DHC.pdb
     RDKit          3D

 25 25  0  0  1  0  0  0  0  0999 V2000
   10.6345  -18.3380   20.2792 N   0  0  0  0  0  0  0  0  0  0  0  0
   11.6777  -17.3937   20.5310 C   0  0  1  0  0  0  0  0  0  0  0  0
   12.3147  -16.8740   19.2731 C   0  0  0  0  0  0  0  0  0  0  0  0
   13.2419  -17.9131   18.7622 C   0  0  0  0  0  0  0  0  0  0  0  0
   13.0279  -19.1451   18.9606 O   0  0  0  0  0  0  0  0  0  0  0  0
   11.1505  -16.2310   21.3308 C   0  0  0  0  0  0  0  0  0  0  0  0
   11.8932  -15.3425   21.7758 O   0  0  0  0  0  0  0  0  0  0  0  0
   14.3793  -17.5717   18.0471 O   0  0  0  0  0  0  0  0  0  0  0  0
    9.7603  -16.1326   21.5937 N   0  0  0  0  0  0  0  0  0  0  0  0
    9.1934  -15.0665   22.3886 C   0  0  1  0  0  0  0  0  0  0  0  0
    7.7341  -14.9088   22.0222 C   0  0  0  0  0  0  0  0  0  0  0  0
    7.5736  -14.4645   20.6106 C   0  0  0  0  0  0  0  0  0  0  0  0
    8.0509  -13.2676   20.1352 C   0  0  0  0  0  0  0  0  0  0  0  0
    7.7490  -13.1609   18.8332 N   0  0  0  0  0  0  0  0  0  0  0  0
    7.0872  -14.2761   18.4821 C   0  0  0  0  0  0  0  0  0  0  0  0
    6.9795  -15.0789   19.5775 N   0  0  0  0  0  0  0  0  0  0  0  0
    9.2118  -15.4897   23.8345 C   0  0  0  0  0  0  0  0  0  0  0  0
    9.3448  -16.7160   24.1307 O   0  0  0  0  0  0  0  0  0  0  0  0
    9.0852  -14.5635   24.8864 N   0  0  0  0  0  0  0  0  0  0  0  0
    9.2646  -15.0140   26.2426 C   0  0  1  0  0  0  0  0  0  0  0  0
    9.3346  -13.8581   27.2184 C   0  0  0  0  0  0  0  0  0  0  0  0
    8.0901  -12.5965   26.8546 S   0  0  0  0  0  0  0  0  0  0  0  0
    8.1874  -15.9637   26.5889 C   0  0  0  0  0  0  0  0  0  0  0  0
    8.2282  -16.7654   27.7146 O   0  0  0  0  0  0  0  0  0  0  0  0
    7.1944  -16.0451   25.8285 O   0  0  0  0  0  0  0  0  0  0  0  0
  2  1  1  6
  3  2  1  0
  3  4  1  0
  4  8  1  0
  5  4  2  0
  6  7  2  0
  6  2  1  0
  9  6  1  0
 10 11  1  6
 10  9  1  0
 11 12  1  0
 12 16  1  0
 12 13  2  0
 13 14  1  0
 15 14  1  0
 16 15  2  0
 17 10  1  0
 18 17  2  0
 19 17  1  0
 20 19  1  0
 20 21  1  1
 21 22  1  0
 23 24  1  0
 23 20  1  0
 25 23  2  0
M  END
$$$$
