DHC.pdb
     RDKit          3D

 25 25  0  0  1  0  0  0  0  0999 V2000
   14.1059  -14.8862   19.2312 N   0  0  0  0  0  0  0  0  0  0  0  0
   12.8218  -14.4141   18.8169 C   0  0  1  0  0  0  0  0  0  0  0  0
   12.4411  -14.8814   17.4404 C   0  0  0  0  0  0  0  0  0  0  0  0
   13.6802  -15.2827   16.7304 C   0  0  0  0  0  0  0  0  0  0  0  0
   14.7037  -14.5378   16.7146 O   0  0  0  0  0  0  0  0  0  0  0  0
   11.7622  -14.8515   19.7943 C   0  0  0  0  0  0  0  0  0  0  0  0
   10.5733  -14.5175   19.6754 O   0  0  0  0  0  0  0  0  0  0  0  0
   13.7622  -16.4915   16.0567 O   0  0  0  0  0  0  0  0  0  0  0  0
   12.1177  -15.6734   20.8940 N   0  0  0  0  0  0  0  0  0  0  0  0
   11.1789  -16.0281   21.9346 C   0  0  1  0  0  0  0  0  0  0  0  0
   10.1177  -16.9313   21.3459 C   0  0  0  0  0  0  0  0  0  0  0  0
   10.7181  -17.9799   20.4766 C   0  0  0  0  0  0  0  0  0  0  0  0
   12.0686  -18.0974   20.2557 C   0  0  0  0  0  0  0  0  0  0  0  0
   12.2901  -19.1328   19.4330 N   0  0  0  0  0  0  0  0  0  0  0  0
   11.0956  -19.6692   19.1327 C   0  0  0  0  0  0  0  0  0  0  0  0
   10.1275  -18.9586   19.7759 N   0  0  0  0  0  0  0  0  0  0  0  0
   11.9012  -16.8576   22.9643 C   0  0  0  0  0  0  0  0  0  0  0  0
   13.1568  -16.7399   23.1008 O   0  0  0  0  0  0  0  0  0  0  0  0
   11.2270  -17.7727   23.7941 N   0  0  0  0  0  0  0  0  0  0  0  0
   11.0017  -17.4324   25.1753 C   0  0  1  0  0  0  0  0  0  0  0  0
   10.1160  -16.2127   25.3206 C   0  0  0  0  0  0  0  0  0  0  0  0
   10.1242  -15.5751   27.0135 S   0  0  0  0  0  0  0  0  0  0  0  0
   10.4470  -18.6042   25.8834 C   0  0  0  0  0  0  0  0  0  0  0  0
   10.8892  -19.0049   27.1306 O   0  0  0  0  0  0  0  0  0  0  0  0
    9.5364  -19.2627   25.3283 O   0  0  0  0  0  0  0  0  0  0  0  0
  2  1  1  1
  3  2  1  0
  3  4  1  0
  4  8  1  0
  5  4  2  0
  6  7  2  0
  6  2  1  0
  9  6  1  0
 10 11  1  6
 10  9  1  0
 11 12  1  0
 12 16  1  0
 12 13  2  0
 13 14  1  0
 15 14  1  0
 16 15  2  0
 17 10  1  0
 18 17  2  0
 19 17  1  0
 20 19  1  0
 20 21  1  6
 21 22  1  0
 23 24  1  0
 23 20  1  0
 25 23  2  0
M  END
$$$$
