DHC.pdb
     RDKit          3D

 25 25  0  0  1  0  0  0  0  0999 V2000
   11.1847  -17.4117   15.9251 N   0  0  0  0  0  0  0  0  0  0  0  0
    9.9998  -18.0270   16.4360 C   0  0  1  0  0  0  0  0  0  0  0  0
    9.5148  -19.1647   15.5824 C   0  0  0  0  0  0  0  0  0  0  0  0
    9.0989  -18.6121   14.2701 C   0  0  0  0  0  0  0  0  0  0  0  0
    9.9440  -18.3569   13.3626 O   0  0  0  0  0  0  0  0  0  0  0  0
   10.2323  -18.5291   17.8372 C   0  0  0  0  0  0  0  0  0  0  0  0
    9.3255  -19.0291   18.5203 O   0  0  0  0  0  0  0  0  0  0  0  0
    7.7660  -18.3545   13.9893 O   0  0  0  0  0  0  0  0  0  0  0  0
   11.5258  -18.4349   18.4111 N   0  0  0  0  0  0  0  0  0  0  0  0
   11.8075  -18.8552   19.7653 C   0  0  1  0  0  0  0  0  0  0  0  0
   13.1526  -19.5471   19.7907 C   0  0  0  0  0  0  0  0  0  0  0  0
   13.0635  -20.9278   19.2415 C   0  0  0  0  0  0  0  0  0  0  0  0
   12.2712  -21.9089   19.7858 C   0  0  0  0  0  0  0  0  0  0  0  0
   12.4096  -23.0330   19.0682 N   0  0  0  0  0  0  0  0  0  0  0  0
   13.2796  -22.7724   18.0782 C   0  0  0  0  0  0  0  0  0  0  0  0
   13.6821  -21.4753   18.1855 N   0  0  0  0  0  0  0  0  0  0  0  0
   11.9603  -17.6259   20.6228 C   0  0  0  0  0  0  0  0  0  0  0  0
   12.7653  -16.7098   20.2737 O   0  0  0  0  0  0  0  0  0  0  0  0
   11.2335  -17.4508   21.8152 N   0  0  0  0  0  0  0  0  0  0  0  0
   11.4837  -16.2858   22.6242 C   0  0  1  0  0  0  0  0  0  0  0  0
   10.2053  -15.7061   23.1923 C   0  0  0  0  0  0  0  0  0  0  0  0
    9.3032  -16.9178   24.1876 S   0  0  0  0  0  0  0  0  0  0  0  0
   12.4540  -16.6263   23.6847 C   0  0  0  0  0  0  0  0  0  0  0  0
   12.7736  -17.9295   24.0180 O   0  0  0  0  0  0  0  0  0  0  0  0
   13.0107  -15.6925   24.3085 O   0  0  0  0  0  0  0  0  0  0  0  0
  2  1  1  6
  3  2  1  0
  3  4  1  0
  4  8  1  0
  5  4  2  0
  6  7  2  0
  6  2  1  0
  9  6  1  0
 10 11  1  6
 10  9  1  0
 11 12  1  0
 12 16  1  0
 12 13  2  0
 13 14  1  0
 15 14  1  0
 16 15  2  0
 17 10  1  0
 18 17  2  0
 19 17  1  0
 20 19  1  0
 20 21  1  1
 21 22  1  0
 23 24  1  0
 23 20  1  0
 25 23  2  0
M  END
$$$$
