DHC.pdb
     RDKit          3D

 25 25  0  0  1  0  0  0  0  0999 V2000
   10.5674  -16.3875   16.3182 N   0  0  0  0  0  0  0  0  0  0  0  0
   11.4636  -16.9646   17.2708 C   0  0  1  0  0  0  0  0  0  0  0  0
   12.9040  -16.8708   16.8529 C   0  0  0  0  0  0  0  0  0  0  0  0
   13.0521  -17.5633   15.5495 C   0  0  0  0  0  0  0  0  0  0  0  0
   12.3885  -18.6062   15.2759 O   0  0  0  0  0  0  0  0  0  0  0  0
   11.2981  -16.3029   18.6140 C   0  0  0  0  0  0  0  0  0  0  0  0
   12.0355  -15.3800   18.9927 O   0  0  0  0  0  0  0  0  0  0  0  0
   13.9252  -17.0922   14.5812 O   0  0  0  0  0  0  0  0  0  0  0  0
   10.2693  -16.7370   19.4885 N   0  0  0  0  0  0  0  0  0  0  0  0
    9.9855  -16.0765   20.7427 C   0  0  1  0  0  0  0  0  0  0  0  0
    8.5024  -15.7876   20.8164 C   0  0  0  0  0  0  0  0  0  0  0  0
    8.0854  -14.8168   19.7679 C   0  0  0  0  0  0  0  0  0  0  0  0
    8.2525  -13.4586   19.8849 C   0  0  0  0  0  0  0  0  0  0  0  0
    7.7788  -12.8616   18.7816 N   0  0  0  0  0  0  0  0  0  0  0  0
    7.3153  -13.8272   17.9707 C   0  0  0  0  0  0  0  0  0  0  0  0
    7.5044  -15.0315   18.5787 N   0  0  0  0  0  0  0  0  0  0  0  0
   10.2738  -17.0406   21.8640 C   0  0  0  0  0  0  0  0  0  0  0  0
   10.5895  -18.2402   21.5983 O   0  0  0  0  0  0  0  0  0  0  0  0
   10.2056  -16.6569   23.2163 N   0  0  0  0  0  0  0  0  0  0  0  0
   10.5256  -17.6224   24.2360 C   0  0  1  0  0  0  0  0  0  0  0  0
   11.8640  -17.3379   24.8847 C   0  0  0  0  0  0  0  0  0  0  0  0
   11.8905  -15.7159   25.6854 S   0  0  0  0  0  0  0  0  0  0  0  0
    9.4309  -17.6679   25.2268 C   0  0  0  0  0  0  0  0  0  0  0  0
    9.3845  -18.5963   26.2503 O   0  0  0  0  0  0  0  0  0  0  0  0
    8.5051  -16.8281   25.1345 O   0  0  0  0  0  0  0  0  0  0  0  0
  2  1  1  6
  3  2  1  0
  3  4  1  0
  4  8  1  0
  5  4  2  0
  6  7  2  0
  6  2  1  0
  9  6  1  0
 10 11  1  6
 10  9  1  0
 11 12  1  0
 12 16  1  0
 12 13  2  0
 13 14  1  0
 15 14  1  0
 16 15  2  0
 17 10  1  0
 18 17  2  0
 19 17  1  0
 20 19  1  0
 20 21  1  1
 21 22  1  0
 23 24  1  0
 23 20  1  0
 25 23  2  0
M  END
$$$$
