KSL.pdb
     RDKit          3D

 24 23  0  0  1  0  0  0  0  0999 V2000
    5.3987  -19.6674   20.4758 N   0  0  0  0  0  0  0  0  0  0  0  0
    6.5066  -18.9057   21.0168 C   0  0  1  0  0  0  0  0  0  0  0  0
    6.8954  -17.8300   20.0525 C   0  0  0  0  0  0  0  0  0  0  0  0
    7.5675  -18.3573   18.8310 C   0  0  0  0  0  0  0  0  0  0  0  0
    7.9390  -17.2962   17.8313 C   0  0  0  0  0  0  0  0  0  0  0  0
    8.4266  -17.9550   16.5370 C   0  0  0  0  0  0  0  0  0  0  0  0
    8.7126  -16.9368   15.5474 N   0  0  0  0  0  0  0  0  0  0  0  0
    6.1223  -18.3164   22.3482 C   0  0  0  0  0  0  0  0  0  0  0  0
    4.9819  -17.8351   22.4895 O   0  0  0  0  0  0  0  0  0  0  0  0
    8.0397  -19.4272   25.7338 O   0  0  0  0  0  0  0  0  0  0  0  0
    6.8152  -18.7951   25.7272 C   0  0  0  0  0  0  0  0  0  0  0  0
    6.7426  -17.6944   24.6601 C   0  0  2  0  0  0  0  0  0  0  0  0
    7.0672  -18.3266   23.3998 N   0  0  0  0  0  0  0  0  0  0  0  0
    7.7653  -16.6378   24.9650 C   0  0  0  0  0  0  0  0  0  0  0  0
    8.8857  -16.6247   24.3880 O   0  0  0  0  0  0  0  0  0  0  0  0
    6.0074  -11.6616   26.6179 C   0  0  0  0  0  0  0  0  0  0  0  0
    6.7038  -12.8379   25.9759 C   0  0  1  0  0  0  0  0  0  0  0  0
    7.1837  -12.3352   24.6050 C   0  0  0  0  0  0  0  0  0  0  0  0
    7.9123  -13.3105   26.7009 C   0  0  0  0  0  0  0  0  0  0  0  0
    8.4981  -14.6040   26.2705 C   0  0  2  0  0  0  0  0  0  0  0  0
    7.5158  -15.6096   25.9143 N   0  0  0  0  0  0  0  0  0  0  0  0
    9.4733  -15.2103   27.1878 C   0  0  0  0  0  0  0  0  0  0  0  0
    9.3219  -16.5009   27.7091 O   0  0  0  0  0  0  0  0  0  0  0  0
   10.5095  -14.5989   27.5600 O   0  0  0  0  0  0  0  0  0  0  0  0
  2  1  1  6
  3  2  1  0
  4  3  1  0
  5  4  1  0
  5  6  1  0
  7  6  1  0
  8  2  1  0
  8  9  2  0
 12 11  1  1
 11 10  1  0
 12 13  1  0
 13  8  1  0
 14 12  1  0
 15 14  2  0
 17 16  1  1
 18 17  1  0
 19 17  1  0
 20 19  1  1
 20 21  1  0
 21 14  1  0
 22 20  1  0
 23 22  1  0
 24 22  2  0
M  END
$$$$
