KSL.pdb
     RDKit          3D

 24 23  0  0  1  0  0  0  0  0999 V2000
    6.3066  -16.2355   20.1250 N   0  0  0  0  0  0  0  0  0  0  0  0
    7.3626  -15.5087   20.8010 C   0  0  1  0  0  0  0  0  0  0  0  0
    7.0144  -14.0549   20.8595 C   0  0  0  0  0  0  0  0  0  0  0  0
    7.2217  -13.3531   19.5609 C   0  0  0  0  0  0  0  0  0  0  0  0
    8.6371  -13.4097   19.0544 C   0  0  0  0  0  0  0  0  0  0  0  0
    8.7394  -12.6572   17.7240 C   0  0  0  0  0  0  0  0  0  0  0  0
   10.1255  -12.5804   17.3106 N   0  0  0  0  0  0  0  0  0  0  0  0
    7.5639  -16.0661   22.1853 C   0  0  0  0  0  0  0  0  0  0  0  0
    6.5662  -16.2995   22.8939 O   0  0  0  0  0  0  0  0  0  0  0  0
   10.5661  -18.3660   25.1056 O   0  0  0  0  0  0  0  0  0  0  0  0
   10.2462  -17.8254   23.8791 C   0  0  0  0  0  0  0  0  0  0  0  0
    9.0922  -16.8184   23.9783 C   0  0  2  0  0  0  0  0  0  0  0  0
    8.8802  -16.3085   22.6410 N   0  0  0  0  0  0  0  0  0  0  0  0
    9.4938  -15.6896   24.8836 C   0  0  0  0  0  0  0  0  0  0  0  0
   10.3673  -14.8501   24.5362 O   0  0  0  0  0  0  0  0  0  0  0  0
    5.9124  -12.5081   26.9912 C   0  0  0  0  0  0  0  0  0  0  0  0
    7.1553  -13.1806   26.4585 C   0  0  1  0  0  0  0  0  0  0  0  0
    7.8674  -12.1170   25.6077 C   0  0  0  0  0  0  0  0  0  0  0  0
    8.1233  -13.6051   27.5036 C   0  0  0  0  0  0  0  0  0  0  0  0
    9.2700  -14.4392   27.0664 C   0  0  2  0  0  0  0  0  0  0  0  0
    8.9086  -15.5185   26.1677 N   0  0  0  0  0  0  0  0  0  0  0  0
   10.1166  -14.9873   28.1353 C   0  0  0  0  0  0  0  0  0  0  0  0
   10.8904  -14.1799   28.9779 O   0  0  0  0  0  0  0  0  0  0  0  0
   10.1949  -16.2247   28.3568 O   0  0  0  0  0  0  0  0  0  0  0  0
  2  1  1  1
  3  2  1  0
  4  3  1  0
  5  4  1  0
  5  6  1  0
  7  6  1  0
  8  2  1  0
  8  9  2  0
 12 11  1  6
 11 10  1  0
 12 13  1  0
 13  8  1  0
 14 12  1  0
 15 14  2  0
 17 16  1  1
 18 17  1  0
 19 17  1  0
 20 19  1  1
 20 21  1  0
 21 14  1  0
 22 20  1  0
 23 22  1  0
 24 22  2  0
M  END
$$$$
