KSL.pdb
     RDKit          3D

 24 23  0  0  1  0  0  0  0  0999 V2000
   13.2294  -16.8514   19.9687 N   0  0  0  0  0  0  0  0  0  0  0  0
   12.2009  -17.7018   20.5338 C   0  0  1  0  0  0  0  0  0  0  0  0
   12.8278  -18.9277   21.1189 C   0  0  0  0  0  0  0  0  0  0  0  0
   14.0713  -19.3420   20.4090 C   0  0  0  0  0  0  0  0  0  0  0  0
   14.6790  -20.6148   20.9323 C   0  0  0  0  0  0  0  0  0  0  0  0
   15.9417  -20.9505   20.1325 C   0  0  0  0  0  0  0  0  0  0  0  0
   16.5274  -22.1763   20.6346 N   0  0  0  0  0  0  0  0  0  0  0  0
   11.4281  -16.9450   21.5814 C   0  0  0  0  0  0  0  0  0  0  0  0
   11.8212  -15.8131   21.9225 O   0  0  0  0  0  0  0  0  0  0  0  0
    8.0571  -18.7480   23.1794 O   0  0  0  0  0  0  0  0  0  0  0  0
    8.0650  -17.3782   23.0286 C   0  0  0  0  0  0  0  0  0  0  0  0
    9.4847  -16.8001   23.1042 C   0  0  2  0  0  0  0  0  0  0  0  0
   10.2780  -17.5413   22.1479 N   0  0  0  0  0  0  0  0  0  0  0  0
   10.0372  -17.0169   24.4837 C   0  0  0  0  0  0  0  0  0  0  0  0
   10.9761  -17.8312   24.6928 O   0  0  0  0  0  0  0  0  0  0  0  0
    9.1425  -13.1923   28.5868 C   0  0  0  0  0  0  0  0  0  0  0  0
    9.8604  -14.2017   27.7228 C   0  0  1  0  0  0  0  0  0  0  0  0
   11.3457  -14.0858   28.1005 C   0  0  0  0  0  0  0  0  0  0  0  0
    9.4693  -15.6144   27.9697 C   0  0  0  0  0  0  0  0  0  0  0  0
    9.9101  -16.6233   26.9750 C   0  0  2  0  0  0  0  0  0  0  0  0
    9.5275  -16.3160   25.6104 N   0  0  0  0  0  0  0  0  0  0  0  0
    9.5410  -18.0171   27.2593 C   0  0  0  0  0  0  0  0  0  0  0  0
    8.6482  -18.7422   26.4607 O   0  0  0  0  0  0  0  0  0  0  0  0
   10.0107  -18.6445   28.2452 O   0  0  0  0  0  0  0  0  0  0  0  0
  2  1  1  1
  3  2  1  0
  4  3  1  0
  5  4  1  0
  5  6  1  0
  7  6  1  0
  8  2  1  0
  8  9  2  0
 12 11  1  1
 11 10  1  0
 12 13  1  0
 13  8  1  0
 14 12  1  0
 15 14  2  0
 17 16  1  1
 18 17  1  0
 19 17  1  0
 20 19  1  1
 20 21  1  0
 21 14  1  0
 22 20  1  0
 23 22  1  0
 24 22  2  0
M  END
$$$$
