KSL.pdb
     RDKit          3D

 24 23  0  0  1  0  0  0  0  0999 V2000
    6.4877  -17.3233   20.1206 N   0  0  0  0  0  0  0  0  0  0  0  0
    7.4424  -16.4490   20.7723 C   0  0  1  0  0  0  0  0  0  0  0  0
    6.9845  -15.0295   20.6564 C   0  0  0  0  0  0  0  0  0  0  0  0
    7.6197  -14.3030   19.5204 C   0  0  0  0  0  0  0  0  0  0  0  0
    8.4010  -13.0856   19.9335 C   0  0  0  0  0  0  0  0  0  0  0  0
    8.8452  -12.3107   18.6889 C   0  0  0  0  0  0  0  0  0  0  0  0
    9.4863  -11.0740   19.0853 N   0  0  0  0  0  0  0  0  0  0  0  0
    7.5969  -16.8444   22.2170 C   0  0  0  0  0  0  0  0  0  0  0  0
    6.5763  -17.0782   22.8921 O   0  0  0  0  0  0  0  0  0  0  0  0
    9.9166  -19.4619   23.5848 O   0  0  0  0  0  0  0  0  0  0  0  0
   10.2187  -18.2826   24.2306 C   0  0  0  0  0  0  0  0  0  0  0  0
    9.0609  -17.2774   24.1627 C   0  0  2  0  0  0  0  0  0  0  0  0
    8.8965  -16.9389   22.7657 N   0  0  0  0  0  0  0  0  0  0  0  0
    9.4284  -16.0426   24.9342 C   0  0  0  0  0  0  0  0  0  0  0  0
   10.3762  -15.2979   24.5659 O   0  0  0  0  0  0  0  0  0  0  0  0
    6.9776  -13.1084   25.1483 C   0  0  0  0  0  0  0  0  0  0  0  0
    7.4359  -12.6370   26.5079 C   0  0  1  0  0  0  0  0  0  0  0  0
    6.1852  -12.0557   27.1862 C   0  0  0  0  0  0  0  0  0  0  0  0
    7.9380  -13.7162   27.3983 C   0  0  0  0  0  0  0  0  0  0  0  0
    9.0936  -14.5112   26.9143 C   0  0  2  0  0  0  0  0  0  0  0  0
    8.7263  -15.6604   26.1096 N   0  0  0  0  0  0  0  0  0  0  0  0
   10.0536  -14.9474   27.9380 C   0  0  0  0  0  0  0  0  0  0  0  0
   10.3473  -16.2957   28.1754 O   0  0  0  0  0  0  0  0  0  0  0  0
   10.6725  -14.1268   28.6658 O   0  0  0  0  0  0  0  0  0  0  0  0
  2  1  1  1
  3  2  1  0
  4  3  1  0
  5  4  1  0
  5  6  1  0
  7  6  1  0
  8  2  1  0
  8  9  2  0
 12 11  1  6
 11 10  1  0
 12 13  1  0
 13  8  1  0
 14 12  1  0
 15 14  2  0
 17 16  1  6
 18 17  1  0
 19 17  1  0
 20 19  1  1
 20 21  1  0
 21 14  1  0
 22 20  1  0
 23 22  1  0
 24 22  2  0
M  END
$$$$
