KSL.pdb
     RDKit          3D

 24 23  0  0  1  0  0  0  0  0999 V2000
   11.8267  -18.3743   19.9215 N   0  0  0  0  0  0  0  0  0  0  0  0
   10.5813  -18.2908   20.6578 C   0  0  1  0  0  0  0  0  0  0  0  0
   10.5739  -19.3128   21.7504 C   0  0  0  0  0  0  0  0  0  0  0  0
   10.2434  -20.6828   21.2649 C   0  0  0  0  0  0  0  0  0  0  0  0
   10.2621  -21.7339   22.3411 C   0  0  0  0  0  0  0  0  0  0  0  0
    9.9547  -23.1042   21.7291 C   0  0  0  0  0  0  0  0  0  0  0  0
    9.9259  -24.1101   22.7709 N   0  0  0  0  0  0  0  0  0  0  0  0
   10.4105  -16.9049   21.2214 C   0  0  0  0  0  0  0  0  0  0  0  0
   11.4231  -16.2154   21.4477 O   0  0  0  0  0  0  0  0  0  0  0  0
    6.5799  -15.1977   21.4706 O   0  0  0  0  0  0  0  0  0  0  0  0
    7.7410  -14.4745   21.3033 C   0  0  0  0  0  0  0  0  0  0  0  0
    8.9248  -15.1082   22.0467 C   0  0  2  0  0  0  0  0  0  0  0  0
    9.1050  -16.4261   21.4774 N   0  0  0  0  0  0  0  0  0  0  0  0
    8.5853  -15.2375   23.5038 C   0  0  0  0  0  0  0  0  0  0  0  0
    7.8773  -16.1893   23.9296 O   0  0  0  0  0  0  0  0  0  0  0  0
    5.3907  -12.1471   25.6514 C   0  0  0  0  0  0  0  0  0  0  0  0
    6.8471  -12.5134   25.4911 C   0  0  1  0  0  0  0  0  0  0  0  0
    7.6271  -11.4694   26.3059 C   0  0  0  0  0  0  0  0  0  0  0  0
    7.2134  -13.8433   26.0449 C   0  0  0  0  0  0  0  0  0  0  0  0
    8.6122  -14.2974   25.8476 C   0  0  2  0  0  0  0  0  0  0  0  0
    9.0458  -14.2957   24.4638 N   0  0  0  0  0  0  0  0  0  0  0  0
    8.9617  -15.5947   26.4432 C   0  0  0  0  0  0  0  0  0  0  0  0
    9.5982  -16.6124   25.7222 O   0  0  0  0  0  0  0  0  0  0  0  0
    8.7073  -15.8674   27.6462 O   0  0  0  0  0  0  0  0  0  0  0  0
  2  1  1  1
  3  2  1  0
  4  3  1  0
  5  4  1  0
  5  6  1  0
  7  6  1  0
  8  2  1  0
  8  9  2  0
 12 11  1  6
 11 10  1  0
 12 13  1  0
 13  8  1  0
 14 12  1  0
 15 14  2  0
 17 16  1  1
 18 17  1  0
 19 17  1  0
 20 19  1  6
 20 21  1  0
 21 14  1  0
 22 20  1  0
 23 22  1  0
 24 22  2  0
M  END
$$$$
