KSL.pdb
     RDKit          3D

 24 23  0  0  1  0  0  0  0  0999 V2000
    9.6904  -19.6186   20.9271 N   0  0  0  0  0  0  0  0  0  0  0  0
    8.6384  -18.9773   21.6903 C   0  0  1  0  0  0  0  0  0  0  0  0
    8.5276  -19.6235   23.0350 C   0  0  0  0  0  0  0  0  0  0  0  0
    9.8004  -20.2559   23.4845 C   0  0  0  0  0  0  0  0  0  0  0  0
    9.6514  -21.1361   24.6954 C   0  0  0  0  0  0  0  0  0  0  0  0
   11.0342  -21.5754   25.1871 C   0  0  0  0  0  0  0  0  0  0  0  0
   10.8900  -22.4792   26.3097 N   0  0  0  0  0  0  0  0  0  0  0  0
    8.9277  -17.5059   21.8267 C   0  0  0  0  0  0  0  0  0  0  0  0
   10.1120  -17.1279   21.9092 O   0  0  0  0  0  0  0  0  0  0  0  0
    5.6912  -15.0903   21.8084 O   0  0  0  0  0  0  0  0  0  0  0  0
    6.8220  -14.5227   21.2624 C   0  0  0  0  0  0  0  0  0  0  0  0
    8.1059  -15.1735   21.7949 C   0  0  2  0  0  0  0  0  0  0  0  0
    7.8465  -16.5955   21.8573 N   0  0  0  0  0  0  0  0  0  0  0  0
    8.3886  -14.6580   23.1767 C   0  0  0  0  0  0  0  0  0  0  0  0
    8.4796  -13.4226   23.4092 O   0  0  0  0  0  0  0  0  0  0  0  0
    6.0299  -12.3180   26.0165 C   0  0  0  0  0  0  0  0  0  0  0  0
    7.3500  -12.9441   25.6342 C   0  0  1  0  0  0  0  0  0  0  0  0
    8.4286  -12.0564   26.2754 C   0  0  0  0  0  0  0  0  0  0  0  0
    7.5593  -14.3163   26.1661 C   0  0  0  0  0  0  0  0  0  0  0  0
    8.7232  -15.0748   25.6450 C   0  0  2  0  0  0  0  0  0  0  0  0
    8.5654  -15.5372   24.2796 N   0  0  0  0  0  0  0  0  0  0  0  0
    9.1823  -16.2024   26.4682 C   0  0  0  0  0  0  0  0  0  0  0  0
    9.3299  -17.4993   25.9616 O   0  0  0  0  0  0  0  0  0  0  0  0
    9.4721  -16.0654   27.6862 O   0  0  0  0  0  0  0  0  0  0  0  0
  2  1  1  6
  3  2  1  0
  4  3  1  0
  5  4  1  0
  5  6  1  0
  7  6  1  0
  8  2  1  0
  8  9  2  0
 12 11  1  1
 11 10  1  0
 12 13  1  0
 13  8  1  0
 14 12  1  0
 15 14  2  0
 17 16  1  1
 18 17  1  0
 19 17  1  0
 20 19  1  1
 20 21  1  0
 21 14  1  0
 22 20  1  0
 23 22  1  0
 24 22  2  0
M  END
$$$$
