KSL.pdb
     RDKit          3D

 24 23  0  0  1  0  0  0  0  0999 V2000
   11.6030  -16.7797   19.1751 N   0  0  0  0  0  0  0  0  0  0  0  0
   10.9435  -17.3911   20.3116 C   0  0  1  0  0  0  0  0  0  0  0  0
   11.9655  -18.0061   21.2147 C   0  0  0  0  0  0  0  0  0  0  0  0
   12.7205  -19.1175   20.5691 C   0  0  0  0  0  0  0  0  0  0  0  0
   13.7509  -19.7553   21.4606 C   0  0  0  0  0  0  0  0  0  0  0  0
   14.5476  -20.7951   20.6663 C   0  0  0  0  0  0  0  0  0  0  0  0
   15.6194  -21.3211   21.4862 N   0  0  0  0  0  0  0  0  0  0  0  0
   10.1305  -16.3600   21.0486 C   0  0  0  0  0  0  0  0  0  0  0  0
   10.6692  -15.2846   21.3732 O   0  0  0  0  0  0  0  0  0  0  0  0
    6.1679  -17.2508   21.9313 O   0  0  0  0  0  0  0  0  0  0  0  0
    6.5117  -15.9495   21.6357 C   0  0  0  0  0  0  0  0  0  0  0  0
    7.9680  -15.6409   22.0093 C   0  0  2  0  0  0  0  0  0  0  0  0
    8.7786  -16.6424   21.3511 N   0  0  0  0  0  0  0  0  0  0  0  0
    8.1364  -15.7629   23.4965 C   0  0  0  0  0  0  0  0  0  0  0  0
    8.9393  -16.5944   23.9989 O   0  0  0  0  0  0  0  0  0  0  0  0
    5.9665  -11.6231   26.5899 C   0  0  0  0  0  0  0  0  0  0  0  0
    7.0050  -12.6069   26.1057 C   0  0  1  0  0  0  0  0  0  0  0  0
    8.3399  -12.1186   26.6903 C   0  0  0  0  0  0  0  0  0  0  0  0
    6.8122  -13.9977   26.5936 C   0  0  0  0  0  0  0  0  0  0  0  0
    7.4936  -15.0801   25.8414 C   0  0  2  0  0  0  0  0  0  0  0  0
    7.4004  -14.9491   24.4002 N   0  0  0  0  0  0  0  0  0  0  0  0
    7.1252  -16.4547   26.2086 C   0  0  0  0  0  0  0  0  0  0  0  0
    7.7274  -17.1426   27.2691 O   0  0  0  0  0  0  0  0  0  0  0  0
    6.2393  -17.0976   25.5857 O   0  0  0  0  0  0  0  0  0  0  0  0
  2  1  1  6
  3  2  1  0
  4  3  1  0
  5  4  1  0
  5  6  1  0
  7  6  1  0
  8  2  1  0
  8  9  2  0
 12 11  1  1
 11 10  1  0
 12 13  1  0
 13  8  1  0
 14 12  1  0
 15 14  2  0
 17 16  1  1
 18 17  1  0
 19 17  1  0
 20 19  1  1
 20 21  1  0
 21 14  1  0
 22 20  1  0
 23 22  1  0
 24 22  2  0
M  END
$$$$
