KSL.pdb
     RDKit          3D

 24 23  0  0  1  0  0  0  0  0999 V2000
    8.7559  -16.7027   19.7700 N   0  0  0  0  0  0  0  0  0  0  0  0
    8.9275  -15.3367   20.2227 C   0  0  1  0  0  0  0  0  0  0  0  0
    8.0695  -14.4245   19.4042 C   0  0  0  0  0  0  0  0  0  0  0  0
    8.0874  -14.7555   17.9509 C   0  0  0  0  0  0  0  0  0  0  0  0
    8.0134  -13.5535   17.0492 C   0  0  0  0  0  0  0  0  0  0  0  0
    8.0190  -14.0057   15.5855 C   0  0  0  0  0  0  0  0  0  0  0  0
    7.8958  -12.8532   14.7169 N   0  0  0  0  0  0  0  0  0  0  0  0
    8.5766  -15.2325   21.6833 C   0  0  0  0  0  0  0  0  0  0  0  0
    8.7358  -14.1435   22.2670 O   0  0  0  0  0  0  0  0  0  0  0  0
    8.0725  -18.7411   23.8124 O   0  0  0  0  0  0  0  0  0  0  0  0
    7.2585  -17.6877   24.1686 C   0  0  0  0  0  0  0  0  0  0  0  0
    7.8687  -16.3336   23.7816 C   0  0  2  0  0  0  0  0  0  0  0  0
    8.0765  -16.3744   22.3504 N   0  0  0  0  0  0  0  0  0  0  0  0
    9.1920  -16.1689   24.4722 C   0  0  0  0  0  0  0  0  0  0  0  0
   10.0044  -15.2698   24.1257 O   0  0  0  0  0  0  0  0  0  0  0  0
   11.4247  -13.9417   28.3030 C   0  0  0  0  0  0  0  0  0  0  0  0
   10.1983  -14.7791   28.5776 C   0  0  1  0  0  0  0  0  0  0  0  0
    9.1696  -13.8154   29.1903 C   0  0  0  0  0  0  0  0  0  0  0  0
    9.5644  -15.3611   27.3656 C   0  0  0  0  0  0  0  0  0  0  0  0
   10.2372  -16.5279   26.7431 C   0  0  2  0  0  0  0  0  0  0  0  0
    9.5854  -17.0166   25.5433 N   0  0  0  0  0  0  0  0  0  0  0  0
   10.5012  -17.6712   27.6280 C   0  0  0  0  0  0  0  0  0  0  0  0
   11.7796  -17.9752   28.1117 O   0  0  0  0  0  0  0  0  0  0  0  0
    9.5853  -18.4489   28.0055 O   0  0  0  0  0  0  0  0  0  0  0  0
  2  1  1  6
  3  2  1  0
  4  3  1  0
  5  4  1  0
  5  6  1  0
  7  6  1  0
  8  2  1  0
  8  9  2  0
 12 11  1  1
 11 10  1  0
 12 13  1  0
 13  8  1  0
 14 12  1  0
 15 14  2  0
 17 16  1  6
 18 17  1  0
 19 17  1  0
 20 19  1  1
 20 21  1  0
 21 14  1  0
 22 20  1  0
 23 22  1  0
 24 22  2  0
M  END
$$$$
