KSL.pdb
     RDKit          3D

 24 23  0  0  1  0  0  0  0  0999 V2000
    7.9959  -13.5785   18.1280 N   0  0  0  0  0  0  0  0  0  0  0  0
    8.7981  -14.3363   19.0675 C   0  0  1  0  0  0  0  0  0  0  0  0
   10.0585  -13.5890   19.3693 C   0  0  0  0  0  0  0  0  0  0  0  0
   11.2359  -14.4836   19.5571 C   0  0  0  0  0  0  0  0  0  0  0  0
   12.5343  -13.7512   19.7593 C   0  0  0  0  0  0  0  0  0  0  0  0
   13.6793  -14.7595   19.8977 C   0  0  0  0  0  0  0  0  0  0  0  0
   14.9276  -14.0562   20.1100 N   0  0  0  0  0  0  0  0  0  0  0  0
    8.0119  -14.5884   20.3267 C   0  0  0  0  0  0  0  0  0  0  0  0
    7.1809  -13.7389   20.7008 O   0  0  0  0  0  0  0  0  0  0  0  0
    8.5506  -18.2102   22.4016 O   0  0  0  0  0  0  0  0  0  0  0  0
    7.3273  -17.5798   22.3281 C   0  0  0  0  0  0  0  0  0  0  0  0
    7.4713  -16.0541   22.2440 C   0  0  2  0  0  0  0  0  0  0  0  0
    8.2397  -15.7826   21.0485 N   0  0  0  0  0  0  0  0  0  0  0  0
    8.2261  -15.5590   23.4441 C   0  0  0  0  0  0  0  0  0  0  0  0
    9.4836  -15.4740   23.4379 O   0  0  0  0  0  0  0  0  0  0  0  0
    5.9366  -11.7887   26.9273 C   0  0  0  0  0  0  0  0  0  0  0  0
    6.8233  -12.6099   26.0217 C   0  0  1  0  0  0  0  0  0  0  0  0
    7.9729  -11.6755   25.6121 C   0  0  0  0  0  0  0  0  0  0  0  0
    7.4484  -13.7899   26.6746 C   0  0  0  0  0  0  0  0  0  0  0  0
    8.2553  -14.6913   25.8156 C   0  0  2  0  0  0  0  0  0  0  0  0
    7.5583  -15.1656   24.6357 N   0  0  0  0  0  0  0  0  0  0  0  0
    8.8723  -15.8441   26.4866 C   0  0  0  0  0  0  0  0  0  0  0  0
   10.0356  -15.7378   27.2586 O   0  0  0  0  0  0  0  0  0  0  0  0
    8.3858  -17.0030   26.4055 O   0  0  0  0  0  0  0  0  0  0  0  0
  2  1  1  6
  3  2  1  0
  4  3  1  0
  5  4  1  0
  5  6  1  0
  7  6  1  0
  8  2  1  0
  8  9  2  0
 12 11  1  1
 11 10  1  0
 12 13  1  0
 13  8  1  0
 14 12  1  0
 15 14  2  0
 17 16  1  1
 18 17  1  0
 19 17  1  0
 20 19  1  1
 20 21  1  0
 21 14  1  0
 22 20  1  0
 23 22  1  0
 24 22  2  0
M  END
$$$$
