KSL.pdb
     RDKit          3D

 24 23  0  0  1  0  0  0  0  0999 V2000
    6.1954  -16.7080   19.9530 N   0  0  0  0  0  0  0  0  0  0  0  0
    7.0779  -15.9231   20.7930 C   0  0  1  0  0  0  0  0  0  0  0  0
    6.7023  -14.4777   20.7042 C   0  0  0  0  0  0  0  0  0  0  0  0
    6.9542  -13.8917   19.3570 C   0  0  0  0  0  0  0  0  0  0  0  0
    8.4113  -13.6954   19.0383 C   0  0  0  0  0  0  0  0  0  0  0  0
    8.5532  -12.9988   17.6813 C   0  0  0  0  0  0  0  0  0  0  0  0
    9.9546  -12.8879   17.3324 N   0  0  0  0  0  0  0  0  0  0  0  0
    6.9983  -16.4094   22.2159 C   0  0  0  0  0  0  0  0  0  0  0  0
    5.9099  -16.3405   22.8182 O   0  0  0  0  0  0  0  0  0  0  0  0
   10.0944  -18.6371   23.7852 O   0  0  0  0  0  0  0  0  0  0  0  0
    8.8285  -18.6627   24.3289 C   0  0  0  0  0  0  0  0  0  0  0  0
    8.1313  -17.2992   24.2262 C   0  0  2  0  0  0  0  0  0  0  0  0
    8.1617  -16.9304   22.8275 N   0  0  0  0  0  0  0  0  0  0  0  0
    8.9000  -16.2862   25.0249 C   0  0  0  0  0  0  0  0  0  0  0  0
    9.9561  -15.7636   24.5776 O   0  0  0  0  0  0  0  0  0  0  0  0
    6.2319  -12.4352   27.1700 C   0  0  0  0  0  0  0  0  0  0  0  0
    7.3484  -13.2438   26.5531 C   0  0  1  0  0  0  0  0  0  0  0  0
    8.0745  -12.2830   25.5981 C   0  0  0  0  0  0  0  0  0  0  0  0
    8.3667  -13.7290   27.5213 C   0  0  0  0  0  0  0  0  0  0  0  0
    9.1875  -14.8958   27.1135 C   0  0  2  0  0  0  0  0  0  0  0  0
    8.4722  -15.8734   26.3161 N   0  0  0  0  0  0  0  0  0  0  0  0
    9.8913  -15.6015   28.1937 C   0  0  0  0  0  0  0  0  0  0  0  0
   10.8579  -14.9847   28.9973 O   0  0  0  0  0  0  0  0  0  0  0  0
    9.6631  -16.8109   28.4608 O   0  0  0  0  0  0  0  0  0  0  0  0
  2  1  1  6
  3  2  1  0
  4  3  1  0
  5  4  1  0
  5  6  1  0
  7  6  1  0
  8  2  1  0
  8  9  2  0
 12 11  1  6
 11 10  1  0
 12 13  1  0
 13  8  1  0
 14 12  1  0
 15 14  2  0
 17 16  1  1
 18 17  1  0
 19 17  1  0
 20 19  1  1
 20 21  1  0
 21 14  1  0
 22 20  1  0
 23 22  1  0
 24 22  2  0
M  END
$$$$
