KSL.pdb
     RDKit          3D

 24 23  0  0  1  0  0  0  0  0999 V2000
    7.4638  -17.0087   19.4022 N   0  0  0  0  0  0  0  0  0  0  0  0
    8.2210  -16.1093   20.2497 C   0  0  1  0  0  0  0  0  0  0  0  0
    7.7523  -14.7046   20.0371 C   0  0  0  0  0  0  0  0  0  0  0  0
    7.3963  -14.4172   18.6185 C   0  0  0  0  0  0  0  0  0  0  0  0
    8.3808  -13.5278   17.9091 C   0  0  0  0  0  0  0  0  0  0  0  0
    7.8425  -13.1665   16.5212 C   0  0  0  0  0  0  0  0  0  0  0  0
    8.7599  -12.2605   15.8612 N   0  0  0  0  0  0  0  0  0  0  0  0
    8.0660  -16.5118   21.6923 C   0  0  0  0  0  0  0  0  0  0  0  0
    6.9460  -16.8714   22.1026 O   0  0  0  0  0  0  0  0  0  0  0  0
   11.3105  -17.7412   23.6898 O   0  0  0  0  0  0  0  0  0  0  0  0
   10.0388  -18.0427   24.1266 C   0  0  0  0  0  0  0  0  0  0  0  0
    9.0689  -16.8706   23.9244 C   0  0  2  0  0  0  0  0  0  0  0  0
    9.1968  -16.4699   22.5401 N   0  0  0  0  0  0  0  0  0  0  0  0
    9.4755  -15.7299   24.8124 C   0  0  0  0  0  0  0  0  0  0  0  0
   10.4894  -15.0274   24.5537 O   0  0  0  0  0  0  0  0  0  0  0  0
    6.2160  -11.9726   26.2620 C   0  0  0  0  0  0  0  0  0  0  0  0
    7.4394  -12.7998   25.9459 C   0  0  1  0  0  0  0  0  0  0  0  0
    8.3965  -11.8537   25.2035 C   0  0  0  0  0  0  0  0  0  0  0  0
    8.1744  -13.2953   27.1392 C   0  0  0  0  0  0  0  0  0  0  0  0
    9.1655  -14.3782   26.9230 C   0  0  2  0  0  0  0  0  0  0  0  0
    8.7375  -15.3931   25.9797 N   0  0  0  0  0  0  0  0  0  0  0  0
    9.6668  -15.0477   28.1315 C   0  0  0  0  0  0  0  0  0  0  0  0
   10.3832  -14.3744   29.1285 O   0  0  0  0  0  0  0  0  0  0  0  0
    9.4786  -16.2752   28.3415 O   0  0  0  0  0  0  0  0  0  0  0  0
  2  1  1  6
  3  2  1  0
  4  3  1  0
  5  4  1  0
  5  6  1  0
  7  6  1  0
  8  2  1  0
  8  9  2  0
 12 11  1  6
 11 10  1  0
 12 13  1  0
 13  8  1  0
 14 12  1  0
 15 14  2  0
 17 16  1  1
 18 17  1  0
 19 17  1  0
 20 19  1  1
 20 21  1  0
 21 14  1  0
 22 20  1  0
 23 22  1  0
 24 22  2  0
M  END
$$$$
