KSL.pdb
     RDKit          3D

 24 23  0  0  1  0  0  0  0  0999 V2000
    6.0878  -16.9656   19.8699 N   0  0  0  0  0  0  0  0  0  0  0  0
    7.0937  -16.2022   20.5810 C   0  0  1  0  0  0  0  0  0  0  0  0
    6.6376  -14.7851   20.7292 C   0  0  0  0  0  0  0  0  0  0  0  0
    7.0996  -13.9048   19.6186 C   0  0  0  0  0  0  0  0  0  0  0  0
    8.4111  -13.2185   19.8875 C   0  0  0  0  0  0  0  0  0  0  0  0
    8.6950  -12.1971   18.7817 C   0  0  0  0  0  0  0  0  0  0  0  0
    9.9826  -11.5741   19.0098 N   0  0  0  0  0  0  0  0  0  0  0  0
    7.3523  -16.8239   21.9279 C   0  0  0  0  0  0  0  0  0  0  0  0
    6.4043  -16.9543   22.7255 O   0  0  0  0  0  0  0  0  0  0  0  0
   10.9047  -18.8293   22.5119 O   0  0  0  0  0  0  0  0  0  0  0  0
    9.7553  -19.1367   23.2073 C   0  0  0  0  0  0  0  0  0  0  0  0
    8.9202  -17.8870   23.5179 C   0  0  2  0  0  0  0  0  0  0  0  0
    8.6644  -17.2419   22.2484 N   0  0  0  0  0  0  0  0  0  0  0  0
    9.7153  -16.9628   24.3947 C   0  0  0  0  0  0  0  0  0  0  0  0
   10.6305  -16.2368   23.9216 O   0  0  0  0  0  0  0  0  0  0  0  0
   10.7387  -13.2115   28.0845 C   0  0  0  0  0  0  0  0  0  0  0  0
   10.2523  -14.5059   28.6918 C   0  0  1  0  0  0  0  0  0  0  0  0
    9.2668  -14.0977   29.7983 C   0  0  0  0  0  0  0  0  0  0  0  0
    9.4997  -15.3821   27.7562 C   0  0  0  0  0  0  0  0  0  0  0  0
   10.2751  -16.0506   26.6821 C   0  0  2  0  0  0  0  0  0  0  0  0
    9.4718  -16.8662   25.7918 N   0  0  0  0  0  0  0  0  0  0  0  0
   11.4355  -16.8406   27.1171 C   0  0  0  0  0  0  0  0  0  0  0  0
   11.3228  -18.1516   27.5957 O   0  0  0  0  0  0  0  0  0  0  0  0
   12.6072  -16.3802   27.0834 O   0  0  0  0  0  0  0  0  0  0  0  0
  2  1  1  1
  3  2  1  0
  4  3  1  0
  5  4  1  0
  5  6  1  0
  7  6  1  0
  8  2  1  0
  8  9  2  0
 12 11  1  6
 11 10  1  0
 12 13  1  0
 13  8  1  0
 14 12  1  0
 15 14  2  0
 17 16  1  6
 18 17  1  0
 19 17  1  0
 20 19  1  1
 20 21  1  0
 21 14  1  0
 22 20  1  0
 23 22  1  0
 24 22  2  0
M  END
$$$$
