QCD.pdb
     RDKit          3D

 24 23  0  0  1  0  0  0  0  0999 V2000
    8.5004  -12.1331   16.3983 N   0  0  0  0  0  0  0  0  0  0  0  0
    8.2296  -13.5107   16.1478 C   0  0  0  0  0  0  0  0  0  0  0  0
    8.2875  -13.9409   14.9717 O   0  0  0  0  0  0  0  0  0  0  0  0
    7.8859  -14.4546   17.2295 C   0  0  0  0  0  0  0  0  0  0  0  0
    9.0661  -15.0985   17.8835 C   0  0  0  0  0  0  0  0  0  0  0  0
    8.8018  -16.0595   18.9687 C   0  0  2  0  0  0  0  0  0  0  0  0
    7.5201  -16.7101   18.9418 N   0  0  0  0  0  0  0  0  0  0  0  0
    9.0588  -15.5352   20.3312 C   0  0  0  0  0  0  0  0  0  0  0  0
   10.1839  -15.0345   20.5721 O   0  0  0  0  0  0  0  0  0  0  0  0
    8.1119  -15.5665   21.3735 N   0  0  0  0  0  0  0  0  0  0  0  0
    8.4231  -15.1886   22.7583 C   0  0  1  0  0  0  0  0  0  0  0  0
    7.1081  -14.6713   23.3364 C   0  0  0  0  0  0  0  0  0  0  0  0
    7.2835  -14.2393   25.0556 S   0  0  0  0  0  0  0  0  0  0  0  0
    8.9746  -16.3316   23.4992 C   0  0  0  0  0  0  0  0  0  0  0  0
    8.8872  -17.4866   22.9522 O   0  0  0  0  0  0  0  0  0  0  0  0
    9.5961  -16.2579   24.7669 N   0  0  0  0  0  0  0  0  0  0  0  0
   10.6702  -17.1768   25.0929 C   0  0  1  0  0  0  0  0  0  0  0  0
   11.8144  -17.0789   24.1222 C   0  0  0  0  0  0  0  0  0  0  0  0
   12.8806  -18.0037   24.5868 C   0  0  0  0  0  0  0  0  0  0  0  0
   12.5348  -19.0133   25.2484 O   0  0  0  0  0  0  0  0  0  0  0  0
   11.1514  -16.9505   26.4769 C   0  0  0  0  0  0  0  0  0  0  0  0
   10.7923  -15.9382   27.1206 O   0  0  0  0  0  0  0  0  0  0  0  0
   14.2248  -17.7985   24.3224 O   0  0  0  0  0  0  0  0  0  0  0  0
   12.0038  -17.8530   27.0782 O   0  0  0  0  0  0  0  0  0  0  0  0
  2  1  1  0
  3  2  2  0
  4  2  1  0
  5  4  1  0
  6  7  1  1
  6  8  1  0
  6  5  1  0
  8 10  1  0
  8  9  2  0
 10 11  1  0
 11 14  1  0
 12 13  1  0
 11 12  1  1
 14 16  1  0
 14 15  2  0
 16 17  1  0
 17 21  1  0
 17 18  1  6
 19 18  1  0
 20 19  2  0
 21 22  2  0
 21 24  1  0
 23 19  1  0
M  END
$$$$
