QCD.pdb
     RDKit          3D

 24 23  0  0  1  0  0  0  0  0999 V2000
    8.8031  -12.5795   19.3062 N   0  0  0  0  0  0  0  0  0  0  0  0
    7.8377  -13.3342   18.5765 C   0  0  0  0  0  0  0  0  0  0  0  0
    7.9202  -13.3860   17.3266 O   0  0  0  0  0  0  0  0  0  0  0  0
    6.7414  -14.0640   19.2432 C   0  0  0  0  0  0  0  0  0  0  0  0
    6.8100  -14.0489   20.7367 C   0  0  0  0  0  0  0  0  0  0  0  0
    7.8568  -14.8640   21.3776 C   0  0  2  0  0  0  0  0  0  0  0  0
    7.5506  -16.2559   21.5660 N   0  0  0  0  0  0  0  0  0  0  0  0
    8.3869  -14.3013   22.6424 C   0  0  0  0  0  0  0  0  0  0  0  0
    8.5257  -13.0570   22.7263 O   0  0  0  0  0  0  0  0  0  0  0  0
    8.7448  -15.0835   23.7577 N   0  0  0  0  0  0  0  0  0  0  0  0
    9.1122  -14.5120   25.0599 C   0  0  1  0  0  0  0  0  0  0  0  0
    7.9440  -13.6066   25.4429 C   0  0  0  0  0  0  0  0  0  0  0  0
    8.0802  -13.0553   27.1313 S   0  0  0  0  0  0  0  0  0  0  0  0
    9.3706  -15.5747   26.0414 C   0  0  0  0  0  0  0  0  0  0  0  0
    8.4198  -16.3986   26.2827 O   0  0  0  0  0  0  0  0  0  0  0  0
   10.5859  -15.7618   26.7393 N   0  0  0  0  0  0  0  0  0  0  0  0
   10.7871  -16.9701   27.5164 C   0  0  1  0  0  0  0  0  0  0  0  0
   12.0526  -17.6864   27.1336 C   0  0  0  0  0  0  0  0  0  0  0  0
   12.1378  -18.9217   27.9548 C   0  0  0  0  0  0  0  0  0  0  0  0
   11.0820  -19.5739   28.1457 O   0  0  0  0  0  0  0  0  0  0  0  0
   10.7897  -16.6652   28.9674 C   0  0  0  0  0  0  0  0  0  0  0  0
   10.8050  -15.4800   29.3712 O   0  0  0  0  0  0  0  0  0  0  0  0
   13.3217  -19.3768   28.5119 O   0  0  0  0  0  0  0  0  0  0  0  0
   10.7752  -17.6843   29.8970 O   0  0  0  0  0  0  0  0  0  0  0  0
  2  1  1  0
  3  2  2  0
  4  2  1  0
  5  4  1  0
  6  7  1  1
  6  8  1  0
  6  5  1  0
  8 10  1  0
  8  9  2  0
 10 11  1  0
 11 14  1  0
 12 13  1  0
 11 12  1  1
 14 16  1  0
 14 15  2  0
 16 17  1  0
 17 21  1  0
 17 18  1  6
 19 18  1  0
 20 19  2  0
 21 22  2  0
 21 24  1  0
 23 19  1  0
M  END
$$$$
