QCD.pdb
     RDKit          3D

 24 23  0  0  1  0  0  0  0  0999 V2000
    7.7010  -13.4072   14.4758 N   0  0  0  0  0  0  0  0  0  0  0  0
    7.5971  -14.6427   13.7709 C   0  0  0  0  0  0  0  0  0  0  0  0
    6.7224  -14.7671   12.8815 O   0  0  0  0  0  0  0  0  0  0  0  0
    8.4895  -15.7852   14.0492 C   0  0  0  0  0  0  0  0  0  0  0  0
    9.4842  -15.5391   15.1379 C   0  0  0  0  0  0  0  0  0  0  0  0
    9.3968  -16.3834   16.3423 C   0  0  2  0  0  0  0  0  0  0  0  0
    8.1806  -17.1326   16.5050 N   0  0  0  0  0  0  0  0  0  0  0  0
    9.7165  -15.6834   17.6092 C   0  0  0  0  0  0  0  0  0  0  0  0
   10.8580  -15.1781   17.7364 O   0  0  0  0  0  0  0  0  0  0  0  0
    8.8120  -15.5523   18.6809 N   0  0  0  0  0  0  0  0  0  0  0  0
    9.1384  -14.8556   19.9321 C   0  0  1  0  0  0  0  0  0  0  0  0
    7.7906  -14.4929   20.5508 C   0  0  0  0  0  0  0  0  0  0  0  0
    7.0570  -13.0940   19.7275 S   0  0  0  0  0  0  0  0  0  0  0  0
    9.9676  -15.7035   20.7999 C   0  0  0  0  0  0  0  0  0  0  0  0
    9.8173  -16.9719   20.7030 O   0  0  0  0  0  0  0  0  0  0  0  0
   10.9199  -15.2309   21.7319 N   0  0  0  0  0  0  0  0  0  0  0  0
   11.6820  -16.1798   22.5212 C   0  0  1  0  0  0  0  0  0  0  0  0
   13.1469  -15.8419   22.5553 C   0  0  0  0  0  0  0  0  0  0  0  0
   13.8333  -16.8908   23.3531 C   0  0  0  0  0  0  0  0  0  0  0  0
   13.5723  -18.0911   23.0931 O   0  0  0  0  0  0  0  0  0  0  0  0
   11.1437  -16.2661   23.9000 C   0  0  0  0  0  0  0  0  0  0  0  0
   10.3559  -15.3949   24.3339 O   0  0  0  0  0  0  0  0  0  0  0  0
   14.7389  -16.6003   24.3604 O   0  0  0  0  0  0  0  0  0  0  0  0
   11.5028  -17.3094   24.7279 O   0  0  0  0  0  0  0  0  0  0  0  0
  2  1  1  0
  3  2  2  0
  4  2  1  0
  5  4  1  0
  6  7  1  1
  6  8  1  0
  6  5  1  0
  8 10  1  0
  8  9  2  0
 10 11  1  0
 11 14  1  0
 12 13  1  0
 11 12  1  1
 14 16  1  0
 14 15  2  0
 16 17  1  0
 17 21  1  0
 17 18  1  1
 19 18  1  0
 20 19  2  0
 21 22  2  0
 21 24  1  0
 23 19  1  0
M  END
$$$$
