QCD.pdb
     RDKit          3D

 24 23  0  0  1  0  0  0  0  0999 V2000
    7.7401  -12.9460   16.6036 N   0  0  0  0  0  0  0  0  0  0  0  0
    7.9882  -14.1100   15.8177 C   0  0  0  0  0  0  0  0  0  0  0  0
    7.4133  -14.2338   14.7105 O   0  0  0  0  0  0  0  0  0  0  0  0
    8.9054  -15.1784   16.2611 C   0  0  0  0  0  0  0  0  0  0  0  0
    9.5580  -14.9214   17.5815 C   0  0  0  0  0  0  0  0  0  0  0  0
    9.3914  -15.9409   18.6321 C   0  0  2  0  0  0  0  0  0  0  0  0
    8.1780  -16.7103   18.5828 N   0  0  0  0  0  0  0  0  0  0  0  0
    9.6022  -15.4427   20.0122 C   0  0  0  0  0  0  0  0  0  0  0  0
   10.6851  -14.8664   20.2762 O   0  0  0  0  0  0  0  0  0  0  0  0
    8.6561  -15.5790   21.0467 N   0  0  0  0  0  0  0  0  0  0  0  0
    8.9086  -15.1604   22.4317 C   0  0  1  0  0  0  0  0  0  0  0  0
    7.5259  -14.9452   23.0424 C   0  0  0  0  0  0  0  0  0  0  0  0
    7.6263  -14.7229   24.8070 S   0  0  0  0  0  0  0  0  0  0  0  0
    9.7084  -16.1672   23.1431 C   0  0  0  0  0  0  0  0  0  0  0  0
    9.3046  -17.3819   23.0963 O   0  0  0  0  0  0  0  0  0  0  0  0
   10.8898  -15.9024   23.8733 N   0  0  0  0  0  0  0  0  0  0  0  0
   11.4917  -16.9557   24.6686 C   0  0  1  0  0  0  0  0  0  0  0  0
   12.9870  -16.8202   24.7506 C   0  0  0  0  0  0  0  0  0  0  0  0
   13.5087  -16.7316   23.3621 C   0  0  0  0  0  0  0  0  0  0  0  0
   13.2371  -17.6689   22.5719 O   0  0  0  0  0  0  0  0  0  0  0  0
   10.9044  -16.9851   26.0297 C   0  0  0  0  0  0  0  0  0  0  0  0
   10.0270  -16.1569   26.3650 O   0  0  0  0  0  0  0  0  0  0  0  0
   14.2738  -15.6688   22.9103 O   0  0  0  0  0  0  0  0  0  0  0  0
   11.3160  -17.9269   26.9497 O   0  0  0  0  0  0  0  0  0  0  0  0
  2  1  1  0
  3  2  2  0
  4  2  1  0
  5  4  1  0
  6  7  1  1
  6  8  1  0
  6  5  1  0
  8 10  1  0
  8  9  2  0
 10 11  1  0
 11 14  1  0
 12 13  1  0
 11 12  1  1
 14 16  1  0
 14 15  2  0
 16 17  1  0
 17 21  1  0
 17 18  1  1
 19 18  1  0
 20 19  2  0
 21 22  2  0
 21 24  1  0
 23 19  1  0
M  END
$$$$
