QCD.pdb
     RDKit          3D

 24 23  0  0  1  0  0  0  0  0999 V2000
    8.5877  -12.3912   17.9738 N   0  0  0  0  0  0  0  0  0  0  0  0
    7.8434  -13.5321   17.5515 C   0  0  0  0  0  0  0  0  0  0  0  0
    7.5738  -13.6697   16.3349 O   0  0  0  0  0  0  0  0  0  0  0  0
    7.3798  -14.5645   18.4993 C   0  0  0  0  0  0  0  0  0  0  0  0
    7.7767  -14.3195   19.9198 C   0  0  0  0  0  0  0  0  0  0  0  0
    8.3956  -15.4363   20.6551 C   0  0  2  0  0  0  0  0  0  0  0  0
    7.6513  -16.6659   20.6854 N   0  0  0  0  0  0  0  0  0  0  0  0
    8.8419  -15.0974   22.0274 C   0  0  0  0  0  0  0  0  0  0  0  0
    9.2119  -13.9208   22.2577 O   0  0  0  0  0  0  0  0  0  0  0  0
    8.8751  -16.0212   23.0902 N   0  0  0  0  0  0  0  0  0  0  0  0
    9.3564  -15.6855   24.4366 C   0  0  1  0  0  0  0  0  0  0  0  0
    8.3403  -14.6877   24.9871 C   0  0  0  0  0  0  0  0  0  0  0  0
    6.7097  -15.4008   25.0619 S   0  0  0  0  0  0  0  0  0  0  0  0
    9.4882  -16.8956   25.2599 C   0  0  0  0  0  0  0  0  0  0  0  0
    8.4970  -17.7069   25.2789 O   0  0  0  0  0  0  0  0  0  0  0  0
   10.6228  -17.2372   26.0312 N   0  0  0  0  0  0  0  0  0  0  0  0
   10.6391  -18.4873   26.7670 C   0  0  1  0  0  0  0  0  0  0  0  0
   11.7788  -19.3755   26.3507 C   0  0  0  0  0  0  0  0  0  0  0  0
   12.1152  -19.0469   24.9412 C   0  0  0  0  0  0  0  0  0  0  0  0
   11.1828  -19.0448   24.1002 O   0  0  0  0  0  0  0  0  0  0  0  0
   10.6927  -18.2351   28.2270 C   0  0  0  0  0  0  0  0  0  0  0  0
   10.6877  -19.1872   29.0405 O   0  0  0  0  0  0  0  0  0  0  0  0
   13.4013  -18.7468   24.5231 O   0  0  0  0  0  0  0  0  0  0  0  0
   10.7491  -16.9454   28.7132 O   0  0  0  0  0  0  0  0  0  0  0  0
  2  1  1  0
  3  2  2  0
  4  2  1  0
  5  4  1  0
  6  7  1  1
  6  8  1  0
  6  5  1  0
  8 10  1  0
  8  9  2  0
 10 11  1  0
 11 14  1  0
 12 13  1  0
 11 12  1  1
 14 16  1  0
 14 15  2  0
 16 17  1  0
 17 21  1  0
 17 18  1  6
 19 18  1  0
 20 19  2  0
 21 22  2  0
 21 24  1  0
 23 19  1  0
M  END
$$$$
