QCD.pdb
     RDKit          3D

 24 23  0  0  1  0  0  0  0  0999 V2000
    9.4749  -14.5703   15.5330 N   0  0  0  0  0  0  0  0  0  0  0  0
    8.1458  -14.1241   15.7944 C   0  0  0  0  0  0  0  0  0  0  0  0
    7.2902  -14.1839   14.8800 O   0  0  0  0  0  0  0  0  0  0  0  0
    7.7376  -13.5952   17.1107 C   0  0  0  0  0  0  0  0  0  0  0  0
    8.8122  -13.6316   18.1495 C   0  0  0  0  0  0  0  0  0  0  0  0
    8.8592  -14.8058   19.0383 C   0  0  2  0  0  0  0  0  0  0  0  0
    7.7382  -15.7028   18.9642 N   0  0  0  0  0  0  0  0  0  0  0  0
    9.1449  -14.4917   20.4586 C   0  0  0  0  0  0  0  0  0  0  0  0
   10.1992  -13.8669   20.7278 O   0  0  0  0  0  0  0  0  0  0  0  0
    8.3003  -14.8547   21.5257 N   0  0  0  0  0  0  0  0  0  0  0  0
    8.6819  -14.7229   22.9379 C   0  0  1  0  0  0  0  0  0  0  0  0
    7.3944  -14.3445   23.6661 C   0  0  0  0  0  0  0  0  0  0  0  0
    7.6229  -14.3591   25.4326 S   0  0  0  0  0  0  0  0  0  0  0  0
    9.2859  -15.9677   23.4331 C   0  0  0  0  0  0  0  0  0  0  0  0
    8.6372  -17.0554   23.2405 O   0  0  0  0  0  0  0  0  0  0  0  0
   10.5273  -16.0610   24.1033 N   0  0  0  0  0  0  0  0  0  0  0  0
   11.0669  -17.3663   24.4336 C   0  0  1  0  0  0  0  0  0  0  0  0
   12.5701  -17.3836   24.4000 C   0  0  0  0  0  0  0  0  0  0  0  0
   12.9978  -16.8579   23.0777 C   0  0  0  0  0  0  0  0  0  0  0  0
   13.7337  -15.8407   23.0604 O   0  0  0  0  0  0  0  0  0  0  0  0
   10.5787  -17.8146   25.7599 C   0  0  0  0  0  0  0  0  0  0  0  0
    9.8698  -17.0629   26.4673 O   0  0  0  0  0  0  0  0  0  0  0  0
   12.6212  -17.4384   21.8776 O   0  0  0  0  0  0  0  0  0  0  0  0
   10.8984  -19.0690   26.2363 O   0  0  0  0  0  0  0  0  0  0  0  0
  2  1  1  0
  3  2  2  0
  4  2  1  0
  5  4  1  0
  6  7  1  1
  6  8  1  0
  6  5  1  0
  8 10  1  0
  8  9  2  0
 10 11  1  0
 11 14  1  0
 12 13  1  0
 11 12  1  1
 14 16  1  0
 14 15  2  0
 16 17  1  0
 17 21  1  0
 17 18  1  1
 19 18  1  0
 20 19  2  0
 21 22  2  0
 21 24  1  0
 23 19  1  0
M  END
$$$$
