QCD.pdb
     RDKit          3D

 24 23  0  0  1  0  0  0  0  0999 V2000
    9.5528  -14.2258   15.1684 N   0  0  0  0  0  0  0  0  0  0  0  0
    8.2165  -13.8171   15.4531 C   0  0  0  0  0  0  0  0  0  0  0  0
    7.3698  -13.8090   14.5285 O   0  0  0  0  0  0  0  0  0  0  0  0
    7.7905  -13.4048   16.8050 C   0  0  0  0  0  0  0  0  0  0  0  0
    8.8595  -13.5057   17.8454 C   0  0  0  0  0  0  0  0  0  0  0  0
    8.8234  -14.6707   18.7466 C   0  0  2  0  0  0  0  0  0  0  0  0
    7.7349  -15.5895   18.5525 N   0  0  0  0  0  0  0  0  0  0  0  0
    8.9357  -14.3384   20.1869 C   0  0  0  0  0  0  0  0  0  0  0  0
    9.8484  -13.5558   20.5461 O   0  0  0  0  0  0  0  0  0  0  0  0
    8.0760  -14.8512   21.1779 N   0  0  0  0  0  0  0  0  0  0  0  0
    8.3245  -14.7021   22.6178 C   0  0  1  0  0  0  0  0  0  0  0  0
    7.0443  -14.0917   23.1831 C   0  0  0  0  0  0  0  0  0  0  0  0
    7.1269  -13.9441   24.9563 S   0  0  0  0  0  0  0  0  0  0  0  0
    8.6691  -15.9956   23.2240 C   0  0  0  0  0  0  0  0  0  0  0  0
    8.3585  -17.0539   22.5723 O   0  0  0  0  0  0  0  0  0  0  0  0
    9.3184  -16.1655   24.4684 N   0  0  0  0  0  0  0  0  0  0  0  0
   10.4594  -17.0560   24.5656 C   0  0  1  0  0  0  0  0  0  0  0  0
   11.5428  -16.6986   23.5860 C   0  0  0  0  0  0  0  0  0  0  0  0
   12.6211  -17.7126   23.7161 C   0  0  0  0  0  0  0  0  0  0  0  0
   12.3179  -18.8343   24.1919 O   0  0  0  0  0  0  0  0  0  0  0  0
   10.9998  -17.0663   25.9462 C   0  0  0  0  0  0  0  0  0  0  0  0
   10.9045  -16.0539   26.6771 O   0  0  0  0  0  0  0  0  0  0  0  0
   13.9320  -17.4722   23.3381 O   0  0  0  0  0  0  0  0  0  0  0  0
   11.6171  -18.1931   26.4482 O   0  0  0  0  0  0  0  0  0  0  0  0
  2  1  1  0
  3  2  2  0
  4  2  1  0
  5  4  1  0
  6  7  1  1
  6  8  1  0
  6  5  1  0
  8 10  1  0
  8  9  2  0
 10 11  1  0
 11 14  1  0
 12 13  1  0
 11 12  1  1
 14 16  1  0
 14 15  2  0
 16 17  1  0
 17 21  1  0
 17 18  1  6
 19 18  1  0
 20 19  2  0
 21 22  2  0
 21 24  1  0
 23 19  1  0
M  END
$$$$
