QCD.pdb
     RDKit          3D

 24 23  0  0  1  0  0  0  0  0999 V2000
    9.1522  -17.8562   14.2812 N   0  0  0  0  0  0  0  0  0  0  0  0
    8.0009  -17.0702   14.5824 C   0  0  0  0  0  0  0  0  0  0  0  0
    7.1893  -16.7991   13.6661 O   0  0  0  0  0  0  0  0  0  0  0  0
    7.7264  -16.5649   15.9419 C   0  0  0  0  0  0  0  0  0  0  0  0
    8.7564  -16.9404   16.9584 C   0  0  0  0  0  0  0  0  0  0  0  0
    8.2781  -17.4672   18.2487 C   0  0  2  0  0  0  0  0  0  0  0  0
    6.8700  -17.7426   18.3387 N   0  0  0  0  0  0  0  0  0  0  0  0
    8.7016  -16.6788   19.4304 C   0  0  0  0  0  0  0  0  0  0  0  0
    9.9262  -16.4534   19.5857 O   0  0  0  0  0  0  0  0  0  0  0  0
    7.8079  -16.1672   20.3913 N   0  0  0  0  0  0  0  0  0  0  0  0
    8.2439  -15.5280   21.6397 C   0  0  1  0  0  0  0  0  0  0  0  0
    6.9739  -14.9456   22.2552 C   0  0  0  0  0  0  0  0  0  0  0  0
    7.3218  -14.1199   23.7948 S   0  0  0  0  0  0  0  0  0  0  0  0
    8.9218  -16.4968   22.5123 C   0  0  0  0  0  0  0  0  0  0  0  0
    8.8082  -17.7379   22.2159 O   0  0  0  0  0  0  0  0  0  0  0  0
    9.6914  -16.1683   23.6519 N   0  0  0  0  0  0  0  0  0  0  0  0
   10.7318  -17.0747   24.0995 C   0  0  1  0  0  0  0  0  0  0  0  0
   11.7677  -17.3179   23.0370 C   0  0  0  0  0  0  0  0  0  0  0  0
   12.8033  -18.2140   23.6134 C   0  0  0  0  0  0  0  0  0  0  0  0
   12.4201  -19.2715   24.1715 O   0  0  0  0  0  0  0  0  0  0  0  0
   11.3744  -16.5654   25.3348 C   0  0  0  0  0  0  0  0  0  0  0  0
   11.0879  -15.4319   25.7834 O   0  0  0  0  0  0  0  0  0  0  0  0
   14.1586  -17.9323   23.5604 O   0  0  0  0  0  0  0  0  0  0  0  0
   12.2996  -17.3336   26.0106 O   0  0  0  0  0  0  0  0  0  0  0  0
  2  1  1  0
  3  2  2  0
  4  2  1  0
  5  4  1  0
  6  7  1  6
  6  8  1  0
  6  5  1  0
  8 10  1  0
  8  9  2  0
 10 11  1  0
 11 14  1  0
 12 13  1  0
 11 12  1  1
 14 16  1  0
 14 15  2  0
 16 17  1  0
 17 21  1  0
 17 18  1  6
 19 18  1  0
 20 19  2  0
 21 22  2  0
 21 24  1  0
 23 19  1  0
M  END
$$$$
