QCD.pdb
     RDKit          3D

 24 23  0  0  1  0  0  0  0  0999 V2000
    9.4387  -13.2597   18.3207 N   0  0  0  0  0  0  0  0  0  0  0  0
    8.1262  -13.7155   17.9989 C   0  0  0  0  0  0  0  0  0  0  0  0
    7.9036  -14.1795   16.8557 O   0  0  0  0  0  0  0  0  0  0  0  0
    7.0151  -13.6642   18.9694 C   0  0  0  0  0  0  0  0  0  0  0  0
    7.4260  -13.2891   20.3571 C   0  0  0  0  0  0  0  0  0  0  0  0
    7.7630  -14.3825   21.2855 C   0  0  2  0  0  0  0  0  0  0  0  0
    6.7811  -15.4236   21.4226 N   0  0  0  0  0  0  0  0  0  0  0  0
    8.1977  -13.9360   22.6305 C   0  0  0  0  0  0  0  0  0  0  0  0
    9.1816  -13.1614   22.7095 O   0  0  0  0  0  0  0  0  0  0  0  0
    7.5695  -14.3316   23.8275 N   0  0  0  0  0  0  0  0  0  0  0  0
    8.0243  -13.9044   25.1571 C   0  0  1  0  0  0  0  0  0  0  0  0
    6.7471  -13.6753   25.9617 C   0  0  0  0  0  0  0  0  0  0  0  0
    7.1128  -13.0631   27.5941 S   0  0  0  0  0  0  0  0  0  0  0  0
    8.9140  -14.9113   25.7522 C   0  0  0  0  0  0  0  0  0  0  0  0
    9.4665  -14.6224   26.8712 O   0  0  0  0  0  0  0  0  0  0  0  0
    9.2072  -16.1746   25.1892 N   0  0  0  0  0  0  0  0  0  0  0  0
   10.1106  -17.0748   25.8804 C   0  0  1  0  0  0  0  0  0  0  0  0
   11.5473  -16.8321   25.5089 C   0  0  0  0  0  0  0  0  0  0  0  0
   11.7801  -17.4515   24.1785 C   0  0  0  0  0  0  0  0  0  0  0  0
   11.2911  -18.5884   23.9664 O   0  0  0  0  0  0  0  0  0  0  0  0
    9.9356  -16.9671   27.3487 C   0  0  0  0  0  0  0  0  0  0  0  0
    9.1203  -16.1515   27.8368 O   0  0  0  0  0  0  0  0  0  0  0  0
   12.5068  -16.8320   23.1749 O   0  0  0  0  0  0  0  0  0  0  0  0
   10.6694  -17.7650   28.2017 O   0  0  0  0  0  0  0  0  0  0  0  0
  2  1  1  0
  3  2  2  0
  4  2  1  0
  5  4  1  0
  6  7  1  1
  6  8  1  0
  6  5  1  0
  8 10  1  0
  8  9  2  0
 10 11  1  0
 11 14  1  0
 12 13  1  0
 11 12  1  1
 14 16  1  0
 14 15  2  0
 16 17  1  0
 17 21  1  0
 17 18  1  1
 19 18  1  0
 20 19  2  0
 21 22  2  0
 21 24  1  0
 23 19  1  0
M  END
$$$$
