QCD.pdb
     RDKit          3D

 24 23  0  0  1  0  0  0  0  0999 V2000
    7.1817  -18.5926   19.4841 N   0  0  0  0  0  0  0  0  0  0  0  0
    6.6167  -17.6285   18.5980 C   0  0  0  0  0  0  0  0  0  0  0  0
    6.0594  -18.0188   17.5451 O   0  0  0  0  0  0  0  0  0  0  0  0
    6.6609  -16.1799   18.8791 C   0  0  0  0  0  0  0  0  0  0  0  0
    7.2061  -15.8302   20.2266 C   0  0  0  0  0  0  0  0  0  0  0  0
    7.1058  -14.4245   20.6568 C   0  0  2  0  0  0  0  0  0  0  0  0
    7.3414  -13.4326   19.6432 N   0  0  0  0  0  0  0  0  0  0  0  0
    7.8990  -14.0922   21.8642 C   0  0  0  0  0  0  0  0  0  0  0  0
    9.0291  -13.5702   21.7068 O   0  0  0  0  0  0  0  0  0  0  0  0
    7.4573  -14.3290   23.1805 N   0  0  0  0  0  0  0  0  0  0  0  0
    8.3192  -14.1795   24.3603 C   0  0  1  0  0  0  0  0  0  0  0  0
    7.4504  -13.4817   25.4040 C   0  0  0  0  0  0  0  0  0  0  0  0
    5.9730  -14.4167   25.7446 S   0  0  0  0  0  0  0  0  0  0  0  0
    8.8262  -15.4853   24.8044 C   0  0  0  0  0  0  0  0  0  0  0  0
    8.0756  -16.5055   24.6130 O   0  0  0  0  0  0  0  0  0  0  0  0
   10.0777  -15.7058   25.4242 N   0  0  0  0  0  0  0  0  0  0  0  0
   10.4598  -17.0515   25.8081 C   0  0  1  0  0  0  0  0  0  0  0  0
   11.9263  -17.3069   25.5958 C   0  0  0  0  0  0  0  0  0  0  0  0
   12.2303  -17.0302   24.1680 C   0  0  0  0  0  0  0  0  0  0  0  0
   11.6262  -17.7042   23.2977 O   0  0  0  0  0  0  0  0  0  0  0  0
   10.0923  -17.3178   27.2196 C   0  0  0  0  0  0  0  0  0  0  0  0
    9.5977  -16.4148   27.9323 O   0  0  0  0  0  0  0  0  0  0  0  0
   13.1431  -16.0698   23.7636 O   0  0  0  0  0  0  0  0  0  0  0  0
   10.2897  -18.5668   27.7709 O   0  0  0  0  0  0  0  0  0  0  0  0
  2  1  1  0
  3  2  2  0
  4  2  1  0
  5  4  1  0
  6  7  1  6
  6  8  1  0
  6  5  1  0
  8 10  1  0
  8  9  2  0
 10 11  1  0
 11 14  1  0
 12 13  1  0
 11 12  1  1
 14 16  1  0
 14 15  2  0
 16 17  1  0
 17 21  1  0
 17 18  1  1
 19 18  1  0
 20 19  2  0
 21 22  2  0
 21 24  1  0
 23 19  1  0
M  END
$$$$
