QCD.pdb
     RDKit          3D

 24 23  0  0  1  0  0  0  0  0999 V2000
    9.4297  -14.4749   13.6737 N   0  0  0  0  0  0  0  0  0  0  0  0
    8.2276  -15.1678   13.3437 C   0  0  0  0  0  0  0  0  0  0  0  0
    8.1085  -15.6761   12.2039 O   0  0  0  0  0  0  0  0  0  0  0  0
    7.1141  -15.3125   14.3019 C   0  0  0  0  0  0  0  0  0  0  0  0
    7.3935  -14.7536   15.6602 C   0  0  0  0  0  0  0  0  0  0  0  0
    8.1742  -15.5873   16.5911 C   0  0  2  0  0  0  0  0  0  0  0  0
    7.5439  -16.7996   17.0380 N   0  0  0  0  0  0  0  0  0  0  0  0
    8.7216  -14.8578   17.7596 C   0  0  0  0  0  0  0  0  0  0  0  0
    8.7001  -13.6033   17.7395 O   0  0  0  0  0  0  0  0  0  0  0  0
    9.2657  -15.4919   18.8935 N   0  0  0  0  0  0  0  0  0  0  0  0
    9.2169  -14.9138   20.2429 C   0  0  1  0  0  0  0  0  0  0  0  0
    7.7336  -14.6942   20.5300 C   0  0  0  0  0  0  0  0  0  0  0  0
    7.4702  -14.1862   22.2170 S   0  0  0  0  0  0  0  0  0  0  0  0
    9.8724  -15.8008   21.2140 C   0  0  0  0  0  0  0  0  0  0  0  0
    9.3988  -16.9838   21.3456 O   0  0  0  0  0  0  0  0  0  0  0  0
   10.9856  -15.4534   22.0134 N   0  0  0  0  0  0  0  0  0  0  0  0
   11.5784  -16.4480   22.8873 C   0  0  1  0  0  0  0  0  0  0  0  0
   12.9600  -16.0582   23.3349 C   0  0  0  0  0  0  0  0  0  0  0  0
   13.8035  -15.9128   22.1203 C   0  0  0  0  0  0  0  0  0  0  0  0
   14.6229  -14.9622   22.0849 O   0  0  0  0  0  0  0  0  0  0  0  0
   10.7099  -16.6967   24.0629 C   0  0  0  0  0  0  0  0  0  0  0  0
    9.6816  -16.0083   24.2546 O   0  0  0  0  0  0  0  0  0  0  0  0
   13.7224  -16.7741   21.0384 O   0  0  0  0  0  0  0  0  0  0  0  0
   11.0214  -17.6922   24.9655 O   0  0  0  0  0  0  0  0  0  0  0  0
  2  1  1  0
  3  2  2  0
  4  2  1  0
  5  4  1  0
  6  7  1  1
  6  8  1  0
  6  5  1  0
  8 10  1  0
  8  9  2  0
 10 11  1  0
 11 14  1  0
 12 13  1  0
 11 12  1  1
 14 16  1  0
 14 15  2  0
 16 17  1  0
 17 21  1  0
 17 18  1  1
 19 18  1  0
 20 19  2  0
 21 22  2  0
 21 24  1  0
 23 19  1  0
M  END
$$$$
