QCD.pdb
     RDKit          3D

 24 23  0  0  1  0  0  0  0  0999 V2000
   10.4486  -18.4388   22.2760 N   0  0  0  0  0  0  0  0  0  0  0  0
   10.8792  -18.7334   20.9487 C   0  0  0  0  0  0  0  0  0  0  0  0
   11.9821  -19.3040   20.7765 O   0  0  0  0  0  0  0  0  0  0  0  0
   10.0673  -18.3926   19.7639 C   0  0  0  0  0  0  0  0  0  0  0  0
    8.7535  -17.7530   20.0805 C   0  0  0  0  0  0  0  0  0  0  0  0
    8.6174  -16.3106   19.8123 C   0  0  2  0  0  0  0  0  0  0  0  0
    9.3259  -15.8086   18.6666 N   0  0  0  0  0  0  0  0  0  0  0  0
    8.8899  -15.4390   20.9800 C   0  0  0  0  0  0  0  0  0  0  0  0
    8.9268  -14.1980   20.7986 O   0  0  0  0  0  0  0  0  0  0  0  0
    9.1105  -15.9237   22.2839 N   0  0  0  0  0  0  0  0  0  0  0  0
    8.9971  -15.0873   23.4859 C   0  0  1  0  0  0  0  0  0  0  0  0
    7.6019  -14.4714   23.4139 C   0  0  0  0  0  0  0  0  0  0  0  0
    7.1803  -13.6468   24.9356 S   0  0  0  0  0  0  0  0  0  0  0  0
    9.2186  -15.8857   24.6995 C   0  0  0  0  0  0  0  0  0  0  0  0
    8.5229  -16.9523   24.8390 O   0  0  0  0  0  0  0  0  0  0  0  0
   10.1402  -15.5719   25.7248 N   0  0  0  0  0  0  0  0  0  0  0  0
   10.6865  -16.6348   26.5471 C   0  0  1  0  0  0  0  0  0  0  0  0
    9.6213  -17.5743   27.0407 C   0  0  0  0  0  0  0  0  0  0  0  0
   10.2554  -18.5068   28.0084 C   0  0  0  0  0  0  0  0  0  0  0  0
    9.7198  -19.6295   28.1791 O   0  0  0  0  0  0  0  0  0  0  0  0
   11.7296  -17.3855   25.8078 C   0  0  0  0  0  0  0  0  0  0  0  0
   12.3758  -18.3006   26.3676 O   0  0  0  0  0  0  0  0  0  0  0  0
   11.4003  -18.1902   28.7212 O   0  0  0  0  0  0  0  0  0  0  0  0
   12.0052  -17.0874   24.4895 O   0  0  0  0  0  0  0  0  0  0  0  0
  2  1  1  0
  3  2  2  0
  4  2  1  0
  5  4  1  0
  6  7  1  6
  6  8  1  0
  6  5  1  0
  8 10  1  0
  8  9  2  0
 10 11  1  0
 11 14  1  0
 12 13  1  0
 11 12  1  1
 14 16  1  0
 14 15  2  0
 16 17  1  0
 17 21  1  0
 17 18  1  6
 19 18  1  0
 20 19  2  0
 21 22  2  0
 21 24  1  0
 23 19  1  0
M  END
$$$$
