TEI.pdb
     RDKit          3D

 25 24  0  0  1  0  0  0  0  0999 V2000
    8.5496  -12.4787   18.4260 C   0  0  0  0  0  0  0  0  0  0  0  0
    8.6702  -13.1937   19.7547 C   0  0  1  0  0  0  0  0  0  0  0  0
    8.3169  -12.3417   20.7710 O   0  0  0  0  0  0  0  0  0  0  0  0
    7.8625  -14.4767   19.7650 C   0  0  2  0  0  0  0  0  0  0  0  0
    6.4755  -14.1150   19.5595 N   0  0  0  0  0  0  0  0  0  0  0  0
    8.0095  -15.1021   21.0768 C   0  0  0  0  0  0  0  0  0  0  0  0
    7.1425  -14.8980   21.9623 O   0  0  0  0  0  0  0  0  0  0  0  0
    9.0957  -15.9521   21.4385 N   0  0  0  0  0  0  0  0  0  0  0  0
    9.2325  -16.6041   22.7170 C   0  0  1  0  0  0  0  0  0  0  0  0
   10.1987  -17.7512   22.7311 C   0  0  0  0  0  0  0  0  0  0  0  0
   10.3935  -18.4460   24.0266 C   0  0  0  0  0  0  0  0  0  0  0  0
   11.3780  -19.5287   23.9132 C   0  0  0  0  0  0  0  0  0  0  0  0
   12.5800  -19.2641   23.7352 O   0  0  0  0  0  0  0  0  0  0  0  0
    9.4490  -15.6947   23.8520 C   0  0  0  0  0  0  0  0  0  0  0  0
   10.3798  -14.8542   23.7748 O   0  0  0  0  0  0  0  0  0  0  0  0
   10.9672  -20.8392   24.0043 O   0  0  0  0  0  0  0  0  0  0  0  0
    6.0762  -12.3779   25.6527 C   0  0  0  0  0  0  0  0  0  0  0  0
    7.3784  -13.1190   25.2958 C   0  0  0  0  0  0  0  0  0  0  0  0
    7.8018  -13.9170   26.4964 C   0  0  2  0  0  0  0  0  0  0  0  0
    8.0241  -13.0339   27.7046 C   0  0  0  0  0  0  0  0  0  0  0  0
    8.9676  -14.7819   26.1701 C   0  0  2  0  0  0  0  0  0  0  0  0
    8.6855  -15.6846   25.0525 N   0  0  0  0  0  0  0  0  0  0  0  0
    9.4857  -15.6092   27.2714 C   0  0  0  0  0  0  0  0  0  0  0  0
    9.3073  -16.9725   27.3959 O   0  0  0  0  0  0  0  0  0  0  0  0
   10.1454  -15.0608   28.1878 O   0  0  0  0  0  0  0  0  0  0  0  0
  2  3  1  0
  2  1  1  6
  4  5  1  1
  4  2  1  0
  6  4  1  0
  7  6  2  0
  8  6  1  0
  9  8  1  0
  9 10  1  6
 11 10  1  0
 12 11  1  0
 13 12  2  0
 14  9  1  0
 14 22  1  0
 15 14  2  0
 16 12  1  0
 17 18  1  0
 19 18  1  0
 19 21  1  0
 19 20  1  1
 21 22  1  6
 21 23  1  0
 23 25  2  0
 23 24  1  0
M  END
$$$$
