TEI.pdb
     RDKit          3D

 25 24  0  0  1  0  0  0  0  0999 V2000
    8.0604  -12.5308   18.8154 C   0  0  0  0  0  0  0  0  0  0  0  0
    8.2928  -13.2947   20.1015 C   0  0  1  0  0  0  0  0  0  0  0  0
    7.5095  -12.7691   21.0984 O   0  0  0  0  0  0  0  0  0  0  0  0
    8.0665  -14.7812   19.9077 C   0  0  2  0  0  0  0  0  0  0  0  0
    6.7081  -14.9530   19.4364 N   0  0  0  0  0  0  0  0  0  0  0  0
    8.2160  -15.4417   21.2019 C   0  0  0  0  0  0  0  0  0  0  0  0
    7.1985  -15.6790   21.8988 O   0  0  0  0  0  0  0  0  0  0  0  0
    9.4677  -15.8493   21.7500 N   0  0  0  0  0  0  0  0  0  0  0  0
    9.6368  -16.4279   23.0596 C   0  0  1  0  0  0  0  0  0  0  0  0
   10.7464  -17.4321   23.1584 C   0  0  0  0  0  0  0  0  0  0  0  0
   10.7475  -18.5284   22.1599 C   0  0  0  0  0  0  0  0  0  0  0  0
   11.9160  -19.4018   22.3218 C   0  0  0  0  0  0  0  0  0  0  0  0
   12.8593  -19.3396   21.5138 O   0  0  0  0  0  0  0  0  0  0  0  0
    9.6815  -15.4553   24.1614 C   0  0  0  0  0  0  0  0  0  0  0  0
    9.9699  -14.2621   23.8934 O   0  0  0  0  0  0  0  0  0  0  0  0
   11.9652  -20.2911   23.3711 O   0  0  0  0  0  0  0  0  0  0  0  0
    6.5998  -12.4303   25.4031 C   0  0  0  0  0  0  0  0  0  0  0  0
    7.8565  -13.3103   25.2660 C   0  0  0  0  0  0  0  0  0  0  0  0
    8.0908  -13.9928   26.5838 C   0  0  2  0  0  0  0  0  0  0  0  0
    7.9509  -13.0317   27.7439 C   0  0  0  0  0  0  0  0  0  0  0  0
    9.3842  -14.7280   26.5741 C   0  0  2  0  0  0  0  0  0  0  0  0
    9.4255  -15.7525   25.5290 N   0  0  0  0  0  0  0  0  0  0  0  0
    9.7629  -15.3846   27.8356 C   0  0  0  0  0  0  0  0  0  0  0  0
   10.4563  -14.7859   28.8685 O   0  0  0  0  0  0  0  0  0  0  0  0
    9.4462  -16.5856   28.0170 O   0  0  0  0  0  0  0  0  0  0  0  0
  2  3  1  0
  2  1  1  6
  4  5  1  1
  4  2  1  0
  6  4  1  0
  7  6  2  0
  8  6  1  0
  9  8  1  0
  9 10  1  6
 11 10  1  0
 12 11  1  0
 13 12  2  0
 14  9  1  0
 14 22  1  0
 15 14  2  0
 16 12  1  0
 17 18  1  0
 19 18  1  0
 19 21  1  0
 19 20  1  1
 21 22  1  6
 21 23  1  0
 23 25  2  0
 23 24  1  0
M  END
$$$$
