TEI.pdb
     RDKit          3D

 25 24  0  0  1  0  0  0  0  0999 V2000
    8.8138  -12.2917   18.3695 C   0  0  0  0  0  0  0  0  0  0  0  0
    8.8374  -13.1020   19.6479 C   0  0  1  0  0  0  0  0  0  0  0  0
    8.5001  -12.2996   20.7091 O   0  0  0  0  0  0  0  0  0  0  0  0
    7.9498  -14.3264   19.5403 C   0  0  2  0  0  0  0  0  0  0  0  0
    6.6021  -13.8615   19.2868 N   0  0  0  0  0  0  0  0  0  0  0  0
    7.9848  -15.0333   20.8180 C   0  0  0  0  0  0  0  0  0  0  0  0
    7.0710  -14.8423   21.6581 O   0  0  0  0  0  0  0  0  0  0  0  0
    9.0089  -15.9512   21.1945 N   0  0  0  0  0  0  0  0  0  0  0  0
    9.0361  -16.6804   22.4378 C   0  0  1  0  0  0  0  0  0  0  0  0
    9.8537  -17.9374   22.4051 C   0  0  0  0  0  0  0  0  0  0  0  0
    9.8570  -18.7656   23.6352 C   0  0  0  0  0  0  0  0  0  0  0  0
   10.7850  -19.8968   23.5191 C   0  0  0  0  0  0  0  0  0  0  0  0
   11.7477  -19.9978   24.3000 O   0  0  0  0  0  0  0  0  0  0  0  0
    9.3370  -15.8648   23.6237 C   0  0  0  0  0  0  0  0  0  0  0  0
   10.3256  -15.0906   23.5809 O   0  0  0  0  0  0  0  0  0  0  0  0
   10.5874  -20.8465   22.5427 O   0  0  0  0  0  0  0  0  0  0  0  0
    6.0381  -12.5484   25.4319 C   0  0  0  0  0  0  0  0  0  0  0  0
    7.2911  -13.3619   25.0571 C   0  0  0  0  0  0  0  0  0  0  0  0
    7.7543  -14.0924   26.2856 C   0  0  2  0  0  0  0  0  0  0  0  0
    8.0375  -13.1417   27.4280 C   0  0  0  0  0  0  0  0  0  0  0  0
    8.8948  -14.9925   25.9650 C   0  0  2  0  0  0  0  0  0  0  0  0
    8.5956  -15.8776   24.8379 N   0  0  0  0  0  0  0  0  0  0  0  0
    9.3741  -15.8439   27.0655 C   0  0  0  0  0  0  0  0  0  0  0  0
   10.3456  -15.4911   27.9808 O   0  0  0  0  0  0  0  0  0  0  0  0
    8.8812  -16.9894   27.2094 O   0  0  0  0  0  0  0  0  0  0  0  0
  2  3  1  0
  2  1  1  6
  4  5  1  1
  4  2  1  0
  6  4  1  0
  7  6  2  0
  8  6  1  0
  9  8  1  0
  9 10  1  6
 11 10  1  0
 12 11  1  0
 13 12  2  0
 14  9  1  0
 14 22  1  0
 15 14  2  0
 16 12  1  0
 17 18  1  0
 19 18  1  0
 19 21  1  0
 19 20  1  1
 21 22  1  6
 21 23  1  0
 23 25  2  0
 23 24  1  0
M  END
$$$$
