TEI.pdb
     RDKit          3D

 25 24  0  0  1  0  0  0  0  0999 V2000
    8.5134  -12.4184   20.0636 C   0  0  0  0  0  0  0  0  0  0  0  0
    7.7449  -13.2737   19.0791 C   0  0  1  0  0  0  0  0  0  0  0  0
    7.7208  -12.6575   17.8530 O   0  0  0  0  0  0  0  0  0  0  0  0
    8.3100  -14.6790   19.0121 C   0  0  2  0  0  0  0  0  0  0  0  0
    7.4694  -15.4395   18.1110 N   0  0  0  0  0  0  0  0  0  0  0  0
    8.2419  -15.2661   20.3477 C   0  0  0  0  0  0  0  0  0  0  0  0
    7.1254  -15.5709   20.8355 O   0  0  0  0  0  0  0  0  0  0  0  0
    9.3816  -15.5271   21.1639 N   0  0  0  0  0  0  0  0  0  0  0  0
    9.3411  -16.2234   22.4256 C   0  0  1  0  0  0  0  0  0  0  0  0
   10.2526  -17.4114   22.5111 C   0  0  0  0  0  0  0  0  0  0  0  0
    9.6340  -18.7447   22.3147 C   0  0  0  0  0  0  0  0  0  0  0  0
   10.6390  -19.8139   22.3488 C   0  0  0  0  0  0  0  0  0  0  0  0
   11.8388  -19.5382   22.5251 O   0  0  0  0  0  0  0  0  0  0  0  0
    9.4584  -15.3595   23.6097 C   0  0  0  0  0  0  0  0  0  0  0  0
   10.3387  -14.4631   23.6101 O   0  0  0  0  0  0  0  0  0  0  0  0
   10.2500  -21.1239   22.1850 O   0  0  0  0  0  0  0  0  0  0  0  0
    6.0406  -12.0782   25.3542 C   0  0  0  0  0  0  0  0  0  0  0  0
    7.2945  -12.9057   25.0146 C   0  0  0  0  0  0  0  0  0  0  0  0
    7.6294  -13.7520   26.2101 C   0  0  2  0  0  0  0  0  0  0  0  0
    7.7379  -12.9217   27.4702 C   0  0  0  0  0  0  0  0  0  0  0  0
    8.8310  -14.5881   25.9442 C   0  0  2  0  0  0  0  0  0  0  0  0
    8.6504  -15.4532   24.7769 N   0  0  0  0  0  0  0  0  0  0  0  0
    9.2772  -15.4477   27.0522 C   0  0  0  0  0  0  0  0  0  0  0  0
   10.0442  -15.0336   28.1228 O   0  0  0  0  0  0  0  0  0  0  0  0
    8.9522  -16.6602   27.0523 O   0  0  0  0  0  0  0  0  0  0  0  0
  2  3  1  0
  2  1  1  1
  4  5  1  6
  4  2  1  0
  6  4  1  0
  7  6  2  0
  8  6  1  0
  9  8  1  0
  9 10  1  6
 11 10  1  0
 12 11  1  0
 13 12  2  0
 14  9  1  0
 14 22  1  0
 15 14  2  0
 16 12  1  0
 17 18  1  0
 19 18  1  0
 19 21  1  0
 19 20  1  1
 21 22  1  6
 21 23  1  0
 23 25  2  0
 23 24  1  0
M  END
$$$$
