TEI.pdb
     RDKit          3D

 25 24  0  0  1  0  0  0  0  0999 V2000
    9.8271  -14.2472   18.0876 C   0  0  0  0  0  0  0  0  0  0  0  0
    9.2822  -14.4675   19.4826 C   0  0  1  0  0  0  0  0  0  0  0  0
    9.4886  -13.3428   20.2416 O   0  0  0  0  0  0  0  0  0  0  0  0
    7.8248  -14.8836   19.4452 C   0  0  2  0  0  0  0  0  0  0  0  0
    7.0738  -13.7760   18.8921 N   0  0  0  0  0  0  0  0  0  0  0  0
    7.3821  -15.1314   20.8149 C   0  0  0  0  0  0  0  0  0  0  0  0
    6.7800  -14.2275   21.4457 O   0  0  0  0  0  0  0  0  0  0  0  0
    7.5883  -16.3589   21.5105 N   0  0  0  0  0  0  0  0  0  0  0  0
    7.2437  -16.5830   22.8924 C   0  0  1  0  0  0  0  0  0  0  0  0
    7.2955  -18.0190   23.3224 C   0  0  0  0  0  0  0  0  0  0  0  0
    6.9170  -18.3111   24.7260 C   0  0  0  0  0  0  0  0  0  0  0  0
    6.9684  -19.7506   25.0082 C   0  0  0  0  0  0  0  0  0  0  0  0
    7.5381  -20.1667   26.0323 O   0  0  0  0  0  0  0  0  0  0  0  0
    7.9299  -15.7021   23.8489 C   0  0  0  0  0  0  0  0  0  0  0  0
    9.1650  -15.5174   23.7108 O   0  0  0  0  0  0  0  0  0  0  0  0
    6.3839  -20.6401   24.1354 O   0  0  0  0  0  0  0  0  0  0  0  0
    6.8753  -10.4905   26.7458 C   0  0  0  0  0  0  0  0  0  0  0  0
    7.8095  -11.7121   26.6590 C   0  0  0  0  0  0  0  0  0  0  0  0
    7.0844  -12.7985   25.9165 C   0  0  2  0  0  0  0  0  0  0  0  0
    5.7663  -13.1421   26.5750 C   0  0  0  0  0  0  0  0  0  0  0  0
    7.9695  -13.9762   25.7086 C   0  0  2  0  0  0  0  0  0  0  0  0
    7.3079  -15.0309   24.9382 N   0  0  0  0  0  0  0  0  0  0  0  0
    8.5048  -14.6044   26.9270 C   0  0  0  0  0  0  0  0  0  0  0  0
    9.4666  -14.0541   27.7505 O   0  0  0  0  0  0  0  0  0  0  0  0
    8.0740  -15.7320   27.2715 O   0  0  0  0  0  0  0  0  0  0  0  0
  2  3  1  0
  2  1  1  6
  4  5  1  1
  4  2  1  0
  6  4  1  0
  7  6  2  0
  8  6  1  0
  9  8  1  0
  9 10  1  1
 11 10  1  0
 12 11  1  0
 13 12  2  0
 14  9  1  0
 14 22  1  0
 15 14  2  0
 16 12  1  0
 17 18  1  0
 19 18  1  0
 19 21  1  0
 19 20  1  1
 21 22  1  1
 21 23  1  0
 23 25  2  0
 23 24  1  0
M  END
$$$$
