TEI.pdb
     RDKit          3D

 25 24  0  0  1  0  0  0  0  0999 V2000
    8.6179  -12.4185   19.8951 C   0  0  0  0  0  0  0  0  0  0  0  0
    7.9918  -13.2873   18.8253 C   0  0  1  0  0  0  0  0  0  0  0  0
    8.1419  -12.6895   17.5990 O   0  0  0  0  0  0  0  0  0  0  0  0
    8.5558  -14.6942   18.8585 C   0  0  2  0  0  0  0  0  0  0  0  0
    7.8970  -15.4480   17.8122 N   0  0  0  0  0  0  0  0  0  0  0  0
    8.2370  -15.2868   20.1549 C   0  0  0  0  0  0  0  0  0  0  0  0
    7.0758  -15.7123   20.3741 O   0  0  0  0  0  0  0  0  0  0  0  0
    9.1728  -15.4227   21.2221 N   0  0  0  0  0  0  0  0  0  0  0  0
    8.9194  -16.1439   22.4444 C   0  0  1  0  0  0  0  0  0  0  0  0
    9.4914  -17.5300   22.4798 C   0  0  0  0  0  0  0  0  0  0  0  0
   10.9605  -17.6518   22.3195 C   0  0  0  0  0  0  0  0  0  0  0  0
   11.3919  -19.0539   22.3661 C   0  0  0  0  0  0  0  0  0  0  0  0
   12.5937  -19.3428   22.2283 O   0  0  0  0  0  0  0  0  0  0  0  0
    9.2225  -15.3972   23.6742 C   0  0  0  0  0  0  0  0  0  0  0  0
   10.3089  -14.7695   23.7394 O   0  0  0  0  0  0  0  0  0  0  0  0
   10.4622  -20.0496   22.5626 O   0  0  0  0  0  0  0  0  0  0  0  0
    5.5787  -12.3267   25.8461 C   0  0  0  0  0  0  0  0  0  0  0  0
    6.8681  -12.9845   25.3198 C   0  0  0  0  0  0  0  0  0  0  0  0
    7.5058  -13.7304   26.4574 C   0  0  2  0  0  0  0  0  0  0  0  0
    7.8030  -12.8184   27.6274 C   0  0  0  0  0  0  0  0  0  0  0  0
    8.6903  -14.4978   25.9865 C   0  0  2  0  0  0  0  0  0  0  0  0
    8.3801  -15.3241   24.8184 N   0  0  0  0  0  0  0  0  0  0  0  0
    9.3257  -15.3781   26.9799 C   0  0  0  0  0  0  0  0  0  0  0  0
   10.2758  -14.9846   27.9012 O   0  0  0  0  0  0  0  0  0  0  0  0
    9.0007  -16.5900   27.0174 O   0  0  0  0  0  0  0  0  0  0  0  0
  2  3  1  0
  2  1  1  1
  4  5  1  6
  4  2  1  0
  6  4  1  0
  7  6  2  0
  8  6  1  0
  9  8  1  0
  9 10  1  6
 11 10  1  0
 12 11  1  0
 13 12  2  0
 14  9  1  0
 14 22  1  0
 15 14  2  0
 16 12  1  0
 17 18  1  0
 19 18  1  0
 19 21  1  0
 19 20  1  1
 21 22  1  6
 21 23  1  0
 23 25  2  0
 23 24  1  0
M  END
$$$$
