TEI.pdb
     RDKit          3D

 25 24  0  0  1  0  0  0  0  0999 V2000
    8.2550  -12.6291   18.3107 C   0  0  0  0  0  0  0  0  0  0  0  0
    8.5129  -13.3552   19.6136 C   0  0  1  0  0  0  0  0  0  0  0  0
    8.1136  -12.5702   20.6662 O   0  0  0  0  0  0  0  0  0  0  0  0
    7.8526  -14.7199   19.6236 C   0  0  2  0  0  0  0  0  0  0  0  0
    6.4312  -14.5129   19.4403 N   0  0  0  0  0  0  0  0  0  0  0  0
    8.0871  -15.3346   20.9276 C   0  0  0  0  0  0  0  0  0  0  0  0
    7.2104  -15.2455   21.8225 O   0  0  0  0  0  0  0  0  0  0  0  0
    9.2719  -16.0496   21.2714 N   0  0  0  0  0  0  0  0  0  0  0  0
    9.5210  -16.6473   22.5595 C   0  0  1  0  0  0  0  0  0  0  0  0
   10.6584  -17.6247   22.5833 C   0  0  0  0  0  0  0  0  0  0  0  0
   10.9923  -18.2309   23.8948 C   0  0  0  0  0  0  0  0  0  0  0  0
   12.1190  -19.1650   23.7840 C   0  0  0  0  0  0  0  0  0  0  0  0
   13.2530  -18.8242   24.1640 O   0  0  0  0  0  0  0  0  0  0  0  0
    9.5976  -15.6940   23.6763 C   0  0  0  0  0  0  0  0  0  0  0  0
   10.4203  -14.7477   23.5984 O   0  0  0  0  0  0  0  0  0  0  0  0
   11.9173  -20.4207   23.2576 O   0  0  0  0  0  0  0  0  0  0  0  0
    6.7448  -11.7730   26.8436 C   0  0  0  0  0  0  0  0  0  0  0  0
    7.8938  -12.7864   27.0027 C   0  0  0  0  0  0  0  0  0  0  0  0
    7.7326  -13.8401   25.9438 C   0  0  2  0  0  0  0  0  0  0  0  0
    6.4056  -14.5566   26.0654 C   0  0  0  0  0  0  0  0  0  0  0  0
    8.9040  -14.7573   25.9302 C   0  0  2  0  0  0  0  0  0  0  0  0
    8.8101  -15.7518   24.8598 N   0  0  0  0  0  0  0  0  0  0  0  0
    9.1630  -15.4920   27.1788 C   0  0  0  0  0  0  0  0  0  0  0  0
    9.6538  -14.9359   28.3432 O   0  0  0  0  0  0  0  0  0  0  0  0
    8.9309  -16.7249   27.2202 O   0  0  0  0  0  0  0  0  0  0  0  0
  2  3  1  0
  2  1  1  6
  4  5  1  1
  4  2  1  0
  6  4  1  0
  7  6  2  0
  8  6  1  0
  9  8  1  0
  9 10  1  6
 11 10  1  0
 12 11  1  0
 13 12  2  0
 14  9  1  0
 14 22  1  0
 15 14  2  0
 16 12  1  0
 17 18  1  0
 19 18  1  0
 19 21  1  0
 19 20  1  1
 21 22  1  6
 21 23  1  0
 23 25  2  0
 23 24  1  0
M  END
$$$$
