TEI.pdb
     RDKit          3D

 25 24  0  0  1  0  0  0  0  0999 V2000
    8.2658  -12.6989   18.8816 C   0  0  0  0  0  0  0  0  0  0  0  0
    8.4805  -13.4612   20.1717 C   0  0  1  0  0  0  0  0  0  0  0  0
    7.8731  -12.7960   21.2072 O   0  0  0  0  0  0  0  0  0  0  0  0
    8.0096  -14.8970   20.0479 C   0  0  2  0  0  0  0  0  0  0  0  0
    6.6222  -14.8620   19.6350 N   0  0  0  0  0  0  0  0  0  0  0  0
    8.1070  -15.5277   21.3617 C   0  0  0  0  0  0  0  0  0  0  0  0
    7.1126  -15.5204   22.1288 O   0  0  0  0  0  0  0  0  0  0  0  0
    9.2811  -16.1701   21.8536 N   0  0  0  0  0  0  0  0  0  0  0  0
    9.4053  -16.7516   23.1669 C   0  0  1  0  0  0  0  0  0  0  0  0
   10.2965  -17.9561   23.2332 C   0  0  0  0  0  0  0  0  0  0  0  0
   10.0894  -18.9993   22.1999 C   0  0  0  0  0  0  0  0  0  0  0  0
   11.2491  -19.8933   22.0985 C   0  0  0  0  0  0  0  0  0  0  0  0
   11.1511  -21.0850   22.4402 O   0  0  0  0  0  0  0  0  0  0  0  0
    9.7049  -15.7917   24.2396 C   0  0  0  0  0  0  0  0  0  0  0  0
   10.6858  -15.0202   24.0939 O   0  0  0  0  0  0  0  0  0  0  0  0
   12.4469  -19.4089   21.6241 O   0  0  0  0  0  0  0  0  0  0  0  0
    6.3069  -12.4173   26.0078 C   0  0  0  0  0  0  0  0  0  0  0  0
    7.5551  -13.2181   25.5916 C   0  0  0  0  0  0  0  0  0  0  0  0
    8.1629  -13.8076   26.8327 C   0  0  2  0  0  0  0  0  0  0  0  0
    8.5002  -12.7407   27.8512 C   0  0  0  0  0  0  0  0  0  0  0  0
    9.3134  -14.6866   26.4900 C   0  0  2  0  0  0  0  0  0  0  0  0
    8.9704  -15.6593   25.4509 N   0  0  0  0  0  0  0  0  0  0  0  0
    9.9050  -15.4403   27.6069 C   0  0  0  0  0  0  0  0  0  0  0  0
   10.8819  -14.9660   28.4593 O   0  0  0  0  0  0  0  0  0  0  0  0
    9.5124  -16.6120   27.8276 O   0  0  0  0  0  0  0  0  0  0  0  0
  2  3  1  0
  2  1  1  6
  4  5  1  1
  4  2  1  0
  6  4  1  0
  7  6  2  0
  8  6  1  0
  9  8  1  0
  9 10  1  6
 11 10  1  0
 12 11  1  0
 13 12  2  0
 14  9  1  0
 14 22  1  0
 15 14  2  0
 16 12  1  0
 17 18  1  0
 19 18  1  0
 19 21  1  0
 19 20  1  1
 21 22  1  6
 21 23  1  0
 23 25  2  0
 23 24  1  0
M  END
$$$$
