TEI.pdb
     RDKit          3D

 25 24  0  0  1  0  0  0  0  0999 V2000
    8.3040  -12.6812   18.8609 C   0  0  0  0  0  0  0  0  0  0  0  0
    8.5225  -13.3997   20.1752 C   0  0  1  0  0  0  0  0  0  0  0  0
    7.9746  -12.6672   21.1983 O   0  0  0  0  0  0  0  0  0  0  0  0
    7.9867  -14.8170   20.1237 C   0  0  2  0  0  0  0  0  0  0  0  0
    6.5725  -14.7330   19.8240 N   0  0  0  0  0  0  0  0  0  0  0  0
    8.1664  -15.4246   21.4398 C   0  0  0  0  0  0  0  0  0  0  0  0
    7.2666  -15.3030   22.3075 O   0  0  0  0  0  0  0  0  0  0  0  0
    9.3210  -16.1673   21.8250 N   0  0  0  0  0  0  0  0  0  0  0  0
    9.5037  -16.7826   23.1160 C   0  0  1  0  0  0  0  0  0  0  0  0
   10.5060  -17.8981   23.1381 C   0  0  0  0  0  0  0  0  0  0  0  0
   10.6293  -18.6618   24.4033 C   0  0  0  0  0  0  0  0  0  0  0  0
   11.7364  -19.6236   24.3449 C   0  0  0  0  0  0  0  0  0  0  0  0
   12.5030  -19.7536   25.3155 O   0  0  0  0  0  0  0  0  0  0  0  0
    9.7134  -15.8388   24.2238 C   0  0  0  0  0  0  0  0  0  0  0  0
   10.7000  -15.0629   24.1687 O   0  0  0  0  0  0  0  0  0  0  0  0
   11.9245  -20.3823   23.2120 O   0  0  0  0  0  0  0  0  0  0  0  0
    6.6432  -12.1183   25.4877 C   0  0  0  0  0  0  0  0  0  0  0  0
    7.8285  -13.0829   25.2958 C   0  0  0  0  0  0  0  0  0  0  0  0
    8.0843  -13.7699   26.6073 C   0  0  2  0  0  0  0  0  0  0  0  0
    8.3386  -12.7757   27.7191 C   0  0  0  0  0  0  0  0  0  0  0  0
    9.1569  -14.7914   26.4670 C   0  0  2  0  0  0  0  0  0  0  0  0
    8.8842  -15.7271   25.3745 N   0  0  0  0  0  0  0  0  0  0  0  0
    9.4402  -15.5985   27.6645 C   0  0  0  0  0  0  0  0  0  0  0  0
   10.2313  -15.2015   28.7240 O   0  0  0  0  0  0  0  0  0  0  0  0
    8.9386  -16.7453   27.7597 O   0  0  0  0  0  0  0  0  0  0  0  0
  2  3  1  0
  2  1  1  6
  4  5  1  1
  4  2  1  0
  6  4  1  0
  7  6  2  0
  8  6  1  0
  9  8  1  0
  9 10  1  6
 11 10  1  0
 12 11  1  0
 13 12  2  0
 14  9  1  0
 14 22  1  0
 15 14  2  0
 16 12  1  0
 17 18  1  0
 19 18  1  0
 19 21  1  0
 19 20  1  1
 21 22  1  6
 21 23  1  0
 23 25  2  0
 23 24  1  0
M  END
$$$$
