TEI.pdb
     RDKit          3D

 25 24  0  0  1  0  0  0  0  0999 V2000
    8.7387  -13.4357   18.4507 C   0  0  0  0  0  0  0  0  0  0  0  0
    8.6348  -13.9222   19.8804 C   0  0  1  0  0  0  0  0  0  0  0  0
    8.3866  -12.8595   20.7126 O   0  0  0  0  0  0  0  0  0  0  0  0
    7.5975  -15.0198   20.0146 C   0  0  2  0  0  0  0  0  0  0  0  0
    6.3199  -14.4550   19.6333 N   0  0  0  0  0  0  0  0  0  0  0  0
    7.5445  -15.4336   21.4144 C   0  0  0  0  0  0  0  0  0  0  0  0
    6.7743  -14.8390   22.2086 O   0  0  0  0  0  0  0  0  0  0  0  0
    8.3246  -16.4933   21.9635 N   0  0  0  0  0  0  0  0  0  0  0  0
    8.2832  -16.9084   23.3435 C   0  0  1  0  0  0  0  0  0  0  0  0
    8.7907  -18.2977   23.5917 C   0  0  0  0  0  0  0  0  0  0  0  0
    8.6962  -18.8062   24.9815 C   0  0  0  0  0  0  0  0  0  0  0  0
    9.2414  -20.1642   25.0952 C   0  0  0  0  0  0  0  0  0  0  0  0
    9.7666  -20.7113   24.1096 O   0  0  0  0  0  0  0  0  0  0  0  0
    8.8520  -15.9419   24.2946 C   0  0  0  0  0  0  0  0  0  0  0  0
    9.9990  -15.4831   24.0657 O   0  0  0  0  0  0  0  0  0  0  0  0
    9.1698  -20.8317   26.2968 O   0  0  0  0  0  0  0  0  0  0  0  0
    6.4206  -11.6421   25.9009 C   0  0  0  0  0  0  0  0  0  0  0  0
    7.4389  -12.7219   25.4891 C   0  0  0  0  0  0  0  0  0  0  0  0
    7.9289  -13.3978   26.7383 C   0  0  2  0  0  0  0  0  0  0  0  0
    8.5360  -12.4080   27.7082 C   0  0  0  0  0  0  0  0  0  0  0  0
    8.8314  -14.5325   26.4044 C   0  0  2  0  0  0  0  0  0  0  0  0
    8.2074  -15.4748   25.4737 N   0  0  0  0  0  0  0  0  0  0  0  0
    9.3284  -15.3190   27.5447 C   0  0  0  0  0  0  0  0  0  0  0  0
   10.3908  -14.9667   28.3529 O   0  0  0  0  0  0  0  0  0  0  0  0
    8.7635  -16.4030   27.8303 O   0  0  0  0  0  0  0  0  0  0  0  0
  2  3  1  0
  2  1  1  6
  4  5  1  1
  4  2  1  0
  6  4  1  0
  7  6  2  0
  8  6  1  0
  9  8  1  0
  9 10  1  6
 11 10  1  0
 12 11  1  0
 13 12  2  0
 14  9  1  0
 14 22  1  0
 15 14  2  0
 16 12  1  0
 17 18  1  0
 19 18  1  0
 19 21  1  0
 19 20  1  1
 21 22  1  6
 21 23  1  0
 23 25  2  0
 23 24  1  0
M  END
$$$$
