TEI.pdb
     RDKit          3D

 25 24  0  0  1  0  0  0  0  0999 V2000
   10.1741  -13.1793   17.7787 C   0  0  0  0  0  0  0  0  0  0  0  0
    9.8551  -13.7298   19.1523 C   0  0  1  0  0  0  0  0  0  0  0  0
   10.1581  -12.7918   20.1072 O   0  0  0  0  0  0  0  0  0  0  0  0
    8.4164  -14.2007   19.2363 C   0  0  2  0  0  0  0  0  0  0  0  0
    7.5712  -13.0532   18.9800 N   0  0  0  0  0  0  0  0  0  0  0  0
    8.1708  -14.6887   20.5909 C   0  0  0  0  0  0  0  0  0  0  0  0
    7.5441  -13.9677   21.4063 O   0  0  0  0  0  0  0  0  0  0  0  0
    8.6018  -15.9601   21.0715 N   0  0  0  0  0  0  0  0  0  0  0  0
    8.2664  -16.5014   22.3650 C   0  0  1  0  0  0  0  0  0  0  0  0
    8.5723  -17.9607   22.5279 C   0  0  0  0  0  0  0  0  0  0  0  0
    9.9965  -18.3289   22.7148 C   0  0  0  0  0  0  0  0  0  0  0  0
   10.1728  -19.7851   22.7675 C   0  0  0  0  0  0  0  0  0  0  0  0
   11.2882  -20.2705   23.0259 O   0  0  0  0  0  0  0  0  0  0  0  0
    8.7500  -15.7118   23.5072 C   0  0  0  0  0  0  0  0  0  0  0  0
    9.9013  -15.2129   23.4437 O   0  0  0  0  0  0  0  0  0  0  0  0
    9.0994  -20.6132   22.5298 O   0  0  0  0  0  0  0  0  0  0  0  0
    5.8140  -12.0114   25.7740 C   0  0  0  0  0  0  0  0  0  0  0  0
    6.9439  -12.8831   25.1943 C   0  0  0  0  0  0  0  0  0  0  0  0
    7.5298  -13.6901   26.3180 C   0  0  2  0  0  0  0  0  0  0  0  0
    8.0496  -12.8055   27.4299 C   0  0  0  0  0  0  0  0  0  0  0  0
    8.5402  -14.6538   25.8039 C   0  0  2  0  0  0  0  0  0  0  0  0
    8.0169  -15.4613   24.7005 N   0  0  0  0  0  0  0  0  0  0  0  0
    9.1024  -15.5881   26.7922 C   0  0  0  0  0  0  0  0  0  0  0  0
   10.1940  -15.3337   27.5982 O   0  0  0  0  0  0  0  0  0  0  0  0
    8.5703  -16.7158   26.9368 O   0  0  0  0  0  0  0  0  0  0  0  0
  2  3  1  0
  2  1  1  6
  4  5  1  1
  4  2  1  0
  6  4  1  0
  7  6  2  0
  8  6  1  0
  9  8  1  0
  9 10  1  1
 11 10  1  0
 12 11  1  0
 13 12  2  0
 14  9  1  0
 14 22  1  0
 15 14  2  0
 16 12  1  0
 17 18  1  0
 19 18  1  0
 19 21  1  0
 19 20  1  1
 21 22  1  6
 21 23  1  0
 23 25  2  0
 23 24  1  0
M  END
$$$$
