TEI.pdb
     RDKit          3D

 25 24  0  0  1  0  0  0  0  0999 V2000
    8.1375  -12.5420   18.7000 C   0  0  0  0  0  0  0  0  0  0  0  0
    8.3992  -13.2873   19.9913 C   0  0  1  0  0  0  0  0  0  0  0  0
    7.8861  -12.5758   21.0469 O   0  0  0  0  0  0  0  0  0  0  0  0
    7.8609  -14.7032   19.9287 C   0  0  2  0  0  0  0  0  0  0  0  0
    6.4395  -14.6133   19.6675 N   0  0  0  0  0  0  0  0  0  0  0  0
    8.0743  -15.3341   21.2287 C   0  0  0  0  0  0  0  0  0  0  0  0
    7.2018  -15.2197   22.1248 O   0  0  0  0  0  0  0  0  0  0  0  0
    9.2334  -16.0926   21.5670 N   0  0  0  0  0  0  0  0  0  0  0  0
    9.4443  -16.7396   22.8380 C   0  0  1  0  0  0  0  0  0  0  0  0
   10.4821  -17.8224   22.8212 C   0  0  0  0  0  0  0  0  0  0  0  0
   10.7517  -18.5107   24.1067 C   0  0  0  0  0  0  0  0  0  0  0  0
   11.7744  -19.5525   23.9544 C   0  0  0  0  0  0  0  0  0  0  0  0
   12.1792  -20.1806   24.9485 O   0  0  0  0  0  0  0  0  0  0  0  0
    9.6309  -15.8228   23.9723 C   0  0  0  0  0  0  0  0  0  0  0  0
   10.5163  -14.9358   23.8839 O   0  0  0  0  0  0  0  0  0  0  0  0
   12.2850  -19.8328   22.7074 O   0  0  0  0  0  0  0  0  0  0  0  0
    6.5286  -12.3870   25.8662 C   0  0  0  0  0  0  0  0  0  0  0  0
    7.7176  -13.2829   25.4711 C   0  0  0  0  0  0  0  0  0  0  0  0
    8.1240  -14.0747   26.6815 C   0  0  2  0  0  0  0  0  0  0  0  0
    8.4456  -13.1761   27.8554 C   0  0  0  0  0  0  0  0  0  0  0  0
    9.2164  -15.0274   26.3459 C   0  0  2  0  0  0  0  0  0  0  0  0
    8.8858  -15.8544   25.1839 N   0  0  0  0  0  0  0  0  0  0  0  0
    9.6281  -15.9425   27.4224 C   0  0  0  0  0  0  0  0  0  0  0  0
   10.6121  -15.6834   28.3555 O   0  0  0  0  0  0  0  0  0  0  0  0
    9.0595  -17.0568   27.5263 O   0  0  0  0  0  0  0  0  0  0  0  0
  2  3  1  0
  2  1  1  6
  4  5  1  1
  4  2  1  0
  6  4  1  0
  7  6  2  0
  8  6  1  0
  9  8  1  0
  9 10  1  6
 11 10  1  0
 12 11  1  0
 13 12  2  0
 14  9  1  0
 14 22  1  0
 15 14  2  0
 16 12  1  0
 17 18  1  0
 19 18  1  0
 19 21  1  0
 19 20  1  1
 21 22  1  6
 21 23  1  0
 23 25  2  0
 23 24  1  0
M  END
$$$$
