TEI.pdb
     RDKit          3D

 25 24  0  0  1  0  0  0  0  0999 V2000
    8.5213  -12.5940   20.4820 C   0  0  0  0  0  0  0  0  0  0  0  0
    7.5058  -13.3984   19.6990 C   0  0  1  0  0  0  0  0  0  0  0  0
    7.2956  -12.8114   18.4764 O   0  0  0  0  0  0  0  0  0  0  0  0
    7.9257  -14.8505   19.5817 C   0  0  2  0  0  0  0  0  0  0  0  0
    6.8536  -15.5569   18.9120 N   0  0  0  0  0  0  0  0  0  0  0  0
    8.0932  -15.3909   20.9283 C   0  0  0  0  0  0  0  0  0  0  0  0
    7.0812  -15.7202   21.5952 O   0  0  0  0  0  0  0  0  0  0  0  0
    9.3569  -15.5781   21.5616 N   0  0  0  0  0  0  0  0  0  0  0  0
    9.5471  -16.2476   22.8241 C   0  0  1  0  0  0  0  0  0  0  0  0
   10.6541  -17.2596   22.8321 C   0  0  0  0  0  0  0  0  0  0  0  0
   10.9023  -17.9696   24.1101 C   0  0  0  0  0  0  0  0  0  0  0  0
   12.2880  -18.4448   24.2007 C   0  0  0  0  0  0  0  0  0  0  0  0
   12.8126  -19.0290   23.2363 O   0  0  0  0  0  0  0  0  0  0  0  0
    9.6159  -15.3548   23.9904 C   0  0  0  0  0  0  0  0  0  0  0  0
    9.7855  -14.1257   23.7924 O   0  0  0  0  0  0  0  0  0  0  0  0
   13.0064  -18.2422   25.3571 O   0  0  0  0  0  0  0  0  0  0  0  0
    7.0971  -12.1328   24.9810 C   0  0  0  0  0  0  0  0  0  0  0  0
    8.3369  -13.0404   25.0884 C   0  0  0  0  0  0  0  0  0  0  0  0
    8.1403  -13.9567   26.2628 C   0  0  2  0  0  0  0  0  0  0  0  0
    7.7420  -13.1935   27.5070 C   0  0  0  0  0  0  0  0  0  0  0  0
    9.3304  -14.8286   26.4562 C   0  0  2  0  0  0  0  0  0  0  0  0
    9.5084  -15.7681   25.3475 N   0  0  0  0  0  0  0  0  0  0  0  0
    9.3572  -15.6180   27.6979 C   0  0  0  0  0  0  0  0  0  0  0  0
   10.0191  -15.2600   28.8554 O   0  0  0  0  0  0  0  0  0  0  0  0
    8.7400  -16.7102   27.7396 O   0  0  0  0  0  0  0  0  0  0  0  0
  2  3  1  0
  2  1  1  6
  4  5  1  1
  4  2  1  0
  6  4  1  0
  7  6  2  0
  8  6  1  0
  9  8  1  0
  9 10  1  6
 11 10  1  0
 12 11  1  0
 13 12  2  0
 14  9  1  0
 14 22  1  0
 15 14  2  0
 16 12  1  0
 17 18  1  0
 19 18  1  0
 19 21  1  0
 19 20  1  1
 21 22  1  6
 21 23  1  0
 23 25  2  0
 23 24  1  0
M  END
$$$$
