WVA.pdb
     RDKit          3D

 27 28  0  0  1  0  0  0  0  0999 V2000
    6.3443  -18.4971   25.2706 N   0  0  0  0  0  0  0  0  0  0  0  0
    6.7140  -17.1460   24.9417 C   0  0  1  0  0  0  0  0  0  0  0  0
    7.4456  -16.3973   26.0008 C   0  0  0  0  0  0  0  0  0  0  0  0
    6.7404  -15.1529   26.3394 C   0  0  0  0  0  0  0  0  0  0  0  0
    5.4052  -15.0465   26.6498 C   0  0  0  0  0  0  0  0  0  0  0  0
    5.1483  -13.7685   26.9281 N   0  0  0  0  0  0  0  0  0  0  0  0
    6.2944  -13.0459   26.8025 C   0  0  0  0  0  0  0  0  0  0  0  0
    6.5735  -11.7110   26.9640 C   0  0  0  0  0  0  0  0  0  0  0  0
    7.8623  -11.2659   26.7483 C   0  0  0  0  0  0  0  0  0  0  0  0
    8.8766  -12.1068   26.3782 C   0  0  0  0  0  0  0  0  0  0  0  0
    8.5950  -13.4637   26.2141 C   0  0  0  0  0  0  0  0  0  0  0  0
    7.3040  -13.9035   26.4320 C   0  0  0  0  0  0  0  0  0  0  0  0
    7.5798  -17.1454   23.7193 C   0  0  0  0  0  0  0  0  0  0  0  0
    8.2908  -18.1421   23.4377 O   0  0  0  0  0  0  0  0  0  0  0  0
    8.4594  -13.6098   21.2898 C   0  0  0  0  0  0  0  0  0  0  0  0
    8.1628  -14.9666   20.7223 C   0  0  2  0  0  0  0  0  0  0  0  0
    6.6857  -14.9341   20.3001 C   0  0  0  0  0  0  0  0  0  0  0  0
    8.4517  -16.1190   21.6262 C   0  0  2  0  0  0  0  0  0  0  0  0
    7.6303  -16.0329   22.8435 N   0  0  0  0  0  0  0  0  0  0  0  0
    9.8461  -16.0207   22.1145 C   0  0  0  0  0  0  0  0  0  0  0  0
   10.2553  -14.9337   22.6539 O   0  0  0  0  0  0  0  0  0  0  0  0
   12.6907  -17.9902   23.3187 C   0  0  0  0  0  0  0  0  0  0  0  0
   12.1655  -16.8129   22.5211 C   0  0  2  0  0  0  0  0  0  0  0  0
   10.8215  -17.0458   22.0513 N   0  0  0  0  0  0  0  0  0  0  0  0
   13.0295  -16.4707   21.3882 C   0  0  0  0  0  0  0  0  0  0  0  0
   14.1970  -16.0743   21.5935 O   0  0  0  0  0  0  0  0  0  0  0  0
   12.5703  -16.5811   20.1000 O   0  0  0  0  0  0  0  0  0  0  0  0
  2  1  1  1
  3  4  1  0
  3  2  1  0
  4  5  2  0
  6  5  1  0
  7  6  1  0
  8  7  2  0
  9  8  1  0
 10  9  2  0
 10 11  1  0
 11 12  2  0
 12  7  1  0
 12  4  1  0
 13  2  1  0
 13 14  2  0
 16 15  1  1
 16 17  1  0
 16 18  1  0
 18 19  1  1
 19 13  1  0
 20 18  1  0
 21 20  2  0
 23 22  1  6
 23 24  1  0
 23 25  1  0
 24 20  1  0
 25 27  1  0
 26 25  2  0
M  END
$$$$
