WVA.pdb
     RDKit          3D

 27 28  0  0  1  0  0  0  0  0999 V2000
    8.9959  -16.8990   25.2042 N   0  0  0  0  0  0  0  0  0  0  0  0
    7.6029  -16.9911   24.8561 C   0  0  1  0  0  0  0  0  0  0  0  0
    6.6675  -16.2083   25.7103 C   0  0  0  0  0  0  0  0  0  0  0  0
    7.3821  -15.1349   26.4157 C   0  0  0  0  0  0  0  0  0  0  0  0
    8.5858  -15.2659   27.0671 C   0  0  0  0  0  0  0  0  0  0  0  0
    8.9232  -14.0710   27.5519 N   0  0  0  0  0  0  0  0  0  0  0  0
    7.9580  -13.1690   27.2258 C   0  0  0  0  0  0  0  0  0  0  0  0
    7.8143  -11.8279   27.4841 C   0  0  0  0  0  0  0  0  0  0  0  0
    6.6912  -11.1735   27.0196 C   0  0  0  0  0  0  0  0  0  0  0  0
    5.7113  -11.8121   26.3089 C   0  0  0  0  0  0  0  0  0  0  0  0
    5.8559  -13.1748   26.0451 C   0  0  0  0  0  0  0  0  0  0  0  0
    6.9821  -13.8242   26.5116 C   0  0  0  0  0  0  0  0  0  0  0  0
    7.4062  -16.5299   23.4445 C   0  0  0  0  0  0  0  0  0  0  0  0
    6.3131  -16.7199   22.8551 O   0  0  0  0  0  0  0  0  0  0  0  0
    7.6555  -13.0285   22.3002 C   0  0  0  0  0  0  0  0  0  0  0  0
    8.4299  -13.8750   21.3335 C   0  0  2  0  0  0  0  0  0  0  0  0
    8.1464  -13.2919   19.9404 C   0  0  0  0  0  0  0  0  0  0  0  0
    8.1419  -15.3388   21.3866 C   0  0  2  0  0  0  0  0  0  0  0  0
    8.4340  -15.8694   22.7271 N   0  0  0  0  0  0  0  0  0  0  0  0
    9.0809  -16.0554   20.4937 C   0  0  0  0  0  0  0  0  0  0  0  0
    9.0719  -15.8129   19.2362 O   0  0  0  0  0  0  0  0  0  0  0  0
   12.3448  -17.4632   20.2172 C   0  0  0  0  0  0  0  0  0  0  0  0
   10.8733  -17.6784   19.9233 C   0  0  2  0  0  0  0  0  0  0  0  0
   10.0350  -17.0217   20.8965 N   0  0  0  0  0  0  0  0  0  0  0  0
   10.5168  -19.0976   19.8458 C   0  0  0  0  0  0  0  0  0  0  0  0
   10.0895  -19.6882   20.8612 O   0  0  0  0  0  0  0  0  0  0  0  0
   10.6470  -19.7881   18.6673 O   0  0  0  0  0  0  0  0  0  0  0  0
  2  1  1  1
  3  4  1  0
  3  2  1  0
  4  5  2  0
  6  5  1  0
  7  6  1  0
  8  7  2  0
  9  8  1  0
 10  9  2  0
 10 11  1  0
 11 12  2  0
 12  7  1  0
 12  4  1  0
 13  2  1  0
 13 14  2  0
 16 15  1  1
 16 17  1  0
 16 18  1  0
 18 19  1  1
 19 13  1  0
 20 18  1  0
 21 20  2  0
 23 22  1  1
 23 24  1  0
 23 25  1  0
 24 20  1  0
 25 27  1  0
 26 25  2  0
M  END
$$$$
