WVA.pdb
     RDKit          3D

 27 28  0  0  1  0  0  0  0  0999 V2000
    6.5518  -18.6086   24.9667 N   0  0  0  0  0  0  0  0  0  0  0  0
    6.7468  -17.2127   24.6771 C   0  0  1  0  0  0  0  0  0  0  0  0
    7.5460  -16.4486   25.6745 C   0  0  0  0  0  0  0  0  0  0  0  0
    6.8528  -15.2103   26.0575 C   0  0  0  0  0  0  0  0  0  0  0  0
    5.5084  -15.0918   26.3198 C   0  0  0  0  0  0  0  0  0  0  0  0
    5.2663  -13.8267   26.6627 N   0  0  0  0  0  0  0  0  0  0  0  0
    6.4311  -13.1243   26.6262 C   0  0  0  0  0  0  0  0  0  0  0  0
    6.7304  -11.8078   26.8775 C   0  0  0  0  0  0  0  0  0  0  0  0
    8.0357  -11.3804   26.7406 C   0  0  0  0  0  0  0  0  0  0  0  0
    9.0472  -12.2211   26.3624 C   0  0  0  0  0  0  0  0  0  0  0  0
    8.7450  -13.5593   26.1070 C   0  0  0  0  0  0  0  0  0  0  0  0
    7.4374  -13.9816   26.2465 C   0  0  0  0  0  0  0  0  0  0  0  0
    7.4315  -17.0652   23.3530 C   0  0  0  0  0  0  0  0  0  0  0  0
    8.0199  -18.0410   22.8240 O   0  0  0  0  0  0  0  0  0  0  0  0
    8.0850  -14.3985   19.1866 C   0  0  0  0  0  0  0  0  0  0  0  0
    7.5124  -14.5974   20.5590 C   0  0  2  0  0  0  0  0  0  0  0  0
    7.7746  -13.2884   21.3198 C   0  0  0  0  0  0  0  0  0  0  0  0
    8.0301  -15.7815   21.3063 C   0  0  2  0  0  0  0  0  0  0  0  0
    7.4425  -15.8329   22.6539 N   0  0  0  0  0  0  0  0  0  0  0  0
    9.4821  -15.6147   21.5432 C   0  0  0  0  0  0  0  0  0  0  0  0
   10.0968  -14.6106   21.0392 O   0  0  0  0  0  0  0  0  0  0  0  0
   12.1801  -15.7331   23.6866 C   0  0  0  0  0  0  0  0  0  0  0  0
   11.7327  -16.2903   22.3497 C   0  0  2  0  0  0  0  0  0  0  0  0
   10.3036  -16.4817   22.3046 N   0  0  0  0  0  0  0  0  0  0  0  0
   12.4075  -17.5457   22.0093 C   0  0  0  0  0  0  0  0  0  0  0  0
   11.7414  -18.5961   21.8843 O   0  0  0  0  0  0  0  0  0  0  0  0
   13.7667  -17.5817   21.8254 O   0  0  0  0  0  0  0  0  0  0  0  0
  2  1  1  1
  3  4  1  0
  3  2  1  0
  4  5  2  0
  6  5  1  0
  7  6  1  0
  8  7  2  0
  9  8  1  0
 10  9  2  0
 10 11  1  0
 11 12  2  0
 12  7  1  0
 12  4  1  0
 13  2  1  0
 13 14  2  0
 16 15  1  6
 16 17  1  0
 16 18  1  0
 18 19  1  1
 19 13  1  0
 20 18  1  0
 21 20  2  0
 23 22  1  1
 23 24  1  0
 23 25  1  0
 24 20  1  0
 25 27  1  0
 26 25  2  0
M  END
$$$$
