WVA.pdb
     RDKit          3D

 27 28  0  0  1  0  0  0  0  0999 V2000
    6.1245  -17.9050   24.0319 N   0  0  0  0  0  0  0  0  0  0  0  0
    6.7066  -16.5975   23.8835 C   0  0  1  0  0  0  0  0  0  0  0  0
    7.7105  -16.2134   24.9139 C   0  0  0  0  0  0  0  0  0  0  0  0
    7.1378  -15.2488   25.8637 C   0  0  0  0  0  0  0  0  0  0  0  0
    6.2269  -15.5400   26.8516 C   0  0  0  0  0  0  0  0  0  0  0  0
    5.9741  -14.4160   27.5221 N   0  0  0  0  0  0  0  0  0  0  0  0
    6.7055  -13.4023   26.9846 C   0  0  0  0  0  0  0  0  0  0  0  0
    6.8068  -12.0670   27.2889 C   0  0  0  0  0  0  0  0  0  0  0  0
    7.6457  -11.2707   26.5356 C   0  0  0  0  0  0  0  0  0  0  0  0
    8.3834  -11.7624   25.4929 C   0  0  0  0  0  0  0  0  0  0  0  0
    8.2821  -13.1191   25.1826 C   0  0  0  0  0  0  0  0  0  0  0  0
    7.4418  -13.9113   25.9402 C   0  0  0  0  0  0  0  0  0  0  0  0
    7.3792  -16.4955   22.5489 C   0  0  0  0  0  0  0  0  0  0  0  0
    7.4842  -17.5032   21.8060 O   0  0  0  0  0  0  0  0  0  0  0  0
    6.7769  -13.1764   20.1910 C   0  0  0  0  0  0  0  0  0  0  0  0
    8.1692  -13.7354   20.2090 C   0  0  2  0  0  0  0  0  0  0  0  0
    8.7192  -13.5448   18.7869 C   0  0  0  0  0  0  0  0  0  0  0  0
    8.2869  -15.1538   20.6593 C   0  0  2  0  0  0  0  0  0  0  0  0
    7.9176  -15.2724   22.0782 N   0  0  0  0  0  0  0  0  0  0  0  0
    9.7082  -15.5661   20.6124 C   0  0  0  0  0  0  0  0  0  0  0  0
   10.3196  -15.6122   19.4880 O   0  0  0  0  0  0  0  0  0  0  0  0
   12.8899  -15.4769   22.0374 C   0  0  0  0  0  0  0  0  0  0  0  0
   11.8372  -16.4480   21.5409 C   0  0  2  0  0  0  0  0  0  0  0  0
   10.5043  -15.9283   21.7265 N   0  0  0  0  0  0  0  0  0  0  0  0
   11.9435  -17.7651   22.1742 C   0  0  0  0  0  0  0  0  0  0  0  0
   10.9819  -18.2191   22.8312 O   0  0  0  0  0  0  0  0  0  0  0  0
   13.0904  -18.5085   22.0539 O   0  0  0  0  0  0  0  0  0  0  0  0
  2  1  1  1
  3  4  1  0
  3  2  1  0
  4  5  2  0
  6  5  1  0
  7  6  1  0
  8  7  2  0
  9  8  1  0
 10  9  2  0
 10 11  1  0
 11 12  2  0
 12  7  1  0
 12  4  1  0
 13  2  1  0
 13 14  2  0
 16 15  1  6
 16 17  1  0
 16 18  1  0
 18 19  1  1
 19 13  1  0
 20 18  1  0
 21 20  2  0
 23 22  1  1
 23 24  1  0
 23 25  1  0
 24 20  1  0
 25 27  1  0
 26 25  2  0
M  END
$$$$
