WVA.pdb
     RDKit          3D

 27 28  0  0  1  0  0  0  0  0999 V2000
    8.7530  -16.4055   24.3093 N   0  0  0  0  0  0  0  0  0  0  0  0
    7.3600  -16.4603   23.9530 C   0  0  1  0  0  0  0  0  0  0  0  0
    6.4972  -15.3998   24.5430 C   0  0  0  0  0  0  0  0  0  0  0  0
    7.0666  -14.9091   25.8062 C   0  0  0  0  0  0  0  0  0  0  0  0
    7.8059  -15.6529   26.6953 C   0  0  0  0  0  0  0  0  0  0  0  0
    8.1694  -14.8532   27.6978 N   0  0  0  0  0  0  0  0  0  0  0  0
    7.6774  -13.6047   27.4730 C   0  0  0  0  0  0  0  0  0  0  0  0
    7.7527  -12.4340   28.1868 C   0  0  0  0  0  0  0  0  0  0  0  0
    7.1249  -11.3079   27.6937 C   0  0  0  0  0  0  0  0  0  0  0  0
    6.4275  -11.3130   26.5161 C   0  0  0  0  0  0  0  0  0  0  0  0
    6.3503  -12.5017   25.7892 C   0  0  0  0  0  0  0  0  0  0  0  0
    6.9810  -13.6251   26.2870 C   0  0  0  0  0  0  0  0  0  0  0  0
    7.2182  -16.3706   22.4645 C   0  0  0  0  0  0  0  0  0  0  0  0
    6.0876  -16.4526   21.9228 O   0  0  0  0  0  0  0  0  0  0  0  0
    7.5601  -13.1513   19.4664 C   0  0  0  0  0  0  0  0  0  0  0  0
    7.8047  -14.0195   20.6653 C   0  0  2  0  0  0  0  0  0  0  0  0
    8.8873  -13.3058   21.4898 C   0  0  0  0  0  0  0  0  0  0  0  0
    8.1810  -15.4335   20.3693 C   0  0  2  0  0  0  0  0  0  0  0  0
    8.3412  -16.1926   21.6191 N   0  0  0  0  0  0  0  0  0  0  0  0
    9.5235  -15.4627   19.7455 C   0  0  0  0  0  0  0  0  0  0  0  0
    9.7032  -14.9210   18.5990 O   0  0  0  0  0  0  0  0  0  0  0  0
   10.3675  -18.3190   19.4499 C   0  0  0  0  0  0  0  0  0  0  0  0
   11.3295  -17.1667   19.6610 C   0  0  2  0  0  0  0  0  0  0  0  0
   10.6859  -16.0476   20.3049 N   0  0  0  0  0  0  0  0  0  0  0  0
   11.9566  -16.7217   18.4137 C   0  0  0  0  0  0  0  0  0  0  0  0
   12.7840  -17.4590   17.8357 O   0  0  0  0  0  0  0  0  0  0  0  0
   11.6447  -15.5008   17.8708 O   0  0  0  0  0  0  0  0  0  0  0  0
  2  1  1  6
  3  4  1  0
  3  2  1  0
  4  5  2  0
  6  5  1  0
  7  6  1  0
  8  7  2  0
  9  8  1  0
 10  9  2  0
 10 11  1  0
 11 12  2  0
 12  7  1  0
 12  4  1  0
 13  2  1  0
 13 14  2  0
 16 15  1  6
 16 17  1  0
 16 18  1  0
 18 19  1  1
 19 13  1  0
 20 18  1  0
 21 20  2  0
 23 22  1  6
 23 24  1  0
 23 25  1  0
 24 20  1  0
 25 27  1  0
 26 25  2  0
M  END
$$$$
