WVA.pdb
     RDKit          3D

 27 28  0  0  1  0  0  0  0  0999 V2000
    6.4452  -18.1043   24.2783 N   0  0  0  0  0  0  0  0  0  0  0  0
    7.2756  -16.9539   24.5181 C   0  0  1  0  0  0  0  0  0  0  0  0
    7.2484  -16.4117   25.9047 C   0  0  0  0  0  0  0  0  0  0  0  0
    6.3437  -15.2567   25.9937 C   0  0  0  0  0  0  0  0  0  0  0  0
    4.9976  -15.3114   26.2685 C   0  0  0  0  0  0  0  0  0  0  0  0
    4.5323  -14.0627   26.2951 N   0  0  0  0  0  0  0  0  0  0  0  0
    5.5541  -13.2008   26.0416 C   0  0  0  0  0  0  0  0  0  0  0  0
    5.6131  -11.8320   25.9465 C   0  0  0  0  0  0  0  0  0  0  0  0
    6.8229  -11.2327   25.6588 C   0  0  0  0  0  0  0  0  0  0  0  0
    7.9703  -11.9526   25.4637 C   0  0  0  0  0  0  0  0  0  0  0  0
    7.9124  -13.3436   25.5605 C   0  0  0  0  0  0  0  0  0  0  0  0
    6.6995  -13.9377   25.8494 C   0  0  0  0  0  0  0  0  0  0  0  0
    8.7008  -17.2880   24.2002 C   0  0  0  0  0  0  0  0  0  0  0  0
    9.1162  -18.4705   24.2872 O   0  0  0  0  0  0  0  0  0  0  0  0
   11.1851  -15.7257   21.2775 C   0  0  0  0  0  0  0  0  0  0  0  0
   11.7119  -15.7192   22.6823 C   0  0  2  0  0  0  0  0  0  0  0  0
   13.2171  -16.0070   22.5702 C   0  0  0  0  0  0  0  0  0  0  0  0
   11.0400  -16.6613   23.6255 C   0  0  2  0  0  0  0  0  0  0  0  0
    9.6256  -16.2943   23.7941 N   0  0  0  0  0  0  0  0  0  0  0  0
   11.6258  -16.5030   24.9760 C   0  0  0  0  0  0  0  0  0  0  0  0
   12.8716  -16.7363   25.1596 O   0  0  0  0  0  0  0  0  0  0  0  0
   11.1067  -14.7052   28.1450 C   0  0  0  0  0  0  0  0  0  0  0  0
   11.6267  -15.9120   27.3892 C   0  0  2  0  0  0  0  0  0  0  0  0
   10.9283  -16.0992   26.1408 N   0  0  0  0  0  0  0  0  0  0  0  0
   11.5579  -17.1436   28.1801 C   0  0  0  0  0  0  0  0  0  0  0  0
   10.8947  -18.1165   27.7603 O   0  0  0  0  0  0  0  0  0  0  0  0
   12.2154  -17.2418   29.3803 O   0  0  0  0  0  0  0  0  0  0  0  0
  2  1  1  1
  3  4  1  0
  3  2  1  0
  4  5  2  0
  6  5  1  0
  7  6  1  0
  8  7  2  0
  9  8  1  0
 10  9  2  0
 10 11  1  0
 11 12  2  0
 12  7  1  0
 12  4  1  0
 13  2  1  0
 13 14  2  0
 16 15  1  6
 16 17  1  0
 16 18  1  0
 18 19  1  1
 19 13  1  0
 20 18  1  0
 21 20  2  0
 23 22  1  1
 23 24  1  0
 23 25  1  0
 24 20  1  0
 25 27  1  0
 26 25  2  0
M  END
$$$$
