WVA.pdb
     RDKit          3D

 27 28  0  0  1  0  0  0  0  0999 V2000
    6.0034  -18.2586   24.2135 N   0  0  0  0  0  0  0  0  0  0  0  0
    6.5482  -16.9311   24.1075 C   0  0  1  0  0  0  0  0  0  0  0  0
    7.4514  -16.5103   25.2140 C   0  0  0  0  0  0  0  0  0  0  0  0
    6.8312  -15.4451   26.0149 C   0  0  0  0  0  0  0  0  0  0  0  0
    5.8513  -15.6215   26.9630 C   0  0  0  0  0  0  0  0  0  0  0  0
    5.5715  -14.4305   27.4918 N   0  0  0  0  0  0  0  0  0  0  0  0
    6.3534  -13.4861   26.9018 C   0  0  0  0  0  0  0  0  0  0  0  0
    6.4550  -12.1268   27.0694 C   0  0  0  0  0  0  0  0  0  0  0  0
    7.3554  -11.4225   26.2956 C   0  0  0  0  0  0  0  0  0  0  0  0
    8.1539  -12.0288   25.3641 C   0  0  0  0  0  0  0  0  0  0  0  0
    8.0524  -13.4100   25.1927 C   0  0  0  0  0  0  0  0  0  0  0  0
    7.1504  -14.1097   25.9702 C   0  0  0  0  0  0  0  0  0  0  0  0
    7.3222  -16.8061   22.8311 C   0  0  0  0  0  0  0  0  0  0  0  0
    7.6411  -17.8275   22.1728 O   0  0  0  0  0  0  0  0  0  0  0  0
    8.5262  -12.9543   21.1162 C   0  0  0  0  0  0  0  0  0  0  0  0
    8.0657  -14.1605   20.3520 C   0  0  2  0  0  0  0  0  0  0  0  0
    6.5609  -13.9605   20.1139 C   0  0  0  0  0  0  0  0  0  0  0  0
    8.3511  -15.4770   20.9954 C   0  0  2  0  0  0  0  0  0  0  0  0
    7.7206  -15.5450   22.3227 N   0  0  0  0  0  0  0  0  0  0  0  0
    9.8021  -15.5834   21.2703 C   0  0  0  0  0  0  0  0  0  0  0  0
   10.6403  -15.4820   20.3074 O   0  0  0  0  0  0  0  0  0  0  0  0
   12.4101  -15.1894   23.7901 C   0  0  0  0  0  0  0  0  0  0  0  0
   11.8130  -16.0114   22.6651 C   0  0  2  0  0  0  0  0  0  0  0  0
   10.3928  -15.7907   22.5409 N   0  0  0  0  0  0  0  0  0  0  0  0
   12.0762  -17.4450   22.8150 C   0  0  0  0  0  0  0  0  0  0  0  0
   13.2514  -17.8523   22.9392 O   0  0  0  0  0  0  0  0  0  0  0  0
   11.0439  -18.3488   22.8207 O   0  0  0  0  0  0  0  0  0  0  0  0
  2  1  1  1
  3  4  1  0
  3  2  1  0
  4  5  2  0
  6  5  1  0
  7  6  1  0
  8  7  2  0
  9  8  1  0
 10  9  2  0
 10 11  1  0
 11 12  2  0
 12  7  1  0
 12  4  1  0
 13  2  1  0
 13 14  2  0
 16 15  1  1
 16 17  1  0
 16 18  1  0
 18 19  1  1
 19 13  1  0
 20 18  1  0
 21 20  2  0
 23 22  1  1
 23 24  1  0
 23 25  1  0
 24 20  1  0
 25 27  1  0
 26 25  2  0
M  END
$$$$
