WVA.pdb
     RDKit          3D

 27 28  0  0  1  0  0  0  0  0999 V2000
    6.4051  -18.6286   24.6801 N   0  0  0  0  0  0  0  0  0  0  0  0
    6.6702  -17.2240   24.5156 C   0  0  1  0  0  0  0  0  0  0  0  0
    7.4805  -16.5864   25.5900 C   0  0  0  0  0  0  0  0  0  0  0  0
    6.8394  -15.3502   26.0605 C   0  0  0  0  0  0  0  0  0  0  0  0
    5.5171  -15.2159   26.4122 C   0  0  0  0  0  0  0  0  0  0  0  0
    5.3242  -13.9599   26.8147 N   0  0  0  0  0  0  0  0  0  0  0  0
    6.4990  -13.2790   26.7290 C   0  0  0  0  0  0  0  0  0  0  0  0
    6.8416  -11.9786   27.0074 C   0  0  0  0  0  0  0  0  0  0  0  0
    8.1445  -11.5712   26.8026 C   0  0  0  0  0  0  0  0  0  0  0  0
    9.1120  -12.4165   26.3308 C   0  0  0  0  0  0  0  0  0  0  0  0
    8.7658  -13.7384   26.0478 C   0  0  0  0  0  0  0  0  0  0  0  0
    7.4609  -14.1406   26.2554 C   0  0  0  0  0  0  0  0  0  0  0  0
    7.3910  -16.9968   23.2222 C   0  0  0  0  0  0  0  0  0  0  0  0
    7.8078  -17.9675   22.5423 O   0  0  0  0  0  0  0  0  0  0  0  0
    6.5285  -13.8461   20.5904 C   0  0  0  0  0  0  0  0  0  0  0  0
    7.9694  -14.1699   20.8549 C   0  0  2  0  0  0  0  0  0  0  0  0
    8.7070  -13.9276   19.5289 C   0  0  0  0  0  0  0  0  0  0  0  0
    8.2333  -15.5385   21.3895 C   0  0  2  0  0  0  0  0  0  0  0  0
    7.6285  -15.6928   22.7215 N   0  0  0  0  0  0  0  0  0  0  0  0
    9.6863  -15.7013   21.6231 C   0  0  0  0  0  0  0  0  0  0  0  0
   10.4977  -15.6586   20.6331 O   0  0  0  0  0  0  0  0  0  0  0  0
   12.3508  -15.2696   24.0680 C   0  0  0  0  0  0  0  0  0  0  0  0
   11.7314  -16.1141   22.9721 C   0  0  2  0  0  0  0  0  0  0  0  0
   10.3070  -15.9045   22.8800 N   0  0  0  0  0  0  0  0  0  0  0  0
   12.0078  -17.5434   23.1392 C   0  0  0  0  0  0  0  0  0  0  0  0
   11.0611  -18.3571   23.2016 O   0  0  0  0  0  0  0  0  0  0  0  0
   13.2985  -18.0004   23.2280 O   0  0  0  0  0  0  0  0  0  0  0  0
  2  1  1  1
  3  4  1  0
  3  2  1  0
  4  5  2  0
  6  5  1  0
  7  6  1  0
  8  7  2  0
  9  8  1  0
 10  9  2  0
 10 11  1  0
 11 12  2  0
 12  7  1  0
 12  4  1  0
 13  2  1  0
 13 14  2  0
 16 15  1  6
 16 17  1  0
 16 18  1  0
 18 19  1  1
 19 13  1  0
 20 18  1  0
 21 20  2  0
 23 22  1  1
 23 24  1  0
 23 25  1  0
 24 20  1  0
 25 27  1  0
 26 25  2  0
M  END
$$$$
