WVA.pdb
     RDKit          3D

 27 28  0  0  1  0  0  0  0  0999 V2000
    6.3298  -18.1806   24.5760 N   0  0  0  0  0  0  0  0  0  0  0  0
    6.6200  -16.7956   24.3157 C   0  0  1  0  0  0  0  0  0  0  0  0
    7.4593  -16.1059   25.3341 C   0  0  0  0  0  0  0  0  0  0  0  0
    6.7251  -14.9867   25.9416 C   0  0  0  0  0  0  0  0  0  0  0  0
    5.4096  -15.0126   26.3405 C   0  0  0  0  0  0  0  0  0  0  0  0
    5.1171  -13.8250   26.8702 N   0  0  0  0  0  0  0  0  0  0  0  0
    6.2207  -13.0307   26.8204 C   0  0  0  0  0  0  0  0  0  0  0  0
    6.4525  -11.7364   27.2166 C   0  0  0  0  0  0  0  0  0  0  0  0
    7.7044  -11.1897   27.0179 C   0  0  0  0  0  0  0  0  0  0  0  0
    8.7275  -11.8904   26.4390 C   0  0  0  0  0  0  0  0  0  0  0  0
    8.4939  -13.2059   26.0362 C   0  0  0  0  0  0  0  0  0  0  0  0
    7.2397  -13.7480   26.2382 C   0  0  0  0  0  0  0  0  0  0  0  0
    7.3249  -16.6686   23.0000 C   0  0  0  0  0  0  0  0  0  0  0  0
    7.8247  -17.6767   22.4414 O   0  0  0  0  0  0  0  0  0  0  0  0
    8.4793  -13.8338   19.0376 C   0  0  0  0  0  0  0  0  0  0  0  0
    7.8547  -14.0275   20.3880 C   0  0  2  0  0  0  0  0  0  0  0  0
    8.4417  -12.9279   21.2864 C   0  0  0  0  0  0  0  0  0  0  0  0
    8.0310  -15.3824   20.9896 C   0  0  2  0  0  0  0  0  0  0  0  0
    7.4543  -15.4204   22.3423 N   0  0  0  0  0  0  0  0  0  0  0  0
    9.4739  -15.6425   21.1963 C   0  0  0  0  0  0  0  0  0  0  0  0
   10.1798  -14.8105   21.8669 O   0  0  0  0  0  0  0  0  0  0  0  0
   11.9247  -18.1305   21.7746 C   0  0  0  0  0  0  0  0  0  0  0  0
   11.6080  -16.8923   20.9595 C   0  0  2  0  0  0  0  0  0  0  0  0
   10.1920  -16.7644   20.7148 N   0  0  0  0  0  0  0  0  0  0  0  0
   12.3318  -16.8568   19.6860 C   0  0  0  0  0  0  0  0  0  0  0  0
   13.5792  -16.7754   19.6813 O   0  0  0  0  0  0  0  0  0  0  0  0
   11.6540  -16.9122   18.4944 O   0  0  0  0  0  0  0  0  0  0  0  0
  2  1  1  1
  3  4  1  0
  3  2  1  0
  4  5  2  0
  6  5  1  0
  7  6  1  0
  8  7  2  0
  9  8  1  0
 10  9  2  0
 10 11  1  0
 11 12  2  0
 12  7  1  0
 12  4  1  0
 13  2  1  0
 13 14  2  0
 16 15  1  6
 16 17  1  0
 16 18  1  0
 18 19  1  1
 19 13  1  0
 20 18  1  0
 21 20  2  0
 23 22  1  6
 23 24  1  0
 23 25  1  0
 24 20  1  0
 25 27  1  0
 26 25  2  0
M  END
$$$$
