WVA.pdb
     RDKit          3D

 27 28  0  0  1  0  0  0  0  0999 V2000
    5.8579  -17.8836   24.1536 N   0  0  0  0  0  0  0  0  0  0  0  0
    6.5607  -16.6383   23.9933 C   0  0  1  0  0  0  0  0  0  0  0  0
    7.5580  -16.3152   25.0509 C   0  0  0  0  0  0  0  0  0  0  0  0
    7.0215  -15.3130   25.9827 C   0  0  0  0  0  0  0  0  0  0  0  0
    6.1649  -15.5668   27.0278 C   0  0  0  0  0  0  0  0  0  0  0  0
    5.9319  -14.4153   27.6574 N   0  0  0  0  0  0  0  0  0  0  0  0
    6.6227  -13.4205   27.0373 C   0  0  0  0  0  0  0  0  0  0  0  0
    6.7224  -12.0714   27.2738 C   0  0  0  0  0  0  0  0  0  0  0  0
    7.5125  -11.3028   26.4429 C   0  0  0  0  0  0  0  0  0  0  0  0
    8.2032  -11.8354   25.3882 C   0  0  0  0  0  0  0  0  0  0  0  0
    8.1035  -13.2061   25.1466 C   0  0  0  0  0  0  0  0  0  0  0  0
    7.3121  -13.9703   25.9816 C   0  0  0  0  0  0  0  0  0  0  0  0
    7.2868  -16.6362   22.6831 C   0  0  0  0  0  0  0  0  0  0  0  0
    7.4739  -17.7067   22.0529 O   0  0  0  0  0  0  0  0  0  0  0  0
    8.7027  -12.9728   20.7655 C   0  0  0  0  0  0  0  0  0  0  0  0
    8.1398  -14.1735   20.0636 C   0  0  2  0  0  0  0  0  0  0  0  0
    6.6462  -13.8791   19.8552 C   0  0  0  0  0  0  0  0  0  0  0  0
    8.3523  -15.4801   20.7536 C   0  0  2  0  0  0  0  0  0  0  0  0
    7.7858  -15.4401   22.1106 N   0  0  0  0  0  0  0  0  0  0  0  0
    9.8024  -15.6919   20.9654 C   0  0  0  0  0  0  0  0  0  0  0  0
   10.5903  -15.7473   19.9573 O   0  0  0  0  0  0  0  0  0  0  0  0
   12.5103  -15.2387   23.3845 C   0  0  0  0  0  0  0  0  0  0  0  0
   11.8667  -16.0726   22.2943 C   0  0  2  0  0  0  0  0  0  0  0  0
   10.4444  -15.8431   22.2189 N   0  0  0  0  0  0  0  0  0  0  0  0
   12.1252  -17.5058   22.4558 C   0  0  0  0  0  0  0  0  0  0  0  0
   11.1701  -18.2964   22.6143 O   0  0  0  0  0  0  0  0  0  0  0  0
   13.4081  -17.9918   22.4350 O   0  0  0  0  0  0  0  0  0  0  0  0
  2  1  1  1
  3  4  1  0
  3  2  1  0
  4  5  2  0
  6  5  1  0
  7  6  1  0
  8  7  2  0
  9  8  1  0
 10  9  2  0
 10 11  1  0
 11 12  2  0
 12  7  1  0
 12  4  1  0
 13  2  1  0
 13 14  2  0
 16 15  1  1
 16 17  1  0
 16 18  1  0
 18 19  1  1
 19 13  1  0
 20 18  1  0
 21 20  2  0
 23 22  1  1
 23 24  1  0
 23 25  1  0
 24 20  1  0
 25 27  1  0
 26 25  2  0
M  END
$$$$
