ITH.pdb
     RDKit          3D

 26 26  0  0  1  0  0  0  0  0999 V2000
   27.4513  -20.0492   -6.6696 C   0  0  0  0  0  0  0  0  0  0  0  0
   27.7697  -20.9276   -7.8869 C   0  0  0  0  0  0  0  0  0  0  0  0
   26.8860  -20.5432   -9.0179 C   0  0  2  0  0  0  0  0  0  0  0  0
   25.4523  -20.6662   -8.5436 C   0  0  0  0  0  0  0  0  0  0  0  0
   27.1200  -21.2491  -10.3138 C   0  0  2  0  0  0  0  0  0  0  0  0
   28.5854  -21.3338  -10.4796 N   0  0  0  0  0  0  0  0  0  0  0  0
   26.5458  -20.6008  -11.5060 C   0  0  0  0  0  0  0  0  0  0  0  0
   26.8243  -19.3870  -11.7434 O   0  0  0  0  0  0  0  0  0  0  0  0
   27.2892  -20.8638  -14.7397 C   0  0  0  0  0  0  0  0  0  0  0  0
   25.8189  -21.3152  -14.7439 C   0  0  1  0  0  0  0  0  0  0  0  0
   25.7331  -22.6648  -15.0451 O   0  0  0  0  0  0  0  0  0  0  0  0
   25.0704  -20.8443  -13.5712 C   0  0  2  0  0  0  0  0  0  0  0  0
   25.7102  -21.3079  -12.3674 N   0  0  0  0  0  0  0  0  0  0  0  0
   23.6021  -21.0042  -13.5834 C   0  0  0  0  0  0  0  0  0  0  0  0
   23.0941  -21.8313  -12.7889 O   0  0  0  0  0  0  0  0  0  0  0  0
   22.7281  -20.2872  -14.4291 N   0  0  0  0  0  0  0  0  0  0  0  0
   21.2832  -20.4533  -14.3909 C   0  0  1  0  0  0  0  0  0  0  0  0
   20.5996  -19.1358  -14.1384 C   0  0  0  0  0  0  0  0  0  0  0  0
   20.0203  -19.0860  -12.7670 C   0  0  0  0  0  0  0  0  0  0  0  0
   20.1349  -20.0506  -11.7718 C   0  0  0  0  0  0  0  0  0  0  0  0
   19.4748  -19.6335  -10.6873 N   0  0  0  0  0  0  0  0  0  0  0  0
   18.9430  -18.4342  -10.9583 C   0  0  0  0  0  0  0  0  0  0  0  0
   19.2792  -18.1176  -12.2127 N   0  0  0  0  0  0  0  0  0  0  0  0
   20.7850  -21.0007  -15.6948 C   0  0  0  0  0  0  0  0  0  0  0  0
   19.5885  -21.6705  -15.8117 O   0  0  0  0  0  0  0  0  0  0  0  0
   21.4883  -20.8415  -16.7222 O   0  0  0  0  0  0  0  0  0  0  0  0
  2  3  1  0
  2  1  1  0
  3  5  1  0
  3  4  1  1
  5  7  1  0
  5  6  1  6
  7  8  2  0
 10  9  1  1
 10 12  1  0
 11 10  1  0
 12 13  1  1
 13  7  1  0
 14 15  2  0
 14 12  1  0
 16 14  1  0
 17 24  1  0
 17 16  1  0
 17 18  1  6
 19 18  1  0
 20 19  2  0
 21 20  1  0
 22 21  1  0
 22 23  2  0
 23 19  1  0
 24 25  1  0
 26 24  2  0
M  END
$$$$
