ITH.pdb
     RDKit          3D

 26 26  0  0  1  0  0  0  0  0999 V2000
   23.3173  -15.9978  -21.0240 C   0  0  0  0  0  0  0  0  0  0  0  0
   24.5618  -15.6198  -20.2098 C   0  0  0  0  0  0  0  0  0  0  0  0
   24.2183  -14.5300  -19.2600 C   0  0  2  0  0  0  0  0  0  0  0  0
   23.5272  -13.4350  -20.0469 C   0  0  0  0  0  0  0  0  0  0  0  0
   25.3350  -14.0073  -18.4161 C   0  0  2  0  0  0  0  0  0  0  0  0
   25.9538  -15.1847  -17.7737 N   0  0  0  0  0  0  0  0  0  0  0  0
   24.9469  -13.0464  -17.3684 C   0  0  0  0  0  0  0  0  0  0  0  0
   24.1855  -13.4298  -16.4301 O   0  0  0  0  0  0  0  0  0  0  0  0
   27.1667  -11.1047  -15.1489 C   0  0  0  0  0  0  0  0  0  0  0  0
   26.3437  -10.0879  -15.9578 C   0  0  1  0  0  0  0  0  0  0  0  0
   27.1619   -9.4063  -16.8442 O   0  0  0  0  0  0  0  0  0  0  0  0
   25.1011  -10.6549  -16.4977 C   0  0  2  0  0  0  0  0  0  0  0  0
   25.4103  -11.7332  -17.4005 N   0  0  0  0  0  0  0  0  0  0  0  0
   24.0767   -9.7150  -16.9966 C   0  0  0  0  0  0  0  0  0  0  0  0
   23.9460   -9.5922  -18.2380 O   0  0  0  0  0  0  0  0  0  0  0  0
   23.2309   -8.9438  -16.1701 N   0  0  0  0  0  0  0  0  0  0  0  0
   22.2386   -8.0216  -16.7011 C   0  0  1  0  0  0  0  0  0  0  0  0
   20.9618   -8.7452  -17.0378 C   0  0  0  0  0  0  0  0  0  0  0  0
   19.9142   -7.7953  -17.5056 C   0  0  0  0  0  0  0  0  0  0  0  0
   20.0491   -6.4245  -17.6973 C   0  0  0  0  0  0  0  0  0  0  0  0
   18.8826   -5.9306  -18.1231 N   0  0  0  0  0  0  0  0  0  0  0  0
   18.0081   -6.9417  -18.2092 C   0  0  0  0  0  0  0  0  0  0  0  0
   18.6424   -8.0571  -17.8347 N   0  0  0  0  0  0  0  0  0  0  0  0
   21.9249   -6.9548  -15.6955 C   0  0  0  0  0  0  0  0  0  0  0  0
   22.4120   -6.9792  -14.4086 O   0  0  0  0  0  0  0  0  0  0  0  0
   21.1875   -5.9998  -16.0417 O   0  0  0  0  0  0  0  0  0  0  0  0
  2  3  1  0
  2  1  1  0
  3  5  1  0
  3  4  1  6
  5  7  1  0
  5  6  1  1
  7  8  2  0
 10  9  1  6
 10 12  1  0
 11 10  1  0
 12 13  1  6
 13  7  1  0
 14 15  2  0
 14 12  1  0
 16 14  1  0
 17 24  1  0
 17 16  1  0
 17 18  1  1
 19 18  1  0
 20 19  2  0
 21 20  1  0
 22 21  1  0
 22 23  2  0
 23 19  1  0
 24 25  1  0
 26 24  2  0
M  END
$$$$
