ITH.pdb
     RDKit          3D

 26 26  0  0  1  0  0  0  0  0999 V2000
   17.5621  -16.5980  -18.4941 C   0  0  0  0  0  0  0  0  0  0  0  0
   17.7605  -15.5709  -17.3714 C   0  0  0  0  0  0  0  0  0  0  0  0
   18.2364  -14.2892  -17.9532 C   0  0  2  0  0  0  0  0  0  0  0  0
   19.4891  -14.5841  -18.7528 C   0  0  0  0  0  0  0  0  0  0  0  0
   18.4234  -13.1549  -16.9988 C   0  0  2  0  0  0  0  0  0  0  0  0
   17.1754  -13.0650  -16.2139 N   0  0  0  0  0  0  0  0  0  0  0  0
   18.6916  -11.8424  -17.6127 C   0  0  0  0  0  0  0  0  0  0  0  0
   19.7013  -11.7083  -18.3674 O   0  0  0  0  0  0  0  0  0  0  0  0
   16.3737   -9.8204  -19.7644 C   0  0  0  0  0  0  0  0  0  0  0  0
   16.7017   -9.0064  -18.5013 C   0  0  1  0  0  0  0  0  0  0  0  0
   15.5865   -8.9204  -17.6838 O   0  0  0  0  0  0  0  0  0  0  0  0
   17.9634   -9.4123  -17.8684 C   0  0  2  0  0  0  0  0  0  0  0  0
   17.8483  -10.7597  -17.3740 N   0  0  0  0  0  0  0  0  0  0  0  0
   18.5942   -8.4670  -16.9248 C   0  0  0  0  0  0  0  0  0  0  0  0
   18.2488   -8.5202  -15.7202 O   0  0  0  0  0  0  0  0  0  0  0  0
   19.5630   -7.5058  -17.2861 N   0  0  0  0  0  0  0  0  0  0  0  0
   20.1892   -6.6171  -16.3191 C   0  0  1  0  0  0  0  0  0  0  0  0
   21.6071   -7.0414  -16.0421 C   0  0  0  0  0  0  0  0  0  0  0  0
   21.6521   -8.1369  -15.0339 C   0  0  0  0  0  0  0  0  0  0  0  0
   20.5818   -8.6664  -14.3211 C   0  0  0  0  0  0  0  0  0  0  0  0
   21.0338   -9.6330  -13.5167 N   0  0  0  0  0  0  0  0  0  0  0  0
   22.3577   -9.7373  -13.6931 C   0  0  0  0  0  0  0  0  0  0  0  0
   22.7156   -8.8314  -14.6084 N   0  0  0  0  0  0  0  0  0  0  0  0
   20.2107   -5.2108  -16.8383 C   0  0  0  0  0  0  0  0  0  0  0  0
   20.4791   -4.1256  -16.0357 O   0  0  0  0  0  0  0  0  0  0  0  0
   19.9742   -5.0151  -18.0554 O   0  0  0  0  0  0  0  0  0  0  0  0
  2  3  1  0
  2  1  1  0
  3  5  1  0
  3  4  1  1
  5  7  1  0
  5  6  1  6
  7  8  2  0
 10  9  1  6
 10 12  1  0
 11 10  1  0
 12 13  1  1
 13  7  1  0
 14 15  2  0
 14 12  1  0
 16 14  1  0
 17 24  1  0
 17 16  1  0
 17 18  1  6
 19 18  1  0
 20 19  2  0
 21 20  1  0
 22 21  1  0
 22 23  2  0
 23 19  1  0
 24 25  1  0
 26 24  2  0
M  END
$$$$
