ITH.pdb
     RDKit          3D

 26 26  0  0  1  0  0  0  0  0999 V2000
   27.6119  -19.3193   -7.1636 C   0  0  0  0  0  0  0  0  0  0  0  0
   27.6655  -20.5488   -8.0803 C   0  0  0  0  0  0  0  0  0  0  0  0
   26.9230  -20.2620   -9.3350 C   0  0  2  0  0  0  0  0  0  0  0  0
   25.4955  -19.9226   -8.9573 C   0  0  0  0  0  0  0  0  0  0  0  0
   26.9973  -21.3031  -10.4041 C   0  0  2  0  0  0  0  0  0  0  0  0
   28.4307  -21.6144  -10.5790 N   0  0  0  0  0  0  0  0  0  0  0  0
   26.4343  -20.9176  -11.7102 C   0  0  0  0  0  0  0  0  0  0  0  0
   27.2137  -20.7683  -12.6988 O   0  0  0  0  0  0  0  0  0  0  0  0
   26.2483  -21.8112  -14.1541 C   0  0  0  0  0  0  0  0  0  0  0  0
   24.7212  -21.7109  -14.0007 C   0  0  1  0  0  0  0  0  0  0  0  0
   24.1776  -22.9674  -13.7879 O   0  0  0  0  0  0  0  0  0  0  0  0
   24.3053  -20.6401  -13.0855 C   0  0  2  0  0  0  0  0  0  0  0  0
   25.0638  -20.7219  -11.8643 N   0  0  0  0  0  0  0  0  0  0  0  0
   22.8568  -20.4255  -12.8919 C   0  0  0  0  0  0  0  0  0  0  0  0
   22.3288  -20.8823  -11.8499 O   0  0  0  0  0  0  0  0  0  0  0  0
   22.0232  -19.7384  -13.8009 N   0  0  0  0  0  0  0  0  0  0  0  0
   20.6172  -19.4750  -13.5352 C   0  0  1  0  0  0  0  0  0  0  0  0
   20.0953  -18.3913  -14.4409 C   0  0  0  0  0  0  0  0  0  0  0  0
   20.4661  -18.6529  -15.8596 C   0  0  0  0  0  0  0  0  0  0  0  0
   21.7103  -18.4623  -16.4509 C   0  0  0  0  0  0  0  0  0  0  0  0
   21.6354  -18.8127  -17.7383 N   0  0  0  0  0  0  0  0  0  0  0  0
   20.3840  -19.2206  -17.9875 C   0  0  0  0  0  0  0  0  0  0  0  0
   19.6920  -19.1190  -16.8484 N   0  0  0  0  0  0  0  0  0  0  0  0
   19.8013  -20.7123  -13.7617 C   0  0  0  0  0  0  0  0  0  0  0  0
   18.5087  -20.8444  -13.3083 O   0  0  0  0  0  0  0  0  0  0  0  0
   20.3187  -21.6673  -14.3910 O   0  0  0  0  0  0  0  0  0  0  0  0
  2  3  1  0
  2  1  1  0
  3  5  1  0
  3  4  1  1
  5  7  1  0
  5  6  1  6
  7  8  2  0
 10  9  1  1
 10 12  1  0
 11 10  1  0
 12 13  1  1
 13  7  1  0
 14 15  2  0
 14 12  1  0
 16 14  1  0
 17 24  1  0
 17 16  1  0
 17 18  1  6
 19 18  1  0
 20 19  2  0
 21 20  1  0
 22 21  1  0
 22 23  2  0
 23 19  1  0
 24 25  1  0
 26 24  2  0
M  END
$$$$
