ITH.pdb
     RDKit          3D

 26 26  0  0  1  0  0  0  0  0999 V2000
   18.9691    3.3476  -13.7274 C   0  0  0  0  0  0  0  0  0  0  0  0
   19.8347    2.3757  -14.5402 C   0  0  0  0  0  0  0  0  0  0  0  0
   19.0047    1.2243  -14.9798 C   0  0  2  0  0  0  0  0  0  0  0  0
   18.3548    0.6289  -13.7474 C   0  0  0  0  0  0  0  0  0  0  0  0
   19.6886    0.1935  -15.8178 C   0  0  2  0  0  0  0  0  0  0  0  0
   20.2152    0.9050  -17.0003 N   0  0  0  0  0  0  0  0  0  0  0  0
   18.8407   -0.9214  -16.2755 C   0  0  0  0  0  0  0  0  0  0  0  0
   18.1018   -0.7582  -17.2926 O   0  0  0  0  0  0  0  0  0  0  0  0
   17.9216   -2.5037  -18.3112 C   0  0  0  0  0  0  0  0  0  0  0  0
   18.3990   -3.6440  -17.3961 C   0  0  1  0  0  0  0  0  0  0  0  0
   19.6668   -4.0592  -17.7699 O   0  0  0  0  0  0  0  0  0  0  0  0
   18.1812   -3.3655  -15.9706 C   0  0  2  0  0  0  0  0  0  0  0  0
   18.8491   -2.1429  -15.6061 N   0  0  0  0  0  0  0  0  0  0  0  0
   18.3752   -4.4757  -15.0159 C   0  0  0  0  0  0  0  0  0  0  0  0
   19.5389   -4.7029  -14.6067 O   0  0  0  0  0  0  0  0  0  0  0  0
   17.3378   -5.3007  -14.5296 N   0  0  0  0  0  0  0  0  0  0  0  0
   17.5757   -6.4107  -13.6196 C   0  0  1  0  0  0  0  0  0  0  0  0
   16.3031   -6.8137  -12.9230 C   0  0  0  0  0  0  0  0  0  0  0  0
   16.5371   -7.9567  -11.9970 C   0  0  0  0  0  0  0  0  0  0  0  0
   17.2894   -7.9490  -10.8273 C   0  0  0  0  0  0  0  0  0  0  0  0
   17.2546   -9.1690  -10.2828 N   0  0  0  0  0  0  0  0  0  0  0  0
   16.5046   -9.9545  -11.0671 C   0  0  0  0  0  0  0  0  0  0  0  0
   16.0798   -9.2120  -12.0942 N   0  0  0  0  0  0  0  0  0  0  0  0
   18.0994   -7.5988  -14.3693 C   0  0  0  0  0  0  0  0  0  0  0  0
   19.0453   -8.4506  -13.8462 O   0  0  0  0  0  0  0  0  0  0  0  0
   17.6568   -7.8259  -15.5217 O   0  0  0  0  0  0  0  0  0  0  0  0
  2  3  1  0
  2  1  1  0
  3  5  1  0
  3  4  1  1
  5  7  1  0
  5  6  1  6
  7  8  2  0
 10  9  1  6
 10 12  1  0
 11 10  1  0
 12 13  1  1
 13  7  1  0
 14 15  2  0
 14 12  1  0
 16 14  1  0
 17 24  1  0
 17 16  1  0
 17 18  1  6
 19 18  1  0
 20 19  2  0
 21 20  1  0
 22 21  1  0
 22 23  2  0
 23 19  1  0
 24 25  1  0
 26 24  2  0
M  END
$$$$
