ITH.pdb
     RDKit          3D

 26 26  0  0  1  0  0  0  0  0999 V2000
   18.4250  -14.3181  -17.9688 C   0  0  0  0  0  0  0  0  0  0  0  0
   18.1082  -13.8490  -16.5425 C   0  0  0  0  0  0  0  0  0  0  0  0
   18.0835  -12.3638  -16.5051 C   0  0  2  0  0  0  0  0  0  0  0  0
   19.3860  -11.8671  -17.0989 C   0  0  0  0  0  0  0  0  0  0  0  0
   17.7849  -11.7371  -15.1820 C   0  0  2  0  0  0  0  0  0  0  0  0
   16.5067  -12.3212  -14.7270 N   0  0  0  0  0  0  0  0  0  0  0  0
   17.6593  -10.2689  -15.1855 C   0  0  0  0  0  0  0  0  0  0  0  0
   16.7006   -9.7326  -15.8182 O   0  0  0  0  0  0  0  0  0  0  0  0
   16.0462   -8.0379  -14.1407 C   0  0  0  0  0  0  0  0  0  0  0  0
   17.3883   -7.6863  -13.4769 C   0  0  1  0  0  0  0  0  0  0  0  0
   17.3956   -8.1099  -12.1577 O   0  0  0  0  0  0  0  0  0  0  0  0
   18.5488   -8.0491  -14.3007 C   0  0  2  0  0  0  0  0  0  0  0  0
   18.5765   -9.4748  -14.5011 N   0  0  0  0  0  0  0  0  0  0  0  0
   19.8547   -7.4561  -13.9477 C   0  0  0  0  0  0  0  0  0  0  0  0
   20.5987   -8.0954  -13.1660 O   0  0  0  0  0  0  0  0  0  0  0  0
   20.3253   -6.2162  -14.4318 N   0  0  0  0  0  0  0  0  0  0  0  0
   21.6060   -5.6511  -14.0352 C   0  0  1  0  0  0  0  0  0  0  0  0
   22.5982   -5.7290  -15.1652 C   0  0  0  0  0  0  0  0  0  0  0  0
   22.7539   -7.1298  -15.6469 C   0  0  0  0  0  0  0  0  0  0  0  0
   23.5795   -8.1139  -15.1139 C   0  0  0  0  0  0  0  0  0  0  0  0
   23.4337   -9.2340  -15.8280 N   0  0  0  0  0  0  0  0  0  0  0  0
   22.5420   -8.9965  -16.7991 C   0  0  0  0  0  0  0  0  0  0  0  0
   22.1416   -7.7270  -16.6778 N   0  0  0  0  0  0  0  0  0  0  0  0
   21.4451   -4.2118  -13.6474 C   0  0  0  0  0  0  0  0  0  0  0  0
   22.4590   -3.4777  -13.0754 O   0  0  0  0  0  0  0  0  0  0  0  0
   20.3400   -3.6533  -13.8530 O   0  0  0  0  0  0  0  0  0  0  0  0
  2  3  1  0
  2  1  1  0
  3  5  1  0
  3  4  1  1
  5  7  1  0
  5  6  1  6
  7  8  2  0
 10  9  1  6
 10 12  1  0
 11 10  1  0
 12 13  1  1
 13  7  1  0
 14 15  2  0
 14 12  1  0
 16 14  1  0
 17 24  1  0
 17 16  1  0
 17 18  1  6
 19 18  1  0
 20 19  2  0
 21 20  1  0
 22 21  1  0
 22 23  2  0
 23 19  1  0
 24 25  1  0
 26 24  2  0
M  END
$$$$
