ITH.pdb
     RDKit          3D

 26 26  0  0  1  0  0  0  0  0999 V2000
   17.7119  -23.3375  -12.1360 C   0  0  0  0  0  0  0  0  0  0  0  0
   18.6249  -24.0218  -11.1099 C   0  0  0  0  0  0  0  0  0  0  0  0
   17.8096  -24.4946   -9.9612 C   0  0  2  0  0  0  0  0  0  0  0  0
   16.9452  -23.3374   -9.5036 C   0  0  0  0  0  0  0  0  0  0  0  0
   18.5559  -25.1293   -8.8331 C   0  0  2  0  0  0  0  0  0  0  0  0
   19.3655  -26.2111   -9.4298 N   0  0  0  0  0  0  0  0  0  0  0  0
   17.7239  -25.6990   -7.7585 C   0  0  0  0  0  0  0  0  0  0  0  0
   16.7390  -26.4359   -8.0648 O   0  0  0  0  0  0  0  0  0  0  0  0
   18.7758  -27.8513   -4.9169 C   0  0  0  0  0  0  0  0  0  0  0  0
   18.1943  -26.5548   -4.3282 C   0  0  1  0  0  0  0  0  0  0  0  0
   19.2000  -25.7990   -3.7478 O   0  0  0  0  0  0  0  0  0  0  0  0
   17.2869  -25.8615   -5.2517 C   0  0  2  0  0  0  0  0  0  0  0  0
   18.0128  -25.4382   -6.4210 N   0  0  0  0  0  0  0  0  0  0  0  0
   16.3843  -24.8367   -4.6886 C   0  0  0  0  0  0  0  0  0  0  0  0
   16.5998  -23.6370   -4.9844 O   0  0  0  0  0  0  0  0  0  0  0  0
   15.2918  -25.1154   -3.8389 N   0  0  0  0  0  0  0  0  0  0  0  0
   14.5031  -24.0714   -3.2026 C   0  0  1  0  0  0  0  0  0  0  0  0
   13.0338  -24.3926   -3.2731 C   0  0  0  0  0  0  0  0  0  0  0  0
   12.5071  -24.1956   -4.6524 C   0  0  0  0  0  0  0  0  0  0  0  0
   13.2108  -23.7426   -5.7630 C   0  0  0  0  0  0  0  0  0  0  0  0
   12.3843  -23.7037   -6.8124 N   0  0  0  0  0  0  0  0  0  0  0  0
   11.1762  -24.1173   -6.4072 C   0  0  0  0  0  0  0  0  0  0  0  0
   11.2650  -24.4097   -5.1060 N   0  0  0  0  0  0  0  0  0  0  0  0
   14.8866  -23.9320   -1.7599 C   0  0  0  0  0  0  0  0  0  0  0  0
   15.8301  -24.7344   -1.1602 O   0  0  0  0  0  0  0  0  0  0  0  0
   14.3237  -23.0468   -1.0706 O   0  0  0  0  0  0  0  0  0  0  0  0
  2  3  1  0
  2  1  1  0
  3  5  1  0
  3  4  1  1
  5  7  1  0
  5  6  1  6
  7  8  2  0
 10  9  1  6
 10 12  1  0
 11 10  1  0
 12 13  1  6
 13  7  1  0
 14 15  2  0
 14 12  1  0
 16 14  1  0
 17 24  1  0
 17 16  1  0
 17 18  1  1
 19 18  1  0
 20 19  2  0
 21 20  1  0
 22 21  1  0
 22 23  2  0
 23 19  1  0
 24 25  1  0
 26 24  2  0
M  END
$$$$
