ITH.pdb
     RDKit          3D

 26 26  0  0  1  0  0  0  0  0999 V2000
   19.4591  -16.3579  -20.1311 C   0  0  0  0  0  0  0  0  0  0  0  0
   20.8708  -16.2498  -19.5394 C   0  0  0  0  0  0  0  0  0  0  0  0
   20.8811  -15.2166  -18.4717 C   0  0  2  0  0  0  0  0  0  0  0  0
   20.2566  -13.9595  -19.0422 C   0  0  0  0  0  0  0  0  0  0  0  0
   22.1971  -14.9519  -17.8156 C   0  0  2  0  0  0  0  0  0  0  0  0
   22.6850  -16.2574  -17.3262 N   0  0  0  0  0  0  0  0  0  0  0  0
   22.1681  -14.0046  -16.6871 C   0  0  0  0  0  0  0  0  0  0  0  0
   21.5408  -14.3204  -15.6317 O   0  0  0  0  0  0  0  0  0  0  0  0
   24.9464  -12.5026  -14.8043 C   0  0  0  0  0  0  0  0  0  0  0  0
   24.1813  -11.3368  -15.4531 C   0  0  1  0  0  0  0  0  0  0  0  0
   24.9626  -10.7329  -16.4249 O   0  0  0  0  0  0  0  0  0  0  0  0
   22.8058  -11.6905  -15.8273 C   0  0  2  0  0  0  0  0  0  0  0  0
   22.8227  -12.7780  -16.7710 N   0  0  0  0  0  0  0  0  0  0  0  0
   21.8847  -10.5906  -16.1789 C   0  0  0  0  0  0  0  0  0  0  0  0
   21.6653  -10.3734  -17.3947 O   0  0  0  0  0  0  0  0  0  0  0  0
   21.2314   -9.7651  -15.2382 N   0  0  0  0  0  0  0  0  0  0  0  0
   20.4287   -8.6146  -15.6239 C   0  0  1  0  0  0  0  0  0  0  0  0
   19.0805   -8.6541  -14.9545 C   0  0  0  0  0  0  0  0  0  0  0  0
   18.2307   -7.5116  -15.3916 C   0  0  0  0  0  0  0  0  0  0  0  0
   17.9201   -6.3691  -14.6621 C   0  0  0  0  0  0  0  0  0  0  0  0
   17.1324   -5.5838  -15.4029 N   0  0  0  0  0  0  0  0  0  0  0  0
   16.9305   -6.1883  -16.5813 C   0  0  0  0  0  0  0  0  0  0  0  0
   17.5970   -7.3467  -16.5602 N   0  0  0  0  0  0  0  0  0  0  0  0
   21.1147   -7.3417  -15.2276 C   0  0  0  0  0  0  0  0  0  0  0  0
   20.9225   -6.1540  -15.8957 O   0  0  0  0  0  0  0  0  0  0  0  0
   21.8966   -7.3601  -14.2458 O   0  0  0  0  0  0  0  0  0  0  0  0
  2  3  1  0
  2  1  1  0
  3  5  1  0
  3  4  1  6
  5  7  1  0
  5  6  1  1
  7  8  2  0
 10  9  1  6
 10 12  1  0
 11 10  1  0
 12 13  1  6
 13  7  1  0
 14 15  2  0
 14 12  1  0
 16 14  1  0
 17 24  1  0
 17 16  1  0
 17 18  1  1
 19 18  1  0
 20 19  2  0
 21 20  1  0
 22 21  1  0
 22 23  2  0
 23 19  1  0
 24 25  1  0
 26 24  2  0
M  END
$$$$
