VIK.pdb
     RDKit          3D

 25 24  0  0  1  0  0  0  0  0999 V2000
    4.8039  -20.5268   24.1523 C   0  0  0  0  0  0  0  0  0  0  0  0
    5.8778  -19.4549   24.1076 C   0  0  2  0  0  0  0  0  0  0  0  0
    6.5278  -19.4787   25.4739 C   0  0  0  0  0  0  0  0  0  0  0  0
    5.2797  -18.0871   23.8887 C   0  0  2  0  0  0  0  0  0  0  0  0
    4.6076  -18.0148   22.6009 N   0  0  0  0  0  0  0  0  0  0  0  0
    6.2717  -17.0206   23.9627 C   0  0  0  0  0  0  0  0  0  0  0  0
    7.0634  -16.8943   22.9534 O   0  0  0  0  0  0  0  0  0  0  0  0
    5.7410  -12.2195   26.7019 C   0  0  0  0  0  0  0  0  0  0  0  0
    6.1014  -13.1479   25.5347 C   0  0  0  0  0  0  0  0  0  0  0  0
    7.2570  -14.0109   25.9354 C   0  0  2  0  0  0  0  0  0  0  0  0
    8.4328  -13.0579   26.1849 C   0  0  0  0  0  0  0  0  0  0  0  0
    7.5907  -15.1245   25.0078 C   0  0  2  0  0  0  0  0  0  0  0  0
    6.4828  -16.1004   24.9953 N   0  0  0  0  0  0  0  0  0  0  0  0
    8.8434  -15.7897   25.3824 C   0  0  0  0  0  0  0  0  0  0  0  0
    8.9402  -16.4960   26.4408 O   0  0  0  0  0  0  0  0  0  0  0  0
   10.0003  -15.6792   24.5705 N   0  0  0  0  0  0  0  0  0  0  0  0
   11.0284  -16.7275   24.6434 C   0  0  1  0  0  0  0  0  0  0  0  0
   11.7355  -16.7068   23.2992 C   0  0  0  0  0  0  0  0  0  0  0  0
   12.7954  -17.7453   23.1509 C   0  0  0  0  0  0  0  0  0  0  0  0
   13.3454  -17.6130   21.7279 C   0  0  0  0  0  0  0  0  0  0  0  0
   14.3788  -18.7050   21.4684 C   0  0  0  0  0  0  0  0  0  0  0  0
   14.8658  -18.5457   20.1194 N   0  0  0  0  0  0  0  0  0  0  0  0
   11.9251  -16.4366   25.7550 C   0  0  0  0  0  0  0  0  0  0  0  0
   11.9548  -15.3058   26.2814 O   0  0  0  0  0  0  0  0  0  0  0  0
   12.8031  -17.3816   26.3073 O   0  0  0  0  0  0  0  0  0  0  0  0
  2  1  1  1
  2  4  1  0
  2  3  1  0
  4  6  1  0
  4  5  1  6
  6  7  2  0
  6 13  1  0
  9  8  1  0
 10  9  1  0
 10 11  1  6
 12 14  1  0
 12 10  1  0
 12 13  1  1
 14 15  2  0
 16 17  1  0
 16 14  1  0
 17 18  1  6
 19 18  1  0
 20 21  1  0
 20 19  1  0
 22 21  1  0
 23 25  1  0
 23 17  1  0
 24 23  2  0
M  END
$$$$
