VIK.pdb
     RDKit          3D

 25 24  0  0  1  0  0  0  0  0999 V2000
    6.2612  -20.2431   22.9602 C   0  0  0  0  0  0  0  0  0  0  0  0
    7.1133  -19.0801   23.4348 C   0  0  2  0  0  0  0  0  0  0  0  0
    6.9678  -19.0622   24.9409 C   0  0  0  0  0  0  0  0  0  0  0  0
    6.6033  -17.7680   22.8916 C   0  0  2  0  0  0  0  0  0  0  0  0
    6.7164  -17.7274   21.4422 N   0  0  0  0  0  0  0  0  0  0  0  0
    7.3032  -16.6172   23.4510 C   0  0  0  0  0  0  0  0  0  0  0  0
    8.5049  -16.4104   23.0334 O   0  0  0  0  0  0  0  0  0  0  0  0
    6.5125  -11.3038   26.4969 C   0  0  0  0  0  0  0  0  0  0  0  0
    7.5415  -12.3664   26.0895 C   0  0  0  0  0  0  0  0  0  0  0  0
    6.8314  -13.5058   25.4273 C   0  0  2  0  0  0  0  0  0  0  0  0
    5.7093  -13.9225   26.3866 C   0  0  0  0  0  0  0  0  0  0  0  0
    7.6866  -14.6432   24.9949 C   0  0  2  0  0  0  0  0  0  0  0  0
    6.8395  -15.6916   24.3923 N   0  0  0  0  0  0  0  0  0  0  0  0
    8.4594  -15.1997   26.1107 C   0  0  0  0  0  0  0  0  0  0  0  0
    7.9324  -15.9813   26.9708 O   0  0  0  0  0  0  0  0  0  0  0  0
    9.8345  -14.8946   26.2708 N   0  0  0  0  0  0  0  0  0  0  0  0
   10.6458  -15.7080   27.1882 C   0  0  1  0  0  0  0  0  0  0  0  0
   12.0295  -15.7768   26.5654 C   0  0  0  0  0  0  0  0  0  0  0  0
   12.0739  -16.4845   25.2535 C   0  0  0  0  0  0  0  0  0  0  0  0
   13.5330  -16.4605   24.7895 C   0  0  0  0  0  0  0  0  0  0  0  0
   13.6643  -17.1886   23.4551 C   0  0  0  0  0  0  0  0  0  0  0  0
   15.0459  -17.1199   23.0444 N   0  0  0  0  0  0  0  0  0  0  0  0
   10.6514  -15.0780   28.5026 C   0  0  0  0  0  0  0  0  0  0  0  0
   11.1365  -15.6588   29.4946 O   0  0  0  0  0  0  0  0  0  0  0  0
   10.1254  -13.8009   28.7497 O   0  0  0  0  0  0  0  0  0  0  0  0
  2  1  1  6
  2  4  1  0
  2  3  1  0
  4  6  1  0
  4  5  1  6
  6  7  2  0
  6 13  1  0
  9  8  1  0
 10  9  1  0
 10 11  1  1
 12 14  1  0
 12 10  1  0
 12 13  1  1
 14 15  2  0
 16 17  1  0
 16 14  1  0
 17 18  1  6
 19 18  1  0
 20 21  1  0
 20 19  1  0
 22 21  1  0
 23 25  1  0
 23 17  1  0
 24 23  2  0
M  END
$$$$
