VIK.pdb
     RDKit          3D

 25 24  0  0  1  0  0  0  0  0999 V2000
   11.8831  -15.6309   27.6022 C   0  0  0  0  0  0  0  0  0  0  0  0
   10.8199  -14.9759   28.4651 C   0  0  2  0  0  0  0  0  0  0  0  0
   11.4441  -14.8357   29.8365 C   0  0  0  0  0  0  0  0  0  0  0  0
    9.5958  -15.8497   28.5862 C   0  0  2  0  0  0  0  0  0  0  0  0
    9.9653  -17.2180   28.9127 N   0  0  0  0  0  0  0  0  0  0  0  0
    8.7874  -15.8571   27.3724 C   0  0  0  0  0  0  0  0  0  0  0  0
    8.3510  -17.0024   26.9734 O   0  0  0  0  0  0  0  0  0  0  0  0
    6.4366  -11.3534   25.9729 C   0  0  0  0  0  0  0  0  0  0  0  0
    6.1522  -12.8609   25.9997 C   0  0  0  0  0  0  0  0  0  0  0  0
    7.0394  -13.5434   25.0058 C   0  0  2  0  0  0  0  0  0  0  0  0
    6.2732  -13.5365   23.6769 C   0  0  0  0  0  0  0  0  0  0  0  0
    7.5330  -14.8922   25.3917 C   0  0  2  0  0  0  0  0  0  0  0  0
    8.4135  -14.7729   26.5708 N   0  0  0  0  0  0  0  0  0  0  0  0
    8.2504  -15.5460   24.2917 C   0  0  0  0  0  0  0  0  0  0  0  0
    7.6346  -16.0816   23.3107 O   0  0  0  0  0  0  0  0  0  0  0  0
    9.6669  -15.5995   24.2731 N   0  0  0  0  0  0  0  0  0  0  0  0
   10.3417  -16.3118   23.1783 C   0  0  1  0  0  0  0  0  0  0  0  0
   10.9258  -15.2335   22.2820 C   0  0  0  0  0  0  0  0  0  0  0  0
   11.7911  -15.7544   21.1848 C   0  0  0  0  0  0  0  0  0  0  0  0
   12.3414  -14.5341   20.4412 C   0  0  0  0  0  0  0  0  0  0  0  0
   13.2302  -14.9881   19.2872 C   0  0  0  0  0  0  0  0  0  0  0  0
   13.6911  -13.8115   18.5904 N   0  0  0  0  0  0  0  0  0  0  0  0
   11.3610  -17.1893   23.7400 C   0  0  0  0  0  0  0  0  0  0  0  0
   11.6786  -17.1213   24.9445 O   0  0  0  0  0  0  0  0  0  0  0  0
   12.0478  -18.1556   22.9893 O   0  0  0  0  0  0  0  0  0  0  0  0
  2  1  1  6
  2  4  1  0
  2  3  1  0
  4  6  1  0
  4  5  1  6
  6  7  2  0
  6 13  1  0
  9  8  1  0
 10  9  1  0
 10 11  1  6
 12 14  1  0
 12 10  1  0
 12 13  1  1
 14 15  2  0
 16 17  1  0
 16 14  1  0
 17 18  1  6
 19 18  1  0
 20 21  1  0
 20 19  1  0
 22 21  1  0
 23 25  1  0
 23 17  1  0
 24 23  2  0
M  END
$$$$
