VIK.pdb
     RDKit          3D

 25 24  0  0  1  0  0  0  0  0999 V2000
    6.0605  -17.0245   19.8317 C   0  0  0  0  0  0  0  0  0  0  0  0
    6.9239  -16.6881   21.0340 C   0  0  2  0  0  0  0  0  0  0  0  0
    6.2003  -17.2747   22.2264 C   0  0  0  0  0  0  0  0  0  0  0  0
    7.0342  -15.1962   21.2306 C   0  0  2  0  0  0  0  0  0  0  0  0
    7.6192  -14.5604   20.0606 N   0  0  0  0  0  0  0  0  0  0  0  0
    7.8235  -14.8401   22.4042 C   0  0  0  0  0  0  0  0  0  0  0  0
    9.1034  -14.9468   22.2961 O   0  0  0  0  0  0  0  0  0  0  0  0
    6.0153  -12.2039   27.2243 C   0  0  0  0  0  0  0  0  0  0  0  0
    6.3068  -13.2326   26.1239 C   0  0  0  0  0  0  0  0  0  0  0  0
    7.7029  -13.0304   25.6232 C   0  0  2  0  0  0  0  0  0  0  0  0
    7.7046  -11.6751   24.9045 C   0  0  0  0  0  0  0  0  0  0  0  0
    8.2652  -14.1328   24.7983 C   0  0  2  0  0  0  0  0  0  0  0  0
    7.3734  -14.3894   23.6500 N   0  0  0  0  0  0  0  0  0  0  0  0
    8.4461  -15.3612   25.5796 C   0  0  0  0  0  0  0  0  0  0  0  0
    7.4736  -16.1482   25.8314 O   0  0  0  0  0  0  0  0  0  0  0  0
    9.7207  -15.7273   26.0805 N   0  0  0  0  0  0  0  0  0  0  0  0
    9.8933  -17.0495   26.6998 C   0  0  1  0  0  0  0  0  0  0  0  0
   10.8990  -17.7846   25.8307 C   0  0  0  0  0  0  0  0  0  0  0  0
   11.2273  -19.1593   26.3064 C   0  0  0  0  0  0  0  0  0  0  0  0
   12.3470  -19.6824   25.4023 C   0  0  0  0  0  0  0  0  0  0  0  0
   12.7616  -21.0815   25.8479 C   0  0  0  0  0  0  0  0  0  0  0  0
   13.9265  -21.4643   25.0870 N   0  0  0  0  0  0  0  0  0  0  0  0
   10.3565  -16.8747   28.0707 C   0  0  0  0  0  0  0  0  0  0  0  0
   10.7422  -15.7628   28.4849 O   0  0  0  0  0  0  0  0  0  0  0  0
   10.4035  -17.9168   29.0093 O   0  0  0  0  0  0  0  0  0  0  0  0
  2  1  1  6
  2  4  1  0
  2  3  1  0
  4  6  1  0
  4  5  1  6
  6  7  2  0
  6 13  1  0
  9  8  1  0
 10  9  1  0
 10 11  1  6
 12 14  1  0
 12 10  1  0
 12 13  1  6
 14 15  2  0
 16 17  1  0
 16 14  1  0
 17 18  1  6
 19 18  1  0
 20 21  1  0
 20 19  1  0
 22 21  1  0
 23 25  1  0
 23 17  1  0
 24 23  2  0
M  END
$$$$
