VIK.pdb
     RDKit          3D

 25 24  0  0  1  0  0  0  0  0999 V2000
    6.4721  -16.6858   19.4014 C   0  0  0  0  0  0  0  0  0  0  0  0
    7.1635  -16.4400   20.7301 C   0  0  2  0  0  0  0  0  0  0  0  0
    6.3642  -17.2206   21.7507 C   0  0  0  0  0  0  0  0  0  0  0  0
    7.1224  -14.9799   21.1087 C   0  0  2  0  0  0  0  0  0  0  0  0
    7.6942  -14.1547   20.0564 N   0  0  0  0  0  0  0  0  0  0  0  0
    7.8224  -14.7025   22.3577 C   0  0  0  0  0  0  0  0  0  0  0  0
    9.1092  -14.7696   22.3281 O   0  0  0  0  0  0  0  0  0  0  0  0
    6.0311  -11.2605   26.2415 C   0  0  0  0  0  0  0  0  0  0  0  0
    6.9629  -11.9468   25.2342 C   0  0  0  0  0  0  0  0  0  0  0  0
    7.3542  -13.2900   25.7668 C   0  0  2  0  0  0  0  0  0  0  0  0
    8.1223  -13.0240   27.0677 C   0  0  0  0  0  0  0  0  0  0  0  0
    8.0864  -14.1766   24.8237 C   0  0  2  0  0  0  0  0  0  0  0  0
    7.2789  -14.3661   23.6023 N   0  0  0  0  0  0  0  0  0  0  0  0
    8.3985  -15.4766   25.4277 C   0  0  0  0  0  0  0  0  0  0  0  0
    7.4825  -16.2786   25.8098 O   0  0  0  0  0  0  0  0  0  0  0  0
    9.7409  -15.8975   25.6023 N   0  0  0  0  0  0  0  0  0  0  0  0
   10.0069  -17.2692   26.0597 C   0  0  1  0  0  0  0  0  0  0  0  0
   11.1470  -17.7790   25.1951 C   0  0  0  0  0  0  0  0  0  0  0  0
   11.6495  -19.1289   25.5813 C   0  0  0  0  0  0  0  0  0  0  0  0
   12.8057  -19.4565   24.6321 C   0  0  0  0  0  0  0  0  0  0  0  0
   13.2658  -20.8943   24.8531 C   0  0  0  0  0  0  0  0  0  0  0  0
   14.3504  -21.1602   23.9393 N   0  0  0  0  0  0  0  0  0  0  0  0
   10.3456  -17.2398   27.4770 C   0  0  0  0  0  0  0  0  0  0  0  0
   10.4249  -18.2914   28.1436 O   0  0  0  0  0  0  0  0  0  0  0  0
   10.6032  -16.0563   28.1856 O   0  0  0  0  0  0  0  0  0  0  0  0
  2  1  1  6
  2  4  1  0
  2  3  1  0
  4  6  1  0
  4  5  1  6
  6  7  2  0
  6 13  1  0
  9  8  1  0
 10  9  1  0
 10 11  1  1
 12 14  1  0
 12 10  1  0
 12 13  1  6
 14 15  2  0
 16 17  1  0
 16 14  1  0
 17 18  1  6
 19 18  1  0
 20 21  1  0
 20 19  1  0
 22 21  1  0
 23 25  1  0
 23 17  1  0
 24 23  2  0
M  END
$$$$
