VIK.pdb
     RDKit          3D

 25 24  0  0  1  0  0  0  0  0999 V2000
    6.1906  -19.3038   21.5233 C   0  0  0  0  0  0  0  0  0  0  0  0
    7.0023  -18.4714   22.4992 C   0  0  2  0  0  0  0  0  0  0  0  0
    6.3912  -18.7343   23.8584 C   0  0  0  0  0  0  0  0  0  0  0  0
    6.8793  -16.9979   22.1988 C   0  0  2  0  0  0  0  0  0  0  0  0
    7.3249  -16.7052   20.8456 N   0  0  0  0  0  0  0  0  0  0  0  0
    7.6324  -16.1684   23.1325 C   0  0  0  0  0  0  0  0  0  0  0  0
    8.9143  -16.1620   22.9982 O   0  0  0  0  0  0  0  0  0  0  0  0
    7.0246  -11.4232   27.0394 C   0  0  0  0  0  0  0  0  0  0  0  0
    7.9748  -12.5245   26.5512 C   0  0  0  0  0  0  0  0  0  0  0  0
    7.2393  -13.4200   25.6036 C   0  0  2  0  0  0  0  0  0  0  0  0
    5.9512  -13.8361   26.3252 C   0  0  0  0  0  0  0  0  0  0  0  0
    8.0098  -14.5730   25.0663 C   0  0  2  0  0  0  0  0  0  0  0  0
    7.1450  -15.3645   24.1688 N   0  0  0  0  0  0  0  0  0  0  0  0
    8.5362  -15.4247   26.1385 C   0  0  0  0  0  0  0  0  0  0  0  0
    7.7760  -16.1752   26.8365 O   0  0  0  0  0  0  0  0  0  0  0  0
    9.9221  -15.4526   26.4353 N   0  0  0  0  0  0  0  0  0  0  0  0
   10.4353  -16.4736   27.3603 C   0  0  1  0  0  0  0  0  0  0  0  0
   11.6510  -17.0760   26.6773 C   0  0  0  0  0  0  0  0  0  0  0  0
   11.4608  -18.4834   26.2225 C   0  0  0  0  0  0  0  0  0  0  0  0
   12.7310  -18.8762   25.4628 C   0  0  0  0  0  0  0  0  0  0  0  0
   12.6158  -20.3156   24.9702 C   0  0  0  0  0  0  0  0  0  0  0  0
   11.8025  -20.3145   23.7782 N   0  0  0  0  0  0  0  0  0  0  0  0
   10.7608  -15.8410   28.6324 C   0  0  0  0  0  0  0  0  0  0  0  0
   10.7364  -14.6004   28.7612 O   0  0  0  0  0  0  0  0  0  0  0  0
   11.1177  -16.5595   29.7837 O   0  0  0  0  0  0  0  0  0  0  0  0
  2  1  1  6
  2  4  1  0
  2  3  1  0
  4  6  1  0
  4  5  1  6
  6  7  2  0
  6 13  1  0
  9  8  1  0
 10  9  1  0
 10 11  1  1
 12 14  1  0
 12 10  1  0
 12 13  1  6
 14 15  2  0
 16 17  1  0
 16 14  1  0
 17 18  1  6
 19 18  1  0
 20 21  1  0
 20 19  1  0
 22 21  1  0
 23 25  1  0
 23 17  1  0
 24 23  2  0
M  END
$$$$
