VIK.pdb
     RDKit          3D

 25 24  0  0  1  0  0  0  0  0999 V2000
    7.2000  -17.1032   19.5087 C   0  0  0  0  0  0  0  0  0  0  0  0
    7.8632  -16.7312   20.8224 C   0  0  2  0  0  0  0  0  0  0  0  0
    7.3007  -17.6947   21.8447 C   0  0  0  0  0  0  0  0  0  0  0  0
    7.5021  -15.3275   21.2418 C   0  0  2  0  0  0  0  0  0  0  0  0
    7.8924  -14.3651   20.2235 N   0  0  0  0  0  0  0  0  0  0  0  0
    8.1120  -14.9446   22.5101 C   0  0  0  0  0  0  0  0  0  0  0  0
    9.3697  -14.6639   22.4871 O   0  0  0  0  0  0  0  0  0  0  0  0
    5.8199  -11.9496   26.4708 C   0  0  0  0  0  0  0  0  0  0  0  0
    6.8570  -12.4795   25.4719 C   0  0  0  0  0  0  0  0  0  0  0  0
    7.3633  -13.8046   25.9497 C   0  0  2  0  0  0  0  0  0  0  0  0
    8.0126  -13.5445   27.3149 C   0  0  0  0  0  0  0  0  0  0  0  0
    8.2493  -14.5410   25.0092 C   0  0  2  0  0  0  0  0  0  0  0  0
    7.5075  -14.8368   23.7674 N   0  0  0  0  0  0  0  0  0  0  0  0
    8.7590  -15.7836   25.5993 C   0  0  0  0  0  0  0  0  0  0  0  0
    7.9786  -16.7248   25.9649 O   0  0  0  0  0  0  0  0  0  0  0  0
   10.1500  -15.9903   25.7786 N   0  0  0  0  0  0  0  0  0  0  0  0
   10.6170  -17.2652   26.3423 C   0  0  1  0  0  0  0  0  0  0  0  0
   11.9008  -17.5986   25.6019 C   0  0  0  0  0  0  0  0  0  0  0  0
   11.7208  -17.8230   24.1386 C   0  0  0  0  0  0  0  0  0  0  0  0
   13.0783  -18.2742   23.5922 C   0  0  0  0  0  0  0  0  0  0  0  0
   12.9950  -18.4502   22.0789 C   0  0  0  0  0  0  0  0  0  0  0  0
   14.3208  -18.7447   21.5913 N   0  0  0  0  0  0  0  0  0  0  0  0
   10.8207  -17.1039   27.7765 C   0  0  0  0  0  0  0  0  0  0  0  0
   10.8311  -15.9732   28.3037 O   0  0  0  0  0  0  0  0  0  0  0  0
   11.0157  -18.1804   28.6552 O   0  0  0  0  0  0  0  0  0  0  0  0
  2  1  1  6
  2  4  1  0
  2  3  1  0
  4  6  1  0
  4  5  1  6
  6  7  2  0
  6 13  1  0
  9  8  1  0
 10  9  1  0
 10 11  1  1
 12 14  1  0
 12 10  1  0
 12 13  1  6
 14 15  2  0
 16 17  1  0
 16 14  1  0
 17 18  1  6
 19 18  1  0
 20 21  1  0
 20 19  1  0
 22 21  1  0
 23 25  1  0
 23 17  1  0
 24 23  2  0
M  END
$$$$
