VIK.pdb
     RDKit          3D

 25 24  0  0  1  0  0  0  0  0999 V2000
    8.0410  -18.6174   22.5322 C   0  0  0  0  0  0  0  0  0  0  0  0
    6.7253  -17.8951   22.3057 C   0  0  2  0  0  0  0  0  0  0  0  0
    6.0417  -18.6453   21.1835 C   0  0  0  0  0  0  0  0  0  0  0  0
    6.9503  -16.4715   21.8590 C   0  0  2  0  0  0  0  0  0  0  0  0
    7.7226  -16.4301   20.6272 N   0  0  0  0  0  0  0  0  0  0  0  0
    7.6289  -15.6657   22.8675 C   0  0  0  0  0  0  0  0  0  0  0  0
    8.9160  -15.6278   22.8095 O   0  0  0  0  0  0  0  0  0  0  0  0
    6.6593  -11.1829   27.0188 C   0  0  0  0  0  0  0  0  0  0  0  0
    7.6796  -12.1977   26.4866 C   0  0  0  0  0  0  0  0  0  0  0  0
    7.0135  -13.0748   25.4728 C   0  0  2  0  0  0  0  0  0  0  0  0
    5.7371  -13.6024   26.1403 C   0  0  0  0  0  0  0  0  0  0  0  0
    7.8573  -14.1504   24.8872 C   0  0  2  0  0  0  0  0  0  0  0  0
    7.0640  -14.9150   23.9044 N   0  0  0  0  0  0  0  0  0  0  0  0
    8.3860  -15.0510   25.9174 C   0  0  0  0  0  0  0  0  0  0  0  0
    7.6490  -15.9160   26.4980 O   0  0  0  0  0  0  0  0  0  0  0  0
    9.7492  -14.9994   26.3031 N   0  0  0  0  0  0  0  0  0  0  0  0
   10.2727  -16.0228   27.2195 C   0  0  1  0  0  0  0  0  0  0  0  0
   11.6276  -16.4228   26.6614 C   0  0  0  0  0  0  0  0  0  0  0  0
   11.5631  -17.1284   25.3492 C   0  0  0  0  0  0  0  0  0  0  0  0
   13.0084  -17.4148   24.9318 C   0  0  0  0  0  0  0  0  0  0  0  0
   13.0341  -18.0037   23.5246 C   0  0  0  0  0  0  0  0  0  0  0  0
   14.4133  -18.2059   23.1516 N   0  0  0  0  0  0  0  0  0  0  0  0
   10.3612  -15.4587   28.5606 C   0  0  0  0  0  0  0  0  0  0  0  0
   10.2986  -14.2269   28.7480 O   0  0  0  0  0  0  0  0  0  0  0  0
   10.5192  -16.2370   29.7174 O   0  0  0  0  0  0  0  0  0  0  0  0
  2  1  1  6
  2  4  1  0
  2  3  1  0
  4  6  1  0
  4  5  1  6
  6  7  2  0
  6 13  1  0
  9  8  1  0
 10  9  1  0
 10 11  1  1
 12 14  1  0
 12 10  1  0
 12 13  1  6
 14 15  2  0
 16 17  1  0
 16 14  1  0
 17 18  1  6
 19 18  1  0
 20 21  1  0
 20 19  1  0
 22 21  1  0
 23 25  1  0
 23 17  1  0
 24 23  2  0
M  END
$$$$
