VIK.pdb
     RDKit          3D

 25 24  0  0  1  0  0  0  0  0999 V2000
    6.5110  -20.2355   22.5267 C   0  0  0  0  0  0  0  0  0  0  0  0
    5.3212  -19.3005   22.4071 C   0  0  2  0  0  0  0  0  0  0  0  0
    4.1036  -20.1987   22.3834 C   0  0  0  0  0  0  0  0  0  0  0  0
    5.3630  -18.5210   21.1158 C   0  0  2  0  0  0  0  0  0  0  0  0
    5.2698  -19.4109   19.9692 N   0  0  0  0  0  0  0  0  0  0  0  0
    6.5688  -17.7108   20.9864 C   0  0  0  0  0  0  0  0  0  0  0  0
    7.6035  -18.2884   20.4793 O   0  0  0  0  0  0  0  0  0  0  0  0
    6.6137  -12.2342   20.3799 C   0  0  0  0  0  0  0  0  0  0  0  0
    7.0117  -13.6873   20.0900 C   0  0  0  0  0  0  0  0  0  0  0  0
    7.8311  -14.2063   21.2302 C   0  0  2  0  0  0  0  0  0  0  0  0
    9.1320  -13.3936   21.2234 C   0  0  0  0  0  0  0  0  0  0  0  0
    8.0574  -15.6761   21.2537 C   0  0  2  0  0  0  0  0  0  0  0  0
    6.7574  -16.3706   21.3413 N   0  0  0  0  0  0  0  0  0  0  0  0
    8.9191  -16.0777   22.3708 C   0  0  0  0  0  0  0  0  0  0  0  0
    8.5239  -16.0139   23.5825 O   0  0  0  0  0  0  0  0  0  0  0  0
   10.2310  -16.5645   22.1432 N   0  0  0  0  0  0  0  0  0  0  0  0
   11.0585  -16.9561   23.2935 C   0  0  1  0  0  0  0  0  0  0  0  0
   11.1814  -18.4682   23.2182 C   0  0  0  0  0  0  0  0  0  0  0  0
   12.0283  -19.0659   24.2902 C   0  0  0  0  0  0  0  0  0  0  0  0
   11.9984  -20.5826   24.0807 C   0  0  0  0  0  0  0  0  0  0  0  0
   12.7593  -21.2762   25.2067 C   0  0  0  0  0  0  0  0  0  0  0  0
   12.8154  -22.6859   24.9037 N   0  0  0  0  0  0  0  0  0  0  0  0
   12.3475  -16.2818   23.2025 C   0  0  0  0  0  0  0  0  0  0  0  0
   13.1472  -16.2863   24.1601 O   0  0  0  0  0  0  0  0  0  0  0  0
   12.7800  -15.5924   22.0594 O   0  0  0  0  0  0  0  0  0  0  0  0
  2  1  1  6
  2  4  1  0
  2  3  1  0
  4  6  1  0
  4  5  1  6
  6  7  2  0
  6 13  1  0
  9  8  1  0
 10  9  1  0
 10 11  1  6
 12 14  1  0
 12 10  1  0
 12 13  1  1
 14 15  2  0
 16 17  1  0
 16 14  1  0
 17 18  1  6
 19 18  1  0
 20 21  1  0
 20 19  1  0
 22 21  1  0
 23 25  1  0
 23 17  1  0
 24 23  2  0
M  END
$$$$
