VIK.pdb
     RDKit          3D

 25 24  0  0  1  0  0  0  0  0999 V2000
   11.7133  -15.4370   28.4897 C   0  0  0  0  0  0  0  0  0  0  0  0
   10.4365  -14.8812   29.0937 C   0  0  2  0  0  0  0  0  0  0  0  0
   10.6961  -14.8020   30.5823 C   0  0  0  0  0  0  0  0  0  0  0  0
    9.2700  -15.8101   28.8626 C   0  0  2  0  0  0  0  0  0  0  0  0
    9.6132  -17.1751   29.2290 N   0  0  0  0  0  0  0  0  0  0  0  0
    8.8050  -15.7963   27.4803 C   0  0  0  0  0  0  0  0  0  0  0  0
    8.9187  -16.8970   26.8195 O   0  0  0  0  0  0  0  0  0  0  0  0
    5.9227  -11.6854   25.8932 C   0  0  0  0  0  0  0  0  0  0  0  0
    5.9689  -13.2024   25.6681 C   0  0  0  0  0  0  0  0  0  0  0  0
    7.2193  -13.5478   24.9211 C   0  0  2  0  0  0  0  0  0  0  0  0
    6.8482  -13.5156   23.4331 C   0  0  0  0  0  0  0  0  0  0  0  0
    7.8954  -14.8077   25.3303 C   0  0  2  0  0  0  0  0  0  0  0  0
    8.2415  -14.7348   26.7637 N   0  0  0  0  0  0  0  0  0  0  0  0
    9.1004  -15.0639   24.5338 C   0  0  0  0  0  0  0  0  0  0  0  0
   10.1053  -14.2778   24.5614 O   0  0  0  0  0  0  0  0  0  0  0  0
    9.1976  -16.2089   23.7036 N   0  0  0  0  0  0  0  0  0  0  0  0
   10.4427  -16.4498   22.9598 C   0  0  1  0  0  0  0  0  0  0  0  0
   10.5930  -17.9594   22.8839 C   0  0  0  0  0  0  0  0  0  0  0  0
   11.3393  -18.5569   24.0284 C   0  0  0  0  0  0  0  0  0  0  0  0
   11.3457  -20.0721   23.8069 C   0  0  0  0  0  0  0  0  0  0  0  0
   12.0496  -20.7628   24.9710 C   0  0  0  0  0  0  0  0  0  0  0  0
   12.0084  -22.1859   24.7352 N   0  0  0  0  0  0  0  0  0  0  0  0
   10.3384  -15.8282   21.6456 C   0  0  0  0  0  0  0  0  0  0  0  0
    9.2325  -15.6806   21.0874 O   0  0  0  0  0  0  0  0  0  0  0  0
   11.4457  -15.3581   20.9231 O   0  0  0  0  0  0  0  0  0  0  0  0
  2  1  1  6
  2  4  1  0
  2  3  1  0
  4  6  1  0
  4  5  1  6
  6  7  2  0
  6 13  1  0
  9  8  1  0
 10  9  1  0
 10 11  1  6
 12 14  1  0
 12 10  1  0
 12 13  1  1
 14 15  2  0
 16 17  1  0
 16 14  1  0
 17 18  1  6
 19 18  1  0
 20 21  1  0
 20 19  1  0
 22 21  1  0
 23 25  1  0
 23 17  1  0
 24 23  2  0
M  END
$$$$
