VIK.pdb
     RDKit          3D

 25 24  0  0  1  0  0  0  0  0999 V2000
    6.7925  -18.5504   22.1837 C   0  0  0  0  0  0  0  0  0  0  0  0
    5.5275  -17.7386   22.3958 C   0  0  2  0  0  0  0  0  0  0  0  0
    4.5184  -18.3025   21.4194 C   0  0  0  0  0  0  0  0  0  0  0  0
    5.7475  -16.2828   22.0657 C   0  0  2  0  0  0  0  0  0  0  0  0
    6.1545  -16.1210   20.6788 N   0  0  0  0  0  0  0  0  0  0  0  0
    6.7446  -15.6552   22.9254 C   0  0  0  0  0  0  0  0  0  0  0  0
    7.9482  -15.5943   22.4683 O   0  0  0  0  0  0  0  0  0  0  0  0
    5.5866  -11.9054   26.8506 C   0  0  0  0  0  0  0  0  0  0  0  0
    6.2492  -12.5532   25.6277 C   0  0  0  0  0  0  0  0  0  0  0  0
    7.1137  -13.6871   26.0835 C   0  0  2  0  0  0  0  0  0  0  0  0
    8.1898  -13.0662   26.9832 C   0  0  0  0  0  0  0  0  0  0  0  0
    7.6730  -14.5519   25.0105 C   0  0  2  0  0  0  0  0  0  0  0  0
    6.5691  -15.0998   24.1975 N   0  0  0  0  0  0  0  0  0  0  0  0
    8.4854  -15.6439   25.5578 C   0  0  0  0  0  0  0  0  0  0  0  0
    8.0023  -16.4993   26.3723 O   0  0  0  0  0  0  0  0  0  0  0  0
    9.8465  -15.7960   25.1919 N   0  0  0  0  0  0  0  0  0  0  0  0
   10.5768  -16.9928   25.6342 C   0  0  1  0  0  0  0  0  0  0  0  0
   11.6966  -17.1892   24.6268 C   0  0  0  0  0  0  0  0  0  0  0  0
   11.2282  -17.3973   23.2264 C   0  0  0  0  0  0  0  0  0  0  0  0
   12.4718  -17.7046   22.3873 C   0  0  0  0  0  0  0  0  0  0  0  0
   12.0619  -18.0330   20.9548 C   0  0  0  0  0  0  0  0  0  0  0  0
   13.2628  -18.2771   20.1929 N   0  0  0  0  0  0  0  0  0  0  0  0
   11.0704  -16.7744   26.9882 C   0  0  0  0  0  0  0  0  0  0  0  0
   11.4453  -17.7279   27.7001 O   0  0  0  0  0  0  0  0  0  0  0  0
   11.1611  -15.5065   27.5825 O   0  0  0  0  0  0  0  0  0  0  0  0
  2  1  1  6
  2  4  1  0
  2  3  1  0
  4  6  1  0
  4  5  1  6
  6  7  2  0
  6 13  1  0
  9  8  1  0
 10  9  1  0
 10 11  1  6
 12 14  1  0
 12 10  1  0
 12 13  1  1
 14 15  2  0
 16 17  1  0
 16 14  1  0
 17 18  1  6
 19 18  1  0
 20 21  1  0
 20 19  1  0
 22 21  1  0
 23 25  1  0
 23 17  1  0
 24 23  2  0
M  END
$$$$
