VIK.pdb
     RDKit          3D

 25 24  0  0  1  0  0  0  0  0999 V2000
    6.9349  -16.9240   19.5538 C   0  0  0  0  0  0  0  0  0  0  0  0
    7.5915  -16.5717   20.8763 C   0  0  2  0  0  0  0  0  0  0  0  0
    6.8913  -17.4230   21.9131 C   0  0  0  0  0  0  0  0  0  0  0  0
    7.3754  -15.1202   21.2272 C   0  0  2  0  0  0  0  0  0  0  0  0
    7.9083  -14.2508   20.1902 N   0  0  0  0  0  0  0  0  0  0  0  0
    7.9778  -14.7543   22.5040 C   0  0  0  0  0  0  0  0  0  0  0  0
    9.2608  -14.6332   22.5261 O   0  0  0  0  0  0  0  0  0  0  0  0
    5.7940  -11.5264   26.4027 C   0  0  0  0  0  0  0  0  0  0  0  0
    6.8095  -12.1314   25.4244 C   0  0  0  0  0  0  0  0  0  0  0  0
    7.2116  -13.4876   25.9140 C   0  0  2  0  0  0  0  0  0  0  0  0
    7.8464  -13.2706   27.2935 C   0  0  0  0  0  0  0  0  0  0  0  0
    8.0653  -14.2855   24.9940 C   0  0  2  0  0  0  0  0  0  0  0  0
    7.3423  -14.5109   23.7266 N   0  0  0  0  0  0  0  0  0  0  0  0
    8.4545  -15.5697   25.5868 C   0  0  0  0  0  0  0  0  0  0  0  0
    7.5882  -16.4310   25.9555 O   0  0  0  0  0  0  0  0  0  0  0  0
    9.8196  -15.9081   25.7652 N   0  0  0  0  0  0  0  0  0  0  0  0
   10.1639  -17.2292   26.3106 C   0  0  1  0  0  0  0  0  0  0  0  0
   11.3673  -17.7038   25.5146 C   0  0  0  0  0  0  0  0  0  0  0  0
   11.9560  -18.9839   26.0031 C   0  0  0  0  0  0  0  0  0  0  0  0
   12.6762  -19.6206   24.8110 C   0  0  0  0  0  0  0  0  0  0  0  0
   13.3146  -20.9396   25.2357 C   0  0  0  0  0  0  0  0  0  0  0  0
   13.8608  -21.5695   24.0579 N   0  0  0  0  0  0  0  0  0  0  0  0
   10.4481  -17.0959   27.7339 C   0  0  0  0  0  0  0  0  0  0  0  0
   10.6563  -18.0981   28.4471 O   0  0  0  0  0  0  0  0  0  0  0  0
   10.5090  -15.8610   28.3974 O   0  0  0  0  0  0  0  0  0  0  0  0
  2  1  1  6
  2  4  1  0
  2  3  1  0
  4  6  1  0
  4  5  1  6
  6  7  2  0
  6 13  1  0
  9  8  1  0
 10  9  1  0
 10 11  1  1
 12 14  1  0
 12 10  1  0
 12 13  1  6
 14 15  2  0
 16 17  1  0
 16 14  1  0
 17 18  1  6
 19 18  1  0
 20 21  1  0
 20 19  1  0
 22 21  1  0
 23 25  1  0
 23 17  1  0
 24 23  2  0
M  END
$$$$
