VIK.pdb
     RDKit          3D

 25 24  0  0  1  0  0  0  0  0999 V2000
    6.8957  -16.8533   19.5315 C   0  0  0  0  0  0  0  0  0  0  0  0
    7.5901  -16.4832   20.8295 C   0  0  2  0  0  0  0  0  0  0  0  0
    6.9430  -17.3441   21.8924 C   0  0  0  0  0  0  0  0  0  0  0  0
    7.3574  -15.0349   21.1831 C   0  0  2  0  0  0  0  0  0  0  0  0
    7.8637  -14.1580   20.1390 N   0  0  0  0  0  0  0  0  0  0  0  0
    7.9712  -14.6597   22.4518 C   0  0  0  0  0  0  0  0  0  0  0  0
    9.2471  -14.4772   22.4469 O   0  0  0  0  0  0  0  0  0  0  0  0
    5.8653  -11.4264   26.3076 C   0  0  0  0  0  0  0  0  0  0  0  0
    6.8540  -12.0709   25.3271 C   0  0  0  0  0  0  0  0  0  0  0  0
    7.2756  -13.4034   25.8634 C   0  0  2  0  0  0  0  0  0  0  0  0
    7.9619  -13.1233   27.2063 C   0  0  0  0  0  0  0  0  0  0  0  0
    8.0947  -14.2436   24.9496 C   0  0  2  0  0  0  0  0  0  0  0  0
    7.3535  -14.4660   23.6923 N   0  0  0  0  0  0  0  0  0  0  0  0
    8.4474  -15.5299   25.5605 C   0  0  0  0  0  0  0  0  0  0  0  0
    7.5582  -16.3320   26.0012 O   0  0  0  0  0  0  0  0  0  0  0  0
    9.8004  -15.9370   25.6764 N   0  0  0  0  0  0  0  0  0  0  0  0
   10.1004  -17.2985   26.1431 C   0  0  1  0  0  0  0  0  0  0  0  0
   11.2919  -17.7628   25.3234 C   0  0  0  0  0  0  0  0  0  0  0  0
   10.9744  -18.0543   23.8957 C   0  0  0  0  0  0  0  0  0  0  0  0
   12.2537  -18.6115   23.2651 C   0  0  0  0  0  0  0  0  0  0  0  0
   12.0048  -18.9452   21.7972 C   0  0  0  0  0  0  0  0  0  0  0  0
   12.9275  -18.1715   21.0020 N   0  0  0  0  0  0  0  0  0  0  0  0
   10.3822  -17.2591   27.5726 C   0  0  0  0  0  0  0  0  0  0  0  0
   10.5772  -18.3069   28.2210 O   0  0  0  0  0  0  0  0  0  0  0  0
   10.4551  -16.0696   28.3133 O   0  0  0  0  0  0  0  0  0  0  0  0
  2  1  1  6
  2  4  1  0
  2  3  1  0
  4  6  1  0
  4  5  1  6
  6  7  2  0
  6 13  1  0
  9  8  1  0
 10  9  1  0
 10 11  1  1
 12 14  1  0
 12 10  1  0
 12 13  1  6
 14 15  2  0
 16 17  1  0
 16 14  1  0
 17 18  1  6
 19 18  1  0
 20 21  1  0
 20 19  1  0
 22 21  1  0
 23 25  1  0
 23 17  1  0
 24 23  2  0
M  END
$$$$
