VIK.pdb
     RDKit          3D

 25 24  0  0  1  0  0  0  0  0999 V2000
    7.7111  -17.1235   20.7772 C   0  0  0  0  0  0  0  0  0  0  0  0
    6.5009  -16.2142   20.8898 C   0  0  2  0  0  0  0  0  0  0  0  0
    5.7685  -16.3532   19.5729 C   0  0  0  0  0  0  0  0  0  0  0  0
    6.9115  -14.7718   21.0563 C   0  0  2  0  0  0  0  0  0  0  0  0
    7.7623  -14.3443   19.9569 N   0  0  0  0  0  0  0  0  0  0  0  0
    7.6082  -14.5266   22.3138 C   0  0  0  0  0  0  0  0  0  0  0  0
    8.8929  -14.6296   22.2944 O   0  0  0  0  0  0  0  0  0  0  0  0
    5.6974  -11.3062   26.3751 C   0  0  0  0  0  0  0  0  0  0  0  0
    6.7174  -11.8661   25.3751 C   0  0  0  0  0  0  0  0  0  0  0  0
    7.0954  -13.2544   25.7882 C   0  0  2  0  0  0  0  0  0  0  0  0
    7.8166  -13.1157   27.1350 C   0  0  0  0  0  0  0  0  0  0  0  0
    7.8638  -14.0446   24.7896 C   0  0  2  0  0  0  0  0  0  0  0  0
    7.0635  -14.1874   23.5572 N   0  0  0  0  0  0  0  0  0  0  0  0
    8.2320  -15.3671   25.3069 C   0  0  0  0  0  0  0  0  0  0  0  0
    7.3531  -16.2478   25.5901 O   0  0  0  0  0  0  0  0  0  0  0  0
    9.5902  -15.7220   25.5044 N   0  0  0  0  0  0  0  0  0  0  0  0
    9.9194  -17.0977   25.9047 C   0  0  1  0  0  0  0  0  0  0  0  0
   10.9312  -17.5935   24.8860 C   0  0  0  0  0  0  0  0  0  0  0  0
   11.4889  -18.9434   25.1868 C   0  0  0  0  0  0  0  0  0  0  0  0
   12.5297  -19.2411   24.1036 C   0  0  0  0  0  0  0  0  0  0  0  0
   12.2494  -20.6034   23.4764 C   0  0  0  0  0  0  0  0  0  0  0  0
   13.2895  -20.8725   22.5131 N   0  0  0  0  0  0  0  0  0  0  0  0
   10.4493  -17.0832   27.2625 C   0  0  0  0  0  0  0  0  0  0  0  0
   10.8086  -16.0181   27.8037 O   0  0  0  0  0  0  0  0  0  0  0  0
   10.5929  -18.2368   28.0483 O   0  0  0  0  0  0  0  0  0  0  0  0
  2  1  1  6
  2  4  1  0
  2  3  1  0
  4  6  1  0
  4  5  1  6
  6  7  2  0
  6 13  1  0
  9  8  1  0
 10  9  1  0
 10 11  1  1
 12 14  1  0
 12 10  1  0
 12 13  1  6
 14 15  2  0
 16 17  1  0
 16 14  1  0
 17 18  1  6
 19 18  1  0
 20 21  1  0
 20 19  1  0
 22 21  1  0
 23 25  1  0
 23 17  1  0
 24 23  2  0
M  END
$$$$
