SDF.pdb
     RDKit          3D

 26 26  0  0  1  0  0  0  0  0999 V2000
   20.3429   -3.9156  -18.5738 O   0  0  0  0  0  0  0  0  0  0  0  0
   20.0070   -5.2245  -18.2686 C   0  0  0  0  0  0  0  0  0  0  0  0
   19.3364   -5.9167  -19.4637 C   0  0  2  0  0  0  0  0  0  0  0  0
   18.1612   -5.1494  -19.7995 N   0  0  0  0  0  0  0  0  0  0  0  0
   19.0112   -7.2890  -19.0025 C   0  0  0  0  0  0  0  0  0  0  0  0
   18.3549   -8.0111  -19.7978 O   0  0  0  0  0  0  0  0  0  0  0  0
   19.4309   -7.7553  -17.7116 N   0  0  0  0  0  0  0  0  0  0  0  0
   19.1868   -9.1298  -17.3999 C   0  0  1  0  0  0  0  0  0  0  0  0
   19.9571  -10.0355  -18.3380 C   0  0  0  0  0  0  0  0  0  0  0  0
   19.6406  -11.4390  -18.0256 C   0  0  0  0  0  0  0  0  0  0  0  0
   20.5895  -12.2042  -17.6523 O   0  0  0  0  0  0  0  0  0  0  0  0
   19.6973   -9.4806  -16.0243 C   0  0  0  0  0  0  0  0  0  0  0  0
   19.4873  -10.6129  -15.5243 O   0  0  0  0  0  0  0  0  0  0  0  0
   18.3871  -12.0056  -18.1037 O   0  0  0  0  0  0  0  0  0  0  0  0
   20.4225   -8.5389  -15.2720 N   0  0  0  0  0  0  0  0  0  0  0  0
   20.6183   -8.6060  -13.8366 C   0  0  1  0  0  0  0  0  0  0  0  0
   22.0498   -8.1902  -13.5954 C   0  0  0  0  0  0  0  0  0  0  0  0
   22.3603   -6.9002  -14.2289 C   0  0  0  0  0  0  0  0  0  0  0  0
   22.9102   -6.8334  -15.4743 C   0  0  0  0  0  0  0  0  0  0  0  0
   23.1980   -5.6293  -16.0828 C   0  0  0  0  0  0  0  0  0  0  0  0
   22.9173   -4.4532  -15.4013 C   0  0  0  0  0  0  0  0  0  0  0  0
   22.3631   -4.4918  -14.1444 C   0  0  0  0  0  0  0  0  0  0  0  0
   22.0893   -5.7106  -13.5686 C   0  0  0  0  0  0  0  0  0  0  0  0
   19.7261   -7.6898  -13.1064 C   0  0  0  0  0  0  0  0  0  0  0  0
   19.6019   -7.5794  -11.8852 O   0  0  0  0  0  0  0  0  0  0  0  0
   18.9195   -6.8392  -13.8890 O   0  0  0  0  0  0  0  0  0  0  0  0
  2  1  1  0
  3  5  1  0
  3  4  1  1
  3  2  1  0
  5  6  2  0
  7  8  1  0
  7  5  1  0
  8 12  1  0
  8  9  1  6
 10  9  1  0
 11 10  2  0
 12 13  2  0
 12 15  1  0
 14 10  1  0
 15 16  1  0
 16 24  1  0
 16 17  1  6
 18 17  1  0
 19 18  2  0
 20 19  1  0
 21 20  2  0
 21 22  1  0
 22 23  2  0
 23 18  1  0
 24 25  2  0
 24 26  1  0
M  END
$$$$
