SDF.pdb
     RDKit          3D

 26 26  0  0  1  0  0  0  0  0999 V2000
   28.5797  -18.3128  -14.7737 O   0  0  0  0  0  0  0  0  0  0  0  0
   28.0076  -18.9229  -15.8780 C   0  0  0  0  0  0  0  0  0  0  0  0
   26.5653  -18.4414  -16.0909 C   0  0  2  0  0  0  0  0  0  0  0  0
   26.5971  -16.9994  -16.1374 N   0  0  0  0  0  0  0  0  0  0  0  0
   25.7940  -18.9597  -14.9341 C   0  0  0  0  0  0  0  0  0  0  0  0
   25.1891  -18.1079  -14.2318 O   0  0  0  0  0  0  0  0  0  0  0  0
   25.7495  -20.3645  -14.6434 N   0  0  0  0  0  0  0  0  0  0  0  0
   24.9104  -20.7841  -13.5635 C   0  0  1  0  0  0  0  0  0  0  0  0
   24.2189  -22.0888  -13.8999 C   0  0  0  0  0  0  0  0  0  0  0  0
   23.1582  -21.8346  -14.8886 C   0  0  0  0  0  0  0  0  0  0  0  0
   23.3722  -22.1603  -16.1024 O   0  0  0  0  0  0  0  0  0  0  0  0
   25.7178  -21.0870  -12.3257 C   0  0  0  0  0  0  0  0  0  0  0  0
   26.8916  -21.5247  -12.4086 O   0  0  0  0  0  0  0  0  0  0  0  0
   21.9346  -21.2655  -14.6104 O   0  0  0  0  0  0  0  0  0  0  0  0
   25.1663  -20.8831  -11.0478 N   0  0  0  0  0  0  0  0  0  0  0  0
   25.8901  -21.0499   -9.8022 C   0  0  1  0  0  0  0  0  0  0  0  0
   27.0756  -20.1184   -9.8856 C   0  0  0  0  0  0  0  0  0  0  0  0
   27.8554  -20.1104   -8.6391 C   0  0  0  0  0  0  0  0  0  0  0  0
   28.6991  -21.1327   -8.3212 C   0  0  0  0  0  0  0  0  0  0  0  0
   29.4424  -21.1326   -7.1591 C   0  0  0  0  0  0  0  0  0  0  0  0
   29.3234  -20.0565   -6.2908 C   0  0  0  0  0  0  0  0  0  0  0  0
   28.4799  -19.0127   -6.5866 C   0  0  0  0  0  0  0  0  0  0  0  0
   27.7541  -19.0465   -7.7546 C   0  0  0  0  0  0  0  0  0  0  0  0
   25.0779  -20.6843   -8.6294 C   0  0  0  0  0  0  0  0  0  0  0  0
   24.1897  -19.8321   -8.5690 O   0  0  0  0  0  0  0  0  0  0  0  0
   25.3426  -21.3866   -7.4363 O   0  0  0  0  0  0  0  0  0  0  0  0
  2  1  1  0
  3  5  1  0
  3  4  1  1
  3  2  1  0
  5  6  2  0
  7  8  1  0
  7  5  1  0
  8 12  1  0
  8  9  1  6
 10  9  1  0
 11 10  2  0
 12 13  2  0
 12 15  1  0
 14 10  1  0
 15 16  1  0
 16 24  1  0
 16 17  1  6
 18 17  1  0
 19 18  2  0
 20 19  1  0
 21 20  2  0
 21 22  1  0
 22 23  2  0
 23 18  1  0
 24 25  2  0
 24 26  1  0
M  END
$$$$
