SDF.pdb
     RDKit          3D

 26 26  0  0  1  0  0  0  0  0999 V2000
   20.4369  -12.8283  -15.6995 O   0  0  0  0  0  0  0  0  0  0  0  0
   20.7340  -11.7143  -16.4676 C   0  0  0  0  0  0  0  0  0  0  0  0
   19.7869  -11.6034  -17.6709 C   0  0  2  0  0  0  0  0  0  0  0  0
   20.4681  -12.1762  -18.8069 N   0  0  0  0  0  0  0  0  0  0  0  0
   19.5165  -10.1540  -17.8371 C   0  0  0  0  0  0  0  0  0  0  0  0
   19.0459   -9.7912  -18.9468 O   0  0  0  0  0  0  0  0  0  0  0  0
   19.7834   -9.2245  -16.7764 N   0  0  0  0  0  0  0  0  0  0  0  0
   19.4324   -7.8560  -17.0003 C   0  0  1  0  0  0  0  0  0  0  0  0
   17.9385   -7.7139  -17.2046 C   0  0  0  0  0  0  0  0  0  0  0  0
   17.6205   -6.3061  -17.4946 C   0  0  0  0  0  0  0  0  0  0  0  0
   18.4418   -5.6336  -18.2005 O   0  0  0  0  0  0  0  0  0  0  0  0
   19.7359   -7.0059  -15.7916 C   0  0  0  0  0  0  0  0  0  0  0  0
   19.0654   -7.1173  -14.7360 O   0  0  0  0  0  0  0  0  0  0  0  0
   16.4935   -5.6421  -17.0614 O   0  0  0  0  0  0  0  0  0  0  0  0
   20.7826   -6.0668  -15.8257 N   0  0  0  0  0  0  0  0  0  0  0  0
   21.2066   -5.2644  -14.6945 C   0  0  1  0  0  0  0  0  0  0  0  0
   22.6804   -5.5429  -14.5201 C   0  0  0  0  0  0  0  0  0  0  0  0
   22.9556   -6.9818  -14.3962 C   0  0  0  0  0  0  0  0  0  0  0  0
   23.6574   -7.6567  -15.3501 C   0  0  0  0  0  0  0  0  0  0  0  0
   23.9295   -9.0046  -15.2411 C   0  0  0  0  0  0  0  0  0  0  0  0
   23.4721   -9.6897  -14.1241 C   0  0  0  0  0  0  0  0  0  0  0  0
   22.7618   -9.0338  -13.1473 C   0  0  0  0  0  0  0  0  0  0  0  0
   22.5092   -7.6892  -13.2894 C   0  0  0  0  0  0  0  0  0  0  0  0
   21.0181   -3.8228  -14.9285 C   0  0  0  0  0  0  0  0  0  0  0  0
   20.6338   -3.2754  -15.9636 O   0  0  0  0  0  0  0  0  0  0  0  0
   21.3090   -2.9660  -13.8477 O   0  0  0  0  0  0  0  0  0  0  0  0
  2  1  1  0
  3  5  1  0
  3  4  1  6
  3  2  1  0
  5  6  2  0
  7  8  1  0
  7  5  1  0
  8 12  1  0
  8  9  1  1
 10  9  1  0
 11 10  2  0
 12 13  2  0
 12 15  1  0
 14 10  1  0
 15 16  1  0
 16 24  1  0
 16 17  1  6
 18 17  1  0
 19 18  2  0
 20 19  1  0
 21 20  2  0
 21 22  1  0
 22 23  2  0
 23 18  1  0
 24 25  2  0
 24 26  1  0
M  END
$$$$
