SDF.pdb
     RDKit          3D

 26 26  0  0  1  0  0  0  0  0999 V2000
   21.2493  -12.9988  -16.9959 O   0  0  0  0  0  0  0  0  0  0  0  0
   21.8217  -11.8157  -17.4340 C   0  0  0  0  0  0  0  0  0  0  0  0
   21.5875  -11.6111  -18.9374 C   0  0  2  0  0  0  0  0  0  0  0  0
   22.6533  -12.2904  -19.6339 N   0  0  0  0  0  0  0  0  0  0  0  0
   21.6089  -10.1429  -19.1511 C   0  0  0  0  0  0  0  0  0  0  0  0
   21.9428   -9.7442  -20.2975 O   0  0  0  0  0  0  0  0  0  0  0  0
   21.2638   -9.2355  -18.0939 N   0  0  0  0  0  0  0  0  0  0  0  0
   21.2301   -7.8412  -18.4116 C   0  0  1  0  0  0  0  0  0  0  0  0
   20.0957   -7.5383  -19.3682 C   0  0  0  0  0  0  0  0  0  0  0  0
   20.1851   -6.1327  -19.7966 C   0  0  0  0  0  0  0  0  0  0  0  0
   21.3385   -5.6455  -20.0359 O   0  0  0  0  0  0  0  0  0  0  0  0
   20.9343   -7.0062  -17.1905 C   0  0  0  0  0  0  0  0  0  0  0  0
   19.8831   -7.1793  -16.5262 O   0  0  0  0  0  0  0  0  0  0  0  0
   19.1118   -5.2848  -19.9636 O   0  0  0  0  0  0  0  0  0  0  0  0
   21.8368   -6.0119  -16.7716 N   0  0  0  0  0  0  0  0  0  0  0  0
   21.7727   -5.3261  -15.4954 C   0  0  1  0  0  0  0  0  0  0  0  0
   23.0618   -5.6587  -14.7828 C   0  0  0  0  0  0  0  0  0  0  0  0
   23.1890   -7.1004  -14.5240 C   0  0  0  0  0  0  0  0  0  0  0  0
   24.0539   -7.8773  -15.2355 C   0  0  0  0  0  0  0  0  0  0  0  0
   24.1886   -9.2292  -14.9963 C   0  0  0  0  0  0  0  0  0  0  0  0
   23.4173   -9.8108  -13.9998 C   0  0  0  0  0  0  0  0  0  0  0  0
   22.5371   -9.0509  -13.2675 C   0  0  0  0  0  0  0  0  0  0  0  0
   22.4292   -7.7056  -13.5335 C   0  0  0  0  0  0  0  0  0  0  0  0
   21.6762   -3.8647  -15.6492 C   0  0  0  0  0  0  0  0  0  0  0  0
   21.6785   -3.2198  -16.6994 O   0  0  0  0  0  0  0  0  0  0  0  0
   21.5685   -3.1123  -14.4622 O   0  0  0  0  0  0  0  0  0  0  0  0
  2  1  1  0
  3  5  1  0
  3  4  1  6
  3  2  1  0
  5  6  2  0
  7  8  1  0
  7  5  1  0
  8 12  1  0
  8  9  1  6
 10  9  1  0
 11 10  2  0
 12 13  2  0
 12 15  1  0
 14 10  1  0
 15 16  1  0
 16 24  1  0
 16 17  1  1
 18 17  1  0
 19 18  2  0
 20 19  1  0
 21 20  2  0
 21 22  1  0
 22 23  2  0
 23 18  1  0
 24 25  2  0
 24 26  1  0
M  END
$$$$
