SDF.pdb
     RDKit          3D

 26 26  0  0  1  0  0  0  0  0999 V2000
   18.2782  -10.5889  -17.3020 O   0  0  0  0  0  0  0  0  0  0  0  0
   18.5576  -10.3369  -15.9687 C   0  0  0  0  0  0  0  0  0  0  0  0
   19.8959   -9.6007  -15.8133 C   0  0  2  0  0  0  0  0  0  0  0  0
   20.9437  -10.5854  -15.9351 N   0  0  0  0  0  0  0  0  0  0  0  0
   19.8548   -8.9719  -14.4699 C   0  0  0  0  0  0  0  0  0  0  0  0
   19.8799   -9.7507  -13.4812 O   0  0  0  0  0  0  0  0  0  0  0  0
   19.7899   -7.5458  -14.3215 N   0  0  0  0  0  0  0  0  0  0  0  0
   19.6215   -7.0317  -12.9973 C   0  0  1  0  0  0  0  0  0  0  0  0
   20.0098   -5.5690  -12.9385 C   0  0  0  0  0  0  0  0  0  0  0  0
   21.4754   -5.4529  -13.0164 C   0  0  0  0  0  0  0  0  0  0  0  0
   22.1835   -6.3820  -12.5060 O   0  0  0  0  0  0  0  0  0  0  0  0
   18.1730   -7.0602  -12.5767 C   0  0  0  0  0  0  0  0  0  0  0  0
   17.2512   -6.9162  -13.4168 O   0  0  0  0  0  0  0  0  0  0  0  0
   22.1582   -4.4096  -13.6027 O   0  0  0  0  0  0  0  0  0  0  0  0
   17.8268   -7.2497  -11.2265 N   0  0  0  0  0  0  0  0  0  0  0  0
   16.4721   -7.2106  -10.7102 C   0  0  1  0  0  0  0  0  0  0  0  0
   16.5227   -7.8968   -9.3661 C   0  0  0  0  0  0  0  0  0  0  0  0
   15.2008   -7.9430   -8.7240 C   0  0  0  0  0  0  0  0  0  0  0  0
   14.8160   -6.9992   -7.8190 C   0  0  0  0  0  0  0  0  0  0  0  0
   13.5755   -7.0268   -7.2164 C   0  0  0  0  0  0  0  0  0  0  0  0
   12.6964   -8.0493   -7.5451 C   0  0  0  0  0  0  0  0  0  0  0  0
   13.0589   -9.0141   -8.4542 C   0  0  0  0  0  0  0  0  0  0  0  0
   14.3042   -8.9548   -9.0354 C   0  0  0  0  0  0  0  0  0  0  0  0
   15.9829   -5.8340  -10.5248 C   0  0  0  0  0  0  0  0  0  0  0  0
   16.6165   -4.8635  -10.1059 O   0  0  0  0  0  0  0  0  0  0  0  0
   14.6362   -5.5932  -10.8641 O   0  0  0  0  0  0  0  0  0  0  0  0
  2  1  1  0
  3  5  1  0
  3  4  1  1
  3  2  1  0
  5  6  2  0
  7  8  1  0
  7  5  1  0
  8 12  1  0
  8  9  1  6
 10  9  1  0
 11 10  2  0
 12 13  2  0
 12 15  1  0
 14 10  1  0
 15 16  1  0
 16 24  1  0
 16 17  1  1
 18 17  1  0
 19 18  2  0
 20 19  1  0
 21 20  2  0
 21 22  1  0
 22 23  2  0
 23 18  1  0
 24 25  2  0
 24 26  1  0
M  END
$$$$
