SDF.pdb
     RDKit          3D

 26 26  0  0  1  0  0  0  0  0999 V2000
   16.7307  -13.3091  -14.3610 O   0  0  0  0  0  0  0  0  0  0  0  0
   17.6025  -12.3587  -14.8669 C   0  0  0  0  0  0  0  0  0  0  0  0
   17.6790  -12.4375  -16.3983 C   0  0  2  0  0  0  0  0  0  0  0  0
   18.1022  -13.7745  -16.7383 N   0  0  0  0  0  0  0  0  0  0  0  0
   18.6637  -11.4047  -16.8049 C   0  0  0  0  0  0  0  0  0  0  0  0
   19.4116  -11.6895  -17.7767 O   0  0  0  0  0  0  0  0  0  0  0  0
   18.7475  -10.1489  -16.1150 N   0  0  0  0  0  0  0  0  0  0  0  0
   19.6309   -9.1620  -16.6551 C   0  0  1  0  0  0  0  0  0  0  0  0
   19.1379   -8.6847  -18.0051 C   0  0  0  0  0  0  0  0  0  0  0  0
   20.1323   -7.7693  -18.5886 C   0  0  0  0  0  0  0  0  0  0  0  0
   19.8184   -6.5410  -18.7221 O   0  0  0  0  0  0  0  0  0  0  0  0
   19.6590   -7.9212  -15.7974 C   0  0  0  0  0  0  0  0  0  0  0  0
   18.5982   -7.3320  -15.4750 O   0  0  0  0  0  0  0  0  0  0  0  0
   21.3931   -8.1320  -19.0098 O   0  0  0  0  0  0  0  0  0  0  0  0
   20.8824   -7.3984  -15.3406 N   0  0  0  0  0  0  0  0  0  0  0  0
   21.0115   -6.3754  -14.3208 C   0  0  1  0  0  0  0  0  0  0  0  0
   22.1597   -6.8111  -13.4421 C   0  0  0  0  0  0  0  0  0  0  0  0
   23.1865   -7.5387  -14.2024 C   0  0  0  0  0  0  0  0  0  0  0  0
   24.0010   -6.9001  -15.0893 C   0  0  0  0  0  0  0  0  0  0  0  0
   24.9737   -7.5700  -15.8020 C   0  0  0  0  0  0  0  0  0  0  0  0
   25.1229   -8.9359  -15.6063 C   0  0  0  0  0  0  0  0  0  0  0  0
   24.3148   -9.6047  -14.7184 C   0  0  0  0  0  0  0  0  0  0  0  0
   23.3555   -8.9042  -14.0249 C   0  0  0  0  0  0  0  0  0  0  0  0
   21.3218   -5.0532  -14.8901 C   0  0  0  0  0  0  0  0  0  0  0  0
   21.4002   -3.9790  -14.2911 O   0  0  0  0  0  0  0  0  0  0  0  0
   21.5570   -5.0049  -16.2789 O   0  0  0  0  0  0  0  0  0  0  0  0
  2  1  1  0
  3  5  1  0
  3  4  1  1
  3  2  1  0
  5  6  2  0
  7  8  1  0
  7  5  1  0
  8 12  1  0
  8  9  1  6
 10  9  1  0
 11 10  2  0
 12 13  2  0
 12 15  1  0
 14 10  1  0
 15 16  1  0
 16 24  1  0
 16 17  1  1
 18 17  1  0
 19 18  2  0
 20 19  1  0
 21 20  2  0
 21 22  1  0
 22 23  2  0
 23 18  1  0
 24 25  2  0
 24 26  1  0
M  END
$$$$
