SDF.pdb
     RDKit          3D

 26 26  0  0  1  0  0  0  0  0999 V2000
   18.0182  -13.5033  -14.0064 O   0  0  0  0  0  0  0  0  0  0  0  0
   17.3582  -13.5163  -15.2243 C   0  0  0  0  0  0  0  0  0  0  0  0
   18.3491  -13.6516  -16.3892 C   0  0  2  0  0  0  0  0  0  0  0  0
   19.2518  -14.7287  -16.0614 N   0  0  0  0  0  0  0  0  0  0  0  0
   19.0353  -12.3397  -16.4872 C   0  0  0  0  0  0  0  0  0  0  0  0
   20.2734  -12.3319  -16.2598 O   0  0  0  0  0  0  0  0  0  0  0  0
   18.3102  -11.1481  -16.8254 N   0  0  0  0  0  0  0  0  0  0  0  0
   19.0532   -9.9282  -16.9023 C   0  0  1  0  0  0  0  0  0  0  0  0
   18.2726   -8.8738  -17.6588 C   0  0  0  0  0  0  0  0  0  0  0  0
   19.1522   -7.7268  -17.9385 C   0  0  0  0  0  0  0  0  0  0  0  0
   18.7903   -6.5740  -17.5323 O   0  0  0  0  0  0  0  0  0  0  0  0
   19.2747   -9.3323  -15.5342 C   0  0  0  0  0  0  0  0  0  0  0  0
   18.5243   -9.6242  -14.5709 O   0  0  0  0  0  0  0  0  0  0  0  0
   20.3520   -7.7935  -18.6128 O   0  0  0  0  0  0  0  0  0  0  0  0
   20.3330   -8.4328  -15.3118 N   0  0  0  0  0  0  0  0  0  0  0  0
   20.5978   -7.7681  -14.0503 C   0  0  1  0  0  0  0  0  0  0  0  0
   21.7713   -8.4956  -13.4388 C   0  0  0  0  0  0  0  0  0  0  0  0
   22.9418   -8.4934  -14.3285 C   0  0  0  0  0  0  0  0  0  0  0  0
   23.6579   -9.6288  -14.5648 C   0  0  0  0  0  0  0  0  0  0  0  0
   24.7526   -9.6415  -15.4041 C   0  0  0  0  0  0  0  0  0  0  0  0
   25.1320   -8.4591  -16.0240 C   0  0  0  0  0  0  0  0  0  0  0  0
   24.4279   -7.2998  -15.8032 C   0  0  0  0  0  0  0  0  0  0  0  0
   23.3414   -7.3246  -14.9599 C   0  0  0  0  0  0  0  0  0  0  0  0
   20.9556   -6.3508  -14.2283 C   0  0  0  0  0  0  0  0  0  0  0  0
   21.1760   -5.5171  -13.3479 O   0  0  0  0  0  0  0  0  0  0  0  0
   21.0594   -5.8894  -15.5561 O   0  0  0  0  0  0  0  0  0  0  0  0
  2  1  1  0
  3  5  1  0
  3  4  1  1
  3  2  1  0
  5  6  2  0
  7  8  1  0
  7  5  1  0
  8 12  1  0
  8  9  1  6
 10  9  1  0
 11 10  2  0
 12 13  2  0
 12 15  1  0
 14 10  1  0
 15 16  1  0
 16 24  1  0
 16 17  1  6
 18 17  1  0
 19 18  2  0
 20 19  1  0
 21 20  2  0
 21 22  1  0
 22 23  2  0
 23 18  1  0
 24 25  2  0
 24 26  1  0
M  END
$$$$
