SDF.pdb
     RDKit          3D

 26 26  0  0  1  0  0  0  0  0999 V2000
   23.4704  -11.4908  -17.6368 O   0  0  0  0  0  0  0  0  0  0  0  0
   24.6418  -10.7650  -17.7798 C   0  0  0  0  0  0  0  0  0  0  0  0
   25.1713  -10.2951  -16.4174 C   0  0  2  0  0  0  0  0  0  0  0  0
   25.4608  -11.4755  -15.6395 N   0  0  0  0  0  0  0  0  0  0  0  0
   24.0866   -9.4725  -15.8270 C   0  0  0  0  0  0  0  0  0  0  0  0
   23.3619  -10.0307  -14.9622 O   0  0  0  0  0  0  0  0  0  0  0  0
   23.8863   -8.1102  -16.2319 N   0  0  0  0  0  0  0  0  0  0  0  0
   22.9215   -7.3451  -15.5039 C   0  0  1  0  0  0  0  0  0  0  0  0
   23.3283   -5.8875  -15.4464 C   0  0  0  0  0  0  0  0  0  0  0  0
   22.4319   -5.1699  -14.5251 C   0  0  0  0  0  0  0  0  0  0  0  0
   22.4016   -5.5347  -13.3040 O   0  0  0  0  0  0  0  0  0  0  0  0
   21.5835   -7.3417  -16.2009 C   0  0  0  0  0  0  0  0  0  0  0  0
   21.5027   -7.2232  -17.4482 O   0  0  0  0  0  0  0  0  0  0  0  0
   21.6094   -4.1212  -14.8750 O   0  0  0  0  0  0  0  0  0  0  0  0
   20.3944   -7.4720  -15.4608 N   0  0  0  0  0  0  0  0  0  0  0  0
   19.0608   -7.4148  -16.0279 C   0  0  1  0  0  0  0  0  0  0  0  0
   18.4413   -8.7661  -15.7631 C   0  0  0  0  0  0  0  0  0  0  0  0
   17.1079   -8.8866  -16.3707 C   0  0  0  0  0  0  0  0  0  0  0  0
   16.9447   -8.9434  -17.7227 C   0  0  0  0  0  0  0  0  0  0  0  0
   15.6998   -9.0651  -18.3044 C   0  0  0  0  0  0  0  0  0  0  0  0
   14.5829   -9.1309  -17.4832 C   0  0  0  0  0  0  0  0  0  0  0  0
   14.7188   -9.0755  -16.1168 C   0  0  0  0  0  0  0  0  0  0  0  0
   15.9758   -8.9541  -15.5716 C   0  0  0  0  0  0  0  0  0  0  0  0
   18.2282   -6.3767  -15.3972 C   0  0  0  0  0  0  0  0  0  0  0  0
   18.1684   -6.0885  -14.2005 O   0  0  0  0  0  0  0  0  0  0  0  0
   17.4031   -5.6231  -16.2563 O   0  0  0  0  0  0  0  0  0  0  0  0
  2  1  1  0
  3  5  1  0
  3  4  1  1
  3  2  1  0
  5  6  2  0
  7  8  1  0
  7  5  1  0
  8 12  1  0
  8  9  1  6
 10  9  1  0
 11 10  2  0
 12 13  2  0
 12 15  1  0
 14 10  1  0
 15 16  1  0
 16 24  1  0
 16 17  1  1
 18 17  1  0
 19 18  2  0
 20 19  1  0
 21 20  2  0
 21 22  1  0
 22 23  2  0
 23 18  1  0
 24 25  2  0
 24 26  1  0
M  END
$$$$
