SDF.pdb
     RDKit          3D

 26 26  0  0  1  0  0  0  0  0999 V2000
   18.7299  -12.5392  -14.0515 O   0  0  0  0  0  0  0  0  0  0  0  0
   19.2745  -11.5395  -14.8411 C   0  0  0  0  0  0  0  0  0  0  0  0
   18.3558  -11.2079  -16.0256 C   0  0  2  0  0  0  0  0  0  0  0  0
   18.6739  -12.1325  -17.0870 N   0  0  0  0  0  0  0  0  0  0  0  0
   18.6556   -9.7997  -16.3845 C   0  0  0  0  0  0  0  0  0  0  0  0
   19.5804   -9.6143  -17.2182 O   0  0  0  0  0  0  0  0  0  0  0  0
   17.9194   -8.7141  -15.8017 N   0  0  0  0  0  0  0  0  0  0  0  0
   18.2717   -7.3893  -16.2101 C   0  0  1  0  0  0  0  0  0  0  0  0
   17.0300   -6.5570  -16.4534 C   0  0  0  0  0  0  0  0  0  0  0  0
   17.4225   -5.2520  -17.0104 C   0  0  0  0  0  0  0  0  0  0  0  0
   17.1767   -4.2043  -16.3271 O   0  0  0  0  0  0  0  0  0  0  0  0
   19.0153   -6.6577  -15.1203 C   0  0  0  0  0  0  0  0  0  0  0  0
   18.6309   -6.7093  -13.9262 O   0  0  0  0  0  0  0  0  0  0  0  0
   18.0422   -5.0628  -18.2264 O   0  0  0  0  0  0  0  0  0  0  0  0
   20.1603   -5.8993  -15.4245 N   0  0  0  0  0  0  0  0  0  0  0  0
   20.9796   -5.2148  -14.4429 C   0  0  1  0  0  0  0  0  0  0  0  0
   22.3818   -5.7405  -14.6369 C   0  0  0  0  0  0  0  0  0  0  0  0
   22.4619   -7.1893  -14.3998 C   0  0  0  0  0  0  0  0  0  0  0  0
   22.7608   -8.0593  -15.4057 C   0  0  0  0  0  0  0  0  0  0  0  0
   22.8474   -9.4197  -15.1942 C   0  0  0  0  0  0  0  0  0  0  0  0
   22.6221   -9.9121  -13.9163 C   0  0  0  0  0  0  0  0  0  0  0  0
   22.3187   -9.0572  -12.8839 C   0  0  0  0  0  0  0  0  0  0  0  0
   22.2409   -7.7065  -13.1317 C   0  0  0  0  0  0  0  0  0  0  0  0
   20.9862   -3.7553  -14.6388 C   0  0  0  0  0  0  0  0  0  0  0  0
   21.5263   -2.9060  -13.9276 O   0  0  0  0  0  0  0  0  0  0  0  0
   20.2973   -3.2683  -15.7679 O   0  0  0  0  0  0  0  0  0  0  0  0
  2  1  1  0
  3  5  1  0
  3  4  1  6
  3  2  1  0
  5  6  2  0
  7  8  1  0
  7  5  1  0
  8 12  1  0
  8  9  1  1
 10  9  1  0
 11 10  2  0
 12 13  2  0
 12 15  1  0
 14 10  1  0
 15 16  1  0
 16 24  1  0
 16 17  1  6
 18 17  1  0
 19 18  2  0
 20 19  1  0
 21 20  2  0
 21 22  1  0
 22 23  2  0
 23 18  1  0
 24 25  2  0
 24 26  1  0
M  END
$$$$
