SDF.pdb
     RDKit          3D

 26 26  0  0  1  0  0  0  0  0999 V2000
   21.0243  -18.8217  -10.7984 O   0  0  0  0  0  0  0  0  0  0  0  0
   21.7045  -18.3603  -11.9136 C   0  0  0  0  0  0  0  0  0  0  0  0
   22.0186  -19.5078  -12.8841 C   0  0  2  0  0  0  0  0  0  0  0  0
   20.7903  -20.2331  -13.1025 N   0  0  0  0  0  0  0  0  0  0  0  0
   23.0563  -20.3289  -12.2128 C   0  0  0  0  0  0  0  0  0  0  0  0
   22.6489  -21.2996  -11.5227 O   0  0  0  0  0  0  0  0  0  0  0  0
   24.4508  -20.0192  -12.3527 N   0  0  0  0  0  0  0  0  0  0  0  0
   25.3851  -20.9089  -11.7349 C   0  0  1  0  0  0  0  0  0  0  0  0
   26.5540  -21.1820  -12.6583 C   0  0  0  0  0  0  0  0  0  0  0  0
   26.0556  -21.7827  -13.9066 C   0  0  0  0  0  0  0  0  0  0  0  0
   25.2314  -22.7517  -13.8245 O   0  0  0  0  0  0  0  0  0  0  0  0
   26.0044  -20.2893  -10.5067 C   0  0  0  0  0  0  0  0  0  0  0  0
   25.9173  -19.0559  -10.2889 O   0  0  0  0  0  0  0  0  0  0  0  0
   26.4095  -21.3812  -15.1763 O   0  0  0  0  0  0  0  0  0  0  0  0
   26.6953  -21.0877   -9.5772 N   0  0  0  0  0  0  0  0  0  0  0  0
   27.4489  -20.5741   -8.4496 C   0  0  1  0  0  0  0  0  0  0  0  0
   26.4356  -19.9265   -7.5364 C   0  0  0  0  0  0  0  0  0  0  0  0
   27.0484  -19.4503   -6.2876 C   0  0  0  0  0  0  0  0  0  0  0  0
   26.9962  -20.1885   -5.1429 C   0  0  0  0  0  0  0  0  0  0  0  0
   27.5746  -19.7566   -3.9674 C   0  0  0  0  0  0  0  0  0  0  0  0
   28.2280  -18.5321   -3.9555 C   0  0  0  0  0  0  0  0  0  0  0  0
   28.2953  -17.7674   -5.0954 C   0  0  0  0  0  0  0  0  0  0  0  0
   27.7071  -18.2299   -6.2497 C   0  0  0  0  0  0  0  0  0  0  0  0
   28.1455  -21.6398   -7.7095 C   0  0  0  0  0  0  0  0  0  0  0  0
   27.7356  -22.7772   -7.4702 O   0  0  0  0  0  0  0  0  0  0  0  0
   29.4286  -21.3287   -7.2160 O   0  0  0  0  0  0  0  0  0  0  0  0
  2  1  1  0
  3  5  1  0
  3  4  1  1
  3  2  1  0
  5  6  2  0
  7  8  1  0
  7  5  1  0
  8 12  1  0
  8  9  1  6
 10  9  1  0
 11 10  2  0
 12 13  2  0
 12 15  1  0
 14 10  1  0
 15 16  1  0
 16 24  1  0
 16 17  1  1
 18 17  1  0
 19 18  2  0
 20 19  1  0
 21 20  2  0
 21 22  1  0
 22 23  2  0
 23 18  1  0
 24 25  2  0
 24 26  1  0
M  END
$$$$
