SDF.pdb
     RDKit          3D

 26 26  0  0  1  0  0  0  0  0999 V2000
   14.2734   -9.2297  -13.6637 O   0  0  0  0  0  0  0  0  0  0  0  0
   15.1984  -10.1284  -14.1699 C   0  0  0  0  0  0  0  0  0  0  0  0
   15.3664   -9.9544  -15.6860 C   0  0  2  0  0  0  0  0  0  0  0  0
   14.9947  -11.2040  -16.3048 N   0  0  0  0  0  0  0  0  0  0  0  0
   16.7957   -9.6151  -15.8954 C   0  0  0  0  0  0  0  0  0  0  0  0
   17.6351  -10.5112  -15.6178 O   0  0  0  0  0  0  0  0  0  0  0  0
   17.1858   -8.3255  -16.3902 N   0  0  0  0  0  0  0  0  0  0  0  0
   18.5866   -8.0772  -16.5401 C   0  0  1  0  0  0  0  0  0  0  0  0
   18.9019   -7.6291  -17.9519 C   0  0  0  0  0  0  0  0  0  0  0  0
   20.3624   -7.5836  -18.1314 C   0  0  0  0  0  0  0  0  0  0  0  0
   20.9041   -6.4610  -18.3984 O   0  0  0  0  0  0  0  0  0  0  0  0
   19.0388   -6.9340  -15.6658 C   0  0  0  0  0  0  0  0  0  0  0  0
   18.3127   -5.9246  -15.4918 O   0  0  0  0  0  0  0  0  0  0  0  0
   21.2075   -8.6676  -18.0344 O   0  0  0  0  0  0  0  0  0  0  0  0
   20.2905   -6.9785  -15.0257 N   0  0  0  0  0  0  0  0  0  0  0  0
   20.8016   -5.9473  -14.1432 C   0  0  1  0  0  0  0  0  0  0  0  0
   21.8481   -6.6187  -13.2863 C   0  0  0  0  0  0  0  0  0  0  0  0
   22.8175   -7.3726  -14.0948 C   0  0  0  0  0  0  0  0  0  0  0  0
   23.6740   -6.7435  -14.9483 C   0  0  0  0  0  0  0  0  0  0  0  0
   24.5937   -7.4389  -15.7056 C   0  0  0  0  0  0  0  0  0  0  0  0
   24.6439   -8.8212  -15.5911 C   0  0  0  0  0  0  0  0  0  0  0  0
   23.7917   -9.4809  -14.7383 C   0  0  0  0  0  0  0  0  0  0  0  0
   22.8875   -8.7548  -13.9986 C   0  0  0  0  0  0  0  0  0  0  0  0
   21.4295   -4.8388  -14.8819 C   0  0  0  0  0  0  0  0  0  0  0  0
   21.6454   -4.7727  -16.0934 O   0  0  0  0  0  0  0  0  0  0  0  0
   21.8315   -3.7227  -14.1208 O   0  0  0  0  0  0  0  0  0  0  0  0
  2  1  1  0
  3  5  1  0
  3  4  1  6
  3  2  1  0
  5  6  2  0
  7  8  1  0
  7  5  1  0
  8 12  1  0
  8  9  1  6
 10  9  1  0
 11 10  2  0
 12 13  2  0
 12 15  1  0
 14 10  1  0
 15 16  1  0
 16 24  1  0
 16 17  1  1
 18 17  1  0
 19 18  2  0
 20 19  1  0
 21 20  2  0
 21 22  1  0
 22 23  2  0
 23 18  1  0
 24 25  2  0
 24 26  1  0
M  END
$$$$
