SDF.pdb
     RDKit          3D

 26 26  0  0  1  0  0  0  0  0999 V2000
   15.4130  -11.8909  -17.3710 O   0  0  0  0  0  0  0  0  0  0  0  0
   15.3359  -12.5288  -18.5984 C   0  0  0  0  0  0  0  0  0  0  0  0
   15.2244  -11.5129  -19.7440 C   0  0  2  0  0  0  0  0  0  0  0  0
   15.2320  -12.2577  -20.9800 N   0  0  0  0  0  0  0  0  0  0  0  0
   16.4024  -10.6212  -19.6061 C   0  0  0  0  0  0  0  0  0  0  0  0
   17.5346  -11.1624  -19.7047 O   0  0  0  0  0  0  0  0  0  0  0  0
   16.2427   -9.2141  -19.3721 N   0  0  0  0  0  0  0  0  0  0  0  0
   17.4304   -8.4462  -19.1585 C   0  0  1  0  0  0  0  0  0  0  0  0
   17.2480   -7.0290  -19.6604 C   0  0  0  0  0  0  0  0  0  0  0  0
   18.5564   -6.3550  -19.6960 C   0  0  0  0  0  0  0  0  0  0  0  0
   19.5183   -6.9333  -20.3005 O   0  0  0  0  0  0  0  0  0  0  0  0
   17.7305   -8.2956  -17.6878 C   0  0  0  0  0  0  0  0  0  0  0  0
   16.8067   -8.2567  -16.8385 O   0  0  0  0  0  0  0  0  0  0  0  0
   18.8351   -5.1335  -19.1225 O   0  0  0  0  0  0  0  0  0  0  0  0
   19.0597   -8.1952  -17.2385 N   0  0  0  0  0  0  0  0  0  0  0  0
   19.4507   -8.0419  -15.8504 C   0  0  1  0  0  0  0  0  0  0  0  0
   20.9320   -8.3312  -15.8044 C   0  0  0  0  0  0  0  0  0  0  0  0
   21.4685   -8.2290  -14.4393 C   0  0  0  0  0  0  0  0  0  0  0  0
   21.4693   -9.2978  -13.5933 C   0  0  0  0  0  0  0  0  0  0  0  0
   21.9775   -9.2168  -12.3134 C   0  0  0  0  0  0  0  0  0  0  0  0
   22.5026   -8.0077  -11.8790 C   0  0  0  0  0  0  0  0  0  0  0  0
   22.5140   -6.9141  -12.7112 C   0  0  0  0  0  0  0  0  0  0  0  0
   21.9987   -7.0316  -13.9812 C   0  0  0  0  0  0  0  0  0  0  0  0
   19.2156   -6.6770  -15.3499 C   0  0  0  0  0  0  0  0  0  0  0  0
   19.3122   -5.6213  -15.9783 O   0  0  0  0  0  0  0  0  0  0  0  0
   18.8362   -6.5588  -13.9975 O   0  0  0  0  0  0  0  0  0  0  0  0
  2  1  1  0
  3  5  1  0
  3  4  1  6
  3  2  1  0
  5  6  2  0
  7  8  1  0
  7  5  1  0
  8 12  1  0
  8  9  1  1
 10  9  1  0
 11 10  2  0
 12 13  2  0
 12 15  1  0
 14 10  1  0
 15 16  1  0
 16 24  1  0
 16 17  1  6
 18 17  1  0
 19 18  2  0
 20 19  1  0
 21 20  2  0
 21 22  1  0
 22 23  2  0
 23 18  1  0
 24 25  2  0
 24 26  1  0
M  END
$$$$
