MVG.pdb
     RDKit          3D

 20 19  0  0  1  0  0  0  0  0999 V2000
    6.8288  -11.1718   26.6760 C   0  0  0  0  0  0  0  0  0  0  0  0
    6.7594  -12.4710   27.9299 S   0  0  0  0  0  0  0  0  0  0  0  0
    6.1249  -14.0177   27.2462 C   0  0  0  0  0  0  0  0  0  0  0  0
    7.0894  -14.6108   26.2324 C   0  0  0  0  0  0  0  0  0  0  0  0
    6.5092  -15.8412   25.5814 C   0  0  2  0  0  0  0  0  0  0  0  0
    6.4026  -16.9059   26.5508 N   0  0  0  0  0  0  0  0  0  0  0  0
    7.3857  -16.3053   24.4497 C   0  0  0  0  0  0  0  0  0  0  0  0
    7.7873  -17.4909   24.3791 O   0  0  0  0  0  0  0  0  0  0  0  0
    8.9939  -15.0568   19.9156 C   0  0  0  0  0  0  0  0  0  0  0  0
    8.2373  -14.7689   21.1915 C   0  0  1  0  0  0  0  0  0  0  0  0
    6.7459  -14.6610   20.9671 C   0  0  0  0  0  0  0  0  0  0  0  0
    8.5891  -15.7235   22.3039 C   0  0  2  0  0  0  0  0  0  0  0  0
    7.7756  -15.4105   23.4395 N   0  0  0  0  0  0  0  0  0  0  0  0
   10.0318  -15.7656   22.6069 C   0  0  0  0  0  0  0  0  0  0  0  0
   10.5456  -14.7376   23.1213 O   0  0  0  0  0  0  0  0  0  0  0  0
   10.8644  -16.8732   22.3594 N   0  0  0  0  0  0  0  0  0  0  0  0
   12.2030  -16.9063   22.8927 C   0  0  0  0  0  0  0  0  0  0  0  0
   13.1647  -16.4235   21.8731 C   0  0  0  0  0  0  0  0  0  0  0  0
   12.8235  -16.2620   20.6763 O   0  0  0  0  0  0  0  0  0  0  0  0
   14.4707  -16.1380   22.2228 O   0  0  0  0  0  0  0  0  0  0  0  0
  2  1  1  0
  3  2  1  0
  4  5  1  0
  4  3  1  0
  5  6  1  1
  7  5  1  0
  8  7  2  0
 10  9  1  6
 10 11  1  0
 12 10  1  0
 12 13  1  1
 13  7  1  0
 14 16  1  0
 14 12  1  0
 15 14  2  0
 17 18  1  0
 17 16  1  0
 18 20  1  0
 19 18  2  0
M  END
$$$$
