MVG.pdb
     RDKit          3D

 20 19  0  0  1  0  0  0  0  0999 V2000
    6.8039  -10.9361   26.3363 C   0  0  0  0  0  0  0  0  0  0  0  0
    7.3234  -12.3143   27.3830 S   0  0  0  0  0  0  0  0  0  0  0  0
    6.7090  -13.8918   26.7533 C   0  0  0  0  0  0  0  0  0  0  0  0
    7.3531  -14.2446   25.4227 C   0  0  0  0  0  0  0  0  0  0  0  0
    6.7595  -15.5051   24.8457 C   0  0  2  0  0  0  0  0  0  0  0  0
    6.8338  -16.5718   25.8159 N   0  0  0  0  0  0  0  0  0  0  0  0
    7.5069  -15.9250   23.6090 C   0  0  0  0  0  0  0  0  0  0  0  0
    7.9087  -17.1030   23.4576 O   0  0  0  0  0  0  0  0  0  0  0  0
    6.3915  -14.2234   20.1677 C   0  0  0  0  0  0  0  0  0  0  0  0
    7.8934  -14.2431   20.3315 C   0  0  1  0  0  0  0  0  0  0  0  0
    8.4606  -12.8730   20.6266 C   0  0  0  0  0  0  0  0  0  0  0  0
    8.3570  -15.2872   21.3152 C   0  0  2  0  0  0  0  0  0  0  0  0
    7.7722  -14.9963   22.5891 N   0  0  0  0  0  0  0  0  0  0  0  0
    9.8231  -15.4400   21.3616 C   0  0  0  0  0  0  0  0  0  0  0  0
   10.4015  -15.8011   20.3031 O   0  0  0  0  0  0  0  0  0  0  0  0
   10.6108  -15.2095   22.5050 N   0  0  0  0  0  0  0  0  0  0  0  0
   12.0485  -15.2593   22.4160 C   0  0  0  0  0  0  0  0  0  0  0  0
   12.5205  -16.6464   22.6411 C   0  0  0  0  0  0  0  0  0  0  0  0
   11.7159  -17.6054   22.7286 O   0  0  0  0  0  0  0  0  0  0  0  0
   13.8707  -16.9154   22.7604 O   0  0  0  0  0  0  0  0  0  0  0  0
  2  1  1  0
  3  2  1  0
  4  5  1  0
  4  3  1  0
  5  6  1  1
  7  5  1  0
  8  7  2  0
 10  9  1  1
 10 11  1  0
 12 10  1  0
 12 13  1  1
 13  7  1  0
 14 16  1  0
 14 12  1  0
 15 14  2  0
 17 18  1  0
 17 16  1  0
 18 20  1  0
 19 18  2  0
M  END
$$$$
