MVG.pdb
     RDKit          3D

 20 19  0  0  1  0  0  0  0  0999 V2000
   11.1958  -20.7330   19.3224 C   0  0  0  0  0  0  0  0  0  0  0  0
    9.6936  -20.9706   18.3467 S   0  0  0  0  0  0  0  0  0  0  0  0
    9.1863  -19.4417   17.5297 C   0  0  0  0  0  0  0  0  0  0  0  0
    9.6951  -18.2202   18.2773 C   0  0  0  0  0  0  0  0  0  0  0  0
    9.2443  -16.9448   17.6106 C   0  0  2  0  0  0  0  0  0  0  0  0
    9.8066  -16.8588   16.2836 N   0  0  0  0  0  0  0  0  0  0  0  0
    9.6917  -15.7461   18.4027 C   0  0  0  0  0  0  0  0  0  0  0  0
   10.8113  -15.2163   18.2086 O   0  0  0  0  0  0  0  0  0  0  0  0
    7.3746  -12.6621   19.2381 C   0  0  0  0  0  0  0  0  0  0  0  0
    7.9200  -13.3004   20.4943 C   0  0  1  0  0  0  0  0  0  0  0  0
    6.8719  -14.0936   21.2416 C   0  0  0  0  0  0  0  0  0  0  0  0
    9.1782  -14.0923   20.2447 C   0  0  2  0  0  0  0  0  0  0  0  0
    8.8554  -15.1909   19.3853 N   0  0  0  0  0  0  0  0  0  0  0  0
    9.8724  -14.4967   21.4814 C   0  0  0  0  0  0  0  0  0  0  0  0
   10.2278  -13.5828   22.2712 O   0  0  0  0  0  0  0  0  0  0  0  0
   10.1608  -15.8290   21.8322 N   0  0  0  0  0  0  0  0  0  0  0  0
   10.8526  -16.1203   23.0626 C   0  0  0  0  0  0  0  0  0  0  0  0
   10.9295  -17.5871   23.2634 C   0  0  0  0  0  0  0  0  0  0  0  0
   10.4656  -18.3887   22.4167 O   0  0  0  0  0  0  0  0  0  0  0  0
   11.5199  -18.1078   24.3991 O   0  0  0  0  0  0  0  0  0  0  0  0
  2  1  1  0
  3  2  1  0
  4  5  1  0
  4  3  1  0
  5  6  1  6
  7  5  1  0
  8  7  2  0
 10  9  1  6
 10 11  1  0
 12 10  1  0
 12 13  1  1
 13  7  1  0
 14 16  1  0
 14 12  1  0
 15 14  2  0
 17 18  1  0
 17 16  1  0
 18 20  1  0
 19 18  2  0
M  END
$$$$
