MVG.pdb
     RDKit          3D

 20 19  0  0  1  0  0  0  0  0999 V2000
    6.0636  -11.0928   26.6114 C   0  0  0  0  0  0  0  0  0  0  0  0
    6.7759  -12.3895   27.6488 S   0  0  0  0  0  0  0  0  0  0  0  0
    6.3437  -14.0349   27.0418 C   0  0  0  0  0  0  0  0  0  0  0  0
    7.2382  -14.4502   25.8854 C   0  0  0  0  0  0  0  0  0  0  0  0
    6.8619  -15.8153   25.3668 C   0  0  2  0  0  0  0  0  0  0  0  0
    7.1131  -16.8123   26.3804 N   0  0  0  0  0  0  0  0  0  0  0  0
    7.6679  -16.1580   24.1431 C   0  0  0  0  0  0  0  0  0  0  0  0
    8.2161  -17.2782   24.0152 O   0  0  0  0  0  0  0  0  0  0  0  0
    6.3422  -14.4650   20.7748 C   0  0  0  0  0  0  0  0  0  0  0  0
    7.8510  -14.4501   20.8540 C   0  0  1  0  0  0  0  0  0  0  0  0
    8.4030  -13.0649   21.1039 C   0  0  0  0  0  0  0  0  0  0  0  0
    8.3924  -15.4733   21.8197 C   0  0  2  0  0  0  0  0  0  0  0  0
    7.8238  -15.2201   23.1090 N   0  0  0  0  0  0  0  0  0  0  0  0
    9.8651  -15.5489   21.8304 C   0  0  0  0  0  0  0  0  0  0  0  0
   10.4372  -15.8514   20.7503 O   0  0  0  0  0  0  0  0  0  0  0  0
   10.6657  -15.3063   22.9623 N   0  0  0  0  0  0  0  0  0  0  0  0
   12.1026  -15.3248   22.8505 C   0  0  0  0  0  0  0  0  0  0  0  0
   12.6119  -16.6919   23.1138 C   0  0  0  0  0  0  0  0  0  0  0  0
   11.8668  -17.6972   23.0196 O   0  0  0  0  0  0  0  0  0  0  0  0
   13.9316  -16.8899   23.4724 O   0  0  0  0  0  0  0  0  0  0  0  0
  2  1  1  0
  3  2  1  0
  4  5  1  0
  4  3  1  0
  5  6  1  1
  7  5  1  0
  8  7  2  0
 10  9  1  1
 10 11  1  0
 12 10  1  0
 12 13  1  1
 13  7  1  0
 14 16  1  0
 14 12  1  0
 15 14  2  0
 17 18  1  0
 17 16  1  0
 18 20  1  0
 19 18  2  0
M  END
$$$$
