MVG.pdb
     RDKit          3D

 20 19  0  0  1  0  0  0  0  0999 V2000
    7.5879  -11.2735   26.4501 C   0  0  0  0  0  0  0  0  0  0  0  0
    6.9831  -12.4675   27.6640 S   0  0  0  0  0  0  0  0  0  0  0  0
    6.3820  -13.9735   26.8685 C   0  0  0  0  0  0  0  0  0  0  0  0
    7.1967  -14.3074   25.6297 C   0  0  0  0  0  0  0  0  0  0  0  0
    6.6579  -15.5330   24.9356 C   0  0  2  0  0  0  0  0  0  0  0  0
    6.7992  -16.6855   25.7936 N   0  0  0  0  0  0  0  0  0  0  0  0
    7.4070  -15.7896   23.6560 C   0  0  0  0  0  0  0  0  0  0  0  0
    7.7151  -16.9522   23.3019 O   0  0  0  0  0  0  0  0  0  0  0  0
    8.6706  -13.4839   19.4084 C   0  0  0  0  0  0  0  0  0  0  0  0
    7.9825  -13.5630   20.7513 C   0  0  1  0  0  0  0  0  0  0  0  0
    6.4942  -13.3150   20.6535 C   0  0  0  0  0  0  0  0  0  0  0  0
    8.3118  -14.8297   21.4993 C   0  0  2  0  0  0  0  0  0  0  0  0
    7.7800  -14.7211   22.8240 N   0  0  0  0  0  0  0  0  0  0  0  0
    9.7452  -15.1748   21.4668 C   0  0  0  0  0  0  0  0  0  0  0  0
   10.2462  -15.4631   20.3482 O   0  0  0  0  0  0  0  0  0  0  0  0
   10.5823  -15.2023   22.5980 N   0  0  0  0  0  0  0  0  0  0  0  0
   11.9955  -15.4427   22.4475 C   0  0  0  0  0  0  0  0  0  0  0  0
   12.2973  -16.8677   22.7229 C   0  0  0  0  0  0  0  0  0  0  0  0
   11.4213  -17.7578   22.5998 O   0  0  0  0  0  0  0  0  0  0  0  0
   13.5629  -17.2498   23.1251 O   0  0  0  0  0  0  0  0  0  0  0  0
  2  1  1  0
  3  2  1  0
  4  5  1  0
  4  3  1  0
  5  6  1  1
  7  5  1  0
  8  7  2  0
 10  9  1  6
 10 11  1  0
 12 10  1  0
 12 13  1  1
 13  7  1  0
 14 16  1  0
 14 12  1  0
 15 14  2  0
 17 18  1  0
 17 16  1  0
 18 20  1  0
 19 18  2  0
M  END
$$$$
