MVG.pdb
     RDKit          3D

 20 19  0  0  1  0  0  0  0  0999 V2000
    7.2201  -11.2932   26.5441 C   0  0  0  0  0  0  0  0  0  0  0  0
    7.0503  -12.6559   27.7185 S   0  0  0  0  0  0  0  0  0  0  0  0
    6.4667  -14.1603   26.9070 C   0  0  0  0  0  0  0  0  0  0  0  0
    7.2731  -14.4611   25.6543 C   0  0  0  0  0  0  0  0  0  0  0  0
    6.7091  -15.6473   24.9134 C   0  0  2  0  0  0  0  0  0  0  0  0
    6.8601  -16.8416   25.7105 N   0  0  0  0  0  0  0  0  0  0  0  0
    7.4273  -15.8460   23.6061 C   0  0  0  0  0  0  0  0  0  0  0  0
    7.7871  -16.9851   23.2255 O   0  0  0  0  0  0  0  0  0  0  0  0
    8.6942  -13.3873   19.4356 C   0  0  0  0  0  0  0  0  0  0  0  0
    7.9526  -13.5281   20.7446 C   0  0  1  0  0  0  0  0  0  0  0  0
    6.4628  -13.3218   20.5898 C   0  0  0  0  0  0  0  0  0  0  0  0
    8.2892  -14.8069   21.4686 C   0  0  2  0  0  0  0  0  0  0  0  0
    7.7120  -14.7481   22.7774 N   0  0  0  0  0  0  0  0  0  0  0  0
    9.7311  -15.1161   21.4744 C   0  0  0  0  0  0  0  0  0  0  0  0
   10.2830  -15.3251   20.3621 O   0  0  0  0  0  0  0  0  0  0  0  0
   10.5235  -15.1918   22.6352 N   0  0  0  0  0  0  0  0  0  0  0  0
   11.9504  -15.3644   22.5280 C   0  0  0  0  0  0  0  0  0  0  0  0
   12.2851  -16.8085   22.5207 C   0  0  0  0  0  0  0  0  0  0  0  0
   11.3900  -17.6876   22.4968 O   0  0  0  0  0  0  0  0  0  0  0  0
   13.6038  -17.2213   22.5403 O   0  0  0  0  0  0  0  0  0  0  0  0
  2  1  1  0
  3  2  1  0
  4  5  1  0
  4  3  1  0
  5  6  1  1
  7  5  1  0
  8  7  2  0
 10  9  1  6
 10 11  1  0
 12 10  1  0
 12 13  1  1
 13  7  1  0
 14 16  1  0
 14 12  1  0
 15 14  2  0
 17 18  1  0
 17 16  1  0
 18 20  1  0
 19 18  2  0
M  END
$$$$
