MVG.pdb
     RDKit          3D

 20 19  0  0  1  0  0  0  0  0999 V2000
   10.1150  -13.8900   30.1000 C   0  0  0  0  0  0  0  0  0  0  0  0
   10.6720  -15.5810   30.4088 S   0  0  0  0  0  0  0  0  0  0  0  0
    9.5018  -16.7927   29.7571 C   0  0  0  0  0  0  0  0  0  0  0  0
    9.3367  -16.6485   28.2532 C   0  0  0  0  0  0  0  0  0  0  0  0
    8.1308  -17.4084   27.7607 C   0  0  2  0  0  0  0  0  0  0  0  0
    8.3741  -18.8286   27.8520 N   0  0  0  0  0  0  0  0  0  0  0  0
    7.8347  -17.0610   26.3269 C   0  0  0  0  0  0  0  0  0  0  0  0
    7.5449  -17.9459   25.4873 O   0  0  0  0  0  0  0  0  0  0  0  0
    7.4172  -13.2898   23.0883 C   0  0  0  0  0  0  0  0  0  0  0  0
    7.4927  -13.8355   24.4953 C   0  0  1  0  0  0  0  0  0  0  0  0
    6.2248  -13.5868   25.2805 C   0  0  0  0  0  0  0  0  0  0  0  0
    7.9271  -15.2785   24.5364 C   0  0  2  0  0  0  0  0  0  0  0  0
    7.8774  -15.7248   25.8958 N   0  0  0  0  0  0  0  0  0  0  0  0
    9.2283  -15.5187   23.8852 C   0  0  0  0  0  0  0  0  0  0  0  0
   10.2397  -14.9643   24.3903 O   0  0  0  0  0  0  0  0  0  0  0  0
    9.4100  -16.3219   22.7437 N   0  0  0  0  0  0  0  0  0  0  0  0
   10.7392  -16.6568   22.2981 C   0  0  0  0  0  0  0  0  0  0  0  0
   10.9963  -16.0452   20.9725 C   0  0  0  0  0  0  0  0  0  0  0  0
   10.0601  -15.7907   20.1765 O   0  0  0  0  0  0  0  0  0  0  0  0
   12.2859  -15.7392   20.5813 O   0  0  0  0  0  0  0  0  0  0  0  0
  2  1  1  0
  3  2  1  0
  4  5  1  0
  4  3  1  0
  5  6  1  6
  7  5  1  0
  8  7  2  0
 10  9  1  6
 10 11  1  0
 12 10  1  0
 12 13  1  1
 13  7  1  0
 14 16  1  0
 14 12  1  0
 15 14  2  0
 17 18  1  0
 17 16  1  0
 18 20  1  0
 19 18  2  0
M  END
$$$$
