MVG.pdb
     RDKit          3D

 20 19  0  0  1  0  0  0  0  0999 V2000
    9.3155  -14.1277   29.3501 C   0  0  0  0  0  0  0  0  0  0  0  0
   10.3729  -15.4332   30.0154 S   0  0  0  0  0  0  0  0  0  0  0  0
    9.7391  -17.0733   29.6020 C   0  0  0  0  0  0  0  0  0  0  0  0
    9.5085  -17.2161   28.1066 C   0  0  0  0  0  0  0  0  0  0  0  0
    8.0439  -17.3943   27.7944 C   0  0  2  0  0  0  0  0  0  0  0  0
    7.7241  -18.8005   27.7244 N   0  0  0  0  0  0  0  0  0  0  0  0
    7.7016  -16.7556   26.4755 C   0  0  0  0  0  0  0  0  0  0  0  0
    7.4298  -17.4478   25.4661 O   0  0  0  0  0  0  0  0  0  0  0  0
    7.0796  -12.3369   24.2147 C   0  0  0  0  0  0  0  0  0  0  0  0
    7.1558  -13.2162   25.4412 C   0  0  1  0  0  0  0  0  0  0  0  0
    5.8882  -13.1712   26.2641 C   0  0  0  0  0  0  0  0  0  0  0  0
    7.5901  -14.6238   25.1211 C   0  0  2  0  0  0  0  0  0  0  0  0
    7.6795  -15.3569   26.3475 N   0  0  0  0  0  0  0  0  0  0  0  0
    8.8174  -14.6884   24.3059 C   0  0  0  0  0  0  0  0  0  0  0  0
    9.8496  -14.1352   24.7684 O   0  0  0  0  0  0  0  0  0  0  0  0
    8.9074  -15.3241   23.0533 N   0  0  0  0  0  0  0  0  0  0  0  0
   10.1773  -15.4163   22.3777 C   0  0  0  0  0  0  0  0  0  0  0  0
   10.0283  -16.1992   21.1277 C   0  0  0  0  0  0  0  0  0  0  0  0
    9.5466  -17.3580   21.1348 O   0  0  0  0  0  0  0  0  0  0  0  0
   10.4209  -15.6639   19.9157 O   0  0  0  0  0  0  0  0  0  0  0  0
  2  1  1  0
  3  2  1  0
  4  5  1  0
  4  3  1  0
  5  6  1  6
  7  5  1  0
  8  7  2  0
 10  9  1  6
 10 11  1  0
 12 10  1  0
 12 13  1  1
 13  7  1  0
 14 16  1  0
 14 12  1  0
 15 14  2  0
 17 18  1  0
 17 16  1  0
 18 20  1  0
 19 18  2  0
M  END
$$$$
