MVG.pdb
     RDKit          3D

 20 19  0  0  1  0  0  0  0  0999 V2000
    7.1760  -10.8999   26.5192 C   0  0  0  0  0  0  0  0  0  0  0  0
    6.8662  -12.1114   27.8235 S   0  0  0  0  0  0  0  0  0  0  0  0
    6.1377  -13.6257   27.1610 C   0  0  0  0  0  0  0  0  0  0  0  0
    7.0847  -14.3178   26.1945 C   0  0  0  0  0  0  0  0  0  0  0  0
    6.4290  -15.5124   25.5487 C   0  0  2  0  0  0  0  0  0  0  0  0
    6.2399  -16.5575   26.5267 N   0  0  0  0  0  0  0  0  0  0  0  0
    7.2838  -16.0465   24.4313 C   0  0  0  0  0  0  0  0  0  0  0  0
    7.7209  -17.2215   24.4483 O   0  0  0  0  0  0  0  0  0  0  0  0
    8.9726  -15.0329   19.8527 C   0  0  0  0  0  0  0  0  0  0  0  0
    8.1793  -14.6769   21.0885 C   0  0  1  0  0  0  0  0  0  0  0  0
    6.6973  -14.5634   20.8111 C   0  0  0  0  0  0  0  0  0  0  0  0
    8.4837  -15.5817   22.2552 C   0  0  2  0  0  0  0  0  0  0  0  0
    7.6124  -15.2312   23.3357 N   0  0  0  0  0  0  0  0  0  0  0  0
    9.9099  -15.5965   22.6301 C   0  0  0  0  0  0  0  0  0  0  0  0
   10.3831  -14.5515   23.1490 O   0  0  0  0  0  0  0  0  0  0  0  0
   10.7691  -16.6961   22.4461 N   0  0  0  0  0  0  0  0  0  0  0  0
   12.1212  -16.6498   22.9433 C   0  0  0  0  0  0  0  0  0  0  0  0
   13.0471  -16.2611   21.8528 C   0  0  0  0  0  0  0  0  0  0  0  0
   12.6652  -16.2059   20.6587 O   0  0  0  0  0  0  0  0  0  0  0  0
   14.3639  -15.9482   22.1312 O   0  0  0  0  0  0  0  0  0  0  0  0
  2  1  1  0
  3  2  1  0
  4  5  1  0
  4  3  1  0
  5  6  1  1
  7  5  1  0
  8  7  2  0
 10  9  1  6
 10 11  1  0
 12 10  1  0
 12 13  1  1
 13  7  1  0
 14 16  1  0
 14 12  1  0
 15 14  2  0
 17 18  1  0
 17 16  1  0
 18 20  1  0
 19 18  2  0
M  END
$$$$
