MVG.pdb
     RDKit          3D

 20 19  0  0  1  0  0  0  0  0999 V2000
    5.5519  -11.5764   26.4342 C   0  0  0  0  0  0  0  0  0  0  0  0
    7.1151  -12.3784   26.8565 S   0  0  0  0  0  0  0  0  0  0  0  0
    6.9293  -14.1714   26.9712 C   0  0  0  0  0  0  0  0  0  0  0  0
    6.6355  -14.7848   25.6121 C   0  0  0  0  0  0  0  0  0  0  0  0
    7.9041  -15.2245   24.9255 C   0  0  2  0  0  0  0  0  0  0  0  0
    8.8795  -14.1608   24.9677 N   0  0  0  0  0  0  0  0  0  0  0  0
    7.6342  -15.5747   23.4871 C   0  0  0  0  0  0  0  0  0  0  0  0
    6.8006  -16.4578   23.1757 O   0  0  0  0  0  0  0  0  0  0  0  0
    6.4998  -13.5630   20.6593 C   0  0  0  0  0  0  0  0  0  0  0  0
    7.8740  -14.0590   20.2738 C   0  0  1  0  0  0  0  0  0  0  0  0
    8.9109  -12.9588   20.2891 C   0  0  0  0  0  0  0  0  0  0  0  0
    8.2992  -15.2682   21.0674 C   0  0  2  0  0  0  0  0  0  0  0  0
    8.3178  -14.9125   22.4540 N   0  0  0  0  0  0  0  0  0  0  0  0
    9.5626  -15.8652   20.5958 C   0  0  0  0  0  0  0  0  0  0  0  0
   10.6345  -15.3101   20.9539 O   0  0  0  0  0  0  0  0  0  0  0  0
    9.6456  -17.0072   19.7772 N   0  0  0  0  0  0  0  0  0  0  0  0
   10.9112  -17.4027   19.2122 C   0  0  0  0  0  0  0  0  0  0  0  0
   11.6884  -18.1782   20.2081 C   0  0  0  0  0  0  0  0  0  0  0  0
   11.2777  -18.3306   21.3841 O   0  0  0  0  0  0  0  0  0  0  0  0
   12.8943  -18.7557   19.8589 O   0  0  0  0  0  0  0  0  0  0  0  0
  2  1  1  0
  3  2  1  0
  4  5  1  0
  4  3  1  0
  5  6  1  6
  7  5  1  0
  8  7  2  0
 10  9  1  1
 10 11  1  0
 12 10  1  0
 12 13  1  1
 13  7  1  0
 14 16  1  0
 14 12  1  0
 15 14  2  0
 17 18  1  0
 17 16  1  0
 18 20  1  0
 19 18  2  0
M  END
$$$$
