MVG.pdb
     RDKit          3D

 20 19  0  0  1  0  0  0  0  0999 V2000
    5.7510  -11.3456   26.8476 C   0  0  0  0  0  0  0  0  0  0  0  0
    7.0171  -12.3444   27.6627 S   0  0  0  0  0  0  0  0  0  0  0  0
    6.9973  -14.0505   27.0701 C   0  0  0  0  0  0  0  0  0  0  0  0
    7.0983  -14.1106   25.5548 C   0  0  0  0  0  0  0  0  0  0  0  0
    6.8462  -15.5075   25.0456 C   0  0  2  0  0  0  0  0  0  0  0  0
    7.2554  -16.4733   26.0377 N   0  0  0  0  0  0  0  0  0  0  0  0
    7.6210  -15.7581   23.7801 C   0  0  0  0  0  0  0  0  0  0  0  0
    8.0548  -16.8995   23.4956 O   0  0  0  0  0  0  0  0  0  0  0  0
    8.6846  -13.5449   19.4214 C   0  0  0  0  0  0  0  0  0  0  0  0
    8.0168  -13.6048   20.7755 C   0  0  1  0  0  0  0  0  0  0  0  0
    6.5210  -13.4004   20.6917 C   0  0  0  0  0  0  0  0  0  0  0  0
    8.3909  -14.8404   21.5538 C   0  0  2  0  0  0  0  0  0  0  0  0
    7.8764  -14.7077   22.8832 N   0  0  0  0  0  0  0  0  0  0  0  0
    9.8323  -15.1487   21.5085 C   0  0  0  0  0  0  0  0  0  0  0  0
   10.3383  -15.3872   20.3804 O   0  0  0  0  0  0  0  0  0  0  0  0
   10.6719  -15.1929   22.6373 N   0  0  0  0  0  0  0  0  0  0  0  0
   12.0844  -15.4333   22.4803 C   0  0  0  0  0  0  0  0  0  0  0  0
   12.3432  -16.8910   22.4064 C   0  0  0  0  0  0  0  0  0  0  0  0
   12.4642  -17.5876   23.4432 O   0  0  0  0  0  0  0  0  0  0  0  0
   12.4580  -17.5201   21.1814 O   0  0  0  0  0  0  0  0  0  0  0  0
  2  1  1  0
  3  2  1  0
  4  5  1  0
  4  3  1  0
  5  6  1  1
  7  5  1  0
  8  7  2  0
 10  9  1  6
 10 11  1  0
 12 10  1  0
 12 13  1  1
 13  7  1  0
 14 16  1  0
 14 12  1  0
 15 14  2  0
 17 18  1  0
 17 16  1  0
 18 20  1  0
 19 18  2  0
M  END
$$$$
