MVG.pdb
     RDKit          3D

 20 19  0  0  1  0  0  0  0  0999 V2000
    7.0315  -11.0574   26.5833 C   0  0  0  0  0  0  0  0  0  0  0  0
    6.4683  -12.2295   27.8378 S   0  0  0  0  0  0  0  0  0  0  0  0
    5.8884  -13.7691   27.0923 C   0  0  0  0  0  0  0  0  0  0  0  0
    6.9199  -14.3425   26.1347 C   0  0  0  0  0  0  0  0  0  0  0  0
    6.4137  -15.6013   25.4763 C   0  0  2  0  0  0  0  0  0  0  0  0
    6.3248  -16.6634   26.4503 N   0  0  0  0  0  0  0  0  0  0  0  0
    7.3431  -16.0337   24.3747 C   0  0  0  0  0  0  0  0  0  0  0  0
    7.9000  -17.1568   24.3938 O   0  0  0  0  0  0  0  0  0  0  0  0
    8.9359  -14.7533   19.8160 C   0  0  0  0  0  0  0  0  0  0  0  0
    8.1471  -14.4856   21.0766 C   0  0  1  0  0  0  0  0  0  0  0  0
    6.6642  -14.3526   20.8133 C   0  0  0  0  0  0  0  0  0  0  0  0
    8.4553  -15.4707   22.1753 C   0  0  2  0  0  0  0  0  0  0  0  0
    7.6080  -15.1792   23.2917 N   0  0  0  0  0  0  0  0  0  0  0  0
    9.8871  -15.5329   22.5233 C   0  0  0  0  0  0  0  0  0  0  0  0
   10.3930  -14.5212   23.0764 O   0  0  0  0  0  0  0  0  0  0  0  0
   10.7175  -16.6427   22.2784 N   0  0  0  0  0  0  0  0  0  0  0  0
   12.0451  -16.6911   22.8375 C   0  0  0  0  0  0  0  0  0  0  0  0
   13.0407  -16.3091   21.8077 C   0  0  0  0  0  0  0  0  0  0  0  0
   14.2581  -16.1886   22.0874 O   0  0  0  0  0  0  0  0  0  0  0  0
   12.6450  -16.0753   20.5045 O   0  0  0  0  0  0  0  0  0  0  0  0
  2  1  1  0
  3  2  1  0
  4  5  1  0
  4  3  1  0
  5  6  1  1
  7  5  1  0
  8  7  2  0
 10  9  1  6
 10 11  1  0
 12 10  1  0
 12 13  1  1
 13  7  1  0
 14 16  1  0
 14 12  1  0
 15 14  2  0
 17 18  1  0
 17 16  1  0
 18 20  1  0
 19 18  2  0
M  END
$$$$
