MVG.pdb
     RDKit          3D

 20 19  0  0  1  0  0  0  0  0999 V2000
    7.4552  -11.4108   26.7377 C   0  0  0  0  0  0  0  0  0  0  0  0
    6.1678  -12.5992   27.1796 S   0  0  0  0  0  0  0  0  0  0  0  0
    6.8531  -14.2490   27.4460 C   0  0  0  0  0  0  0  0  0  0  0  0
    7.6389  -14.7234   26.2346 C   0  0  0  0  0  0  0  0  0  0  0  0
    6.8668  -15.7567   25.4532 C   0  0  2  0  0  0  0  0  0  0  0  0
    6.7315  -16.9633   26.2345 N   0  0  0  0  0  0  0  0  0  0  0  0
    7.5775  -16.0904   24.1695 C   0  0  0  0  0  0  0  0  0  0  0  0
    7.9370  -17.2628   23.9082 O   0  0  0  0  0  0  0  0  0  0  0  0
    8.5441  -14.2315   19.6500 C   0  0  0  0  0  0  0  0  0  0  0  0
    7.8915  -14.2096   21.0126 C   0  0  1  0  0  0  0  0  0  0  0  0
    6.3818  -14.2137   20.9305 C   0  0  0  0  0  0  0  0  0  0  0  0
    8.4256  -15.2799   21.9301 C   0  0  2  0  0  0  0  0  0  0  0  0
    7.8552  -15.0851   23.2286 N   0  0  0  0  0  0  0  0  0  0  0  0
    9.8980  -15.3631   21.9403 C   0  0  0  0  0  0  0  0  0  0  0  0
   10.4693  -15.6503   20.8556 O   0  0  0  0  0  0  0  0  0  0  0  0
   10.6990  -15.1437   23.0767 N   0  0  0  0  0  0  0  0  0  0  0  0
   12.1331  -15.2550   22.9843 C   0  0  0  0  0  0  0  0  0  0  0  0
   12.5425  -16.6681   23.1656 C   0  0  0  0  0  0  0  0  0  0  0  0
   13.5794  -16.9724   23.8036 O   0  0  0  0  0  0  0  0  0  0  0  0
   11.7829  -17.6909   22.6302 O   0  0  0  0  0  0  0  0  0  0  0  0
  2  1  1  0
  3  2  1  0
  4  5  1  0
  4  3  1  0
  5  6  1  1
  7  5  1  0
  8  7  2  0
 10  9  1  6
 10 11  1  0
 12 10  1  0
 12 13  1  1
 13  7  1  0
 14 16  1  0
 14 12  1  0
 15 14  2  0
 17 18  1  0
 17 16  1  0
 18 20  1  0
 19 18  2  0
M  END
$$$$
