MVG.pdb
     RDKit          3D

 20 19  0  0  1  0  0  0  0  0999 V2000
    9.5688  -12.9342   28.7100 C   0  0  0  0  0  0  0  0  0  0  0  0
   10.1783  -14.5424   29.2645 S   0  0  0  0  0  0  0  0  0  0  0  0
    9.1559  -15.8911   28.6336 C   0  0  0  0  0  0  0  0  0  0  0  0
    9.2001  -15.9550   27.1158 C   0  0  0  0  0  0  0  0  0  0  0  0
    8.1171  -16.8545   26.5752 C   0  0  2  0  0  0  0  0  0  0  0  0
    8.3245  -18.2062   27.0382 N   0  0  0  0  0  0  0  0  0  0  0  0
    8.1290  -16.8529   25.0704 C   0  0  0  0  0  0  0  0  0  0  0  0
    8.1189  -17.9226   24.4165 O   0  0  0  0  0  0  0  0  0  0  0  0
    7.5566  -13.7779   21.1709 C   0  0  0  0  0  0  0  0  0  0  0  0
    7.5408  -14.1026   22.6465 C   0  0  1  0  0  0  0  0  0  0  0  0
    6.1998  -13.8217   23.2858 C   0  0  0  0  0  0  0  0  0  0  0  0
    8.0442  -15.4928   22.9411 C   0  0  2  0  0  0  0  0  0  0  0  0
    8.1518  -15.6408   24.3610 N   0  0  0  0  0  0  0  0  0  0  0  0
    9.2835  -15.8338   22.2181 C   0  0  0  0  0  0  0  0  0  0  0  0
    9.2164  -15.9225   20.9639 O   0  0  0  0  0  0  0  0  0  0  0  0
   10.5268  -16.0647   22.8361 N   0  0  0  0  0  0  0  0  0  0  0  0
   11.6801  -16.4010   22.0397 C   0  0  0  0  0  0  0  0  0  0  0  0
   12.8725  -16.5362   22.9099 C   0  0  0  0  0  0  0  0  0  0  0  0
   12.7654  -16.6331   24.1565 O   0  0  0  0  0  0  0  0  0  0  0  0
   14.1405  -16.5586   22.3609 O   0  0  0  0  0  0  0  0  0  0  0  0
  2  1  1  0
  3  2  1  0
  4  5  1  0
  4  3  1  0
  5  6  1  1
  7  5  1  0
  8  7  2  0
 10  9  1  6
 10 11  1  0
 12 10  1  0
 12 13  1  1
 13  7  1  0
 14 16  1  0
 14 12  1  0
 15 14  2  0
 17 18  1  0
 17 16  1  0
 18 20  1  0
 19 18  2  0
M  END
$$$$
