MVG.pdb
     RDKit          3D

 20 19  0  0  1  0  0  0  0  0999 V2000
    6.2834  -11.7646   27.0296 C   0  0  0  0  0  0  0  0  0  0  0  0
    7.1914  -12.8285   28.1737 S   0  0  0  0  0  0  0  0  0  0  0  0
    7.1529  -14.5549   27.6442 C   0  0  0  0  0  0  0  0  0  0  0  0
    6.8571  -14.6708   26.1579 C   0  0  0  0  0  0  0  0  0  0  0  0
    6.7481  -16.1139   25.7337 C   0  0  2  0  0  0  0  0  0  0  0  0
    7.2631  -16.9721   26.7743 N   0  0  0  0  0  0  0  0  0  0  0  0
    7.5353  -16.3569   24.4744 C   0  0  0  0  0  0  0  0  0  0  0  0
    8.2232  -17.3944   24.3247 O   0  0  0  0  0  0  0  0  0  0  0  0
    8.6698  -14.3280   20.0378 C   0  0  0  0  0  0  0  0  0  0  0  0
    7.8308  -14.4161   21.2914 C   0  0  1  0  0  0  0  0  0  0  0  0
    6.3654  -14.6372   20.9917 C   0  0  0  0  0  0  0  0  0  0  0  0
    8.3756  -15.4085   22.2868 C   0  0  2  0  0  0  0  0  0  0  0  0
    7.5150  -15.4169   23.4309 N   0  0  0  0  0  0  0  0  0  0  0  0
    9.7952  -15.1871   22.6196 C   0  0  0  0  0  0  0  0  0  0  0  0
   10.0607  -14.2752   23.4463 O   0  0  0  0  0  0  0  0  0  0  0  0
   10.8638  -15.9245   22.0760 N   0  0  0  0  0  0  0  0  0  0  0  0
   12.2113  -15.6883   22.5297 C   0  0  0  0  0  0  0  0  0  0  0  0
   13.1590  -16.5224   21.7526 C   0  0  0  0  0  0  0  0  0  0  0  0
   12.7556  -17.3444   20.8945 O   0  0  0  0  0  0  0  0  0  0  0  0
   14.5208  -16.4111   21.9591 O   0  0  0  0  0  0  0  0  0  0  0  0
  2  1  1  0
  3  2  1  0
  4  5  1  0
  4  3  1  0
  5  6  1  1
  7  5  1  0
  8  7  2  0
 10  9  1  6
 10 11  1  0
 12 10  1  0
 12 13  1  1
 13  7  1  0
 14 16  1  0
 14 12  1  0
 15 14  2  0
 17 18  1  0
 17 16  1  0
 18 20  1  0
 19 18  2  0
M  END
$$$$
