QYF.pdb
     RDKit          3D

 33 34  0  0  1  0  0  0  0  0999 V2000
    7.4698  -13.4925   18.9040 N   0  0  0  0  0  0  0  0  0  0  0  0
    8.8340  -13.3521   19.2252 C   0  0  0  0  0  0  0  0  0  0  0  0
    9.2447  -12.2011   19.5294 O   0  0  0  0  0  0  0  0  0  0  0  0
    9.7100  -14.5454   19.1912 C   0  0  0  0  0  0  0  0  0  0  0  0
    9.5980  -15.3585   20.4633 C   0  0  0  0  0  0  0  0  0  0  0  0
   10.4135  -16.6161   20.4031 C   0  0  2  0  0  0  0  0  0  0  0  0
    9.9604  -17.4990   19.3437 N   0  0  0  0  0  0  0  0  0  0  0  0
   10.4011  -17.2875   21.7236 C   0  0  0  0  0  0  0  0  0  0  0  0
    9.6479  -18.2605   21.8938 O   0  0  0  0  0  0  0  0  0  0  0  0
   11.7598  -16.3195   30.5768 O   0  0  0  0  0  0  0  0  0  0  0  0
   11.8016  -16.2707   29.1833 C   0  0  0  0  0  0  0  0  0  0  0  0
   12.0151  -17.4435   28.4962 C   0  0  0  0  0  0  0  0  0  0  0  0
   12.0647  -17.4438   27.1052 C   0  0  0  0  0  0  0  0  0  0  0  0
   11.9045  -16.2923   26.3764 C   0  0  0  0  0  0  0  0  0  0  0  0
   11.9418  -16.2939   24.9326 C   0  0  0  0  0  0  0  0  0  0  0  0
   10.9429  -17.1342   24.1957 C   0  0  2  0  0  0  0  0  0  0  0  0
   11.2149  -16.8499   22.7737 N   0  0  0  0  0  0  0  0  0  0  0  0
    9.5572  -16.8461   24.5269 C   0  0  0  0  0  0  0  0  0  0  0  0
    8.9501  -17.7431   25.2249 O   0  0  0  0  0  0  0  0  0  0  0  0
   11.6892  -15.1167   27.1054 C   0  0  0  0  0  0  0  0  0  0  0  0
   11.6371  -15.0958   28.4830 C   0  0  0  0  0  0  0  0  0  0  0  0
    8.7899  -15.7063   24.1888 N   0  0  0  0  0  0  0  0  0  0  0  0
    7.7618  -15.1934   25.0981 C   0  0  1  0  0  0  0  0  0  0  0  0
    7.5102  -13.7542   24.6794 C   0  0  0  0  0  0  0  0  0  0  0  0
    6.6632  -12.9921   25.5960 C   0  0  0  0  0  0  0  0  0  0  0  0
    5.2712  -13.1267   25.5245 C   0  0  0  0  0  0  0  0  0  0  0  0
    4.4849  -12.4187   26.3965 C   0  0  0  0  0  0  0  0  0  0  0  0
    5.0443  -11.5862   27.3311 C   0  0  0  0  0  0  0  0  0  0  0  0
    6.4220  -11.4541   27.4006 C   0  0  0  0  0  0  0  0  0  0  0  0
    7.2344  -12.1579   26.5319 C   0  0  0  0  0  0  0  0  0  0  0  0
    6.4925  -15.9324   25.0147 C   0  0  0  0  0  0  0  0  0  0  0  0
    5.6794  -15.9791   25.9917 O   0  0  0  0  0  0  0  0  0  0  0  0
    6.0884  -16.6222   23.8887 O   0  0  0  0  0  0  0  0  0  0  0  0
  2  1  1  0
  3  2  2  0
  4  2  1  0
  5  4  1  0
  6  5  1  0
  6  7  1  6
  8  6  1  0
  8  9  2  0
 10 11  1  0
 11 12  2  0
 12 13  1  0
 14 13  2  0
 14 15  1  0
 16 15  1  1
 16 17  1  0
 17  8  1  0
 18 16  1  0
 19 18  2  0
 20 14  1  0
 21 20  2  0
 21 11  1  0
 22 18  1  0
 23 24  1  6
 23 22  1  0
 24 25  1  0
 25 26  2  0
 26 27  1  0
 28 27  2  0
 29 28  1  0
 30 25  1  0
 30 29  2  0
 31 33  1  0
 31 23  1  0
 32 31  2  0
M  END
$$$$
