QYF.pdb
     RDKit          3D

 33 34  0  0  1  0  0  0  0  0999 V2000
    9.2734  -12.3750   18.0398 N   0  0  0  0  0  0  0  0  0  0  0  0
    8.6164  -13.2490   17.1517 C   0  0  0  0  0  0  0  0  0  0  0  0
    9.1569  -13.4564   16.0332 O   0  0  0  0  0  0  0  0  0  0  0  0
    7.3403  -13.8747   17.5667 C   0  0  0  0  0  0  0  0  0  0  0  0
    7.5041  -14.6982   18.8265 C   0  0  0  0  0  0  0  0  0  0  0  0
    8.2966  -15.9486   18.5844 C   0  0  2  0  0  0  0  0  0  0  0  0
    7.6469  -16.8171   17.6196 N   0  0  0  0  0  0  0  0  0  0  0  0
    8.5473  -16.6420   19.8694 C   0  0  0  0  0  0  0  0  0  0  0  0
    7.5874  -17.1464   20.4751 O   0  0  0  0  0  0  0  0  0  0  0  0
   13.9334  -20.4816   25.9611 O   0  0  0  0  0  0  0  0  0  0  0  0
   13.3110  -19.8269   24.8981 C   0  0  0  0  0  0  0  0  0  0  0  0
   14.0518  -18.9330   24.1595 C   0  0  0  0  0  0  0  0  0  0  0  0
   13.4734  -18.2562   23.0897 C   0  0  0  0  0  0  0  0  0  0  0  0
   12.1622  -18.4515   22.7352 C   0  0  0  0  0  0  0  0  0  0  0  0
   11.5652  -17.7600   21.6165 C   0  0  0  0  0  0  0  0  0  0  0  0
   10.1299  -17.3406   21.7228 C   0  0  2  0  0  0  0  0  0  0  0  0
    9.8343  -16.7383   20.4088 N   0  0  0  0  0  0  0  0  0  0  0  0
    9.8586  -16.4003   22.7977 C   0  0  0  0  0  0  0  0  0  0  0  0
   10.4365  -15.2530   22.6971 O   0  0  0  0  0  0  0  0  0  0  0  0
   11.4365  -19.3668   23.5066 C   0  0  0  0  0  0  0  0  0  0  0  0
   11.9912  -20.0468   24.5700 C   0  0  0  0  0  0  0  0  0  0  0  0
    9.0377  -16.5778   23.9363 N   0  0  0  0  0  0  0  0  0  0  0  0
    8.8871  -15.5117   24.9302 C   0  0  1  0  0  0  0  0  0  0  0  0
    7.7008  -14.6775   24.4754 C   0  0  0  0  0  0  0  0  0  0  0  0
    7.3048  -13.6225   25.4073 C   0  0  0  0  0  0  0  0  0  0  0  0
    6.2943  -13.8713   26.3443 C   0  0  0  0  0  0  0  0  0  0  0  0
    5.9383  -12.8810   27.2232 C   0  0  0  0  0  0  0  0  0  0  0  0
    6.5576  -11.6583   27.1939 C   0  0  0  0  0  0  0  0  0  0  0  0
    7.5574  -11.4136   26.2660 C   0  0  0  0  0  0  0  0  0  0  0  0
    7.9328  -12.3969   25.3703 C   0  0  0  0  0  0  0  0  0  0  0  0
    8.6114  -16.0158   26.2844 C   0  0  0  0  0  0  0  0  0  0  0  0
    7.8882  -17.0434   26.4820 O   0  0  0  0  0  0  0  0  0  0  0  0
    9.1070  -15.4249   27.4299 O   0  0  0  0  0  0  0  0  0  0  0  0
  2  1  1  0
  3  2  2  0
  4  2  1  0
  5  4  1  0
  6  5  1  0
  6  7  1  6
  8  6  1  0
  8  9  2  0
 10 11  1  0
 11 12  2  0
 12 13  1  0
 14 13  2  0
 14 15  1  0
 16 15  1  6
 16 17  1  0
 17  8  1  0
 18 16  1  0
 19 18  2  0
 20 14  1  0
 21 20  2  0
 21 11  1  0
 22 18  1  0
 23 24  1  6
 23 22  1  0
 24 25  1  0
 25 26  2  0
 26 27  1  0
 28 27  2  0
 29 28  1  0
 30 25  1  0
 30 29  2  0
 31 33  1  0
 31 23  1  0
 32 31  2  0
M  END
$$$$
