QYF.pdb
     RDKit          3D

 33 34  0  0  1  0  0  0  0  0999 V2000
    4.8078  -21.3160   24.2676 N   0  0  0  0  0  0  0  0  0  0  0  0
    6.0599  -21.3746   23.6250 C   0  0  0  0  0  0  0  0  0  0  0  0
    6.9405  -22.1179   24.1330 O   0  0  0  0  0  0  0  0  0  0  0  0
    6.2808  -20.5722   22.4003 C   0  0  0  0  0  0  0  0  0  0  0  0
    7.4443  -19.6167   22.5594 C   0  0  0  0  0  0  0  0  0  0  0  0
    7.6559  -18.7762   21.3351 C   0  0  2  0  0  0  0  0  0  0  0  0
    8.0984  -19.5744   20.2063 N   0  0  0  0  0  0  0  0  0  0  0  0
    8.6013  -17.6763   21.6371 C   0  0  0  0  0  0  0  0  0  0  0  0
    9.8004  -17.8205   21.3468 O   0  0  0  0  0  0  0  0  0  0  0  0
    7.1424  -13.4205   16.8159 O   0  0  0  0  0  0  0  0  0  0  0  0
    7.4842  -13.5802   18.1589 C   0  0  0  0  0  0  0  0  0  0  0  0
    6.5674  -14.1689   18.9993 C   0  0  0  0  0  0  0  0  0  0  0  0
    6.8641  -14.3492   20.3471 C   0  0  0  0  0  0  0  0  0  0  0  0
    8.0643  -13.9535   20.8818 C   0  0  0  0  0  0  0  0  0  0  0  0
    8.3786  -14.1529   22.2773 C   0  0  0  0  0  0  0  0  0  0  0  0
    9.0847  -15.4141   22.6747 C   0  0  2  0  0  0  0  0  0  0  0  0
    8.1724  -16.4883   22.2381 N   0  0  0  0  0  0  0  0  0  0  0  0
    9.3679  -15.5195   24.0966 C   0  0  0  0  0  0  0  0  0  0  0  0
   10.3309  -14.7820   24.5318 O   0  0  0  0  0  0  0  0  0  0  0  0
    8.9746  -13.3581   20.0005 C   0  0  0  0  0  0  0  0  0  0  0  0
    8.6992  -13.1705   18.6626 C   0  0  0  0  0  0  0  0  0  0  0  0
    8.7201  -16.3207   25.0663 N   0  0  0  0  0  0  0  0  0  0  0  0
    9.1110  -16.2597   26.4771 C   0  0  1  0  0  0  0  0  0  0  0  0
    7.8806  -15.7877   27.2343 C   0  0  0  0  0  0  0  0  0  0  0  0
    7.4396  -14.4348   26.8974 C   0  0  0  0  0  0  0  0  0  0  0  0
    6.2436  -14.2531   26.1922 C   0  0  0  0  0  0  0  0  0  0  0  0
    5.8306  -12.9805   25.8920 C   0  0  0  0  0  0  0  0  0  0  0  0
    6.5720  -11.8921   26.2729 C   0  0  0  0  0  0  0  0  0  0  0  0
    7.7555  -12.0736   26.9707 C   0  0  0  0  0  0  0  0  0  0  0  0
    8.1914  -13.3471   27.2843 C   0  0  0  0  0  0  0  0  0  0  0  0
    9.5228  -17.5627   27.0218 C   0  0  0  0  0  0  0  0  0  0  0  0
    9.4692  -18.6263   26.3263 O   0  0  0  0  0  0  0  0  0  0  0  0
    9.9929  -17.7331   28.3090 O   0  0  0  0  0  0  0  0  0  0  0  0
  2  1  1  0
  3  2  2  0
  4  2  1  0
  5  4  1  0
  6  5  1  0
  6  7  1  6
  8  6  1  0
  8  9  2  0
 10 11  1  0
 11 12  2  0
 12 13  1  0
 14 13  2  0
 14 15  1  0
 16 15  1  1
 16 17  1  0
 17  8  1  0
 18 16  1  0
 19 18  2  0
 20 14  1  0
 21 20  2  0
 21 11  1  0
 22 18  1  0
 23 24  1  1
 23 22  1  0
 24 25  1  0
 25 26  2  0
 26 27  1  0
 28 27  2  0
 29 28  1  0
 30 25  1  0
 30 29  2  0
 31 33  1  0
 31 23  1  0
 32 31  2  0
M  END
$$$$
