QYF.pdb
     RDKit          3D

 33 34  0  0  1  0  0  0  0  0999 V2000
    5.5572  -20.3583   24.5068 N   0  0  0  0  0  0  0  0  0  0  0  0
    5.6463  -21.1467   23.3429 C   0  0  0  0  0  0  0  0  0  0  0  0
    4.8174  -22.0857   23.2115 O   0  0  0  0  0  0  0  0  0  0  0  0
    6.6939  -20.8407   22.3424 C   0  0  0  0  0  0  0  0  0  0  0  0
    7.4204  -19.5531   22.6683 C   0  0  0  0  0  0  0  0  0  0  0  0
    7.6701  -18.7208   21.4457 C   0  0  2  0  0  0  0  0  0  0  0  0
    8.1316  -19.5289   20.3316 N   0  0  0  0  0  0  0  0  0  0  0  0
    8.6192  -17.6291   21.7654 C   0  0  0  0  0  0  0  0  0  0  0  0
    9.8224  -17.7841   21.4988 O   0  0  0  0  0  0  0  0  0  0  0  0
    7.3982  -13.2389   16.9176 O   0  0  0  0  0  0  0  0  0  0  0  0
    7.6828  -13.4311   18.2697 C   0  0  0  0  0  0  0  0  0  0  0  0
    6.7280  -14.0316   19.0577 C   0  0  0  0  0  0  0  0  0  0  0  0
    6.9672  -14.2442   20.4123 C   0  0  0  0  0  0  0  0  0  0  0  0
    8.1466  -13.8693   21.0051 C   0  0  0  0  0  0  0  0  0  0  0  0
    8.4012  -14.1021   22.4076 C   0  0  0  0  0  0  0  0  0  0  0  0
    9.1017  -15.3669   22.8035 C   0  0  2  0  0  0  0  0  0  0  0  0
    8.1891  -16.4368   22.3571 N   0  0  0  0  0  0  0  0  0  0  0  0
    9.3767  -15.4792   24.2264 C   0  0  0  0  0  0  0  0  0  0  0  0
   10.3378  -14.7446   24.6706 O   0  0  0  0  0  0  0  0  0  0  0  0
    9.0965  -13.2610   20.1761 C   0  0  0  0  0  0  0  0  0  0  0  0
    8.8783  -13.0415   18.8325 C   0  0  0  0  0  0  0  0  0  0  0  0
    8.7226  -16.2843   25.1886 N   0  0  0  0  0  0  0  0  0  0  0  0
    9.1416  -16.2709   26.5926 C   0  0  1  0  0  0  0  0  0  0  0  0
    7.9381  -15.7892   27.3859 C   0  0  0  0  0  0  0  0  0  0  0  0
    7.5271  -14.4161   27.0962 C   0  0  0  0  0  0  0  0  0  0  0  0
    6.3192  -14.1825   26.4274 C   0  0  0  0  0  0  0  0  0  0  0  0
    5.9350  -12.8914   26.1715 C   0  0  0  0  0  0  0  0  0  0  0  0
    6.7163  -11.8345   26.5613 C   0  0  0  0  0  0  0  0  0  0  0  0
    7.9114  -12.0673   27.2231 C   0  0  0  0  0  0  0  0  0  0  0  0
    8.3189  -13.3603   27.4918 C   0  0  0  0  0  0  0  0  0  0  0  0
    9.5308  -17.5977   27.0947 C   0  0  0  0  0  0  0  0  0  0  0  0
    9.8876  -17.7786   28.3022 O   0  0  0  0  0  0  0  0  0  0  0  0
    9.5396  -18.7338   26.3097 O   0  0  0  0  0  0  0  0  0  0  0  0
  2  1  1  0
  3  2  2  0
  4  2  1  0
  5  4  1  0
  6  5  1  0
  6  7  1  6
  8  6  1  0
  8  9  2  0
 10 11  1  0
 11 12  2  0
 12 13  1  0
 14 13  2  0
 14 15  1  0
 16 15  1  1
 16 17  1  0
 17  8  1  0
 18 16  1  0
 19 18  2  0
 20 14  1  0
 21 20  2  0
 21 11  1  0
 22 18  1  0
 23 24  1  1
 23 22  1  0
 24 25  1  0
 25 26  2  0
 26 27  1  0
 28 27  2  0
 29 28  1  0
 30 25  1  0
 30 29  2  0
 31 33  1  0
 31 23  1  0
 32 31  2  0
M  END
$$$$
