QYF.pdb
     RDKit          3D

 33 34  0  0  1  0  0  0  0  0999 V2000
    9.9667  -22.1819   22.5026 N   0  0  0  0  0  0  0  0  0  0  0  0
    9.4439  -22.2940   21.1993 C   0  0  0  0  0  0  0  0  0  0  0  0
    9.2808  -23.4535   20.7356 O   0  0  0  0  0  0  0  0  0  0  0  0
    9.1150  -21.0629   20.4453 C   0  0  0  0  0  0  0  0  0  0  0  0
    9.4762  -19.8160   21.2242 C   0  0  0  0  0  0  0  0  0  0  0  0
    8.9583  -18.5705   20.5679 C   0  0  2  0  0  0  0  0  0  0  0  0
    9.1085  -18.6223   19.1250 N   0  0  0  0  0  0  0  0  0  0  0  0
    9.6236  -17.3814   21.1493 C   0  0  0  0  0  0  0  0  0  0  0  0
   10.8305  -17.1983   20.9199 O   0  0  0  0  0  0  0  0  0  0  0  0
    7.8341  -13.0219   16.7364 O   0  0  0  0  0  0  0  0  0  0  0  0
    8.0628  -13.3302   18.0775 C   0  0  0  0  0  0  0  0  0  0  0  0
    7.3887  -12.6092   19.0362 C   0  0  0  0  0  0  0  0  0  0  0  0
    7.5847  -12.8811   20.3870 C   0  0  0  0  0  0  0  0  0  0  0  0
    8.4444  -13.8641   20.8087 C   0  0  0  0  0  0  0  0  0  0  0  0
    8.6379  -14.1564   22.2098 C   0  0  0  0  0  0  0  0  0  0  0  0
    9.5443  -15.2909   22.5817 C   0  0  2  0  0  0  0  0  0  0  0  0
    8.9238  -16.4686   21.9454 N   0  0  0  0  0  0  0  0  0  0  0  0
    9.6944  -15.4932   24.0133 C   0  0  0  0  0  0  0  0  0  0  0  0
   10.6699  -14.8606   24.5689 O   0  0  0  0  0  0  0  0  0  0  0  0
    9.1146  -14.5787   19.8087 C   0  0  0  0  0  0  0  0  0  0  0  0
    8.9341  -14.3242   18.4657 C   0  0  0  0  0  0  0  0  0  0  0  0
    8.9054  -16.2884   24.8776 N   0  0  0  0  0  0  0  0  0  0  0  0
    9.1979  -16.3606   26.3116 C   0  0  1  0  0  0  0  0  0  0  0  0
    7.9012  -16.0110   27.0232 C   0  0  0  0  0  0  0  0  0  0  0  0
    7.4506  -14.6338   26.8269 C   0  0  0  0  0  0  0  0  0  0  0  0
    8.1885  -13.5796   27.3791 C   0  0  0  0  0  0  0  0  0  0  0  0
    7.7664  -12.2906   27.1790 C   0  0  0  0  0  0  0  0  0  0  0  0
    6.6368  -12.0256   26.4487 C   0  0  0  0  0  0  0  0  0  0  0  0
    5.9076  -13.0699   25.9028 C   0  0  0  0  0  0  0  0  0  0  0  0
    6.3142  -14.3773   26.0914 C   0  0  0  0  0  0  0  0  0  0  0  0
    9.6248  -17.6984   26.7499 C   0  0  0  0  0  0  0  0  0  0  0  0
   10.0114  -17.9210   27.9412 O   0  0  0  0  0  0  0  0  0  0  0  0
    9.6394  -18.8009   25.9186 O   0  0  0  0  0  0  0  0  0  0  0  0
  2  1  1  0
  3  2  2  0
  4  2  1  0
  5  4  1  0
  6  5  1  0
  6  7  1  6
  8  6  1  0
  8  9  2  0
 10 11  1  0
 11 12  2  0
 12 13  1  0
 14 13  2  0
 14 15  1  0
 16 15  1  1
 16 17  1  0
 17  8  1  0
 18 16  1  0
 19 18  2  0
 20 14  1  0
 21 20  2  0
 21 11  1  0
 22 18  1  0
 23 24  1  1
 23 22  1  0
 24 25  1  0
 25 26  2  0
 26 27  1  0
 28 27  2  0
 29 28  1  0
 30 25  1  0
 30 29  2  0
 31 33  1  0
 31 23  1  0
 32 31  2  0
M  END
$$$$
