QYF.pdb
     RDKit          3D

 33 34  0  0  1  0  0  0  0  0999 V2000
   11.8050  -16.4502   16.9194 N   0  0  0  0  0  0  0  0  0  0  0  0
   11.3393  -17.7469   17.2127 C   0  0  0  0  0  0  0  0  0  0  0  0
   11.0519  -18.4954   16.2415 O   0  0  0  0  0  0  0  0  0  0  0  0
   11.2108  -18.1648   18.6273 C   0  0  0  0  0  0  0  0  0  0  0  0
    9.7658  -18.4007   19.0123 C   0  0  0  0  0  0  0  0  0  0  0  0
    9.6214  -18.7838   20.4554 C   0  0  2  0  0  0  0  0  0  0  0  0
    8.2730  -19.2263   20.7606 N   0  0  0  0  0  0  0  0  0  0  0  0
   10.0407  -17.6561   21.3198 C   0  0  0  0  0  0  0  0  0  0  0  0
   11.2279  -17.2918   21.2952 O   0  0  0  0  0  0  0  0  0  0  0  0
    7.5535  -12.8503   17.5523 O   0  0  0  0  0  0  0  0  0  0  0  0
    7.7157  -13.3712   18.8362 C   0  0  0  0  0  0  0  0  0  0  0  0
    8.8789  -13.0854   19.5134 C   0  0  0  0  0  0  0  0  0  0  0  0
    9.0850  -13.5832   20.7967 C   0  0  0  0  0  0  0  0  0  0  0  0
    8.1505  -14.3658   21.4269 C   0  0  0  0  0  0  0  0  0  0  0  0
    8.3575  -14.8712   22.7639 C   0  0  0  0  0  0  0  0  0  0  0  0
    9.4813  -15.8362   22.9940 C   0  0  2  0  0  0  0  0  0  0  0  0
    9.1320  -16.9993   22.1562 N   0  0  0  0  0  0  0  0  0  0  0  0
    9.6577  -16.2304   24.3820 C   0  0  0  0  0  0  0  0  0  0  0  0
    8.7608  -17.0245   24.8568 O   0  0  0  0  0  0  0  0  0  0  0  0
    6.9788  -14.6380   20.7108 C   0  0  0  0  0  0  0  0  0  0  0  0
    6.7560  -14.1546   19.4390 C   0  0  0  0  0  0  0  0  0  0  0  0
   10.6891  -15.8616   25.2776 N   0  0  0  0  0  0  0  0  0  0  0  0
   10.6588  -16.2892   26.6788 C   0  0  1  0  0  0  0  0  0  0  0  0
    9.2488  -16.0108   27.1729 C   0  0  0  0  0  0  0  0  0  0  0  0
    8.9126  -14.5923   27.2887 C   0  0  0  0  0  0  0  0  0  0  0  0
    9.8110  -13.7177   27.9121 C   0  0  0  0  0  0  0  0  0  0  0  0
    9.4940  -12.3869   28.0047 C   0  0  0  0  0  0  0  0  0  0  0  0
    8.3144  -11.9077   27.4963 C   0  0  0  0  0  0  0  0  0  0  0  0
    7.4264  -12.7746   26.8796 C   0  0  0  0  0  0  0  0  0  0  0  0
    7.7248  -14.1200   26.7748 C   0  0  0  0  0  0  0  0  0  0  0  0
   10.9403  -17.7224   26.8542 C   0  0  0  0  0  0  0  0  0  0  0  0
   11.0077  -18.2552   28.0073 O   0  0  0  0  0  0  0  0  0  0  0  0
   11.1498  -18.5895   25.8001 O   0  0  0  0  0  0  0  0  0  0  0  0
  2  1  1  0
  3  2  2  0
  4  2  1  0
  5  4  1  0
  6  5  1  0
  6  7  1  6
  8  6  1  0
  8  9  2  0
 10 11  1  0
 11 12  2  0
 12 13  1  0
 14 13  2  0
 14 15  1  0
 16 15  1  1
 16 17  1  0
 17  8  1  0
 18 16  1  0
 19 18  2  0
 20 14  1  0
 21 20  2  0
 21 11  1  0
 22 18  1  0
 23 24  1  6
 23 22  1  0
 24 25  1  0
 25 26  2  0
 26 27  1  0
 28 27  2  0
 29 28  1  0
 30 25  1  0
 30 29  2  0
 31 33  1  0
 31 23  1  0
 32 31  2  0
M  END
$$$$
