QYF.pdb
     RDKit          3D

 33 34  0  0  1  0  0  0  0  0999 V2000
    1.9205  -18.3291   22.3683 N   0  0  0  0  0  0  0  0  0  0  0  0
    1.9092  -19.5895   22.9971 C   0  0  0  0  0  0  0  0  0  0  0  0
    0.8097  -20.2010   23.0548 O   0  0  0  0  0  0  0  0  0  0  0  0
    3.1705  -20.1301   23.5530 C   0  0  0  0  0  0  0  0  0  0  0  0
    4.3036  -19.1321   23.4437 C   0  0  0  0  0  0  0  0  0  0  0  0
    4.9258  -19.1315   22.0787 C   0  0  2  0  0  0  0  0  0  0  0  0
    5.2243  -20.4776   21.6247 N   0  0  0  0  0  0  0  0  0  0  0  0
    6.1299  -18.2685   22.0750 C   0  0  0  0  0  0  0  0  0  0  0  0
    7.2503  -18.8036   22.0413 O   0  0  0  0  0  0  0  0  0  0  0  0
    9.9656  -12.2453   17.5649 O   0  0  0  0  0  0  0  0  0  0  0  0
    9.1642  -12.8955   18.5036 C   0  0  0  0  0  0  0  0  0  0  0  0
    8.6892  -12.1679   19.5705 C   0  0  0  0  0  0  0  0  0  0  0  0
    7.8861  -12.7739   20.5322 C   0  0  0  0  0  0  0  0  0  0  0  0
    7.5416  -14.0999   20.4545 C   0  0  0  0  0  0  0  0  0  0  0  0
    6.6967  -14.7261   21.4445 C   0  0  0  0  0  0  0  0  0  0  0  0
    7.1937  -15.9676   22.1218 C   0  0  2  0  0  0  0  0  0  0  0  0
    6.0294  -16.8737   22.1084 N   0  0  0  0  0  0  0  0  0  0  0  0
    7.6736  -15.7590   23.4780 C   0  0  0  0  0  0  0  0  0  0  0  0
    7.3348  -14.6432   24.0263 O   0  0  0  0  0  0  0  0  0  0  0  0
    8.0411  -14.8116   19.3574 C   0  0  0  0  0  0  0  0  0  0  0  0
    8.8382  -14.2295   18.3947 C   0  0  0  0  0  0  0  0  0  0  0  0
    8.4582  -16.6238   24.2770 N   0  0  0  0  0  0  0  0  0  0  0  0
    8.9270  -16.2074   25.6013 C   0  0  1  0  0  0  0  0  0  0  0  0
    7.6860  -16.0997   26.4720 C   0  0  0  0  0  0  0  0  0  0  0  0
    7.1175  -14.7552   26.5590 C   0  0  0  0  0  0  0  0  0  0  0  0
    7.9664  -13.6559   26.7366 C   0  0  0  0  0  0  0  0  0  0  0  0
    7.4262  -12.3974   26.8036 C   0  0  0  0  0  0  0  0  0  0  0  0
    6.0727  -12.2063   26.6993 C   0  0  0  0  0  0  0  0  0  0  0  0
    5.2339  -13.2953   26.5235 C   0  0  0  0  0  0  0  0  0  0  0  0
    5.7560  -14.5730   26.4530 C   0  0  0  0  0  0  0  0  0  0  0  0
    9.8490  -17.1724   26.2202 C   0  0  0  0  0  0  0  0  0  0  0  0
   10.3287  -16.9885   27.3838 O   0  0  0  0  0  0  0  0  0  0  0  0
   10.2601  -18.3352   25.5991 O   0  0  0  0  0  0  0  0  0  0  0  0
  2  1  1  0
  3  2  2  0
  4  2  1  0
  5  4  1  0
  6  5  1  0
  6  7  1  1
  8  6  1  0
  8  9  2  0
 10 11  1  0
 11 12  2  0
 12 13  1  0
 14 13  2  0
 14 15  1  0
 16 15  1  1
 16 17  1  0
 17  8  1  0
 18 16  1  0
 19 18  2  0
 20 14  1  0
 21 20  2  0
 21 11  1  0
 22 18  1  0
 23 24  1  1
 23 22  1  0
 24 25  1  0
 25 26  2  0
 26 27  1  0
 28 27  2  0
 29 28  1  0
 30 25  1  0
 30 29  2  0
 31 33  1  0
 31 23  1  0
 32 31  2  0
M  END
$$$$
