QYF.pdb
     RDKit          3D

 33 34  0  0  1  0  0  0  0  0999 V2000
    7.7448  -12.4679   19.3012 N   0  0  0  0  0  0  0  0  0  0  0  0
    8.1723  -12.8897   18.0270 C   0  0  0  0  0  0  0  0  0  0  0  0
    8.1213  -12.0510   17.0890 O   0  0  0  0  0  0  0  0  0  0  0  0
    8.6547  -14.2784   17.8508 C   0  0  0  0  0  0  0  0  0  0  0  0
    8.6436  -15.0449   19.1563 C   0  0  0  0  0  0  0  0  0  0  0  0
    9.2327  -16.4167   19.0106 C   0  0  2  0  0  0  0  0  0  0  0  0
    8.5706  -17.1767   17.9660 N   0  0  0  0  0  0  0  0  0  0  0  0
    9.1953  -17.1213   20.3133 C   0  0  0  0  0  0  0  0  0  0  0  0
    8.2166  -17.8387   20.5784 O   0  0  0  0  0  0  0  0  0  0  0  0
   13.0613  -21.8991   26.6511 O   0  0  0  0  0  0  0  0  0  0  0  0
   12.7610  -20.9639   25.6607 C   0  0  0  0  0  0  0  0  0  0  0  0
   11.7716  -21.2691   24.7545 C   0  0  0  0  0  0  0  0  0  0  0  0
   11.4373  -20.3670   23.7487 C   0  0  0  0  0  0  0  0  0  0  0  0
   12.0715  -19.1565   23.6240 C   0  0  0  0  0  0  0  0  0  0  0  0
   11.7158  -18.2139   22.5893 C   0  0  0  0  0  0  0  0  0  0  0  0
   10.2939  -17.7454   22.5113 C   0  0  2  0  0  0  0  0  0  0  0  0
   10.2330  -16.9947   21.2426 N   0  0  0  0  0  0  0  0  0  0  0  0
    9.8752  -16.9136   23.6274 C   0  0  0  0  0  0  0  0  0  0  0  0
   10.5013  -15.7948   23.7577 O   0  0  0  0  0  0  0  0  0  0  0  0
   13.0731  -18.8768   24.5612 C   0  0  0  0  0  0  0  0  0  0  0  0
   13.4187  -19.7573   25.5644 C   0  0  0  0  0  0  0  0  0  0  0  0
    8.8656  -17.1686   24.5853 N   0  0  0  0  0  0  0  0  0  0  0  0
    8.8549  -16.4695   25.8730 C   0  0  1  0  0  0  0  0  0  0  0  0
    7.4602  -15.8842   26.0221 C   0  0  0  0  0  0  0  0  0  0  0  0
    7.3201  -14.5120   25.5364 C   0  0  0  0  0  0  0  0  0  0  0  0
    7.0236  -13.4854   26.4413 C   0  0  0  0  0  0  0  0  0  0  0  0
    6.9072  -12.1996   25.9796 C   0  0  0  0  0  0  0  0  0  0  0  0
    7.0771  -11.9114   24.6501 C   0  0  0  0  0  0  0  0  0  0  0  0
    7.3706  -12.9285   23.7559 C   0  0  0  0  0  0  0  0  0  0  0  0
    7.4927  -14.2321   24.1985 C   0  0  0  0  0  0  0  0  0  0  0  0
    9.1131  -17.3573   27.0173 C   0  0  0  0  0  0  0  0  0  0  0  0
    9.2577  -16.9042   28.1970 O   0  0  0  0  0  0  0  0  0  0  0  0
    9.2170  -18.7297   26.9049 O   0  0  0  0  0  0  0  0  0  0  0  0
  2  1  1  0
  3  2  2  0
  4  2  1  0
  5  4  1  0
  6  5  1  0
  6  7  1  6
  8  6  1  0
  8  9  2  0
 10 11  1  0
 11 12  2  0
 12 13  1  0
 14 13  2  0
 14 15  1  0
 16 15  1  1
 16 17  1  0
 17  8  1  0
 18 16  1  0
 19 18  2  0
 20 14  1  0
 21 20  2  0
 21 11  1  0
 22 18  1  0
 23 24  1  1
 23 22  1  0
 24 25  1  0
 25 26  2  0
 26 27  1  0
 28 27  2  0
 29 28  1  0
 30 25  1  0
 30 29  2  0
 31 33  1  0
 31 23  1  0
 32 31  2  0
M  END
$$$$
