QYF.pdb
     RDKit          3D

 33 34  0  0  1  0  0  0  0  0999 V2000
    9.8384  -13.0022   19.2010 N   0  0  0  0  0  0  0  0  0  0  0  0
    8.6315  -12.4298   18.7539 C   0  0  0  0  0  0  0  0  0  0  0  0
    8.6903  -11.6367   17.7774 O   0  0  0  0  0  0  0  0  0  0  0  0
    7.3679  -12.7809   19.4413 C   0  0  0  0  0  0  0  0  0  0  0  0
    7.6048  -13.7271   20.5992 C   0  0  0  0  0  0  0  0  0  0  0  0
    7.9891  -15.1011   20.1359 C   0  0  2  0  0  0  0  0  0  0  0  0
    7.0394  -15.6276   19.1727 N   0  0  0  0  0  0  0  0  0  0  0  0
    8.1466  -15.9998   21.3031 C   0  0  0  0  0  0  0  0  0  0  0  0
    7.1616  -16.6439   21.7002 O   0  0  0  0  0  0  0  0  0  0  0  0
   10.2666  -21.5549   18.3262 O   0  0  0  0  0  0  0  0  0  0  0  0
   10.4235  -20.6156   19.3455 C   0  0  0  0  0  0  0  0  0  0  0  0
    9.9443  -20.9261   20.5974 C   0  0  0  0  0  0  0  0  0  0  0  0
   10.0781  -20.0201   21.6455 C   0  0  0  0  0  0  0  0  0  0  0  0
   10.6843  -18.8011   21.4738 C   0  0  0  0  0  0  0  0  0  0  0  0
   10.8361  -17.8662   22.5641 C   0  0  0  0  0  0  0  0  0  0  0  0
    9.6254  -17.1170   23.0331 C   0  0  2  0  0  0  0  0  0  0  0  0
    9.3736  -16.1355   21.9607 N   0  0  0  0  0  0  0  0  0  0  0  0
    9.7912  -16.4534   24.3158 C   0  0  0  0  0  0  0  0  0  0  0  0
   10.8090  -15.6692   24.4130 O   0  0  0  0  0  0  0  0  0  0  0  0
   11.1605  -18.5160   20.1886 C   0  0  0  0  0  0  0  0  0  0  0  0
   11.0372  -19.3999   19.1376 C   0  0  0  0  0  0  0  0  0  0  0  0
    8.9772  -16.5507   25.4690 N   0  0  0  0  0  0  0  0  0  0  0  0
    9.3842  -15.9311   26.7329 C   0  0  1  0  0  0  0  0  0  0  0  0
    8.1166  -15.3639   27.3504 C   0  0  0  0  0  0  0  0  0  0  0  0
    7.6785  -14.0903   26.7809 C   0  0  0  0  0  0  0  0  0  0  0  0
    8.6043  -13.0534   26.6124 C   0  0  0  0  0  0  0  0  0  0  0  0
    8.1880  -11.8671   26.0653 C   0  0  0  0  0  0  0  0  0  0  0  0
    6.8834  -11.6876   25.6842 C   0  0  0  0  0  0  0  0  0  0  0  0
    5.9683  -12.7148   25.8515 C   0  0  0  0  0  0  0  0  0  0  0  0
    6.3653  -13.9192   26.4009 C   0  0  0  0  0  0  0  0  0  0  0  0
    9.9790  -16.8852   27.6816 C   0  0  0  0  0  0  0  0  0  0  0  0
    9.9695  -18.1386   27.4653 O   0  0  0  0  0  0  0  0  0  0  0  0
   10.5854  -16.5037   28.8622 O   0  0  0  0  0  0  0  0  0  0  0  0
  2  1  1  0
  3  2  2  0
  4  2  1  0
  5  4  1  0
  6  5  1  0
  6  7  1  6
  8  6  1  0
  8  9  2  0
 10 11  1  0
 11 12  2  0
 12 13  1  0
 14 13  2  0
 14 15  1  0
 16 15  1  6
 16 17  1  0
 17  8  1  0
 18 16  1  0
 19 18  2  0
 20 14  1  0
 21 20  2  0
 21 11  1  0
 22 18  1  0
 23 24  1  1
 23 22  1  0
 24 25  1  0
 25 26  2  0
 26 27  1  0
 28 27  2  0
 29 28  1  0
 30 25  1  0
 30 29  2  0
 31 33  1  0
 31 23  1  0
 32 31  2  0
M  END
$$$$
