QYF.pdb
     RDKit          3D

 33 34  0  0  1  0  0  0  0  0999 V2000
    9.0493  -12.6200   19.7629 N   0  0  0  0  0  0  0  0  0  0  0  0
    8.4036  -13.1983   18.6525 C   0  0  0  0  0  0  0  0  0  0  0  0
    8.3022  -12.4996   17.6096 O   0  0  0  0  0  0  0  0  0  0  0  0
    7.8816  -14.5797   18.7599 C   0  0  0  0  0  0  0  0  0  0  0  0
    8.1344  -15.1687   20.1314 C   0  0  0  0  0  0  0  0  0  0  0  0
    9.4455  -15.8942   20.2013 C   0  0  2  0  0  0  0  0  0  0  0  0
    9.5536  -16.9075   19.1676 N   0  0  0  0  0  0  0  0  0  0  0  0
    9.6328  -16.4654   21.5553 C   0  0  0  0  0  0  0  0  0  0  0  0
    9.1839  -17.5986   21.7947 O   0  0  0  0  0  0  0  0  0  0  0  0
   11.5360  -15.3377   30.2913 O   0  0  0  0  0  0  0  0  0  0  0  0
   11.4139  -15.2460   28.9048 C   0  0  0  0  0  0  0  0  0  0  0  0
   11.9817  -16.2341   28.1337 C   0  0  0  0  0  0  0  0  0  0  0  0
   11.8856  -16.1849   26.7461 C   0  0  0  0  0  0  0  0  0  0  0  0
   11.2305  -15.1650   26.1030 C   0  0  0  0  0  0  0  0  0  0  0  0
   11.1182  -15.1205   24.6638 C   0  0  0  0  0  0  0  0  0  0  0  0
   10.0892  -15.9875   24.0030 C   0  0  2  0  0  0  0  0  0  0  0  0
   10.3003  -15.7584   22.5608 N   0  0  0  0  0  0  0  0  0  0  0  0
    8.7187  -15.6852   24.3815 C   0  0  0  0  0  0  0  0  0  0  0  0
    8.4916  -14.4675   24.7368 O   0  0  0  0  0  0  0  0  0  0  0  0
   10.6644  -14.1759   26.9160 C   0  0  0  0  0  0  0  0  0  0  0  0
   10.7490  -14.2068   28.2918 C   0  0  0  0  0  0  0  0  0  0  0  0
    7.6002  -16.5514   24.4043 N   0  0  0  0  0  0  0  0  0  0  0  0
    7.1785  -17.2049   25.6461 C   0  0  1  0  0  0  0  0  0  0  0  0
    6.4851  -16.1330   26.4708 C   0  0  0  0  0  0  0  0  0  0  0  0
    6.4422  -14.8133   25.8424 C   0  0  0  0  0  0  0  0  0  0  0  0
    5.7334  -13.7759   26.4606 C   0  0  0  0  0  0  0  0  0  0  0  0
    5.7094  -12.5381   25.8714 C   0  0  0  0  0  0  0  0  0  0  0  0
    6.3680  -12.3078   24.6913 C   0  0  0  0  0  0  0  0  0  0  0  0
    7.0690  -13.3355   24.0807 C   0  0  0  0  0  0  0  0  0  0  0  0
    7.1071  -14.5913   24.6563 C   0  0  0  0  0  0  0  0  0  0  0  0
    6.2327  -18.3103   25.4277 C   0  0  0  0  0  0  0  0  0  0  0  0
    5.7592  -18.9873   26.3949 O   0  0  0  0  0  0  0  0  0  0  0  0
    5.7900  -18.6948   24.1775 O   0  0  0  0  0  0  0  0  0  0  0  0
  2  1  1  0
  3  2  2  0
  4  2  1  0
  5  4  1  0
  6  5  1  0
  6  7  1  6
  8  6  1  0
  8  9  2  0
 10 11  1  0
 11 12  2  0
 12 13  1  0
 14 13  2  0
 14 15  1  0
 16 15  1  1
 16 17  1  0
 17  8  1  0
 18 16  1  0
 19 18  2  0
 20 14  1  0
 21 20  2  0
 21 11  1  0
 22 18  1  0
 23 24  1  1
 23 22  1  0
 24 25  1  0
 25 26  2  0
 26 27  1  0
 28 27  2  0
 29 28  1  0
 30 25  1  0
 30 29  2  0
 31 33  1  0
 31 23  1  0
 32 31  2  0
M  END
$$$$
