QYF.pdb
     RDKit          3D

 33 34  0  0  1  0  0  0  0  0999 V2000
   11.4043  -19.2105   16.6576 N   0  0  0  0  0  0  0  0  0  0  0  0
   10.1880  -18.6181   17.0499 C   0  0  0  0  0  0  0  0  0  0  0  0
    9.5575  -17.9557   16.1839 O   0  0  0  0  0  0  0  0  0  0  0  0
    9.7130  -18.7981   18.4407 C   0  0  0  0  0  0  0  0  0  0  0  0
   10.3819  -17.8275   19.3907 C   0  0  0  0  0  0  0  0  0  0  0  0
    9.8898  -17.9863   20.7989 C   0  0  2  0  0  0  0  0  0  0  0  0
    8.5189  -18.4619   20.8377 N   0  0  0  0  0  0  0  0  0  0  0  0
   10.0523  -16.7111   21.5353 C   0  0  0  0  0  0  0  0  0  0  0  0
   11.1832  -16.2031   21.6111 O   0  0  0  0  0  0  0  0  0  0  0  0
    7.4058  -13.1273   16.8977 O   0  0  0  0  0  0  0  0  0  0  0  0
    7.5620  -13.3082   18.2720 C   0  0  0  0  0  0  0  0  0  0  0  0
    6.7965  -14.2674   18.8943 C   0  0  0  0  0  0  0  0  0  0  0  0
    6.9179  -14.4836   20.2638 C   0  0  0  0  0  0  0  0  0  0  0  0
    7.7926  -13.7600   21.0347 C   0  0  0  0  0  0  0  0  0  0  0  0
    7.9293  -13.9933   22.4535 C   0  0  0  0  0  0  0  0  0  0  0  0
    9.0773  -14.8314   22.9296 C   0  0  2  0  0  0  0  0  0  0  0  0
    8.9648  -16.0739   22.1419 N   0  0  0  0  0  0  0  0  0  0  0  0
    9.0599  -15.1169   24.3548 C   0  0  0  0  0  0  0  0  0  0  0  0
    8.9271  -14.0954   25.1290 O   0  0  0  0  0  0  0  0  0  0  0  0
    8.5561  -12.7922   20.3714 C   0  0  0  0  0  0  0  0  0  0  0  0
    8.4502  -12.5629   19.0160 C   0  0  0  0  0  0  0  0  0  0  0  0
    9.1628  -16.3705   25.0029 N   0  0  0  0  0  0  0  0  0  0  0  0
    8.9669  -16.4888   26.4502 C   0  0  1  0  0  0  0  0  0  0  0  0
    7.5136  -16.1270   26.7087 C   0  0  0  0  0  0  0  0  0  0  0  0
    7.2676  -14.6997   26.9106 C   0  0  0  0  0  0  0  0  0  0  0  0
    6.1123  -14.1152   26.3775 C   0  0  0  0  0  0  0  0  0  0  0  0
    5.8826  -12.7791   26.5828 C   0  0  0  0  0  0  0  0  0  0  0  0
    6.7669  -12.0154   27.2998 C   0  0  0  0  0  0  0  0  0  0  0  0
    7.9099  -12.5953   27.8268 C   0  0  0  0  0  0  0  0  0  0  0  0
    8.1621  -13.9402   27.6326 C   0  0  0  0  0  0  0  0  0  0  0  0
    9.2071  -17.8481   26.9589 C   0  0  0  0  0  0  0  0  0  0  0  0
    9.1429  -18.1196   28.1999 O   0  0  0  0  0  0  0  0  0  0  0  0
    9.5155  -18.9199   26.1447 O   0  0  0  0  0  0  0  0  0  0  0  0
  2  1  1  0
  3  2  2  0
  4  2  1  0
  5  4  1  0
  6  5  1  0
  6  7  1  6
  8  6  1  0
  8  9  2  0
 10 11  1  0
 11 12  2  0
 12 13  1  0
 14 13  2  0
 14 15  1  0
 16 15  1  1
 16 17  1  0
 17  8  1  0
 18 16  1  0
 19 18  2  0
 20 14  1  0
 21 20  2  0
 21 11  1  0
 22 18  1  0
 23 24  1  6
 23 22  1  0
 24 25  1  0
 25 26  2  0
 26 27  1  0
 28 27  2  0
 29 28  1  0
 30 25  1  0
 30 29  2  0
 31 33  1  0
 31 23  1  0
 32 31  2  0
M  END
$$$$
