DGN.pdb
     RDKit          3D

 21 20  0  0  1  0  0  0  0  0999 V2000
   16.7513  -12.0061  -14.5934 N   0  0  0  0  0  0  0  0  0  0  0  0
   16.0650  -11.4247  -15.7179 C   0  0  1  0  0  0  0  0  0  0  0  0
   14.6299  -11.0739  -15.3739 C   0  0  0  0  0  0  0  0  0  0  0  0
   13.7976  -12.2531  -15.1509 C   0  0  0  0  0  0  0  0  0  0  0  0
   14.1362  -13.3565  -15.6471 O   0  0  0  0  0  0  0  0  0  0  0  0
   16.7537  -10.1711  -16.1098 C   0  0  0  0  0  0  0  0  0  0  0  0
   16.4303   -9.5249  -17.1391 O   0  0  0  0  0  0  0  0  0  0  0  0
   12.6364  -12.2033  -14.4025 O   0  0  0  0  0  0  0  0  0  0  0  0
   17.8178   -9.6411  -15.3322 N   0  0  0  0  0  0  0  0  0  0  0  0
   18.4644   -8.4411  -15.7327 C   0  0  0  0  0  0  0  0  0  0  0  0
   19.5061   -7.9796  -14.7831 C   0  0  0  0  0  0  0  0  0  0  0  0
   19.3699   -8.2399  -13.5705 O   0  0  0  0  0  0  0  0  0  0  0  0
   23.6460   -9.5316  -14.4284 N   0  0  0  0  0  0  0  0  0  0  0  0
   23.1074   -8.6623  -15.3889 C   0  0  0  0  0  0  0  0  0  0  0  0
   22.6724   -9.0540  -16.5257 O   0  0  0  0  0  0  0  0  0  0  0  0
   23.0332   -7.2101  -15.0813 C   0  0  0  0  0  0  0  0  0  0  0  0
   21.7543   -6.8915  -14.3198 C   0  0  2  0  0  0  0  0  0  0  0  0
   20.6442   -7.2540  -15.2116 N   0  0  0  0  0  0  0  0  0  0  0  0
   21.6572   -5.5003  -13.8803 C   0  0  0  0  0  0  0  0  0  0  0  0
   22.1382   -5.0902  -12.6479 O   0  0  0  0  0  0  0  0  0  0  0  0
   21.1300   -4.5712  -14.5874 O   0  0  0  0  0  0  0  0  0  0  0  0
  2  3  1  0
  2  1  1  1
  3  4  1  0
  4  8  1  0
  4  5  2  0
  6  9  1  0
  6  2  1  0
  7  6  2  0
 10  9  1  0
 11 10  1  0
 11 18  1  0
 12 11  2  0
 13 14  1  0
 14 15  2  0
 14 16  1  0
 17 16  1  6
 17 18  1  0
 17 19  1  0
 19 21  2  0
 19 20  1  0
M  END
$$$$
