DGN.pdb
     RDKit          3D

 21 20  0  0  1  0  0  0  0  0999 V2000
   18.6837  -12.5248  -15.1777 N   0  0  0  0  0  0  0  0  0  0  0  0
   17.5243  -12.4418  -16.0276 C   0  0  1  0  0  0  0  0  0  0  0  0
   16.2871  -12.9828  -15.3365 C   0  0  0  0  0  0  0  0  0  0  0  0
   16.4044  -14.3977  -14.9937 C   0  0  0  0  0  0  0  0  0  0  0  0
   17.3453  -15.0781  -15.4732 O   0  0  0  0  0  0  0  0  0  0  0  0
   17.2688  -11.0192  -16.3600 C   0  0  0  0  0  0  0  0  0  0  0  0
   16.4401  -10.6777  -17.2423 O   0  0  0  0  0  0  0  0  0  0  0  0
   15.5095  -15.0265  -14.1483 O   0  0  0  0  0  0  0  0  0  0  0  0
   17.9550   -9.9714  -15.6899 N   0  0  0  0  0  0  0  0  0  0  0  0
   17.6924   -8.6168  -16.0281 C   0  0  0  0  0  0  0  0  0  0  0  0
   18.3646   -7.6390  -15.1382 C   0  0  0  0  0  0  0  0  0  0  0  0
   18.2075   -7.7437  -13.9049 O   0  0  0  0  0  0  0  0  0  0  0  0
   21.8834   -4.7020  -13.1163 N   0  0  0  0  0  0  0  0  0  0  0  0
   22.0518   -6.0768  -13.3396 C   0  0  0  0  0  0  0  0  0  0  0  0
   22.9737   -6.7704  -12.7881 O   0  0  0  0  0  0  0  0  0  0  0  0
   21.1179   -6.7739  -14.2620 C   0  0  0  0  0  0  0  0  0  0  0  0
   20.0859   -5.7994  -14.8119 C   0  0  2  0  0  0  0  0  0  0  0  0
   19.1744   -6.5942  -15.6464 N   0  0  0  0  0  0  0  0  0  0  0  0
   20.6637   -4.6841  -15.5604 C   0  0  0  0  0  0  0  0  0  0  0  0
   21.0818   -3.5232  -14.9313 O   0  0  0  0  0  0  0  0  0  0  0  0
   20.8249   -4.6943  -16.8313 O   0  0  0  0  0  0  0  0  0  0  0  0
  2  3  1  0
  2  1  1  1
  3  4  1  0
  4  8  1  0
  4  5  2  0
  6  9  1  0
  6  2  1  0
  7  6  2  0
 10  9  1  0
 11 10  1  0
 11 18  1  0
 12 11  2  0
 13 14  1  0
 14 15  2  0
 14 16  1  0
 17 16  1  6
 17 18  1  0
 17 19  1  0
 19 21  2  0
 19 20  1  0
M  END
$$$$
