DGN.pdb
     RDKit          3D

 21 20  0  0  1  0  0  0  0  0999 V2000
   15.0662   -9.9482  -10.2192 N   0  0  0  0  0  0  0  0  0  0  0  0
   13.9375   -9.1104   -9.9067 C   0  0  1  0  0  0  0  0  0  0  0  0
   13.2063   -9.5992   -8.6708 C   0  0  0  0  0  0  0  0  0  0  0  0
   12.1860  -10.5987   -8.9759 C   0  0  0  0  0  0  0  0  0  0  0  0
   12.5170  -11.6767   -9.5295 O   0  0  0  0  0  0  0  0  0  0  0  0
   14.4175   -7.7345   -9.6315 C   0  0  0  0  0  0  0  0  0  0  0  0
   13.6367   -6.8113   -9.2854 O   0  0  0  0  0  0  0  0  0  0  0  0
   10.8513  -10.4038   -8.6732 O   0  0  0  0  0  0  0  0  0  0  0  0
   15.7924   -7.3969   -9.7477 N   0  0  0  0  0  0  0  0  0  0  0  0
   16.2496   -6.1170   -9.3339 C   0  0  0  0  0  0  0  0  0  0  0  0
   17.6788   -5.8664   -9.6412 C   0  0  0  0  0  0  0  0  0  0  0  0
   18.5293   -6.0786   -8.7533 O   0  0  0  0  0  0  0  0  0  0  0  0
   21.9151   -6.0609  -12.4279 N   0  0  0  0  0  0  0  0  0  0  0  0
   21.2145   -7.1667  -11.9232 C   0  0  0  0  0  0  0  0  0  0  0  0
   21.6787   -8.3581  -11.9357 O   0  0  0  0  0  0  0  0  0  0  0  0
   19.8630   -6.9556  -11.3418 C   0  0  0  0  0  0  0  0  0  0  0  0
   19.4922   -5.4797  -11.3776 C   0  0  2  0  0  0  0  0  0  0  0  0
   18.1029   -5.3938  -10.9070 N   0  0  0  0  0  0  0  0  0  0  0  0
   19.6528   -4.8600  -12.6922 C   0  0  0  0  0  0  0  0  0  0  0  0
   20.8679   -4.3441  -13.1110 O   0  0  0  0  0  0  0  0  0  0  0  0
   18.7004   -4.7486  -13.5418 O   0  0  0  0  0  0  0  0  0  0  0  0
  2  3  1  0
  2  1  1  1
  3  4  1  0
  4  8  1  0
  4  5  2  0
  6  9  1  0
  6  2  1  0
  7  6  2  0
 10  9  1  0
 11 10  1  0
 11 18  1  0
 12 11  2  0
 13 14  1  0
 14 15  2  0
 14 16  1  0
 17 16  1  6
 17 18  1  0
 17 19  1  0
 19 21  2  0
 19 20  1  0
M  END
$$$$
