DGN.pdb
     RDKit          3D

 21 20  0  0  1  0  0  0  0  0999 V2000
   18.9636  -10.1782  -14.6977 N   0  0  0  0  0  0  0  0  0  0  0  0
   19.2528  -10.8387  -15.9442 C   0  0  1  0  0  0  0  0  0  0  0  0
   17.9986  -11.0351  -16.7746 C   0  0  0  0  0  0  0  0  0  0  0  0
   17.0071  -11.8772  -16.1105 C   0  0  0  0  0  0  0  0  0  0  0  0
   17.3039  -12.4595  -15.0376 O   0  0  0  0  0  0  0  0  0  0  0  0
   20.1874   -9.9987  -16.7316 C   0  0  0  0  0  0  0  0  0  0  0  0
   20.6261  -10.3592  -17.8538 O   0  0  0  0  0  0  0  0  0  0  0  0
   15.7358  -12.0595  -16.6216 O   0  0  0  0  0  0  0  0  0  0  0  0
   20.6314   -8.7389  -16.2481 N   0  0  0  0  0  0  0  0  0  0  0  0
   21.4660   -7.9196  -17.0547 C   0  0  0  0  0  0  0  0  0  0  0  0
   21.7094   -6.5723  -16.4844 C   0  0  0  0  0  0  0  0  0  0  0  0
   22.4951   -5.8040  -17.0752 O   0  0  0  0  0  0  0  0  0  0  0  0
   19.6899   -2.7758  -16.3369 N   0  0  0  0  0  0  0  0  0  0  0  0
   19.2346   -3.8721  -15.5890 C   0  0  0  0  0  0  0  0  0  0  0  0
   18.2195   -4.5756  -15.9201 O   0  0  0  0  0  0  0  0  0  0  0  0
   19.9606   -4.2446  -14.3467 C   0  0  0  0  0  0  0  0  0  0  0  0
   21.3280   -4.8233  -14.6820 C   0  0  2  0  0  0  0  0  0  0  0  0
   21.0797   -6.1361  -15.2933 N   0  0  0  0  0  0  0  0  0  0  0  0
   22.2253   -4.9278  -13.5323 C   0  0  0  0  0  0  0  0  0  0  0  0
   22.6228   -3.8121  -12.8144 O   0  0  0  0  0  0  0  0  0  0  0  0
   22.7040   -6.0379  -13.1083 O   0  0  0  0  0  0  0  0  0  0  0  0
  2  3  1  0
  2  1  1  1
  3  4  1  0
  4  8  1  0
  4  5  2  0
  6  9  1  0
  6  2  1  0
  7  6  2  0
 10  9  1  0
 11 10  1  0
 11 18  1  0
 12 11  2  0
 13 14  1  0
 14 15  2  0
 14 16  1  0
 17 16  1  1
 17 18  1  0
 17 19  1  0
 19 21  2  0
 19 20  1  0
M  END
$$$$
