DGN.pdb
     RDKit          3D

 21 20  0  0  1  0  0  0  0  0999 V2000
   20.4844  -13.1660  -16.8891 N   0  0  0  0  0  0  0  0  0  0  0  0
   19.5946  -12.0349  -16.9388 C   0  0  1  0  0  0  0  0  0  0  0  0
   18.1414  -12.4667  -16.8857 C   0  0  0  0  0  0  0  0  0  0  0  0
   17.7542  -13.2898  -18.0284 C   0  0  0  0  0  0  0  0  0  0  0  0
   18.0602  -12.9242  -19.1907 O   0  0  0  0  0  0  0  0  0  0  0  0
   19.8497  -11.1665  -15.7640 C   0  0  0  0  0  0  0  0  0  0  0  0
   19.6317  -11.5533  -14.5874 O   0  0  0  0  0  0  0  0  0  0  0  0
   17.0564  -14.4738  -17.8795 O   0  0  0  0  0  0  0  0  0  0  0  0
   20.3562   -9.8484  -15.9185 N   0  0  0  0  0  0  0  0  0  0  0  0
   20.6001   -9.0400  -14.7759 C   0  0  0  0  0  0  0  0  0  0  0  0
   21.1054   -7.6841  -15.1017 C   0  0  0  0  0  0  0  0  0  0  0  0
   21.9877   -7.5669  -15.9760 O   0  0  0  0  0  0  0  0  0  0  0  0
   21.7047   -2.5757  -15.1843 N   0  0  0  0  0  0  0  0  0  0  0  0
   20.4548   -2.8069  -14.5905 C   0  0  0  0  0  0  0  0  0  0  0  0
   19.6430   -1.8708  -14.2747 O   0  0  0  0  0  0  0  0  0  0  0  0
   20.0417   -4.2066  -14.3090 C   0  0  0  0  0  0  0  0  0  0  0  0
   21.1490   -5.1768  -14.6958 C   0  0  2  0  0  0  0  0  0  0  0  0
   20.6182   -6.5248  -14.4505 N   0  0  0  0  0  0  0  0  0  0  0  0
   22.4059   -4.9568  -13.9816 C   0  0  0  0  0  0  0  0  0  0  0  0
   22.5598   -5.3110  -12.6516 O   0  0  0  0  0  0  0  0  0  0  0  0
   23.4417   -4.4298  -14.5205 O   0  0  0  0  0  0  0  0  0  0  0  0
  2  3  1  0
  2  1  1  1
  3  4  1  0
  4  8  1  0
  4  5  2  0
  6  9  1  0
  6  2  1  0
  7  6  2  0
 10  9  1  0
 11 10  1  0
 11 18  1  0
 12 11  2  0
 13 14  1  0
 14 15  2  0
 14 16  1  0
 17 16  1  1
 17 18  1  0
 17 19  1  0
 19 21  2  0
 19 20  1  0
M  END
$$$$
