DGN.pdb
     RDKit          3D

 21 20  0  0  1  0  0  0  0  0999 V2000
   17.1371  -10.4350  -14.8644 N   0  0  0  0  0  0  0  0  0  0  0  0
   16.3601  -11.1264  -13.8685 C   0  0  1  0  0  0  0  0  0  0  0  0
   16.7994  -12.5709  -13.7231 C   0  0  0  0  0  0  0  0  0  0  0  0
   15.9445  -13.4986  -14.4591 C   0  0  0  0  0  0  0  0  0  0  0  0
   15.0587  -13.0507  -15.2292 O   0  0  0  0  0  0  0  0  0  0  0  0
   16.5538  -10.4624  -12.5566 C   0  0  0  0  0  0  0  0  0  0  0  0
   15.9047  -10.8011  -11.5341 O   0  0  0  0  0  0  0  0  0  0  0  0
   16.0747  -14.8698  -14.3421 O   0  0  0  0  0  0  0  0  0  0  0  0
   17.4897   -9.4057  -12.3969 N   0  0  0  0  0  0  0  0  0  0  0  0
   17.6131   -8.7461  -11.1447 C   0  0  0  0  0  0  0  0  0  0  0  0
   16.5411   -7.7544  -10.8850 C   0  0  0  0  0  0  0  0  0  0  0  0
   15.7901   -7.4233  -11.8246 O   0  0  0  0  0  0  0  0  0  0  0  0
   13.7186   -8.0768   -8.5495 N   0  0  0  0  0  0  0  0  0  0  0  0
   14.2303   -7.2850   -7.5105 C   0  0  0  0  0  0  0  0  0  0  0  0
   13.9850   -7.5031   -6.2746 O   0  0  0  0  0  0  0  0  0  0  0  0
   15.1031   -6.1310   -7.8506 C   0  0  0  0  0  0  0  0  0  0  0  0
   15.3834   -6.0976   -9.3463 C   0  0  2  0  0  0  0  0  0  0  0  0
   16.3481   -7.1746   -9.6075 N   0  0  0  0  0  0  0  0  0  0  0  0
   15.8755   -4.8078   -9.8284 C   0  0  0  0  0  0  0  0  0  0  0  0
   17.2241   -4.5764  -10.0427 O   0  0  0  0  0  0  0  0  0  0  0  0
   15.1121   -3.8115  -10.0848 O   0  0  0  0  0  0  0  0  0  0  0  0
  2  3  1  0
  2  1  1  6
  3  4  1  0
  4  8  1  0
  4  5  2  0
  6  9  1  0
  6  2  1  0
  7  6  2  0
 10  9  1  0
 11 10  1  0
 11 18  1  0
 12 11  2  0
 13 14  1  0
 14 15  2  0
 14 16  1  0
 17 16  1  1
 17 18  1  0
 17 19  1  0
 19 21  2  0
 19 20  1  0
M  END
$$$$
