DGN.pdb
     RDKit          3D

 21 20  0  0  1  0  0  0  0  0999 V2000
   18.6061  -15.2612  -16.1862 N   0  0  0  0  0  0  0  0  0  0  0  0
   19.5169  -15.3815  -15.0774 C   0  0  1  0  0  0  0  0  0  0  0  0
   20.2754  -16.6944  -15.1196 C   0  0  0  0  0  0  0  0  0  0  0  0
   19.4288  -17.8462  -14.8201 C   0  0  0  0  0  0  0  0  0  0  0  0
   18.2464  -17.6661  -14.4357 O   0  0  0  0  0  0  0  0  0  0  0  0
   20.5118  -14.2840  -15.1470 C   0  0  0  0  0  0  0  0  0  0  0  0
   21.3944  -14.1254  -14.2653 O   0  0  0  0  0  0  0  0  0  0  0  0
   19.8827  -19.1458  -14.9470 O   0  0  0  0  0  0  0  0  0  0  0  0
   20.5110  -13.3561  -16.2227 N   0  0  0  0  0  0  0  0  0  0  0  0
   21.4469  -12.2874  -16.2428 C   0  0  0  0  0  0  0  0  0  0  0  0
   20.8225  -10.9509  -16.3967 C   0  0  0  0  0  0  0  0  0  0  0  0
   19.9263  -10.8026  -17.2520 O   0  0  0  0  0  0  0  0  0  0  0  0
   17.3803   -7.1660  -14.4854 N   0  0  0  0  0  0  0  0  0  0  0  0
   18.4137   -7.3961  -15.4060 C   0  0  0  0  0  0  0  0  0  0  0  0
   18.7823   -6.5364  -16.2779 O   0  0  0  0  0  0  0  0  0  0  0  0
   19.1237   -8.7015  -15.3765 C   0  0  0  0  0  0  0  0  0  0  0  0
   20.5963   -8.5148  -15.7132 C   0  0  2  0  0  0  0  0  0  0  0  0
   21.2139   -9.8436  -15.6054 N   0  0  0  0  0  0  0  0  0  0  0  0
   21.2781   -7.5359  -14.8676 C   0  0  0  0  0  0  0  0  0  0  0  0
   21.1735   -6.1745  -15.0992 O   0  0  0  0  0  0  0  0  0  0  0  0
   22.0108   -7.8558  -13.8665 O   0  0  0  0  0  0  0  0  0  0  0  0
  2  3  1  0
  2  1  1  6
  3  4  1  0
  4  8  1  0
  4  5  2  0
  6  9  1  0
  6  2  1  0
  7  6  2  0
 10  9  1  0
 11 10  1  0
 11 18  1  0
 12 11  2  0
 13 14  1  0
 14 15  2  0
 14 16  1  0
 17 16  1  1
 17 18  1  0
 17 19  1  0
 19 21  2  0
 19 20  1  0
M  END
$$$$
