DGN.pdb
     RDKit          3D

 21 20  0  0  1  0  0  0  0  0999 V2000
   16.6552  -12.1129  -13.8899 N   0  0  0  0  0  0  0  0  0  0  0  0
   15.8702  -12.8532  -12.9364 C   0  0  1  0  0  0  0  0  0  0  0  0
   16.5616  -14.1389  -12.5241 C   0  0  0  0  0  0  0  0  0  0  0  0
   16.3040  -15.2404  -13.4479 C   0  0  0  0  0  0  0  0  0  0  0  0
   15.5211  -15.0707  -14.4156 O   0  0  0  0  0  0  0  0  0  0  0  0
   15.6868  -12.0294  -11.7169 C   0  0  0  0  0  0  0  0  0  0  0  0
   14.9979  -12.4239  -10.7415 O   0  0  0  0  0  0  0  0  0  0  0  0
   16.8981  -16.4797  -13.2990 O   0  0  0  0  0  0  0  0  0  0  0  0
   16.2871  -10.7475  -11.5967 N   0  0  0  0  0  0  0  0  0  0  0  0
   16.1889  -10.0260  -10.3767 C   0  0  0  0  0  0  0  0  0  0  0  0
   16.0266   -8.5632  -10.5606 C   0  0  0  0  0  0  0  0  0  0  0  0
   15.9412   -8.1103  -11.7200 O   0  0  0  0  0  0  0  0  0  0  0  0
   13.6436   -6.1424   -6.5451 N   0  0  0  0  0  0  0  0  0  0  0  0
   14.0259   -6.1034   -7.8944 C   0  0  0  0  0  0  0  0  0  0  0  0
   13.2396   -6.4050   -8.8565 O   0  0  0  0  0  0  0  0  0  0  0  0
   15.4129   -5.6925   -8.2358 C   0  0  0  0  0  0  0  0  0  0  0  0
   15.8012   -6.2181   -9.6105 C   0  0  2  0  0  0  0  0  0  0  0  0
   15.9676   -7.6705   -9.4629 N   0  0  0  0  0  0  0  0  0  0  0  0
   17.0012   -5.5943  -10.1663 C   0  0  0  0  0  0  0  0  0  0  0  0
   16.9732   -4.3244  -10.7184 O   0  0  0  0  0  0  0  0  0  0  0  0
   18.1490   -6.1630  -10.1851 O   0  0  0  0  0  0  0  0  0  0  0  0
  2  3  1  0
  2  1  1  6
  3  4  1  0
  4  8  1  0
  4  5  2  0
  6  9  1  0
  6  2  1  0
  7  6  2  0
 10  9  1  0
 11 10  1  0
 11 18  1  0
 12 11  2  0
 13 14  1  0
 14 15  2  0
 14 16  1  0
 17 16  1  1
 17 18  1  0
 17 19  1  0
 19 21  2  0
 19 20  1  0
M  END
$$$$
