DGN.pdb
     RDKit          3D

 21 20  0  0  1  0  0  0  0  0999 V2000
   14.8826   -9.2936   -8.8668 N   0  0  0  0  0  0  0  0  0  0  0  0
   14.5022   -8.5489  -10.0391 C   0  0  1  0  0  0  0  0  0  0  0  0
   13.1045   -7.9748   -9.9050 C   0  0  0  0  0  0  0  0  0  0  0  0
   12.0784   -9.0073   -9.7861 C   0  0  0  0  0  0  0  0  0  0  0  0
   12.1438  -10.0353  -10.5052 O   0  0  0  0  0  0  0  0  0  0  0  0
   15.4401   -7.4141  -10.2171 C   0  0  0  0  0  0  0  0  0  0  0  0
   15.5861   -6.8352  -11.3240 O   0  0  0  0  0  0  0  0  0  0  0  0
   11.0239   -8.8979   -8.8989 O   0  0  0  0  0  0  0  0  0  0  0  0
   16.2211   -6.9273   -9.1350 N   0  0  0  0  0  0  0  0  0  0  0  0
   17.1470   -5.8699   -9.3432 C   0  0  0  0  0  0  0  0  0  0  0  0
   18.4538   -6.3193   -9.8819 C   0  0  0  0  0  0  0  0  0  0  0  0
   19.2324   -6.9380   -9.1285 O   0  0  0  0  0  0  0  0  0  0  0  0
   21.2044   -8.9343  -14.3784 N   0  0  0  0  0  0  0  0  0  0  0  0
   21.2231   -7.9933  -13.3380 C   0  0  0  0  0  0  0  0  0  0  0  0
   22.2998   -7.4978  -12.8581 O   0  0  0  0  0  0  0  0  0  0  0  0
   19.9325   -7.5415  -12.7556 C   0  0  0  0  0  0  0  0  0  0  0  0
   20.1633   -6.4147  -11.7585 C   0  0  2  0  0  0  0  0  0  0  0  0
   18.8415   -6.0656  -11.2201 N   0  0  0  0  0  0  0  0  0  0  0  0
   20.8361   -5.2481  -12.3280 C   0  0  0  0  0  0  0  0  0  0  0  0
   20.1260   -4.1665  -12.8222 O   0  0  0  0  0  0  0  0  0  0  0  0
   22.1097   -5.1382  -12.4122 O   0  0  0  0  0  0  0  0  0  0  0  0
  2  3  1  0
  2  1  1  1
  3  4  1  0
  4  8  1  0
  4  5  2  0
  6  9  1  0
  6  2  1  0
  7  6  2  0
 10  9  1  0
 11 10  1  0
 11 18  1  0
 12 11  2  0
 13 14  1  0
 14 15  2  0
 14 16  1  0
 17 16  1  6
 17 18  1  0
 17 19  1  0
 19 21  2  0
 19 20  1  0
M  END
$$$$
