DGN.pdb
     RDKit          3D

 21 20  0  0  1  0  0  0  0  0999 V2000
   18.7210  -11.7890  -15.2565 N   0  0  0  0  0  0  0  0  0  0  0  0
   19.7420  -11.9790  -16.2540 C   0  0  1  0  0  0  0  0  0  0  0  0
   19.1715  -12.5688  -17.5298 C   0  0  0  0  0  0  0  0  0  0  0  0
   18.7184  -13.9471  -17.3620 C   0  0  0  0  0  0  0  0  0  0  0  0
   18.0174  -14.2546  -16.3659 O   0  0  0  0  0  0  0  0  0  0  0  0
   20.3381  -10.6640  -16.5929 C   0  0  0  0  0  0  0  0  0  0  0  0
   21.1919  -10.5331  -17.5069 O   0  0  0  0  0  0  0  0  0  0  0  0
   19.0329  -14.9407  -18.2702 O   0  0  0  0  0  0  0  0  0  0  0  0
   19.9667   -9.4846  -15.8935 N   0  0  0  0  0  0  0  0  0  0  0  0
   20.4280   -8.2168  -16.3388 C   0  0  0  0  0  0  0  0  0  0  0  0
   19.9567   -7.0844  -15.5048 C   0  0  0  0  0  0  0  0  0  0  0  0
   18.7412   -6.8029  -15.5073 O   0  0  0  0  0  0  0  0  0  0  0  0
   19.7472   -4.8256  -10.9828 N   0  0  0  0  0  0  0  0  0  0  0  0
   19.5718   -6.1985  -11.2123 C   0  0  0  0  0  0  0  0  0  0  0  0
   19.0871   -7.0001  -10.3420 O   0  0  0  0  0  0  0  0  0  0  0  0
   19.9657   -6.7620  -12.5301 C   0  0  0  0  0  0  0  0  0  0  0  0
   20.4431   -5.6563  -13.4610 C   0  0  2  0  0  0  0  0  0  0  0  0
   20.8432   -6.3164  -14.7112 N   0  0  0  0  0  0  0  0  0  0  0  0
   21.5286   -4.8459  -12.9108 C   0  0  0  0  0  0  0  0  0  0  0  0
   21.2923   -3.8434  -11.9848 O   0  0  0  0  0  0  0  0  0  0  0  0
   22.7584   -4.9974  -13.2363 O   0  0  0  0  0  0  0  0  0  0  0  0
  2  3  1  0
  2  1  1  1
  3  4  1  0
  4  8  1  0
  4  5  2  0
  6  9  1  0
  6  2  1  0
  7  6  2  0
 10  9  1  0
 11 10  1  0
 11 18  1  0
 12 11  2  0
 13 14  1  0
 14 15  2  0
 14 16  1  0
 17 16  1  1
 17 18  1  0
 17 19  1  0
 19 21  2  0
 19 20  1  0
M  END
$$$$
