DGN.pdb
     RDKit          3D

 21 20  0  0  1  0  0  0  0  0999 V2000
   14.7004   -6.4113  -10.4618 N   0  0  0  0  0  0  0  0  0  0  0  0
   15.3729   -6.7010   -9.2219 C   0  0  1  0  0  0  0  0  0  0  0  0
   14.9966   -8.0712   -8.6910 C   0  0  0  0  0  0  0  0  0  0  0  0
   13.5628   -8.2099   -8.4501 C   0  0  0  0  0  0  0  0  0  0  0  0
   12.8771   -7.1939   -8.1746 O   0  0  0  0  0  0  0  0  0  0  0  0
   16.8378   -6.6940   -9.4527 C   0  0  0  0  0  0  0  0  0  0  0  0
   17.6634   -6.7904   -8.5089 O   0  0  0  0  0  0  0  0  0  0  0  0
   12.9204   -9.4321   -8.5166 O   0  0  0  0  0  0  0  0  0  0  0  0
   17.3767   -6.5774  -10.7619 N   0  0  0  0  0  0  0  0  0  0  0  0
   18.7835   -6.6030  -10.9585 C   0  0  0  0  0  0  0  0  0  0  0  0
   19.1857   -6.6249  -12.3860 C   0  0  0  0  0  0  0  0  0  0  0  0
   18.3064   -6.7977  -13.2542 O   0  0  0  0  0  0  0  0  0  0  0  0
   20.3106   -3.8919  -14.2481 N   0  0  0  0  0  0  0  0  0  0  0  0
   21.6874   -4.1518  -14.3203 C   0  0  0  0  0  0  0  0  0  0  0  0
   22.5728   -3.2325  -14.3987 O   0  0  0  0  0  0  0  0  0  0  0  0
   22.1532   -5.5632  -14.3059 C   0  0  0  0  0  0  0  0  0  0  0  0
   20.9697   -6.5135  -14.1910 C   0  0  2  0  0  0  0  0  0  0  0  0
   20.5329   -6.4578  -12.7892 N   0  0  0  0  0  0  0  0  0  0  0  0
   21.2674   -7.8836  -14.6062 C   0  0  0  0  0  0  0  0  0  0  0  0
   21.4723   -8.8963  -13.6839 O   0  0  0  0  0  0  0  0  0  0  0  0
   21.3598   -8.2461  -15.8315 O   0  0  0  0  0  0  0  0  0  0  0  0
  2  3  1  0
  2  1  1  6
  3  4  1  0
  4  8  1  0
  4  5  2  0
  6  9  1  0
  6  2  1  0
  7  6  2  0
 10  9  1  0
 11 10  1  0
 11 18  1  0
 12 11  2  0
 13 14  1  0
 14 15  2  0
 14 16  1  0
 17 16  1  1
 17 18  1  0
 17 19  1  0
 19 21  2  0
 19 20  1  0
M  END
$$$$
