DGN.pdb
     RDKit          3D

 21 20  0  0  1  0  0  0  0  0999 V2000
   16.2836  -12.2581  -15.1801 N   0  0  0  0  0  0  0  0  0  0  0  0
   17.6309  -12.7520  -15.2993 C   0  0  1  0  0  0  0  0  0  0  0  0
   17.7132  -13.9177  -16.2665 C   0  0  0  0  0  0  0  0  0  0  0  0
   17.0893  -15.1306  -15.7444 C   0  0  0  0  0  0  0  0  0  0  0  0
   16.6857  -15.1601  -14.5550 O   0  0  0  0  0  0  0  0  0  0  0  0
   18.4986  -11.6696  -15.8235 C   0  0  0  0  0  0  0  0  0  0  0  0
   19.7315  -11.8329  -16.0102 O   0  0  0  0  0  0  0  0  0  0  0  0
   16.9204  -16.2631  -16.5188 O   0  0  0  0  0  0  0  0  0  0  0  0
   17.9696  -10.3899  -16.1407 N   0  0  0  0  0  0  0  0  0  0  0  0
   18.8237   -9.3684  -16.6362 C   0  0  0  0  0  0  0  0  0  0  0  0
   19.0353   -8.2530  -15.6817 C   0  0  0  0  0  0  0  0  0  0  0  0
   18.1871   -8.0601  -14.7872 O   0  0  0  0  0  0  0  0  0  0  0  0
   21.1193   -4.1332  -13.3589 N   0  0  0  0  0  0  0  0  0  0  0  0
   22.1765   -4.9021  -13.8684 C   0  0  0  0  0  0  0  0  0  0  0  0
   23.4040   -4.6854  -13.5832 O   0  0  0  0  0  0  0  0  0  0  0  0
   21.8669   -6.0285  -14.7873 C   0  0  0  0  0  0  0  0  0  0  0  0
   20.3625   -6.2394  -14.8837 C   0  0  2  0  0  0  0  0  0  0  0  0
   20.1663   -7.4042  -15.7576 N   0  0  0  0  0  0  0  0  0  0  0  0
   19.6306   -5.0720  -15.3731 C   0  0  0  0  0  0  0  0  0  0  0  0
   19.4237   -4.8560  -16.7254 O   0  0  0  0  0  0  0  0  0  0  0  0
   19.1339   -4.1761  -14.6039 O   0  0  0  0  0  0  0  0  0  0  0  0
  2  3  1  0
  2  1  1  6
  3  4  1  0
  4  8  1  0
  4  5  2  0
  6  9  1  0
  6  2  1  0
  7  6  2  0
 10  9  1  0
 11 10  1  0
 11 18  1  0
 12 11  2  0
 13 14  1  0
 14 15  2  0
 14 16  1  0
 17 16  1  6
 17 18  1  0
 17 19  1  0
 19 21  2  0
 19 20  1  0
M  END
$$$$
