DGN.pdb
     RDKit          3D

 21 20  0  0  1  0  0  0  0  0999 V2000
   26.4979  -20.6902   -9.8814 N   0  0  0  0  0  0  0  0  0  0  0  0
   25.7176  -21.2300  -10.9645 C   0  0  1  0  0  0  0  0  0  0  0  0
   24.3018  -20.6856  -10.9564 C   0  0  0  0  0  0  0  0  0  0  0  0
   23.6544  -20.8138   -9.6534 C   0  0  0  0  0  0  0  0  0  0  0  0
   24.3099  -21.2468   -8.6730 O   0  0  0  0  0  0  0  0  0  0  0  0
   26.3424  -20.8409  -12.2520 C   0  0  0  0  0  0  0  0  0  0  0  0
   27.4801  -20.3079  -12.3084 O   0  0  0  0  0  0  0  0  0  0  0  0
   22.3306  -20.4703   -9.4526 O   0  0  0  0  0  0  0  0  0  0  0  0
   25.6768  -21.0555  -13.4884 N   0  0  0  0  0  0  0  0  0  0  0  0
   26.2997  -20.6781  -14.7083 C   0  0  0  0  0  0  0  0  0  0  0  0
   25.4628  -20.9274  -15.9072 C   0  0  0  0  0  0  0  0  0  0  0  0
   25.4419  -22.0752  -16.3958 O   0  0  0  0  0  0  0  0  0  0  0  0
   21.5105  -21.3133  -13.4160 N   0  0  0  0  0  0  0  0  0  0  0  0
   21.9199  -21.0551  -14.7328 C   0  0  0  0  0  0  0  0  0  0  0  0
   21.5358  -21.7478  -15.7366 O   0  0  0  0  0  0  0  0  0  0  0  0
   22.8471  -19.9216  -14.9869 C   0  0  0  0  0  0  0  0  0  0  0  0
   23.2242  -19.8618  -16.4604 C   0  0  2  0  0  0  0  0  0  0  0  0
   24.6920  -19.9041  -16.5108 N   0  0  0  0  0  0  0  0  0  0  0  0
   22.6967  -18.6912  -17.1600 C   0  0  0  0  0  0  0  0  0  0  0  0
   22.8051  -17.4159  -16.6308 O   0  0  0  0  0  0  0  0  0  0  0  0
   22.1051  -18.7534  -18.2947 O   0  0  0  0  0  0  0  0  0  0  0  0
  2  3  1  0
  2  1  1  1
  3  4  1  0
  4  8  1  0
  4  5  2  0
  6  9  1  0
  6  2  1  0
  7  6  2  0
 10  9  1  0
 11 10  1  0
 11 18  1  0
 12 11  2  0
 13 14  1  0
 14 15  2  0
 14 16  1  0
 17 16  1  1
 17 18  1  0
 17 19  1  0
 19 21  2  0
 19 20  1  0
M  END
$$$$
