DGN.pdb
     RDKit          3D

 21 20  0  0  1  0  0  0  0  0999 V2000
   16.7109  -10.4706  -14.5866 N   0  0  0  0  0  0  0  0  0  0  0  0
   15.9436   -9.9997  -15.7105 C   0  0  1  0  0  0  0  0  0  0  0  0
   14.5349  -10.5621  -15.6980 C   0  0  0  0  0  0  0  0  0  0  0  0
   14.4928  -11.9881  -16.0112 C   0  0  0  0  0  0  0  0  0  0  0  0
   15.4435  -12.5150  -16.6410 O   0  0  0  0  0  0  0  0  0  0  0  0
   15.8393   -8.5220  -15.6403 C   0  0  0  0  0  0  0  0  0  0  0  0
   15.7481   -7.8089  -16.6722 O   0  0  0  0  0  0  0  0  0  0  0  0
   13.4340  -12.7932  -15.6346 O   0  0  0  0  0  0  0  0  0  0  0  0
   15.8376   -7.8421  -14.3930 N   0  0  0  0  0  0  0  0  0  0  0  0
   15.7900   -6.4227  -14.3550 C   0  0  0  0  0  0  0  0  0  0  0  0
   17.1143   -5.7870  -14.1499 C   0  0  0  0  0  0  0  0  0  0  0  0
   17.1594   -4.5723  -13.8691 O   0  0  0  0  0  0  0  0  0  0  0  0
   22.2129   -5.1787  -13.6195 N   0  0  0  0  0  0  0  0  0  0  0  0
   21.9817   -6.5616  -13.5681 C   0  0  0  0  0  0  0  0  0  0  0  0
   22.9058   -7.4213  -13.3636 O   0  0  0  0  0  0  0  0  0  0  0  0
   20.5965   -7.0653  -13.7598 C   0  0  0  0  0  0  0  0  0  0  0  0
   19.6502   -5.9153  -14.0746 C   0  0  2  0  0  0  0  0  0  0  0  0
   18.3229   -6.5161  -14.2649 N   0  0  0  0  0  0  0  0  0  0  0  0
   20.0502   -5.1191  -15.2339 C   0  0  0  0  0  0  0  0  0  0  0  0
   19.6598   -5.4563  -16.5192 O   0  0  0  0  0  0  0  0  0  0  0  0
   20.7785   -4.0683  -15.1520 O   0  0  0  0  0  0  0  0  0  0  0  0
  2  3  1  0
  2  1  1  1
  3  4  1  0
  4  8  1  0
  4  5  2  0
  6  9  1  0
  6  2  1  0
  7  6  2  0
 10  9  1  0
 11 10  1  0
 11 18  1  0
 12 11  2  0
 13 14  1  0
 14 15  2  0
 14 16  1  0
 17 16  1  6
 17 18  1  0
 17 19  1  0
 19 21  2  0
 19 20  1  0
M  END
$$$$
