DGN.pdb
     RDKit          3D

 21 20  0  0  1  0  0  0  0  0999 V2000
   17.1955  -11.9991  -16.3330 N   0  0  0  0  0  0  0  0  0  0  0  0
   18.4678  -12.4156  -15.8029 C   0  0  1  0  0  0  0  0  0  0  0  0
   18.8464  -13.8022  -16.2878 C   0  0  0  0  0  0  0  0  0  0  0  0
   17.9798  -14.8462  -15.7473 C   0  0  0  0  0  0  0  0  0  0  0  0
   17.2786  -15.5381  -16.5270 O   0  0  0  0  0  0  0  0  0  0  0  0
   19.5165  -11.4746  -16.2657 C   0  0  0  0  0  0  0  0  0  0  0  0
   20.7149  -11.5764  -15.8982 O   0  0  0  0  0  0  0  0  0  0  0  0
   17.9011  -15.1088  -14.3924 O   0  0  0  0  0  0  0  0  0  0  0  0
   19.2098  -10.4081  -17.1525 N   0  0  0  0  0  0  0  0  0  0  0  0
   20.2189   -9.4817  -17.5292 C   0  0  0  0  0  0  0  0  0  0  0  0
   20.2490   -8.2590  -16.6901 C   0  0  0  0  0  0  0  0  0  0  0  0
   19.1678   -7.7278  -16.3652 O   0  0  0  0  0  0  0  0  0  0  0  0
   21.9151   -4.3263  -13.8196 N   0  0  0  0  0  0  0  0  0  0  0  0
   22.2946   -5.5710  -13.2949 C   0  0  0  0  0  0  0  0  0  0  0  0
   22.7170   -5.7299  -12.0985 O   0  0  0  0  0  0  0  0  0  0  0  0
   22.2058   -6.7734  -14.1640 C   0  0  0  0  0  0  0  0  0  0  0  0
   21.5321   -6.4278  -15.4845 C   0  0  2  0  0  0  0  0  0  0  0  0
   21.4643   -7.6796  -16.2509 N   0  0  0  0  0  0  0  0  0  0  0  0
   22.2099   -5.3735  -16.2375 C   0  0  0  0  0  0  0  0  0  0  0  0
   22.0655   -4.0357  -15.9094 O   0  0  0  0  0  0  0  0  0  0  0  0
   22.9749   -5.6013  -17.2395 O   0  0  0  0  0  0  0  0  0  0  0  0
  2  3  1  0
  2  1  1  6
  3  4  1  0
  4  8  1  0
  4  5  2  0
  6  9  1  0
  6  2  1  0
  7  6  2  0
 10  9  1  0
 11 10  1  0
 11 18  1  0
 12 11  2  0
 13 14  1  0
 14 15  2  0
 14 16  1  0
 17 16  1  1
 17 18  1  0
 17 19  1  0
 19 21  2  0
 19 20  1  0
M  END
$$$$
