DGN.pdb
     RDKit          3D

 21 20  0  0  1  0  0  0  0  0999 V2000
   28.3732  -22.9091  -17.0199 N   0  0  0  0  0  0  0  0  0  0  0  0
   28.6332  -21.5481  -17.4116 C   0  0  1  0  0  0  0  0  0  0  0  0
   28.3991  -21.3413  -18.8960 C   0  0  0  0  0  0  0  0  0  0  0  0
   29.3148  -22.1191  -19.7264 C   0  0  0  0  0  0  0  0  0  0  0  0
   30.3264  -22.6521  -19.2059 O   0  0  0  0  0  0  0  0  0  0  0  0
   27.7081  -20.6489  -16.6802 C   0  0  0  0  0  0  0  0  0  0  0  0
   27.6872  -19.4072  -16.8786 O   0  0  0  0  0  0  0  0  0  0  0  0
   29.1084  -22.2968  -21.0817 O   0  0  0  0  0  0  0  0  0  0  0  0
   26.7972  -21.1560  -15.7153 N   0  0  0  0  0  0  0  0  0  0  0  0
   25.8562  -20.2886  -15.0984 C   0  0  0  0  0  0  0  0  0  0  0  0
   24.9861  -20.9630  -14.1044 C   0  0  0  0  0  0  0  0  0  0  0  0
   24.3720  -21.9937  -14.4464 O   0  0  0  0  0  0  0  0  0  0  0  0
   26.1838  -21.8615  -10.6273 N   0  0  0  0  0  0  0  0  0  0  0  0
   25.5005  -20.8415   -9.9482 C   0  0  0  0  0  0  0  0  0  0  0  0
   25.9440  -20.2854   -8.8856 O   0  0  0  0  0  0  0  0  0  0  0  0
   24.1939  -20.3748  -10.4811 C   0  0  0  0  0  0  0  0  0  0  0  0
   23.8916  -21.0457  -11.8135 C   0  0  2  0  0  0  0  0  0  0  0  0
   24.8322  -20.4714  -12.7852 N   0  0  0  0  0  0  0  0  0  0  0  0
   22.5055  -20.8926  -12.2531 C   0  0  0  0  0  0  0  0  0  0  0  0
   21.5203  -21.7934  -11.8842 O   0  0  0  0  0  0  0  0  0  0  0  0
   22.1030  -19.9320  -12.9991 O   0  0  0  0  0  0  0  0  0  0  0  0
  2  3  1  0
  2  1  1  1
  3  4  1  0
  4  8  1  0
  4  5  2  0
  6  9  1  0
  6  2  1  0
  7  6  2  0
 10  9  1  0
 11 10  1  0
 11 18  1  0
 12 11  2  0
 13 14  1  0
 14 15  2  0
 14 16  1  0
 17 16  1  1
 17 18  1  0
 17 19  1  0
 19 21  2  0
 19 20  1  0
M  END
$$$$
