DNQ.pdb
     RDKit          3D

 26 25  0  0  1  0  0  0  0  0999 V2000
   13.5694  -19.6624   17.8763 N   0  0  0  0  0  0  0  0  0  0  0  0
   14.0101  -18.3070   17.7887 C   0  0  1  0  0  0  0  0  0  0  0  0
   13.7128  -17.6163   16.4951 C   0  0  0  0  0  0  0  0  0  0  0  0
   14.5420  -18.1297   15.4001 C   0  0  0  0  0  0  0  0  0  0  0  0
   15.2452  -19.1489   15.5712 O   0  0  0  0  0  0  0  0  0  0  0  0
   13.5216  -17.5493   18.9634 C   0  0  0  0  0  0  0  0  0  0  0  0
   13.8270  -16.3388   19.1656 O   0  0  0  0  0  0  0  0  0  0  0  0
   14.5392  -17.4741   14.1721 O   0  0  0  0  0  0  0  0  0  0  0  0
   10.7818  -16.3243   23.2197 N   0  0  0  0  0  0  0  0  0  0  0  0
   10.0911  -17.3040   22.4326 C   0  0  0  0  0  0  0  0  0  0  0  0
    8.9281  -17.6511   22.6942 O   0  0  0  0  0  0  0  0  0  0  0  0
   10.8048  -17.8901   21.2987 C   0  0  0  0  0  0  0  0  0  0  0  0
   12.2167  -17.4541   21.1084 C   0  0  2  0  0  0  0  0  0  0  0  0
   12.6845  -18.1784   19.9050 N   0  0  0  0  0  0  0  0  0  0  0  0
   13.1252  -17.8693   22.2311 C   0  0  0  0  0  0  0  0  0  0  0  0
   13.5497  -19.0368   22.3895 O   0  0  0  0  0  0  0  0  0  0  0  0
   18.8674  -16.4645   23.6825 N   0  0  0  0  0  0  0  0  0  0  0  0
   17.7161  -15.9137   23.0575 C   0  0  0  0  0  0  0  0  0  0  0  0
   17.7719  -14.7800   22.5210 O   0  0  0  0  0  0  0  0  0  0  0  0
   16.4239  -16.6804   23.0325 C   0  0  0  0  0  0  0  0  0  0  0  0
   15.7109  -16.5500   24.3625 C   0  0  0  0  0  0  0  0  0  0  0  0
   14.4192  -17.3192   24.3263 C   0  0  2  0  0  0  0  0  0  0  0  0
   13.5769  -16.9294   23.2201 N   0  0  0  0  0  0  0  0  0  0  0  0
   13.6798  -17.1326   25.6037 C   0  0  0  0  0  0  0  0  0  0  0  0
   12.5600  -16.5600   25.6301 O   0  0  0  0  0  0  0  0  0  0  0  0
   14.1827  -17.5762   26.8196 O   0  0  0  0  0  0  0  0  0  0  0  0
  2  3  1  0
  2  1  1  6
  3  4  1  0
  4  8  1  0
  5  4  2  0
  6  2  1  0
  7  6  2  0
  9 10  1  0
 10 12  1  0
 11 10  2  0
 13 12  1  1
 13 14  1  0
 14  6  1  0
 15 13  1  0
 15 16  2  0
 18 17  1  0
 19 18  2  0
 20 18  1  0
 22 21  1  1
 21 20  1  0
 22 23  1  0
 23 15  1  0
 24 22  1  0
 25 24  2  0
 26 24  1  0
M  END
$$$$
