DNQ.pdb
     RDKit          3D

 26 25  0  0  1  0  0  0  0  0999 V2000
   11.9483  -16.3774   17.6216 N   0  0  0  0  0  0  0  0  0  0  0  0
   12.8170  -15.3777   18.1554 C   0  0  1  0  0  0  0  0  0  0  0  0
   13.4356  -14.4592   17.1491 C   0  0  0  0  0  0  0  0  0  0  0  0
   14.2186  -15.1934   16.1501 C   0  0  0  0  0  0  0  0  0  0  0  0
   13.9983  -16.4074   15.9496 O   0  0  0  0  0  0  0  0  0  0  0  0
   12.1252  -14.6477   19.2421 C   0  0  0  0  0  0  0  0  0  0  0  0
   12.7081  -13.7830   19.9577 O   0  0  0  0  0  0  0  0  0  0  0  0
   15.2064  -14.5285   15.4290 O   0  0  0  0  0  0  0  0  0  0  0  0
    8.6608  -12.0228   18.4619 N   0  0  0  0  0  0  0  0  0  0  0  0
    8.5870  -13.4428   18.6473 C   0  0  0  0  0  0  0  0  0  0  0  0
    8.4559  -14.2213   17.6890 O   0  0  0  0  0  0  0  0  0  0  0  0
    8.6715  -13.9546   20.0147 C   0  0  0  0  0  0  0  0  0  0  0  0
   10.0424  -14.1608   20.5605 C   0  0  2  0  0  0  0  0  0  0  0  0
   10.7672  -14.9088   19.5085 N   0  0  0  0  0  0  0  0  0  0  0  0
   10.0710  -15.0254   21.7893 C   0  0  0  0  0  0  0  0  0  0  0  0
    9.4170  -14.7817   22.8291 O   0  0  0  0  0  0  0  0  0  0  0  0
   10.8547  -21.1611   22.0639 N   0  0  0  0  0  0  0  0  0  0  0  0
    9.8807  -20.3110   21.4740 C   0  0  0  0  0  0  0  0  0  0  0  0
    9.0126  -20.7876   20.7023 O   0  0  0  0  0  0  0  0  0  0  0  0
    9.8797  -18.8370   21.7671 C   0  0  0  0  0  0  0  0  0  0  0  0
   10.9848  -18.4962   22.7453 C   0  0  0  0  0  0  0  0  0  0  0  0
   10.9627  -17.0231   23.0467 C   0  0  2  0  0  0  0  0  0  0  0  0
   10.8710  -16.2177   21.8516 N   0  0  0  0  0  0  0  0  0  0  0  0
   12.1810  -16.6416   23.8106 C   0  0  0  0  0  0  0  0  0  0  0  0
   13.0217  -15.8355   23.3352 O   0  0  0  0  0  0  0  0  0  0  0  0
   12.4497  -17.1505   25.0743 O   0  0  0  0  0  0  0  0  0  0  0  0
  2  3  1  0
  2  1  1  6
  3  4  1  0
  4  8  1  0
  5  4  2  0
  6  2  1  0
  7  6  2  0
  9 10  1  0
 10 12  1  0
 11 10  2  0
 13 12  1  6
 13 14  1  0
 14  6  1  0
 15 13  1  0
 15 16  2  0
 18 17  1  0
 19 18  2  0
 20 18  1  0
 22 21  1  6
 21 20  1  0
 22 23  1  0
 23 15  1  0
 24 22  1  0
 25 24  2  0
 26 24  1  0
M  END
$$$$
