DNQ.pdb
     RDKit          3D

 26 25  0  0  1  0  0  0  0  0999 V2000
    9.9791  -17.8541   18.9195 N   0  0  0  0  0  0  0  0  0  0  0  0
    9.1287  -16.7077   18.9589 C   0  0  1  0  0  0  0  0  0  0  0  0
    8.1874  -16.5650   17.8046 C   0  0  0  0  0  0  0  0  0  0  0  0
    8.7614  -17.0969   16.5645 C   0  0  0  0  0  0  0  0  0  0  0  0
    9.7777  -17.8236   16.6055 O   0  0  0  0  0  0  0  0  0  0  0  0
    8.4377  -16.6469   20.2671 C   0  0  0  0  0  0  0  0  0  0  0  0
    7.7001  -15.6753   20.6011 O   0  0  0  0  0  0  0  0  0  0  0  0
    8.1664  -16.7865   15.3450 O   0  0  0  0  0  0  0  0  0  0  0  0
    7.1922  -20.4597   24.7101 N   0  0  0  0  0  0  0  0  0  0  0  0
    6.7629  -19.2768   24.0224 C   0  0  0  0  0  0  0  0  0  0  0  0
    5.9244  -18.5034   24.5127 O   0  0  0  0  0  0  0  0  0  0  0  0
    7.3484  -19.0037   22.7104 C   0  0  0  0  0  0  0  0  0  0  0  0
    7.9336  -17.6474   22.5162 C   0  0  2  0  0  0  0  0  0  0  0  0
    8.5922  -17.6982   21.1913 N   0  0  0  0  0  0  0  0  0  0  0  0
    9.0101  -17.3146   23.5105 C   0  0  0  0  0  0  0  0  0  0  0  0
   10.2264  -17.5496   23.3265 O   0  0  0  0  0  0  0  0  0  0  0  0
    8.7776  -13.0746   28.2888 N   0  0  0  0  0  0  0  0  0  0  0  0
   10.0245  -13.7306   28.4745 C   0  0  0  0  0  0  0  0  0  0  0  0
   10.7769  -13.3973   29.4227 O   0  0  0  0  0  0  0  0  0  0  0  0
   10.4538  -14.8269   27.5405 C   0  0  0  0  0  0  0  0  0  0  0  0
    9.3430  -15.1468   26.5617 C   0  0  0  0  0  0  0  0  0  0  0  0
    9.7308  -16.3307   25.7194 C   0  0  2  0  0  0  0  0  0  0  0  0
    8.7053  -16.6895   24.7682 N   0  0  0  0  0  0  0  0  0  0  0  0
   10.0310  -17.4987   26.5906 C   0  0  0  0  0  0  0  0  0  0  0  0
    9.1515  -18.3596   26.8512 O   0  0  0  0  0  0  0  0  0  0  0  0
   11.2842  -17.6963   27.1548 O   0  0  0  0  0  0  0  0  0  0  0  0
  2  3  1  0
  2  1  1  6
  3  4  1  0
  4  8  1  0
  5  4  2  0
  6  2  1  0
  7  6  2  0
  9 10  1  0
 10 12  1  0
 11 10  2  0
 13 12  1  1
 13 14  1  0
 14  6  1  0
 15 13  1  0
 15 16  2  0
 18 17  1  0
 19 18  2  0
 20 18  1  0
 22 21  1  1
 21 20  1  0
 22 23  1  0
 23 15  1  0
 24 22  1  0
 25 24  2  0
 26 24  1  0
M  END
$$$$
