DNQ.pdb
     RDKit          3D

 26 25  0  0  1  0  0  0  0  0999 V2000
    9.0472  -15.8875   18.9421 N   0  0  0  0  0  0  0  0  0  0  0  0
    8.6728  -14.6369   19.5209 C   0  0  1  0  0  0  0  0  0  0  0  0
    7.7153  -13.8164   18.7154 C   0  0  0  0  0  0  0  0  0  0  0  0
    8.1013  -13.7599   17.3019 C   0  0  0  0  0  0  0  0  0  0  0  0
    9.1040  -14.3891   16.9004 O   0  0  0  0  0  0  0  0  0  0  0  0
    8.2082  -14.8523   20.9103 C   0  0  0  0  0  0  0  0  0  0  0  0
    7.8188  -13.9038   21.6507 O   0  0  0  0  0  0  0  0  0  0  0  0
    7.3435  -13.0018   16.4138 O   0  0  0  0  0  0  0  0  0  0  0  0
    5.2025  -17.7249   20.8999 N   0  0  0  0  0  0  0  0  0  0  0  0
    5.4887  -17.3376   22.2506 C   0  0  0  0  0  0  0  0  0  0  0  0
    4.6283  -16.8148   22.9771 O   0  0  0  0  0  0  0  0  0  0  0  0
    6.8402  -17.5791   22.7544 C   0  0  0  0  0  0  0  0  0  0  0  0
    7.7369  -16.3922   22.8389 C   0  0  2  0  0  0  0  0  0  0  0  0
    8.1906  -16.1528   21.4502 N   0  0  0  0  0  0  0  0  0  0  0  0
    8.9766  -16.6383   23.6517 C   0  0  0  0  0  0  0  0  0  0  0  0
   10.1015  -16.1663   23.3686 O   0  0  0  0  0  0  0  0  0  0  0  0
    8.6361  -13.3020   27.7092 N   0  0  0  0  0  0  0  0  0  0  0  0
    9.6829  -14.0472   28.3161 C   0  0  0  0  0  0  0  0  0  0  0  0
   10.3489  -13.5478   29.2559 O   0  0  0  0  0  0  0  0  0  0  0  0
   10.0023  -15.4365   27.8406 C   0  0  0  0  0  0  0  0  0  0  0  0
    9.3310  -15.7023   26.5091 C   0  0  0  0  0  0  0  0  0  0  0  0
    9.6674  -17.0897   26.0363 C   0  0  2  0  0  0  0  0  0  0  0  0
    8.9502  -17.4517   24.8364 N   0  0  0  0  0  0  0  0  0  0  0  0
    9.3728  -18.0781   27.1085 C   0  0  0  0  0  0  0  0  0  0  0  0
   10.1075  -18.1743   28.1250 O   0  0  0  0  0  0  0  0  0  0  0  0
    8.2831  -18.9362   27.0426 O   0  0  0  0  0  0  0  0  0  0  0  0
  2  3  1  0
  2  1  1  6
  3  4  1  0
  4  8  1  0
  5  4  2  0
  6  2  1  0
  7  6  2  0
  9 10  1  0
 10 12  1  0
 11 10  2  0
 13 12  1  6
 13 14  1  0
 14  6  1  0
 15 13  1  0
 15 16  2  0
 18 17  1  0
 19 18  2  0
 20 18  1  0
 22 21  1  1
 21 20  1  0
 22 23  1  0
 23 15  1  0
 24 22  1  0
 25 24  2  0
 26 24  1  0
M  END
$$$$
