DNQ.pdb
     RDKit          3D

 26 25  0  0  1  0  0  0  0  0999 V2000
   12.9506  -17.2695   18.9539 N   0  0  0  0  0  0  0  0  0  0  0  0
   12.0689  -17.8958   19.8863 C   0  0  1  0  0  0  0  0  0  0  0  0
   12.5449  -19.1992   20.4460 C   0  0  0  0  0  0  0  0  0  0  0  0
   12.8665  -20.1617   19.3876 C   0  0  0  0  0  0  0  0  0  0  0  0
   12.0568  -20.3638   18.4570 O   0  0  0  0  0  0  0  0  0  0  0  0
   11.6928  -16.9272   20.9414 C   0  0  0  0  0  0  0  0  0  0  0  0
   12.4331  -15.9542   21.2651 O   0  0  0  0  0  0  0  0  0  0  0  0
   14.0779  -20.8463   19.4281 O   0  0  0  0  0  0  0  0  0  0  0  0
    8.1245  -13.8169   23.6261 N   0  0  0  0  0  0  0  0  0  0  0  0
    7.9095  -15.2345   23.6018 C   0  0  0  0  0  0  0  0  0  0  0  0
    7.1751  -15.7986   24.4289 O   0  0  0  0  0  0  0  0  0  0  0  0
    8.5884  -16.0067   22.5619 C   0  0  0  0  0  0  0  0  0  0  0  0
   10.0698  -16.1152   22.6790 C   0  0  2  0  0  0  0  0  0  0  0  0
   10.4702  -17.0740   21.6245 N   0  0  0  0  0  0  0  0  0  0  0  0
   10.5228  -16.7083   23.9833 C   0  0  0  0  0  0  0  0  0  0  0  0
   10.1842  -17.8440   24.3882 O   0  0  0  0  0  0  0  0  0  0  0  0
   10.3525  -12.9738   28.6342 N   0  0  0  0  0  0  0  0  0  0  0  0
   10.4459  -14.2215   29.3079 C   0  0  0  0  0  0  0  0  0  0  0  0
   10.2066  -14.2928   30.5383 O   0  0  0  0  0  0  0  0  0  0  0  0
   10.8309  -15.4648   28.5565 C   0  0  0  0  0  0  0  0  0  0  0  0
   10.5907  -15.2764   27.0730 C   0  0  0  0  0  0  0  0  0  0  0  0
   11.4303  -16.2500   26.2927 C   0  0  2  0  0  0  0  0  0  0  0  0
   11.3959  -15.9921   24.8724 N   0  0  0  0  0  0  0  0  0  0  0  0
   10.9736  -17.6412   26.5564 C   0  0  0  0  0  0  0  0  0  0  0  0
    9.8625  -18.0527   26.1336 O   0  0  0  0  0  0  0  0  0  0  0  0
   11.7423  -18.5470   27.2750 O   0  0  0  0  0  0  0  0  0  0  0  0
  2  3  1  0
  2  1  1  1
  3  4  1  0
  4  8  1  0
  5  4  2  0
  6  2  1  0
  7  6  2  0
  9 10  1  0
 10 12  1  0
 11 10  2  0
 13 12  1  1
 13 14  1  0
 14  6  1  0
 15 13  1  0
 15 16  2  0
 18 17  1  0
 19 18  2  0
 20 18  1  0
 22 21  1  1
 21 20  1  0
 22 23  1  0
 23 15  1  0
 24 22  1  0
 25 24  2  0
 26 24  1  0
M  END
$$$$
