DNQ.pdb
     RDKit          3D

 26 25  0  0  1  0  0  0  0  0999 V2000
   15.0579  -18.7178   18.0786 N   0  0  0  0  0  0  0  0  0  0  0  0
   14.2977  -17.9895   17.1139 C   0  0  1  0  0  0  0  0  0  0  0  0
   14.1050  -18.6736   15.7972 C   0  0  0  0  0  0  0  0  0  0  0  0
   15.2839  -18.5392   14.9356 C   0  0  0  0  0  0  0  0  0  0  0  0
   16.2836  -17.9043   15.3358 O   0  0  0  0  0  0  0  0  0  0  0  0
   13.0197  -17.5494   17.7185 C   0  0  0  0  0  0  0  0  0  0  0  0
   12.3212  -16.6168   17.2265 O   0  0  0  0  0  0  0  0  0  0  0  0
   15.2801  -19.1231   13.6720 O   0  0  0  0  0  0  0  0  0  0  0  0
    9.3699  -19.4166   17.6998 N   0  0  0  0  0  0  0  0  0  0  0  0
   10.2434  -19.9260   18.7166 C   0  0  0  0  0  0  0  0  0  0  0  0
   10.7142  -21.0734   18.6594 O   0  0  0  0  0  0  0  0  0  0  0  0
   10.5680  -19.0442   19.8372 C   0  0  0  0  0  0  0  0  0  0  0  0
   11.2583  -17.7684   19.4969 C   0  0  2  0  0  0  0  0  0  0  0  0
   12.5432  -18.1770   18.8857 N   0  0  0  0  0  0  0  0  0  0  0  0
   11.6079  -16.9402   20.7011 C   0  0  0  0  0  0  0  0  0  0  0  0
   10.7758  -16.2637   21.3479 O   0  0  0  0  0  0  0  0  0  0  0  0
   11.7855  -18.7719   25.7234 N   0  0  0  0  0  0  0  0  0  0  0  0
   12.4979  -17.5867   26.0511 C   0  0  0  0  0  0  0  0  0  0  0  0
   12.6739  -17.2692   27.2530 O   0  0  0  0  0  0  0  0  0  0  0  0
   13.0463  -16.7040   24.9655 C   0  0  0  0  0  0  0  0  0  0  0  0
   12.7147  -17.2795   23.6042 C   0  0  0  0  0  0  0  0  0  0  0  0
   13.2599  -16.3845   22.5257 C   0  0  2  0  0  0  0  0  0  0  0  0
   12.9537  -16.8695   21.2005 N   0  0  0  0  0  0  0  0  0  0  0  0
   14.7335  -16.2459   22.6759 C   0  0  0  0  0  0  0  0  0  0  0  0
   15.2330  -15.6217   23.6473 O   0  0  0  0  0  0  0  0  0  0  0  0
   15.6236  -16.7926   21.7612 O   0  0  0  0  0  0  0  0  0  0  0  0
  2  3  1  0
  2  1  1  1
  3  4  1  0
  4  8  1  0
  5  4  2  0
  6  2  1  0
  7  6  2  0
  9 10  1  0
 10 12  1  0
 11 10  2  0
 13 12  1  1
 13 14  1  0
 14  6  1  0
 15 13  1  0
 15 16  2  0
 18 17  1  0
 19 18  2  0
 20 18  1  0
 22 21  1  1
 21 20  1  0
 22 23  1  0
 23 15  1  0
 24 22  1  0
 25 24  2  0
 26 24  1  0
M  END
$$$$
