DNQ.pdb
     RDKit          3D

 26 25  0  0  1  0  0  0  0  0999 V2000
    8.7743  -18.3759   17.8881 N   0  0  0  0  0  0  0  0  0  0  0  0
    8.6327  -16.9669   18.0722 C   0  0  1  0  0  0  0  0  0  0  0  0
    7.6865  -16.2874   17.1332 C   0  0  0  0  0  0  0  0  0  0  0  0
    8.1700  -16.3268   15.7494 C   0  0  0  0  0  0  0  0  0  0  0  0
    8.7757  -17.3347   15.3255 O   0  0  0  0  0  0  0  0  0  0  0  0
    8.3283  -16.6800   19.4927 C   0  0  0  0  0  0  0  0  0  0  0  0
    8.1638  -15.5040   19.9278 O   0  0  0  0  0  0  0  0  0  0  0  0
    7.9492  -15.2351   14.9144 O   0  0  0  0  0  0  0  0  0  0  0  0
    7.6642  -18.5721   24.7011 N   0  0  0  0  0  0  0  0  0  0  0  0
    6.6345  -18.3016   23.7403 C   0  0  0  0  0  0  0  0  0  0  0  0
    5.4783  -18.0095   24.0859 O   0  0  0  0  0  0  0  0  0  0  0  0
    6.9896  -18.3805   22.3239 C   0  0  0  0  0  0  0  0  0  0  0  0
    8.0791  -17.4745   21.8633 C   0  0  2  0  0  0  0  0  0  0  0  0
    8.2132  -17.7397   20.4130 N   0  0  0  0  0  0  0  0  0  0  0  0
    9.4149  -17.7893   22.4755 C   0  0  0  0  0  0  0  0  0  0  0  0
    9.8911  -18.9449   22.5545 O   0  0  0  0  0  0  0  0  0  0  0  0
   13.3961  -14.2356   21.1567 N   0  0  0  0  0  0  0  0  0  0  0  0
   13.6289  -15.5979   20.8262 C   0  0  0  0  0  0  0  0  0  0  0  0
   14.1566  -15.8985   19.7275 O   0  0  0  0  0  0  0  0  0  0  0  0
   13.2470  -16.6895   21.7859 C   0  0  0  0  0  0  0  0  0  0  0  0
   12.6125  -16.0978   23.0275 C   0  0  0  0  0  0  0  0  0  0  0  0
   11.5645  -17.0352   23.5608 C   0  0  2  0  0  0  0  0  0  0  0  0
   10.2531  -16.7583   23.0234 N   0  0  0  0  0  0  0  0  0  0  0  0
   11.5196  -16.9568   25.0458 C   0  0  0  0  0  0  0  0  0  0  0  0
   10.5279  -16.4634   25.6420 O   0  0  0  0  0  0  0  0  0  0  0  0
   12.5594  -17.4193   25.8413 O   0  0  0  0  0  0  0  0  0  0  0  0
  2  3  1  0
  2  1  1  1
  3  4  1  0
  4  8  1  0
  5  4  2  0
  6  2  1  0
  7  6  2  0
  9 10  1  0
 10 12  1  0
 11 10  2  0
 13 12  1  1
 13 14  1  0
 14  6  1  0
 15 13  1  0
 15 16  2  0
 18 17  1  0
 19 18  2  0
 20 18  1  0
 22 21  1  6
 21 20  1  0
 22 23  1  0
 23 15  1  0
 24 22  1  0
 25 24  2  0
 26 24  1  0
M  END
$$$$
