DNQ.pdb
     RDKit          3D

 26 25  0  0  1  0  0  0  0  0999 V2000
    8.8234  -19.2514   19.4795 N   0  0  0  0  0  0  0  0  0  0  0  0
    8.2289  -18.4370   20.4907 C   0  0  1  0  0  0  0  0  0  0  0  0
    8.0839  -19.0818   21.8331 C   0  0  0  0  0  0  0  0  0  0  0  0
    7.3243  -20.3338   21.7570 C   0  0  0  0  0  0  0  0  0  0  0  0
    6.9460  -20.7710   20.6487 O   0  0  0  0  0  0  0  0  0  0  0  0
    8.9329  -17.1360   20.5578 C   0  0  0  0  0  0  0  0  0  0  0  0
   10.1242  -16.9873   20.1602 O   0  0  0  0  0  0  0  0  0  0  0  0
    7.0292  -21.0291   22.9263 O   0  0  0  0  0  0  0  0  0  0  0  0
    7.8165  -12.1734   18.7319 N   0  0  0  0  0  0  0  0  0  0  0  0
    7.6497  -13.5092   19.2262 C   0  0  0  0  0  0  0  0  0  0  0  0
    7.3630  -14.4539   18.4732 O   0  0  0  0  0  0  0  0  0  0  0  0
    7.8291  -13.7300   20.6607 C   0  0  0  0  0  0  0  0  0  0  0  0
    8.9132  -14.6731   21.0545 C   0  0  2  0  0  0  0  0  0  0  0  0
    8.2723  -16.0074   21.0801 N   0  0  0  0  0  0  0  0  0  0  0  0
    9.4396  -14.4307   22.4410 C   0  0  0  0  0  0  0  0  0  0  0  0
   10.0410  -13.3880   22.7864 O   0  0  0  0  0  0  0  0  0  0  0  0
    5.9570  -12.4571   25.8837 N   0  0  0  0  0  0  0  0  0  0  0  0
    6.9105  -12.7627   26.8921 C   0  0  0  0  0  0  0  0  0  0  0  0
    6.8421  -12.2038   28.0142 O   0  0  0  0  0  0  0  0  0  0  0  0
    8.0072  -13.7551   26.6263 C   0  0  0  0  0  0  0  0  0  0  0  0
    8.0077  -14.1576   25.1661 C   0  0  0  0  0  0  0  0  0  0  0  0
    9.1957  -15.0338   24.8790 C   0  0  2  0  0  0  0  0  0  0  0  0
    9.2827  -15.4048   23.4862 N   0  0  0  0  0  0  0  0  0  0  0  0
    9.1370  -16.2615   25.7174 C   0  0  0  0  0  0  0  0  0  0  0  0
    9.1361  -16.1926   26.9735 O   0  0  0  0  0  0  0  0  0  0  0  0
    9.0809  -17.5329   25.1620 O   0  0  0  0  0  0  0  0  0  0  0  0
  2  3  1  0
  2  1  1  6
  3  4  1  0
  4  8  1  0
  5  4  2  0
  6  2  1  0
  7  6  2  0
  9 10  1  0
 10 12  1  0
 11 10  2  0
 13 12  1  1
 13 14  1  0
 14  6  1  0
 15 13  1  0
 15 16  2  0
 18 17  1  0
 19 18  2  0
 20 18  1  0
 22 21  1  6
 21 20  1  0
 22 23  1  0
 23 15  1  0
 24 22  1  0
 25 24  2  0
 26 24  1  0
M  END
$$$$
