DNQ.pdb
     RDKit          3D

 26 25  0  0  1  0  0  0  0  0999 V2000
   14.4400  -15.4876   20.4676 N   0  0  0  0  0  0  0  0  0  0  0  0
   13.1977  -14.9403   20.0246 C   0  0  1  0  0  0  0  0  0  0  0  0
   13.0071  -14.8953   18.5412 C   0  0  0  0  0  0  0  0  0  0  0  0
   14.0924  -14.1689   17.8743 C   0  0  0  0  0  0  0  0  0  0  0  0
   15.2375  -14.1544   18.3753 O   0  0  0  0  0  0  0  0  0  0  0  0
   12.0804  -15.6177   20.7213 C   0  0  0  0  0  0  0  0  0  0  0  0
   10.8769  -15.2516   20.5904 O   0  0  0  0  0  0  0  0  0  0  0  0
   13.8369  -13.4976   16.6819 O   0  0  0  0  0  0  0  0  0  0  0  0
    9.9046  -18.2714   20.1853 N   0  0  0  0  0  0  0  0  0  0  0  0
   10.5956  -19.2411   20.9845 C   0  0  0  0  0  0  0  0  0  0  0  0
   10.5799  -20.4504   20.7038 O   0  0  0  0  0  0  0  0  0  0  0  0
   11.3286  -18.7589   22.1545 C   0  0  0  0  0  0  0  0  0  0  0  0
   11.2734  -17.2924   22.4117 C   0  0  2  0  0  0  0  0  0  0  0  0
   12.3422  -16.7128   21.5670 N   0  0  0  0  0  0  0  0  0  0  0  0
   11.6084  -16.9228   23.8293 C   0  0  0  0  0  0  0  0  0  0  0  0
   12.7728  -16.9094   24.2901 O   0  0  0  0  0  0  0  0  0  0  0  0
    9.7335  -13.0452   27.6087 N   0  0  0  0  0  0  0  0  0  0  0  0
   10.1432  -13.9701   28.6067 C   0  0  0  0  0  0  0  0  0  0  0  0
   10.5523  -13.5566   29.7193 O   0  0  0  0  0  0  0  0  0  0  0  0
   10.0913  -15.4484   28.3411 C   0  0  0  0  0  0  0  0  0  0  0  0
    9.7117  -15.7089   26.8982 C   0  0  0  0  0  0  0  0  0  0  0  0
   10.8749  -16.3205   26.1672 C   0  0  2  0  0  0  0  0  0  0  0  0
   10.5881  -16.5517   24.7710 N   0  0  0  0  0  0  0  0  0  0  0  0
   11.2647  -17.6027   26.8133 C   0  0  0  0  0  0  0  0  0  0  0  0
   10.5713  -18.6422   26.6678 O   0  0  0  0  0  0  0  0  0  0  0  0
   12.4019  -17.7164   27.6018 O   0  0  0  0  0  0  0  0  0  0  0  0
  2  3  1  0
  2  1  1  6
  3  4  1  0
  4  8  1  0
  5  4  2  0
  6  2  1  0
  7  6  2  0
  9 10  1  0
 10 12  1  0
 11 10  2  0
 13 12  1  1
 13 14  1  0
 14  6  1  0
 15 13  1  0
 15 16  2  0
 18 17  1  0
 19 18  2  0
 20 18  1  0
 22 21  1  1
 21 20  1  0
 22 23  1  0
 23 15  1  0
 24 22  1  0
 25 24  2  0
 26 24  1  0
M  END
$$$$
