DNQ.pdb
     RDKit          3D

 26 25  0  0  1  0  0  0  0  0999 V2000
   14.4761  -23.2010   25.6875 N   0  0  0  0  0  0  0  0  0  0  0  0
   15.3170  -22.0534   25.5655 C   0  0  1  0  0  0  0  0  0  0  0  0
   16.0618  -21.9362   24.2731 C   0  0  0  0  0  0  0  0  0  0  0  0
   16.7983  -23.1637   23.9554 C   0  0  0  0  0  0  0  0  0  0  0  0
   16.7897  -23.6160   22.7901 O   0  0  0  0  0  0  0  0  0  0  0  0
   14.5420  -20.8336   25.8880 C   0  0  0  0  0  0  0  0  0  0  0  0
   14.6506  -19.7641   25.2217 O   0  0  0  0  0  0  0  0  0  0  0  0
   17.5051  -23.8189   24.9599 O   0  0  0  0  0  0  0  0  0  0  0  0
   11.7450  -19.3078   23.5893 N   0  0  0  0  0  0  0  0  0  0  0  0
   12.0953  -18.8679   24.9085 C   0  0  0  0  0  0  0  0  0  0  0  0
   12.6498  -17.7749   25.1074 O   0  0  0  0  0  0  0  0  0  0  0  0
   11.7767  -19.7544   26.0270 C   0  0  0  0  0  0  0  0  0  0  0  0
   12.7077  -19.7136   27.1896 C   0  0  2  0  0  0  0  0  0  0  0  0
   13.6440  -20.8396   26.9728 N   0  0  0  0  0  0  0  0  0  0  0  0
   12.0302  -19.9750   28.5053 C   0  0  0  0  0  0  0  0  0  0  0  0
   11.0957  -19.2761   28.9597 O   0  0  0  0  0  0  0  0  0  0  0  0
    9.8685  -25.2733   28.9016 N   0  0  0  0  0  0  0  0  0  0  0  0
   10.8018  -24.9955   29.9366 C   0  0  0  0  0  0  0  0  0  0  0  0
   10.9396  -25.7973   30.8927 O   0  0  0  0  0  0  0  0  0  0  0  0
   11.6309  -23.7427   29.8972 C   0  0  0  0  0  0  0  0  0  0  0  0
   10.8501  -22.5789   30.4719 C   0  0  0  0  0  0  0  0  0  0  0  0
   11.7417  -21.3733   30.5858 C   0  0  2  0  0  0  0  0  0  0  0  0
   12.4212  -21.0717   29.3479 N   0  0  0  0  0  0  0  0  0  0  0  0
   12.7444  -21.5819   31.6649 C   0  0  0  0  0  0  0  0  0  0  0  0
   13.9783  -21.5270   31.4265 O   0  0  0  0  0  0  0  0  0  0  0  0
   12.3733  -21.8452   32.9768 O   0  0  0  0  0  0  0  0  0  0  0  0
  2  3  1  0
  2  1  1  6
  3  4  1  0
  4  8  1  0
  5  4  2  0
  6  2  1  0
  7  6  2  0
  9 10  1  0
 10 12  1  0
 11 10  2  0
 13 12  1  6
 13 14  1  0
 14  6  1  0
 15 13  1  0
 15 16  2  0
 18 17  1  0
 19 18  2  0
 20 18  1  0
 22 21  1  6
 21 20  1  0
 22 23  1  0
 23 15  1  0
 24 22  1  0
 25 24  2  0
 26 24  1  0
M  END
$$$$
