DNQ.pdb
     RDKit          3D

 26 25  0  0  1  0  0  0  0  0999 V2000
    9.4019  -19.1007   15.8665 N   0  0  0  0  0  0  0  0  0  0  0  0
    9.5574  -17.6827   15.9323 C   0  0  1  0  0  0  0  0  0  0  0  0
    8.7519  -16.9007   14.9430 C   0  0  0  0  0  0  0  0  0  0  0  0
    9.1663  -17.1763   13.5637 C   0  0  0  0  0  0  0  0  0  0  0  0
    9.5597  -16.2444   12.8294 O   0  0  0  0  0  0  0  0  0  0  0  0
    9.3486  -17.2245   17.3248 C   0  0  0  0  0  0  0  0  0  0  0  0
    9.5154  -16.0210   17.6758 O   0  0  0  0  0  0  0  0  0  0  0  0
    9.1178  -18.4809   13.0807 O   0  0  0  0  0  0  0  0  0  0  0  0
    9.0305  -20.5032   19.6152 N   0  0  0  0  0  0  0  0  0  0  0  0
    7.8154  -19.9881   20.1761 C   0  0  0  0  0  0  0  0  0  0  0  0
    6.9157  -20.7384   20.5875 O   0  0  0  0  0  0  0  0  0  0  0  0
    7.6642  -18.5355   20.2509 C   0  0  0  0  0  0  0  0  0  0  0  0
    8.7978  -17.7242   19.7248 C   0  0  2  0  0  0  0  0  0  0  0  0
    8.9496  -18.1446   18.3134 N   0  0  0  0  0  0  0  0  0  0  0  0
   10.1077  -18.0233   20.3978 C   0  0  0  0  0  0  0  0  0  0  0  0
   10.8576  -18.9725   20.0739 O   0  0  0  0  0  0  0  0  0  0  0  0
   15.1471  -15.0048   20.2570 N   0  0  0  0  0  0  0  0  0  0  0  0
   15.1702  -15.4166   21.6169 C   0  0  0  0  0  0  0  0  0  0  0  0
   15.9686  -14.8807   22.4241 O   0  0  0  0  0  0  0  0  0  0  0  0
   14.2418  -16.4945   22.1012 C   0  0  0  0  0  0  0  0  0  0  0  0
   12.8284  -16.2192   21.6316 C   0  0  0  0  0  0  0  0  0  0  0  0
   11.9323  -17.3655   22.0118 C   0  0  2  0  0  0  0  0  0  0  0  0
   10.5963  -17.2188   21.4839 N   0  0  0  0  0  0  0  0  0  0  0  0
   11.8701  -17.4935   23.4927 C   0  0  0  0  0  0  0  0  0  0  0  0
   10.8916  -17.0457   24.1443 O   0  0  0  0  0  0  0  0  0  0  0  0
   12.8785  -18.1073   24.2238 O   0  0  0  0  0  0  0  0  0  0  0  0
  2  3  1  0
  2  1  1  1
  3  4  1  0
  4  8  1  0
  5  4  2  0
  6  2  1  0
  7  6  2  0
  9 10  1  0
 10 12  1  0
 11 10  2  0
 13 12  1  1
 13 14  1  0
 14  6  1  0
 15 13  1  0
 15 16  2  0
 18 17  1  0
 19 18  2  0
 20 18  1  0
 22 21  1  1
 21 20  1  0
 22 23  1  0
 23 15  1  0
 24 22  1  0
 25 24  2  0
 26 24  1  0
M  END
$$$$
