DNQ.pdb
     RDKit          3D

 26 25  0  0  1  0  0  0  0  0999 V2000
   13.7092  -17.7427   20.8163 N   0  0  0  0  0  0  0  0  0  0  0  0
   12.3240  -17.5914   20.5043 C   0  0  1  0  0  0  0  0  0  0  0  0
   11.8848  -18.2052   19.2124 C   0  0  0  0  0  0  0  0  0  0  0  0
   12.6794  -17.7186   18.0801 C   0  0  0  0  0  0  0  0  0  0  0  0
   13.0252  -16.5186   18.0267 O   0  0  0  0  0  0  0  0  0  0  0  0
   11.5046  -18.0383   21.6539 C   0  0  0  0  0  0  0  0  0  0  0  0
   10.2457  -17.9191   21.6776 O   0  0  0  0  0  0  0  0  0  0  0  0
   13.0442  -18.6023   17.0682 O   0  0  0  0  0  0  0  0  0  0  0  0
   10.8074  -22.6309   24.9652 N   0  0  0  0  0  0  0  0  0  0  0  0
   10.9742  -21.2218   25.1720 C   0  0  0  0  0  0  0  0  0  0  0  0
   10.4857  -20.6430   26.1558 O   0  0  0  0  0  0  0  0  0  0  0  0
   11.7459  -20.4762   24.1784 C   0  0  0  0  0  0  0  0  0  0  0  0
   11.3305  -19.0653   23.9404 C   0  0  2  0  0  0  0  0  0  0  0  0
   12.1274  -18.6207   22.7747 N   0  0  0  0  0  0  0  0  0  0  0  0
   11.6842  -18.1409   25.0711 C   0  0  0  0  0  0  0  0  0  0  0  0
   12.8488  -17.7498   25.3141 O   0  0  0  0  0  0  0  0  0  0  0  0
    9.0341  -13.2321   29.9403 N   0  0  0  0  0  0  0  0  0  0  0  0
    9.2359  -13.7532   28.6337 C   0  0  0  0  0  0  0  0  0  0  0  0
    8.5007  -13.3812   27.6864 O   0  0  0  0  0  0  0  0  0  0  0  0
   10.3282  -14.7519   28.3734 C   0  0  0  0  0  0  0  0  0  0  0  0
    9.9149  -15.7058   27.2718 C   0  0  0  0  0  0  0  0  0  0  0  0
   11.0012  -16.7199   27.0412 C   0  0  2  0  0  0  0  0  0  0  0  0
   10.6833  -17.6334   25.9691 N   0  0  0  0  0  0  0  0  0  0  0  0
   11.2538  -17.4880   28.2900 C   0  0  0  0  0  0  0  0  0  0  0  0
   10.6731  -18.5821   28.5101 O   0  0  0  0  0  0  0  0  0  0  0  0
   12.1342  -17.0414   29.2664 O   0  0  0  0  0  0  0  0  0  0  0  0
  2  3  1  0
  2  1  1  1
  3  4  1  0
  4  8  1  0
  5  4  2  0
  6  2  1  0
  7  6  2  0
  9 10  1  0
 10 12  1  0
 11 10  2  0
 13 12  1  1
 13 14  1  0
 14  6  1  0
 15 13  1  0
 15 16  2  0
 18 17  1  0
 19 18  2  0
 20 18  1  0
 22 21  1  1
 21 20  1  0
 22 23  1  0
 23 15  1  0
 24 22  1  0
 25 24  2  0
 26 24  1  0
M  END
$$$$
