WQM.pdb
     RDKit          3D

 32 33  0  0  1  0  0  0  0  0999 V2000
    9.7197  -15.5128   22.3399 N   0  0  0  0  0  0  0  0  0  0  0  0
    8.9826  -15.7679   23.5530 C   0  0  1  0  0  0  0  0  0  0  0  0
    7.5115  -15.6602   23.2318 C   0  0  0  0  0  0  0  0  0  0  0  0
    7.1088  -14.2359   23.0002 C   0  0  0  0  0  0  0  0  0  0  0  0
    6.9953  -13.5966   21.7830 C   0  0  0  0  0  0  0  0  0  0  0  0
    6.6127  -12.3258   21.9910 N   0  0  0  0  0  0  0  0  0  0  0  0
    6.4646  -12.0893   23.3130 C   0  0  0  0  0  0  0  0  0  0  0  0
    6.0955  -10.9700   24.0255 C   0  0  0  0  0  0  0  0  0  0  0  0
    6.0338  -11.0408   25.3991 C   0  0  0  0  0  0  0  0  0  0  0  0
    6.3478  -12.2471   26.0240 C   0  0  0  0  0  0  0  0  0  0  0  0
    6.7179  -13.3712   25.3171 C   0  0  0  0  0  0  0  0  0  0  0  0
    6.7763  -13.2896   23.9491 C   0  0  0  0  0  0  0  0  0  0  0  0
    9.2683  -17.1341   24.0373 C   0  0  0  0  0  0  0  0  0  0  0  0
    8.4941  -17.6797   24.8744 O   0  0  0  0  0  0  0  0  0  0  0  0
   13.9859  -21.5018   22.9348 N   0  0  0  0  0  0  0  0  0  0  0  0
   13.5531  -20.4747   22.0691 C   0  0  0  0  0  0  0  0  0  0  0  0
   13.9665  -20.4751   20.8691 O   0  0  0  0  0  0  0  0  0  0  0  0
   12.6343  -19.3962   22.5091 C   0  0  0  0  0  0  0  0  0  0  0  0
   11.4402  -20.0063   23.1806 C   0  0  0  0  0  0  0  0  0  0  0  0
   10.8770  -19.0234   24.1647 C   0  0  2  0  0  0  0  0  0  0  0  0
   10.4168  -17.8111   23.5483 N   0  0  0  0  0  0  0  0  0  0  0  0
   11.8496  -18.7291   25.2643 C   0  0  0  0  0  0  0  0  0  0  0  0
   12.7352  -17.8172   25.1398 O   0  0  0  0  0  0  0  0  0  0  0  0
   10.8708  -13.5022   28.3914 C   0  0  0  0  0  0  0  0  0  0  0  0
   10.0530  -15.1283   28.2108 S   0  0  0  0  0  0  0  0  0  0  0  0
   11.3853  -16.3502   27.9792 C   0  0  0  0  0  0  0  0  0  0  0  0
   10.8157  -17.7378   27.8571 C   0  0  0  0  0  0  0  0  0  0  0  0
   11.9472  -18.7292   27.7581 C   0  0  2  0  0  0  0  0  0  0  0  0
   11.8614  -19.4252   26.5007 N   0  0  0  0  0  0  0  0  0  0  0  0
   11.8507  -19.7367   28.8499 C   0  0  0  0  0  0  0  0  0  0  0  0
   11.0208  -20.6881   28.8083 O   0  0  0  0  0  0  0  0  0  0  0  0
   12.6705  -19.6772   29.9672 O   0  0  0  0  0  0  0  0  0  0  0  0
  2  1  1  6
  2 13  1  0
  2  3  1  0
  3  4  1  0
  4  5  2  0
  6  5  1  0
  7  6  1  0
  8  7  2  0
  9  8  1  0
 10  9  2  0
 10 11  1  0
 11 12  2  0
 12  7  1  0
 12  4  1  0
 13 21  1  0
 14 13  2  0
 16 15  1  0
 16 18  1  0
 17 16  2  0
 19 18  1  0
 20 19  1  6
 21 20  1  0
 22 20  1  0
 23 22  2  0
 25 26  1  0
 25 24  1  0
 26 27  1  0
 28 27  1  1
 28 30  1  0
 28 29  1  0
 29 22  1  0
 30 32  1  0
 31 30  2  0
M  END
$$$$
