WQM.pdb
     RDKit          3D

 32 33  0  0  1  0  0  0  0  0999 V2000
    8.9269  -18.6193   18.9952 N   0  0  0  0  0  0  0  0  0  0  0  0
    8.9460  -17.4997   19.9040 C   0  0  1  0  0  0  0  0  0  0  0  0
    7.5639  -16.8927   19.9194 C   0  0  0  0  0  0  0  0  0  0  0  0
    7.5702  -15.5123   19.3372 C   0  0  0  0  0  0  0  0  0  0  0  0
    7.4084  -15.1747   18.0095 C   0  0  0  0  0  0  0  0  0  0  0  0
    7.4770  -13.8387   17.8869 N   0  0  0  0  0  0  0  0  0  0  0  0
    7.6803  -13.2652   19.0933 C   0  0  0  0  0  0  0  0  0  0  0  0
    7.8190  -11.9545   19.4924 C   0  0  0  0  0  0  0  0  0  0  0  0
    8.0207  -11.6783   20.8260 C   0  0  0  0  0  0  0  0  0  0  0  0
    8.0777  -12.7384   21.7300 C   0  0  0  0  0  0  0  0  0  0  0  0
    7.9397  -14.0526   21.3376 C   0  0  0  0  0  0  0  0  0  0  0  0
    7.7392  -14.3165   20.0064 C   0  0  0  0  0  0  0  0  0  0  0  0
    9.2807  -17.9633   21.2662 C   0  0  0  0  0  0  0  0  0  0  0  0
    8.6659  -18.9492   21.7642 O   0  0  0  0  0  0  0  0  0  0  0  0
   14.4219  -19.4043   23.5873 N   0  0  0  0  0  0  0  0  0  0  0  0
   14.2698  -18.1565   22.9458 C   0  0  0  0  0  0  0  0  0  0  0  0
   15.2935  -17.6040   22.4379 O   0  0  0  0  0  0  0  0  0  0  0  0
   12.9599  -17.4677   22.8434 C   0  0  0  0  0  0  0  0  0  0  0  0
   11.9130  -18.2894   23.5347 C   0  0  0  0  0  0  0  0  0  0  0  0
   10.5774  -17.6283   23.3590 C   0  0  2  0  0  0  0  0  0  0  0  0
   10.2944  -17.2855   21.9938 N   0  0  0  0  0  0  0  0  0  0  0  0
   10.4343  -16.4346   24.2515 C   0  0  0  0  0  0  0  0  0  0  0  0
   10.9166  -15.2988   23.9219 O   0  0  0  0  0  0  0  0  0  0  0  0
    6.8949  -11.6895   25.2813 C   0  0  0  0  0  0  0  0  0  0  0  0
    6.6787  -12.5895   26.8589 S   0  0  0  0  0  0  0  0  0  0  0  0
    8.2259  -13.5107   27.1408 C   0  0  0  0  0  0  0  0  0  0  0  0
    8.3771  -14.6139   26.1286 C   0  0  0  0  0  0  0  0  0  0  0  0
    9.6925  -15.3151   26.3550 C   0  0  2  0  0  0  0  0  0  0  0  0
    9.7671  -16.4733   25.5032 N   0  0  0  0  0  0  0  0  0  0  0  0
    9.7988  -15.7741   27.7672 C   0  0  0  0  0  0  0  0  0  0  0  0
    9.8434  -14.9598   28.7319 O   0  0  0  0  0  0  0  0  0  0  0  0
    9.8539  -17.1220   28.0903 O   0  0  0  0  0  0  0  0  0  0  0  0
  2  1  1  6
  2 13  1  0
  2  3  1  0
  3  4  1  0
  4  5  2  0
  6  5  1  0
  7  6  1  0
  8  7  2  0
  9  8  1  0
 10  9  2  0
 10 11  1  0
 11 12  2  0
 12  7  1  0
 12  4  1  0
 13 21  1  0
 14 13  2  0
 16 15  1  0
 16 18  1  0
 17 16  2  0
 19 18  1  0
 20 19  1  6
 21 20  1  0
 22 20  1  0
 23 22  2  0
 25 26  1  0
 25 24  1  0
 26 27  1  0
 28 27  1  1
 28 30  1  0
 28 29  1  0
 29 22  1  0
 30 32  1  0
 31 30  2  0
M  END
$$$$
