WQM.pdb
     RDKit          3D

 32 33  0  0  1  0  0  0  0  0999 V2000
    6.3638  -17.4509   24.6113 N   0  0  0  0  0  0  0  0  0  0  0  0
    7.1354  -16.5048   23.8436 C   0  0  1  0  0  0  0  0  0  0  0  0
    7.7917  -15.5497   24.8110 C   0  0  0  0  0  0  0  0  0  0  0  0
    6.7908  -14.6090   25.4090 C   0  0  0  0  0  0  0  0  0  0  0  0
    5.6691  -14.9488   26.1365 C   0  0  0  0  0  0  0  0  0  0  0  0
    5.0258  -13.8262   26.4975 N   0  0  0  0  0  0  0  0  0  0  0  0
    5.6810  -12.7388   26.0350 C   0  0  0  0  0  0  0  0  0  0  0  0
    5.4343  -11.3876   26.1348 C   0  0  0  0  0  0  0  0  0  0  0  0
    6.3067  -10.5021   25.5430 C   0  0  0  0  0  0  0  0  0  0  0  0
    7.4138  -11.0049   24.8608 C   0  0  0  0  0  0  0  0  0  0  0  0
    7.6670  -12.3560   24.7569 C   0  0  0  0  0  0  0  0  0  0  0  0
    6.7913  -13.2295   25.3501 C   0  0  0  0  0  0  0  0  0  0  0  0
    8.1855  -17.2123   23.0824 C   0  0  0  0  0  0  0  0  0  0  0  0
    8.5233  -18.3839   23.4160 O   0  0  0  0  0  0  0  0  0  0  0  0
   10.1704  -18.1228   18.0506 N   0  0  0  0  0  0  0  0  0  0  0  0
    9.1012  -17.2483   18.3396 C   0  0  0  0  0  0  0  0  0  0  0  0
    8.0338  -17.3461   17.6598 O   0  0  0  0  0  0  0  0  0  0  0  0
    9.1786  -16.2205   19.4066 C   0  0  0  0  0  0  0  0  0  0  0  0
   10.4504  -16.4043   20.1798 C   0  0  0  0  0  0  0  0  0  0  0  0
   10.1196  -16.9164   21.5510 C   0  0  2  0  0  0  0  0  0  0  0  0
    8.7987  -16.5556   21.9828 N   0  0  0  0  0  0  0  0  0  0  0  0
   11.1456  -16.4944   22.5566 C   0  0  0  0  0  0  0  0  0  0  0  0
   11.8532  -15.4457   22.3817 O   0  0  0  0  0  0  0  0  0  0  0  0
   11.7840  -14.1106   28.4321 C   0  0  0  0  0  0  0  0  0  0  0  0
   10.4971  -15.1106   27.6017 S   0  0  0  0  0  0  0  0  0  0  0  0
   11.1279  -15.4739   25.9307 C   0  0  0  0  0  0  0  0  0  0  0  0
   12.1111  -16.6124   25.9720 C   0  0  0  0  0  0  0  0  0  0  0  0
   12.5577  -16.9304   24.5676 C   0  0  2  0  0  0  0  0  0  0  0  0
   11.4040  -17.2114   23.7534 N   0  0  0  0  0  0  0  0  0  0  0  0
   13.4305  -18.1365   24.5617 C   0  0  0  0  0  0  0  0  0  0  0  0
   13.0288  -19.2486   24.1173 O   0  0  0  0  0  0  0  0  0  0  0  0
   14.7298  -18.0948   25.0456 O   0  0  0  0  0  0  0  0  0  0  0  0
  2  1  1  1
  2 13  1  0
  2  3  1  0
  3  4  1  0
  4  5  2  0
  6  5  1  0
  7  6  1  0
  8  7  2  0
  9  8  1  0
 10  9  2  0
 10 11  1  0
 11 12  2  0
 12  7  1  0
 12  4  1  0
 13 21  1  0
 14 13  2  0
 16 15  1  0
 16 18  1  0
 17 16  2  0
 19 18  1  0
 20 19  1  6
 21 20  1  0
 22 20  1  0
 23 22  2  0
 25 26  1  0
 25 24  1  0
 26 27  1  0
 28 27  1  1
 28 30  1  0
 28 29  1  0
 29 22  1  0
 30 32  1  0
 31 30  2  0
M  END
$$$$
