WQM.pdb
     RDKit          3D

 32 33  0  0  1  0  0  0  0  0999 V2000
    9.3829  -18.2688   19.6979 N   0  0  0  0  0  0  0  0  0  0  0  0
    9.1896  -17.2382   20.6880 C   0  0  1  0  0  0  0  0  0  0  0  0
    7.7608  -16.7617   20.5870 C   0  0  0  0  0  0  0  0  0  0  0  0
    7.6665  -15.4896   19.8012 C   0  0  0  0  0  0  0  0  0  0  0  0
    7.3729  -15.3672   18.4589 C   0  0  0  0  0  0  0  0  0  0  0  0
    7.3841  -14.0658   18.1261 N   0  0  0  0  0  0  0  0  0  0  0  0
    7.6764  -13.3067   19.2049 C   0  0  0  0  0  0  0  0  0  0  0  0
    7.8056  -11.9471   19.3824 C   0  0  0  0  0  0  0  0  0  0  0  0
    8.1182  -11.4617   20.6323 C   0  0  0  0  0  0  0  0  0  0  0  0
    8.2938  -12.3658   21.6791 C   0  0  0  0  0  0  0  0  0  0  0  0
    8.1659  -13.7278   21.5086 C   0  0  0  0  0  0  0  0  0  0  0  0
    7.8544  -14.2007   20.2592 C   0  0  0  0  0  0  0  0  0  0  0  0
    9.4160  -17.7903   22.0395 C   0  0  0  0  0  0  0  0  0  0  0  0
    8.9068  -18.9025   22.3582 O   0  0  0  0  0  0  0  0  0  0  0  0
   13.9112  -20.0654   24.3585 N   0  0  0  0  0  0  0  0  0  0  0  0
   14.0044  -18.7764   23.7918 C   0  0  0  0  0  0  0  0  0  0  0  0
   15.1180  -18.4010   23.3121 O   0  0  0  0  0  0  0  0  0  0  0  0
   12.8509  -17.8452   23.7361 C   0  0  0  0  0  0  0  0  0  0  0  0
   11.6378  -18.5257   24.2969 C   0  0  0  0  0  0  0  0  0  0  0  0
   10.4837  -17.5669   24.2719 C   0  0  2  0  0  0  0  0  0  0  0  0
   10.2072  -17.0533   22.9600 N   0  0  0  0  0  0  0  0  0  0  0  0
   10.6744  -16.4527   25.2538 C   0  0  0  0  0  0  0  0  0  0  0  0
   11.5793  -15.5674   25.0844 O   0  0  0  0  0  0  0  0  0  0  0  0
    6.8749  -11.7849   27.3479 C   0  0  0  0  0  0  0  0  0  0  0  0
    6.4930  -13.4849   26.7913 S   0  0  0  0  0  0  0  0  0  0  0  0
    8.0936  -14.2795   26.4325 C   0  0  0  0  0  0  0  0  0  0  0  0
    8.8473  -14.5507   27.7065 C   0  0  0  0  0  0  0  0  0  0  0  0
   10.1399  -15.2527   27.3758 C   0  0  2  0  0  0  0  0  0  0  0  0
    9.8824  -16.2991   26.4210 N   0  0  0  0  0  0  0  0  0  0  0  0
   10.7187  -15.8760   28.5976 C   0  0  0  0  0  0  0  0  0  0  0  0
   10.7641  -17.1292   28.7497 O   0  0  0  0  0  0  0  0  0  0  0  0
   11.2369  -15.1069   29.6291 O   0  0  0  0  0  0  0  0  0  0  0  0
  2  1  1  6
  2 13  1  0
  2  3  1  0
  3  4  1  0
  4  5  2  0
  6  5  1  0
  7  6  1  0
  8  7  2  0
  9  8  1  0
 10  9  2  0
 10 11  1  0
 11 12  2  0
 12  7  1  0
 12  4  1  0
 13 21  1  0
 14 13  2  0
 16 15  1  0
 16 18  1  0
 17 16  2  0
 19 18  1  0
 20 19  1  6
 21 20  1  0
 22 20  1  0
 23 22  2  0
 25 26  1  0
 25 24  1  0
 26 27  1  0
 28 27  1  1
 28 30  1  0
 28 29  1  0
 29 22  1  0
 30 32  1  0
 31 30  2  0
M  END
$$$$
