WQM.pdb
     RDKit          3D

 32 33  0  0  1  0  0  0  0  0999 V2000
    7.0121  -17.9776   24.0215 N   0  0  0  0  0  0  0  0  0  0  0  0
    7.7404  -16.9100   23.3815 C   0  0  1  0  0  0  0  0  0  0  0  0
    8.2695  -15.9983   24.4621 C   0  0  0  0  0  0  0  0  0  0  0  0
    7.1635  -15.2182   25.1044 C   0  0  0  0  0  0  0  0  0  0  0  0
    5.9416  -15.7055   25.5197 C   0  0  0  0  0  0  0  0  0  0  0  0
    5.2245  -14.6976   26.0438 N   0  0  0  0  0  0  0  0  0  0  0  0
    5.9272  -13.5446   25.9942 C   0  0  0  0  0  0  0  0  0  0  0  0
    5.6406  -12.2587   26.3955 C   0  0  0  0  0  0  0  0  0  0  0  0
    6.5832  -11.2729   26.2077 C   0  0  0  0  0  0  0  0  0  0  0  0
    7.7995  -11.6110   25.6159 C   0  0  0  0  0  0  0  0  0  0  0  0
    8.0931  -12.8959   25.2119 C   0  0  0  0  0  0  0  0  0  0  0  0
    7.1469  -13.8704   25.4036 C   0  0  0  0  0  0  0  0  0  0  0  0
    8.8800  -17.4636   22.6216 C   0  0  0  0  0  0  0  0  0  0  0  0
    9.0320  -18.7158   22.5383 O   0  0  0  0  0  0  0  0  0  0  0  0
   10.9273  -18.7830   18.6478 N   0  0  0  0  0  0  0  0  0  0  0  0
   11.7325  -17.6414   18.8473 C   0  0  0  0  0  0  0  0  0  0  0  0
   12.9624  -17.7023   18.5395 O   0  0  0  0  0  0  0  0  0  0  0  0
   11.1956  -16.3748   19.4026 C   0  0  0  0  0  0  0  0  0  0  0  0
   11.8357  -16.1065   20.7320 C   0  0  0  0  0  0  0  0  0  0  0  0
   11.1583  -16.9417   21.7786 C   0  0  2  0  0  0  0  0  0  0  0  0
    9.7887  -16.5697   21.9958 N   0  0  0  0  0  0  0  0  0  0  0  0
   11.9247  -16.9375   23.0649 C   0  0  0  0  0  0  0  0  0  0  0  0
   13.1878  -17.1256   23.0846 O   0  0  0  0  0  0  0  0  0  0  0  0
   10.7761  -12.8625   27.8921 C   0  0  0  0  0  0  0  0  0  0  0  0
   11.3150  -14.3110   28.8703 S   0  0  0  0  0  0  0  0  0  0  0  0
   12.1757  -15.4226   27.7104 C   0  0  0  0  0  0  0  0  0  0  0  0
   11.3944  -15.5613   26.4317 C   0  0  0  0  0  0  0  0  0  0  0  0
   12.1069  -16.5277   25.5199 C   0  0  2  0  0  0  0  0  0  0  0  0
   11.3198  -16.7290   24.3313 N   0  0  0  0  0  0  0  0  0  0  0  0
   12.2739  -17.8463   26.1907 C   0  0  0  0  0  0  0  0  0  0  0  0
   11.4936  -18.8135   25.9643 O   0  0  0  0  0  0  0  0  0  0  0  0
   13.2976  -18.0746   27.0983 O   0  0  0  0  0  0  0  0  0  0  0  0
  2  1  1  1
  2 13  1  0
  2  3  1  0
  3  4  1  0
  4  5  2  0
  6  5  1  0
  7  6  1  0
  8  7  2  0
  9  8  1  0
 10  9  2  0
 10 11  1  0
 11 12  2  0
 12  7  1  0
 12  4  1  0
 13 21  1  0
 14 13  2  0
 16 15  1  0
 16 18  1  0
 17 16  2  0
 19 18  1  0
 20 19  1  6
 21 20  1  0
 22 20  1  0
 23 22  2  0
 25 26  1  0
 25 24  1  0
 26 27  1  0
 28 27  1  1
 28 30  1  0
 28 29  1  0
 29 22  1  0
 30 32  1  0
 31 30  2  0
M  END
$$$$
