WQM.pdb
     RDKit          3D

 32 33  0  0  1  0  0  0  0  0999 V2000
    7.5049  -18.3974   21.1317 N   0  0  0  0  0  0  0  0  0  0  0  0
    8.4052  -17.3794   21.6144 C   0  0  1  0  0  0  0  0  0  0  0  0
    7.5741  -16.2025   22.0648 C   0  0  0  0  0  0  0  0  0  0  0  0
    7.1646  -15.3502   20.9027 C   0  0  0  0  0  0  0  0  0  0  0  0
    6.0090  -15.4673   20.1585 C   0  0  0  0  0  0  0  0  0  0  0  0
    6.0064  -14.5222   19.2039 N   0  0  0  0  0  0  0  0  0  0  0  0
    7.1266  -13.7707   19.2826 C   0  0  0  0  0  0  0  0  0  0  0  0
    7.5863  -12.7005   18.5477 C   0  0  0  0  0  0  0  0  0  0  0  0
    8.7960  -12.1319   18.8777 C   0  0  0  0  0  0  0  0  0  0  0  0
    9.5165  -12.6603   19.9481 C   0  0  0  0  0  0  0  0  0  0  0  0
    9.0624  -13.7312   20.6879 C   0  0  0  0  0  0  0  0  0  0  0  0
    7.8561  -14.2902   20.3505 C   0  0  0  0  0  0  0  0  0  0  0  0
    9.1730  -17.8927   22.7675 C   0  0  0  0  0  0  0  0  0  0  0  0
    8.5660  -18.4188   23.7437 O   0  0  0  0  0  0  0  0  0  0  0  0
   14.0243  -18.1978   21.2110 N   0  0  0  0  0  0  0  0  0  0  0  0
   13.5636  -19.4468   21.6795 C   0  0  0  0  0  0  0  0  0  0  0  0
   13.6912  -20.4631   20.9299 O   0  0  0  0  0  0  0  0  0  0  0  0
   12.9368  -19.6155   23.0134 C   0  0  0  0  0  0  0  0  0  0  0  0
   12.8065  -18.2747   23.6724 C   0  0  0  0  0  0  0  0  0  0  0  0
   11.3565  -18.0039   23.9480 C   0  0  2  0  0  0  0  0  0  0  0  0
   10.5887  -17.7830   22.7551 N   0  0  0  0  0  0  0  0  0  0  0  0
   11.1833  -16.8725   24.9134 C   0  0  0  0  0  0  0  0  0  0  0  0
   11.3736  -15.6611   24.5561 O   0  0  0  0  0  0  0  0  0  0  0  0
    8.2279  -11.2203   28.0362 C   0  0  0  0  0  0  0  0  0  0  0  0
    8.2692  -12.6167   26.8555 S   0  0  0  0  0  0  0  0  0  0  0  0
    9.4342  -13.8373   27.5444 C   0  0  0  0  0  0  0  0  0  0  0  0
    9.6479  -14.9699   26.5767 C   0  0  0  0  0  0  0  0  0  0  0  0
   10.6408  -15.9405   27.1640 C   0  0  2  0  0  0  0  0  0  0  0  0
   10.8032  -17.0557   26.2680 N   0  0  0  0  0  0  0  0  0  0  0  0
   10.1455  -16.4643   28.4666 C   0  0  0  0  0  0  0  0  0  0  0  0
    9.6626  -17.6263   28.5783 O   0  0  0  0  0  0  0  0  0  0  0  0
   10.1915  -15.6982   29.6220 O   0  0  0  0  0  0  0  0  0  0  0  0
  2  1  1  1
  2 13  1  0
  2  3  1  0
  3  4  1  0
  4  5  2  0
  6  5  1  0
  7  6  1  0
  8  7  2  0
  9  8  1  0
 10  9  2  0
 10 11  1  0
 11 12  2  0
 12  7  1  0
 12  4  1  0
 13 21  1  0
 14 13  2  0
 16 15  1  0
 16 18  1  0
 17 16  2  0
 19 18  1  0
 20 19  1  6
 21 20  1  0
 22 20  1  0
 23 22  2  0
 25 26  1  0
 25 24  1  0
 26 27  1  0
 28 27  1  6
 28 30  1  0
 28 29  1  0
 29 22  1  0
 30 32  1  0
 31 30  2  0
M  END
$$$$
