WQM.pdb
     RDKit          3D

 32 33  0  0  1  0  0  0  0  0999 V2000
    6.2775  -18.1610   24.0466 N   0  0  0  0  0  0  0  0  0  0  0  0
    7.1552  -17.0351   23.8424 C   0  0  1  0  0  0  0  0  0  0  0  0
    7.6528  -16.5851   25.1947 C   0  0  0  0  0  0  0  0  0  0  0  0
    6.8615  -15.4196   25.7046 C   0  0  0  0  0  0  0  0  0  0  0  0
    5.6495  -15.4676   26.3617 C   0  0  0  0  0  0  0  0  0  0  0  0
    5.2620  -14.2154   26.6555 N   0  0  0  0  0  0  0  0  0  0  0  0
    6.1773  -13.3240   26.2159 C   0  0  0  0  0  0  0  0  0  0  0  0
    6.2434  -11.9495   26.2712 C   0  0  0  0  0  0  0  0  0  0  0  0
    7.3310  -11.3089   25.7214 C   0  0  0  0  0  0  0  0  0  0  0  0
    8.3316  -12.0757   25.1257 C   0  0  0  0  0  0  0  0  0  0  0  0
    8.2719  -13.4517   25.0668 C   0  0  0  0  0  0  0  0  0  0  0  0
    7.1839  -14.0799   25.6175 C   0  0  0  0  0  0  0  0  0  0  0  0
    8.3115  -17.4418   23.0177 C   0  0  0  0  0  0  0  0  0  0  0  0
    8.8249  -18.5862   23.1746 O   0  0  0  0  0  0  0  0  0  0  0  0
    7.8752  -14.8975   19.6935 N   0  0  0  0  0  0  0  0  0  0  0  0
    8.2350  -16.0724   18.9994 C   0  0  0  0  0  0  0  0  0  0  0  0
    7.3882  -16.5995   18.2146 O   0  0  0  0  0  0  0  0  0  0  0  0
    9.5641  -16.7131   19.1530 C   0  0  0  0  0  0  0  0  0  0  0  0
   10.3429  -15.9903   20.2114 C   0  0  0  0  0  0  0  0  0  0  0  0
   10.1498  -16.6901   21.5247 C   0  0  2  0  0  0  0  0  0  0  0  0
    8.8264  -16.5305   22.0580 N   0  0  0  0  0  0  0  0  0  0  0  0
   11.1839  -16.2752   22.5249 C   0  0  0  0  0  0  0  0  0  0  0  0
   11.6788  -15.0978   22.5171 O   0  0  0  0  0  0  0  0  0  0  0  0
   11.3002  -13.5304   29.0688 C   0  0  0  0  0  0  0  0  0  0  0  0
   10.4556  -14.2633   27.6215 S   0  0  0  0  0  0  0  0  0  0  0  0
   11.7000  -15.2796   26.7609 C   0  0  0  0  0  0  0  0  0  0  0  0
   11.1483  -15.8060   25.4636 C   0  0  0  0  0  0  0  0  0  0  0  0
   12.2076  -16.6274   24.7735 C   0  0  2  0  0  0  0  0  0  0  0  0
   11.6814  -17.1388   23.5348 N   0  0  0  0  0  0  0  0  0  0  0  0
   12.5989  -17.7868   25.6215 C   0  0  0  0  0  0  0  0  0  0  0  0
   13.4572  -17.6805   26.5421 O   0  0  0  0  0  0  0  0  0  0  0  0
   12.0369  -19.0418   25.4394 O   0  0  0  0  0  0  0  0  0  0  0  0
  2  1  1  1
  2 13  1  0
  2  3  1  0
  3  4  1  0
  4  5  2  0
  6  5  1  0
  7  6  1  0
  8  7  2  0
  9  8  1  0
 10  9  2  0
 10 11  1  0
 11 12  2  0
 12  7  1  0
 12  4  1  0
 13 21  1  0
 14 13  2  0
 16 15  1  0
 16 18  1  0
 17 16  2  0
 19 18  1  0
 20 19  1  6
 21 20  1  0
 22 20  1  0
 23 22  2  0
 25 26  1  0
 25 24  1  0
 26 27  1  0
 28 27  1  1
 28 30  1  0
 28 29  1  0
 29 22  1  0
 30 32  1  0
 31 30  2  0
M  END
$$$$
