WQM.pdb
     RDKit          3D

 32 33  0  0  1  0  0  0  0  0999 V2000
    6.1154  -18.1187   23.7816 N   0  0  0  0  0  0  0  0  0  0  0  0
    6.8206  -16.8705   23.6251 C   0  0  1  0  0  0  0  0  0  0  0  0
    7.3952  -16.4921   24.9688 C   0  0  0  0  0  0  0  0  0  0  0  0
    6.6001  -15.3964   25.6105 C   0  0  0  0  0  0  0  0  0  0  0  0
    5.4950  -15.5442   26.4229 C   0  0  0  0  0  0  0  0  0  0  0  0
    5.0634  -14.3288   26.7987 N   0  0  0  0  0  0  0  0  0  0  0  0
    5.8452  -13.3655   26.2636 C   0  0  0  0  0  0  0  0  0  0  0  0
    5.8209  -11.9909   26.3453 C   0  0  0  0  0  0  0  0  0  0  0  0
    6.7756  -11.2631   25.6714 C   0  0  0  0  0  0  0  0  0  0  0  0
    7.7377  -11.9444   24.9269 C   0  0  0  0  0  0  0  0  0  0  0  0
    7.7681  -13.3199   24.8407 C   0  0  0  0  0  0  0  0  0  0  0  0
    6.8121  -14.0354   25.5160 C   0  0  0  0  0  0  0  0  0  0  0  0
    7.9273  -17.0356   22.6604 C   0  0  0  0  0  0  0  0  0  0  0  0
    8.5399  -18.1390   22.5884 O   0  0  0  0  0  0  0  0  0  0  0  0
    8.9078  -12.7782   18.4276 N   0  0  0  0  0  0  0  0  0  0  0  0
    8.2194  -13.9975   18.2514 C   0  0  0  0  0  0  0  0  0  0  0  0
    7.2721  -14.0457   17.4081 O   0  0  0  0  0  0  0  0  0  0  0  0
    8.5615  -15.2230   19.0143 C   0  0  0  0  0  0  0  0  0  0  0  0
    9.5968  -14.8904   20.0471 C   0  0  0  0  0  0  0  0  0  0  0  0
    9.5435  -15.9162   21.1411 C   0  0  2  0  0  0  0  0  0  0  0  0
    8.2827  -15.9418   21.8275 N   0  0  0  0  0  0  0  0  0  0  0  0
   10.6755  -15.7480   22.1067 C   0  0  0  0  0  0  0  0  0  0  0  0
   11.2783  -14.6291   22.2332 O   0  0  0  0  0  0  0  0  0  0  0  0
   11.7280  -14.1556   28.9797 C   0  0  0  0  0  0  0  0  0  0  0  0
   10.6646  -14.5757   27.5520 S   0  0  0  0  0  0  0  0  0  0  0  0
   11.7218  -15.4763   26.3717 C   0  0  0  0  0  0  0  0  0  0  0  0
   10.9680  -15.7690   25.1025 C   0  0  0  0  0  0  0  0  0  0  0  0
   11.8670  -16.5250   24.1573 C   0  0  2  0  0  0  0  0  0  0  0  0
   11.1539  -16.7951   22.9361 N   0  0  0  0  0  0  0  0  0  0  0  0
   12.2683  -17.8283   24.7545 C   0  0  0  0  0  0  0  0  0  0  0  0
   11.5685  -18.8704   24.6135 O   0  0  0  0  0  0  0  0  0  0  0  0
   13.4334  -17.9592   25.4957 O   0  0  0  0  0  0  0  0  0  0  0  0
  2  1  1  1
  2 13  1  0
  2  3  1  0
  3  4  1  0
  4  5  2  0
  6  5  1  0
  7  6  1  0
  8  7  2  0
  9  8  1  0
 10  9  2  0
 10 11  1  0
 11 12  2  0
 12  7  1  0
 12  4  1  0
 13 21  1  0
 14 13  2  0
 16 15  1  0
 16 18  1  0
 17 16  2  0
 19 18  1  0
 20 19  1  6
 21 20  1  0
 22 20  1  0
 23 22  2  0
 25 26  1  0
 25 24  1  0
 26 27  1  0
 28 27  1  1
 28 30  1  0
 28 29  1  0
 29 22  1  0
 30 32  1  0
 31 30  2  0
M  END
$$$$
