WQM.pdb
     RDKit          3D

 32 33  0  0  1  0  0  0  0  0999 V2000
    7.0217  -16.8284   23.8186 N   0  0  0  0  0  0  0  0  0  0  0  0
    8.0369  -16.1010   23.0975 C   0  0  1  0  0  0  0  0  0  0  0  0
    8.5002  -14.9621   23.9734 C   0  0  0  0  0  0  0  0  0  0  0  0
    7.4459  -14.5757   24.9651 C   0  0  0  0  0  0  0  0  0  0  0  0
    6.5428  -15.4171   25.5812 C   0  0  0  0  0  0  0  0  0  0  0  0
    5.7613  -14.6945   26.4008 N   0  0  0  0  0  0  0  0  0  0  0  0
    6.1110  -13.3902   26.3557 C   0  0  0  0  0  0  0  0  0  0  0  0
    5.6272  -12.2712   26.9964 C   0  0  0  0  0  0  0  0  0  0  0  0
    6.2054  -11.0488   26.7374 C   0  0  0  0  0  0  0  0  0  0  0  0
    7.2644  -10.9851   25.8327 C   0  0  0  0  0  0  0  0  0  0  0  0
    7.7538  -12.1010   25.1879 C   0  0  0  0  0  0  0  0  0  0  0  0
    7.1703  -13.3138   25.4531 C   0  0  0  0  0  0  0  0  0  0  0  0
    9.1856  -16.9863   22.8157 C   0  0  0  0  0  0  0  0  0  0  0  0
    9.1325  -18.2076   23.1374 O   0  0  0  0  0  0  0  0  0  0  0  0
   12.2419  -19.5628   19.2441 N   0  0  0  0  0  0  0  0  0  0  0  0
   11.0550  -18.8551   18.9572 C   0  0  0  0  0  0  0  0  0  0  0  0
   10.1904  -19.3968   18.2022 O   0  0  0  0  0  0  0  0  0  0  0  0
   10.7812  -17.5037   19.5043 C   0  0  0  0  0  0  0  0  0  0  0  0
   11.9000  -17.1040   20.4196 C   0  0  0  0  0  0  0  0  0  0  0  0
   11.4532  -17.2748   21.8419 C   0  0  2  0  0  0  0  0  0  0  0  0
   10.3351  -16.4418   22.1843 N   0  0  0  0  0  0  0  0  0  0  0  0
   12.5852  -17.0723   22.8008 C   0  0  0  0  0  0  0  0  0  0  0  0
   13.5630  -17.8922   22.8548 O   0  0  0  0  0  0  0  0  0  0  0  0
    9.6746  -14.1878   28.7818 C   0  0  0  0  0  0  0  0  0  0  0  0
   11.2343  -14.3882   27.8477 S   0  0  0  0  0  0  0  0  0  0  0  0
   11.1861  -16.0586   27.1201 C   0  0  0  0  0  0  0  0  0  0  0  0
   11.2024  -15.9820   25.6173 C   0  0  0  0  0  0  0  0  0  0  0  0
   12.6159  -16.1724   25.1284 C   0  0  2  0  0  0  0  0  0  0  0  0
   12.6563  -15.9789   23.7023 N   0  0  0  0  0  0  0  0  0  0  0  0
   13.0831  -17.5557   25.4191 C   0  0  0  0  0  0  0  0  0  0  0  0
   13.7463  -17.8314   26.4583 O   0  0  0  0  0  0  0  0  0  0  0  0
   12.8107  -18.6097   24.5595 O   0  0  0  0  0  0  0  0  0  0  0  0
  2  1  1  1
  2 13  1  0
  2  3  1  0
  3  4  1  0
  4  5  2  0
  6  5  1  0
  7  6  1  0
  8  7  2  0
  9  8  1  0
 10  9  2  0
 10 11  1  0
 11 12  2  0
 12  7  1  0
 12  4  1  0
 13 21  1  0
 14 13  2  0
 16 15  1  0
 16 18  1  0
 17 16  2  0
 19 18  1  0
 20 19  1  6
 21 20  1  0
 22 20  1  0
 23 22  2  0
 25 26  1  0
 25 24  1  0
 26 27  1  0
 28 27  1  6
 28 30  1  0
 28 29  1  0
 29 22  1  0
 30 32  1  0
 31 30  2  0
M  END
$$$$
