WQM.pdb
     RDKit          3D

 32 33  0  0  1  0  0  0  0  0999 V2000
    6.1899  -17.8222   25.0729 N   0  0  0  0  0  0  0  0  0  0  0  0
    7.2134  -16.9690   24.5213 C   0  0  1  0  0  0  0  0  0  0  0  0
    7.3562  -15.7714   25.4291 C   0  0  0  0  0  0  0  0  0  0  0  0
    6.7597  -14.5451   24.8087 C   0  0  0  0  0  0  0  0  0  0  0  0
    5.7845  -13.7348   25.3522 C   0  0  0  0  0  0  0  0  0  0  0  0
    5.5146  -12.7389   24.4921 N   0  0  0  0  0  0  0  0  0  0  0  0
    6.2795  -12.8536   23.3842 C   0  0  0  0  0  0  0  0  0  0  0  0
    6.3783  -12.0999   22.2358 C   0  0  0  0  0  0  0  0  0  0  0  0
    7.2732  -12.4793   21.2608 C   0  0  0  0  0  0  0  0  0  0  0  0
    8.0516  -13.6170   21.4699 C   0  0  0  0  0  0  0  0  0  0  0  0
    7.9580  -14.3760   22.6168 C   0  0  0  0  0  0  0  0  0  0  0  0
    7.0631  -13.9892   23.5817 C   0  0  0  0  0  0  0  0  0  0  0  0
    8.5008  -17.6922   24.4765 C   0  0  0  0  0  0  0  0  0  0  0  0
    8.6804  -18.7037   25.2131 O   0  0  0  0  0  0  0  0  0  0  0  0
   12.6042  -16.7633   19.8899 N   0  0  0  0  0  0  0  0  0  0  0  0
   11.3562  -17.4050   20.0395 C   0  0  0  0  0  0  0  0  0  0  0  0
   10.5313  -17.3649   19.0757 O   0  0  0  0  0  0  0  0  0  0  0  0
   10.9734  -18.1236   21.2797 C   0  0  0  0  0  0  0  0  0  0  0  0
   11.6664  -17.4935   22.4510 C   0  0  0  0  0  0  0  0  0  0  0  0
   10.8572  -17.7423   23.6900 C   0  0  2  0  0  0  0  0  0  0  0  0
    9.5184  -17.2317   23.5996 N   0  0  0  0  0  0  0  0  0  0  0  0
   11.5484  -17.2196   24.9110 C   0  0  0  0  0  0  0  0  0  0  0  0
   12.4324  -16.3013   24.8304 O   0  0  0  0  0  0  0  0  0  0  0  0
    8.8797  -14.2495   28.6029 C   0  0  0  0  0  0  0  0  0  0  0  0
   10.5148  -13.5985   28.1046 S   0  0  0  0  0  0  0  0  0  0  0  0
   11.3675  -14.9584   27.2412 C   0  0  0  0  0  0  0  0  0  0  0  0
   11.3937  -16.1954   28.0979 C   0  0  0  0  0  0  0  0  0  0  0  0
   12.0885  -17.3022   27.3461 C   0  0  2  0  0  0  0  0  0  0  0  0
   11.2800  -17.6938   26.2211 N   0  0  0  0  0  0  0  0  0  0  0  0
   12.2659  -18.4924   28.2226 C   0  0  0  0  0  0  0  0  0  0  0  0
   11.5954  -19.5498   28.0556 O   0  0  0  0  0  0  0  0  0  0  0  0
   13.1789  -18.4954   29.2669 O   0  0  0  0  0  0  0  0  0  0  0  0
  2  1  1  1
  2 13  1  0
  2  3  1  0
  3  4  1  0
  4  5  2  0
  6  5  1  0
  7  6  1  0
  8  7  2  0
  9  8  1  0
 10  9  2  0
 10 11  1  0
 11 12  2  0
 12  7  1  0
 12  4  1  0
 13 21  1  0
 14 13  2  0
 16 15  1  0
 16 18  1  0
 17 16  2  0
 19 18  1  0
 20 19  1  6
 21 20  1  0
 22 20  1  0
 23 22  2  0
 25 26  1  0
 25 24  1  0
 26 27  1  0
 28 27  1  1
 28 30  1  0
 28 29  1  0
 29 22  1  0
 30 32  1  0
 31 30  2  0
M  END
$$$$
