WQM.pdb
     RDKit          3D

 32 33  0  0  1  0  0  0  0  0999 V2000
    6.8837  -18.9930   23.4020 N   0  0  0  0  0  0  0  0  0  0  0  0
    6.9071  -18.1381   22.2409 C   0  0  1  0  0  0  0  0  0  0  0  0
    6.0436  -16.9351   22.5345 C   0  0  0  0  0  0  0  0  0  0  0  0
    6.3595  -16.3548   23.8791 C   0  0  0  0  0  0  0  0  0  0  0  0
    6.1946  -16.9684   25.1035 C   0  0  0  0  0  0  0  0  0  0  0  0
    6.5889  -16.1248   26.0716 N   0  0  0  0  0  0  0  0  0  0  0  0
    7.0152  -14.9599   25.5360 C   0  0  0  0  0  0  0  0  0  0  0  0
    7.5085  -13.8012   26.0934 C   0  0  0  0  0  0  0  0  0  0  0  0
    7.8676  -12.7605   25.2667 C   0  0  0  0  0  0  0  0  0  0  0  0
    7.7193  -12.9155   23.8890 C   0  0  0  0  0  0  0  0  0  0  0  0
    7.2264  -14.0724   23.3242 C   0  0  0  0  0  0  0  0  0  0  0  0
    6.8715  -15.1030   24.1570 C   0  0  0  0  0  0  0  0  0  0  0  0
    8.2882  -17.6837   21.9786 C   0  0  0  0  0  0  0  0  0  0  0  0
    9.2593  -18.4624   22.1986 O   0  0  0  0  0  0  0  0  0  0  0  0
    8.7760  -12.4258   18.9081 N   0  0  0  0  0  0  0  0  0  0  0  0
    8.7072  -13.7632   18.4629 C   0  0  0  0  0  0  0  0  0  0  0  0
    7.8610  -14.0637   17.5659 O   0  0  0  0  0  0  0  0  0  0  0  0
    9.5859  -14.8291   19.0037 C   0  0  0  0  0  0  0  0  0  0  0  0
    9.8251  -14.5805   20.4632 C   0  0  0  0  0  0  0  0  0  0  0  0
    9.8200  -15.8932   21.1903 C   0  0  2  0  0  0  0  0  0  0  0  0
    8.4974  -16.3702   21.4810 N   0  0  0  0  0  0  0  0  0  0  0  0
   10.6536  -15.8356   22.4328 C   0  0  0  0  0  0  0  0  0  0  0  0
   11.8780  -15.4745   22.3935 O   0  0  0  0  0  0  0  0  0  0  0  0
    9.9831  -12.9767   28.6559 C   0  0  0  0  0  0  0  0  0  0  0  0
    9.7984  -14.7964   28.6638 S   0  0  0  0  0  0  0  0  0  0  0  0
   10.8334  -15.4236   27.3009 C   0  0  0  0  0  0  0  0  0  0  0  0
   10.0421  -15.4901   26.0226 C   0  0  0  0  0  0  0  0  0  0  0  0
   10.9422  -15.9609   24.9085 C   0  0  2  0  0  0  0  0  0  0  0  0
   10.1579  -16.1703   23.7194 N   0  0  0  0  0  0  0  0  0  0  0  0
   11.5831  -17.2546   25.2715 C   0  0  0  0  0  0  0  0  0  0  0  0
   11.1936  -18.3524   24.7829 O   0  0  0  0  0  0  0  0  0  0  0  0
   12.6415  -17.3147   26.1661 O   0  0  0  0  0  0  0  0  0  0  0  0
  2  1  1  1
  2 13  1  0
  2  3  1  0
  3  4  1  0
  4  5  2  0
  6  5  1  0
  7  6  1  0
  8  7  2  0
  9  8  1  0
 10  9  2  0
 10 11  1  0
 11 12  2  0
 12  7  1  0
 12  4  1  0
 13 21  1  0
 14 13  2  0
 16 15  1  0
 16 18  1  0
 17 16  2  0
 19 18  1  0
 20 19  1  1
 21 20  1  0
 22 20  1  0
 23 22  2  0
 25 26  1  0
 25 24  1  0
 26 27  1  0
 28 27  1  1
 28 30  1  0
 28 29  1  0
 29 22  1  0
 30 32  1  0
 31 30  2  0
M  END
$$$$
