WQM.pdb
     RDKit          3D

 32 33  0  0  1  0  0  0  0  0999 V2000
    6.1293  -18.0074   24.3720 N   0  0  0  0  0  0  0  0  0  0  0  0
    6.9327  -16.8753   23.9813 C   0  0  1  0  0  0  0  0  0  0  0  0
    7.4643  -16.2295   25.2379 C   0  0  0  0  0  0  0  0  0  0  0  0
    6.6462  -15.0348   25.6226 C   0  0  0  0  0  0  0  0  0  0  0  0
    5.4843  -15.0336   26.3662 C   0  0  0  0  0  0  0  0  0  0  0  0
    5.0496  -13.7691   26.4954 N   0  0  0  0  0  0  0  0  0  0  0  0
    5.8846  -12.9172   25.8608 C   0  0  0  0  0  0  0  0  0  0  0  0
    5.8797  -11.5491   25.7032 C   0  0  0  0  0  0  0  0  0  0  0  0
    6.8927  -10.9542   24.9852 C   0  0  0  0  0  0  0  0  0  0  0  0
    7.8921  -11.7594   24.4404 C   0  0  0  0  0  0  0  0  0  0  0  0
    7.9033  -13.1293   24.5942 C   0  0  0  0  0  0  0  0  0  0  0  0
    6.8893  -13.7118   25.3113 C   0  0  0  0  0  0  0  0  0  0  0  0
    8.0719  -17.3278   23.1565 C   0  0  0  0  0  0  0  0  0  0  0  0
    8.6635  -18.4084   23.4394 O   0  0  0  0  0  0  0  0  0  0  0  0
    9.4798  -15.5852   17.1401 N   0  0  0  0  0  0  0  0  0  0  0  0
    8.6975  -16.2948   18.0761 C   0  0  0  0  0  0  0  0  0  0  0  0
    7.4350  -16.2874   17.9448 O   0  0  0  0  0  0  0  0  0  0  0  0
    9.2950  -17.0478   19.2060 C   0  0  0  0  0  0  0  0  0  0  0  0
    9.9550  -16.0856   20.1482 C   0  0  0  0  0  0  0  0  0  0  0  0
    9.8242  -16.6058   21.5497 C   0  0  2  0  0  0  0  0  0  0  0  0
    8.4820  -16.5320   22.0543 N   0  0  0  0  0  0  0  0  0  0  0  0
   10.7833  -15.9280   22.4784 C   0  0  0  0  0  0  0  0  0  0  0  0
   10.5751  -14.7385   22.8943 O   0  0  0  0  0  0  0  0  0  0  0  0
   11.3848  -15.7416   29.4487 C   0  0  0  0  0  0  0  0  0  0  0  0
   10.9386  -15.3120   27.7277 S   0  0  0  0  0  0  0  0  0  0  0  0
   12.1404  -16.1672   26.6570 C   0  0  0  0  0  0  0  0  0  0  0  0
   11.5275  -16.4816   25.3190 C   0  0  0  0  0  0  0  0  0  0  0  0
   12.5358  -16.1972   24.2348 C   0  0  2  0  0  0  0  0  0  0  0  0
   11.9699  -16.5417   22.9565 N   0  0  0  0  0  0  0  0  0  0  0  0
   13.7587  -17.0224   24.4348 C   0  0  0  0  0  0  0  0  0  0  0  0
   13.8530  -18.1967   23.9791 O   0  0  0  0  0  0  0  0  0  0  0  0
   14.8550  -16.5382   25.1332 O   0  0  0  0  0  0  0  0  0  0  0  0
  2  1  1  1
  2 13  1  0
  2  3  1  0
  3  4  1  0
  4  5  2  0
  6  5  1  0
  7  6  1  0
  8  7  2  0
  9  8  1  0
 10  9  2  0
 10 11  1  0
 11 12  2  0
 12  7  1  0
 12  4  1  0
 13 21  1  0
 14 13  2  0
 16 15  1  0
 16 18  1  0
 17 16  2  0
 19 18  1  0
 20 19  1  6
 21 20  1  0
 22 20  1  0
 23 22  2  0
 25 26  1  0
 25 24  1  0
 26 27  1  0
 28 27  1  1
 28 30  1  0
 28 29  1  0
 29 22  1  0
 30 32  1  0
 31 30  2  0
M  END
$$$$
