TNG.pdb
     RDKit          3D

 20 19  0  0  1  0  0  0  0  0999 V2000
    7.8401  -12.4676   19.8386 C   0  0  0  0  0  0  0  0  0  0  0  0
    7.5054  -13.9287   19.6025 C   0  0  1  0  0  0  0  0  0  0  0  0
    7.2110  -14.1948   18.2855 O   0  0  0  0  0  0  0  0  0  0  0  0
    8.6737  -14.7541   20.0283 C   0  0  2  0  0  0  0  0  0  0  0  0
    8.5922  -16.1456   19.7076 N   0  0  0  0  0  0  0  0  0  0  0  0
    8.9156  -14.5355   21.4875 C   0  0  0  0  0  0  0  0  0  0  0  0
    8.9216  -13.3707   21.9576 O   0  0  0  0  0  0  0  0  0  0  0  0
    7.5035  -13.3649   24.3722 N   0  0  0  0  0  0  0  0  0  0  0  0
    7.1659  -14.6941   24.6880 C   0  0  0  0  0  0  0  0  0  0  0  0
    6.0517  -14.9040   25.2453 O   0  0  0  0  0  0  0  0  0  0  0  0
    8.0304  -15.8374   24.4067 C   0  0  0  0  0  0  0  0  0  0  0  0
    9.3447  -15.5176   23.7757 C   0  0  2  0  0  0  0  0  0  0  0  0
    9.1354  -15.6365   22.3214 N   0  0  0  0  0  0  0  0  0  0  0  0
   10.4554  -16.4030   24.1802 C   0  0  0  0  0  0  0  0  0  0  0  0
   10.8401  -16.3864   25.3701 O   0  0  0  0  0  0  0  0  0  0  0  0
   11.0664  -17.2460   23.2440 N   0  0  0  0  0  0  0  0  0  0  0  0
   12.1337  -16.8416   22.3533 C   0  0  0  0  0  0  0  0  0  0  0  0
   13.4447  -16.9848   22.9792 C   0  0  0  0  0  0  0  0  0  0  0  0
   14.1275  -18.0304   22.8811 O   0  0  0  0  0  0  0  0  0  0  0  0
   13.9787  -15.9366   23.7167 O   0  0  0  0  0  0  0  0  0  0  0  0
  2  1  1  6
  3  2  1  0
  4  5  1  1
  4  2  1  0
  6  4  1  0
  6  7  2  0
  8  9  1  0
  9 11  1  0
 10  9  2  0
 12 11  1  1
 12 13  1  0
 12 14  1  0
 13  6  1  0
 14 15  2  0
 14 16  1  0
 16 17  1  0
 18 17  1  0
 18 20  1  0
 19 18  2  0
M  END
$$$$
