TNG.pdb
     RDKit          3D

 20 19  0  0  1  0  0  0  0  0999 V2000
   -8.1952  -25.0172   26.1621 C   0  0  0  0  0  0  0  0  0  0  0  0
   -8.1518  -26.4327   25.6171 C   0  0  1  0  0  0  0  0  0  0  0  0
   -8.5450  -26.5019   24.3008 O   0  0  0  0  0  0  0  0  0  0  0  0
   -6.7560  -26.9448   25.7476 C   0  0  2  0  0  0  0  0  0  0  0  0
   -6.4932  -28.1864   25.0880 N   0  0  0  0  0  0  0  0  0  0  0  0
   -6.3935  -27.0003   27.1971 C   0  0  0  0  0  0  0  0  0  0  0  0
   -6.8595  -27.9087   27.9287 O   0  0  0  0  0  0  0  0  0  0  0  0
   -1.7405  -25.4783   30.7703 N   0  0  0  0  0  0  0  0  0  0  0  0
   -3.1122  -25.6903   30.5386 C   0  0  0  0  0  0  0  0  0  0  0  0
   -3.8791  -25.7441   31.5412 O   0  0  0  0  0  0  0  0  0  0  0  0
   -3.6931  -25.8500   29.2079 C   0  0  0  0  0  0  0  0  0  0  0  0
   -5.1801  -25.9687   29.1587 C   0  0  2  0  0  0  0  0  0  0  0  0
   -5.5342  -26.0338   27.7292 N   0  0  0  0  0  0  0  0  0  0  0  0
   -5.9098  -24.8500   29.7891 C   0  0  0  0  0  0  0  0  0  0  0  0
   -5.8466  -24.7091   31.0301 O   0  0  0  0  0  0  0  0  0  0  0  0
   -6.6601  -23.9634   29.0072 N   0  0  0  0  0  0  0  0  0  0  0  0
   -7.2667  -22.7466   29.5046 C   0  0  0  0  0  0  0  0  0  0  0  0
   -8.5969  -22.9904   30.0542 C   0  0  0  0  0  0  0  0  0  0  0  0
   -9.1014  -24.1353   30.1146 O   0  0  0  0  0  0  0  0  0  0  0  0
   -9.3526  -21.9299   30.5359 O   0  0  0  0  0  0  0  0  0  0  0  0
  2  1  1  6
  3  2  1  0
  4  5  1  1
  4  2  1  0
  6  4  1  0
  6  7  2  0
  8  9  1  0
  9 11  1  0
 10  9  2  0
 12 11  1  6
 12 13  1  0
 12 14  1  0
 13  6  1  0
 14 15  2  0
 14 16  1  0
 16 17  1  0
 18 17  1  0
 18 20  1  0
 19 18  2  0
M  END
$$$$
