TNG.pdb
     RDKit          3D

 20 19  0  0  1  0  0  0  0  0999 V2000
    7.8896  -14.1986   17.4236 C   0  0  0  0  0  0  0  0  0  0  0  0
    8.3635  -14.6180   18.8028 C   0  0  1  0  0  0  0  0  0  0  0  0
    9.5498  -15.3131   18.7627 O   0  0  0  0  0  0  0  0  0  0  0  0
    8.5331  -13.3910   19.6355 C   0  0  2  0  0  0  0  0  0  0  0  0
    9.3849  -12.3850   19.0804 N   0  0  0  0  0  0  0  0  0  0  0  0
    8.9719  -13.7929   21.0071 C   0  0  0  0  0  0  0  0  0  0  0  0
   10.1221  -13.4936   21.4137 O   0  0  0  0  0  0  0  0  0  0  0  0
    8.3721  -15.7879   25.9684 N   0  0  0  0  0  0  0  0  0  0  0  0
    7.1719  -15.6850   25.2408 C   0  0  0  0  0  0  0  0  0  0  0  0
    6.1006  -16.0252   25.8176 O   0  0  0  0  0  0  0  0  0  0  0  0
    7.0996  -15.2080   23.8621 C   0  0  0  0  0  0  0  0  0  0  0  0
    8.4042  -14.8578   23.2272 C   0  0  2  0  0  0  0  0  0  0  0  0
    8.0929  -14.5037   21.8305 N   0  0  0  0  0  0  0  0  0  0  0  0
    9.4080  -15.9411   23.2411 C   0  0  0  0  0  0  0  0  0  0  0  0
    9.8449  -16.3473   24.3403 O   0  0  0  0  0  0  0  0  0  0  0  0
    9.8619  -16.5019   22.0412 N   0  0  0  0  0  0  0  0  0  0  0  0
   10.8068  -17.5955   21.9554 C   0  0  0  0  0  0  0  0  0  0  0  0
   12.1560  -17.1750   22.3214 C   0  0  0  0  0  0  0  0  0  0  0  0
   12.8620  -16.4549   21.5785 O   0  0  0  0  0  0  0  0  0  0  0  0
   12.7011  -17.5743   23.5344 O   0  0  0  0  0  0  0  0  0  0  0  0
  2  1  1  6
  3  2  1  0
  4  5  1  6
  4  2  1  0
  6  4  1  0
  6  7  2  0
  8  9  1  0
  9 11  1  0
 10  9  2  0
 12 11  1  6
 12 13  1  0
 12 14  1  0
 13  6  1  0
 14 15  2  0
 14 16  1  0
 16 17  1  0
 18 17  1  0
 18 20  1  0
 19 18  2  0
M  END
$$$$
