TNG.pdb
     RDKit          3D

 20 19  0  0  1  0  0  0  0  0999 V2000
    8.0835  -14.6672   17.7156 C   0  0  0  0  0  0  0  0  0  0  0  0
    8.4038  -14.7900   19.1937 C   0  0  1  0  0  0  0  0  0  0  0  0
    9.7137  -15.1429   19.4207 O   0  0  0  0  0  0  0  0  0  0  0  0
    8.1209  -13.4784   19.8472 C   0  0  2  0  0  0  0  0  0  0  0  0
    8.7885  -12.3503   19.2747 N   0  0  0  0  0  0  0  0  0  0  0  0
    8.3935  -13.5980   21.3124 C   0  0  0  0  0  0  0  0  0  0  0  0
    9.3571  -12.9778   21.8268 O   0  0  0  0  0  0  0  0  0  0  0  0
    6.5699  -14.0870   26.4466 N   0  0  0  0  0  0  0  0  0  0  0  0
    6.2031  -15.0666   25.5052 C   0  0  0  0  0  0  0  0  0  0  0  0
    5.7413  -16.1594   25.9394 O   0  0  0  0  0  0  0  0  0  0  0  0
    6.3268  -14.8875   24.0607 C   0  0  0  0  0  0  0  0  0  0  0  0
    7.6746  -14.4732   23.5712 C   0  0  2  0  0  0  0  0  0  0  0  0
    7.5687  -14.4051   22.1024 N   0  0  0  0  0  0  0  0  0  0  0  0
    8.7729  -15.3904   23.9366 C   0  0  0  0  0  0  0  0  0  0  0  0
    9.0526  -15.5485   25.1453 O   0  0  0  0  0  0  0  0  0  0  0  0
    9.4884  -16.0702   22.9435 N   0  0  0  0  0  0  0  0  0  0  0  0
   10.4603  -17.1113   23.2035 C   0  0  0  0  0  0  0  0  0  0  0  0
   11.8193  -16.6701   22.9041 C   0  0  0  0  0  0  0  0  0  0  0  0
   12.0740  -15.5268   22.4604 O   0  0  0  0  0  0  0  0  0  0  0  0
   12.8887  -17.5313   23.1107 O   0  0  0  0  0  0  0  0  0  0  0  0
  2  1  1  6
  3  2  1  0
  4  5  1  6
  4  2  1  0
  6  4  1  0
  6  7  2  0
  8  9  1  0
  9 11  1  0
 10  9  2  0
 12 11  1  1
 12 13  1  0
 12 14  1  0
 13  6  1  0
 14 15  2  0
 14 16  1  0
 16 17  1  0
 18 17  1  0
 18 20  1  0
 19 18  2  0
M  END
$$$$
