TNG.pdb
     RDKit          3D

 20 19  0  0  1  0  0  0  0  0999 V2000
    7.4854  -12.6210   20.2438 C   0  0  0  0  0  0  0  0  0  0  0  0
    7.1716  -14.0845   20.4939 C   0  0  1  0  0  0  0  0  0  0  0  0
    6.8853  -14.7667   19.3343 O   0  0  0  0  0  0  0  0  0  0  0  0
    8.3497  -14.7110   21.1625 C   0  0  2  0  0  0  0  0  0  0  0  0
    8.2691  -16.1268   21.3488 N   0  0  0  0  0  0  0  0  0  0  0  0
    8.6128  -13.9972   22.4497 C   0  0  0  0  0  0  0  0  0  0  0  0
    8.7367  -12.7473   22.4632 O   0  0  0  0  0  0  0  0  0  0  0  0
    7.5243  -12.8998   27.3850 N   0  0  0  0  0  0  0  0  0  0  0  0
    6.7400  -12.9176   26.2167 C   0  0  0  0  0  0  0  0  0  0  0  0
    5.5988  -12.3777   26.2631 O   0  0  0  0  0  0  0  0  0  0  0  0
    7.1734  -13.5235   24.9601 C   0  0  0  0  0  0  0  0  0  0  0  0
    8.5331  -14.1389   24.9713 C   0  0  2  0  0  0  0  0  0  0  0  0
    8.7202  -14.7320   23.6348 N   0  0  0  0  0  0  0  0  0  0  0  0
    8.7300  -15.1826   25.9974 C   0  0  0  0  0  0  0  0  0  0  0  0
    8.9276  -14.8363   27.1828 O   0  0  0  0  0  0  0  0  0  0  0  0
    8.6960  -16.5374   25.6457 N   0  0  0  0  0  0  0  0  0  0  0  0
    9.8428  -17.4205   25.6811 C   0  0  0  0  0  0  0  0  0  0  0  0
   10.2019  -17.7867   27.0479 C   0  0  0  0  0  0  0  0  0  0  0  0
   11.1728  -17.2730   27.6499 O   0  0  0  0  0  0  0  0  0  0  0  0
    9.4545  -18.7378   27.7295 O   0  0  0  0  0  0  0  0  0  0  0  0
  2  1  1  6
  3  2  1  0
  4  5  1  1
  4  2  1  0
  6  4  1  0
  6  7  2  0
  8  9  1  0
  9 11  1  0
 10  9  2  0
 12 11  1  6
 12 13  1  0
 12 14  1  0
 13  6  1  0
 14 15  2  0
 14 16  1  0
 16 17  1  0
 18 17  1  0
 18 20  1  0
 19 18  2  0
M  END
$$$$
