TNG.pdb
     RDKit          3D

 20 19  0  0  1  0  0  0  0  0999 V2000
    6.7496  -24.7312   26.5569 C   0  0  0  0  0  0  0  0  0  0  0  0
    7.6067  -23.5644   26.1024 C   0  0  1  0  0  0  0  0  0  0  0  0
    8.9511  -23.8029   26.2689 O   0  0  0  0  0  0  0  0  0  0  0  0
    7.3217  -23.3045   24.6606 C   0  0  2  0  0  0  0  0  0  0  0  0
    7.6719  -24.3631   23.7648 N   0  0  0  0  0  0  0  0  0  0  0  0
    7.9598  -22.0113   24.2658 C   0  0  0  0  0  0  0  0  0  0  0  0
    8.9809  -22.0100   23.5344 O   0  0  0  0  0  0  0  0  0  0  0  0
    4.9255  -19.5101   22.1637 N   0  0  0  0  0  0  0  0  0  0  0  0
    6.2373  -19.0919   22.4545 C   0  0  0  0  0  0  0  0  0  0  0  0
    7.0582  -19.0139   21.4974 O   0  0  0  0  0  0  0  0  0  0  0  0
    6.6973  -18.7448   23.7968 C   0  0  0  0  0  0  0  0  0  0  0  0
    7.8986  -19.4853   24.2829 C   0  0  2  0  0  0  0  0  0  0  0  0
    7.4113  -20.8068   24.7178 N   0  0  0  0  0  0  0  0  0  0  0  0
    8.6113  -18.8381   25.4029 C   0  0  0  0  0  0  0  0  0  0  0  0
    8.9992  -17.6564   25.2714 O   0  0  0  0  0  0  0  0  0  0  0  0
    8.8482  -19.5391   26.5916 N   0  0  0  0  0  0  0  0  0  0  0  0
    9.6249  -19.0281   27.7015 C   0  0  0  0  0  0  0  0  0  0  0  0
    9.6433  -19.9611   28.8241 C   0  0  0  0  0  0  0  0  0  0  0  0
    9.1624  -21.1152   28.7489 O   0  0  0  0  0  0  0  0  0  0  0  0
   10.2103  -19.5796   30.0328 O   0  0  0  0  0  0  0  0  0  0  0  0
  2  1  1  6
  3  2  1  0
  4  5  1  6
  4  2  1  0
  6  4  1  0
  6  7  2  0
  8  9  1  0
  9 11  1  0
 10  9  2  0
 12 11  1  1
 12 13  1  0
 12 14  1  0
 13  6  1  0
 14 15  2  0
 14 16  1  0
 16 17  1  0
 18 17  1  0
 18 20  1  0
 19 18  2  0
M  END
$$$$
