TNG.pdb
     RDKit          3D

 20 19  0  0  1  0  0  0  0  0999 V2000
    6.1034  -19.8291   21.1102 C   0  0  0  0  0  0  0  0  0  0  0  0
    7.3563  -18.9902   20.9397 C   0  0  1  0  0  0  0  0  0  0  0  0
    8.5046  -19.7469   20.9721 O   0  0  0  0  0  0  0  0  0  0  0  0
    7.2688  -18.2735   19.6336 C   0  0  2  0  0  0  0  0  0  0  0  0
    7.2245  -19.1112   18.4751 N   0  0  0  0  0  0  0  0  0  0  0  0
    8.3792  -17.2754   19.5529 C   0  0  0  0  0  0  0  0  0  0  0  0
    9.2476  -17.3706   18.6504 O   0  0  0  0  0  0  0  0  0  0  0  0
    6.7319  -12.6025   19.1751 N   0  0  0  0  0  0  0  0  0  0  0  0
    7.8501  -13.4559   19.2182 C   0  0  0  0  0  0  0  0  0  0  0  0
    8.3096  -13.8829   18.1216 O   0  0  0  0  0  0  0  0  0  0  0  0
    8.5040  -13.8712   20.4566 C   0  0  0  0  0  0  0  0  0  0  0  0
    9.3588  -15.0911   20.3616 C   0  0  2  0  0  0  0  0  0  0  0  0
    8.4424  -16.2387   20.4894 N   0  0  0  0  0  0  0  0  0  0  0  0
   10.4089  -15.1911   21.3953 C   0  0  0  0  0  0  0  0  0  0  0  0
   11.2566  -14.2762   21.4873 O   0  0  0  0  0  0  0  0  0  0  0  0
   10.4525  -16.2940   22.2567 N   0  0  0  0  0  0  0  0  0  0  0  0
   11.4957  -16.5286   23.2328 C   0  0  0  0  0  0  0  0  0  0  0  0
   11.2255  -17.7150   24.0393 C   0  0  0  0  0  0  0  0  0  0  0  0
   11.1640  -18.8649   23.5465 O   0  0  0  0  0  0  0  0  0  0  0  0
   11.0259  -17.5918   25.4078 O   0  0  0  0  0  0  0  0  0  0  0  0
  2  1  1  6
  3  2  1  0
  4  5  1  6
  4  2  1  0
  6  4  1  0
  6  7  2  0
  8  9  1  0
  9 11  1  0
 10  9  2  0
 12 11  1  1
 12 13  1  0
 12 14  1  0
 13  6  1  0
 14 15  2  0
 14 16  1  0
 16 17  1  0
 18 17  1  0
 18 20  1  0
 19 18  2  0
M  END
$$$$
