TNG.pdb
     RDKit          3D

 20 19  0  0  1  0  0  0  0  0999 V2000
    6.3967  -15.5534   20.5535 C   0  0  0  0  0  0  0  0  0  0  0  0
    7.5994  -14.7633   20.0718 C   0  0  1  0  0  0  0  0  0  0  0  0
    7.5787  -14.5496   18.7132 O   0  0  0  0  0  0  0  0  0  0  0  0
    7.6157  -13.4509   20.7823 C   0  0  2  0  0  0  0  0  0  0  0  0
    8.2033  -12.3672   20.0570 N   0  0  0  0  0  0  0  0  0  0  0  0
    8.2556  -13.6324   22.1213 C   0  0  0  0  0  0  0  0  0  0  0  0
    9.4445  -13.2714   22.3056 O   0  0  0  0  0  0  0  0  0  0  0  0
    5.2139  -12.2959   25.7481 N   0  0  0  0  0  0  0  0  0  0  0  0
    6.5084  -12.8396   25.8438 C   0  0  0  0  0  0  0  0  0  0  0  0
    7.4242  -12.1054   26.3111 O   0  0  0  0  0  0  0  0  0  0  0  0
    6.8471  -14.2001   25.4340 C   0  0  0  0  0  0  0  0  0  0  0  0
    8.0345  -14.3319   24.5393 C   0  0  2  0  0  0  0  0  0  0  0  0
    7.5207  -14.2069   23.1633 N   0  0  0  0  0  0  0  0  0  0  0  0
    8.7673  -15.6075   24.6698 C   0  0  0  0  0  0  0  0  0  0  0  0
    9.1926  -15.9487   25.7953 O   0  0  0  0  0  0  0  0  0  0  0  0
    8.9815  -16.4194   23.5495 N   0  0  0  0  0  0  0  0  0  0  0  0
    9.6368  -17.7098   23.5879 C   0  0  0  0  0  0  0  0  0  0  0  0
   11.0816  -17.5786   23.7507 C   0  0  0  0  0  0  0  0  0  0  0  0
   11.6566  -16.4666   23.7921 O   0  0  0  0  0  0  0  0  0  0  0  0
   11.8717  -18.7143   23.8670 O   0  0  0  0  0  0  0  0  0  0  0  0
  2  1  1  1
  3  2  1  0
  4  5  1  6
  4  2  1  0
  6  4  1  0
  6  7  2  0
  8  9  1  0
  9 11  1  0
 10  9  2  0
 12 11  1  1
 12 13  1  0
 12 14  1  0
 13  6  1  0
 14 15  2  0
 14 16  1  0
 16 17  1  0
 18 17  1  0
 18 20  1  0
 19 18  2  0
M  END
$$$$
