TNG.pdb
     RDKit          3D

 20 19  0  0  1  0  0  0  0  0999 V2000
   12.1351  -26.5026   36.1904 C   0  0  0  0  0  0  0  0  0  0  0  0
   11.2914  -26.1415   34.9819 C   0  0  1  0  0  0  0  0  0  0  0  0
   11.9741  -26.2976   33.7980 O   0  0  0  0  0  0  0  0  0  0  0  0
   10.0795  -27.0127   34.9767 C   0  0  2  0  0  0  0  0  0  0  0  0
    9.3121  -26.9901   33.7699 N   0  0  0  0  0  0  0  0  0  0  0  0
    9.2422  -26.6856   36.1714 C   0  0  0  0  0  0  0  0  0  0  0  0
    8.0774  -26.2398   36.0215 O   0  0  0  0  0  0  0  0  0  0  0  0
    6.9580  -27.7621   40.6463 N   0  0  0  0  0  0  0  0  0  0  0  0
    7.0430  -28.4717   39.4341 C   0  0  0  0  0  0  0  0  0  0  0  0
    6.2178  -29.4082   39.2389 O   0  0  0  0  0  0  0  0  0  0  0  0
    8.0290  -28.1843   38.3954 C   0  0  0  0  0  0  0  0  0  0  0  0
    8.9255  -27.0198   38.6559 C   0  0  2  0  0  0  0  0  0  0  0  0
    9.7665  -26.8791   37.4534 N   0  0  0  0  0  0  0  0  0  0  0  0
    9.7942  -27.1626   39.8417 C   0  0  0  0  0  0  0  0  0  0  0  0
    9.2652  -27.2821   40.9687 O   0  0  0  0  0  0  0  0  0  0  0  0
   11.1875  -27.1633   39.7034 N   0  0  0  0  0  0  0  0  0  0  0  0
   12.1188  -27.2685   40.8069 C   0  0  0  0  0  0  0  0  0  0  0  0
   12.5486  -25.9559   41.2796 C   0  0  0  0  0  0  0  0  0  0  0  0
   12.0743  -24.8885   40.8272 O   0  0  0  0  0  0  0  0  0  0  0  0
   13.5184  -25.8590   42.2684 O   0  0  0  0  0  0  0  0  0  0  0  0
  2  1  1  1
  3  2  1  0
  4  5  1  6
  4  2  1  0
  6  4  1  0
  6  7  2  0
  8  9  1  0
  9 11  1  0
 10  9  2  0
 12 11  1  6
 12 13  1  0
 12 14  1  0
 13  6  1  0
 14 15  2  0
 14 16  1  0
 16 17  1  0
 18 17  1  0
 18 20  1  0
 19 18  2  0
M  END
$$$$
