TNG.pdb
     RDKit          3D

 20 19  0  0  1  0  0  0  0  0999 V2000
    5.5539  -19.1955   19.7175 C   0  0  0  0  0  0  0  0  0  0  0  0
    5.8014  -18.4176   20.9967 C   0  0  1  0  0  0  0  0  0  0  0  0
    5.6881  -17.0587   20.8163 O   0  0  0  0  0  0  0  0  0  0  0  0
    4.8133  -18.8683   22.0204 C   0  0  2  0  0  0  0  0  0  0  0  0
    3.4386  -18.6950   21.6652 N   0  0  0  0  0  0  0  0  0  0  0  0
    5.1346  -18.2136   23.3256 C   0  0  0  0  0  0  0  0  0  0  0  0
    4.3455  -17.3695   23.8182 O   0  0  0  0  0  0  0  0  0  0  0  0
    7.5554  -18.8455   28.6147 N   0  0  0  0  0  0  0  0  0  0  0  0
    7.9908  -18.5354   27.3130 C   0  0  0  0  0  0  0  0  0  0  0  0
    9.0370  -17.8379   27.1906 O   0  0  0  0  0  0  0  0  0  0  0  0
    7.3013  -18.9753   26.1026 C   0  0  0  0  0  0  0  0  0  0  0  0
    6.7592  -17.8896   25.2336 C   0  0  2  0  0  0  0  0  0  0  0  0
    6.3188  -18.5479   23.9903 N   0  0  0  0  0  0  0  0  0  0  0  0
    7.7260  -16.8235   24.9021 C   0  0  0  0  0  0  0  0  0  0  0  0
    7.7709  -15.8019   25.6221 O   0  0  0  0  0  0  0  0  0  0  0  0
    8.5771  -16.9569   23.7984 N   0  0  0  0  0  0  0  0  0  0  0  0
    9.5317  -15.9538   23.3758 C   0  0  0  0  0  0  0  0  0  0  0  0
   10.8839  -16.4969   23.2870 C   0  0  0  0  0  0  0  0  0  0  0  0
   11.1545  -17.6829   23.5855 O   0  0  0  0  0  0  0  0  0  0  0  0
   11.9282  -15.6890   22.8573 O   0  0  0  0  0  0  0  0  0  0  0  0
  2  1  1  6
  3  2  1  0
  4  5  1  6
  4  2  1  0
  6  4  1  0
  6  7  2  0
  8  9  1  0
  9 11  1  0
 10  9  2  0
 12 11  1  1
 12 13  1  0
 12 14  1  0
 13  6  1  0
 14 15  2  0
 14 16  1  0
 16 17  1  0
 18 17  1  0
 18 20  1  0
 19 18  2  0
M  END
$$$$
