TNG.pdb
     RDKit          3D

 20 19  0  0  1  0  0  0  0  0999 V2000
    6.0768  -21.4681   16.3877 C   0  0  0  0  0  0  0  0  0  0  0  0
    5.9382  -21.0379   17.8362 C   0  0  1  0  0  0  0  0  0  0  0  0
    7.1554  -20.8863   18.4588 O   0  0  0  0  0  0  0  0  0  0  0  0
    5.1950  -19.7442   17.8740 C   0  0  2  0  0  0  0  0  0  0  0  0
    5.7824  -18.6763   17.1254 N   0  0  0  0  0  0  0  0  0  0  0  0
    4.9644  -19.3591   19.3002 C   0  0  0  0  0  0  0  0  0  0  0  0
    5.4693  -18.3037   19.7574 O   0  0  0  0  0  0  0  0  0  0  0  0
    1.9612  -18.1357   20.1295 N   0  0  0  0  0  0  0  0  0  0  0  0
    1.5010  -19.2183   20.9019 C   0  0  0  0  0  0  0  0  0  0  0  0
    0.2556  -19.4267   20.9440 O   0  0  0  0  0  0  0  0  0  0  0  0
    2.3820  -20.1090   21.6530 C   0  0  0  0  0  0  0  0  0  0  0  0
    3.8444  -19.8455   21.5124 C   0  0  2  0  0  0  0  0  0  0  0  0
    4.1845  -20.1827   20.1182 N   0  0  0  0  0  0  0  0  0  0  0  0
    4.7031  -20.6279   22.4243 C   0  0  0  0  0  0  0  0  0  0  0  0
    4.5596  -20.4889   23.6589 O   0  0  0  0  0  0  0  0  0  0  0  0
    5.6623  -21.5099   21.9120 N   0  0  0  0  0  0  0  0  0  0  0  0
    6.5058  -22.3622   22.7233 C   0  0  0  0  0  0  0  0  0  0  0  0
    7.8648  -21.8391   22.8257 C   0  0  0  0  0  0  0  0  0  0  0  0
    8.8525  -22.4278   22.3287 O   0  0  0  0  0  0  0  0  0  0  0  0
    8.0990  -20.6447   23.4938 O   0  0  0  0  0  0  0  0  0  0  0  0
  2  1  1  6
  3  2  1  0
  4  5  1  1
  4  2  1  0
  6  4  1  0
  6  7  2  0
  8  9  1  0
  9 11  1  0
 10  9  2  0
 12 11  1  1
 12 13  1  0
 12 14  1  0
 13  6  1  0
 14 15  2  0
 14 16  1  0
 16 17  1  0
 18 17  1  0
 18 20  1  0
 19 18  2  0
M  END
$$$$
