RVS.pdb
     RDKit          3D

 25 24  0  0  1  0  0  0  0  0999 V2000
   12.6224  -14.3675   20.8238 N   0  0  0  0  0  0  0  0  0  0  0  0
   12.5411  -14.3694   19.4042 C   0  0  0  0  0  0  0  0  0  0  0  0
   13.5172  -13.9535   18.6585 N   0  0  0  0  0  0  0  0  0  0  0  0
   11.3707  -14.8328   18.7109 N   0  0  0  0  0  0  0  0  0  0  0  0
   10.1071  -14.9300   19.3310 C   0  0  0  0  0  0  0  0  0  0  0  0
    9.3634  -13.7368   19.7363 C   0  0  0  0  0  0  0  0  0  0  0  0
    8.0643  -13.7865   20.4045 C   0  0  0  0  0  0  0  0  0  0  0  0
    7.8508  -14.7749   21.4796 C   0  0  2  0  0  0  0  0  0  0  0  0
    6.5387  -15.3575   21.5402 N   0  0  0  0  0  0  0  0  0  0  0  0
    8.0730  -14.1589   22.8403 C   0  0  0  0  0  0  0  0  0  0  0  0
    7.6563  -13.0185   23.0470 O   0  0  0  0  0  0  0  0  0  0  0  0
   13.4839  -13.9927   17.6154 C   0  0  0  0  0  0  0  0  0  0  0  0
    6.7024  -15.0556   26.1054 C   0  0  1  0  0  0  0  0  0  0  0  0
    7.6219  -13.9120   25.8473 C   0  0  0  0  0  0  0  0  0  0  0  0
    6.9802  -12.7917   25.0730 C   0  0  1  0  0  0  0  0  0  0  0  0
    8.9349  -14.3360   25.2016 N   0  0  0  0  0  0  0  0  0  0  0  0
    8.7384  -14.8472   23.8715 C   0  0  0  0  0  0  0  0  0  0  0  0
    9.6412  -15.3370   26.0450 O   0  0  0  0  0  0  0  0  0  0  0  0
    9.6657  -16.5471   25.6792 O   0  0  0  0  0  0  0  0  0  0  0  0
   10.8388  -14.5117   29.9236 C   0  0  0  0  0  0  0  0  0  0  0  0
   11.7135  -15.3499   29.2385 C   0  0  1  0  0  0  0  0  0  0  0  0
   10.9963  -15.9620   28.0731 N   0  0  0  0  0  0  0  0  0  0  0  0
   10.2968  -15.0163   27.2484 C   0  0  0  0  0  0  0  0  0  0  0  0
   10.1466  -17.1117   28.4622 O   0  0  0  0  0  0  0  0  0  0  0  0
   10.5576  -18.1046   29.1025 O   0  0  0  0  0  0  0  0  0  0  0  0
  2  1  1  0
  3  2  2  0
  4  2  1  0
  5  4  1  0
  6  5  1  0
  7  6  1  0
  8 10  1  0
  8  7  1  0
  8  9  1  1
 10 11  2  0
 13 12  1  1
 14 13  1  0
 15 13  1  0
 16 10  1  0
 15 16  1  6
 17 22  1  0
 17 15  1  0
 18 17  2  0
 19 20  1  0
 21 20  1  6
 21 22  1  0
 23 21  1  0
 24 23  2  0
 25 23  1  0
M  END
$$$$
