RVS.pdb
     RDKit          3D

 25 24  0  0  1  0  0  0  0  0999 V2000
    7.8776  -21.5002   14.1960 N   0  0  0  0  0  0  0  0  0  0  0  0
    9.2390  -21.1078   14.3156 C   0  0  0  0  0  0  0  0  0  0  0  0
   10.0541  -21.1348   13.3071 N   0  0  0  0  0  0  0  0  0  0  0  0
    9.7932  -20.6578   15.5627 N   0  0  0  0  0  0  0  0  0  0  0  0
    9.0358  -20.5870   16.7510 C   0  0  0  0  0  0  0  0  0  0  0  0
    7.7904  -19.8218   16.8163 C   0  0  0  0  0  0  0  0  0  0  0  0
    7.6012  -18.6654   17.6902 C   0  0  0  0  0  0  0  0  0  0  0  0
    7.8371  -17.3132   17.1476 C   0  0  2  0  0  0  0  0  0  0  0  0
    8.6288  -17.2505   15.9502 N   0  0  0  0  0  0  0  0  0  0  0  0
    8.5613  -16.4423   18.1463 C   0  0  0  0  0  0  0  0  0  0  0  0
    9.7887  -16.5179   18.2144 O   0  0  0  0  0  0  0  0  0  0  0  0
   11.0642  -20.8842   13.3939 C   0  0  0  0  0  0  0  0  0  0  0  0
    8.3846  -12.5766   21.2724 C   0  0  1  0  0  0  0  0  0  0  0  0
    7.7139  -13.4740   20.2902 C   0  0  0  0  0  0  0  0  0  0  0  0
    6.2875  -13.7942   20.6497 C   0  0  2  0  0  0  0  0  0  0  0  0
    8.5022  -14.7471   20.0099 N   0  0  0  0  0  0  0  0  0  0  0  0
    7.8773  -15.5529   18.9954 C   0  0  0  0  0  0  0  0  0  0  0  0
    8.6952  -15.5360   21.2559 O   0  0  0  0  0  0  0  0  0  0  0  0
    7.7674  -16.2957   21.6570 O   0  0  0  0  0  0  0  0  0  0  0  0
   11.3944  -17.9146   21.9497 C   0  0  0  0  0  0  0  0  0  0  0  0
   10.3136  -17.7841   22.8168 C   0  0  1  0  0  0  0  0  0  0  0  0
   10.1325  -16.3366   23.1620 N   0  0  0  0  0  0  0  0  0  0  0  0
    9.8681  -15.4895   22.0322 C   0  0  0  0  0  0  0  0  0  0  0  0
   11.2191  -15.8117   24.0216 O   0  0  0  0  0  0  0  0  0  0  0  0
   11.9167  -14.8119   23.7410 O   0  0  0  0  0  0  0  0  0  0  0  0
  2  1  1  0
  3  2  2  0
  4  2  1  0
  5  4  1  0
  6  5  1  0
  7  6  1  0
  8 10  1  0
  8  7  1  0
  8  9  1  6
 10 11  2  0
 13 12  1  6
 14 13  1  0
 15 13  1  0
 16 10  1  0
 15 16  1  1
 17 22  1  0
 17 15  1  0
 18 17  2  0
 19 20  1  0
 21 20  1  1
 21 22  1  0
 23 21  1  0
 24 23  2  0
 25 23  1  0
M  END
$$$$
