RVS.pdb
     RDKit          3D

 25 24  0  0  1  0  0  0  0  0999 V2000
    8.1753  -17.8830   18.5321 N   0  0  0  0  0  0  0  0  0  0  0  0
    7.8573  -17.3223   17.2647 C   0  0  0  0  0  0  0  0  0  0  0  0
    7.5178  -18.0583   16.2522 N   0  0  0  0  0  0  0  0  0  0  0  0
    7.8936  -15.9050   17.0303 N   0  0  0  0  0  0  0  0  0  0  0  0
    7.4190  -14.9655   17.9700 C   0  0  0  0  0  0  0  0  0  0  0  0
    6.9247  -15.3834   19.2822 C   0  0  0  0  0  0  0  0  0  0  0  0
    7.5668  -15.0088   20.5408 C   0  0  0  0  0  0  0  0  0  0  0  0
    7.3719  -13.6426   21.0639 C   0  0  2  0  0  0  0  0  0  0  0  0
    7.7913  -12.5764   20.1967 N   0  0  0  0  0  0  0  0  0  0  0  0
    8.1401  -13.4338   22.3471 C   0  0  0  0  0  0  0  0  0  0  0  0
    9.3144  -13.0687   22.2790 O   0  0  0  0  0  0  0  0  0  0  0  0
    7.3566  -17.6632   15.2990 C   0  0  0  0  0  0  0  0  0  0  0  0
    8.2513  -12.5071   27.1476 C   0  0  1  0  0  0  0  0  0  0  0  0
    7.4906  -12.7256   25.8852 C   0  0  0  0  0  0  0  0  0  0  0  0
    6.1130  -13.2906   26.1072 C   0  0  2  0  0  0  0  0  0  0  0  0
    8.2581  -13.5523   24.8615 N   0  0  0  0  0  0  0  0  0  0  0  0
    7.5554  -13.6435   23.6096 C   0  0  0  0  0  0  0  0  0  0  0  0
    8.5550  -14.9098   25.3919 O   0  0  0  0  0  0  0  0  0  0  0  0
    7.6548  -15.7972   25.3595 O   0  0  0  0  0  0  0  0  0  0  0  0
   10.8113  -17.2980   24.3986 C   0  0  0  0  0  0  0  0  0  0  0  0
   11.1044  -17.3602   25.7577 C   0  0  2  0  0  0  0  0  0  0  0  0
   10.0896  -16.5591   26.5165 N   0  0  0  0  0  0  0  0  0  0  0  0
    9.7990  -15.2764   25.9385 C   0  0  0  0  0  0  0  0  0  0  0  0
   10.3932  -16.4725   27.9640 O   0  0  0  0  0  0  0  0  0  0  0  0
   10.4545  -15.4010   28.6066 O   0  0  0  0  0  0  0  0  0  0  0  0
  2  1  1  0
  3  2  2  0
  4  2  1  0
  5  4  1  0
  6  5  1  0
  7  6  1  0
  8 10  1  0
  8  7  1  0
  8  9  1  6
 10 11  2  0
 13 12  1  1
 14 13  1  0
 15 13  1  0
 16 10  1  0
 15 16  1  1
 17 22  1  0
 17 15  1  0
 18 17  2  0
 19 20  1  0
 21 20  1  6
 21 22  1  0
 23 21  1  0
 24 23  2  0
 25 23  1  0
M  END
$$$$
