RVS.pdb
     RDKit          3D

 25 24  0  0  1  0  0  0  0  0999 V2000
    8.2364  -12.8471   16.9143 N   0  0  0  0  0  0  0  0  0  0  0  0
    8.5380  -14.0976   16.3085 C   0  0  0  0  0  0  0  0  0  0  0  0
    8.4867  -14.2703   15.0242 N   0  0  0  0  0  0  0  0  0  0  0  0
    8.9180  -15.2458   17.0847 N   0  0  0  0  0  0  0  0  0  0  0  0
    8.2132  -15.6528   18.2373 C   0  0  0  0  0  0  0  0  0  0  0  0
    7.8266  -14.6935   19.2723 C   0  0  0  0  0  0  0  0  0  0  0  0
    8.3651  -14.7147   20.6310 C   0  0  0  0  0  0  0  0  0  0  0  0
    7.4344  -14.8640   21.7667 C   0  0  2  0  0  0  0  0  0  0  0  0
    6.1317  -14.2851   21.5863 N   0  0  0  0  0  0  0  0  0  0  0  0
    7.9857  -14.2156   23.0141 C   0  0  0  0  0  0  0  0  0  0  0  0
    8.6659  -13.1955   22.8976 O   0  0  0  0  0  0  0  0  0  0  0  0
    8.6850  -15.1908   14.5724 C   0  0  0  0  0  0  0  0  0  0  0  0
    6.2568  -14.5040   26.8596 C   0  0  1  0  0  0  0  0  0  0  0  0
    7.3519  -13.5902   26.4289 C   0  0  0  0  0  0  0  0  0  0  0  0
    6.8547  -12.3001   25.8333 C   0  0  1  0  0  0  0  0  0  0  0  0
    8.3606  -14.2614   25.5055 N   0  0  0  0  0  0  0  0  0  0  0  0
    7.7456  -14.7412   24.2970 C   0  0  0  0  0  0  0  0  0  0  0  0
    9.0655  -15.3681   26.2059 O   0  0  0  0  0  0  0  0  0  0  0  0
    8.5478  -16.5216   26.2178 O   0  0  0  0  0  0  0  0  0  0  0  0
   12.3103  -14.7022   28.8281 C   0  0  0  0  0  0  0  0  0  0  0  0
   12.3239  -15.8870   28.0981 C   0  0  1  0  0  0  0  0  0  0  0  0
   10.9248  -16.2196   27.6749 N   0  0  0  0  0  0  0  0  0  0  0  0
   10.2965  -15.2096   26.8694 C   0  0  0  0  0  0  0  0  0  0  0  0
   10.0717  -16.6543   28.8056 O   0  0  0  0  0  0  0  0  0  0  0  0
    9.0179  -16.0770   29.1536 O   0  0  0  0  0  0  0  0  0  0  0  0
  2  1  1  0
  3  2  2  0
  4  2  1  0
  5  4  1  0
  6  5  1  0
  7  6  1  0
  8 10  1  0
  8  7  1  0
  8  9  1  6
 10 11  2  0
 13 12  1  1
 14 13  1  0
 15 13  1  0
 16 10  1  0
 15 16  1  6
 17 22  1  0
 17 15  1  0
 18 17  2  0
 19 20  1  0
 21 20  1  6
 21 22  1  0
 23 21  1  0
 24 23  2  0
 25 23  1  0
M  END
$$$$
