RVS.pdb
     RDKit          3D

 25 24  0  0  1  0  0  0  0  0999 V2000
    9.5801  -14.5249   16.4215 N   0  0  0  0  0  0  0  0  0  0  0  0
    8.4525  -13.6639   16.3270 C   0  0  0  0  0  0  0  0  0  0  0  0
    7.8513  -13.4384   15.2003 N   0  0  0  0  0  0  0  0  0  0  0  0
    7.9116  -12.9916   17.4762 N   0  0  0  0  0  0  0  0  0  0  0  0
    8.3892  -13.2165   18.7847 C   0  0  0  0  0  0  0  0  0  0  0  0
    8.4364  -14.5620   19.3577 C   0  0  0  0  0  0  0  0  0  0  0  0
    9.0128  -14.8591   20.6678 C   0  0  0  0  0  0  0  0  0  0  0  0
    8.1425  -15.4148   21.7223 C   0  0  2  0  0  0  0  0  0  0  0  0
    6.7724  -14.9828   21.6928 N   0  0  0  0  0  0  0  0  0  0  0  0
    8.6445  -15.0436   23.0972 C   0  0  0  0  0  0  0  0  0  0  0  0
    9.8407  -15.1939   23.3491 O   0  0  0  0  0  0  0  0  0  0  0  0
    6.9789  -12.8682   15.1328 C   0  0  0  0  0  0  0  0  0  0  0  0
    5.9434  -13.6531   26.3824 C   0  0  1  0  0  0  0  0  0  0  0  0
    7.2834  -13.1086   26.0248 C   0  0  0  0  0  0  0  0  0  0  0  0
    7.2175  -11.8786   25.1592 C   0  0  1  0  0  0  0  0  0  0  0  0
    8.2085  -14.1535   25.4141 N   0  0  0  0  0  0  0  0  0  0  0  0
    7.7894  -14.5341   24.0917 C   0  0  0  0  0  0  0  0  0  0  0  0
    8.3100  -15.3495   26.2924 O   0  0  0  0  0  0  0  0  0  0  0  0
    7.3198  -16.1296   26.3922 O   0  0  0  0  0  0  0  0  0  0  0  0
   11.3458  -17.8193   26.6010 C   0  0  0  0  0  0  0  0  0  0  0  0
   10.0728  -18.0616   27.1086 C   0  0  1  0  0  0  0  0  0  0  0  0
    9.6005  -16.8479   27.8510 N   0  0  0  0  0  0  0  0  0  0  0  0
    9.4609  -15.6743   27.0343 C   0  0  0  0  0  0  0  0  0  0  0  0
   10.3804  -16.5904   29.0842 O   0  0  0  0  0  0  0  0  0  0  0  0
   10.8905  -15.4860   29.3756 O   0  0  0  0  0  0  0  0  0  0  0  0
  2  1  1  0
  3  2  2  0
  4  2  1  0
  5  4  1  0
  6  5  1  0
  7  6  1  0
  8 10  1  0
  8  7  1  0
  8  9  1  6
 10 11  2  0
 13 12  1  1
 14 13  1  0
 15 13  1  0
 16 10  1  0
 15 16  1  6
 17 22  1  0
 17 15  1  0
 18 17  2  0
 19 20  1  0
 21 20  1  6
 21 22  1  0
 23 21  1  0
 24 23  2  0
 25 23  1  0
M  END
$$$$
