RVS.pdb
     RDKit          3D

 25 24  0  0  1  0  0  0  0  0999 V2000
    8.0899  -11.8942   17.8874 N   0  0  0  0  0  0  0  0  0  0  0  0
    8.3984  -13.2736   17.7332 C   0  0  0  0  0  0  0  0  0  0  0  0
    8.4027  -13.8523   16.5726 N   0  0  0  0  0  0  0  0  0  0  0  0
    8.7241  -14.1093   18.8560 N   0  0  0  0  0  0  0  0  0  0  0  0
    7.9252  -15.2047   19.2469 C   0  0  0  0  0  0  0  0  0  0  0  0
    6.7234  -15.0192   20.0606 C   0  0  0  0  0  0  0  0  0  0  0  0
    6.7582  -14.7098   21.4888 C   0  0  0  0  0  0  0  0  0  0  0  0
    7.4621  -15.6305   22.4028 C   0  0  2  0  0  0  0  0  0  0  0  0
    6.6624  -16.6827   22.9666 N   0  0  0  0  0  0  0  0  0  0  0  0
    8.0356  -14.8914   23.5881 C   0  0  0  0  0  0  0  0  0  0  0  0
    8.3577  -13.7109   23.4480 O   0  0  0  0  0  0  0  0  0  0  0  0
    8.5892  -14.8731   16.4541 C   0  0  0  0  0  0  0  0  0  0  0  0
    6.5159  -13.8319   26.7834 C   0  0  1  0  0  0  0  0  0  0  0  0
    7.9041  -13.5688   26.3104 C   0  0  0  0  0  0  0  0  0  0  0  0
    7.9682  -12.6228   25.1411 C   0  0  1  0  0  0  0  0  0  0  0  0
    8.6876  -14.8430   26.0218 N   0  0  0  0  0  0  0  0  0  0  0  0
    8.2111  -15.5099   24.8398 C   0  0  0  0  0  0  0  0  0  0  0  0
    8.6511  -15.7635   27.1895 O   0  0  0  0  0  0  0  0  0  0  0  0
    7.5867  -16.3963   27.4452 O   0  0  0  0  0  0  0  0  0  0  0  0
   11.3259  -18.1944   27.2518 C   0  0  0  0  0  0  0  0  0  0  0  0
   10.2106  -18.4005   28.0583 C   0  0  1  0  0  0  0  0  0  0  0  0
    9.9376  -17.1553   28.8471 N   0  0  0  0  0  0  0  0  0  0  0  0
    9.7478  -15.9788   28.0448 C   0  0  0  0  0  0  0  0  0  0  0  0
   10.9143  -16.9436   29.9408 O   0  0  0  0  0  0  0  0  0  0  0  0
   11.5324  -15.8733   30.1340 O   0  0  0  0  0  0  0  0  0  0  0  0
  2  1  1  0
  3  2  2  0
  4  2  1  0
  5  4  1  0
  6  5  1  0
  7  6  1  0
  8 10  1  0
  8  7  1  0
  8  9  1  1
 10 11  2  0
 13 12  1  1
 14 13  1  0
 15 13  1  0
 16 10  1  0
 15 16  1  6
 17 22  1  0
 17 15  1  0
 18 17  2  0
 19 20  1  0
 21 20  1  6
 21 22  1  0
 23 21  1  0
 24 23  2  0
 25 23  1  0
M  END
$$$$
