RVS.pdb
     RDKit          3D

 25 24  0  0  1  0  0  0  0  0999 V2000
    6.2844  -16.5793   18.2916 N   0  0  0  0  0  0  0  0  0  0  0  0
    5.4585  -17.7357   18.3422 C   0  0  0  0  0  0  0  0  0  0  0  0
    4.3913  -17.8514   17.6146 N   0  0  0  0  0  0  0  0  0  0  0  0
    5.7580  -18.8459   19.2040 N   0  0  0  0  0  0  0  0  0  0  0  0
    6.8080  -18.8170   20.1460 C   0  0  0  0  0  0  0  0  0  0  0  0
    7.6845  -17.6525   20.2743 C   0  0  0  0  0  0  0  0  0  0  0  0
    7.9220  -16.9593   21.5392 C   0  0  0  0  0  0  0  0  0  0  0  0
    7.6628  -15.5086   21.6190 C   0  0  2  0  0  0  0  0  0  0  0  0
    8.1408  -14.7273   20.5119 N   0  0  0  0  0  0  0  0  0  0  0  0
    8.3135  -14.9034   22.8400 C   0  0  0  0  0  0  0  0  0  0  0  0
    9.4889  -14.5434   22.7649 O   0  0  0  0  0  0  0  0  0  0  0  0
    3.7746  -18.6935   17.6511 C   0  0  0  0  0  0  0  0  0  0  0  0
    5.9889  -13.6815   26.3463 C   0  0  1  0  0  0  0  0  0  0  0  0
    7.3032  -13.1463   25.8921 C   0  0  0  0  0  0  0  0  0  0  0  0
    7.1812  -11.9437   24.9947 C   0  0  1  0  0  0  0  0  0  0  0  0
    8.1934  -14.2082   25.2591 N   0  0  0  0  0  0  0  0  0  0  0  0
    7.6188  -14.7407   24.0527 C   0  0  0  0  0  0  0  0  0  0  0  0
    8.4824  -15.3017   26.2249 O   0  0  0  0  0  0  0  0  0  0  0  0
    7.5358  -15.7940   26.9035 O   0  0  0  0  0  0  0  0  0  0  0  0
   12.1979  -17.3966   26.2913 C   0  0  0  0  0  0  0  0  0  0  0  0
   10.9539  -17.9951   26.4684 C   0  0  1  0  0  0  0  0  0  0  0  0
   10.0427  -17.0357   27.1729 N   0  0  0  0  0  0  0  0  0  0  0  0
    9.7682  -15.8337   26.4357 C   0  0  0  0  0  0  0  0  0  0  0  0
   10.4651  -16.7617   28.5663 O   0  0  0  0  0  0  0  0  0  0  0  0
   10.7184  -17.6486   29.4114 O   0  0  0  0  0  0  0  0  0  0  0  0
  2  1  1  0
  3  2  2  0
  4  2  1  0
  5  4  1  0
  6  5  1  0
  7  6  1  0
  8 10  1  0
  8  7  1  0
  8  9  1  6
 10 11  2  0
 13 12  1  1
 14 13  1  0
 15 13  1  0
 16 10  1  0
 15 16  1  6
 17 22  1  0
 17 15  1  0
 18 17  2  0
 19 20  1  0
 21 20  1  6
 21 22  1  0
 23 21  1  0
 24 23  2  0
 25 23  1  0
M  END
$$$$
