RVS.pdb
     RDKit          3D

 25 24  0  0  1  0  0  0  0  0999 V2000
    6.9225  -13.0300   17.5732 N   0  0  0  0  0  0  0  0  0  0  0  0
    7.9954  -13.6834   16.9070 C   0  0  0  0  0  0  0  0  0  0  0  0
    8.4641  -13.2573   15.7753 N   0  0  0  0  0  0  0  0  0  0  0  0
    8.6246  -14.8561   17.4490 N   0  0  0  0  0  0  0  0  0  0  0  0
    7.9770  -15.7142   18.3627 C   0  0  0  0  0  0  0  0  0  0  0  0
    7.6157  -15.2630   19.7069 C   0  0  0  0  0  0  0  0  0  0  0  0
    8.5506  -15.2517   20.8305 C   0  0  0  0  0  0  0  0  0  0  0  0
    8.2131  -16.0132   22.0489 C   0  0  2  0  0  0  0  0  0  0  0  0
    6.8109  -16.1497   22.3314 N   0  0  0  0  0  0  0  0  0  0  0  0
    8.8029  -15.3657   23.2791 C   0  0  0  0  0  0  0  0  0  0  0  0
   10.0244  -15.2209   23.3415 O   0  0  0  0  0  0  0  0  0  0  0  0
    9.2259  -13.7524   15.2601 C   0  0  0  0  0  0  0  0  0  0  0  0
    8.2115  -12.6563   27.3616 C   0  0  2  0  0  0  0  0  0  0  0  0
    7.6202  -13.3226   26.1673 C   0  0  0  0  0  0  0  0  0  0  0  0
    6.2206  -13.8275   26.3960 C   0  0  2  0  0  0  0  0  0  0  0  0
    8.5075  -14.4216   25.5967 N   0  0  0  0  0  0  0  0  0  0  0  0
    8.0011  -14.9263   24.3485 C   0  0  0  0  0  0  0  0  0  0  0  0
    8.6761  -15.5284   26.5758 O   0  0  0  0  0  0  0  0  0  0  0  0
    7.6694  -16.2156   26.9120 O   0  0  0  0  0  0  0  0  0  0  0  0
   11.9981  -17.8693   27.0433 C   0  0  0  0  0  0  0  0  0  0  0  0
   10.7159  -18.1726   27.4916 C   0  0  1  0  0  0  0  0  0  0  0  0
   10.1021  -16.9442   28.0930 N   0  0  0  0  0  0  0  0  0  0  0  0
    9.9095  -15.8658   27.1636 C   0  0  0  0  0  0  0  0  0  0  0  0
   10.7875  -16.5085   29.3322 O   0  0  0  0  0  0  0  0  0  0  0  0
   11.2126  -15.3487   29.5298 O   0  0  0  0  0  0  0  0  0  0  0  0
  2  1  1  0
  3  2  2  0
  4  2  1  0
  5  4  1  0
  6  5  1  0
  7  6  1  0
  8 10  1  0
  8  7  1  0
  8  9  1  1
 10 11  2  0
 13 12  1  6
 14 13  1  0
 15 13  1  0
 16 10  1  0
 15 16  1  1
 17 22  1  0
 17 15  1  0
 18 17  2  0
 19 20  1  0
 21 20  1  6
 21 22  1  0
 23 21  1  0
 24 23  2  0
 25 23  1  0
M  END
$$$$
