RVS.pdb
     RDKit          3D

 25 24  0  0  1  0  0  0  0  0999 V2000
    8.0694  -12.3131   17.1776 N   0  0  0  0  0  0  0  0  0  0  0  0
    8.1968  -13.6360   16.6721 C   0  0  0  0  0  0  0  0  0  0  0  0
    7.7056  -13.9840   15.5234 N   0  0  0  0  0  0  0  0  0  0  0  0
    8.8783  -14.6671   17.4053 N   0  0  0  0  0  0  0  0  0  0  0  0
    8.8309  -14.7590   18.8124 C   0  0  0  0  0  0  0  0  0  0  0  0
    8.1561  -13.7425   19.6200 C   0  0  0  0  0  0  0  0  0  0  0  0
    8.1692  -13.7366   21.0817 C   0  0  0  0  0  0  0  0  0  0  0  0
    8.1803  -15.0249   21.8017 C   0  0  2  0  0  0  0  0  0  0  0  0
    6.9049  -15.6709   21.9450 N   0  0  0  0  0  0  0  0  0  0  0  0
    8.7001  -14.8595   23.2099 C   0  0  0  0  0  0  0  0  0  0  0  0
    9.9039  -15.0175   23.4169 O   0  0  0  0  0  0  0  0  0  0  0  0
    7.8280  -14.9424   15.1267 C   0  0  0  0  0  0  0  0  0  0  0  0
    6.0701  -13.8356   26.7048 C   0  0  1  0  0  0  0  0  0  0  0  0
    7.3944  -13.2621   26.3343 C   0  0  0  0  0  0  0  0  0  0  0  0
    7.2931  -11.9797   25.5524 C   0  0  1  0  0  0  0  0  0  0  0  0
    8.2997  -14.2608   25.6247 N   0  0  0  0  0  0  0  0  0  0  0  0
    7.8529  -14.5322   24.2846 C   0  0  0  0  0  0  0  0  0  0  0  0
    8.4083  -15.5236   26.4030 O   0  0  0  0  0  0  0  0  0  0  0  0
    7.3971  -16.2756   26.5062 O   0  0  0  0  0  0  0  0  0  0  0  0
   11.6341  -17.9616   26.7370 C   0  0  0  0  0  0  0  0  0  0  0  0
   10.3295  -18.2939   27.0900 C   0  0  1  0  0  0  0  0  0  0  0  0
    9.7109  -17.1429   27.8247 N   0  0  0  0  0  0  0  0  0  0  0  0
    9.5887  -15.9427   27.0447 C   0  0  0  0  0  0  0  0  0  0  0  0
   10.3402  -16.8997   29.1438 O   0  0  0  0  0  0  0  0  0  0  0  0
   10.7604  -15.7857   29.5275 O   0  0  0  0  0  0  0  0  0  0  0  0
  2  1  1  0
  3  2  2  0
  4  2  1  0
  5  4  1  0
  6  5  1  0
  7  6  1  0
  8 10  1  0
  8  7  1  0
  8  9  1  1
 10 11  2  0
 13 12  1  1
 14 13  1  0
 15 13  1  0
 16 10  1  0
 15 16  1  6
 17 22  1  0
 17 15  1  0
 18 17  2  0
 19 20  1  0
 21 20  1  6
 21 22  1  0
 23 21  1  0
 24 23  2  0
 25 23  1  0
M  END
$$$$
