RVS.pdb
     RDKit          3D

 25 24  0  0  1  0  0  0  0  0999 V2000
    6.3389  -20.1817   14.0408 N   0  0  0  0  0  0  0  0  0  0  0  0
    5.0095  -19.8956   14.4564 C   0  0  0  0  0  0  0  0  0  0  0  0
    3.9780  -20.2466   13.7530 N   0  0  0  0  0  0  0  0  0  0  0  0
    4.7299  -19.1994   15.6821 N   0  0  0  0  0  0  0  0  0  0  0  0
    5.7441  -18.6436   16.4904 C   0  0  0  0  0  0  0  0  0  0  0  0
    7.0606  -19.2724   16.6008 C   0  0  0  0  0  0  0  0  0  0  0  0
    8.1573  -18.7110   17.3875 C   0  0  0  0  0  0  0  0  0  0  0  0
    8.6474  -17.3565   17.0660 C   0  0  2  0  0  0  0  0  0  0  0  0
    9.7738  -17.2952   16.1760 N   0  0  0  0  0  0  0  0  0  0  0  0
    9.0874  -16.6246   18.3114 C   0  0  0  0  0  0  0  0  0  0  0  0
   10.2412  -16.7829   18.7122 O   0  0  0  0  0  0  0  0  0  0  0  0
    2.9975  -20.0697   14.0661 C   0  0  0  0  0  0  0  0  0  0  0  0
    7.3258  -12.9533   19.4441 C   0  0  2  0  0  0  0  0  0  0  0  0
    7.5462  -13.9542   20.5256 C   0  0  0  0  0  0  0  0  0  0  0  0
    7.8354  -13.3326   21.8658 C   0  0  2  0  0  0  0  0  0  0  0  0
    8.6011  -14.9941   20.1702 N   0  0  0  0  0  0  0  0  0  0  0  0
    8.2217  -15.7727   19.0218 C   0  0  0  0  0  0  0  0  0  0  0  0
    8.8829  -15.8810   21.3305 O   0  0  0  0  0  0  0  0  0  0  0  0
    7.9832  -16.6702   21.7387 O   0  0  0  0  0  0  0  0  0  0  0  0
   12.7441  -16.7956   22.8080 C   0  0  0  0  0  0  0  0  0  0  0  0
   11.6239  -17.6105   22.9430 C   0  0  1  0  0  0  0  0  0  0  0  0
   10.4107  -16.7506   23.1331 N   0  0  0  0  0  0  0  0  0  0  0  0
   10.1116  -15.8977   22.0165 C   0  0  0  0  0  0  0  0  0  0  0  0
   10.4245  -16.0158   24.4195 O   0  0  0  0  0  0  0  0  0  0  0  0
   10.2856  -14.7768   24.5230 O   0  0  0  0  0  0  0  0  0  0  0  0
  2  1  1  0
  3  2  2  0
  4  2  1  0
  5  4  1  0
  6  5  1  0
  7  6  1  0
  8 10  1  0
  8  7  1  0
  8  9  1  6
 10 11  2  0
 13 12  1  1
 14 13  1  0
 15 13  1  0
 16 10  1  0
 15 16  1  6
 17 22  1  0
 17 15  1  0
 18 17  2  0
 19 20  1  0
 21 20  1  6
 21 22  1  0
 23 21  1  0
 24 23  2  0
 25 23  1  0
M  END
$$$$
