RVS.pdb
     RDKit          3D

 25 24  0  0  1  0  0  0  0  0999 V2000
    8.4454  -21.9701   15.8540 N   0  0  0  0  0  0  0  0  0  0  0  0
    7.7154  -21.5852   14.6961 C   0  0  0  0  0  0  0  0  0  0  0  0
    8.0565  -21.9739   13.5067 N   0  0  0  0  0  0  0  0  0  0  0  0
    6.5548  -20.7415   14.7753 N   0  0  0  0  0  0  0  0  0  0  0  0
    6.6144  -19.4049   15.2232 C   0  0  0  0  0  0  0  0  0  0  0  0
    7.7181  -18.9295   16.0579 C   0  0  0  0  0  0  0  0  0  0  0  0
    7.5299  -18.0899   17.2395 C   0  0  0  0  0  0  0  0  0  0  0  0
    7.5128  -16.6229   17.0787 C   0  0  2  0  0  0  0  0  0  0  0  0
    7.9669  -16.1289   15.8081 N   0  0  0  0  0  0  0  0  0  0  0  0
    8.3958  -15.9504   18.1027 C   0  0  0  0  0  0  0  0  0  0  0  0
    9.6122  -15.9304   17.9108 O   0  0  0  0  0  0  0  0  0  0  0  0
    7.5172  -21.7091   12.6525 C   0  0  0  0  0  0  0  0  0  0  0  0
    6.7299  -14.1321   21.7840 C   0  0  1  0  0  0  0  0  0  0  0  0
    7.8874  -13.6170   21.0000 C   0  0  0  0  0  0  0  0  0  0  0  0
    7.5194  -12.5123   20.0459 C   0  0  1  0  0  0  0  0  0  0  0  0
    8.6605  -14.7175   20.2844 N   0  0  0  0  0  0  0  0  0  0  0  0
    7.8709  -15.3503   19.2620 C   0  0  0  0  0  0  0  0  0  0  0  0
    9.1637  -15.7275   21.2533 O   0  0  0  0  0  0  0  0  0  0  0  0
    8.4335  -16.7154   21.5525 O   0  0  0  0  0  0  0  0  0  0  0  0
   13.1521  -15.7897   22.7958 C   0  0  0  0  0  0  0  0  0  0  0  0
   12.4074  -16.9431   22.5677 C   0  0  1  0  0  0  0  0  0  0  0  0
   10.9540  -16.6382   22.7718 N   0  0  0  0  0  0  0  0  0  0  0  0
   10.4262  -15.6517   21.8706 C   0  0  0  0  0  0  0  0  0  0  0  0
   10.6218  -16.3486   24.1863 O   0  0  0  0  0  0  0  0  0  0  0  0
   10.0221  -15.3206   24.5714 O   0  0  0  0  0  0  0  0  0  0  0  0
  2  1  1  0
  3  2  2  0
  4  2  1  0
  5  4  1  0
  6  5  1  0
  7  6  1  0
  8 10  1  0
  8  7  1  0
  8  9  1  6
 10 11  2  0
 13 12  1  1
 14 13  1  0
 15 13  1  0
 16 10  1  0
 15 16  1  6
 17 22  1  0
 17 15  1  0
 18 17  2  0
 19 20  1  0
 21 20  1  6
 21 22  1  0
 23 21  1  0
 24 23  2  0
 25 23  1  0
M  END
$$$$
