RVS.pdb
     RDKit          3D

 25 24  0  0  1  0  0  0  0  0999 V2000
   14.8908  -16.7729   16.2891 N   0  0  0  0  0  0  0  0  0  0  0  0
   14.6128  -17.8390   15.3903 C   0  0  0  0  0  0  0  0  0  0  0  0
   15.3493  -18.0702   14.3482 N   0  0  0  0  0  0  0  0  0  0  0  0
   13.4976  -18.7245   15.5837 N   0  0  0  0  0  0  0  0  0  0  0  0
   12.5542  -18.5461   16.6175 C   0  0  0  0  0  0  0  0  0  0  0  0
   11.7114  -17.3518   16.6822 C   0  0  0  0  0  0  0  0  0  0  0  0
   10.2504  -17.3955   16.6610 C   0  0  0  0  0  0  0  0  0  0  0  0
    9.4976  -16.1263   16.6349 C   0  0  2  0  0  0  0  0  0  0  0  0
    9.7496  -15.2742   15.5058 N   0  0  0  0  0  0  0  0  0  0  0  0
    9.8102  -15.2804   17.8461 C   0  0  0  0  0  0  0  0  0  0  0  0
   10.8173  -14.5716   17.8268 O   0  0  0  0  0  0  0  0  0  0  0  0
   15.1609  -18.8594   13.6905 C   0  0  0  0  0  0  0  0  0  0  0  0
    6.8558  -14.2657   20.8720 C   0  0  1  0  0  0  0  0  0  0  0  0
    8.1305  -13.5739   20.5309 C   0  0  0  0  0  0  0  0  0  0  0  0
    7.9754  -12.5288   19.4585 C   0  0  1  0  0  0  0  0  0  0  0  0
    9.2600  -14.5378   20.1905 N   0  0  0  0  0  0  0  0  0  0  0  0
    8.9884  -15.2795   18.9883 C   0  0  0  0  0  0  0  0  0  0  0  0
    9.5268  -15.4630   21.3240 O   0  0  0  0  0  0  0  0  0  0  0  0
    8.8365  -16.5162   21.4385 O   0  0  0  0  0  0  0  0  0  0  0  0
   13.1192  -16.1106   22.6716 C   0  0  0  0  0  0  0  0  0  0  0  0
   12.2900  -16.0803   23.7890 C   0  0  2  0  0  0  0  0  0  0  0  0
   10.8610  -16.1589   23.3429 N   0  0  0  0  0  0  0  0  0  0  0  0
   10.5182  -15.2359   22.2967 C   0  0  0  0  0  0  0  0  0  0  0  0
    9.9041  -16.1147   24.4732 O   0  0  0  0  0  0  0  0  0  0  0  0
    8.9634  -15.2954   24.5663 O   0  0  0  0  0  0  0  0  0  0  0  0
  2  1  1  0
  3  2  2  0
  4  2  1  0
  5  4  1  0
  6  5  1  0
  7  6  1  0
  8 10  1  0
  8  7  1  0
  8  9  1  6
 10 11  2  0
 13 12  1  1
 14 13  1  0
 15 13  1  0
 16 10  1  0
 15 16  1  6
 17 22  1  0
 17 15  1  0
 18 17  2  0
 19 20  1  0
 21 20  1  6
 21 22  1  0
 23 21  1  0
 24 23  2  0
 25 23  1  0
M  END
$$$$
