RVS.pdb
     RDKit          3D

 25 24  0  0  1  0  0  0  0  0999 V2000
    8.0429  -11.7090   18.2546 N   0  0  0  0  0  0  0  0  0  0  0  0
    8.0168  -13.0160   17.6952 C   0  0  0  0  0  0  0  0  0  0  0  0
    8.5957  -13.2941   16.5686 N   0  0  0  0  0  0  0  0  0  0  0  0
    7.3462  -14.1077   18.3462 N   0  0  0  0  0  0  0  0  0  0  0  0
    6.6935  -13.9677   19.5893 C   0  0  0  0  0  0  0  0  0  0  0  0
    7.1284  -14.7193   20.7670 C   0  0  0  0  0  0  0  0  0  0  0  0
    8.5265  -14.8329   21.1782 C   0  0  0  0  0  0  0  0  0  0  0  0
    8.8624  -15.6711   22.3457 C   0  0  2  0  0  0  0  0  0  0  0  0
    7.9095  -16.6954   22.6735 N   0  0  0  0  0  0  0  0  0  0  0  0
    8.9928  -14.8371   23.5978 C   0  0  0  0  0  0  0  0  0  0  0  0
    9.2218  -13.6324   23.4832 O   0  0  0  0  0  0  0  0  0  0  0  0
    8.6460  -14.2649   16.1869 C   0  0  0  0  0  0  0  0  0  0  0  0
    6.5940  -13.7190   26.1400 C   0  0  1  0  0  0  0  0  0  0  0  0
    8.0486  -13.4048   26.0688 C   0  0  0  0  0  0  0  0  0  0  0  0
    8.4141  -12.5255   24.9027 C   0  0  1  0  0  0  0  0  0  0  0  0
    8.9300  -14.6466   26.1097 N   0  0  0  0  0  0  0  0  0  0  0  0
    8.8608  -15.3946   24.8830 C   0  0  0  0  0  0  0  0  0  0  0  0
    8.5747  -15.5106   27.2671 O   0  0  0  0  0  0  0  0  0  0  0  0
    7.4071  -15.9894   27.3462 O   0  0  0  0  0  0  0  0  0  0  0  0
   11.9772  -18.3676   27.4715 C   0  0  0  0  0  0  0  0  0  0  0  0
   11.3032  -17.1603   27.3124 C   0  0  1  0  0  0  0  0  0  0  0  0
   10.2397  -17.0490   28.3630 N   0  0  0  0  0  0  0  0  0  0  0  0
    9.4735  -15.8354   28.3002 C   0  0  0  0  0  0  0  0  0  0  0  0
   10.7489  -17.3275   29.7262 O   0  0  0  0  0  0  0  0  0  0  0  0
   11.3168  -18.3907   30.0609 O   0  0  0  0  0  0  0  0  0  0  0  0
  2  1  1  0
  3  2  2  0
  4  2  1  0
  5  4  1  0
  6  5  1  0
  7  6  1  0
  8 10  1  0
  8  7  1  0
  8  9  1  1
 10 11  2  0
 13 12  1  1
 14 13  1  0
 15 13  1  0
 16 10  1  0
 15 16  1  6
 17 22  1  0
 17 15  1  0
 18 17  2  0
 19 20  1  0
 21 20  1  6
 21 22  1  0
 23 21  1  0
 24 23  2  0
 25 23  1  0
M  END
$$$$
