QPQ.pdb
     RDKit          3D

 26 26  0  0  1  0  0  0  0  0999 V2000
    5.0789  -18.0225   23.3695 N   0  0  0  0  0  0  0  0  0  0  0  0
    6.4950  -18.0581   23.3231 C   0  0  0  0  0  0  0  0  0  0  0  0
    7.0465  -19.1597   23.6225 O   0  0  0  0  0  0  0  0  0  0  0  0
    7.3188  -16.8820   22.9467 C   0  0  0  0  0  0  0  0  0  0  0  0
    6.4068  -15.7295   22.6701 C   0  0  0  0  0  0  0  0  0  0  0  0
    7.1931  -14.4360   22.4187 C   0  0  2  0  0  0  0  0  0  0  0  0
    7.7650  -14.3949   21.1242 N   0  0  0  0  0  0  0  0  0  0  0  0
    8.0818  -14.1750   23.5545 C   0  0  0  0  0  0  0  0  0  0  0  0
    9.3243  -14.2121   23.2274 O   0  0  0  0  0  0  0  0  0  0  0  0
    7.7026  -13.9034   24.8939 N   0  0  0  0  0  0  0  0  0  0  0  0
    6.4358  -13.8683   25.5653 C   0  0  0  0  0  0  0  0  0  0  0  0
    6.4769  -12.5652   26.3330 C   0  0  0  0  0  0  0  0  0  0  0  0
    7.9457  -12.4396   26.6485 C   0  0  0  0  0  0  0  0  0  0  0  0
    8.6512  -13.5752   25.9398 C   0  0  1  0  0  0  0  0  0  0  0  0
    8.9068  -14.6939   26.8620 C   0  0  0  0  0  0  0  0  0  0  0  0
    8.0611  -15.5110   27.2674 O   0  0  0  0  0  0  0  0  0  0  0  0
   13.2077  -16.0765   23.5882 N   0  0  0  0  0  0  0  0  0  0  0  0
   13.1061  -15.9645   25.0017 C   0  0  0  0  0  0  0  0  0  0  0  0
   13.9312  -15.3287   25.6764 O   0  0  0  0  0  0  0  0  0  0  0  0
   11.9214  -16.6753   25.6216 C   0  0  0  0  0  0  0  0  0  0  0  0
   11.9873  -16.5505   27.1208 C   0  0  0  0  0  0  0  0  0  0  0  0
   10.7054  -16.1845   27.7655 C   0  0  2  0  0  0  0  0  0  0  0  0
   10.2362  -14.8596   27.3340 N   0  0  0  0  0  0  0  0  0  0  0  0
   10.8208  -16.1825   29.2344 C   0  0  0  0  0  0  0  0  0  0  0  0
   10.6605  -15.0808   29.8664 O   0  0  0  0  0  0  0  0  0  0  0  0
   11.0922  -17.2935   30.0104 O   0  0  0  0  0  0  0  0  0  0  0  0
  2  1  1  0
  3  2  2  0
  4  2  1  0
  5  4  1  0
  6  5  1  0
  6  7  1  6
  8 10  1  0
  8  6  1  0
  9  8  2  0
 10 14  1  0
 11 12  1  0
 11 10  1  0
 12 13  1  0
 13 14  1  0
 14 15  1  1
 15 16  2  0
 18 17  1  0
 18 19  2  0
 20 21  1  0
 20 18  1  0
 22 21  1  6
 22 24  1  0
 22 23  1  0
 23 15  1  0
 24 26  1  0
 25 24  2  0
M  END
$$$$
