QPQ.pdb
     RDKit          3D

 26 26  0  0  1  0  0  0  0  0999 V2000
    5.3224  -18.2691   23.5231 N   0  0  0  0  0  0  0  0  0  0  0  0
    6.6994  -18.3820   23.2068 C   0  0  0  0  0  0  0  0  0  0  0  0
    7.2112  -19.5382   23.2982 O   0  0  0  0  0  0  0  0  0  0  0  0
    7.5272  -17.2236   22.7867 C   0  0  0  0  0  0  0  0  0  0  0  0
    6.6579  -16.0076   22.7404 C   0  0  0  0  0  0  0  0  0  0  0  0
    7.4681  -14.7477   22.4076 C   0  0  2  0  0  0  0  0  0  0  0  0
    8.2421  -14.8985   21.2318 N   0  0  0  0  0  0  0  0  0  0  0  0
    8.1596  -14.2784   23.6116 C   0  0  0  0  0  0  0  0  0  0  0  0
    9.4326  -14.2021   23.4512 O   0  0  0  0  0  0  0  0  0  0  0  0
    7.5728  -13.9265   24.8539 N   0  0  0  0  0  0  0  0  0  0  0  0
    6.2139  -13.8019   25.2950 C   0  0  0  0  0  0  0  0  0  0  0  0
    6.1925  -12.4669   26.0067 C   0  0  0  0  0  0  0  0  0  0  0  0
    7.5907  -12.3933   26.5655 C   0  0  0  0  0  0  0  0  0  0  0  0
    8.3456  -13.5921   26.0340 C   0  0  1  0  0  0  0  0  0  0  0  0
    8.3809  -14.6761   27.0296 C   0  0  0  0  0  0  0  0  0  0  0  0
    7.3907  -15.2530   27.5132 O   0  0  0  0  0  0  0  0  0  0  0  0
   11.6914  -18.5795   25.3518 N   0  0  0  0  0  0  0  0  0  0  0  0
   12.4589  -17.4312   25.6886 C   0  0  0  0  0  0  0  0  0  0  0  0
   13.4794  -17.1093   25.0597 O   0  0  0  0  0  0  0  0  0  0  0  0
   11.9420  -16.6326   26.8666 C   0  0  0  0  0  0  0  0  0  0  0  0
   10.7200  -17.3053   27.4338 C   0  0  0  0  0  0  0  0  0  0  0  0
    9.8008  -16.4008   28.1619 C   0  0  2  0  0  0  0  0  0  0  0  0
    9.6572  -15.1054   27.4815 N   0  0  0  0  0  0  0  0  0  0  0  0
   10.2633  -16.1553   29.5391 C   0  0  0  0  0  0  0  0  0  0  0  0
   10.4561  -17.1552   30.3149 O   0  0  0  0  0  0  0  0  0  0  0  0
   10.5156  -14.9092   30.0811 O   0  0  0  0  0  0  0  0  0  0  0  0
  2  1  1  0
  3  2  2  0
  4  2  1  0
  5  4  1  0
  6  5  1  0
  6  7  1  6
  8 10  1  0
  8  6  1  0
  9  8  2  0
 10 14  1  0
 11 12  1  0
 11 10  1  0
 12 13  1  0
 13 14  1  0
 14 15  1  1
 15 16  2  0
 18 17  1  0
 18 19  2  0
 20 21  1  0
 20 18  1  0
 22 21  1  6
 22 24  1  0
 22 23  1  0
 23 15  1  0
 24 26  1  0
 25 24  2  0
M  END
$$$$
