QPQ.pdb
     RDKit          3D

 26 26  0  0  1  0  0  0  0  0999 V2000
    7.4024  -20.3993   18.7245 N   0  0  0  0  0  0  0  0  0  0  0  0
    8.7341  -20.2495   19.1861 C   0  0  0  0  0  0  0  0  0  0  0  0
    9.2426  -21.2426   19.7882 O   0  0  0  0  0  0  0  0  0  0  0  0
    9.5199  -19.0055   18.9899 C   0  0  0  0  0  0  0  0  0  0  0  0
    8.6878  -18.0324   18.2171 C   0  0  0  0  0  0  0  0  0  0  0  0
    9.4137  -16.6934   18.0304 C   0  0  2  0  0  0  0  0  0  0  0  0
   10.6085  -16.8268   17.2825 N   0  0  0  0  0  0  0  0  0  0  0  0
    9.5014  -16.0005   19.3188 C   0  0  0  0  0  0  0  0  0  0  0  0
   10.7106  -15.8979   19.7425 O   0  0  0  0  0  0  0  0  0  0  0  0
    8.4290  -15.4713   20.0814 N   0  0  0  0  0  0  0  0  0  0  0  0
    7.0046  -15.4944   19.9160 C   0  0  0  0  0  0  0  0  0  0  0  0
    6.5981  -14.0538   20.1366 C   0  0  0  0  0  0  0  0  0  0  0  0
    7.6292  -13.5921   21.1347 C   0  0  0  0  0  0  0  0  0  0  0  0
    8.6168  -14.7250   21.3099 C   0  0  1  0  0  0  0  0  0  0  0  0
    8.3097  -15.5098   22.5171 C   0  0  0  0  0  0  0  0  0  0  0  0
    7.6135  -16.5398   22.5582 O   0  0  0  0  0  0  0  0  0  0  0  0
   11.7020  -16.9104   26.2616 N   0  0  0  0  0  0  0  0  0  0  0  0
   10.7618  -17.1139   27.3084 C   0  0  0  0  0  0  0  0  0  0  0  0
   10.8950  -18.0144   28.1520 O   0  0  0  0  0  0  0  0  0  0  0  0
    9.5901  -16.1549   27.3185 C   0  0  0  0  0  0  0  0  0  0  0  0
    9.6015  -15.3323   26.0572 C   0  0  0  0  0  0  0  0  0  0  0  0
    8.8960  -15.9512   24.9117 C   0  0  2  0  0  0  0  0  0  0  0  0
    8.8545  -15.0545   23.7473 N   0  0  0  0  0  0  0  0  0  0  0  0
    7.5142  -16.3213   25.2646 C   0  0  0  0  0  0  0  0  0  0  0  0
    7.3138  -17.3838   25.9500 O   0  0  0  0  0  0  0  0  0  0  0  0
    6.3863  -15.6037   24.9135 O   0  0  0  0  0  0  0  0  0  0  0  0
  2  1  1  0
  3  2  2  0
  4  2  1  0
  5  4  1  0
  6  5  1  0
  6  7  1  1
  8 10  1  0
  8  6  1  0
  9  8  2  0
 10 14  1  0
 11 12  1  0
 11 10  1  0
 12 13  1  0
 13 14  1  0
 14 15  1  1
 15 16  2  0
 18 17  1  0
 18 19  2  0
 20 21  1  0
 20 18  1  0
 22 21  1  1
 22 24  1  0
 22 23  1  0
 23 15  1  0
 24 26  1  0
 25 24  2  0
M  END
$$$$
