QPQ.pdb
     RDKit          3D

 26 26  0  0  1  0  0  0  0  0999 V2000
    4.3823  -17.2382   22.3033 N   0  0  0  0  0  0  0  0  0  0  0  0
    5.7452  -17.5920   22.4655 C   0  0  0  0  0  0  0  0  0  0  0  0
    5.9868  -18.7956   22.7822 O   0  0  0  0  0  0  0  0  0  0  0  0
    6.8562  -16.6250   22.2809 C   0  0  0  0  0  0  0  0  0  0  0  0
    6.2823  -15.2454   22.2166 C   0  0  0  0  0  0  0  0  0  0  0  0
    7.3830  -14.1810   22.1164 C   0  0  2  0  0  0  0  0  0  0  0  0
    8.1026  -14.2615   20.8997 N   0  0  0  0  0  0  0  0  0  0  0  0
    8.1618  -14.1640   23.3578 C   0  0  0  0  0  0  0  0  0  0  0  0
    9.4136  -14.3768   23.1578 O   0  0  0  0  0  0  0  0  0  0  0  0
    7.6743  -13.9462   24.6717 N   0  0  0  0  0  0  0  0  0  0  0  0
    6.3613  -13.7279   25.2056 C   0  0  0  0  0  0  0  0  0  0  0  0
    6.5419  -12.5316   26.1143 C   0  0  0  0  0  0  0  0  0  0  0  0
    7.9582  -12.7207   26.5948 C   0  0  0  0  0  0  0  0  0  0  0  0
    8.5290  -13.9026   25.8419 C   0  0  1  0  0  0  0  0  0  0  0  0
    8.4609  -15.1280   26.6549 C   0  0  0  0  0  0  0  0  0  0  0  0
    7.4281  -15.7673   26.9231 O   0  0  0  0  0  0  0  0  0  0  0  0
   13.0045  -18.3522   25.2863 N   0  0  0  0  0  0  0  0  0  0  0  0
   11.8658  -18.1229   24.4666 C   0  0  0  0  0  0  0  0  0  0  0  0
   11.9108  -18.2167   23.2299 O   0  0  0  0  0  0  0  0  0  0  0  0
   10.5985  -17.7573   25.2103 C   0  0  0  0  0  0  0  0  0  0  0  0
   10.8808  -17.6997   26.6884 C   0  0  0  0  0  0  0  0  0  0  0  0
    9.8160  -17.0598   27.4944 C   0  0  2  0  0  0  0  0  0  0  0  0
    9.6805  -15.6293   27.1827 N   0  0  0  0  0  0  0  0  0  0  0  0
   10.0738  -17.1998   28.9383 C   0  0  0  0  0  0  0  0  0  0  0  0
   10.3129  -16.1490   29.6292 O   0  0  0  0  0  0  0  0  0  0  0  0
   10.0789  -18.3958   29.6310 O   0  0  0  0  0  0  0  0  0  0  0  0
  2  1  1  0
  3  2  2  0
  4  2  1  0
  5  4  1  0
  6  5  1  0
  6  7  1  6
  8 10  1  0
  8  6  1  0
  9  8  2  0
 10 14  1  0
 11 12  1  0
 11 10  1  0
 12 13  1  0
 13 14  1  0
 14 15  1  1
 15 16  2  0
 18 17  1  0
 18 19  2  0
 20 21  1  0
 20 18  1  0
 22 21  1  6
 22 24  1  0
 22 23  1  0
 23 15  1  0
 24 26  1  0
 25 24  2  0
M  END
$$$$
