QPQ.pdb
     RDKit          3D

 26 26  0  0  1  0  0  0  0  0999 V2000
    2.6798  -18.8101   22.5046 N   0  0  0  0  0  0  0  0  0  0  0  0
    3.2925  -18.9126   21.2306 C   0  0  0  0  0  0  0  0  0  0  0  0
    3.2544  -20.0494   20.6707 O   0  0  0  0  0  0  0  0  0  0  0  0
    3.9535  -17.7652   20.5597 C   0  0  0  0  0  0  0  0  0  0  0  0
    5.4177  -17.8156   20.8601 C   0  0  0  0  0  0  0  0  0  0  0  0
    6.2589  -17.4648   19.6256 C   0  0  2  0  0  0  0  0  0  0  0  0
    6.4992  -18.5889   18.7990 N   0  0  0  0  0  0  0  0  0  0  0  0
    7.4210  -16.6711   20.0348 C   0  0  0  0  0  0  0  0  0  0  0  0
    8.5257  -17.3180   19.9194 O   0  0  0  0  0  0  0  0  0  0  0  0
    7.4204  -15.3366   20.5150 N   0  0  0  0  0  0  0  0  0  0  0  0
    6.3926  -14.3461   20.6540 C   0  0  0  0  0  0  0  0  0  0  0  0
    7.0121  -13.1046   20.0505 C   0  0  0  0  0  0  0  0  0  0  0  0
    8.4707  -13.2973   20.3788 C   0  0  0  0  0  0  0  0  0  0  0  0
    8.6076  -14.6665   21.0081 C   0  0  1  0  0  0  0  0  0  0  0  0
    8.6504  -14.5696   22.4765 C   0  0  0  0  0  0  0  0  0  0  0  0
    7.7076  -14.2252   23.2111 O   0  0  0  0  0  0  0  0  0  0  0  0
    7.1635  -19.1794   26.0060 N   0  0  0  0  0  0  0  0  0  0  0  0
    7.1546  -18.2879   24.8987 C   0  0  0  0  0  0  0  0  0  0  0  0
    6.6030  -18.5726   23.8240 O   0  0  0  0  0  0  0  0  0  0  0  0
    7.8650  -16.9701   25.1258 C   0  0  0  0  0  0  0  0  0  0  0  0
    9.1005  -16.9093   24.2670 C   0  0  0  0  0  0  0  0  0  0  0  0
    9.8684  -15.6483   24.3807 C   0  0  2  0  0  0  0  0  0  0  0  0
    9.8753  -14.8976   23.1165 N   0  0  0  0  0  0  0  0  0  0  0  0
   11.2639  -15.8999   24.7810 C   0  0  0  0  0  0  0  0  0  0  0  0
   11.5373  -16.0291   26.0249 O   0  0  0  0  0  0  0  0  0  0  0  0
   12.3310  -16.0134   23.9100 O   0  0  0  0  0  0  0  0  0  0  0  0
  2  1  1  0
  3  2  2  0
  4  2  1  0
  5  4  1  0
  6  5  1  0
  6  7  1  1
  8 10  1  0
  8  6  1  0
  9  8  2  0
 10 14  1  0
 11 12  1  0
 11 10  1  0
 12 13  1  0
 13 14  1  0
 14 15  1  1
 15 16  2  0
 18 17  1  0
 18 19  2  0
 20 21  1  0
 20 18  1  0
 22 21  1  6
 22 24  1  0
 22 23  1  0
 23 15  1  0
 24 26  1  0
 25 24  2  0
M  END
$$$$
