QPQ.pdb
     RDKit          3D

 26 26  0  0  1  0  0  0  0  0999 V2000
    7.6549  -19.2187   17.0494 N   0  0  0  0  0  0  0  0  0  0  0  0
    6.8441  -18.4274   16.1976 C   0  0  0  0  0  0  0  0  0  0  0  0
    5.7521  -18.9429   15.8113 O   0  0  0  0  0  0  0  0  0  0  0  0
    7.2265  -17.0607   15.7623 C   0  0  0  0  0  0  0  0  0  0  0  0
    8.5580  -16.7261   16.3553 C   0  0  0  0  0  0  0  0  0  0  0  0
    8.9839  -15.2924   16.0121 C   0  0  2  0  0  0  0  0  0  0  0  0
    9.7087  -15.2206   14.7980 N   0  0  0  0  0  0  0  0  0  0  0  0
    9.5856  -14.6649   17.1920 C   0  0  0  0  0  0  0  0  0  0  0  0
   10.8608  -14.5409   17.0885 O   0  0  0  0  0  0  0  0  0  0  0  0
    8.9156  -14.2153   18.3584 N   0  0  0  0  0  0  0  0  0  0  0  0
    7.5330  -14.1668   18.7364 C   0  0  0  0  0  0  0  0  0  0  0  0
    7.3589  -12.7601   19.2658 C   0  0  0  0  0  0  0  0  0  0  0  0
    8.7188  -12.4816   19.8536 C   0  0  0  0  0  0  0  0  0  0  0  0
    9.6024  -13.6603   19.5081 C   0  0  1  0  0  0  0  0  0  0  0  0
    9.6932  -14.5998   20.6378 C   0  0  0  0  0  0  0  0  0  0  0  0
    8.8290  -15.4334   20.9627 O   0  0  0  0  0  0  0  0  0  0  0  0
   15.8648  -16.5301   21.0436 N   0  0  0  0  0  0  0  0  0  0  0  0
   15.0488  -15.5842   21.7222 C   0  0  0  0  0  0  0  0  0  0  0  0
   15.5000  -14.8268   22.5957 O   0  0  0  0  0  0  0  0  0  0  0  0
   13.5939  -15.5686   21.3026 C   0  0  0  0  0  0  0  0  0  0  0  0
   12.7178  -15.7294   22.5167 C   0  0  0  0  0  0  0  0  0  0  0  0
   11.2644  -15.7222   22.2329 C   0  0  2  0  0  0  0  0  0  0  0  0
   10.8706  -14.5545   21.4309 N   0  0  0  0  0  0  0  0  0  0  0  0
   10.4717  -15.7235   23.4749 C   0  0  0  0  0  0  0  0  0  0  0  0
   10.5435  -16.7367   24.2540 O   0  0  0  0  0  0  0  0  0  0  0  0
    9.6373  -14.7007   23.8846 O   0  0  0  0  0  0  0  0  0  0  0  0
  2  1  1  0
  3  2  2  0
  4  2  1  0
  5  4  1  0
  6  5  1  0
  6  7  1  6
  8 10  1  0
  8  6  1  0
  9  8  2  0
 10 14  1  0
 11 12  1  0
 11 10  1  0
 12 13  1  0
 13 14  1  0
 14 15  1  1
 15 16  2  0
 18 17  1  0
 18 19  2  0
 20 21  1  0
 20 18  1  0
 22 21  1  1
 22 24  1  0
 22 23  1  0
 23 15  1  0
 24 26  1  0
 25 24  2  0
M  END
$$$$
