QPQ.pdb
     RDKit          3D

 26 26  0  0  1  0  0  0  0  0999 V2000
    5.2036  -19.2587   19.6962 N   0  0  0  0  0  0  0  0  0  0  0  0
    6.6123  -19.3906   19.6120 C   0  0  0  0  0  0  0  0  0  0  0  0
    7.1861  -19.9889   20.5713 O   0  0  0  0  0  0  0  0  0  0  0  0
    7.4040  -18.8656   18.4713 C   0  0  0  0  0  0  0  0  0  0  0  0
    6.7724  -17.5960   17.9963 C   0  0  0  0  0  0  0  0  0  0  0  0
    7.7927  -16.6839   17.3024 C   0  0  2  0  0  0  0  0  0  0  0  0
    8.4485  -17.3284   16.2257 N   0  0  0  0  0  0  0  0  0  0  0  0
    8.6355  -16.0359   18.3112 C   0  0  0  0  0  0  0  0  0  0  0  0
    9.8817  -16.3152   18.1663 O   0  0  0  0  0  0  0  0  0  0  0  0
    8.2111  -15.1834   19.3623 N   0  0  0  0  0  0  0  0  0  0  0  0
    6.9186  -14.7754   19.8311 C   0  0  0  0  0  0  0  0  0  0  0  0
    7.0475  -13.2738   19.9656 C   0  0  0  0  0  0  0  0  0  0  0  0
    8.5015  -13.1211   20.3334 C   0  0  0  0  0  0  0  0  0  0  0  0
    9.1278  -14.4960   20.2504 C   0  0  1  0  0  0  0  0  0  0  0  0
    9.2175  -15.1154   21.5829 C   0  0  0  0  0  0  0  0  0  0  0  0
    8.3334  -15.7994   22.1288 O   0  0  0  0  0  0  0  0  0  0  0  0
   15.1081  -15.6639   23.1641 N   0  0  0  0  0  0  0  0  0  0  0  0
   14.6535  -16.6826   24.0454 C   0  0  0  0  0  0  0  0  0  0  0  0
   15.4323  -17.3464   24.7476 O   0  0  0  0  0  0  0  0  0  0  0  0
   13.1548  -16.8976   24.0644 C   0  0  0  0  0  0  0  0  0  0  0  0
   12.4932  -15.9151   23.1346 C   0  0  0  0  0  0  0  0  0  0  0  0
   11.0188  -16.0327   23.0616 C   0  0  2  0  0  0  0  0  0  0  0  0
   10.4186  -14.9175   22.3148 N   0  0  0  0  0  0  0  0  0  0  0  0
   10.4133  -16.0741   24.4042 C   0  0  0  0  0  0  0  0  0  0  0  0
    9.8837  -15.0091   24.8775 O   0  0  0  0  0  0  0  0  0  0  0  0
   10.3636  -17.1900   25.2181 O   0  0  0  0  0  0  0  0  0  0  0  0
  2  1  1  0
  3  2  2  0
  4  2  1  0
  5  4  1  0
  6  5  1  0
  6  7  1  6
  8 10  1  0
  8  6  1  0
  9  8  2  0
 10 14  1  0
 11 12  1  0
 11 10  1  0
 12 13  1  0
 13 14  1  0
 14 15  1  1
 15 16  2  0
 18 17  1  0
 18 19  2  0
 20 21  1  0
 20 18  1  0
 22 21  1  1
 22 24  1  0
 22 23  1  0
 23 15  1  0
 24 26  1  0
 25 24  2  0
M  END
$$$$
