QPQ.pdb
     RDKit          3D

 26 26  0  0  1  0  0  0  0  0999 V2000
    5.3709  -18.2153   23.9438 N   0  0  0  0  0  0  0  0  0  0  0  0
    6.6778  -17.8635   23.5230 C   0  0  0  0  0  0  0  0  0  0  0  0
    7.6370  -18.2725   24.2441 O   0  0  0  0  0  0  0  0  0  0  0  0
    6.9427  -17.0582   22.3045 C   0  0  0  0  0  0  0  0  0  0  0  0
    6.4158  -15.6756   22.5225 C   0  0  0  0  0  0  0  0  0  0  0  0
    7.4935  -14.6143   22.2637 C   0  0  2  0  0  0  0  0  0  0  0  0
    8.3152  -14.9380   21.1571 N   0  0  0  0  0  0  0  0  0  0  0  0
    8.1639  -14.2804   23.5234 C   0  0  0  0  0  0  0  0  0  0  0  0
    9.4430  -14.3782   23.4426 O   0  0  0  0  0  0  0  0  0  0  0  0
    7.5523  -13.8850   24.7405 N   0  0  0  0  0  0  0  0  0  0  0  0
    6.1849  -13.7679   25.1566 C   0  0  0  0  0  0  0  0  0  0  0  0
    6.1275  -12.4031   25.8074 C   0  0  0  0  0  0  0  0  0  0  0  0
    7.5156  -12.2770   26.3816 C   0  0  0  0  0  0  0  0  0  0  0  0
    8.3011  -13.4832   25.9150 C   0  0  1  0  0  0  0  0  0  0  0  0
    8.3425  -14.5208   26.9585 C   0  0  0  0  0  0  0  0  0  0  0  0
    7.4227  -15.3105   27.2370 O   0  0  0  0  0  0  0  0  0  0  0  0
   12.2221  -18.0836   25.6918 N   0  0  0  0  0  0  0  0  0  0  0  0
   12.7304  -16.7684   25.8732 C   0  0  0  0  0  0  0  0  0  0  0  0
   13.7303  -16.3554   25.2649 O   0  0  0  0  0  0  0  0  0  0  0  0
   11.9652  -15.9113   26.8595 C   0  0  0  0  0  0  0  0  0  0  0  0
   10.8112  -16.6986   27.4216 C   0  0  0  0  0  0  0  0  0  0  0  0
    9.9136  -15.9264   28.3109 C   0  0  2  0  0  0  0  0  0  0  0  0
    9.5373  -14.6346   27.7182 N   0  0  0  0  0  0  0  0  0  0  0  0
   10.5382  -15.6738   29.6212 C   0  0  0  0  0  0  0  0  0  0  0  0
   10.9042  -16.6714   30.3351 O   0  0  0  0  0  0  0  0  0  0  0  0
   10.7714  -14.4230   30.1611 O   0  0  0  0  0  0  0  0  0  0  0  0
  2  1  1  0
  3  2  2  0
  4  2  1  0
  5  4  1  0
  6  5  1  0
  6  7  1  6
  8 10  1  0
  8  6  1  0
  9  8  2  0
 10 14  1  0
 11 12  1  0
 11 10  1  0
 12 13  1  0
 13 14  1  0
 14 15  1  1
 15 16  2  0
 18 17  1  0
 18 19  2  0
 20 21  1  0
 20 18  1  0
 22 21  1  6
 22 24  1  0
 22 23  1  0
 23 15  1  0
 24 26  1  0
 25 24  2  0
M  END
$$$$
