QPQ.pdb
     RDKit          3D

 26 26  0  0  1  0  0  0  0  0999 V2000
    7.2540  -20.1878   18.1304 N   0  0  0  0  0  0  0  0  0  0  0  0
    6.2712  -19.2579   17.7081 C   0  0  0  0  0  0  0  0  0  0  0  0
    5.0650  -19.6460   17.7510 O   0  0  0  0  0  0  0  0  0  0  0  0
    6.6056  -17.8914   17.2343 C   0  0  0  0  0  0  0  0  0  0  0  0
    8.0921  -17.7288   17.2576 C   0  0  0  0  0  0  0  0  0  0  0  0
    8.5076  -16.2923   16.9135 C   0  0  2  0  0  0  0  0  0  0  0  0
    9.2578  -16.2198   15.7149 N   0  0  0  0  0  0  0  0  0  0  0  0
    9.0756  -15.6492   18.1016 C   0  0  0  0  0  0  0  0  0  0  0  0
   10.3412  -15.8452   18.2112 O   0  0  0  0  0  0  0  0  0  0  0  0
    8.3842  -14.8806   19.0726 N   0  0  0  0  0  0  0  0  0  0  0  0
    7.0010  -14.5483   19.2553 C   0  0  0  0  0  0  0  0  0  0  0  0
    7.0236  -13.0548   19.4965 C   0  0  0  0  0  0  0  0  0  0  0  0
    8.3478  -12.8754   20.1943 C   0  0  0  0  0  0  0  0  0  0  0  0
    9.0424  -14.2196   20.1823 C   0  0  1  0  0  0  0  0  0  0  0  0
    8.8586  -14.9191   21.4646 C   0  0  0  0  0  0  0  0  0  0  0  0
    7.8960  -15.6473   21.7653 O   0  0  0  0  0  0  0  0  0  0  0  0
   14.8926  -17.9461   24.1384 N   0  0  0  0  0  0  0  0  0  0  0  0
   14.1267  -16.8610   23.6316 C   0  0  0  0  0  0  0  0  0  0  0  0
   14.6529  -15.8704   23.1004 O   0  0  0  0  0  0  0  0  0  0  0  0
   12.6270  -17.0019   23.7869 C   0  0  0  0  0  0  0  0  0  0  0  0
   11.9342  -15.9508   22.9607 C   0  0  0  0  0  0  0  0  0  0  0  0
   10.4607  -15.9254   23.1058 C   0  0  2  0  0  0  0  0  0  0  0  0
    9.8677  -14.7507   22.4499 N   0  0  0  0  0  0  0  0  0  0  0  0
   10.0576  -15.9210   24.5230 C   0  0  0  0  0  0  0  0  0  0  0  0
    9.6429  -14.8282   25.0452 O   0  0  0  0  0  0  0  0  0  0  0  0
   10.0867  -17.0208   25.3596 O   0  0  0  0  0  0  0  0  0  0  0  0
  2  1  1  0
  3  2  2  0
  4  2  1  0
  5  4  1  0
  6  5  1  0
  6  7  1  6
  8 10  1  0
  8  6  1  0
  9  8  2  0
 10 14  1  0
 11 12  1  0
 11 10  1  0
 12 13  1  0
 13 14  1  0
 14 15  1  1
 15 16  2  0
 18 17  1  0
 18 19  2  0
 20 21  1  0
 20 18  1  0
 22 21  1  1
 22 24  1  0
 22 23  1  0
 23 15  1  0
 24 26  1  0
 25 24  2  0
M  END
$$$$
