QPQ.pdb
     RDKit          3D

 26 26  0  0  1  0  0  0  0  0999 V2000
    8.5471  -19.0308   18.3390 N   0  0  0  0  0  0  0  0  0  0  0  0
    8.1176  -18.5911   17.0619 C   0  0  0  0  0  0  0  0  0  0  0  0
    7.0423  -19.0954   16.6184 O   0  0  0  0  0  0  0  0  0  0  0  0
    8.8669  -17.5918   16.2597 C   0  0  0  0  0  0  0  0  0  0  0  0
    7.9437  -16.4665   15.9161 C   0  0  0  0  0  0  0  0  0  0  0  0
    8.7135  -15.1642   15.6591 C   0  0  2  0  0  0  0  0  0  0  0  0
    9.4993  -15.2247   14.4829 N   0  0  0  0  0  0  0  0  0  0  0  0
    9.3817  -14.7392   16.8924 C   0  0  0  0  0  0  0  0  0  0  0  0
   10.6618  -14.7194   16.7783 O   0  0  0  0  0  0  0  0  0  0  0  0
    8.7670  -14.3735   18.1171 N   0  0  0  0  0  0  0  0  0  0  0  0
    7.4155  -14.4387   18.5925 C   0  0  0  0  0  0  0  0  0  0  0  0
    7.1788  -13.0643   19.1792 C   0  0  0  0  0  0  0  0  0  0  0  0
    8.5540  -12.7018   19.6792 C   0  0  0  0  0  0  0  0  0  0  0  0
    9.4932  -13.8012   19.2337 C   0  0  1  0  0  0  0  0  0  0  0  0
    9.7331  -14.7626   20.3225 C   0  0  0  0  0  0  0  0  0  0  0  0
    8.9742  -15.6905   20.6548 O   0  0  0  0  0  0  0  0  0  0  0  0
   15.5332  -16.0032   20.1302 N   0  0  0  0  0  0  0  0  0  0  0  0
   15.1502  -14.6674   20.4303 C   0  0  0  0  0  0  0  0  0  0  0  0
   15.9183  -13.7061   20.2677 O   0  0  0  0  0  0  0  0  0  0  0  0
   13.7415  -14.5039   20.9611 C   0  0  0  0  0  0  0  0  0  0  0  0
   13.0528  -15.8429   20.9823 C   0  0  0  0  0  0  0  0  0  0  0  0
   11.6698  -15.8160   21.5110 C   0  0  2  0  0  0  0  0  0  0  0  0
   10.9372  -14.6226   21.0628 N   0  0  0  0  0  0  0  0  0  0  0  0
   11.6541  -15.8466   22.9840 C   0  0  0  0  0  0  0  0  0  0  0  0
   11.1298  -14.8659   23.6180 O   0  0  0  0  0  0  0  0  0  0  0  0
   12.1670  -16.8675   23.7619 O   0  0  0  0  0  0  0  0  0  0  0  0
  2  1  1  0
  3  2  2  0
  4  2  1  0
  5  4  1  0
  6  5  1  0
  6  7  1  6
  8 10  1  0
  8  6  1  0
  9  8  2  0
 10 14  1  0
 11 12  1  0
 11 10  1  0
 12 13  1  0
 13 14  1  0
 14 15  1  1
 15 16  2  0
 18 17  1  0
 18 19  2  0
 20 21  1  0
 20 18  1  0
 22 21  1  1
 22 24  1  0
 22 23  1  0
 23 15  1  0
 24 26  1  0
 25 24  2  0
M  END
$$$$
