QPQ.pdb
     RDKit          3D

 26 26  0  0  1  0  0  0  0  0999 V2000
    9.7054  -21.1967   20.3924 N   0  0  0  0  0  0  0  0  0  0  0  0
    9.8229  -20.8781   19.0163 C   0  0  0  0  0  0  0  0  0  0  0  0
    9.8091  -21.8512   18.2038 O   0  0  0  0  0  0  0  0  0  0  0  0
    9.9569  -19.4854   18.5202 C   0  0  0  0  0  0  0  0  0  0  0  0
    9.8983  -18.5547   19.6894 C   0  0  0  0  0  0  0  0  0  0  0  0
   10.0788  -17.0936   19.2565 C   0  0  2  0  0  0  0  0  0  0  0  0
   11.1822  -16.9209   18.3862 N   0  0  0  0  0  0  0  0  0  0  0  0
   10.0083  -16.2224   20.4330 C   0  0  0  0  0  0  0  0  0  0  0  0
   11.1562  -15.7499   20.7664 O   0  0  0  0  0  0  0  0  0  0  0  0
    8.8511  -15.8842   21.1800 N   0  0  0  0  0  0  0  0  0  0  0  0
    7.4641  -16.2227   21.0442 C   0  0  0  0  0  0  0  0  0  0  0  0
    6.7589  -14.8907   21.1781 C   0  0  0  0  0  0  0  0  0  0  0  0
    7.6718  -14.1524   22.1237 C   0  0  0  0  0  0  0  0  0  0  0  0
    8.8804  -15.0333   22.3533 C   0  0  1  0  0  0  0  0  0  0  0  0
    8.7550  -15.7816   23.6149 C   0  0  0  0  0  0  0  0  0  0  0  0
    8.4469  -16.9821   23.7217 O   0  0  0  0  0  0  0  0  0  0  0  0
    9.9732  -13.2082   29.1584 N   0  0  0  0  0  0  0  0  0  0  0  0
   10.4790  -14.5008   29.4657 C   0  0  0  0  0  0  0  0  0  0  0  0
   10.9220  -14.7885   30.5888 O   0  0  0  0  0  0  0  0  0  0  0  0
   10.4377  -15.4973   28.3264 C   0  0  0  0  0  0  0  0  0  0  0  0
    9.8171  -14.8524   27.1154 C   0  0  0  0  0  0  0  0  0  0  0  0
    9.6515  -15.7553   25.9533 C   0  0  2  0  0  0  0  0  0  0  0  0
    9.0071  -15.0745   24.8206 N   0  0  0  0  0  0  0  0  0  0  0  0
    8.8502  -16.9418   26.3012 C   0  0  0  0  0  0  0  0  0  0  0  0
    9.4305  -17.9404   26.8534 O   0  0  0  0  0  0  0  0  0  0  0  0
    7.4925  -17.0750   26.0798 O   0  0  0  0  0  0  0  0  0  0  0  0
  2  1  1  0
  3  2  2  0
  4  2  1  0
  5  4  1  0
  6  5  1  0
  6  7  1  1
  8 10  1  0
  8  6  1  0
  9  8  2  0
 10 14  1  0
 11 12  1  0
 11 10  1  0
 12 13  1  0
 13 14  1  0
 14 15  1  1
 15 16  2  0
 18 17  1  0
 18 19  2  0
 20 21  1  0
 20 18  1  0
 22 21  1  1
 22 24  1  0
 22 23  1  0
 23 15  1  0
 24 26  1  0
 25 24  2  0
M  END
$$$$
