QPQ.pdb
     RDKit          3D

 26 26  0  0  1  0  0  0  0  0999 V2000
    4.0189  -18.2528   19.6707 N   0  0  0  0  0  0  0  0  0  0  0  0
    5.2202  -18.9157   20.0263 C   0  0  0  0  0  0  0  0  0  0  0  0
    5.1162  -19.8874   20.8339 O   0  0  0  0  0  0  0  0  0  0  0  0
    6.5481  -18.5161   19.4968 C   0  0  0  0  0  0  0  0  0  0  0  0
    6.3645  -17.3498   18.5788 C   0  0  0  0  0  0  0  0  0  0  0  0
    7.7101  -16.8143   18.0715 C   0  0  2  0  0  0  0  0  0  0  0  0
    8.3949  -17.7538   17.2633 N   0  0  0  0  0  0  0  0  0  0  0  0
    8.4523  -16.2203   19.1869 C   0  0  0  0  0  0  0  0  0  0  0  0
    9.5959  -16.7776   19.3709 O   0  0  0  0  0  0  0  0  0  0  0  0
    8.0347  -15.1520   20.0211 N   0  0  0  0  0  0  0  0  0  0  0  0
    6.7983  -14.4370   20.1518 C   0  0  0  0  0  0  0  0  0  0  0  0
    7.2252  -12.9855   20.1448 C   0  0  0  0  0  0  0  0  0  0  0  0
    8.5814  -13.0600   20.7989 C   0  0  0  0  0  0  0  0  0  0  0  0
    8.8956  -14.5257   21.0051 C   0  0  1  0  0  0  0  0  0  0  0  0
    8.5948  -14.9399   22.3854 C   0  0  0  0  0  0  0  0  0  0  0  0
    7.4769  -15.2715   22.8188 O   0  0  0  0  0  0  0  0  0  0  0  0
   11.8400  -19.0482   21.9257 N   0  0  0  0  0  0  0  0  0  0  0  0
   11.7464  -19.4134   23.2964 C   0  0  0  0  0  0  0  0  0  0  0  0
   12.2087  -20.4803   23.7303 O   0  0  0  0  0  0  0  0  0  0  0  0
   11.0437  -18.4087   24.1851 C   0  0  0  0  0  0  0  0  0  0  0  0
   10.6586  -17.2005   23.3730 C   0  0  0  0  0  0  0  0  0  0  0  0
    9.9170  -16.1631   24.1257 C   0  0  2  0  0  0  0  0  0  0  0  0
    9.6738  -14.9651   23.3087 N   0  0  0  0  0  0  0  0  0  0  0  0
   10.6412  -15.7579   25.3432 C   0  0  0  0  0  0  0  0  0  0  0  0
   11.4830  -14.7961   25.2715 O   0  0  0  0  0  0  0  0  0  0  0  0
   10.4871  -16.3380   26.5881 O   0  0  0  0  0  0  0  0  0  0  0  0
  2  1  1  0
  3  2  2  0
  4  2  1  0
  5  4  1  0
  6  5  1  0
  6  7  1  1
  8 10  1  0
  8  6  1  0
  9  8  2  0
 10 14  1  0
 11 12  1  0
 11 10  1  0
 12 13  1  0
 13 14  1  0
 14 15  1  1
 15 16  2  0
 18 17  1  0
 18 19  2  0
 20 21  1  0
 20 18  1  0
 22 21  1  6
 22 24  1  0
 22 23  1  0
 23 15  1  0
 24 26  1  0
 25 24  2  0
M  END
$$$$
