QPQ.pdb
     RDKit          3D

 26 26  0  0  1  0  0  0  0  0999 V2000
    8.6831  -18.2535   17.4283 N   0  0  0  0  0  0  0  0  0  0  0  0
    8.3856  -18.5271   16.0698 C   0  0  0  0  0  0  0  0  0  0  0  0
    8.7458  -19.6584   15.6252 O   0  0  0  0  0  0  0  0  0  0  0  0
    7.6886  -17.5587   15.1867 C   0  0  0  0  0  0  0  0  0  0  0  0
    7.4183  -16.3112   15.9660 C   0  0  0  0  0  0  0  0  0  0  0  0
    8.3121  -15.1527   15.5036 C   0  0  2  0  0  0  0  0  0  0  0  0
    9.0056  -15.4509   14.3058 N   0  0  0  0  0  0  0  0  0  0  0  0
    9.1052  -14.6646   16.6353 C   0  0  0  0  0  0  0  0  0  0  0  0
   10.3601  -14.5971   16.3657 O   0  0  0  0  0  0  0  0  0  0  0  0
    8.6275  -14.2873   17.9164 N   0  0  0  0  0  0  0  0  0  0  0  0
    7.3273  -14.3056   18.5213 C   0  0  0  0  0  0  0  0  0  0  0  0
    7.2023  -12.9287   19.1359 C   0  0  0  0  0  0  0  0  0  0  0  0
    8.6326  -12.6232   19.5011 C   0  0  0  0  0  0  0  0  0  0  0  0
    9.4807  -13.7533   18.9596 C   0  0  1  0  0  0  0  0  0  0  0  0
    9.7884  -14.7332   20.0144 C   0  0  0  0  0  0  0  0  0  0  0  0
    9.0815  -15.7058   20.3333 O   0  0  0  0  0  0  0  0  0  0  0  0
   16.0377  -15.9380   20.7132 N   0  0  0  0  0  0  0  0  0  0  0  0
   15.1242  -15.0042   20.1525 C   0  0  0  0  0  0  0  0  0  0  0  0
   15.4766  -13.8722   19.7853 O   0  0  0  0  0  0  0  0  0  0  0  0
   13.6947  -15.4901   20.0365 C   0  0  0  0  0  0  0  0  0  0  0  0
   13.0936  -15.6194   21.4111 C   0  0  0  0  0  0  0  0  0  0  0  0
   11.6149  -15.6960   21.4321 C   0  0  2  0  0  0  0  0  0  0  0  0
   10.9994  -14.5569   20.7354 N   0  0  0  0  0  0  0  0  0  0  0  0
   11.0957  -15.7352   22.8105 C   0  0  0  0  0  0  0  0  0  0  0  0
   10.4259  -14.7359   23.2483 O   0  0  0  0  0  0  0  0  0  0  0  0
   11.2709  -16.7828   23.6948 O   0  0  0  0  0  0  0  0  0  0  0  0
  2  1  1  0
  3  2  2  0
  4  2  1  0
  5  4  1  0
  6  5  1  0
  6  7  1  6
  8 10  1  0
  8  6  1  0
  9  8  2  0
 10 14  1  0
 11 12  1  0
 11 10  1  0
 12 13  1  0
 13 14  1  0
 14 15  1  1
 15 16  2  0
 18 17  1  0
 18 19  2  0
 20 21  1  0
 20 18  1  0
 22 21  1  1
 22 24  1  0
 22 23  1  0
 23 15  1  0
 24 26  1  0
 25 24  2  0
M  END
$$$$
