PFY.pdb
     RDKit          3D

 31 33  0  0  1  0  0  0  0  0999 V2000
    8.0790  -17.5708   18.7952 N   0  0  0  0  0  0  0  0  0  0  0  0
    6.8987  -17.4325   17.9783 C   0  0  0  0  0  0  0  0  0  0  0  0
    7.2752  -16.4882   16.8579 C   0  0  0  0  0  0  0  0  0  0  0  0
    8.2373  -15.5541   17.5482 C   0  0  0  0  0  0  0  0  0  0  0  0
    8.8989  -16.4123   18.5889 C   0  0  1  0  0  0  0  0  0  0  0  0
    9.0304  -15.6862   19.8935 C   0  0  0  0  0  0  0  0  0  0  0  0
    9.7693  -14.6753   20.0159 O   0  0  0  0  0  0  0  0  0  0  0  0
    8.3211  -16.1105   21.0587 N   0  0  0  0  0  0  0  0  0  0  0  0
    8.3564  -15.3809   22.2927 C   0  0  1  0  0  0  0  0  0  0  0  0
    6.9893  -15.0523   22.8292 C   0  0  0  0  0  0  0  0  0  0  0  0
    7.0233  -14.1749   24.0039 C   0  0  0  0  0  0  0  0  0  0  0  0
    7.2691  -12.8196   23.8566 C   0  0  0  0  0  0  0  0  0  0  0  0
    7.3079  -11.9667   24.9402 C   0  0  0  0  0  0  0  0  0  0  0  0
    7.1026  -12.4295   26.2231 C   0  0  0  0  0  0  0  0  0  0  0  0
    6.8570  -13.7774   26.3810 C   0  0  0  0  0  0  0  0  0  0  0  0
    6.8189  -14.6303   25.2903 C   0  0  0  0  0  0  0  0  0  0  0  0
    9.1841  -16.0446   23.3291 C   0  0  0  0  0  0  0  0  0  0  0  0
    8.7300  -17.0931   23.8510 O   0  0  0  0  0  0  0  0  0  0  0  0
   11.2956  -16.0502   31.4603 O   0  0  0  0  0  0  0  0  0  0  0  0
   10.9454  -15.7815   30.1404 C   0  0  0  0  0  0  0  0  0  0  0  0
   10.8628  -14.4989   29.6725 C   0  0  0  0  0  0  0  0  0  0  0  0
   10.5158  -14.2431   28.3661 C   0  0  0  0  0  0  0  0  0  0  0  0
   10.2410  -15.2666   27.4901 C   0  0  0  0  0  0  0  0  0  0  0  0
    9.8558  -15.0487   26.0823 C   0  0  0  0  0  0  0  0  0  0  0  0
   10.8604  -15.7016   25.1815 C   0  0  2  0  0  0  0  0  0  0  0  0
   10.4488  -15.5809   23.7720 N   0  0  0  0  0  0  0  0  0  0  0  0
   11.1023  -17.1273   25.4563 C   0  0  0  0  0  0  0  0  0  0  0  0
   12.1894  -17.5904   25.8780 O   0  0  0  0  0  0  0  0  0  0  0  0
   10.3229  -16.5585   27.9564 C   0  0  0  0  0  0  0  0  0  0  0  0
   10.6748  -16.8291   29.2821 C   0  0  0  0  0  0  0  0  0  0  0  0
   10.0944  -18.0855   25.2553 O   0  0  0  0  0  0  0  0  0  0  0  0
  1  2  1  0
  1  5  1  0
  2  3  1  0
  3  4  1  0
  5  6  1  1
  5  4  1  0
  6  7  2  0
  8  9  1  0
  8  6  1  0
  9 10  1  1
 11 12  2  0
 11 10  1  0
 13 12  1  0
 14 13  2  0
 15 14  1  0
 15 16  2  0
 16 11  1  0
 17  9  1  0
 18 17  2  0
 19 20  1  0
 20 21  2  0
 20 30  1  0
 21 22  1  0
 22 23  2  0
 23 24  1  0
 25 24  1  1
 25 27  1  0
 25 26  1  0
 26 17  1  0
 27 31  1  0
 28 27  2  0
 29 23  1  0
 30 29  2  0
M  END
$$$$
