PFY.pdb
     RDKit          3D

 31 33  0  0  1  0  0  0  0  0999 V2000
    7.6901  -17.2780   20.0347 N   0  0  0  0  0  0  0  0  0  0  0  0
    6.8139  -16.7198   19.0347 C   0  0  0  0  0  0  0  0  0  0  0  0
    7.7120  -16.0312   18.0307 C   0  0  0  0  0  0  0  0  0  0  0  0
    8.8267  -15.5207   18.9090 C   0  0  0  0  0  0  0  0  0  0  0  0
    8.9164  -16.5344   20.0144 C   0  0  1  0  0  0  0  0  0  0  0  0
    9.0927  -15.8743   21.3485 C   0  0  0  0  0  0  0  0  0  0  0  0
   10.1784  -15.3311   21.6789 O   0  0  0  0  0  0  0  0  0  0  0  0
    8.0338  -15.8327   22.3064 N   0  0  0  0  0  0  0  0  0  0  0  0
    8.1558  -15.1531   23.5633 C   0  0  1  0  0  0  0  0  0  0  0  0
    6.8833  -14.4797   24.0018 C   0  0  0  0  0  0  0  0  0  0  0  0
    7.0622  -13.6037   25.1644 C   0  0  0  0  0  0  0  0  0  0  0  0
    7.5868  -12.3314   25.0063 C   0  0  0  0  0  0  0  0  0  0  0  0
    7.7680  -11.4824   26.0783 C   0  0  0  0  0  0  0  0  0  0  0  0
    7.4330  -11.8660   27.3599 C   0  0  0  0  0  0  0  0  0  0  0  0
    6.9098  -13.1309   27.5286 C   0  0  0  0  0  0  0  0  0  0  0  0
    6.7294  -13.9803   26.4494 C   0  0  0  0  0  0  0  0  0  0  0  0
    8.6885  -16.0249   24.6385 C   0  0  0  0  0  0  0  0  0  0  0  0
    8.1454  -17.1461   24.7993 O   0  0  0  0  0  0  0  0  0  0  0  0
   12.9512  -19.0439   21.1920 O   0  0  0  0  0  0  0  0  0  0  0  0
   12.6764  -18.4612   22.4257 C   0  0  0  0  0  0  0  0  0  0  0  0
   12.7364  -17.1063   22.6027 C   0  0  0  0  0  0  0  0  0  0  0  0
   12.4631  -16.5395   23.8260 C   0  0  0  0  0  0  0  0  0  0  0  0
   12.1215  -17.3153   24.9085 C   0  0  0  0  0  0  0  0  0  0  0  0
   11.8273  -16.7607   26.2440 C   0  0  0  0  0  0  0  0  0  0  0  0
   10.3430  -16.6651   26.4306 C   0  0  2  0  0  0  0  0  0  0  0  0
    9.7650  -15.6836   25.4960 N   0  0  0  0  0  0  0  0  0  0  0  0
    9.9134  -16.2959   27.7892 C   0  0  0  0  0  0  0  0  0  0  0  0
    9.2439  -15.2711   28.0638 O   0  0  0  0  0  0  0  0  0  0  0  0
   12.0597  -18.6789   24.7351 C   0  0  0  0  0  0  0  0  0  0  0  0
   12.3355  -19.2647   23.4961 C   0  0  0  0  0  0  0  0  0  0  0  0
   10.2399  -17.0981   28.8956 O   0  0  0  0  0  0  0  0  0  0  0  0
  1  2  1  0
  1  5  1  0
  2  3  1  0
  3  4  1  0
  5  6  1  1
  5  4  1  0
  6  7  2  0
  8  9  1  0
  8  6  1  0
  9 10  1  1
 11 12  2  0
 11 10  1  0
 13 12  1  0
 14 13  2  0
 15 14  1  0
 15 16  2  0
 16 11  1  0
 17  9  1  0
 18 17  2  0
 19 20  1  0
 20 21  2  0
 20 30  1  0
 21 22  1  0
 22 23  2  0
 23 24  1  0
 25 24  1  1
 25 27  1  0
 25 26  1  0
 26 17  1  0
 27 31  1  0
 28 27  2  0
 29 23  1  0
 30 29  2  0
M  END
$$$$
