PFY.pdb
     RDKit          3D

 31 33  0  0  1  0  0  0  0  0999 V2000
    8.2185  -15.7571   18.9728 N   0  0  0  0  0  0  0  0  0  0  0  0
    7.2589  -15.2624   18.0168 C   0  0  0  0  0  0  0  0  0  0  0  0
    7.9965  -14.2459   17.1733 C   0  0  0  0  0  0  0  0  0  0  0  0
    8.9464  -13.6400   18.1759 C   0  0  0  0  0  0  0  0  0  0  0  0
    9.2423  -14.7647   19.1271 C   0  0  1  0  0  0  0  0  0  0  0  0
    9.2352  -14.2936   20.5500 C   0  0  0  0  0  0  0  0  0  0  0  0
   10.0617  -13.4423   20.9687 O   0  0  0  0  0  0  0  0  0  0  0  0
    8.2877  -14.7912   21.4963 N   0  0  0  0  0  0  0  0  0  0  0  0
    8.2032  -14.2942   22.8388 C   0  0  1  0  0  0  0  0  0  0  0  0
    6.7921  -14.0194   23.2839 C   0  0  0  0  0  0  0  0  0  0  0  0
    6.7165  -13.3092   24.5649 C   0  0  0  0  0  0  0  0  0  0  0  0
    6.1973  -13.9399   25.6837 C   0  0  0  0  0  0  0  0  0  0  0  0
    6.1119  -13.3008   26.9033 C   0  0  0  0  0  0  0  0  0  0  0  0
    6.5419  -12.0000   27.0615 C   0  0  0  0  0  0  0  0  0  0  0  0
    7.0605  -11.3627   25.9538 C   0  0  0  0  0  0  0  0  0  0  0  0
    7.1445  -12.0081   24.7311 C   0  0  0  0  0  0  0  0  0  0  0  0
    8.9056  -15.1597   23.8172 C   0  0  0  0  0  0  0  0  0  0  0  0
    8.7860  -16.4030   23.6833 O   0  0  0  0  0  0  0  0  0  0  0  0
   12.5405  -18.2711   31.1661 O   0  0  0  0  0  0  0  0  0  0  0  0
   12.1920  -17.4419   30.1041 C   0  0  0  0  0  0  0  0  0  0  0  0
   12.7634  -17.5869   28.8700 C   0  0  0  0  0  0  0  0  0  0  0  0
   12.4126  -16.7624   27.8261 C   0  0  0  0  0  0  0  0  0  0  0  0
   11.4780  -15.7673   27.9896 C   0  0  0  0  0  0  0  0  0  0  0  0
   11.0715  -14.8499   26.9075 C   0  0  0  0  0  0  0  0  0  0  0  0
   10.2934  -15.6079   25.8744 C   0  0  2  0  0  0  0  0  0  0  0  0
    9.7009  -14.6847   24.8908 N   0  0  0  0  0  0  0  0  0  0  0  0
    9.2091  -16.4470   26.4100 C   0  0  0  0  0  0  0  0  0  0  0  0
    8.0414  -16.0406   26.6227 O   0  0  0  0  0  0  0  0  0  0  0  0
   10.9003  -15.6177   29.2294 C   0  0  0  0  0  0  0  0  0  0  0  0
   11.2498  -16.4505   30.2965 C   0  0  0  0  0  0  0  0  0  0  0  0
    9.4270  -17.7989   26.7249 O   0  0  0  0  0  0  0  0  0  0  0  0
  1  2  1  0
  1  5  1  0
  2  3  1  0
  3  4  1  0
  5  6  1  1
  5  4  1  0
  6  7  2  0
  8  9  1  0
  8  6  1  0
  9 10  1  1
 11 12  2  0
 11 10  1  0
 13 12  1  0
 14 13  2  0
 15 14  1  0
 15 16  2  0
 16 11  1  0
 17  9  1  0
 18 17  2  0
 19 20  1  0
 20 21  2  0
 20 30  1  0
 21 22  1  0
 22 23  2  0
 23 24  1  0
 25 24  1  1
 25 27  1  0
 25 26  1  0
 26 17  1  0
 27 31  1  0
 28 27  2  0
 29 23  1  0
 30 29  2  0
M  END
$$$$
