PFY.pdb
     RDKit          3D

 31 33  0  0  1  0  0  0  0  0999 V2000
    7.3257  -18.5545   20.8333 N   0  0  0  0  0  0  0  0  0  0  0  0
    6.2239  -18.7186   19.9176 C   0  0  0  0  0  0  0  0  0  0  0  0
    6.8430  -19.0057   18.5674 C   0  0  0  0  0  0  0  0  0  0  0  0
    8.1014  -18.1761   18.6192 C   0  0  0  0  0  0  0  0  0  0  0  0
    8.4814  -18.1764   20.0728 C   0  0  1  0  0  0  0  0  0  0  0  0
    8.9212  -16.8162   20.5234 C   0  0  0  0  0  0  0  0  0  0  0  0
   10.0037  -16.3082   20.1323 O   0  0  0  0  0  0  0  0  0  0  0  0
    8.1291  -16.0343   21.4189 N   0  0  0  0  0  0  0  0  0  0  0  0
    8.5399  -14.7422   21.8859 C   0  0  1  0  0  0  0  0  0  0  0  0
    7.3870  -13.8163   22.1661 C   0  0  0  0  0  0  0  0  0  0  0  0
    7.2162  -13.5186   23.5920 C   0  0  0  0  0  0  0  0  0  0  0  0
    6.7196  -14.4839   24.4525 C   0  0  0  0  0  0  0  0  0  0  0  0
    6.5466  -14.2368   25.7987 C   0  0  0  0  0  0  0  0  0  0  0  0
    6.8624  -13.0119   26.3480 C   0  0  0  0  0  0  0  0  0  0  0  0
    7.3577  -12.0435   25.5000 C   0  0  0  0  0  0  0  0  0  0  0  0
    7.5298  -12.2958   24.1489 C   0  0  0  0  0  0  0  0  0  0  0  0
    9.4523  -14.8164   23.0530 C   0  0  0  0  0  0  0  0  0  0  0  0
   10.6390  -15.1692   22.8406 O   0  0  0  0  0  0  0  0  0  0  0  0
   12.0118  -16.8736   31.1668 O   0  0  0  0  0  0  0  0  0  0  0  0
   11.2452  -16.5178   30.0610 C   0  0  0  0  0  0  0  0  0  0  0  0
   10.6452  -17.4637   29.2762 C   0  0  0  0  0  0  0  0  0  0  0  0
    9.8893  -17.1024   28.1850 C   0  0  0  0  0  0  0  0  0  0  0  0
    9.7130  -15.7810   27.8486 C   0  0  0  0  0  0  0  0  0  0  0  0
    8.9205  -15.3385   26.6851 C   0  0  0  0  0  0  0  0  0  0  0  0
    9.8373  -15.0542   25.5337 C   0  0  2  0  0  0  0  0  0  0  0  0
    9.0810  -14.5180   24.3886 N   0  0  0  0  0  0  0  0  0  0  0  0
   10.6086  -16.2137   25.0570 C   0  0  0  0  0  0  0  0  0  0  0  0
   10.0955  -17.2830   24.6481 O   0  0  0  0  0  0  0  0  0  0  0  0
   10.3145  -14.8259   28.6354 C   0  0  0  0  0  0  0  0  0  0  0  0
   11.0846  -15.1826   29.7464 C   0  0  0  0  0  0  0  0  0  0  0  0
   12.0133  -16.1889   25.0314 O   0  0  0  0  0  0  0  0  0  0  0  0
  1  2  1  0
  1  5  1  0
  2  3  1  0
  3  4  1  0
  5  6  1  1
  5  4  1  0
  6  7  2  0
  8  9  1  0
  8  6  1  0
  9 10  1  1
 11 12  2  0
 11 10  1  0
 13 12  1  0
 14 13  2  0
 15 14  1  0
 15 16  2  0
 16 11  1  0
 17  9  1  0
 18 17  2  0
 19 20  1  0
 20 21  2  0
 20 30  1  0
 21 22  1  0
 22 23  2  0
 23 24  1  0
 25 24  1  1
 25 27  1  0
 25 26  1  0
 26 17  1  0
 27 31  1  0
 28 27  2  0
 29 23  1  0
 30 29  2  0
M  END
$$$$
