PFY.pdb
     RDKit          3D

 31 33  0  0  1  0  0  0  0  0999 V2000
    8.4536  -17.4502   20.6007 N   0  0  0  0  0  0  0  0  0  0  0  0
    7.5874  -17.1581   19.4854 C   0  0  0  0  0  0  0  0  0  0  0  0
    8.4280  -16.3799   18.4971 C   0  0  0  0  0  0  0  0  0  0  0  0
    9.3308  -15.5895   19.4109 C   0  0  0  0  0  0  0  0  0  0  0  0
    9.5076  -16.4776   20.6098 C   0  0  1  0  0  0  0  0  0  0  0  0
    9.4209  -15.6966   21.8863 C   0  0  0  0  0  0  0  0  0  0  0  0
   10.2043  -14.7435   22.1326 O   0  0  0  0  0  0  0  0  0  0  0  0
    8.4428  -16.0004   22.8821 N   0  0  0  0  0  0  0  0  0  0  0  0
    8.3513  -15.2812   24.1194 C   0  0  1  0  0  0  0  0  0  0  0  0
    6.9459  -14.8698   24.4663 C   0  0  0  0  0  0  0  0  0  0  0  0
    6.8775  -13.9335   25.5930 C   0  0  0  0  0  0  0  0  0  0  0  0
    7.0916  -12.5799   25.3904 C   0  0  0  0  0  0  0  0  0  0  0  0
    7.0347  -11.6725   26.4280 C   0  0  0  0  0  0  0  0  0  0  0  0
    6.7608  -12.0764   27.7179 C   0  0  0  0  0  0  0  0  0  0  0  0
    6.5460  -13.4220   27.9307 C   0  0  0  0  0  0  0  0  0  0  0  0
    6.6041  -14.3298   26.8861 C   0  0  0  0  0  0  0  0  0  0  0  0
    8.9843  -16.0017   25.2509 C   0  0  0  0  0  0  0  0  0  0  0  0
    8.6532  -17.1994   25.4344 O   0  0  0  0  0  0  0  0  0  0  0  0
   13.6537  -17.6066   21.7037 O   0  0  0  0  0  0  0  0  0  0  0  0
   13.2809  -17.2581   22.9985 C   0  0  0  0  0  0  0  0  0  0  0  0
   12.9064  -18.2054   23.9112 C   0  0  0  0  0  0  0  0  0  0  0  0
   12.5395  -17.8513   25.1889 C   0  0  0  0  0  0  0  0  0  0  0  0
   12.5371  -16.5359   25.5889 C   0  0  0  0  0  0  0  0  0  0  0  0
   12.1445  -16.1001   26.9431 C   0  0  0  0  0  0  0  0  0  0  0  0
   10.6643  -16.2656   27.1128 C   0  0  2  0  0  0  0  0  0  0  0  0
    9.9345  -15.4358   26.1384 N   0  0  0  0  0  0  0  0  0  0  0  0
   10.1550  -15.9337   28.4533 C   0  0  0  0  0  0  0  0  0  0  0  0
    9.3241  -15.0232   28.6873 O   0  0  0  0  0  0  0  0  0  0  0  0
   12.9133  -15.5794   24.6742 C   0  0  0  0  0  0  0  0  0  0  0  0
   13.2880  -15.9288   23.3734 C   0  0  0  0  0  0  0  0  0  0  0  0
   10.5851  -16.6421   29.5880 O   0  0  0  0  0  0  0  0  0  0  0  0
  1  2  1  0
  1  5  1  0
  2  3  1  0
  3  4  1  0
  5  6  1  1
  5  4  1  0
  6  7  2  0
  8  9  1  0
  8  6  1  0
  9 10  1  1
 11 12  2  0
 11 10  1  0
 13 12  1  0
 14 13  2  0
 15 14  1  0
 15 16  2  0
 16 11  1  0
 17  9  1  0
 18 17  2  0
 19 20  1  0
 20 21  2  0
 20 30  1  0
 21 22  1  0
 22 23  2  0
 23 24  1  0
 25 24  1  1
 25 27  1  0
 25 26  1  0
 26 17  1  0
 27 31  1  0
 28 27  2  0
 29 23  1  0
 30 29  2  0
M  END
$$$$
