PFY.pdb
     RDKit          3D

 31 33  0  0  1  0  0  0  0  0999 V2000
    8.0027  -16.0692   19.1466 N   0  0  0  0  0  0  0  0  0  0  0  0
    7.0181  -15.6015   18.2026 C   0  0  0  0  0  0  0  0  0  0  0  0
    7.7321  -14.6072   17.3136 C   0  0  0  0  0  0  0  0  0  0  0  0
    8.7061  -13.9734   18.2749 C   0  0  0  0  0  0  0  0  0  0  0  0
    9.0283  -15.0718   19.2481 C   0  0  1  0  0  0  0  0  0  0  0  0
    9.0567  -14.5627   20.6576 C   0  0  0  0  0  0  0  0  0  0  0  0
    9.9313  -13.7470   21.0484 O   0  0  0  0  0  0  0  0  0  0  0  0
    8.0899  -14.9818   21.6221 N   0  0  0  0  0  0  0  0  0  0  0  0
    8.0712  -14.4798   22.9652 C   0  0  1  0  0  0  0  0  0  0  0  0
    6.6813  -14.2792   23.5064 C   0  0  0  0  0  0  0  0  0  0  0  0
    6.6411  -13.4253   24.6982 C   0  0  0  0  0  0  0  0  0  0  0  0
    7.1338  -12.1317   24.6476 C   0  0  0  0  0  0  0  0  0  0  0  0
    7.1112  -11.3025   25.7499 C   0  0  0  0  0  0  0  0  0  0  0  0
    6.5944  -11.7284   26.9555 C   0  0  0  0  0  0  0  0  0  0  0  0
    6.1011  -13.0149   27.0169 C   0  0  0  0  0  0  0  0  0  0  0  0
    6.1258  -13.8442   25.9077 C   0  0  0  0  0  0  0  0  0  0  0  0
    8.8864  -15.2979   23.8959 C   0  0  0  0  0  0  0  0  0  0  0  0
    8.7676  -16.5465   23.8274 O   0  0  0  0  0  0  0  0  0  0  0  0
   12.6475  -17.9627   31.3409 O   0  0  0  0  0  0  0  0  0  0  0  0
   12.2716  -17.1925   30.2444 C   0  0  0  0  0  0  0  0  0  0  0  0
   12.8549  -17.3650   29.0193 C   0  0  0  0  0  0  0  0  0  0  0  0
   12.4768  -16.5988   27.9411 C   0  0  0  0  0  0  0  0  0  0  0  0
   11.5021  -15.6364   28.0599 C   0  0  0  0  0  0  0  0  0  0  0  0
   11.0648  -14.7814   26.9394 C   0  0  0  0  0  0  0  0  0  0  0  0
   10.3647  -15.6203   25.9131 C   0  0  2  0  0  0  0  0  0  0  0  0
    9.7883  -14.7720   24.8554 N   0  0  0  0  0  0  0  0  0  0  0  0
    9.2861  -16.4711   26.4417 C   0  0  0  0  0  0  0  0  0  0  0  0
    8.1088  -16.0816   26.6320 O   0  0  0  0  0  0  0  0  0  0  0  0
   10.9123  -15.4595   29.2904 C   0  0  0  0  0  0  0  0  0  0  0  0
   11.2893  -16.2329   30.3923 C   0  0  0  0  0  0  0  0  0  0  0  0
    9.5211  -17.8157   26.7752 O   0  0  0  0  0  0  0  0  0  0  0  0
  1  2  1  0
  1  5  1  0
  2  3  1  0
  3  4  1  0
  5  6  1  1
  5  4  1  0
  6  7  2  0
  8  9  1  0
  8  6  1  0
  9 10  1  1
 11 12  2  0
 11 10  1  0
 13 12  1  0
 14 13  2  0
 15 14  1  0
 15 16  2  0
 16 11  1  0
 17  9  1  0
 18 17  2  0
 19 20  1  0
 20 21  2  0
 20 30  1  0
 21 22  1  0
 22 23  2  0
 23 24  1  0
 25 24  1  1
 25 27  1  0
 25 26  1  0
 26 17  1  0
 27 31  1  0
 28 27  2  0
 29 23  1  0
 30 29  2  0
M  END
$$$$
