PFY.pdb
     RDKit          3D

 31 33  0  0  1  0  0  0  0  0999 V2000
    8.0858  -16.9420   19.8646 N   0  0  0  0  0  0  0  0  0  0  0  0
    7.0103  -16.7229   18.9294 C   0  0  0  0  0  0  0  0  0  0  0  0
    7.5464  -15.7564   17.8963 C   0  0  0  0  0  0  0  0  0  0  0  0
    8.4617  -14.8907   18.7254 C   0  0  0  0  0  0  0  0  0  0  0  0
    8.9688  -15.8139   19.7968 C   0  0  1  0  0  0  0  0  0  0  0  0
    8.9826  -15.1415   21.1363 C   0  0  0  0  0  0  0  0  0  0  0  0
    9.8527  -14.2837   21.4365 O   0  0  0  0  0  0  0  0  0  0  0  0
    8.0065  -15.4454   22.1341 N   0  0  0  0  0  0  0  0  0  0  0  0
    8.0941  -14.9490   23.4766 C   0  0  1  0  0  0  0  0  0  0  0  0
    6.7759  -14.4677   24.0204 C   0  0  0  0  0  0  0  0  0  0  0  0
    6.9055  -13.7172   25.2738 C   0  0  0  0  0  0  0  0  0  0  0  0
    7.4711  -12.4527   25.2756 C   0  0  0  0  0  0  0  0  0  0  0  0
    7.6079  -11.7201   26.4364 C   0  0  0  0  0  0  0  0  0  0  0  0
    7.1851  -12.2180   27.6510 C   0  0  0  0  0  0  0  0  0  0  0  0
    6.6204  -13.4762   27.6606 C   0  0  0  0  0  0  0  0  0  0  0  0
    6.4849  -14.2084   26.4927 C   0  0  0  0  0  0  0  0  0  0  0  0
    8.7267  -15.9159   24.4066 C   0  0  0  0  0  0  0  0  0  0  0  0
    8.3027  -17.0983   24.3915 O   0  0  0  0  0  0  0  0  0  0  0  0
   13.2191  -18.4911   20.8646 O   0  0  0  0  0  0  0  0  0  0  0  0
   12.8863  -18.0156   22.1296 C   0  0  0  0  0  0  0  0  0  0  0  0
   12.9160  -16.6791   22.4187 C   0  0  0  0  0  0  0  0  0  0  0  0
   12.5855  -16.2185   23.6721 C   0  0  0  0  0  0  0  0  0  0  0  0
   12.2155  -17.0853   24.6731 C   0  0  0  0  0  0  0  0  0  0  0  0
   11.8599  -16.6464   26.0365 C   0  0  0  0  0  0  0  0  0  0  0  0
   10.3682  -16.6278   26.1834 C   0  0  2  0  0  0  0  0  0  0  0  0
    9.7737  -15.6014   25.3095 N   0  0  0  0  0  0  0  0  0  0  0  0
    9.8850  -16.3843   27.5523 C   0  0  0  0  0  0  0  0  0  0  0  0
    9.2305  -17.2145   28.2280 O   0  0  0  0  0  0  0  0  0  0  0  0
   12.1840  -18.4308   24.3869 C   0  0  0  0  0  0  0  0  0  0  0  0
   12.5179  -18.9090   23.1163 C   0  0  0  0  0  0  0  0  0  0  0  0
   10.1378  -15.1655   28.2041 O   0  0  0  0  0  0  0  0  0  0  0  0
  1  2  1  0
  1  5  1  0
  2  3  1  0
  3  4  1  0
  5  6  1  1
  5  4  1  0
  6  7  2  0
  8  9  1  0
  8  6  1  0
  9 10  1  1
 11 12  2  0
 11 10  1  0
 13 12  1  0
 14 13  2  0
 15 14  1  0
 15 16  2  0
 16 11  1  0
 17  9  1  0
 18 17  2  0
 19 20  1  0
 20 21  2  0
 20 30  1  0
 21 22  1  0
 22 23  2  0
 23 24  1  0
 25 24  1  1
 25 27  1  0
 25 26  1  0
 26 17  1  0
 27 31  1  0
 28 27  2  0
 29 23  1  0
 30 29  2  0
M  END
$$$$
