PFY.pdb
     RDKit          3D

 31 33  0  0  1  0  0  0  0  0999 V2000
    8.1137  -17.5818   18.9249 N   0  0  0  0  0  0  0  0  0  0  0  0
    7.2190  -17.2297   17.8503 C   0  0  0  0  0  0  0  0  0  0  0  0
    8.0698  -16.5350   16.8099 C   0  0  0  0  0  0  0  0  0  0  0  0
    9.0808  -15.8138   17.6656 C   0  0  0  0  0  0  0  0  0  0  0  0
    9.2441  -16.7010   18.8671 C   0  0  1  0  0  0  0  0  0  0  0  0
    9.2882  -15.9024   20.1347 C   0  0  0  0  0  0  0  0  0  0  0  0
   10.1973  -15.0609   20.3546 O   0  0  0  0  0  0  0  0  0  0  0  0
    8.2979  -16.0614   21.1519 N   0  0  0  0  0  0  0  0  0  0  0  0
    8.3063  -15.2957   22.3643 C   0  0  1  0  0  0  0  0  0  0  0  0
    6.9293  -15.0316   22.9110 C   0  0  0  0  0  0  0  0  0  0  0  0
    6.9113  -14.0186   23.9715 C   0  0  0  0  0  0  0  0  0  0  0  0
    6.6496  -14.3836   25.2819 C   0  0  0  0  0  0  0  0  0  0  0  0
    6.6251  -13.4562   26.3029 C   0  0  0  0  0  0  0  0  0  0  0  0
    6.8615  -12.1192   26.0612 C   0  0  0  0  0  0  0  0  0  0  0  0
    7.1232  -11.7449   24.7599 C   0  0  0  0  0  0  0  0  0  0  0  0
    7.1467  -12.6793   23.7377 C   0  0  0  0  0  0  0  0  0  0  0  0
    9.1844  -15.8803   23.4070 C   0  0  0  0  0  0  0  0  0  0  0  0
    9.2631  -17.1327   23.4643 O   0  0  0  0  0  0  0  0  0  0  0  0
   10.4115  -16.4354   31.5551 O   0  0  0  0  0  0  0  0  0  0  0  0
   10.6709  -16.0504   30.2431 C   0  0  0  0  0  0  0  0  0  0  0  0
   11.2695  -16.9021   29.3560 C   0  0  0  0  0  0  0  0  0  0  0  0
   11.5219  -16.5126   28.0609 C   0  0  0  0  0  0  0  0  0  0  0  0
   11.1813  -15.2566   27.6173 C   0  0  0  0  0  0  0  0  0  0  0  0
   11.4368  -14.7844   26.2427 C   0  0  0  0  0  0  0  0  0  0  0  0
   10.8890  -15.7774   25.2623 C   0  0  2  0  0  0  0  0  0  0  0  0
    9.9396  -15.1278   24.3418 N   0  0  0  0  0  0  0  0  0  0  0  0
   10.2059  -16.9318   25.8683 C   0  0  0  0  0  0  0  0  0  0  0  0
   10.7800  -17.9960   26.2029 O   0  0  0  0  0  0  0  0  0  0  0  0
   10.5787  -14.3964   28.5061 C   0  0  0  0  0  0  0  0  0  0  0  0
   10.3178  -14.7826   29.8242 C   0  0  0  0  0  0  0  0  0  0  0  0
    8.8229  -16.9077   26.1156 O   0  0  0  0  0  0  0  0  0  0  0  0
  1  2  1  0
  1  5  1  0
  2  3  1  0
  3  4  1  0
  5  6  1  1
  5  4  1  0
  6  7  2  0
  8  9  1  0
  8  6  1  0
  9 10  1  1
 11 12  2  0
 11 10  1  0
 13 12  1  0
 14 13  2  0
 15 14  1  0
 15 16  2  0
 16 11  1  0
 17  9  1  0
 18 17  2  0
 19 20  1  0
 20 21  2  0
 20 30  1  0
 21 22  1  0
 22 23  2  0
 23 24  1  0
 25 24  1  1
 25 27  1  0
 25 26  1  0
 26 17  1  0
 27 31  1  0
 28 27  2  0
 29 23  1  0
 30 29  2  0
M  END
$$$$
