PFY.pdb
     RDKit          3D

 31 33  0  0  1  0  0  0  0  0999 V2000
    7.7158  -15.9422   19.8410 N   0  0  0  0  0  0  0  0  0  0  0  0
    6.8182  -15.2775   18.9290 C   0  0  0  0  0  0  0  0  0  0  0  0
    7.6761  -14.3385   18.1098 C   0  0  0  0  0  0  0  0  0  0  0  0
    8.7195  -13.9150   19.1130 C   0  0  0  0  0  0  0  0  0  0  0  0
    8.8715  -15.1101   20.0108 C   0  0  1  0  0  0  0  0  0  0  0  0
    8.9562  -14.7046   21.4513 C   0  0  0  0  0  0  0  0  0  0  0  0
    9.8817  -13.9661   21.8768 O   0  0  0  0  0  0  0  0  0  0  0  0
    7.9879  -15.1395   22.4073 N   0  0  0  0  0  0  0  0  0  0  0  0
    8.0437  -14.7618   23.7895 C   0  0  1  0  0  0  0  0  0  0  0  0
    6.7298  -14.2568   24.3221 C   0  0  0  0  0  0  0  0  0  0  0  0
    6.8598  -13.5248   25.5863 C   0  0  0  0  0  0  0  0  0  0  0  0
    6.6801  -14.1791   26.7940 C   0  0  0  0  0  0  0  0  0  0  0  0
    6.7951  -13.5206   28.0007 C   0  0  0  0  0  0  0  0  0  0  0  0
    7.0954  -12.1757   28.0564 C   0  0  0  0  0  0  0  0  0  0  0  0
    7.2763  -11.5145   26.8597 C   0  0  0  0  0  0  0  0  0  0  0  0
    7.1599  -12.1796   25.6502 C   0  0  0  0  0  0  0  0  0  0  0  0
    8.5867  -15.8352   24.6571 C   0  0  0  0  0  0  0  0  0  0  0  0
    8.0901  -16.9831   24.5401 O   0  0  0  0  0  0  0  0  0  0  0  0
   13.0390  -17.4569   20.6643 O   0  0  0  0  0  0  0  0  0  0  0  0
   12.7206  -17.2667   22.0057 C   0  0  0  0  0  0  0  0  0  0  0  0
   12.7978  -16.0314   22.5878 C   0  0  0  0  0  0  0  0  0  0  0  0
   12.4811  -15.8531   23.9146 C   0  0  0  0  0  0  0  0  0  0  0  0
   12.0777  -16.9092   24.6972 C   0  0  0  0  0  0  0  0  0  0  0  0
   11.7350  -16.7759   26.1263 C   0  0  0  0  0  0  0  0  0  0  0  0
   10.2451  -16.8076   26.2890 C   0  0  2  0  0  0  0  0  0  0  0  0
    9.6243  -15.6584   25.6072 N   0  0  0  0  0  0  0  0  0  0  0  0
    9.7756  -16.8072   27.6840 C   0  0  0  0  0  0  0  0  0  0  0  0
   10.1218  -17.6508   28.5456 O   0  0  0  0  0  0  0  0  0  0  0  0
   11.9984  -18.1537   24.1158 C   0  0  0  0  0  0  0  0  0  0  0  0
   12.3179  -18.3454   22.7684 C   0  0  0  0  0  0  0  0  0  0  0  0
    8.8812  -15.8275   28.1475 O   0  0  0  0  0  0  0  0  0  0  0  0
  1  2  1  0
  1  5  1  0
  2  3  1  0
  3  4  1  0
  5  6  1  1
  5  4  1  0
  6  7  2  0
  8  9  1  0
  8  6  1  0
  9 10  1  1
 11 12  2  0
 11 10  1  0
 13 12  1  0
 14 13  2  0
 15 14  1  0
 15 16  2  0
 16 11  1  0
 17  9  1  0
 18 17  2  0
 19 20  1  0
 20 21  2  0
 20 30  1  0
 21 22  1  0
 22 23  2  0
 23 24  1  0
 25 24  1  1
 25 27  1  0
 25 26  1  0
 26 17  1  0
 27 31  1  0
 28 27  2  0
 29 23  1  0
 30 29  2  0
M  END
$$$$
