PFY.pdb
     RDKit          3D

 31 33  0  0  1  0  0  0  0  0999 V2000
    8.3139  -16.8650   19.2366 N   0  0  0  0  0  0  0  0  0  0  0  0
    7.4799  -16.4624   18.1313 C   0  0  0  0  0  0  0  0  0  0  0  0
    8.3810  -15.7002   17.1849 C   0  0  0  0  0  0  0  0  0  0  0  0
    9.3283  -15.0173   18.1393 C   0  0  0  0  0  0  0  0  0  0  0  0
    9.4327  -15.9696   19.2967 C   0  0  1  0  0  0  0  0  0  0  0  0
    9.3892  -15.2439   20.6075 C   0  0  0  0  0  0  0  0  0  0  0  0
   10.2536  -14.3832   20.9156 O   0  0  0  0  0  0  0  0  0  0  0  0
    8.3622  -15.4978   21.5675 N   0  0  0  0  0  0  0  0  0  0  0  0
    8.2930  -14.8107   22.8242 C   0  0  1  0  0  0  0  0  0  0  0  0
    6.8857  -14.4918   23.2515 C   0  0  0  0  0  0  0  0  0  0  0  0
    6.8208  -13.5747   24.3942 C   0  0  0  0  0  0  0  0  0  0  0  0
    7.2340  -12.2595   24.2588 C   0  0  0  0  0  0  0  0  0  0  0  0
    7.1862  -11.3712   25.3132 C   0  0  0  0  0  0  0  0  0  0  0  0
    6.7225  -11.7567   26.5535 C   0  0  0  0  0  0  0  0  0  0  0  0
    6.3084  -13.0641   26.6993 C   0  0  0  0  0  0  0  0  0  0  0  0
    6.3581  -13.9528   25.6380 C   0  0  0  0  0  0  0  0  0  0  0  0
    9.0254  -15.5147   23.9050 C   0  0  0  0  0  0  0  0  0  0  0  0
    8.9175  -16.7649   23.9604 O   0  0  0  0  0  0  0  0  0  0  0  0
   12.4851  -17.5012   31.7135 O   0  0  0  0  0  0  0  0  0  0  0  0
   12.0893  -16.8210   30.5656 C   0  0  0  0  0  0  0  0  0  0  0  0
   12.5436  -17.1870   29.3285 C   0  0  0  0  0  0  0  0  0  0  0  0
   12.1467  -16.5085   28.1995 C   0  0  0  0  0  0  0  0  0  0  0  0
   11.2824  -15.4422   28.2780 C   0  0  0  0  0  0  0  0  0  0  0  0
   10.8317  -14.6744   27.1011 C   0  0  0  0  0  0  0  0  0  0  0  0
   10.3801  -15.6201   26.0293 C   0  0  2  0  0  0  0  0  0  0  0  0
    9.8369  -14.8781   24.8781 N   0  0  0  0  0  0  0  0  0  0  0  0
    9.3621  -16.5948   26.4538 C   0  0  0  0  0  0  0  0  0  0  0  0
    9.5921  -17.8105   26.6618 O   0  0  0  0  0  0  0  0  0  0  0  0
   10.8226  -15.0705   29.5204 C   0  0  0  0  0  0  0  0  0  0  0  0
   11.2197  -15.7534   30.6738 C   0  0  0  0  0  0  0  0  0  0  0  0
    8.0272  -16.2064   26.6579 O   0  0  0  0  0  0  0  0  0  0  0  0
  1  2  1  0
  1  5  1  0
  2  3  1  0
  3  4  1  0
  5  6  1  1
  5  4  1  0
  6  7  2  0
  8  9  1  0
  8  6  1  0
  9 10  1  1
 11 12  2  0
 11 10  1  0
 13 12  1  0
 14 13  2  0
 15 14  1  0
 15 16  2  0
 16 11  1  0
 17  9  1  0
 18 17  2  0
 19 20  1  0
 20 21  2  0
 20 30  1  0
 21 22  1  0
 22 23  2  0
 23 24  1  0
 25 24  1  1
 25 27  1  0
 25 26  1  0
 26 17  1  0
 27 31  1  0
 28 27  2  0
 29 23  1  0
 30 29  2  0
M  END
$$$$
