PFY.pdb
     RDKit          3D

 31 33  0  0  1  0  0  0  0  0999 V2000
    8.4098  -17.3418   19.4051 N   0  0  0  0  0  0  0  0  0  0  0  0
    7.5860  -16.9898   18.2752 C   0  0  0  0  0  0  0  0  0  0  0  0
    8.4944  -16.2653   17.3063 C   0  0  0  0  0  0  0  0  0  0  0  0
    9.4296  -15.5389   18.2403 C   0  0  0  0  0  0  0  0  0  0  0  0
    9.5250  -16.4405   19.4384 C   0  0  1  0  0  0  0  0  0  0  0  0
    9.4655  -15.6597   20.7165 C   0  0  0  0  0  0  0  0  0  0  0  0
   10.4022  -14.8975   21.0697 O   0  0  0  0  0  0  0  0  0  0  0  0
    8.3404  -15.7463   21.5923 N   0  0  0  0  0  0  0  0  0  0  0  0
    8.2383  -14.9750   22.7970 C   0  0  1  0  0  0  0  0  0  0  0  0
    6.8279  -14.5633   23.1224 C   0  0  0  0  0  0  0  0  0  0  0  0
    6.7415  -13.6383   24.2573 C   0  0  0  0  0  0  0  0  0  0  0  0
    7.1882  -12.3332   24.1303 C   0  0  0  0  0  0  0  0  0  0  0  0
    7.1214  -11.4377   25.1776 C   0  0  0  0  0  0  0  0  0  0  0  0
    6.6044  -11.8057   26.4021 C   0  0  0  0  0  0  0  0  0  0  0  0
    6.1567  -13.1029   26.5393 C   0  0  0  0  0  0  0  0  0  0  0  0
    6.2256  -13.9988   25.4852 C   0  0  0  0  0  0  0  0  0  0  0  0
    8.8754  -15.6392   23.9601 C   0  0  0  0  0  0  0  0  0  0  0  0
    8.6800  -16.8717   24.1036 O   0  0  0  0  0  0  0  0  0  0  0  0
   12.5406  -17.7348   31.5673 O   0  0  0  0  0  0  0  0  0  0  0  0
   12.1061  -16.9904   30.4746 C   0  0  0  0  0  0  0  0  0  0  0  0
   11.1380  -16.0330   30.6046 C   0  0  0  0  0  0  0  0  0  0  0  0
   10.7148  -15.3022   29.5187 C   0  0  0  0  0  0  0  0  0  0  0  0
   11.2503  -15.5103   28.2696 C   0  0  0  0  0  0  0  0  0  0  0  0
   10.8273  -14.7617   27.0702 C   0  0  0  0  0  0  0  0  0  0  0  0
   10.2852  -15.7163   26.0495 C   0  0  2  0  0  0  0  0  0  0  0  0
    9.6876  -14.9833   24.9197 N   0  0  0  0  0  0  0  0  0  0  0  0
    9.2731  -16.6561   26.5584 C   0  0  0  0  0  0  0  0  0  0  0  0
    9.4897  -17.8703   26.7885 O   0  0  0  0  0  0  0  0  0  0  0  0
   12.2246  -16.4723   28.1339 C   0  0  0  0  0  0  0  0  0  0  0  0
   12.6617  -17.2203   29.2312 C   0  0  0  0  0  0  0  0  0  0  0  0
    7.9601  -16.2329   26.8252 O   0  0  0  0  0  0  0  0  0  0  0  0
  1  2  1  0
  1  5  1  0
  2  3  1  0
  3  4  1  0
  5  6  1  1
  5  4  1  0
  6  7  2  0
  8  9  1  0
  8  6  1  0
  9 10  1  1
 11 12  2  0
 11 10  1  0
 13 12  1  0
 14 13  2  0
 15 14  1  0
 15 16  2  0
 16 11  1  0
 17  9  1  0
 18 17  2  0
 19 20  1  0
 20 21  2  0
 20 30  1  0
 21 22  1  0
 22 23  2  0
 23 24  1  0
 25 24  1  1
 25 27  1  0
 25 26  1  0
 26 17  1  0
 27 31  1  0
 28 27  2  0
 29 23  1  0
 30 29  2  0
M  END
$$$$
