PFY.pdb
     RDKit          3D

 31 33  0  0  1  0  0  0  0  0999 V2000
    7.7221  -16.6077   19.9132 N   0  0  0  0  0  0  0  0  0  0  0  0
    6.7216  -16.0326   19.0486 C   0  0  0  0  0  0  0  0  0  0  0  0
    7.4632  -15.1035   18.1128 C   0  0  0  0  0  0  0  0  0  0  0  0
    8.5651  -14.5819   19.0007 C   0  0  0  0  0  0  0  0  0  0  0  0
    8.8474  -15.7188   19.9415 C   0  0  1  0  0  0  0  0  0  0  0  0
    9.0320  -15.2324   21.3472 C   0  0  0  0  0  0  0  0  0  0  0  0
   10.1065  -14.6988   21.7264 O   0  0  0  0  0  0  0  0  0  0  0  0
    7.9940  -15.3531   22.3212 N   0  0  0  0  0  0  0  0  0  0  0  0
    8.1329  -14.8651   23.6624 C   0  0  1  0  0  0  0  0  0  0  0  0
    6.8628  -14.2783   24.2169 C   0  0  0  0  0  0  0  0  0  0  0  0
    7.0624  -13.5457   25.4717 C   0  0  0  0  0  0  0  0  0  0  0  0
    7.5117  -12.2355   25.4517 C   0  0  0  0  0  0  0  0  0  0  0  0
    7.7099  -11.5181   26.6133 C   0  0  0  0  0  0  0  0  0  0  0  0
    7.4679  -12.0777   27.8503 C   0  0  0  0  0  0  0  0  0  0  0  0
    7.0202  -13.3818   27.8816 C   0  0  0  0  0  0  0  0  0  0  0  0
    6.8226  -14.0986   26.7129 C   0  0  0  0  0  0  0  0  0  0  0  0
    8.6930  -15.8798   24.5880 C   0  0  0  0  0  0  0  0  0  0  0  0
    8.1509  -17.0128   24.6041 O   0  0  0  0  0  0  0  0  0  0  0  0
   12.2725  -19.0979   20.8233 O   0  0  0  0  0  0  0  0  0  0  0  0
   12.1345  -18.6063   22.1180 C   0  0  0  0  0  0  0  0  0  0  0  0
   11.6191  -19.3789   23.1221 C   0  0  0  0  0  0  0  0  0  0  0  0
   11.4865  -18.8842   24.3989 C   0  0  0  0  0  0  0  0  0  0  0  0
   11.8668  -17.5993   24.7064 C   0  0  0  0  0  0  0  0  0  0  0  0
   11.7385  -17.0157   26.0557 C   0  0  0  0  0  0  0  0  0  0  0  0
   10.2955  -16.7268   26.3411 C   0  0  2  0  0  0  0  0  0  0  0  0
    9.7944  -15.6624   25.4541 N   0  0  0  0  0  0  0  0  0  0  0  0
   10.0080  -16.3258   27.7279 C   0  0  0  0  0  0  0  0  0  0  0  0
    9.4644  -15.2423   28.0511 O   0  0  0  0  0  0  0  0  0  0  0  0
   12.3860  -16.8183   23.6995 C   0  0  0  0  0  0  0  0  0  0  0  0
   12.5250  -17.3117   22.3988 C   0  0  0  0  0  0  0  0  0  0  0  0
   10.3373  -17.1627   28.8075 O   0  0  0  0  0  0  0  0  0  0  0  0
  1  2  1  0
  1  5  1  0
  2  3  1  0
  3  4  1  0
  5  6  1  1
  5  4  1  0
  6  7  2  0
  8  9  1  0
  8  6  1  0
  9 10  1  1
 11 12  2  0
 11 10  1  0
 13 12  1  0
 14 13  2  0
 15 14  1  0
 15 16  2  0
 16 11  1  0
 17  9  1  0
 18 17  2  0
 19 20  1  0
 20 21  2  0
 20 30  1  0
 21 22  1  0
 22 23  2  0
 23 24  1  0
 25 24  1  1
 25 27  1  0
 25 26  1  0
 26 17  1  0
 27 31  1  0
 28 27  2  0
 29 23  1  0
 30 29  2  0
M  END
$$$$
