PFY.pdb
     RDKit          3D

 31 33  0  0  1  0  0  0  0  0999 V2000
    8.4134  -17.2089   19.4461 N   0  0  0  0  0  0  0  0  0  0  0  0
    7.4650  -17.0179   18.3768 C   0  0  0  0  0  0  0  0  0  0  0  0
    8.1897  -16.2217   17.3139 C   0  0  0  0  0  0  0  0  0  0  0  0
    9.0870  -15.3385   18.1442 C   0  0  0  0  0  0  0  0  0  0  0  0
    9.3955  -16.1674   19.3587 C   0  0  1  0  0  0  0  0  0  0  0  0
    9.3295  -15.3473   20.6116 C   0  0  0  0  0  0  0  0  0  0  0  0
   10.1140  -14.3847   20.8138 O   0  0  0  0  0  0  0  0  0  0  0  0
    8.3708  -15.6226   21.6342 N   0  0  0  0  0  0  0  0  0  0  0  0
    8.3219  -14.8882   22.8649 C   0  0  1  0  0  0  0  0  0  0  0  0
    6.9252  -14.5071   23.2756 C   0  0  0  0  0  0  0  0  0  0  0  0
    6.8833  -13.6669   24.4770 C   0  0  0  0  0  0  0  0  0  0  0  0
    7.2891  -12.3437   24.4186 C   0  0  0  0  0  0  0  0  0  0  0  0
    7.2624  -11.5263   25.5295 C   0  0  0  0  0  0  0  0  0  0  0  0
    6.8282  -11.9940   26.7521 C   0  0  0  0  0  0  0  0  0  0  0  0
    6.4219  -13.3102   26.8214 C   0  0  0  0  0  0  0  0  0  0  0  0
    6.4504  -14.1275   25.7035 C   0  0  0  0  0  0  0  0  0  0  0  0
    9.0281  -15.5762   23.9730 C   0  0  0  0  0  0  0  0  0  0  0  0
    8.9112  -16.8245   24.0495 O   0  0  0  0  0  0  0  0  0  0  0  0
   12.5578  -17.6101   31.6745 O   0  0  0  0  0  0  0  0  0  0  0  0
   12.1785  -16.8842   30.5492 C   0  0  0  0  0  0  0  0  0  0  0  0
   11.3161  -15.8267   30.6412 C   0  0  0  0  0  0  0  0  0  0  0  0
   10.9469  -15.1150   29.5233 C   0  0  0  0  0  0  0  0  0  0  0  0
   11.4318  -15.4436   28.2794 C   0  0  0  0  0  0  0  0  0  0  0  0
   11.0622  -14.7205   27.0472 C   0  0  0  0  0  0  0  0  0  0  0  0
   10.3791  -15.6608   26.1006 C   0  0  2  0  0  0  0  0  0  0  0  0
    9.8242  -14.9264   24.9501 N   0  0  0  0  0  0  0  0  0  0  0  0
    9.2889  -16.4518   26.6944 C   0  0  0  0  0  0  0  0  0  0  0  0
    8.1342  -16.0116   26.9105 O   0  0  0  0  0  0  0  0  0  0  0  0
   12.2998  -16.5067   28.1820 C   0  0  0  0  0  0  0  0  0  0  0  0
   12.6814  -17.2362   29.3120 C   0  0  0  0  0  0  0  0  0  0  0  0
    9.4855  -17.7924   27.0664 O   0  0  0  0  0  0  0  0  0  0  0  0
  1  2  1  0
  1  5  1  0
  2  3  1  0
  3  4  1  0
  5  6  1  1
  5  4  1  0
  6  7  2  0
  8  9  1  0
  8  6  1  0
  9 10  1  1
 11 12  2  0
 11 10  1  0
 13 12  1  0
 14 13  2  0
 15 14  1  0
 15 16  2  0
 16 11  1  0
 17  9  1  0
 18 17  2  0
 19 20  1  0
 20 21  2  0
 20 30  1  0
 21 22  1  0
 22 23  2  0
 23 24  1  0
 25 24  1  1
 25 27  1  0
 25 26  1  0
 26 17  1  0
 27 31  1  0
 28 27  2  0
 29 23  1  0
 30 29  2  0
M  END
$$$$
