PFY.pdb
     RDKit          3D

 31 33  0  0  1  0  0  0  0  0999 V2000
    8.2513  -17.4267   20.3443 N   0  0  0  0  0  0  0  0  0  0  0  0
    7.3729  -17.1496   19.2348 C   0  0  0  0  0  0  0  0  0  0  0  0
    8.2242  -16.4617   18.1905 C   0  0  0  0  0  0  0  0  0  0  0  0
    9.1841  -15.6705   19.0432 C   0  0  0  0  0  0  0  0  0  0  0  0
    9.3488  -16.5055   20.2813 C   0  0  1  0  0  0  0  0  0  0  0  0
    9.3289  -15.6592   21.5183 C   0  0  0  0  0  0  0  0  0  0  0  0
   10.2031  -14.7799   21.7318 O   0  0  0  0  0  0  0  0  0  0  0  0
    8.3143  -15.8135   22.5120 N   0  0  0  0  0  0  0  0  0  0  0  0
    8.3477  -15.1162   23.7646 C   0  0  1  0  0  0  0  0  0  0  0  0
    7.0153  -14.5392   24.1603 C   0  0  0  0  0  0  0  0  0  0  0  0
    7.0951  -13.6317   25.3097 C   0  0  0  0  0  0  0  0  0  0  0  0
    6.6261  -14.0323   26.5500 C   0  0  0  0  0  0  0  0  0  0  0  0
    6.6861  -13.2036   27.6513 C   0  0  0  0  0  0  0  0  0  0  0  0
    7.2184  -11.9344   27.5638 C   0  0  0  0  0  0  0  0  0  0  0  0
    7.6884  -11.5254   26.3334 C   0  0  0  0  0  0  0  0  0  0  0  0
    7.6262  -12.3606   25.2302 C   0  0  0  0  0  0  0  0  0  0  0  0
    8.9149  -15.9353   24.8633 C   0  0  0  0  0  0  0  0  0  0  0  0
    8.5075  -17.1183   24.9752 O   0  0  0  0  0  0  0  0  0  0  0  0
   13.9788  -18.1846   21.7253 O   0  0  0  0  0  0  0  0  0  0  0  0
   13.5014  -17.6821   22.9321 C   0  0  0  0  0  0  0  0  0  0  0  0
   13.3576  -16.3374   23.1367 C   0  0  0  0  0  0  0  0  0  0  0  0
   12.8848  -15.8500   24.3331 C   0  0  0  0  0  0  0  0  0  0  0  0
   12.5423  -16.6974   25.3602 C   0  0  0  0  0  0  0  0  0  0  0  0
   12.0391  -16.2283   26.6658 C   0  0  0  0  0  0  0  0  0  0  0  0
   10.5518  -16.4070   26.7226 C   0  0  2  0  0  0  0  0  0  0  0  0
    9.8821  -15.4792   25.7944 N   0  0  0  0  0  0  0  0  0  0  0  0
    9.9566  -16.2140   28.0549 C   0  0  0  0  0  0  0  0  0  0  0  0
    9.0999  -15.3383   28.3253 O   0  0  0  0  0  0  0  0  0  0  0  0
   12.6851  -18.0510   25.1589 C   0  0  0  0  0  0  0  0  0  0  0  0
   13.1646  -18.5564   23.9468 C   0  0  0  0  0  0  0  0  0  0  0  0
   10.3265  -17.0281   29.1388 O   0  0  0  0  0  0  0  0  0  0  0  0
  1  2  1  0
  1  5  1  0
  2  3  1  0
  3  4  1  0
  5  6  1  1
  5  4  1  0
  6  7  2  0
  8  9  1  0
  8  6  1  0
  9 10  1  1
 11 12  2  0
 11 10  1  0
 13 12  1  0
 14 13  2  0
 15 14  1  0
 15 16  2  0
 16 11  1  0
 17  9  1  0
 18 17  2  0
 19 20  1  0
 20 21  2  0
 20 30  1  0
 21 22  1  0
 22 23  2  0
 23 24  1  0
 25 24  1  1
 25 27  1  0
 25 26  1  0
 26 17  1  0
 27 31  1  0
 28 27  2  0
 29 23  1  0
 30 29  2  0
M  END
$$$$
