DHL.pdb
     RDKit          3D

 27 27  0  0  1  0  0  0  0  0999 V2000
   28.8672    4.6158   -7.2019 N   0  0  0  0  0  0  0  0  0  0  0  0
   28.5942    3.3546   -6.5523 C   0  0  1  0  0  0  0  0  0  0  0  0
   29.2118    3.3934   -5.1495 C   0  0  0  0  0  0  0  0  0  0  0  0
   30.7054    3.2764   -5.2595 C   0  0  0  0  0  0  0  0  0  0  0  0
   31.2642    2.8236   -6.3004 O   0  0  0  0  0  0  0  0  0  0  0  0
   27.1326    3.2336   -6.3589 C   0  0  0  0  0  0  0  0  0  0  0  0
   26.4809    4.2395   -6.0064 O   0  0  0  0  0  0  0  0  0  0  0  0
   31.5347    3.6612   -4.2209 O   0  0  0  0  0  0  0  0  0  0  0  0
   26.4227    2.0139   -6.5564 N   0  0  0  0  0  0  0  0  0  0  0  0
   24.9919    1.8962   -6.3677 C   0  0  1  0  0  0  0  0  0  0  0  0
   24.3328    1.2268   -7.5485 C   0  0  0  0  0  0  0  0  0  0  0  0
   24.2255    2.1310   -8.7156 C   0  0  0  0  0  0  0  0  0  0  0  0
   24.5760    3.4738   -8.8180 C   0  0  0  0  0  0  0  0  0  0  0  0
   24.3130    3.9136  -10.0587 N   0  0  0  0  0  0  0  0  0  0  0  0
   23.8067    2.8992  -10.7534 C   0  0  0  0  0  0  0  0  0  0  0  0
   23.7535    1.8124   -9.9339 N   0  0  0  0  0  0  0  0  0  0  0  0
   24.6507    1.2442   -5.0880 C   0  0  0  0  0  0  0  0  0  0  0  0
   24.8112    0.0012   -4.9563 O   0  0  0  0  0  0  0  0  0  0  0  0
   26.7010    0.1592   -0.2676 C   0  0  0  0  0  0  0  0  0  0  0  0
   25.3547    0.0570   -0.9616 C   0  0  2  0  0  0  0  0  0  0  0  0
   24.7024   -1.2649   -0.7772 C   0  0  0  0  0  0  0  0  0  0  0  0
   25.2743    0.7112   -2.2765 C   0  0  0  0  0  0  0  0  0  0  0  0
   23.9717    1.2781   -2.6940 C   0  0  2  0  0  0  0  0  0  0  0  0
   24.1405    1.9676   -3.9789 N   0  0  0  0  0  0  0  0  0  0  0  0
   23.4420    2.2569   -1.7559 C   0  0  0  0  0  0  0  0  0  0  0  0
   22.5214    1.9924   -0.7513 O   0  0  0  0  0  0  0  0  0  0  0  0
   23.8300    3.4743   -1.8359 O   0  0  0  0  0  0  0  0  0  0  0  0
  2  1  1  1
  2  3  1  0
  4  3  1  0
  5  4  2  0
  6  2  1  0
  7  6  2  0
  8  4  1  0
  9  6  1  0
 10  9  1  0
 11 12  1  0
 10 11  1  6
 12 13  2  0
 13 14  1  0
 15 14  1  0
 16 12  1  0
 16 15  2  0
 17 18  2  0
 17 10  1  0
 20 19  1  6
 21 20  1  0
 23 22  1  1
 22 20  1  0
 23 24  1  0
 24 17  1  0
 25 23  1  0
 26 25  1  0
 27 25  2  0
M  END
$$$$
