DHL.pdb
     RDKit          3D

 27 27  0  0  1  0  0  0  0  0999 V2000
   16.7957  -10.9883  -18.9730 N   0  0  0  0  0  0  0  0  0  0  0  0
   16.7849  -10.0653  -17.8616 C   0  0  1  0  0  0  0  0  0  0  0  0
   16.8440  -10.8773  -16.5624 C   0  0  0  0  0  0  0  0  0  0  0  0
   15.4717  -11.3930  -16.2345 C   0  0  0  0  0  0  0  0  0  0  0  0
   14.4366  -10.9470  -16.8093 O   0  0  0  0  0  0  0  0  0  0  0  0
   18.0270   -9.2632  -17.9064 C   0  0  0  0  0  0  0  0  0  0  0  0
   19.1196   -9.8440  -18.0788 O   0  0  0  0  0  0  0  0  0  0  0  0
   15.2836  -12.3820  -15.2853 O   0  0  0  0  0  0  0  0  0  0  0  0
   18.0403   -7.8457  -17.7611 N   0  0  0  0  0  0  0  0  0  0  0  0
   19.2599   -7.0651  -17.7654 C   0  0  1  0  0  0  0  0  0  0  0  0
   18.9762   -5.5995  -17.9854 C   0  0  0  0  0  0  0  0  0  0  0  0
   20.2170   -4.8050  -18.1272 C   0  0  0  0  0  0  0  0  0  0  0  0
   21.3628   -5.0943  -18.8621 C   0  0  0  0  0  0  0  0  0  0  0  0
   22.2542   -4.1016  -18.7143 N   0  0  0  0  0  0  0  0  0  0  0  0
   21.7187   -3.1875  -17.9106 C   0  0  0  0  0  0  0  0  0  0  0  0
   20.4765   -3.6169  -17.5529 N   0  0  0  0  0  0  0  0  0  0  0  0
   20.0794   -7.3056  -16.5613 C   0  0  0  0  0  0  0  0  0  0  0  0
   19.5268   -7.3695  -15.4305 O   0  0  0  0  0  0  0  0  0  0  0  0
   23.3495   -9.3718  -13.1870 C   0  0  0  0  0  0  0  0  0  0  0  0
   24.0166   -9.3565  -14.5505 C   0  0  2  0  0  0  0  0  0  0  0  0
   25.4379   -8.9273  -14.4994 C   0  0  0  0  0  0  0  0  0  0  0  0
   23.1718   -8.8844  -15.6582 C   0  0  0  0  0  0  0  0  0  0  0  0
   22.2225   -7.7806  -15.3887 C   0  0  2  0  0  0  0  0  0  0  0  0
   21.4874   -7.4710  -16.6212 N   0  0  0  0  0  0  0  0  0  0  0  0
   22.8746   -6.5500  -14.9655 C   0  0  0  0  0  0  0  0  0  0  0  0
   23.3532   -5.5605  -15.8130 O   0  0  0  0  0  0  0  0  0  0  0  0
   23.0433   -6.3288  -13.7158 O   0  0  0  0  0  0  0  0  0  0  0  0
  2  1  1  6
  2  3  1  0
  4  3  1  0
  5  4  2  0
  6  2  1  0
  7  6  2  0
  8  4  1  0
  9  6  1  0
 10  9  1  0
 11 12  1  0
 10 11  1  1
 12 13  2  0
 13 14  1  0
 15 14  1  0
 16 12  1  0
 16 15  2  0
 17 18  2  0
 17 10  1  0
 20 19  1  1
 21 20  1  0
 23 22  1  6
 22 20  1  0
 23 24  1  0
 24 17  1  0
 25 23  1  0
 26 25  1  0
 27 25  2  0
M  END
$$$$
