DHL.pdb
     RDKit          3D

 27 27  0  0  1  0  0  0  0  0999 V2000
   20.6957  -29.1528  -14.5539 N   0  0  0  0  0  0  0  0  0  0  0  0
   20.8021  -28.0992  -13.5711 C   0  0  1  0  0  0  0  0  0  0  0  0
   19.7322  -27.0451  -13.8794 C   0  0  0  0  0  0  0  0  0  0  0  0
   20.1874  -26.1955  -15.0316 C   0  0  0  0  0  0  0  0  0  0  0  0
   21.3929  -26.1824  -15.4153 O   0  0  0  0  0  0  0  0  0  0  0  0
   20.4626  -28.6593  -12.2448 C   0  0  0  0  0  0  0  0  0  0  0  0
   19.3237  -29.1389  -12.0611 O   0  0  0  0  0  0  0  0  0  0  0  0
   19.3015  -25.3886  -15.7234 O   0  0  0  0  0  0  0  0  0  0  0  0
   21.3793  -28.6797  -11.1540 N   0  0  0  0  0  0  0  0  0  0  0  0
   21.0484  -29.2332   -9.8576 C   0  0  1  0  0  0  0  0  0  0  0  0
   22.2872  -29.4938   -9.0364 C   0  0  0  0  0  0  0  0  0  0  0  0
   23.0736  -30.6345   -9.5574 C   0  0  0  0  0  0  0  0  0  0  0  0
   22.7592  -31.5179  -10.5856 C   0  0  0  0  0  0  0  0  0  0  0  0
   23.7535  -32.4075  -10.7337 N   0  0  0  0  0  0  0  0  0  0  0  0
   24.6928  -32.1240   -9.8362 C   0  0  0  0  0  0  0  0  0  0  0  0
   24.2778  -31.0428   -9.1192 N   0  0  0  0  0  0  0  0  0  0  0  0
   20.0577  -28.4098   -9.1366 C   0  0  0  0  0  0  0  0  0  0  0  0
   20.1350  -27.1528   -9.1843 O   0  0  0  0  0  0  0  0  0  0  0  0
   16.3663  -25.5817   -7.5597 C   0  0  0  0  0  0  0  0  0  0  0  0
   16.1028  -26.5839   -8.6690 C   0  0  2  0  0  0  0  0  0  0  0  0
   14.7228  -27.1336   -8.6425 C   0  0  0  0  0  0  0  0  0  0  0  0
   17.2212  -27.4878   -8.9782 C   0  0  0  0  0  0  0  0  0  0  0  0
   17.9511  -28.1049   -7.8473 C   0  0  2  0  0  0  0  0  0  0  0  0
   19.0028  -28.9806   -8.3785 N   0  0  0  0  0  0  0  0  0  0  0  0
   17.1052  -28.9290   -6.9965 C   0  0  0  0  0  0  0  0  0  0  0  0
   16.4978  -28.5122   -5.8201 O   0  0  0  0  0  0  0  0  0  0  0  0
   16.8838  -30.1464   -7.3249 O   0  0  0  0  0  0  0  0  0  0  0  0
  2  1  1  6
  2  3  1  0
  4  3  1  0
  5  4  2  0
  6  2  1  0
  7  6  2  0
  8  4  1  0
  9  6  1  0
 10  9  1  0
 11 12  1  0
 10 11  1  1
 12 13  2  0
 13 14  1  0
 15 14  1  0
 16 12  1  0
 16 15  2  0
 17 18  2  0
 17 10  1  0
 20 19  1  1
 21 20  1  0
 23 22  1  6
 22 20  1  0
 23 24  1  0
 24 17  1  0
 25 23  1  0
 26 25  1  0
 27 25  2  0
M  END
$$$$
