DHL.pdb
     RDKit          3D

 27 27  0  0  1  0  0  0  0  0999 V2000
   27.7701  -20.1592  -16.6942 N   0  0  0  0  0  0  0  0  0  0  0  0
   28.1518  -19.1566  -15.7265 C   0  0  1  0  0  0  0  0  0  0  0  0
   28.1209  -17.7875  -16.4160 C   0  0  0  0  0  0  0  0  0  0  0  0
   28.9831  -17.8294  -17.6455 C   0  0  0  0  0  0  0  0  0  0  0  0
   29.4103  -18.9201  -18.1236 O   0  0  0  0  0  0  0  0  0  0  0  0
   27.1202  -19.1109  -14.6673 C   0  0  0  0  0  0  0  0  0  0  0  0
   27.1696  -18.2038  -13.8096 O   0  0  0  0  0  0  0  0  0  0  0  0
   29.3467  -16.6705  -18.3080 O   0  0  0  0  0  0  0  0  0  0  0  0
   26.0613  -20.0600  -14.5747 N   0  0  0  0  0  0  0  0  0  0  0  0
   25.0860  -20.0497  -13.5046 C   0  0  1  0  0  0  0  0  0  0  0  0
   23.7925  -20.6996  -13.9306 C   0  0  0  0  0  0  0  0  0  0  0  0
   22.7595  -20.6352  -12.8725 C   0  0  0  0  0  0  0  0  0  0  0  0
   22.8296  -20.0428  -11.6152 C   0  0  0  0  0  0  0  0  0  0  0  0
   21.6650  -20.2168  -10.9707 N   0  0  0  0  0  0  0  0  0  0  0  0
   20.8525  -20.8998  -11.7717 C   0  0  0  0  0  0  0  0  0  0  0  0
   21.5203  -21.1547  -12.9312 N   0  0  0  0  0  0  0  0  0  0  0  0
   25.6222  -20.6276  -12.2565 C   0  0  0  0  0  0  0  0  0  0  0  0
   26.2737  -21.7057  -12.2952 O   0  0  0  0  0  0  0  0  0  0  0  0
   27.6100  -18.9110   -6.7693 C   0  0  0  0  0  0  0  0  0  0  0  0
   27.3852  -20.0362   -7.7633 C   0  0  2  0  0  0  0  0  0  0  0  0
   28.4841  -21.0359   -7.7708 C   0  0  0  0  0  0  0  0  0  0  0  0
   26.7834  -19.6330   -9.0434 C   0  0  0  0  0  0  0  0  0  0  0  0
   26.0088  -20.6443   -9.7981 C   0  0  2  0  0  0  0  0  0  0  0  0
   25.4337  -20.0123  -10.9919 N   0  0  0  0  0  0  0  0  0  0  0  0
   24.8992  -21.2037   -9.0403 C   0  0  0  0  0  0  0  0  0  0  0  0
   23.6272  -20.6551   -8.9525 O   0  0  0  0  0  0  0  0  0  0  0  0
   25.0738  -22.2883   -8.3830 O   0  0  0  0  0  0  0  0  0  0  0  0
  2  1  1  6
  2  3  1  0
  4  3  1  0
  5  4  2  0
  6  2  1  0
  7  6  2  0
  8  4  1  0
  9  6  1  0
 10  9  1  0
 11 12  1  0
 10 11  1  6
 12 13  2  0
 13 14  1  0
 15 14  1  0
 16 12  1  0
 16 15  2  0
 17 18  2  0
 17 10  1  0
 20 19  1  6
 21 20  1  0
 23 22  1  1
 22 20  1  0
 23 24  1  0
 24 17  1  0
 25 23  1  0
 26 25  1  0
 27 25  2  0
M  END
$$$$
