DHL.pdb
     RDKit          3D

 27 27  0  0  1  0  0  0  0  0999 V2000
   20.8928   -5.9473  -16.0173 N   0  0  0  0  0  0  0  0  0  0  0  0
   20.6399   -5.9888  -14.5955 C   0  0  1  0  0  0  0  0  0  0  0  0
   21.0717   -4.6473  -13.9916 C   0  0  0  0  0  0  0  0  0  0  0  0
   22.5655   -4.5173  -14.0841 C   0  0  0  0  0  0  0  0  0  0  0  0
   23.3424   -5.3868  -13.5929 O   0  0  0  0  0  0  0  0  0  0  0  0
   19.1795   -6.0888  -14.3820 C   0  0  0  0  0  0  0  0  0  0  0  0
   18.4242   -5.2762  -14.9564 O   0  0  0  0  0  0  0  0  0  0  0  0
   23.1550   -3.4354  -14.7137 O   0  0  0  0  0  0  0  0  0  0  0  0
   18.5842   -7.0764  -13.5447 N   0  0  0  0  0  0  0  0  0  0  0  0
   17.1528   -7.1943  -13.3613 C   0  0  1  0  0  0  0  0  0  0  0  0
   16.5382   -8.1102  -14.3910 C   0  0  0  0  0  0  0  0  0  0  0  0
   17.1966   -9.4355  -14.4243 C   0  0  0  0  0  0  0  0  0  0  0  0
   18.3009   -9.8829  -13.7053 C   0  0  0  0  0  0  0  0  0  0  0  0
   18.5691  -11.1552  -14.0390 N   0  0  0  0  0  0  0  0  0  0  0  0
   17.6750  -11.5372  -14.9462 C   0  0  0  0  0  0  0  0  0  0  0  0
   16.8383  -10.4882  -15.1807 N   0  0  0  0  0  0  0  0  0  0  0  0
   16.7978   -7.5798  -11.9812 C   0  0  0  0  0  0  0  0  0  0  0  0
   17.6488   -8.1596  -11.2547 O   0  0  0  0  0  0  0  0  0  0  0  0
   13.6607   -5.6973   -7.2035 C   0  0  0  0  0  0  0  0  0  0  0  0
   14.4496   -6.8262   -7.8420 C   0  0  2  0  0  0  0  0  0  0  0  0
   15.4056   -7.4716   -6.9058 C   0  0  0  0  0  0  0  0  0  0  0  0
   14.8659   -6.5935   -9.2333 C   0  0  0  0  0  0  0  0  0  0  0  0
   15.2311   -7.7686  -10.0569 C   0  0  2  0  0  0  0  0  0  0  0  0
   15.5178   -7.3221  -11.4257 N   0  0  0  0  0  0  0  0  0  0  0  0
   14.1692   -8.7597  -10.1497 C   0  0  0  0  0  0  0  0  0  0  0  0
   14.0519   -9.8903   -9.3532 O   0  0  0  0  0  0  0  0  0  0  0  0
   13.2516   -8.6133  -11.0305 O   0  0  0  0  0  0  0  0  0  0  0  0
  2  1  1  6
  2  3  1  0
  4  3  1  0
  5  4  2  0
  6  2  1  0
  7  6  2  0
  8  4  1  0
  9  6  1  0
 10  9  1  0
 11 12  1  0
 10 11  1  6
 12 13  2  0
 13 14  1  0
 15 14  1  0
 16 12  1  0
 16 15  2  0
 17 18  2  0
 17 10  1  0
 20 19  1  1
 21 20  1  0
 23 22  1  1
 22 20  1  0
 23 24  1  0
 24 17  1  0
 25 23  1  0
 26 25  1  0
 27 25  2  0
M  END
$$$$
