DHL.pdb
     RDKit          3D

 27 27  0  0  1  0  0  0  0  0999 V2000
   20.0415  -20.4966  -14.5108 N   0  0  0  0  0  0  0  0  0  0  0  0
   20.3751  -19.1362  -14.1570 C   0  0  1  0  0  0  0  0  0  0  0  0
   20.0935  -18.9462  -12.6619 C   0  0  0  0  0  0  0  0  0  0  0  0
   18.6422  -19.2224  -12.3893 C   0  0  0  0  0  0  0  0  0  0  0  0
   17.8477  -19.5806  -13.3065 O   0  0  0  0  0  0  0  0  0  0  0  0
   21.8322  -18.9503  -14.3315 C   0  0  0  0  0  0  0  0  0  0  0  0
   22.4339  -18.1395  -13.5957 O   0  0  0  0  0  0  0  0  0  0  0  0
   18.1131  -19.0954  -11.1172 O   0  0  0  0  0  0  0  0  0  0  0  0
   22.5926  -19.6573  -15.3075 N   0  0  0  0  0  0  0  0  0  0  0  0
   24.0005  -19.4106  -15.5390 C   0  0  1  0  0  0  0  0  0  0  0  0
   24.6511  -20.5638  -16.2625 C   0  0  0  0  0  0  0  0  0  0  0  0
   26.0813  -20.3096  -16.5474 C   0  0  0  0  0  0  0  0  0  0  0  0
   26.6756  -19.8799  -17.7301 C   0  0  0  0  0  0  0  0  0  0  0  0
   28.0026  -19.7782  -17.5552 N   0  0  0  0  0  0  0  0  0  0  0  0
   28.2779  -20.1278  -16.3021 C   0  0  0  0  0  0  0  0  0  0  0  0
   27.1060  -20.4518  -15.6880 N   0  0  0  0  0  0  0  0  0  0  0  0
   24.2362  -18.1182  -16.2124 C   0  0  0  0  0  0  0  0  0  0  0  0
   23.3736  -17.6611  -17.0094 O   0  0  0  0  0  0  0  0  0  0  0  0
   27.3481  -12.9392  -15.1413 C   0  0  0  0  0  0  0  0  0  0  0  0
   26.3548  -13.7001  -16.0009 C   0  0  2  0  0  0  0  0  0  0  0  0
   25.2055  -12.8672  -16.4397 C   0  0  0  0  0  0  0  0  0  0  0  0
   26.1085  -15.0920  -15.5943 C   0  0  0  0  0  0  0  0  0  0  0  0
   25.5072  -16.0116  -16.5868 C   0  0  2  0  0  0  0  0  0  0  0  0
   25.4121  -17.3533  -15.9987 N   0  0  0  0  0  0  0  0  0  0  0  0
   26.2938  -16.1392  -17.8048 C   0  0  0  0  0  0  0  0  0  0  0  0
   26.0868  -15.4223  -18.9752 O   0  0  0  0  0  0  0  0  0  0  0  0
   27.2625  -16.9756  -17.8397 O   0  0  0  0  0  0  0  0  0  0  0  0
  2  1  1  1
  2  3  1  0
  4  3  1  0
  5  4  2  0
  6  2  1  0
  7  6  2  0
  8  4  1  0
  9  6  1  0
 10  9  1  0
 11 12  1  0
 10 11  1  6
 12 13  2  0
 13 14  1  0
 15 14  1  0
 16 12  1  0
 16 15  2  0
 17 18  2  0
 17 10  1  0
 20 19  1  1
 21 20  1  0
 23 22  1  1
 22 20  1  0
 23 24  1  0
 24 17  1  0
 25 23  1  0
 26 25  1  0
 27 25  2  0
M  END
$$$$
