DHL.pdb
     RDKit          3D

 27 27  0  0  1  0  0  0  0  0999 V2000
   19.5144  -13.7686  -19.2196 N   0  0  0  0  0  0  0  0  0  0  0  0
   18.9115  -13.4122  -17.9560 C   0  0  1  0  0  0  0  0  0  0  0  0
   19.6201  -14.1990  -16.8471 C   0  0  0  0  0  0  0  0  0  0  0  0
   18.9179  -15.5109  -16.6405 C   0  0  0  0  0  0  0  0  0  0  0  0
   17.6648  -15.5786  -16.4794 O   0  0  0  0  0  0  0  0  0  0  0  0
   19.1871  -11.9831  -17.6916 C   0  0  0  0  0  0  0  0  0  0  0  0
   20.2828  -11.4995  -18.0473 O   0  0  0  0  0  0  0  0  0  0  0  0
   19.6173  -16.7045  -16.6179 O   0  0  0  0  0  0  0  0  0  0  0  0
   18.2555  -11.1206  -17.0444 N   0  0  0  0  0  0  0  0  0  0  0  0
   18.5251   -9.7214  -16.7873 C   0  0  1  0  0  0  0  0  0  0  0  0
   17.2781   -8.9894  -16.3561 C   0  0  0  0  0  0  0  0  0  0  0  0
   17.5077   -7.5349  -16.2050 C   0  0  0  0  0  0  0  0  0  0  0  0
   18.6670   -6.8023  -16.4413 C   0  0  0  0  0  0  0  0  0  0  0  0
   18.4410   -5.5057  -16.1773 N   0  0  0  0  0  0  0  0  0  0  0  0
   17.1777   -5.3834  -15.7805 C   0  0  0  0  0  0  0  0  0  0  0  0
   16.6091   -6.6210  -15.7976 N   0  0  0  0  0  0  0  0  0  0  0  0
   19.6433   -9.5341  -15.8420 C   0  0  0  0  0  0  0  0  0  0  0  0
   19.8443  -10.3843  -14.9337 O   0  0  0  0  0  0  0  0  0  0  0  0
   25.1432   -9.9677  -15.7855 C   0  0  0  0  0  0  0  0  0  0  0  0
   24.0077   -9.4541  -14.9186 C   0  0  2  0  0  0  0  0  0  0  0  0
   24.0704   -9.9522  -13.5204 C   0  0  0  0  0  0  0  0  0  0  0  0
   22.6986   -9.3682  -15.5837 C   0  0  0  0  0  0  0  0  0  0  0  0
   21.7132   -8.3957  -15.0588 C   0  0  2  0  0  0  0  0  0  0  0  0
   20.5183   -8.4191  -15.9113 N   0  0  0  0  0  0  0  0  0  0  0  0
   22.2023   -7.0248  -15.0548 C   0  0  0  0  0  0  0  0  0  0  0  0
   22.8133   -6.3917  -13.9814 O   0  0  0  0  0  0  0  0  0  0  0  0
   22.0714   -6.3105  -16.1092 O   0  0  0  0  0  0  0  0  0  0  0  0
  2  1  1  6
  2  3  1  0
  4  3  1  0
  5  4  2  0
  6  2  1  0
  7  6  2  0
  8  4  1  0
  9  6  1  0
 10  9  1  0
 11 12  1  0
 10 11  1  1
 12 13  2  0
 13 14  1  0
 15 14  1  0
 16 12  1  0
 16 15  2  0
 17 18  2  0
 17 10  1  0
 20 19  1  6
 21 20  1  0
 23 22  1  6
 22 20  1  0
 23 24  1  0
 24 17  1  0
 25 23  1  0
 26 25  1  0
 27 25  2  0
M  END
$$$$
