DHL.pdb
     RDKit          3D

 27 27  0  0  1  0  0  0  0  0999 V2000
   15.7286  -11.8137  -16.0478 N   0  0  0  0  0  0  0  0  0  0  0  0
   15.8916  -10.3894  -15.8687 C   0  0  1  0  0  0  0  0  0  0  0  0
   15.0381   -9.9553  -14.6714 C   0  0  0  0  0  0  0  0  0  0  0  0
   15.0530   -8.4567  -14.5663 C   0  0  0  0  0  0  0  0  0  0  0  0
   15.5619   -7.7299  -15.4682 O   0  0  0  0  0  0  0  0  0  0  0  0
   17.2976  -10.1220  -15.4945 C   0  0  0  0  0  0  0  0  0  0  0  0
   17.8410  -10.8349  -14.6243 O   0  0  0  0  0  0  0  0  0  0  0  0
   14.5078   -7.8076  -13.4728 O   0  0  0  0  0  0  0  0  0  0  0  0
   18.0719   -9.0806  -16.0831 N   0  0  0  0  0  0  0  0  0  0  0  0
   19.4362   -8.7957  -15.6907 C   0  0  1  0  0  0  0  0  0  0  0  0
   20.3625   -8.7860  -16.8818 C   0  0  0  0  0  0  0  0  0  0  0  0
   20.6285  -10.1489  -17.3943 C   0  0  0  0  0  0  0  0  0  0  0  0
   19.9986  -10.8337  -18.4292 C   0  0  0  0  0  0  0  0  0  0  0  0
   20.5509  -12.0496  -18.5652 N   0  0  0  0  0  0  0  0  0  0  0  0
   21.5119  -12.1665  -17.6536 C   0  0  0  0  0  0  0  0  0  0  0  0
   21.5588  -11.0073  -16.9398 N   0  0  0  0  0  0  0  0  0  0  0  0
   19.5387   -7.5614  -14.8875 C   0  0  0  0  0  0  0  0  0  0  0  0
   18.7748   -6.5896  -15.1330 O   0  0  0  0  0  0  0  0  0  0  0  0
   20.4774   -4.1296  -11.0832 C   0  0  0  0  0  0  0  0  0  0  0  0
   20.3055   -5.5446  -10.5610 C   0  0  2  0  0  0  0  0  0  0  0  0
   20.9322   -5.7553   -9.2307 C   0  0  0  0  0  0  0  0  0  0  0  0
   20.4150   -6.6059  -11.5735 C   0  0  0  0  0  0  0  0  0  0  0  0
   20.4331   -6.2086  -12.9998 C   0  0  2  0  0  0  0  0  0  0  0  0
   20.4759   -7.4173  -13.8318 N   0  0  0  0  0  0  0  0  0  0  0  0
   21.5932   -5.4067  -13.3600 C   0  0  0  0  0  0  0  0  0  0  0  0
   21.6267   -4.0203  -13.4171 O   0  0  0  0  0  0  0  0  0  0  0  0
   22.6908   -5.9933  -13.6604 O   0  0  0  0  0  0  0  0  0  0  0  0
  2  1  1  1
  2  3  1  0
  4  3  1  0
  5  4  2  0
  6  2  1  0
  7  6  2  0
  8  4  1  0
  9  6  1  0
 10  9  1  0
 11 12  1  0
 10 11  1  6
 12 13  2  0
 13 14  1  0
 15 14  1  0
 16 12  1  0
 16 15  2  0
 17 18  2  0
 17 10  1  0
 20 19  1  6
 21 20  1  0
 23 22  1  1
 22 20  1  0
 23 24  1  0
 24 17  1  0
 25 23  1  0
 26 25  1  0
 27 25  2  0
M  END
$$$$
