DHL.pdb
     RDKit          3D

 27 27  0  0  1  0  0  0  0  0999 V2000
   19.3086  -13.0341  -18.0397 N   0  0  0  0  0  0  0  0  0  0  0  0
   20.2004  -12.4998  -17.0364 C   0  0  1  0  0  0  0  0  0  0  0  0
   21.6334  -12.5806  -17.5757 C   0  0  0  0  0  0  0  0  0  0  0  0
   22.0991  -14.0084  -17.5404 C   0  0  0  0  0  0  0  0  0  0  0  0
   21.8412  -14.7701  -16.5637 O   0  0  0  0  0  0  0  0  0  0  0  0
   19.9029  -11.0612  -16.8631 C   0  0  0  0  0  0  0  0  0  0  0  0
   19.7160  -10.3530  -17.8752 O   0  0  0  0  0  0  0  0  0  0  0  0
   22.8330  -14.5508  -18.5804 O   0  0  0  0  0  0  0  0  0  0  0  0
   19.8179  -10.4355  -15.5856 N   0  0  0  0  0  0  0  0  0  0  0  0
   19.4363   -9.0496  -15.4115 C   0  0  1  0  0  0  0  0  0  0  0  0
   18.3265   -8.9058  -14.3994 C   0  0  0  0  0  0  0  0  0  0  0  0
   17.0081   -9.2807  -14.9584 C   0  0  0  0  0  0  0  0  0  0  0  0
   16.6935   -9.7186  -16.2412 C   0  0  0  0  0  0  0  0  0  0  0  0
   15.3738   -9.9496  -16.3263 N   0  0  0  0  0  0  0  0  0  0  0  0
   14.8335   -9.6747  -15.1428 C   0  0  0  0  0  0  0  0  0  0  0  0
   15.8304   -9.2669  -14.3090 N   0  0  0  0  0  0  0  0  0  0  0  0
   20.5944   -8.1875  -15.1036 C   0  0  0  0  0  0  0  0  0  0  0  0
   21.4142   -8.5352  -14.2118 O   0  0  0  0  0  0  0  0  0  0  0  0
   23.7089   -3.3691  -17.4405 C   0  0  0  0  0  0  0  0  0  0  0  0
   23.5625   -4.4259  -16.3605 C   0  0  2  0  0  0  0  0  0  0  0  0
   24.8661   -4.9387  -15.8660 C   0  0  0  0  0  0  0  0  0  0  0  0
   22.4543   -5.3734  -16.5545 C   0  0  0  0  0  0  0  0  0  0  0  0
   21.9758   -6.1358  -15.3788 C   0  0  2  0  0  0  0  0  0  0  0  0
   20.8304   -6.9621  -15.7792 N   0  0  0  0  0  0  0  0  0  0  0  0
   21.5228   -5.2867  -14.2868 C   0  0  0  0  0  0  0  0  0  0  0  0
   20.1976   -5.0265  -13.9664 O   0  0  0  0  0  0  0  0  0  0  0  0
   22.3894   -4.7106  -13.5410 O   0  0  0  0  0  0  0  0  0  0  0  0
  2  1  1  6
  2  3  1  0
  4  3  1  0
  5  4  2  0
  6  2  1  0
  7  6  2  0
  8  4  1  0
  9  6  1  0
 10  9  1  0
 11 12  1  0
 10 11  1  1
 12 13  2  0
 13 14  1  0
 15 14  1  0
 16 12  1  0
 16 15  2  0
 17 18  2  0
 17 10  1  0
 20 19  1  6
 21 20  1  0
 23 22  1  6
 22 20  1  0
 23 24  1  0
 24 17  1  0
 25 23  1  0
 26 25  1  0
 27 25  2  0
M  END
$$$$
