DHL.pdb
     RDKit          3D

 27 27  0  0  1  0  0  0  0  0999 V2000
   17.5880   -9.8072  -15.7926 N   0  0  0  0  0  0  0  0  0  0  0  0
   18.5941   -9.0362  -16.4857 C   0  0  1  0  0  0  0  0  0  0  0  0
   18.0248   -8.6164  -17.8460 C   0  0  0  0  0  0  0  0  0  0  0  0
   18.0214   -9.8000  -18.7713 C   0  0  0  0  0  0  0  0  0  0  0  0
   18.3565  -10.9549  -18.3781 O   0  0  0  0  0  0  0  0  0  0  0  0
   18.8293   -7.7860  -15.7308 C   0  0  0  0  0  0  0  0  0  0  0  0
   17.8568   -7.0537  -15.4497 O   0  0  0  0  0  0  0  0  0  0  0  0
   17.6497   -9.6737  -20.0980 O   0  0  0  0  0  0  0  0  0  0  0  0
   20.1234   -7.3702  -15.3033 N   0  0  0  0  0  0  0  0  0  0  0  0
   20.3412   -6.2060  -14.4703 C   0  0  1  0  0  0  0  0  0  0  0  0
   20.9543   -6.5832  -13.1441 C   0  0  0  0  0  0  0  0  0  0  0  0
   20.0122   -7.3377  -12.2872 C   0  0  0  0  0  0  0  0  0  0  0  0
   19.9991   -8.6960  -11.9849 C   0  0  0  0  0  0  0  0  0  0  0  0
   18.9685   -8.9647  -11.1678 N   0  0  0  0  0  0  0  0  0  0  0  0
   18.3220   -7.8259  -10.9370 C   0  0  0  0  0  0  0  0  0  0  0  0
   18.9587   -6.8341  -11.6198 N   0  0  0  0  0  0  0  0  0  0  0  0
   21.1109   -5.1575  -15.1686 C   0  0  0  0  0  0  0  0  0  0  0  0
   22.2479   -5.4257  -15.6415 O   0  0  0  0  0  0  0  0  0  0  0  0
   21.8489   -0.6996  -18.1696 C   0  0  0  0  0  0  0  0  0  0  0  0
   21.7295   -2.1691  -18.5313 C   0  0  2  0  0  0  0  0  0  0  0  0
   21.4791   -2.3950  -19.9781 C   0  0  0  0  0  0  0  0  0  0  0  0
   21.0191   -3.0023  -17.5492 C   0  0  0  0  0  0  0  0  0  0  0  0
   21.4012   -2.8780  -16.1241 C   0  0  2  0  0  0  0  0  0  0  0  0
   20.6189   -3.8369  -15.3344 N   0  0  0  0  0  0  0  0  0  0  0  0
   21.1364   -1.5587  -15.5694 C   0  0  0  0  0  0  0  0  0  0  0  0
   22.0911   -0.5800  -15.3301 O   0  0  0  0  0  0  0  0  0  0  0  0
   19.9360   -1.2394  -15.2593 O   0  0  0  0  0  0  0  0  0  0  0  0
  2  1  1  1
  2  3  1  0
  4  3  1  0
  5  4  2  0
  6  2  1  0
  7  6  2  0
  8  4  1  0
  9  6  1  0
 10  9  1  0
 11 12  1  0
 10 11  1  1
 12 13  2  0
 13 14  1  0
 15 14  1  0
 16 12  1  0
 16 15  2  0
 17 18  2  0
 17 10  1  0
 20 19  1  1
 21 20  1  0
 23 22  1  6
 22 20  1  0
 23 24  1  0
 24 17  1  0
 25 23  1  0
 26 25  1  0
 27 25  2  0
M  END
$$$$
