DHL.pdb
     RDKit          3D

 27 27  0  0  1  0  0  0  0  0999 V2000
   28.4318  -23.0112  -18.6196 N   0  0  0  0  0  0  0  0  0  0  0  0
   29.1510  -23.0299  -17.3667 C   0  0  1  0  0  0  0  0  0  0  0  0
   30.6412  -22.8279  -17.6655 C   0  0  0  0  0  0  0  0  0  0  0  0
   31.0916  -23.8522  -18.6679 C   0  0  0  0  0  0  0  0  0  0  0  0
   30.2815  -24.6648  -19.2010 O   0  0  0  0  0  0  0  0  0  0  0  0
   28.7266  -21.8613  -16.5652 C   0  0  0  0  0  0  0  0  0  0  0  0
   29.3484  -21.5848  -15.5174 O   0  0  0  0  0  0  0  0  0  0  0  0
   32.4177  -23.9485  -19.0506 O   0  0  0  0  0  0  0  0  0  0  0  0
   27.6321  -21.0258  -16.9319 N   0  0  0  0  0  0  0  0  0  0  0  0
   27.1204  -19.9768  -16.0749 C   0  0  1  0  0  0  0  0  0  0  0  0
   26.4984  -18.8617  -16.8788 C   0  0  0  0  0  0  0  0  0  0  0  0
   25.9434  -17.7937  -16.0171 C   0  0  0  0  0  0  0  0  0  0  0  0
   26.5960  -16.7125  -15.4327 C   0  0  0  0  0  0  0  0  0  0  0  0
   25.7165  -15.9848  -14.7264 N   0  0  0  0  0  0  0  0  0  0  0  0
   24.5242  -16.5628  -14.8386 C   0  0  0  0  0  0  0  0  0  0  0  0
   24.6631  -17.6657  -15.6257 N   0  0  0  0  0  0  0  0  0  0  0  0
   26.2089  -20.4997  -15.0380 C   0  0  0  0  0  0  0  0  0  0  0  0
   25.4630  -21.4817  -15.2976 O   0  0  0  0  0  0  0  0  0  0  0  0
   23.8388  -21.3688  -10.4006 C   0  0  0  0  0  0  0  0  0  0  0  0
   25.2949  -20.9833  -10.2112 C   0  0  2  0  0  0  0  0  0  0  0  0
   25.5771  -20.4123   -8.8691 C   0  0  0  0  0  0  0  0  0  0  0  0
   25.9452  -20.3864  -11.3877 C   0  0  0  0  0  0  0  0  0  0  0  0
   25.3256  -20.6092  -12.7139 C   0  0  2  0  0  0  0  0  0  0  0  0
   26.1338  -19.9359  -13.7380 N   0  0  0  0  0  0  0  0  0  0  0  0
   23.9775  -20.0702  -12.8181 C   0  0  0  0  0  0  0  0  0  0  0  0
   22.8058  -20.8029  -12.6885 O   0  0  0  0  0  0  0  0  0  0  0  0
   23.8190  -18.8217  -13.0532 O   0  0  0  0  0  0  0  0  0  0  0  0
  2  1  1  6
  2  3  1  0
  4  3  1  0
  5  4  2  0
  6  2  1  0
  7  6  2  0
  8  4  1  0
  9  6  1  0
 10  9  1  0
 11 12  1  0
 10 11  1  6
 12 13  2  0
 13 14  1  0
 15 14  1  0
 16 12  1  0
 16 15  2  0
 17 18  2  0
 17 10  1  0
 20 19  1  6
 21 20  1  0
 23 22  1  1
 22 20  1  0
 23 24  1  0
 24 17  1  0
 25 23  1  0
 26 25  1  0
 27 25  2  0
M  END
$$$$
