DHL.pdb
     RDKit          3D

 27 27  0  0  1  0  0  0  0  0999 V2000
   16.2134  -14.1220  -18.0956 N   0  0  0  0  0  0  0  0  0  0  0  0
   16.1765  -13.4307  -16.8275 C   0  0  1  0  0  0  0  0  0  0  0  0
   16.9584  -14.2627  -15.8042 C   0  0  0  0  0  0  0  0  0  0  0  0
   16.1475  -15.4668  -15.4174 C   0  0  0  0  0  0  0  0  0  0  0  0
   14.8829  -15.4589  -15.4534 O   0  0  0  0  0  0  0  0  0  0  0  0
   16.9079  -12.1528  -16.9688 C   0  0  0  0  0  0  0  0  0  0  0  0
   17.8141  -12.0625  -17.8242 O   0  0  0  0  0  0  0  0  0  0  0  0
   16.7547  -16.6393  -15.0038 O   0  0  0  0  0  0  0  0  0  0  0  0
   16.6280  -11.0067  -16.1696 N   0  0  0  0  0  0  0  0  0  0  0  0
   17.2706   -9.7258  -16.3772 C   0  0  1  0  0  0  0  0  0  0  0  0
   16.2609   -8.6066  -16.4455 C   0  0  0  0  0  0  0  0  0  0  0  0
   15.4199   -8.6858  -17.6610 C   0  0  0  0  0  0  0  0  0  0  0  0
   15.5656   -8.0155  -18.8718 C   0  0  0  0  0  0  0  0  0  0  0  0
   14.5806   -8.3790  -19.7082 N   0  0  0  0  0  0  0  0  0  0  0  0
   13.8100   -9.2583  -19.0747 C   0  0  0  0  0  0  0  0  0  0  0  0
   14.3222   -9.4450  -17.8264 N   0  0  0  0  0  0  0  0  0  0  0  0
   18.3315   -9.4674  -15.3837 C   0  0  0  0  0  0  0  0  0  0  0  0
   18.2933  -10.0425  -14.2631 O   0  0  0  0  0  0  0  0  0  0  0  0
   22.6971  -10.1664  -13.0798 C   0  0  0  0  0  0  0  0  0  0  0  0
   22.7333  -10.0344  -14.5917 C   0  0  2  0  0  0  0  0  0  0  0  0
   23.9066   -9.2662  -15.0819 C   0  0  0  0  0  0  0  0  0  0  0  0
   21.4277   -9.8244  -15.2357 C   0  0  0  0  0  0  0  0  0  0  0  0
   20.6143   -8.6665  -14.7998 C   0  0  2  0  0  0  0  0  0  0  0  0
   19.4124   -8.5841  -15.6388 N   0  0  0  0  0  0  0  0  0  0  0  0
   21.3079   -7.3935  -14.9296 C   0  0  0  0  0  0  0  0  0  0  0  0
   22.0651   -6.7850  -13.9381 O   0  0  0  0  0  0  0  0  0  0  0  0
   21.2326   -6.7492  -16.0334 O   0  0  0  0  0  0  0  0  0  0  0  0
  2  1  1  6
  2  3  1  0
  4  3  1  0
  5  4  2  0
  6  2  1  0
  7  6  2  0
  8  4  1  0
  9  6  1  0
 10  9  1  0
 11 12  1  0
 10 11  1  1
 12 13  2  0
 13 14  1  0
 15 14  1  0
 16 12  1  0
 16 15  2  0
 17 18  2  0
 17 10  1  0
 20 19  1  1
 21 20  1  0
 23 22  1  6
 22 20  1  0
 23 24  1  0
 24 17  1  0
 25 23  1  0
 26 25  1  0
 27 25  2  0
M  END
$$$$
