YGI.pdb
     RDKit          3D

 25 25  0  0  1  0  0  0  0  0999 V2000
    9.9490  -18.4374   28.0585 O   0  0  0  0  0  0  0  0  0  0  0  0
    8.8743  -18.8575   27.2797 C   0  0  0  0  0  0  0  0  0  0  0  0
    8.9441  -20.0580   26.6059 C   0  0  0  0  0  0  0  0  0  0  0  0
    7.8781  -20.4914   25.8236 C   0  0  0  0  0  0  0  0  0  0  0  0
    6.7323  -19.7436   25.6989 C   0  0  0  0  0  0  0  0  0  0  0  0
    5.5828  -20.1838   24.8714 C   0  0  0  0  0  0  0  0  0  0  0  0
    5.9098  -19.8625   23.4303 C   0  0  2  0  0  0  0  0  0  0  0  0
    7.1976  -20.4589   23.1435 N   0  0  0  0  0  0  0  0  0  0  0  0
    5.9873  -18.4192   23.1737 C   0  0  0  0  0  0  0  0  0  0  0  0
    5.0059  -17.6878   23.4385 O   0  0  0  0  0  0  0  0  0  0  0  0
    6.6613  -18.5495   26.3685 C   0  0  0  0  0  0  0  0  0  0  0  0
    7.7279  -18.1058   27.1570 C   0  0  0  0  0  0  0  0  0  0  0  0
    7.1454  -17.7837   22.6260 N   0  0  0  0  0  0  0  0  0  0  0  0
    7.2184  -16.3903   22.3532 C   0  0  0  0  0  0  0  0  0  0  0  0
    7.9386  -15.5707   23.3260 C   0  0  0  0  0  0  0  0  0  0  0  0
    9.1267  -15.1510   23.0708 O   0  0  0  0  0  0  0  0  0  0  0  0
    5.4349  -11.8818   26.5069 C   0  0  0  0  0  0  0  0  0  0  0  0
    6.3817  -12.5583   25.5250 C   0  0  0  0  0  0  0  0  0  0  0  0
    7.3239  -13.4026   26.3180 C   0  0  2  0  0  0  0  0  0  0  0  0
    8.1519  -12.4897   27.1982 C   0  0  0  0  0  0  0  0  0  0  0  0
    8.2071  -14.2791   25.4776 C   0  0  2  0  0  0  0  0  0  0  0  0
    7.4693  -15.1495   24.5978 N   0  0  0  0  0  0  0  0  0  0  0  0
    9.0401  -15.1308   26.3603 C   0  0  0  0  0  0  0  0  0  0  0  0
   10.3260  -14.8140   26.7629 O   0  0  0  0  0  0  0  0  0  0  0  0
    8.5477  -16.2096   26.7696 O   0  0  0  0  0  0  0  0  0  0  0  0
  2 12  2  0
  2  1  1  0
  3  2  1  0
  4  5  1  0
  4  3  2  0
  5 11  2  0
  6  5  1  0
  7  9  1  0
  7  6  1  0
  7  8  1  1
  9 10  2  0
 11 12  1  0
 13 14  1  0
 13  9  1  0
 15 22  1  0
 15 14  1  0
 16 15  2  0
 18 17  1  0
 19 20  1  6
 19 18  1  0
 21 22  1  6
 21 19  1  0
 23 21  1  0
 24 23  1  0
 25 23  2  0
M  END
$$$$
