YGI.pdb
     RDKit          3D

 25 25  0  0  1  0  0  0  0  0999 V2000
    7.4323  -18.6320   13.8666 O   0  0  0  0  0  0  0  0  0  0  0  0
    7.0958  -18.3104   15.1786 C   0  0  0  0  0  0  0  0  0  0  0  0
    6.4307  -19.2302   15.9607 C   0  0  0  0  0  0  0  0  0  0  0  0
    6.0877  -18.9234   17.2738 C   0  0  0  0  0  0  0  0  0  0  0  0
    6.3980  -17.7050   17.8279 C   0  0  0  0  0  0  0  0  0  0  0  0
    6.0433  -17.3542   19.2247 C   0  0  0  0  0  0  0  0  0  0  0  0
    7.3344  -17.1889   19.9945 C   0  0  2  0  0  0  0  0  0  0  0  0
    8.0119  -18.4683   19.9679 N   0  0  0  0  0  0  0  0  0  0  0  0
    7.1162  -16.7962   21.3920 C   0  0  0  0  0  0  0  0  0  0  0  0
    6.6388  -15.6683   21.6528 O   0  0  0  0  0  0  0  0  0  0  0  0
    7.0595  -16.7892   17.0513 C   0  0  0  0  0  0  0  0  0  0  0  0
    7.4083  -17.0888   15.7305 C   0  0  0  0  0  0  0  0  0  0  0  0
    7.4241  -17.6462   22.5001 N   0  0  0  0  0  0  0  0  0  0  0  0
    7.2124  -17.2729   23.8555 C   0  0  0  0  0  0  0  0  0  0  0  0
    7.9867  -16.1354   24.3486 C   0  0  0  0  0  0  0  0  0  0  0  0
    9.2384  -16.0320   24.0738 O   0  0  0  0  0  0  0  0  0  0  0  0
    6.0252  -11.4393   27.2309 C   0  0  0  0  0  0  0  0  0  0  0  0
    6.5013  -12.8465   26.8973 C   0  0  0  0  0  0  0  0  0  0  0  0
    7.5993  -12.7233   25.8931 C   0  0  2  0  0  0  0  0  0  0  0  0
    7.0057  -12.1937   24.6044 C   0  0  0  0  0  0  0  0  0  0  0  0
    8.3459  -14.0033   25.6505 C   0  0  2  0  0  0  0  0  0  0  0  0
    7.5085  -15.0600   25.1423 N   0  0  0  0  0  0  0  0  0  0  0  0
    8.9438  -14.4742   26.9230 C   0  0  0  0  0  0  0  0  0  0  0  0
   10.0415  -13.8909   27.5321 O   0  0  0  0  0  0  0  0  0  0  0  0
    8.4210  -15.4663   27.4853 O   0  0  0  0  0  0  0  0  0  0  0  0
  2 12  2  0
  2  1  1  0
  3  2  1  0
  4  5  1  0
  4  3  2  0
  5 11  2  0
  6  5  1  0
  7  9  1  0
  7  6  1  0
  7  8  1  1
  9 10  2  0
 11 12  1  0
 13 14  1  0
 13  9  1  0
 15 22  1  0
 15 14  1  0
 16 15  2  0
 18 17  1  0
 19 20  1  6
 19 18  1  0
 21 22  1  1
 21 19  1  0
 23 21  1  0
 24 23  1  0
 25 23  2  0
M  END
$$$$
