YGI.pdb
     RDKit          3D

 25 25  0  0  1  0  0  0  0  0999 V2000
   14.2531  -21.6809   16.8826 O   0  0  0  0  0  0  0  0  0  0  0  0
   13.5428  -21.0296   17.8872 C   0  0  0  0  0  0  0  0  0  0  0  0
   12.4821  -21.6637   18.4981 C   0  0  0  0  0  0  0  0  0  0  0  0
   11.7626  -21.0257   19.5037 C   0  0  0  0  0  0  0  0  0  0  0  0
   12.0832  -19.7550   19.9164 C   0  0  0  0  0  0  0  0  0  0  0  0
   11.3317  -19.0540   20.9858 C   0  0  0  0  0  0  0  0  0  0  0  0
    9.9869  -18.6625   20.4156 C   0  0  2  0  0  0  0  0  0  0  0  0
   10.2322  -17.6663   19.3938 N   0  0  0  0  0  0  0  0  0  0  0  0
    9.0853  -18.0947   21.4254 C   0  0  0  0  0  0  0  0  0  0  0  0
    8.7478  -18.7844   22.4146 O   0  0  0  0  0  0  0  0  0  0  0  0
   13.1377  -19.1231   19.3098 C   0  0  0  0  0  0  0  0  0  0  0  0
   13.8667  -19.7566   18.2981 C   0  0  0  0  0  0  0  0  0  0  0  0
    8.5567  -16.7684   21.3441 N   0  0  0  0  0  0  0  0  0  0  0  0
    7.6605  -16.2228   22.3035 C   0  0  0  0  0  0  0  0  0  0  0  0
    8.2634  -15.5789   23.4691 C   0  0  0  0  0  0  0  0  0  0  0  0
    9.5414  -15.5431   23.6044 O   0  0  0  0  0  0  0  0  0  0  0  0
    5.5996  -11.5285   25.9697 C   0  0  0  0  0  0  0  0  0  0  0  0
    6.7244  -12.2563   25.2464 C   0  0  0  0  0  0  0  0  0  0  0  0
    7.3702  -13.1759   26.2295 C   0  0  2  0  0  0  0  0  0  0  0  0
    8.1624  -12.3387   27.2120 C   0  0  0  0  0  0  0  0  0  0  0  0
    8.2402  -14.2244   25.5985 C   0  0  2  0  0  0  0  0  0  0  0  0
    7.5802  -14.9468   24.5409 N   0  0  0  0  0  0  0  0  0  0  0  0
    8.6520  -15.2086   26.6282 C   0  0  0  0  0  0  0  0  0  0  0  0
    9.8423  -15.1492   27.3323 O   0  0  0  0  0  0  0  0  0  0  0  0
    7.8708  -16.1578   26.8783 O   0  0  0  0  0  0  0  0  0  0  0  0
  2 12  2  0
  2  1  1  0
  3  2  1  0
  4  5  1  0
  4  3  2  0
  5 11  2  0
  6  5  1  0
  7  9  1  0
  7  6  1  0
  7  8  1  6
  9 10  2  0
 11 12  1  0
 13 14  1  0
 13  9  1  0
 15 22  1  0
 15 14  1  0
 16 15  2  0
 18 17  1  0
 19 20  1  1
 19 18  1  0
 21 22  1  6
 21 19  1  0
 23 21  1  0
 24 23  1  0
 25 23  2  0
M  END
$$$$
