YGI.pdb
     RDKit          3D

 25 25  0  0  1  0  0  0  0  0999 V2000
    5.0119  -25.3433   20.2782 O   0  0  0  0  0  0  0  0  0  0  0  0
    5.0828  -24.1961   21.0635 C   0  0  0  0  0  0  0  0  0  0  0  0
    4.7103  -24.2491   22.3896 C   0  0  0  0  0  0  0  0  0  0  0  0
    4.7757  -23.1109   23.1873 C   0  0  0  0  0  0  0  0  0  0  0  0
    5.2096  -21.9086   22.6834 C   0  0  0  0  0  0  0  0  0  0  0  0
    5.2882  -20.6817   23.5131 C   0  0  0  0  0  0  0  0  0  0  0  0
    6.6188  -20.7024   24.2314 C   0  0  2  0  0  0  0  0  0  0  0  0
    6.4882  -21.6225   25.3417 N   0  0  0  0  0  0  0  0  0  0  0  0
    7.0050  -19.3844   24.7498 C   0  0  0  0  0  0  0  0  0  0  0  0
    7.3716  -18.4880   23.9560 O   0  0  0  0  0  0  0  0  0  0  0  0
    5.5804  -21.8542   21.3647 C   0  0  0  0  0  0  0  0  0  0  0  0
    5.5180  -22.9932   20.5554 C   0  0  0  0  0  0  0  0  0  0  0  0
    6.9869  -19.0558   26.1415 N   0  0  0  0  0  0  0  0  0  0  0  0
    7.3871  -17.7909   26.6524 C   0  0  0  0  0  0  0  0  0  0  0  0
    7.0279  -16.6202   25.8541 C   0  0  0  0  0  0  0  0  0  0  0  0
    6.2948  -16.7476   24.8056 O   0  0  0  0  0  0  0  0  0  0  0  0
    7.0243  -11.5376   27.8332 C   0  0  0  0  0  0  0  0  0  0  0  0
    6.3957  -12.6055   26.9485 C   0  0  0  0  0  0  0  0  0  0  0  0
    7.3197  -12.8381   25.7990 C   0  0  2  0  0  0  0  0  0  0  0  0
    7.0880  -11.7454   24.7762 C   0  0  0  0  0  0  0  0  0  0  0  0
    7.1783  -14.1950   25.1719 C   0  0  2  0  0  0  0  0  0  0  0  0
    7.4059  -15.2741   26.0992 N   0  0  0  0  0  0  0  0  0  0  0  0
    8.1597  -14.3334   24.0692 C   0  0  0  0  0  0  0  0  0  0  0  0
    7.9037  -13.9994   22.7505 O   0  0  0  0  0  0  0  0  0  0  0  0
    9.2972  -14.7826   24.3489 O   0  0  0  0  0  0  0  0  0  0  0  0
  2 12  2  0
  2  1  1  0
  3  2  1  0
  4  5  1  0
  4  3  2  0
  5 11  2  0
  6  5  1  0
  7  9  1  0
  7  6  1  0
  7  8  1  1
  9 10  2  0
 11 12  1  0
 13 14  1  0
 13  9  1  0
 15 22  1  0
 15 14  1  0
 16 15  2  0
 18 17  1  0
 19 20  1  6
 19 18  1  0
 21 22  1  1
 21 19  1  0
 23 21  1  0
 24 23  1  0
 25 23  2  0
M  END
$$$$
