YGI.pdb
     RDKit          3D

 25 25  0  0  1  0  0  0  0  0999 V2000
   11.7306  -15.4775   32.2770 O   0  0  0  0  0  0  0  0  0  0  0  0
   11.4259  -15.9176   30.9919 C   0  0  0  0  0  0  0  0  0  0  0  0
   10.6074  -15.1582   30.1835 C   0  0  0  0  0  0  0  0  0  0  0  0
   10.2937  -15.5848   28.8968 C   0  0  0  0  0  0  0  0  0  0  0  0
   10.7853  -16.7658   28.3953 C   0  0  0  0  0  0  0  0  0  0  0  0
   10.4656  -17.2420   27.0274 C   0  0  0  0  0  0  0  0  0  0  0  0
    9.0230  -17.6958   27.0290 C   0  0  2  0  0  0  0  0  0  0  0  0
    8.9444  -18.8594   27.8870 N   0  0  0  0  0  0  0  0  0  0  0  0
    8.5404  -18.0590   25.6910 C   0  0  0  0  0  0  0  0  0  0  0  0
    9.2641  -17.8474   24.6912 O   0  0  0  0  0  0  0  0  0  0  0  0
   11.5994  -17.5221   29.1981 C   0  0  0  0  0  0  0  0  0  0  0  0
   11.9200  -17.1012   30.4927 C   0  0  0  0  0  0  0  0  0  0  0  0
    7.2616  -18.6547   25.4563 N   0  0  0  0  0  0  0  0  0  0  0  0
    6.5253  -18.4789   24.2529 C   0  0  0  0  0  0  0  0  0  0  0  0
    6.6945  -17.2008   23.5639 C   0  0  0  0  0  0  0  0  0  0  0  0
    6.2473  -17.0414   22.3691 O   0  0  0  0  0  0  0  0  0  0  0  0
    7.2768  -12.4947   26.4366 C   0  0  0  0  0  0  0  0  0  0  0  0
    6.6827  -13.4917   25.4511 C   0  0  0  0  0  0  0  0  0  0  0  0
    7.6319  -13.6109   24.3048 C   0  0  2  0  0  0  0  0  0  0  0  0
    7.6176  -12.3038   23.5398 C   0  0  0  0  0  0  0  0  0  0  0  0
    7.3390  -14.7668   23.3923 C   0  0  2  0  0  0  0  0  0  0  0  0
    7.3284  -16.0369   24.0724 N   0  0  0  0  0  0  0  0  0  0  0  0
    8.3728  -14.8318   22.3314 C   0  0  0  0  0  0  0  0  0  0  0  0
    8.2816  -14.1825   21.1124 O   0  0  0  0  0  0  0  0  0  0  0  0
    9.3979  -15.5205   22.5525 O   0  0  0  0  0  0  0  0  0  0  0  0
  2 12  2  0
  2  1  1  0
  3  2  1  0
  4  5  1  0
  4  3  2  0
  5 11  2  0
  6  5  1  0
  7  9  1  0
  7  6  1  0
  7  8  1  1
  9 10  2  0
 11 12  1  0
 13 14  1  0
 13  9  1  0
 15 22  1  0
 15 14  1  0
 16 15  2  0
 18 17  1  0
 19 20  1  6
 19 18  1  0
 21 22  1  1
 21 19  1  0
 23 21  1  0
 24 23  1  0
 25 23  2  0
M  END
$$$$
