YGI.pdb
     RDKit          3D

 25 25  0  0  1  0  0  0  0  0999 V2000
    8.7188  -13.7029   14.5800 O   0  0  0  0  0  0  0  0  0  0  0  0
    8.2480  -13.9767   15.8611 C   0  0  0  0  0  0  0  0  0  0  0  0
    8.6028  -13.1576   16.9115 C   0  0  0  0  0  0  0  0  0  0  0  0
    8.1403  -13.4184   18.1975 C   0  0  0  0  0  0  0  0  0  0  0  0
    7.3225  -14.4909   18.4595 C   0  0  0  0  0  0  0  0  0  0  0  0
    6.8165  -14.7899   19.8213 C   0  0  0  0  0  0  0  0  0  0  0  0
    8.0070  -15.1558   20.6791 C   0  0  2  0  0  0  0  0  0  0  0  0
    8.6040  -16.3388   20.0953 N   0  0  0  0  0  0  0  0  0  0  0  0
    7.6371  -15.4476   22.0694 C   0  0  0  0  0  0  0  0  0  0  0  0
    7.1664  -14.5385   22.7906 O   0  0  0  0  0  0  0  0  0  0  0  0
    6.9688  -15.3066   17.4160 C   0  0  0  0  0  0  0  0  0  0  0  0
    7.4289  -15.0522   16.1200 C   0  0  0  0  0  0  0  0  0  0  0  0
    7.7862  -16.7400   22.6633 N   0  0  0  0  0  0  0  0  0  0  0  0
    7.4634  -17.0203   24.0192 C   0  0  0  0  0  0  0  0  0  0  0  0
    8.3038  -16.3890   25.0350 C   0  0  0  0  0  0  0  0  0  0  0  0
    9.5716  -16.2769   24.8530 O   0  0  0  0  0  0  0  0  0  0  0  0
    6.4429  -11.8562   27.0430 C   0  0  0  0  0  0  0  0  0  0  0  0
    7.2720  -12.9693   26.4171 C   0  0  0  0  0  0  0  0  0  0  0  0
    7.9078  -13.7361   27.5294 C   0  0  2  0  0  0  0  0  0  0  0  0
    8.8064  -12.7932   28.3020 C   0  0  0  0  0  0  0  0  0  0  0  0
    8.6702  -14.9466   27.0734 C   0  0  2  0  0  0  0  0  0  0  0  0
    7.8778  -15.8483   26.2765 N   0  0  0  0  0  0  0  0  0  0  0  0
    9.1559  -15.6978   28.2558 C   0  0  0  0  0  0  0  0  0  0  0  0
   10.3546  -15.4470   28.9010 O   0  0  0  0  0  0  0  0  0  0  0  0
    8.4335  -16.6215   28.7015 O   0  0  0  0  0  0  0  0  0  0  0  0
  2 12  2  0
  2  1  1  0
  3  2  1  0
  4  5  1  0
  4  3  2  0
  5 11  2  0
  6  5  1  0
  7  9  1  0
  7  6  1  0
  7  8  1  6
  9 10  2  0
 11 12  1  0
 13 14  1  0
 13  9  1  0
 15 22  1  0
 15 14  1  0
 16 15  2  0
 18 17  1  0
 19 20  1  6
 19 18  1  0
 21 22  1  1
 21 19  1  0
 23 21  1  0
 24 23  1  0
 25 23  2  0
M  END
$$$$
