YGI.pdb
     RDKit          3D

 25 25  0  0  1  0  0  0  0  0999 V2000
    8.9803  -11.6083   19.3748 O   0  0  0  0  0  0  0  0  0  0  0  0
    8.6305  -12.9289   19.1074 C   0  0  0  0  0  0  0  0  0  0  0  0
    9.5918  -13.8194   18.6795 C   0  0  0  0  0  0  0  0  0  0  0  0
    9.2576  -15.1425   18.4082 C   0  0  0  0  0  0  0  0  0  0  0  0
    7.9705  -15.5998   18.5568 C   0  0  0  0  0  0  0  0  0  0  0  0
    7.5893  -17.0051   18.2741 C   0  0  0  0  0  0  0  0  0  0  0  0
    7.9105  -17.8205   19.5065 C   0  0  2  0  0  0  0  0  0  0  0  0
    7.5377  -19.1898   19.2193 N   0  0  0  0  0  0  0  0  0  0  0  0
    7.1764  -17.3678   20.6944 C   0  0  0  0  0  0  0  0  0  0  0  0
    5.9515  -17.6074   20.7961 O   0  0  0  0  0  0  0  0  0  0  0  0
    7.0133  -14.7154   18.9823 C   0  0  0  0  0  0  0  0  0  0  0  0
    7.3401  -13.3837   19.2573 C   0  0  0  0  0  0  0  0  0  0  0  0
    7.7924  -16.6519   21.7683 N   0  0  0  0  0  0  0  0  0  0  0  0
    7.0803  -16.1810   22.9051 C   0  0  0  0  0  0  0  0  0  0  0  0
    7.8439  -15.4018   23.8780 C   0  0  0  0  0  0  0  0  0  0  0  0
    9.1229  -15.3138   23.7814 O   0  0  0  0  0  0  0  0  0  0  0  0
    5.8312  -11.4600   27.6599 C   0  0  0  0  0  0  0  0  0  0  0  0
    6.1838  -12.7877   27.0034 C   0  0  0  0  0  0  0  0  0  0  0  0
    7.4808  -12.6045   26.2868 C   0  0  2  0  0  0  0  0  0  0  0  0
    7.2358  -11.7205   25.0817 C   0  0  0  0  0  0  0  0  0  0  0  0
    8.1362  -13.8926   25.8797 C   0  0  2  0  0  0  0  0  0  0  0  0
    7.3266  -14.6828   24.9873 N   0  0  0  0  0  0  0  0  0  0  0  0
    8.4074  -14.7107   27.0861 C   0  0  0  0  0  0  0  0  0  0  0  0
    9.4261  -14.4565   27.9882 O   0  0  0  0  0  0  0  0  0  0  0  0
    7.6653  -15.6984   27.3044 O   0  0  0  0  0  0  0  0  0  0  0  0
  2 12  2  0
  2  1  1  0
  3  2  1  0
  4  5  1  0
  4  3  2  0
  5 11  2  0
  6  5  1  0
  7  9  1  0
  7  6  1  0
  7  8  1  6
  9 10  2  0
 11 12  1  0
 13 14  1  0
 13  9  1  0
 15 22  1  0
 15 14  1  0
 16 15  2  0
 18 17  1  0
 19 20  1  6
 19 18  1  0
 21 22  1  6
 21 19  1  0
 23 21  1  0
 24 23  1  0
 25 23  2  0
M  END
$$$$
