YGI.pdb
     RDKit          3D

 25 25  0  0  1  0  0  0  0  0999 V2000
   11.5989  -14.7553   30.5611 O   0  0  0  0  0  0  0  0  0  0  0  0
   10.6406  -15.4637   29.8416 C   0  0  0  0  0  0  0  0  0  0  0  0
   10.5832  -16.8372   29.9441 C   0  0  0  0  0  0  0  0  0  0  0  0
    9.6310  -17.5591   29.2311 C   0  0  0  0  0  0  0  0  0  0  0  0
    8.7257  -16.9319   28.4096 C   0  0  0  0  0  0  0  0  0  0  0  0
    7.7016  -17.6790   27.6396 C   0  0  0  0  0  0  0  0  0  0  0  0
    8.3901  -18.2898   26.4397 C   0  0  2  0  0  0  0  0  0  0  0  0
    8.8962  -17.1959   25.6374 N   0  0  0  0  0  0  0  0  0  0  0  0
    7.4848  -19.1021   25.6179 C   0  0  0  0  0  0  0  0  0  0  0  0
    7.8318  -20.2517   25.2625 O   0  0  0  0  0  0  0  0  0  0  0  0
    8.7815  -15.5660   28.3066 C   0  0  0  0  0  0  0  0  0  0  0  0
    9.7351  -14.8322   29.0195 C   0  0  0  0  0  0  0  0  0  0  0  0
    6.1987  -18.6472   25.1887 N   0  0  0  0  0  0  0  0  0  0  0  0
    5.9196  -18.2308   23.8583 C   0  0  0  0  0  0  0  0  0  0  0  0
    6.6553  -17.0659   23.3701 C   0  0  0  0  0  0  0  0  0  0  0  0
    6.7132  -16.8137   22.1107 O   0  0  0  0  0  0  0  0  0  0  0  0
    6.4765  -12.8020   26.5457 C   0  0  0  0  0  0  0  0  0  0  0  0
    6.3430  -13.5171   25.2082 C   0  0  0  0  0  0  0  0  0  0  0  0
    7.7211  -13.7430   24.6797 C   0  0  2  0  0  0  0  0  0  0  0  0
    8.2316  -12.4348   24.1127 C   0  0  0  0  0  0  0  0  0  0  0  0
    7.8061  -14.8380   23.6558 C   0  0  2  0  0  0  0  0  0  0  0  0
    7.3602  -16.1146   24.1532 N   0  0  0  0  0  0  0  0  0  0  0  0
    9.2132  -14.9924   23.2147 C   0  0  0  0  0  0  0  0  0  0  0  0
   10.0868  -15.9439   23.7121 O   0  0  0  0  0  0  0  0  0  0  0  0
    9.6409  -14.2095   22.3326 O   0  0  0  0  0  0  0  0  0  0  0  0
  2 12  2  0
  2  1  1  0
  3  2  1  0
  4  5  1  0
  4  3  2  0
  5 11  2  0
  6  5  1  0
  7  9  1  0
  7  6  1  0
  7  8  1  6
  9 10  2  0
 11 12  1  0
 13 14  1  0
 13  9  1  0
 15 22  1  0
 15 14  1  0
 16 15  2  0
 18 17  1  0
 19 20  1  6
 19 18  1  0
 21 22  1  1
 21 19  1  0
 23 21  1  0
 24 23  1  0
 25 23  2  0
M  END
$$$$
