YGI.pdb
     RDKit          3D

 25 25  0  0  1  0  0  0  0  0999 V2000
    7.9076  -13.3827   15.5567 O   0  0  0  0  0  0  0  0  0  0  0  0
    7.5959  -13.7141   16.8723 C   0  0  0  0  0  0  0  0  0  0  0  0
    6.8295  -14.8293   17.1351 C   0  0  0  0  0  0  0  0  0  0  0  0
    6.5097  -15.1734   18.4448 C   0  0  0  0  0  0  0  0  0  0  0  0
    6.9435  -14.4196   19.5084 C   0  0  0  0  0  0  0  0  0  0  0  0
    6.6160  -14.7655   20.9131 C   0  0  0  0  0  0  0  0  0  0  0  0
    7.8534  -15.3763   21.5318 C   0  0  2  0  0  0  0  0  0  0  0  0
    8.2180  -16.5161   20.7165 N   0  0  0  0  0  0  0  0  0  0  0  0
    7.6343  -15.8296   22.9107 C   0  0  0  0  0  0  0  0  0  0  0  0
    7.2654  -15.0100   23.7826 O   0  0  0  0  0  0  0  0  0  0  0  0
    7.7058  -13.3102   19.2487 C   0  0  0  0  0  0  0  0  0  0  0  0
    8.0322  -12.9567   17.9355 C   0  0  0  0  0  0  0  0  0  0  0  0
    7.8219  -17.1848   23.3273 N   0  0  0  0  0  0  0  0  0  0  0  0
    7.8040  -17.5949   24.6884 C   0  0  0  0  0  0  0  0  0  0  0  0
    8.8792  -17.0866   25.5384 C   0  0  0  0  0  0  0  0  0  0  0  0
   10.0699  -16.9539   25.0720 O   0  0  0  0  0  0  0  0  0  0  0  0
    8.0650  -12.6303   28.1133 C   0  0  0  0  0  0  0  0  0  0  0  0
    8.6566  -13.7706   27.2961 C   0  0  0  0  0  0  0  0  0  0  0  0
    9.3112  -14.7148   28.2497 C   0  0  2  0  0  0  0  0  0  0  0  0
   10.4432  -13.9825   28.9396 C   0  0  0  0  0  0  0  0  0  0  0  0
    9.8057  -15.9791   27.6083 C   0  0  2  0  0  0  0  0  0  0  0  0
    8.7759  -16.6947   26.8988 N   0  0  0  0  0  0  0  0  0  0  0  0
   10.3458  -16.8831   28.6521 C   0  0  0  0  0  0  0  0  0  0  0  0
    9.7062  -18.0253   29.1020 O   0  0  0  0  0  0  0  0  0  0  0  0
   11.4552  -16.5944   29.1616 O   0  0  0  0  0  0  0  0  0  0  0  0
  2 12  2  0
  2  1  1  0
  3  2  1  0
  4  5  1  0
  4  3  2  0
  5 11  2  0
  6  5  1  0
  7  9  1  0
  7  6  1  0
  7  8  1  6
  9 10  2  0
 11 12  1  0
 13 14  1  0
 13  9  1  0
 15 22  1  0
 15 14  1  0
 16 15  2  0
 18 17  1  0
 19 20  1  6
 19 18  1  0
 21 22  1  1
 21 19  1  0
 23 21  1  0
 24 23  1  0
 25 23  2  0
M  END
$$$$
