YGI.pdb
     RDKit          3D

 25 25  0  0  1  0  0  0  0  0999 V2000
    5.3861  -10.7390   27.0551 O   0  0  0  0  0  0  0  0  0  0  0  0
    5.8812  -11.6548   26.1310 C   0  0  0  0  0  0  0  0  0  0  0  0
    5.4072  -12.9492   26.1272 C   0  0  0  0  0  0  0  0  0  0  0  0
    5.8923  -13.8759   25.2097 C   0  0  0  0  0  0  0  0  0  0  0  0
    6.8506  -13.5338   24.2864 C   0  0  0  0  0  0  0  0  0  0  0  0
    7.3835  -14.5033   23.2984 C   0  0  0  0  0  0  0  0  0  0  0  0
    8.1894  -15.5321   24.0593 C   0  0  2  0  0  0  0  0  0  0  0  0
    9.1801  -14.8107   24.8303 N   0  0  0  0  0  0  0  0  0  0  0  0
    8.8755  -16.4828   23.1758 C   0  0  0  0  0  0  0  0  0  0  0  0
    8.2152  -17.3638   22.5792 O   0  0  0  0  0  0  0  0  0  0  0  0
    7.3231  -12.2469   24.2889 C   0  0  0  0  0  0  0  0  0  0  0  0
    6.8413  -11.3087   25.2074 C   0  0  0  0  0  0  0  0  0  0  0  0
   10.2876  -16.4617   22.9508 N   0  0  0  0  0  0  0  0  0  0  0  0
   11.1681  -17.4806   23.4066 C   0  0  0  0  0  0  0  0  0  0  0  0
   11.6694  -17.3480   24.7734 C   0  0  0  0  0  0  0  0  0  0  0  0
   12.9084  -17.0807   24.9890 O   0  0  0  0  0  0  0  0  0  0  0  0
    9.1794  -13.8712   27.6361 C   0  0  0  0  0  0  0  0  0  0  0  0
   10.2269  -14.7521   26.9692 C   0  0  0  0  0  0  0  0  0  0  0  0
   10.4125  -15.9590   27.8284 C   0  0  2  0  0  0  0  0  0  0  0  0
   10.8875  -15.5016   29.1918 C   0  0  0  0  0  0  0  0  0  0  0  0
   11.3522  -16.9771   27.2495 C   0  0  2  0  0  0  0  0  0  0  0  0
   10.9208  -17.4842   25.9717 N   0  0  0  0  0  0  0  0  0  0  0  0
   11.4642  -18.1283   28.1771 C   0  0  0  0  0  0  0  0  0  0  0  0
   12.4399  -18.2535   29.1509 O   0  0  0  0  0  0  0  0  0  0  0  0
   10.6195  -19.0501   28.0731 O   0  0  0  0  0  0  0  0  0  0  0  0
  2 12  2  0
  2  1  1  0
  3  2  1  0
  4  5  1  0
  4  3  2  0
  5 11  2  0
  6  5  1  0
  7  9  1  0
  7  6  1  0
  7  8  1  6
  9 10  2  0
 11 12  1  0
 13 14  1  0
 13  9  1  0
 15 22  1  0
 15 14  1  0
 16 15  2  0
 18 17  1  0
 19 20  1  1
 19 18  1  0
 21 22  1  6
 21 19  1  0
 23 21  1  0
 24 23  1  0
 25 23  2  0
M  END
$$$$
