YGI.pdb
     RDKit          3D

 25 25  0  0  1  0  0  0  0  0999 V2000
    8.6471  -13.7703   13.9582 O   0  0  0  0  0  0  0  0  0  0  0  0
    8.4207  -13.8655   15.3284 C   0  0  0  0  0  0  0  0  0  0  0  0
    7.2587  -13.3568   15.8682 C   0  0  0  0  0  0  0  0  0  0  0  0
    7.0183  -13.4445   17.2358 C   0  0  0  0  0  0  0  0  0  0  0  0
    7.9229  -14.0354   18.0845 C   0  0  0  0  0  0  0  0  0  0  0  0
    7.6895  -14.1410   19.5454 C   0  0  0  0  0  0  0  0  0  0  0  0
    8.1300  -15.5215   19.9781 C   0  0  2  0  0  0  0  0  0  0  0  0
    7.2881  -16.4733   19.2839 N   0  0  0  0  0  0  0  0  0  0  0  0
    7.9939  -15.7339   21.4243 C   0  0  0  0  0  0  0  0  0  0  0  0
    8.6180  -14.9969   22.2215 O   0  0  0  0  0  0  0  0  0  0  0  0
    9.0789  -14.5418   17.5493 C   0  0  0  0  0  0  0  0  0  0  0  0
    9.3291  -14.4582   16.1758 C   0  0  0  0  0  0  0  0  0  0  0  0
    7.1709  -16.7574   21.9901 N   0  0  0  0  0  0  0  0  0  0  0  0
    7.0777  -17.0037   23.3872 C   0  0  0  0  0  0  0  0  0  0  0  0
    7.9120  -16.1737   24.2543 C   0  0  0  0  0  0  0  0  0  0  0  0
    9.1452  -15.9599   23.9603 O   0  0  0  0  0  0  0  0  0  0  0  0
    6.0764  -11.7240   26.7456 C   0  0  0  0  0  0  0  0  0  0  0  0
    6.8604  -12.7442   25.9316 C   0  0  0  0  0  0  0  0  0  0  0  0
    7.6870  -13.5414   26.8859 C   0  0  2  0  0  0  0  0  0  0  0  0
    8.6807  -12.6083   27.5459 C   0  0  0  0  0  0  0  0  0  0  0  0
    8.3892  -14.7077   26.2525 C   0  0  2  0  0  0  0  0  0  0  0  0
    7.5149  -15.5308   25.4560 N   0  0  0  0  0  0  0  0  0  0  0  0
    8.9748  -15.5648   27.3112 C   0  0  0  0  0  0  0  0  0  0  0  0
   10.2342  -15.3814   27.8556 O   0  0  0  0  0  0  0  0  0  0  0  0
    8.2842  -16.5192   27.7424 O   0  0  0  0  0  0  0  0  0  0  0  0
  2 12  2  0
  2  1  1  0
  3  2  1  0
  4  5  1  0
  4  3  2  0
  5 11  2  0
  6  5  1  0
  7  9  1  0
  7  6  1  0
  7  8  1  6
  9 10  2  0
 11 12  1  0
 13 14  1  0
 13  9  1  0
 15 22  1  0
 15 14  1  0
 16 15  2  0
 18 17  1  0
 19 20  1  6
 19 18  1  0
 21 22  1  1
 21 19  1  0
 23 21  1  0
 24 23  1  0
 25 23  2  0
M  END
$$$$
