YGI.pdb
     RDKit          3D

 25 25  0  0  1  0  0  0  0  0999 V2000
    4.8519  -12.5980   26.7814 O   0  0  0  0  0  0  0  0  0  0  0  0
    5.8669  -12.9039   25.8791 C   0  0  0  0  0  0  0  0  0  0  0  0
    5.9248  -12.2522   24.6658 C   0  0  0  0  0  0  0  0  0  0  0  0
    6.9333  -12.5470   23.7536 C   0  0  0  0  0  0  0  0  0  0  0  0
    7.8950  -13.4884   24.0304 C   0  0  0  0  0  0  0  0  0  0  0  0
    8.9798  -13.8203   23.0748 C   0  0  0  0  0  0  0  0  0  0  0  0
    8.6603  -15.1711   22.4747 C   0  0  2  0  0  0  0  0  0  0  0  0
    7.4681  -15.6588   23.1360 N   0  0  0  0  0  0  0  0  0  0  0  0
    9.7408  -16.1466   22.6639 C   0  0  0  0  0  0  0  0  0  0  0  0
   10.8472  -15.9636   22.1066 O   0  0  0  0  0  0  0  0  0  0  0  0
    7.8388  -14.1374   25.2366 C   0  0  0  0  0  0  0  0  0  0  0  0
    6.8288  -13.8476   26.1597 C   0  0  0  0  0  0  0  0  0  0  0  0
    9.6013  -17.3220   23.4665 N   0  0  0  0  0  0  0  0  0  0  0  0
   10.6782  -18.2032   23.7578 C   0  0  0  0  0  0  0  0  0  0  0  0
   11.3051  -18.0577   25.0703 C   0  0  0  0  0  0  0  0  0  0  0  0
   12.4752  -18.5429   25.2900 O   0  0  0  0  0  0  0  0  0  0  0  0
    9.9873  -13.9046   28.8331 C   0  0  0  0  0  0  0  0  0  0  0  0
   10.0305  -15.3874   28.4902 C   0  0  0  0  0  0  0  0  0  0  0  0
   11.3409  -15.6577   27.8276 C   0  0  2  0  0  0  0  0  0  0  0  0
   11.4825  -14.7114   26.6537 C   0  0  0  0  0  0  0  0  0  0  0  0
   11.5162  -17.0829   27.3887 C   0  0  2  0  0  0  0  0  0  0  0  0
   10.7573  -17.4095   26.2082 N   0  0  0  0  0  0  0  0  0  0  0  0
   11.0746  -17.9911   28.4743 C   0  0  0  0  0  0  0  0  0  0  0  0
    9.9370  -18.7777   28.4191 O   0  0  0  0  0  0  0  0  0  0  0  0
   11.7778  -18.0511   29.5115 O   0  0  0  0  0  0  0  0  0  0  0  0
  2 12  2  0
  2  1  1  0
  3  2  1  0
  4  5  1  0
  4  3  2  0
  5 11  2  0
  6  5  1  0
  7  9  1  0
  7  6  1  0
  7  8  1  1
  9 10  2  0
 11 12  1  0
 13 14  1  0
 13  9  1  0
 15 22  1  0
 15 14  1  0
 16 15  2  0
 18 17  1  0
 19 20  1  6
 19 18  1  0
 21 22  1  6
 21 19  1  0
 23 21  1  0
 24 23  1  0
 25 23  2  0
M  END
$$$$
