QTL.pdb
     RDKit          3D

 25 24  0  0  1  0  0  0  0  0999 V2000
   18.3227  -16.9792  -15.4277 N   0  0  0  0  0  0  0  0  0  0  0  0
   17.1151  -16.2771  -15.6192 C   0  0  0  0  0  0  0  0  0  0  0  0
   16.0198  -16.8278  -15.3584 O   0  0  0  0  0  0  0  0  0  0  0  0
   17.1821  -14.8941  -16.1288 C   0  0  0  0  0  0  0  0  0  0  0  0
   18.6101  -14.4156  -16.2946 C   0  0  0  0  0  0  0  0  0  0  0  0
   18.7970  -14.1212  -17.7750 C   0  0  2  0  0  0  0  0  0  0  0  0
   19.1132  -15.3123  -18.5087 N   0  0  0  0  0  0  0  0  0  0  0  0
   19.8945  -13.1369  -17.8898 C   0  0  0  0  0  0  0  0  0  0  0  0
   21.0856  -13.5014  -18.0117 O   0  0  0  0  0  0  0  0  0  0  0  0
   20.1572  -10.6990  -20.6343 C   0  0  0  0  0  0  0  0  0  0  0  0
   20.2638   -9.9322  -19.3518 C   0  0  1  0  0  0  0  0  0  0  0  0
   19.0292   -9.3329  -19.1088 O   0  0  0  0  0  0  0  0  0  0  0  0
   20.6415  -10.8105  -18.1758 C   0  0  2  0  0  0  0  0  0  0  0  0
   19.5918  -11.7550  -17.8613 N   0  0  0  0  0  0  0  0  0  0  0  0
   20.9365  -10.0249  -16.9685 C   0  0  0  0  0  0  0  0  0  0  0  0
   20.1233   -9.9855  -16.0301 O   0  0  0  0  0  0  0  0  0  0  0  0
   23.4351  -10.2317  -13.6474 C   0  0  0  0  0  0  0  0  0  0  0  0
   24.2380  -10.0243  -14.9321 C   0  0  2  0  0  0  0  0  0  0  0  0
   25.7136  -10.1651  -14.6947 C   0  0  0  0  0  0  0  0  0  0  0  0
   23.9010   -8.6542  -15.4423 C   0  0  0  0  0  0  0  0  0  0  0  0
   22.4200   -8.5258  -15.6512 C   0  0  2  0  0  0  0  0  0  0  0  0
   22.1395   -9.3111  -16.8622 N   0  0  0  0  0  0  0  0  0  0  0  0
   22.0566   -7.1122  -15.8761 C   0  0  0  0  0  0  0  0  0  0  0  0
   21.8769   -6.2487  -14.9905 O   0  0  0  0  0  0  0  0  0  0  0  0
   21.8800   -6.6258  -17.1937 O   0  0  0  0  0  0  0  0  0  0  0  0
  2  3  2  0
  2  1  1  0
  4  2  1  0
  5  4  1  0
  6  7  1  6
  6  5  1  0
  8  6  1  0
  9  8  2  0
 11 10  1  6
 11 12  1  0
 11 13  1  0
 13 15  1  0
 13 14  1  1
 14  8  1  0
 15 16  2  0
 18 17  1  1
 18 19  1  0
 18 20  1  0
 21 20  1  6
 22 21  1  0
 22 15  1  0
 23 25  1  0
 23 21  1  0
 24 23  2  0
M  END
$$$$
