QTL.pdb
     RDKit          3D

 25 24  0  0  1  0  0  0  0  0999 V2000
   23.2860  -20.9818  -10.3048 N   0  0  0  0  0  0  0  0  0  0  0  0
   23.6749  -20.8893   -8.9527 C   0  0  0  0  0  0  0  0  0  0  0  0
   22.8855  -21.2440   -8.0461 O   0  0  0  0  0  0  0  0  0  0  0  0
   25.0210  -20.3694   -8.6450 C   0  0  0  0  0  0  0  0  0  0  0  0
   25.7470  -19.8945   -9.8871 C   0  0  0  0  0  0  0  0  0  0  0  0
   25.8690  -21.1022  -10.8034 C   0  0  2  0  0  0  0  0  0  0  0  0
   26.8937  -21.9987  -10.3525 N   0  0  0  0  0  0  0  0  0  0  0  0
   26.1849  -20.5947  -12.1559 C   0  0  0  0  0  0  0  0  0  0  0  0
   27.3216  -20.1521  -12.4360 O   0  0  0  0  0  0  0  0  0  0  0  0
   26.0582  -22.5769  -15.2387 C   0  0  0  0  0  0  0  0  0  0  0  0
   25.2404  -21.3467  -15.4879 C   0  0  1  0  0  0  0  0  0  0  0  0
   23.8959  -21.7013  -15.3927 O   0  0  0  0  0  0  0  0  0  0  0  0
   25.5428  -20.2349  -14.5033 C   0  0  2  0  0  0  0  0  0  0  0  0
   25.1816  -20.6099  -13.1535 N   0  0  0  0  0  0  0  0  0  0  0  0
   24.8420  -18.9876  -14.8421 C   0  0  0  0  0  0  0  0  0  0  0  0
   23.8772  -18.6035  -14.1600 O   0  0  0  0  0  0  0  0  0  0  0  0
   26.1168  -14.7560  -15.3856 C   0  0  0  0  0  0  0  0  0  0  0  0
   26.6389  -15.7367  -16.4360 C   0  0  2  0  0  0  0  0  0  0  0  0
   27.6368  -15.0908  -17.3528 C   0  0  0  0  0  0  0  0  0  0  0  0
   25.4475  -16.2356  -17.1994 C   0  0  0  0  0  0  0  0  0  0  0  0
   24.5234  -16.9899  -16.2882 C   0  0  2  0  0  0  0  0  0  0  0  0
   25.2546  -18.2167  -15.9393 N   0  0  0  0  0  0  0  0  0  0  0  0
   23.2756  -17.3358  -16.9983 C   0  0  0  0  0  0  0  0  0  0  0  0
   23.0325  -18.4183  -17.5742 O   0  0  0  0  0  0  0  0  0  0  0  0
   22.2170  -16.3990  -17.0705 O   0  0  0  0  0  0  0  0  0  0  0  0
  2  3  2  0
  2  1  1  0
  4  2  1  0
  5  4  1  0
  6  7  1  1
  6  5  1  0
  8  6  1  0
  9  8  2  0
 11 10  1  1
 11 12  1  0
 11 13  1  0
 13 15  1  0
 13 14  1  1
 14  8  1  0
 15 16  2  0
 18 17  1  1
 18 19  1  0
 18 20  1  0
 21 20  1  6
 22 21  1  0
 22 15  1  0
 23 25  1  0
 23 21  1  0
 24 23  2  0
M  END
$$$$
