QTL.pdb
     RDKit          3D

 25 24  0  0  1  0  0  0  0  0999 V2000
   19.0171  -17.7341  -12.6787 N   0  0  0  0  0  0  0  0  0  0  0  0
   18.0984  -17.9946  -13.7160 C   0  0  0  0  0  0  0  0  0  0  0  0
   17.3582  -17.0785  -14.1447 O   0  0  0  0  0  0  0  0  0  0  0  0
   18.0381  -19.3601  -14.2718 C   0  0  0  0  0  0  0  0  0  0  0  0
   19.0121  -20.2979  -13.5881 C   0  0  0  0  0  0  0  0  0  0  0  0
   20.3889  -19.9705  -14.1452 C   0  0  2  0  0  0  0  0  0  0  0  0
   20.4255  -20.1228  -15.5708 N   0  0  0  0  0  0  0  0  0  0  0  0
   21.3508  -20.8914  -13.5023 C   0  0  0  0  0  0  0  0  0  0  0  0
   21.0074  -22.0363  -13.1311 O   0  0  0  0  0  0  0  0  0  0  0  0
   24.4953  -21.5598  -15.3842 C   0  0  0  0  0  0  0  0  0  0  0  0
   23.9746  -22.3410  -14.2168 C   0  0  1  0  0  0  0  0  0  0  0  0
   24.9296  -23.3003  -13.8849 O   0  0  0  0  0  0  0  0  0  0  0  0
   23.6910  -21.4689  -13.0102 C   0  0  2  0  0  0  0  0  0  0  0  0
   22.6867  -20.4696  -13.3030 N   0  0  0  0  0  0  0  0  0  0  0  0
   24.8983  -20.7852  -12.5235 C   0  0  0  0  0  0  0  0  0  0  0  0
   25.2052  -19.6638  -12.9614 O   0  0  0  0  0  0  0  0  0  0  0  0
   26.3757  -19.0993   -8.7412 C   0  0  0  0  0  0  0  0  0  0  0  0
   26.1462  -20.6101   -8.6878 C   0  0  2  0  0  0  0  0  0  0  0  0
   26.3505  -21.1552   -7.3041 C   0  0  0  0  0  0  0  0  0  0  0  0
   27.1036  -21.2327   -9.6608 C   0  0  0  0  0  0  0  0  0  0  0  0
   26.8877  -20.6711  -11.0360 C   0  0  2  0  0  0  0  0  0  0  0  0
   25.7174  -21.3911  -11.5590 N   0  0  0  0  0  0  0  0  0  0  0  0
   28.0632  -20.9407  -11.8883 C   0  0  0  0  0  0  0  0  0  0  0  0
   28.1702  -21.8644  -12.7237 O   0  0  0  0  0  0  0  0  0  0  0  0
   29.2085  -20.1136  -11.8001 O   0  0  0  0  0  0  0  0  0  0  0  0
  2  3  2  0
  2  1  1  0
  4  2  1  0
  5  4  1  0
  6  7  1  6
  6  5  1  0
  8  6  1  0
  9  8  2  0
 11 10  1  6
 11 12  1  0
 11 13  1  0
 13 15  1  0
 13 14  1  6
 14  8  1  0
 15 16  2  0
 18 17  1  1
 18 19  1  0
 18 20  1  0
 21 20  1  1
 22 21  1  0
 22 15  1  0
 23 25  1  0
 23 21  1  0
 24 23  2  0
M  END
$$$$
