QTL.pdb
     RDKit          3D

 25 24  0  0  1  0  0  0  0  0999 V2000
   13.7619  -14.2407  -13.1358 N   0  0  0  0  0  0  0  0  0  0  0  0
   13.7758  -14.2685  -14.5454 C   0  0  0  0  0  0  0  0  0  0  0  0
   12.9308  -14.9527  -15.1689 O   0  0  0  0  0  0  0  0  0  0  0  0
   14.8021  -13.4778  -15.2515 C   0  0  0  0  0  0  0  0  0  0  0  0
   15.6838  -12.7024  -14.2940 C   0  0  0  0  0  0  0  0  0  0  0  0
   16.7697  -12.0530  -15.1379 C   0  0  2  0  0  0  0  0  0  0  0  0
   17.7954  -12.9939  -15.4838 N   0  0  0  0  0  0  0  0  0  0  0  0
   17.3350  -10.9416  -14.3429 C   0  0  0  0  0  0  0  0  0  0  0  0
   18.2654  -11.1318  -13.5277 O   0  0  0  0  0  0  0  0  0  0  0  0
   19.2601   -8.0960  -15.2652 C   0  0  0  0  0  0  0  0  0  0  0  0
   18.0684   -7.5346  -14.5517 C   0  0  1  0  0  0  0  0  0  0  0  0
   17.1897   -7.0387  -15.5131 O   0  0  0  0  0  0  0  0  0  0  0  0
   17.3581   -8.5672  -13.6996 C   0  0  2  0  0  0  0  0  0  0  0  0
   16.8133   -9.6366  -14.5073 N   0  0  0  0  0  0  0  0  0  0  0  0
   16.2660   -7.9790  -12.9100 C   0  0  0  0  0  0  0  0  0  0  0  0
   15.0846   -8.1232  -13.2663 O   0  0  0  0  0  0  0  0  0  0  0  0
   14.8696   -6.7390   -7.3185 C   0  0  0  0  0  0  0  0  0  0  0  0
   14.4707   -6.4745   -8.7707 C   0  0  2  0  0  0  0  0  0  0  0  0
   13.0968   -6.9976   -9.0742 C   0  0  0  0  0  0  0  0  0  0  0  0
   15.5037   -7.1350   -9.6354 C   0  0  0  0  0  0  0  0  0  0  0  0
   15.4557   -6.5724  -11.0263 C   0  0  2  0  0  0  0  0  0  0  0  0
   16.5455   -7.2484  -11.7454 N   0  0  0  0  0  0  0  0  0  0  0  0
   15.7026   -5.1167  -10.9975 C   0  0  0  0  0  0  0  0  0  0  0  0
   16.8217   -4.5602  -10.9866 O   0  0  0  0  0  0  0  0  0  0  0  0
   14.6137   -4.2125  -10.9795 O   0  0  0  0  0  0  0  0  0  0  0  0
  2  3  2  0
  2  1  1  0
  4  2  1  0
  5  4  1  0
  6  7  1  1
  6  5  1  0
  8  6  1  0
  9  8  2  0
 11 10  1  6
 11 12  1  0
 11 13  1  0
 13 15  1  0
 13 14  1  6
 14  8  1  0
 15 16  2  0
 18 17  1  1
 18 19  1  0
 18 20  1  0
 21 20  1  1
 22 21  1  0
 22 15  1  0
 23 25  1  0
 23 21  1  0
 24 23  2  0
M  END
$$$$
