QTL.pdb
     RDKit          3D

 25 24  0  0  1  0  0  0  0  0999 V2000
   14.9488  -13.3222  -14.0013 N   0  0  0  0  0  0  0  0  0  0  0  0
   14.0480  -12.6279  -14.8346 C   0  0  0  0  0  0  0  0  0  0  0  0
   12.8310  -12.9275  -14.8319 O   0  0  0  0  0  0  0  0  0  0  0  0
   14.5770  -11.5535  -15.6966 C   0  0  0  0  0  0  0  0  0  0  0  0
   16.0771  -11.3951  -15.5552 C   0  0  0  0  0  0  0  0  0  0  0  0
   16.6811  -11.7991  -16.8913 C   0  0  2  0  0  0  0  0  0  0  0  0
   17.0461  -13.1861  -16.9016 N   0  0  0  0  0  0  0  0  0  0  0  0
   17.8722  -10.9497  -17.1073 C   0  0  0  0  0  0  0  0  0  0  0  0
   19.0190  -11.3471  -16.8020 O   0  0  0  0  0  0  0  0  0  0  0  0
   19.8565   -6.9844  -19.2670 C   0  0  0  0  0  0  0  0  0  0  0  0
   18.6820   -7.8899  -19.0545 C   0  0  1  0  0  0  0  0  0  0  0  0
   18.4723   -8.6012  -20.2345 O   0  0  0  0  0  0  0  0  0  0  0  0
   18.8917   -8.8591  -17.9083 C   0  0  2  0  0  0  0  0  0  0  0  0
   17.7117   -9.6617  -17.6706 N   0  0  0  0  0  0  0  0  0  0  0  0
   19.2453   -8.1715  -16.6577 C   0  0  0  0  0  0  0  0  0  0  0  0
   18.3689   -7.6091  -15.9801 O   0  0  0  0  0  0  0  0  0  0  0  0
   20.7870   -9.2725  -12.8015 C   0  0  0  0  0  0  0  0  0  0  0  0
   21.7797   -9.4716  -13.9472 C   0  0  2  0  0  0  0  0  0  0  0  0
   22.9999  -10.2239  -13.5016 C   0  0  0  0  0  0  0  0  0  0  0  0
   22.1416   -8.1069  -14.4548 C   0  0  0  0  0  0  0  0  0  0  0  0
   20.9241   -7.4099  -14.9888 C   0  0  2  0  0  0  0  0  0  0  0  0
   20.5763   -8.1427  -16.2151 N   0  0  0  0  0  0  0  0  0  0  0  0
   21.2424   -6.0059  -15.3181 C   0  0  0  0  0  0  0  0  0  0  0  0
   21.3902   -5.0732  -14.4992 O   0  0  0  0  0  0  0  0  0  0  0  0
   21.4084   -5.6137  -16.6680 O   0  0  0  0  0  0  0  0  0  0  0  0
  2  3  2  0
  2  1  1  0
  4  2  1  0
  5  4  1  0
  6  7  1  1
  6  5  1  0
  8  6  1  0
  9  8  2  0
 11 10  1  6
 11 12  1  0
 11 13  1  0
 13 15  1  0
 13 14  1  1
 14  8  1  0
 15 16  2  0
 18 17  1  1
 18 19  1  0
 18 20  1  0
 21 20  1  6
 22 21  1  0
 22 15  1  0
 23 25  1  0
 23 21  1  0
 24 23  2  0
M  END
$$$$
