QTL.pdb
     RDKit          3D

 25 24  0  0  1  0  0  0  0  0999 V2000
   20.9527  -19.6362  -11.2806 N   0  0  0  0  0  0  0  0  0  0  0  0
   21.1837  -20.9713  -10.8906 C   0  0  0  0  0  0  0  0  0  0  0  0
   20.2313  -21.6849  -10.4975 O   0  0  0  0  0  0  0  0  0  0  0  0
   22.5623  -21.4926  -10.9595 C   0  0  0  0  0  0  0  0  0  0  0  0
   23.5475  -20.4405  -11.4262 C   0  0  0  0  0  0  0  0  0  0  0  0
   24.9068  -21.1200  -11.4877 C   0  0  2  0  0  0  0  0  0  0  0  0
   25.4372  -21.3475  -10.1747 N   0  0  0  0  0  0  0  0  0  0  0  0
   25.8037  -20.2342  -12.2609 C   0  0  0  0  0  0  0  0  0  0  0  0
   26.5190  -19.3775  -11.6946 O   0  0  0  0  0  0  0  0  0  0  0  0
   28.4079  -21.2297  -14.9683 C   0  0  0  0  0  0  0  0  0  0  0  0
   27.4653  -20.1971  -15.5063 C   0  0  1  0  0  0  0  0  0  0  0  0
   26.5563  -20.8430  -16.3423 O   0  0  0  0  0  0  0  0  0  0  0  0
   26.7157  -19.4640  -14.4119 C   0  0  2  0  0  0  0  0  0  0  0  0
   25.8540  -20.3580  -13.6695 N   0  0  0  0  0  0  0  0  0  0  0  0
   25.8972  -18.3632  -14.9413 C   0  0  0  0  0  0  0  0  0  0  0  0
   24.6907  -18.5364  -15.1817 O   0  0  0  0  0  0  0  0  0  0  0  0
   26.8288  -12.4783  -16.2915 C   0  0  0  0  0  0  0  0  0  0  0  0
   25.8131  -13.6208  -16.2624 C   0  0  2  0  0  0  0  0  0  0  0  0
   24.5586  -13.2314  -15.5356 C   0  0  0  0  0  0  0  0  0  0  0  0
   26.4840  -14.7859  -15.5965 C   0  0  0  0  0  0  0  0  0  0  0  0
   25.6492  -16.0242  -15.7481 C   0  0  2  0  0  0  0  0  0  0  0  0
   26.4691  -17.1047  -15.1809 N   0  0  0  0  0  0  0  0  0  0  0  0
   25.3873  -16.2919  -17.1766 C   0  0  0  0  0  0  0  0  0  0  0  0
   24.3004  -16.1218  -17.7700 O   0  0  0  0  0  0  0  0  0  0  0  0
   26.4206  -16.7886  -18.0067 O   0  0  0  0  0  0  0  0  0  0  0  0
  2  3  2  0
  2  1  1  0
  4  2  1  0
  5  4  1  0
  6  7  1  1
  6  5  1  0
  8  6  1  0
  9  8  2  0
 11 10  1  1
 11 12  1  0
 11 13  1  0
 13 15  1  0
 13 14  1  6
 14  8  1  0
 15 16  2  0
 18 17  1  1
 18 19  1  0
 18 20  1  0
 21 20  1  6
 22 21  1  0
 22 15  1  0
 23 25  1  0
 23 21  1  0
 24 23  2  0
M  END
$$$$
