QTL.pdb
     RDKit          3D

 25 24  0  0  1  0  0  0  0  0999 V2000
   21.4073  -31.1808   -9.4465 N   0  0  0  0  0  0  0  0  0  0  0  0
   22.0559  -31.0782  -10.6942 C   0  0  0  0  0  0  0  0  0  0  0  0
   21.6507  -30.2541  -11.5471 O   0  0  0  0  0  0  0  0  0  0  0  0
   23.2095  -31.9593  -10.9585 C   0  0  0  0  0  0  0  0  0  0  0  0
   23.4230  -32.9682   -9.8486 C   0  0  0  0  0  0  0  0  0  0  0  0
   24.6248  -33.8074  -10.2543 C   0  0  2  0  0  0  0  0  0  0  0  0
   24.3021  -34.6947  -11.3339 N   0  0  0  0  0  0  0  0  0  0  0  0
   25.0442  -34.5753   -9.0622 C   0  0  0  0  0  0  0  0  0  0  0  0
   24.4380  -35.6117   -8.7091 O   0  0  0  0  0  0  0  0  0  0  0  0
   28.5935  -36.1027   -6.1936 C   0  0  0  0  0  0  0  0  0  0  0  0
   28.0561  -35.3613   -7.3792 C   0  0  1  0  0  0  0  0  0  0  0  0
   28.1677  -36.1949   -8.4905 O   0  0  0  0  0  0  0  0  0  0  0  0
   26.6100  -34.9443   -7.2009 C   0  0  2  0  0  0  0  0  0  0  0  0
   26.1536  -34.1292   -8.3056 N   0  0  0  0  0  0  0  0  0  0  0  0
   26.3979  -34.1962   -5.9530 C   0  0  0  0  0  0  0  0  0  0  0  0
   26.8609  -33.0510   -5.8203 O   0  0  0  0  0  0  0  0  0  0  0  0
   23.1699  -32.4561   -3.8063 C   0  0  0  0  0  0  0  0  0  0  0  0
   23.0633  -33.9808   -3.8470 C   0  0  2  0  0  0  0  0  0  0  0  0
   21.7555  -34.4621   -3.2888 C   0  0  0  0  0  0  0  0  0  0  0  0
   24.2193  -34.5215   -3.0582 C   0  0  0  0  0  0  0  0  0  0  0  0
   25.5167  -34.0326   -3.6335 C   0  0  2  0  0  0  0  0  0  0  0  0
   25.6702  -34.7668   -4.8980 N   0  0  0  0  0  0  0  0  0  0  0  0
   26.6342  -34.3607   -2.7255 C   0  0  0  0  0  0  0  0  0  0  0  0
   27.3124  -35.4105   -2.7427 O   0  0  0  0  0  0  0  0  0  0  0  0
   27.0240  -33.4441   -1.7198 O   0  0  0  0  0  0  0  0  0  0  0  0
  2  3  2  0
  2  1  1  0
  4  2  1  0
  5  4  1  0
  6  7  1  6
  6  5  1  0
  8  6  1  0
  9  8  2  0
 11 10  1  1
 11 12  1  0
 11 13  1  0
 13 15  1  0
 13 14  1  6
 14  8  1  0
 15 16  2  0
 18 17  1  1
 18 19  1  0
 18 20  1  0
 21 20  1  1
 22 21  1  0
 22 15  1  0
 23 25  1  0
 23 21  1  0
 24 23  2  0
M  END
$$$$
