QTL.pdb
     RDKit          3D

 25 24  0  0  1  0  0  0  0  0999 V2000
   28.4368  -23.2267  -17.3310 N   0  0  0  0  0  0  0  0  0  0  0  0
   29.0415  -22.2346  -16.5323 C   0  0  0  0  0  0  0  0  0  0  0  0
   29.1960  -22.4251  -15.3032 O   0  0  0  0  0  0  0  0  0  0  0  0
   29.4796  -20.9839  -17.1811 C   0  0  0  0  0  0  0  0  0  0  0  0
   28.9834  -19.7556  -16.4460 C   0  0  0  0  0  0  0  0  0  0  0  0
   27.5230  -19.5818  -16.8336 C   0  0  2  0  0  0  0  0  0  0  0  0
   27.3639  -18.5571  -17.8244 N   0  0  0  0  0  0  0  0  0  0  0  0
   26.7830  -19.2298  -15.6027 C   0  0  0  0  0  0  0  0  0  0  0  0
   26.7697  -18.0578  -15.1639 O   0  0  0  0  0  0  0  0  0  0  0  0
   22.9053  -19.9187  -12.8758 C   0  0  0  0  0  0  0  0  0  0  0  0
   23.7738  -20.1060  -14.0820 C   0  0  1  0  0  0  0  0  0  0  0  0
   23.3341  -19.2225  -15.0661 O   0  0  0  0  0  0  0  0  0  0  0  0
   25.2395  -19.8528  -13.7912 C   0  0  2  0  0  0  0  0  0  0  0  0
   26.0755  -20.2386  -14.9072 N   0  0  0  0  0  0  0  0  0  0  0  0
   25.7005  -20.5729  -12.5950 C   0  0  0  0  0  0  0  0  0  0  0  0
   25.9356  -21.7917  -12.6467 O   0  0  0  0  0  0  0  0  0  0  0  0
   26.0632  -20.8421   -7.3314 C   0  0  0  0  0  0  0  0  0  0  0  0
   27.3094  -20.2347   -7.9763 C   0  0  2  0  0  0  0  0  0  0  0  0
   27.9676  -19.2294   -7.0763 C   0  0  0  0  0  0  0  0  0  0  0  0
   26.8714  -19.6019   -9.2642 C   0  0  0  0  0  0  0  0  0  0  0  0
   26.2785  -20.6354  -10.1773 C   0  0  2  0  0  0  0  0  0  0  0  0
   25.8802  -19.8921  -11.3816 N   0  0  0  0  0  0  0  0  0  0  0  0
   25.0897  -21.2483   -9.5514 C   0  0  0  0  0  0  0  0  0  0  0  0
   25.0138  -22.4103   -9.0971 O   0  0  0  0  0  0  0  0  0  0  0  0
   23.8921  -20.5046   -9.4233 O   0  0  0  0  0  0  0  0  0  0  0  0
  2  3  2  0
  2  1  1  0
  4  2  1  0
  5  4  1  0
  6  7  1  6
  6  5  1  0
  8  6  1  0
  9  8  2  0
 11 10  1  1
 11 12  1  0
 11 13  1  0
 13 15  1  0
 13 14  1  6
 14  8  1  0
 15 16  2  0
 18 17  1  1
 18 19  1  0
 18 20  1  0
 21 20  1  1
 22 21  1  0
 22 15  1  0
 23 25  1  0
 23 21  1  0
 24 23  2  0
M  END
$$$$
