QTL.pdb
     RDKit          3D

 25 24  0  0  1  0  0  0  0  0999 V2000
   20.9120  -15.2087  -17.7031 N   0  0  0  0  0  0  0  0  0  0  0  0
   21.8690  -14.2068  -17.9642 C   0  0  0  0  0  0  0  0  0  0  0  0
   21.5111  -13.1056  -18.4439 O   0  0  0  0  0  0  0  0  0  0  0  0
   23.2839  -14.4930  -17.6589 C   0  0  0  0  0  0  0  0  0  0  0  0
   23.4648  -15.8516  -17.0132 C   0  0  0  0  0  0  0  0  0  0  0  0
   24.6927  -16.4755  -17.6583 C   0  0  2  0  0  0  0  0  0  0  0  0
   24.5560  -16.5434  -19.0844 N   0  0  0  0  0  0  0  0  0  0  0  0
   24.8445  -17.8316  -17.0886 C   0  0  0  0  0  0  0  0  0  0  0  0
   24.1204  -18.7806  -17.4650 O   0  0  0  0  0  0  0  0  0  0  0  0
   27.1886  -20.0432  -17.8466 C   0  0  0  0  0  0  0  0  0  0  0  0
   27.3211  -19.9847  -16.3555 C   0  0  1  0  0  0  0  0  0  0  0  0
   28.4219  -19.1842  -16.0558 O   0  0  0  0  0  0  0  0  0  0  0  0
   26.0860  -19.4221  -15.6811 C   0  0  2  0  0  0  0  0  0  0  0  0
   25.8283  -18.0609  -16.0979 N   0  0  0  0  0  0  0  0  0  0  0  0
   26.1945  -19.4462  -14.2150 C   0  0  0  0  0  0  0  0  0  0  0  0
   26.8953  -18.6086  -13.6228 O   0  0  0  0  0  0  0  0  0  0  0  0
   22.9904  -21.1022   -9.4704 C   0  0  0  0  0  0  0  0  0  0  0  0
   24.4142  -20.8179   -9.9498 C   0  0  2  0  0  0  0  0  0  0  0  0
   25.0132  -19.6362   -9.2439 C   0  0  0  0  0  0  0  0  0  0  0  0
   24.3388  -20.5822  -11.4295 C   0  0  0  0  0  0  0  0  0  0  0  0
   25.7185  -20.5044  -12.0157 C   0  0  2  0  0  0  0  0  0  0  0  0
   25.5079  -20.4151  -13.4680 N   0  0  0  0  0  0  0  0  0  0  0  0
   26.4797  -21.7285  -11.6948 C   0  0  0  0  0  0  0  0  0  0  0  0
   27.2839  -21.8681  -10.7481 O   0  0  0  0  0  0  0  0  0  0  0  0
   26.3305  -22.8871  -12.4942 O   0  0  0  0  0  0  0  0  0  0  0  0
  2  3  2  0
  2  1  1  0
  4  2  1  0
  5  4  1  0
  6  7  1  6
  6  5  1  0
  8  6  1  0
  9  8  2  0
 11 10  1  6
 11 12  1  0
 11 13  1  0
 13 15  1  0
 13 14  1  6
 14  8  1  0
 15 16  2  0
 18 17  1  1
 18 19  1  0
 18 20  1  0
 21 20  1  1
 22 21  1  0
 22 15  1  0
 23 25  1  0
 23 21  1  0
 24 23  2  0
M  END
$$$$
