QTL.pdb
     RDKit          3D

 25 24  0  0  1  0  0  0  0  0999 V2000
   13.8678  -12.3207  -13.3050 N   0  0  0  0  0  0  0  0  0  0  0  0
   13.2677  -11.9012  -14.5099 C   0  0  0  0  0  0  0  0  0  0  0  0
   12.1070  -12.2764  -14.7978 O   0  0  0  0  0  0  0  0  0  0  0  0
   14.0391  -11.0194  -15.4068 C   0  0  0  0  0  0  0  0  0  0  0  0
   15.3436  -10.5696  -14.7813 C   0  0  0  0  0  0  0  0  0  0  0  0
   16.4546  -11.0880  -15.6814 C   0  0  2  0  0  0  0  0  0  0  0  0
   16.4317  -12.5195  -15.7680 N   0  0  0  0  0  0  0  0  0  0  0  0
   17.7356  -10.6257  -15.1052 C   0  0  0  0  0  0  0  0  0  0  0  0
   18.2344  -11.1791  -14.0996 O   0  0  0  0  0  0  0  0  0  0  0  0
   20.9978  -10.4717  -16.9263 C   0  0  0  0  0  0  0  0  0  0  0  0
   20.7463   -9.1269  -16.3160 C   0  0  1  0  0  0  0  0  0  0  0  0
   20.3007   -8.2762  -17.3260 O   0  0  0  0  0  0  0  0  0  0  0  0
   19.7192   -9.1738  -15.2025 C   0  0  2  0  0  0  0  0  0  0  0  0
   18.4110   -9.5356  -15.7032 N   0  0  0  0  0  0  0  0  0  0  0  0
   19.6072   -7.8891  -14.4962 C   0  0  0  0  0  0  0  0  0  0  0  0
   18.6427   -7.1359  -14.7109 O   0  0  0  0  0  0  0  0  0  0  0  0
   20.7703   -5.5628   -9.2121 C   0  0  0  0  0  0  0  0  0  0  0  0
   20.5887   -5.1810  -10.6814 C   0  0  2  0  0  0  0  0  0  0  0  0
   19.3645   -4.3375  -10.8899 C   0  0  0  0  0  0  0  0  0  0  0  0
   20.5015   -6.4614  -11.4586 C   0  0  0  0  0  0  0  0  0  0  0  0
   20.5067   -6.1775  -12.9327 C   0  0  2  0  0  0  0  0  0  0  0  0
   20.5878   -7.4990  -13.5719 N   0  0  0  0  0  0  0  0  0  0  0  0
   21.6914   -5.3732  -13.2939 C   0  0  0  0  0  0  0  0  0  0  0  0
   21.8229   -4.1413  -13.1283 O   0  0  0  0  0  0  0  0  0  0  0  0
   22.8169   -5.9942  -13.8866 O   0  0  0  0  0  0  0  0  0  0  0  0
  2  3  2  0
  2  1  1  0
  4  2  1  0
  5  4  1  0
  6  7  1  1
  6  5  1  0
  8  6  1  0
  9  8  2  0
 11 10  1  6
 11 12  1  0
 11 13  1  0
 13 15  1  0
 13 14  1  6
 14  8  1  0
 15 16  2  0
 18 17  1  1
 18 19  1  0
 18 20  1  0
 21 20  1  1
 22 21  1  0
 22 15  1  0
 23 25  1  0
 23 21  1  0
 24 23  2  0
M  END
$$$$
