QTL.pdb
     RDKit          3D

 25 24  0  0  1  0  0  0  0  0999 V2000
   17.2308  -15.0512  -15.3235 N   0  0  0  0  0  0  0  0  0  0  0  0
   16.1654  -14.4507  -16.0252 C   0  0  0  0  0  0  0  0  0  0  0  0
   15.4884  -15.1245  -16.8367 O   0  0  0  0  0  0  0  0  0  0  0  0
   15.8782  -13.0250  -15.7765 C   0  0  0  0  0  0  0  0  0  0  0  0
   16.7449  -12.4523  -14.6736 C   0  0  0  0  0  0  0  0  0  0  0  0
   17.6600  -11.4307  -15.3310 C   0  0  2  0  0  0  0  0  0  0  0  0
   18.8698  -12.0400  -15.8024 N   0  0  0  0  0  0  0  0  0  0  0  0
   17.9628  -10.3983  -14.3165 C   0  0  0  0  0  0  0  0  0  0  0  0
   18.8939  -10.5475  -13.4936 O   0  0  0  0  0  0  0  0  0  0  0  0
   19.3312   -7.3745  -15.1687 C   0  0  0  0  0  0  0  0  0  0  0  0
   18.1634   -6.9739  -14.3202 C   0  0  1  0  0  0  0  0  0  0  0  0
   17.1509   -6.5307  -15.1692 O   0  0  0  0  0  0  0  0  0  0  0  0
   17.6456   -8.1125  -13.4642 C   0  0  2  0  0  0  0  0  0  0  0  0
   17.1839   -9.2177  -14.2755 N   0  0  0  0  0  0  0  0  0  0  0  0
   16.5452   -7.6901  -12.5853 C   0  0  0  0  0  0  0  0  0  0  0  0
   15.4021   -8.1504  -12.7438 O   0  0  0  0  0  0  0  0  0  0  0  0
   15.0127   -6.4280   -7.1675 C   0  0  0  0  0  0  0  0  0  0  0  0
   14.5613   -6.2772   -8.6205 C   0  0  2  0  0  0  0  0  0  0  0  0
   13.2693   -6.9965   -8.8791 C   0  0  0  0  0  0  0  0  0  0  0  0
   15.6641   -6.8212   -9.4800 C   0  0  0  0  0  0  0  0  0  0  0  0
   15.6349   -6.1762  -10.8352 C   0  0  2  0  0  0  0  0  0  0  0  0
   16.7732   -6.7626  -11.5577 N   0  0  0  0  0  0  0  0  0  0  0  0
   15.8198   -4.7164  -10.7103 C   0  0  0  0  0  0  0  0  0  0  0  0
   16.9097   -4.1227  -10.5611 O   0  0  0  0  0  0  0  0  0  0  0  0
   14.6994   -3.8526  -10.7559 O   0  0  0  0  0  0  0  0  0  0  0  0
  2  3  2  0
  2  1  1  0
  4  2  1  0
  5  4  1  0
  6  7  1  1
  6  5  1  0
  8  6  1  0
  9  8  2  0
 11 10  1  6
 11 12  1  0
 11 13  1  0
 13 15  1  0
 13 14  1  6
 14  8  1  0
 15 16  2  0
 18 17  1  1
 18 19  1  0
 18 20  1  0
 21 20  1  1
 22 21  1  0
 22 15  1  0
 23 25  1  0
 23 21  1  0
 24 23  2  0
M  END
$$$$
