QTL.pdb
     RDKit          3D

 25 24  0  0  1  0  0  0  0  0999 V2000
   15.3002  -22.9987   -6.6751 N   0  0  0  0  0  0  0  0  0  0  0  0
   14.7028  -23.5460   -5.5212 C   0  0  0  0  0  0  0  0  0  0  0  0
   13.4547  -23.5623   -5.4072 O   0  0  0  0  0  0  0  0  0  0  0  0
   15.5817  -24.0906   -4.4686 C   0  0  0  0  0  0  0  0  0  0  0  0
   17.0448  -24.0253   -4.8566 C   0  0  0  0  0  0  0  0  0  0  0  0
   17.3844  -25.3681   -5.4848 C   0  0  2  0  0  0  0  0  0  0  0  0
   17.9393  -26.2715   -4.5188 N   0  0  0  0  0  0  0  0  0  0  0  0
   18.3565  -25.1101   -6.5689 C   0  0  0  0  0  0  0  0  0  0  0  0
   19.5858  -25.0534   -6.3411 O   0  0  0  0  0  0  0  0  0  0  0  0
   19.4648  -27.0877   -9.3899 C   0  0  0  0  0  0  0  0  0  0  0  0
   18.8615  -25.8336   -9.9444 C   0  0  1  0  0  0  0  0  0  0  0  0
   17.5543  -26.1234  -10.3310 O   0  0  0  0  0  0  0  0  0  0  0  0
   18.8540  -24.6966   -8.9424 C   0  0  2  0  0  0  0  0  0  0  0  0
   17.8870  -24.9237   -7.8906 N   0  0  0  0  0  0  0  0  0  0  0  0
   18.5580  -23.4022   -9.5739 C   0  0  0  0  0  0  0  0  0  0  0  0
   17.4776  -22.8289   -9.3557 O   0  0  0  0  0  0  0  0  0  0  0  0
   21.4781  -19.6302  -13.3898 C   0  0  0  0  0  0  0  0  0  0  0  0
   20.2230  -19.8425  -12.5427 C   0  0  2  0  0  0  0  0  0  0  0  0
   19.9419  -18.6617  -11.6593 C   0  0  0  0  0  0  0  0  0  0  0  0
   20.4481  -21.0837  -11.7305 C   0  0  0  0  0  0  0  0  0  0  0  0
   19.1645  -21.5282  -11.0917 C   0  0  2  0  0  0  0  0  0  0  0  0
   19.4919  -22.7996  -10.4299 N   0  0  0  0  0  0  0  0  0  0  0  0
   18.1314  -21.7523  -12.1229 C   0  0  0  0  0  0  0  0  0  0  0  0
   18.0631  -22.7327  -12.8952 O   0  0  0  0  0  0  0  0  0  0  0  0
   17.0938  -20.8070  -12.3052 O   0  0  0  0  0  0  0  0  0  0  0  0
  2  3  2  0
  2  1  1  0
  4  2  1  0
  5  4  1  0
  6  7  1  1
  6  5  1  0
  8  6  1  0
  9  8  2  0
 11 10  1  1
 11 12  1  0
 11 13  1  0
 13 15  1  0
 13 14  1  1
 14  8  1  0
 15 16  2  0
 18 17  1  1
 18 19  1  0
 18 20  1  0
 21 20  1  6
 22 21  1  0
 22 15  1  0
 23 25  1  0
 23 21  1  0
 24 23  2  0
M  END
$$$$
