TDD.pdb
     RDKit          3D

 24 23  0  0  1  0  0  0  0  0999 V2000
   23.8980  -11.2423  -15.4212 C   0  0  0  0  0  0  0  0  0  0  0  0
   23.5271  -12.1116  -16.5807 C   0  0  1  0  0  0  0  0  0  0  0  0
   24.3074  -13.2754  -16.5154 O   0  0  0  0  0  0  0  0  0  0  0  0
   22.0750  -12.5168  -16.4886 C   0  0  2  0  0  0  0  0  0  0  0  0
   21.7699  -13.4628  -17.5170 N   0  0  0  0  0  0  0  0  0  0  0  0
   21.1774  -11.3399  -16.6223 C   0  0  0  0  0  0  0  0  0  0  0  0
   21.0961  -10.6694  -17.6991 O   0  0  0  0  0  0  0  0  0  0  0  0
   20.3816  -10.9284  -15.5466 N   0  0  0  0  0  0  0  0  0  0  0  0
   19.5378   -9.7786  -15.4842 C   0  0  1  0  0  0  0  0  0  0  0  0
   18.3025  -10.1221  -14.6448 C   0  0  0  0  0  0  0  0  0  0  0  0
   17.4408  -11.1049  -15.3221 C   0  0  0  0  0  0  0  0  0  0  0  0
   17.2175  -11.0016  -16.5447 O   0  0  0  0  0  0  0  0  0  0  0  0
   20.2531   -8.6955  -14.7649 C   0  0  0  0  0  0  0  0  0  0  0  0
   20.8893   -8.9930  -13.7192 O   0  0  0  0  0  0  0  0  0  0  0  0
   16.8859  -12.1388  -14.5834 O   0  0  0  0  0  0  0  0  0  0  0  0
   20.2251   -7.3684  -15.2330 N   0  0  0  0  0  0  0  0  0  0  0  0
   20.9267   -6.3272  -14.5304 C   0  0  1  0  0  0  0  0  0  0  0  0
   21.8422   -5.6186  -15.4921 C   0  0  0  0  0  0  0  0  0  0  0  0
   22.5434   -4.4661  -14.9262 C   0  0  0  0  0  0  0  0  0  0  0  0
   22.1693   -3.3192  -15.3325 O   0  0  0  0  0  0  0  0  0  0  0  0
   19.9267   -5.3932  -13.9344 C   0  0  0  0  0  0  0  0  0  0  0  0
   18.7480   -5.3442  -14.3700 O   0  0  0  0  0  0  0  0  0  0  0  0
   23.5638   -4.4881  -14.0015 O   0  0  0  0  0  0  0  0  0  0  0  0
   20.2478   -4.5461  -12.8849 O   0  0  0  0  0  0  0  0  0  0  0  0
  2  1  1  1
  3  2  1  0
  4  2  1  0
  4  6  1  0
  4  5  1  6
  6  7  2  0
  8  9  1  0
  8  6  1  0
  9 10  1  1
 10 11  1  0
 11 15  1  0
 12 11  2  0
 13  9  1  0
 14 13  2  0
 16 13  1  0
 17 21  1  0
 17 16  1  0
 17 18  1  6
 19 18  1  0
 20 19  2  0
 21 24  1  0
 22 21  2  0
 23 19  1  0
M  END
$$$$
