TDD.pdb
     RDKit          3D

 24 23  0  0  1  0  0  0  0  0999 V2000
   17.6183  -10.6224  -15.0638 C   0  0  0  0  0  0  0  0  0  0  0  0
   18.5427  -11.7936  -14.9570 C   0  0  1  0  0  0  0  0  0  0  0  0
   17.8491  -12.9327  -15.3915 O   0  0  0  0  0  0  0  0  0  0  0  0
   19.7383  -11.6019  -15.8600 C   0  0  2  0  0  0  0  0  0  0  0  0
   20.5620  -12.7706  -15.8277 N   0  0  0  0  0  0  0  0  0  0  0  0
   20.5429  -10.4229  -15.4460 C   0  0  0  0  0  0  0  0  0  0  0  0
   21.1557  -10.3783  -14.3334 O   0  0  0  0  0  0  0  0  0  0  0  0
   20.6503   -9.3071  -16.2847 N   0  0  0  0  0  0  0  0  0  0  0  0
   21.2773   -8.0592  -15.9891 C   0  0  1  0  0  0  0  0  0  0  0  0
   21.3570   -7.2332  -17.2774 C   0  0  0  0  0  0  0  0  0  0  0  0
   22.0264   -5.9411  -17.0545 C   0  0  0  0  0  0  0  0  0  0  0  0
   22.4000   -5.6212  -15.9086 O   0  0  0  0  0  0  0  0  0  0  0  0
   20.4166   -7.2992  -15.0491 C   0  0  0  0  0  0  0  0  0  0  0  0
   19.2011   -7.1476  -15.3431 O   0  0  0  0  0  0  0  0  0  0  0  0
   22.2321   -5.0926  -18.1317 O   0  0  0  0  0  0  0  0  0  0  0  0
   20.9381   -6.7588  -13.8588 N   0  0  0  0  0  0  0  0  0  0  0  0
   20.1091   -5.9727  -12.9843 C   0  0  1  0  0  0  0  0  0  0  0  0
   19.9050   -6.7243  -11.6964 C   0  0  0  0  0  0  0  0  0  0  0  0
   19.0759   -6.0288  -10.7119 C   0  0  0  0  0  0  0  0  0  0  0  0
   18.4274   -5.0166  -11.1306 O   0  0  0  0  0  0  0  0  0  0  0  0
   20.7710   -4.6552  -12.7526 C   0  0  0  0  0  0  0  0  0  0  0  0
   20.1950   -3.7485  -12.0988 O   0  0  0  0  0  0  0  0  0  0  0  0
   18.9214   -6.3510   -9.3819 O   0  0  0  0  0  0  0  0  0  0  0  0
   22.0373   -4.3737  -13.2421 O   0  0  0  0  0  0  0  0  0  0  0  0
  2  1  1  6
  3  2  1  0
  4  2  1  0
  4  6  1  0
  4  5  1  1
  6  7  2  0
  8  9  1  0
  8  6  1  0
  9 10  1  6
 10 11  1  0
 11 15  1  0
 12 11  2  0
 13  9  1  0
 14 13  2  0
 16 13  1  0
 17 21  1  0
 17 16  1  0
 17 18  1  1
 19 18  1  0
 20 19  2  0
 21 24  1  0
 22 21  2  0
 23 19  1  0
M  END
$$$$
