TDD.pdb
     RDKit          3D

 24 23  0  0  1  0  0  0  0  0999 V2000
   17.5451   -6.4608  -18.9271 C   0  0  0  0  0  0  0  0  0  0  0  0
   16.2701   -6.6579  -18.1699 C   0  0  1  0  0  0  0  0  0  0  0  0
   15.2091   -6.5900  -19.0849 O   0  0  0  0  0  0  0  0  0  0  0  0
   16.2474   -8.0253  -17.5287 C   0  0  2  0  0  0  0  0  0  0  0  0
   14.9470   -8.2880  -16.9944 N   0  0  0  0  0  0  0  0  0  0  0  0
   17.2548   -8.1274  -16.4409 C   0  0  0  0  0  0  0  0  0  0  0  0
   17.0766   -7.5943  -15.3009 O   0  0  0  0  0  0  0  0  0  0  0  0
   18.4508   -8.8260  -16.6446 N   0  0  0  0  0  0  0  0  0  0  0  0
   19.5114   -9.0178  -15.7084 C   0  0  1  0  0  0  0  0  0  0  0  0
   20.3477  -10.2218  -16.1550 C   0  0  0  0  0  0  0  0  0  0  0  0
   19.6666  -11.4944  -15.8655 C   0  0  0  0  0  0  0  0  0  0  0  0
   18.8465  -11.5645  -14.9287 O   0  0  0  0  0  0  0  0  0  0  0  0
   20.4093   -7.8371  -15.7504 C   0  0  0  0  0  0  0  0  0  0  0  0
   20.6564   -7.3152  -16.8699 O   0  0  0  0  0  0  0  0  0  0  0  0
   19.9508  -12.6049  -16.6456 O   0  0  0  0  0  0  0  0  0  0  0  0
   20.9739   -7.3094  -14.5741 N   0  0  0  0  0  0  0  0  0  0  0  0
   21.7286   -6.0849  -14.6072 C   0  0  1  0  0  0  0  0  0  0  0  0
   20.8359   -4.9724  -15.0874 C   0  0  0  0  0  0  0  0  0  0  0  0
   21.4298   -3.6380  -15.0040 C   0  0  0  0  0  0  0  0  0  0  0  0
   22.6545   -3.5406  -15.3373 O   0  0  0  0  0  0  0  0  0  0  0  0
   22.2594   -5.8119  -13.2392 C   0  0  0  0  0  0  0  0  0  0  0  0
   23.0519   -4.8578  -13.0319 O   0  0  0  0  0  0  0  0  0  0  0  0
   20.8072   -2.4764  -14.6043 O   0  0  0  0  0  0  0  0  0  0  0  0
   21.9069   -6.5890  -12.1465 O   0  0  0  0  0  0  0  0  0  0  0  0
  2  1  1  6
  3  2  1  0
  4  2  1  0
  4  6  1  0
  4  5  1  1
  6  7  2  0
  8  9  1  0
  8  6  1  0
  9 10  1  6
 10 11  1  0
 11 15  1  0
 12 11  2  0
 13  9  1  0
 14 13  2  0
 16 13  1  0
 17 21  1  0
 17 16  1  0
 17 18  1  1
 19 18  1  0
 20 19  2  0
 21 24  1  0
 22 21  2  0
 23 19  1  0
M  END
$$$$
