TDD.pdb
     RDKit          3D

 24 23  0  0  1  0  0  0  0  0999 V2000
   15.1083   -5.1997   -9.6073 C   0  0  0  0  0  0  0  0  0  0  0  0
   14.8045   -6.1315   -8.4772 C   0  0  1  0  0  0  0  0  0  0  0  0
   13.5948   -5.7249   -7.8951 O   0  0  0  0  0  0  0  0  0  0  0  0
   14.6249   -7.5398   -8.9929 C   0  0  2  0  0  0  0  0  0  0  0  0
   14.3633   -8.4257   -7.9010 N   0  0  0  0  0  0  0  0  0  0  0  0
   15.8329   -8.0045   -9.7234 C   0  0  0  0  0  0  0  0  0  0  0  0
   16.9538   -8.1640   -9.1458 O   0  0  0  0  0  0  0  0  0  0  0  0
   15.7697   -8.2844  -11.0936 N   0  0  0  0  0  0  0  0  0  0  0  0
   16.8435   -8.6813  -11.9464 C   0  0  1  0  0  0  0  0  0  0  0  0
   16.6227  -10.1382  -12.3672 C   0  0  0  0  0  0  0  0  0  0  0  0
   17.7100  -10.6253  -13.2318 C   0  0  0  0  0  0  0  0  0  0  0  0
   17.4442  -11.2695  -14.2660 O   0  0  0  0  0  0  0  0  0  0  0  0
   16.7978   -7.8686  -13.1872 C   0  0  0  0  0  0  0  0  0  0  0  0
   15.7037   -7.7856  -13.8058 O   0  0  0  0  0  0  0  0  0  0  0  0
   19.0241  -10.3583  -12.8791 O   0  0  0  0  0  0  0  0  0  0  0  0
   17.9433   -7.2056  -13.6661 N   0  0  0  0  0  0  0  0  0  0  0  0
   17.8946   -6.4437  -14.8855 C   0  0  1  0  0  0  0  0  0  0  0  0
   18.4364   -5.0643  -14.6229 C   0  0  0  0  0  0  0  0  0  0  0  0
   17.5131   -4.1723  -13.9213 C   0  0  0  0  0  0  0  0  0  0  0  0
   17.9832   -3.5444  -12.9187 O   0  0  0  0  0  0  0  0  0  0  0  0
   18.6893   -7.1567  -15.9284 C   0  0  0  0  0  0  0  0  0  0  0  0
   19.3151   -8.2126  -15.6547 O   0  0  0  0  0  0  0  0  0  0  0  0
   16.1911   -3.9387  -14.2284 O   0  0  0  0  0  0  0  0  0  0  0  0
   18.7731   -6.6928  -17.2323 O   0  0  0  0  0  0  0  0  0  0  0  0
  2  1  1  6
  3  2  1  0
  4  2  1  0
  4  6  1  0
  4  5  1  1
  6  7  2  0
  8  9  1  0
  8  6  1  0
  9 10  1  6
 10 11  1  0
 11 15  1  0
 12 11  2  0
 13  9  1  0
 14 13  2  0
 16 13  1  0
 17 21  1  0
 17 16  1  0
 17 18  1  1
 19 18  1  0
 20 19  2  0
 21 24  1  0
 22 21  2  0
 23 19  1  0
M  END
$$$$
