TDD.pdb
     RDKit          3D

 24 23  0  0  1  0  0  0  0  0999 V2000
   13.8920  -10.9527  -15.7970 C   0  0  0  0  0  0  0  0  0  0  0  0
   13.8043  -12.4301  -15.5798 C   0  0  1  0  0  0  0  0  0  0  0  0
   12.6098  -12.8821  -16.1598 O   0  0  0  0  0  0  0  0  0  0  0  0
   14.9521  -13.1302  -16.2682 C   0  0  2  0  0  0  0  0  0  0  0  0
   14.8219  -14.5455  -16.1086 N   0  0  0  0  0  0  0  0  0  0  0  0
   16.2602  -12.6922  -15.7152 C   0  0  0  0  0  0  0  0  0  0  0  0
   16.6658  -13.0561  -14.5669 O   0  0  0  0  0  0  0  0  0  0  0  0
   17.0982  -11.8507  -16.4565 N   0  0  0  0  0  0  0  0  0  0  0  0
   18.3354  -11.2742  -16.0382 C   0  0  1  0  0  0  0  0  0  0  0  0
   19.2807  -11.2148  -17.2430 C   0  0  0  0  0  0  0  0  0  0  0  0
   20.6009  -10.6793  -16.8724 C   0  0  0  0  0  0  0  0  0  0  0  0
   21.1118  -10.9817  -15.7757 O   0  0  0  0  0  0  0  0  0  0  0  0
   18.0944   -9.8718  -15.6170 C   0  0  0  0  0  0  0  0  0  0  0  0
   17.3325   -9.1596  -16.3233 O   0  0  0  0  0  0  0  0  0  0  0  0
   21.2610   -9.8391  -17.7561 O   0  0  0  0  0  0  0  0  0  0  0  0
   18.6986   -9.3449  -14.4602 N   0  0  0  0  0  0  0  0  0  0  0  0
   18.4802   -7.9756  -14.0766 C   0  0  1  0  0  0  0  0  0  0  0  0
   18.4950   -7.8794  -12.5747 C   0  0  0  0  0  0  0  0  0  0  0  0
   17.2342   -8.2468  -11.9300 C   0  0  0  0  0  0  0  0  0  0  0  0
   16.2523   -8.4906  -12.7026 O   0  0  0  0  0  0  0  0  0  0  0  0
   19.5451   -7.1298  -14.6918 C   0  0  0  0  0  0  0  0  0  0  0  0
   20.5241   -7.6521  -15.2835 O   0  0  0  0  0  0  0  0  0  0  0  0
   16.9951   -8.3576  -10.5782 O   0  0  0  0  0  0  0  0  0  0  0  0
   19.5042   -5.7449  -14.6397 O   0  0  0  0  0  0  0  0  0  0  0  0
  2  1  1  6
  3  2  1  0
  4  2  1  0
  4  6  1  0
  4  5  1  1
  6  7  2  0
  8  9  1  0
  8  6  1  0
  9 10  1  6
 10 11  1  0
 11 15  1  0
 12 11  2  0
 13  9  1  0
 14 13  2  0
 16 13  1  0
 17 21  1  0
 17 16  1  0
 17 18  1  1
 19 18  1  0
 20 19  2  0
 21 24  1  0
 22 21  2  0
 23 19  1  0
M  END
$$$$
