TDD.pdb
     RDKit          3D

 24 23  0  0  1  0  0  0  0  0999 V2000
   20.8896  -15.5536  -14.3896 C   0  0  0  0  0  0  0  0  0  0  0  0
   20.9745  -15.0667  -15.8014 C   0  0  1  0  0  0  0  0  0  0  0  0
   21.0097  -13.6647  -15.7737 O   0  0  0  0  0  0  0  0  0  0  0  0
   22.2500  -15.5534  -16.4479 C   0  0  2  0  0  0  0  0  0  0  0  0
   22.3503  -15.0305  -17.7753 N   0  0  0  0  0  0  0  0  0  0  0  0
   22.2952  -17.0379  -16.5004 C   0  0  0  0  0  0  0  0  0  0  0  0
   21.5404  -17.7114  -17.2700 O   0  0  0  0  0  0  0  0  0  0  0  0
   23.1863  -17.7500  -15.6888 N   0  0  0  0  0  0  0  0  0  0  0  0
   23.3020  -19.1676  -15.5664 C   0  0  1  0  0  0  0  0  0  0  0  0
   24.7137  -19.5036  -15.0739 C   0  0  0  0  0  0  0  0  0  0  0  0
   25.7178  -19.3200  -16.1347 C   0  0  0  0  0  0  0  0  0  0  0  0
   26.7868  -18.7276  -15.8865 O   0  0  0  0  0  0  0  0  0  0  0  0
   22.3626  -19.6381  -14.5185 C   0  0  0  0  0  0  0  0  0  0  0  0
   22.4784  -19.1638  -13.3573 O   0  0  0  0  0  0  0  0  0  0  0  0
   25.4565  -19.8124  -17.4042 O   0  0  0  0  0  0  0  0  0  0  0  0
   21.3665  -20.5896  -14.8074 N   0  0  0  0  0  0  0  0  0  0  0  0
   20.3962  -20.9618  -13.8125 C   0  0  1  0  0  0  0  0  0  0  0  0
   19.5781  -19.7518  -13.4496 C   0  0  0  0  0  0  0  0  0  0  0  0
   18.4153  -20.0347  -12.6079 C   0  0  0  0  0  0  0  0  0  0  0  0
   18.6490  -20.5875  -11.4853 O   0  0  0  0  0  0  0  0  0  0  0  0
   19.5435  -22.0572  -14.3608 C   0  0  0  0  0  0  0  0  0  0  0  0
   19.4474  -22.2425  -15.6008 O   0  0  0  0  0  0  0  0  0  0  0  0
   17.0960  -19.7675  -12.8989 O   0  0  0  0  0  0  0  0  0  0  0  0
   18.8262  -22.9113  -13.5372 O   0  0  0  0  0  0  0  0  0  0  0  0
  2  1  1  1
  3  2  1  0
  4  2  1  0
  4  6  1  0
  4  5  1  6
  6  7  2  0
  8  9  1  0
  8  6  1  0
  9 10  1  1
 10 11  1  0
 11 15  1  0
 12 11  2  0
 13  9  1  0
 14 13  2  0
 16 13  1  0
 17 21  1  0
 17 16  1  0
 17 18  1  6
 19 18  1  0
 20 19  2  0
 21 24  1  0
 22 21  2  0
 23 19  1  0
M  END
$$$$
