TDD.pdb
     RDKit          3D

 24 23  0  0  1  0  0  0  0  0999 V2000
   15.7657   -5.3811   -9.2027 C   0  0  0  0  0  0  0  0  0  0  0  0
   15.1200   -6.3901   -8.3069 C   0  0  1  0  0  0  0  0  0  0  0  0
   13.9717   -5.8047   -7.7535 O   0  0  0  0  0  0  0  0  0  0  0  0
   14.6903   -7.5994   -9.1035 C   0  0  2  0  0  0  0  0  0  0  0  0
   14.0721   -8.5552   -8.2375 N   0  0  0  0  0  0  0  0  0  0  0  0
   15.8475   -8.2332   -9.7876 C   0  0  0  0  0  0  0  0  0  0  0  0
   16.7455   -8.8684   -9.1507 O   0  0  0  0  0  0  0  0  0  0  0  0
   15.9843   -8.1468  -11.1781 N   0  0  0  0  0  0  0  0  0  0  0  0
   17.0490   -8.6628  -11.9769 C   0  0  1  0  0  0  0  0  0  0  0  0
   16.4474   -9.4255  -13.1622 C   0  0  0  0  0  0  0  0  0  0  0  0
   15.9019  -10.7291  -12.7497 C   0  0  0  0  0  0  0  0  0  0  0  0
   16.6430  -11.5722  -12.2065 O   0  0  0  0  0  0  0  0  0  0  0  0
   17.8165   -7.5278  -12.5468 C   0  0  0  0  0  0  0  0  0  0  0  0
   17.1804   -6.5101  -12.9293 O   0  0  0  0  0  0  0  0  0  0  0  0
   14.5610  -11.0014  -12.9742 O   0  0  0  0  0  0  0  0  0  0  0  0
   19.2184   -7.5806  -12.6602 N   0  0  0  0  0  0  0  0  0  0  0  0
   19.9520   -6.4754  -13.2171 C   0  0  1  0  0  0  0  0  0  0  0  0
   21.3640   -6.5133  -12.6972 C   0  0  0  0  0  0  0  0  0  0  0  0
   22.2449   -5.4877  -13.2561 C   0  0  0  0  0  0  0  0  0  0  0  0
   22.0268   -4.2895  -12.8854 O   0  0  0  0  0  0  0  0  0  0  0  0
   19.9118   -6.5748  -14.7057 C   0  0  0  0  0  0  0  0  0  0  0  0
   19.8151   -7.6910  -15.2767 O   0  0  0  0  0  0  0  0  0  0  0  0
   23.2842   -5.6784  -14.1394 O   0  0  0  0  0  0  0  0  0  0  0  0
   19.9786   -5.4534  -15.5184 O   0  0  0  0  0  0  0  0  0  0  0  0
  2  1  1  6
  3  2  1  0
  4  2  1  0
  4  6  1  0
  4  5  1  1
  6  7  2  0
  8  9  1  0
  8  6  1  0
  9 10  1  6
 10 11  1  0
 11 15  1  0
 12 11  2  0
 13  9  1  0
 14 13  2  0
 16 13  1  0
 17 21  1  0
 17 16  1  0
 17 18  1  1
 19 18  1  0
 20 19  2  0
 21 24  1  0
 22 21  2  0
 23 19  1  0
M  END
$$$$
