TDD.pdb
     RDKit          3D

 24 23  0  0  1  0  0  0  0  0999 V2000
   14.7972  -10.7171  -17.4396 C   0  0  0  0  0  0  0  0  0  0  0  0
   15.8547   -9.9998  -16.6620 C   0  0  1  0  0  0  0  0  0  0  0  0
   15.2500   -9.4347  -15.5295 O   0  0  0  0  0  0  0  0  0  0  0  0
   16.9102  -10.9726  -16.1916 C   0  0  2  0  0  0  0  0  0  0  0  0
   16.3087  -11.9843  -15.3791 N   0  0  0  0  0  0  0  0  0  0  0  0
   17.9701  -10.2824  -15.4115 C   0  0  0  0  0  0  0  0  0  0  0  0
   17.9043  -10.1504  -14.1490 O   0  0  0  0  0  0  0  0  0  0  0  0
   19.0916   -9.7475  -16.0565 N   0  0  0  0  0  0  0  0  0  0  0  0
   20.2436   -9.1638  -15.4482 C   0  0  1  0  0  0  0  0  0  0  0  0
   21.4967   -9.7868  -16.0727 C   0  0  0  0  0  0  0  0  0  0  0  0
   22.7274   -9.2788  -15.4447 C   0  0  0  0  0  0  0  0  0  0  0  0
   22.6681   -8.6688  -14.3586 O   0  0  0  0  0  0  0  0  0  0  0  0
   20.2795   -7.7169  -15.7759 C   0  0  0  0  0  0  0  0  0  0  0  0
   20.2270   -7.3785  -16.9881 O   0  0  0  0  0  0  0  0  0  0  0  0
   23.9438   -9.4879  -16.0766 O   0  0  0  0  0  0  0  0  0  0  0  0
   20.3703   -6.7430  -14.7638 N   0  0  0  0  0  0  0  0  0  0  0  0
   20.4762   -5.3471  -15.0955 C   0  0  1  0  0  0  0  0  0  0  0  0
   19.2880   -4.6176  -14.5289 C   0  0  0  0  0  0  0  0  0  0  0  0
   19.2912   -3.1741  -14.7669 C   0  0  0  0  0  0  0  0  0  0  0  0
   20.1286   -2.7425  -15.6230 O   0  0  0  0  0  0  0  0  0  0  0  0
   21.7589   -4.8194  -14.5443 C   0  0  0  0  0  0  0  0  0  0  0  0
   22.1044   -3.6263  -14.7401 O   0  0  0  0  0  0  0  0  0  0  0  0
   18.4863   -2.2323  -14.1651 O   0  0  0  0  0  0  0  0  0  0  0  0
   22.6190   -5.6119  -13.7995 O   0  0  0  0  0  0  0  0  0  0  0  0
  2  1  1  1
  3  2  1  0
  4  2  1  0
  4  6  1  0
  4  5  1  1
  6  7  2  0
  8  9  1  0
  8  6  1  0
  9 10  1  6
 10 11  1  0
 11 15  1  0
 12 11  2  0
 13  9  1  0
 14 13  2  0
 16 13  1  0
 17 21  1  0
 17 16  1  0
 17 18  1  1
 19 18  1  0
 20 19  2  0
 21 24  1  0
 22 21  2  0
 23 19  1  0
M  END
$$$$
