TDD.pdb
     RDKit          3D

 24 23  0  0  1  0  0  0  0  0999 V2000
   17.9987  -15.6111  -15.9722 C   0  0  0  0  0  0  0  0  0  0  0  0
   18.8044  -14.5361  -16.6301 C   0  0  1  0  0  0  0  0  0  0  0  0
   18.1853  -14.2156  -17.8472 O   0  0  0  0  0  0  0  0  0  0  0  0
   18.8198  -13.2931  -15.7720 C   0  0  2  0  0  0  0  0  0  0  0  0
   17.4818  -12.8349  -15.5592 N   0  0  0  0  0  0  0  0  0  0  0  0
   19.6145  -12.2096  -16.4070 C   0  0  0  0  0  0  0  0  0  0  0  0
   20.8522  -12.3401  -16.6652 O   0  0  0  0  0  0  0  0  0  0  0  0
   19.0118  -10.9920  -16.7445 N   0  0  0  0  0  0  0  0  0  0  0  0
   19.6447   -9.8350  -17.2912 C   0  0  1  0  0  0  0  0  0  0  0  0
   18.8794   -9.4049  -18.5473 C   0  0  0  0  0  0  0  0  0  0  0  0
   19.4982   -8.2319  -19.1862 C   0  0  0  0  0  0  0  0  0  0  0  0
   20.5896   -8.3468  -19.7784 O   0  0  0  0  0  0  0  0  0  0  0  0
   19.5291   -8.7193  -16.3197 C   0  0  0  0  0  0  0  0  0  0  0  0
   18.4842   -8.6433  -15.6204 O   0  0  0  0  0  0  0  0  0  0  0  0
   18.8524   -7.0068  -19.1181 O   0  0  0  0  0  0  0  0  0  0  0  0
   20.5560   -7.7671  -16.1788 N   0  0  0  0  0  0  0  0  0  0  0  0
   20.4774   -6.7469  -15.1674 C   0  0  1  0  0  0  0  0  0  0  0  0
   21.8570   -6.4890  -14.6238 C   0  0  0  0  0  0  0  0  0  0  0  0
   21.9166   -5.4683  -13.5773 C   0  0  0  0  0  0  0  0  0  0  0  0
   20.8011   -5.0556  -13.1237 O   0  0  0  0  0  0  0  0  0  0  0  0
   19.8864   -5.5170  -15.7721 C   0  0  0  0  0  0  0  0  0  0  0  0
   20.1856   -5.1636  -16.9412 O   0  0  0  0  0  0  0  0  0  0  0  0
   23.0487   -4.9064  -13.0302 O   0  0  0  0  0  0  0  0  0  0  0  0
   18.9903   -4.7165  -15.0802 O   0  0  0  0  0  0  0  0  0  0  0  0
  2  1  1  1
  3  2  1  0
  4  2  1  0
  4  6  1  0
  4  5  1  6
  6  7  2  0
  8  9  1  0
  8  6  1  0
  9 10  1  6
 10 11  1  0
 11 15  1  0
 12 11  2  0
 13  9  1  0
 14 13  2  0
 16 13  1  0
 17 21  1  0
 17 16  1  0
 17 18  1  6
 19 18  1  0
 20 19  2  0
 21 24  1  0
 22 21  2  0
 23 19  1  0
M  END
$$$$
