TDD.pdb
     RDKit          3D

 24 23  0  0  1  0  0  0  0  0999 V2000
   26.7439   -8.8200  -16.2450 C   0  0  0  0  0  0  0  0  0  0  0  0
   27.0423  -10.1750  -16.8040 C   0  0  1  0  0  0  0  0  0  0  0  0
   28.3754  -10.4852  -16.4971 O   0  0  0  0  0  0  0  0  0  0  0  0
   26.1595  -11.2154  -16.1560 C   0  0  2  0  0  0  0  0  0  0  0  0
   26.5562  -12.5214  -16.5834 N   0  0  0  0  0  0  0  0  0  0  0  0
   24.7300  -10.9995  -16.5004 C   0  0  0  0  0  0  0  0  0  0  0  0
   24.2242  -11.4215  -17.5874 O   0  0  0  0  0  0  0  0  0  0  0  0
   23.8843  -10.3122  -15.6216 N   0  0  0  0  0  0  0  0  0  0  0  0
   22.5264   -9.9330  -15.8460 C   0  0  1  0  0  0  0  0  0  0  0  0
   21.6448  -10.6259  -14.8014 C   0  0  0  0  0  0  0  0  0  0  0  0
   20.2153  -10.3646  -15.0367 C   0  0  0  0  0  0  0  0  0  0  0  0
   19.7276  -10.5377  -16.1713 O   0  0  0  0  0  0  0  0  0  0  0  0
   22.3905   -8.4732  -15.6163 C   0  0  0  0  0  0  0  0  0  0  0  0
   23.0316   -7.9573  -14.6626 O   0  0  0  0  0  0  0  0  0  0  0  0
   19.4270   -9.9258  -13.9838 O   0  0  0  0  0  0  0  0  0  0  0  0
   21.5682   -7.6801  -16.4384 N   0  0  0  0  0  0  0  0  0  0  0  0
   21.4762   -6.2592  -16.2325 C   0  0  1  0  0  0  0  0  0  0  0  0
   21.6492   -5.5607  -17.5544 C   0  0  0  0  0  0  0  0  0  0  0  0
   21.5650   -4.1017  -17.4862 C   0  0  0  0  0  0  0  0  0  0  0  0
   20.6117   -3.6206  -16.7931 O   0  0  0  0  0  0  0  0  0  0  0  0
   20.1527   -5.9489  -15.6162 C   0  0  0  0  0  0  0  0  0  0  0  0
   19.1121   -6.5531  -15.9811 O   0  0  0  0  0  0  0  0  0  0  0  0
   22.4054   -3.1932  -18.0903 O   0  0  0  0  0  0  0  0  0  0  0  0
   20.0116   -4.9906  -14.6241 O   0  0  0  0  0  0  0  0  0  0  0  0
  2  1  1  1
  3  2  1  0
  4  2  1  0
  4  6  1  0
  4  5  1  6
  6  7  2  0
  8  9  1  0
  8  6  1  0
  9 10  1  1
 10 11  1  0
 11 15  1  0
 12 11  2  0
 13  9  1  0
 14 13  2  0
 16 13  1  0
 17 21  1  0
 17 16  1  0
 17 18  1  6
 19 18  1  0
 20 19  2  0
 21 24  1  0
 22 21  2  0
 23 19  1  0
M  END
$$$$
