MLV.pdb
     RDKit          3D

 24 23  0  0  1  0  0  0  0  0999 V2000
   18.3257  -21.0308  -12.5293 C   0  0  0  0  0  0  0  0  0  0  0  0
   18.8817  -19.5621  -13.4375 S   0  0  0  0  0  0  0  0  0  0  0  0
   20.3476  -19.9408  -14.4259 C   0  0  0  0  0  0  0  0  0  0  0  0
   21.4134  -20.4705  -13.5056 C   0  0  0  0  0  0  0  0  0  0  0  0
   22.6694  -20.7064  -14.3509 C   0  0  2  0  0  0  0  0  0  0  0  0
   22.4006  -21.7764  -15.2626 N   0  0  0  0  0  0  0  0  0  0  0  0
   23.7950  -21.0179  -13.4264 C   0  0  0  0  0  0  0  0  0  0  0  0
   23.6056  -21.9211  -12.5755 O   0  0  0  0  0  0  0  0  0  0  0  0
   28.0757  -22.1380  -14.6684 C   0  0  0  0  0  0  0  0  0  0  0  0
   27.8752  -20.6693  -14.5122 C   0  0  2  0  0  0  0  0  0  0  0  0
   29.2264  -20.0038  -14.8315 C   0  0  0  0  0  0  0  0  0  0  0  0
   27.4947  -20.1872  -13.1640 C   0  0  0  0  0  0  0  0  0  0  0  0
   26.1495  -20.4668  -12.6459 C   0  0  2  0  0  0  0  0  0  0  0  0
   25.0260  -20.3185  -13.5107 N   0  0  0  0  0  0  0  0  0  0  0  0
   25.9745  -19.8788  -11.2866 C   0  0  0  0  0  0  0  0  0  0  0  0
   25.6750  -18.6391  -11.1759 O   0  0  0  0  0  0  0  0  0  0  0  0
   23.6016  -20.4762   -8.7366 C   0  0  0  0  0  0  0  0  0  0  0  0
   24.8946  -20.5438   -7.9142 C   0  0  1  0  0  0  0  0  0  0  0  0
   25.1946  -21.9912   -7.6452 C   0  0  0  0  0  0  0  0  0  0  0  0
   25.9435  -19.8730   -8.7725 C   0  0  2  0  0  0  0  0  0  0  0  0
   26.1168  -20.5681  -10.0611 N   0  0  0  0  0  0  0  0  0  0  0  0
   27.2275  -19.9629   -8.0496 C   0  0  0  0  0  0  0  0  0  0  0  0
   28.1213  -20.7250   -8.4807 O   0  0  0  0  0  0  0  0  0  0  0  0
   27.4993  -19.2397   -6.9052 O   0  0  0  0  0  0  0  0  0  0  0  0
  2  3  1  0
  2  1  1  0
  4  5  1  0
  4  3  1  0
  5  6  1  6
  7  8  2  0
  7  5  1  0
 10  9  1  1
 10 12  1  0
 10 11  1  0
 13 12  1  6
 13 14  1  0
 14  7  1  0
 15 16  2  0
 15 13  1  0
 18 17  1  6
 18 20  1  0
 19 18  1  0
 20 22  1  0
 20 21  1  6
 21 15  1  0
 22 24  1  0
 23 22  2  0
M  END
$$$$
