MLV.pdb
     RDKit          3D

 24 23  0  0  1  0  0  0  0  0999 V2000
   17.9495  -20.2895  -20.2429 C   0  0  0  0  0  0  0  0  0  0  0  0
   17.8792  -21.4081  -18.8165 S   0  0  0  0  0  0  0  0  0  0  0  0
   19.4867  -21.4931  -17.9932 C   0  0  0  0  0  0  0  0  0  0  0  0
   19.9116  -20.0933  -17.6418 C   0  0  0  0  0  0  0  0  0  0  0  0
   21.3276  -20.1787  -17.0626 C   0  0  2  0  0  0  0  0  0  0  0  0
   21.2766  -20.9697  -15.8710 N   0  0  0  0  0  0  0  0  0  0  0  0
   21.8033  -18.7913  -16.8027 C   0  0  0  0  0  0  0  0  0  0  0  0
   20.9434  -17.9453  -16.4558 O   0  0  0  0  0  0  0  0  0  0  0  0
   27.2028  -15.5985  -16.0030 C   0  0  0  0  0  0  0  0  0  0  0  0
   25.7390  -15.6615  -16.2765 C   0  0  2  0  0  0  0  0  0  0  0  0
   25.0370  -15.0112  -15.0703 C   0  0  0  0  0  0  0  0  0  0  0  0
   25.1429  -17.0110  -16.4130 C   0  0  0  0  0  0  0  0  0  0  0  0
   23.7401  -17.1467  -16.8251 C   0  0  2  0  0  0  0  0  0  0  0  0
   23.1725  -18.4489  -16.9438 N   0  0  0  0  0  0  0  0  0  0  0  0
   23.4301  -16.2239  -17.9550 C   0  0  0  0  0  0  0  0  0  0  0  0
   24.0288  -16.3845  -19.0751 O   0  0  0  0  0  0  0  0  0  0  0  0
   20.6256  -15.7509  -20.0737 C   0  0  0  0  0  0  0  0  0  0  0  0
   20.8501  -14.3279  -19.5471 C   0  0  1  0  0  0  0  0  0  0  0  0
   19.8835  -14.0954  -18.4206 C   0  0  0  0  0  0  0  0  0  0  0  0
   22.2949  -14.2956  -19.1015 C   0  0  2  0  0  0  0  0  0  0  0  0
   22.5174  -15.1456  -17.9175 N   0  0  0  0  0  0  0  0  0  0  0  0
   22.6036  -12.9065  -18.7084 C   0  0  0  0  0  0  0  0  0  0  0  0
   22.6426  -12.6078  -17.4939 O   0  0  0  0  0  0  0  0  0  0  0  0
   22.8556  -11.9035  -19.6233 O   0  0  0  0  0  0  0  0  0  0  0  0
  2  3  1  0
  2  1  1  0
  4  5  1  0
  4  3  1  0
  5  6  1  1
  7  8  2  0
  7  5  1  0
 10  9  1  1
 10 12  1  0
 10 11  1  0
 13 12  1  6
 13 14  1  0
 14  7  1  0
 15 16  2  0
 15 13  1  0
 18 17  1  1
 18 20  1  0
 19 18  1  0
 20 22  1  0
 20 21  1  1
 21 15  1  0
 22 24  1  0
 23 22  2  0
M  END
$$$$
