MLV.pdb
     RDKit          3D

 24 23  0  0  1  0  0  0  0  0999 V2000
   24.3830  -20.6915   -8.8451 C   0  0  0  0  0  0  0  0  0  0  0  0
   22.5865  -20.8464   -9.0435 S   0  0  0  0  0  0  0  0  0  0  0  0
   22.1524  -21.0438  -10.7876 C   0  0  0  0  0  0  0  0  0  0  0  0
   23.0659  -20.1698  -11.6031 C   0  0  0  0  0  0  0  0  0  0  0  0
   22.6321  -20.2980  -13.0671 C   0  0  2  0  0  0  0  0  0  0  0  0
   22.5355  -21.6901  -13.3848 N   0  0  0  0  0  0  0  0  0  0  0  0
   23.6382  -19.5924  -13.9089 C   0  0  0  0  0  0  0  0  0  0  0  0
   23.6989  -18.3431  -13.8047 O   0  0  0  0  0  0  0  0  0  0  0  0
   27.9209  -19.3624  -13.4579 C   0  0  0  0  0  0  0  0  0  0  0  0
   27.5121  -20.5787  -14.2162 C   0  0  2  0  0  0  0  0  0  0  0  0
   28.7996  -21.3732  -14.5020 C   0  0  0  0  0  0  0  0  0  0  0  0
   26.8704  -20.3598  -15.5335 C   0  0  0  0  0  0  0  0  0  0  0  0
   25.5287  -19.7666  -15.5978 C   0  0  2  0  0  0  0  0  0  0  0  0
   24.4881  -20.3100  -14.7890 N   0  0  0  0  0  0  0  0  0  0  0  0
   25.1418  -19.4879  -17.0109 C   0  0  0  0  0  0  0  0  0  0  0  0
   25.2471  -20.4193  -17.8828 O   0  0  0  0  0  0  0  0  0  0  0  0
   22.4041  -16.7607  -18.1012 C   0  0  0  0  0  0  0  0  0  0  0  0
   22.7334  -17.9408  -19.0240 C   0  0  1  0  0  0  0  0  0  0  0  0
   22.2860  -17.5794  -20.4121 C   0  0  0  0  0  0  0  0  0  0  0  0
   24.2309  -18.1212  -18.9145 C   0  0  2  0  0  0  0  0  0  0  0  0
   24.6605  -18.2568  -17.5106 N   0  0  0  0  0  0  0  0  0  0  0  0
   24.8621  -16.8989  -19.4502 C   0  0  0  0  0  0  0  0  0  0  0  0
   25.2091  -15.9922  -18.6608 O   0  0  0  0  0  0  0  0  0  0  0  0
   25.0936  -16.6993  -20.7967 O   0  0  0  0  0  0  0  0  0  0  0  0
  2  3  1  0
  2  1  1  0
  4  5  1  0
  4  3  1  0
  5  6  1  6
  7  8  2  0
  7  5  1  0
 10  9  1  6
 10 12  1  0
 10 11  1  0
 13 12  1  6
 13 14  1  0
 14  7  1  0
 15 16  2  0
 15 13  1  0
 18 17  1  1
 18 20  1  0
 19 18  1  0
 20 22  1  0
 20 21  1  1
 21 15  1  0
 22 24  1  0
 23 22  2  0
M  END
$$$$
