MLV.pdb
     RDKit          3D

 24 23  0  0  1  0  0  0  0  0999 V2000
   28.9077  -13.4120  -25.0226 C   0  0  0  0  0  0  0  0  0  0  0  0
   27.3386  -13.3272  -24.1162 S   0  0  0  0  0  0  0  0  0  0  0  0
   27.3537  -14.4613  -22.7081 C   0  0  0  0  0  0  0  0  0  0  0  0
   27.7921  -13.6952  -21.4897 C   0  0  0  0  0  0  0  0  0  0  0  0
   28.9608  -14.4637  -20.8643 C   0  0  2  0  0  0  0  0  0  0  0  0
   28.4233  -15.5136  -20.0537 N   0  0  0  0  0  0  0  0  0  0  0  0
   29.7767  -13.4989  -20.0754 C   0  0  0  0  0  0  0  0  0  0  0  0
   29.2681  -13.0442  -19.0218 O   0  0  0  0  0  0  0  0  0  0  0  0
   34.0228  -14.2009  -18.5177 C   0  0  0  0  0  0  0  0  0  0  0  0
   34.0582  -13.6119  -19.8863 C   0  0  2  0  0  0  0  0  0  0  0  0
   35.5415  -13.3810  -20.2284 C   0  0  0  0  0  0  0  0  0  0  0  0
   33.3921  -12.3008  -20.0662 C   0  0  0  0  0  0  0  0  0  0  0  0
   31.9428  -12.1883  -19.8586 C   0  0  2  0  0  0  0  0  0  0  0  0
   31.0733  -13.1154  -20.5040 N   0  0  0  0  0  0  0  0  0  0  0  0
   31.5073  -10.7640  -19.9363 C   0  0  0  0  0  0  0  0  0  0  0  0
   31.5958  -10.1437  -21.0526 O   0  0  0  0  0  0  0  0  0  0  0  0
   28.1845   -9.3161  -19.2309 C   0  0  0  0  0  0  0  0  0  0  0  0
   29.1442   -8.4140  -18.4447 C   0  0  1  0  0  0  0  0  0  0  0  0
   29.1042   -8.8424  -17.0051 C   0  0  0  0  0  0  0  0  0  0  0  0
   30.4975   -8.6243  -19.0860 C   0  0  2  0  0  0  0  0  0  0  0  0
   30.9953   -9.9947  -18.8672 N   0  0  0  0  0  0  0  0  0  0  0  0
   31.4448   -7.7032  -18.4274 C   0  0  0  0  0  0  0  0  0  0  0  0
   31.3590   -6.4747  -18.6487 O   0  0  0  0  0  0  0  0  0  0  0  0
   32.4360   -8.1314  -17.5667 O   0  0  0  0  0  0  0  0  0  0  0  0
  2  3  1  0
  2  1  1  0
  4  5  1  0
  4  3  1  0
  5  6  1  1
  7  8  2  0
  7  5  1  0
 10  9  1  1
 10 12  1  0
 10 11  1  0
 13 12  1  6
 13 14  1  0
 14  7  1  0
 15 16  2  0
 15 13  1  0
 18 17  1  6
 18 20  1  0
 19 18  1  0
 20 22  1  0
 20 21  1  1
 21 15  1  0
 22 24  1  0
 23 22  2  0
M  END
$$$$
