MLV.pdb
     RDKit          3D

 24 23  0  0  1  0  0  0  0  0999 V2000
   26.1764  -16.7428  -18.0265 C   0  0  0  0  0  0  0  0  0  0  0  0
   27.6292  -16.3076  -17.0312 S   0  0  0  0  0  0  0  0  0  0  0  0
   28.3243  -17.7779  -16.2410 C   0  0  0  0  0  0  0  0  0  0  0  0
   27.1881  -18.6740  -15.8290 C   0  0  0  0  0  0  0  0  0  0  0  0
   27.7748  -19.7728  -14.9368 C   0  0  2  0  0  0  0  0  0  0  0  0
   28.5928  -20.6201  -15.7499 N   0  0  0  0  0  0  0  0  0  0  0  0
   26.6427  -20.5097  -14.3091 C   0  0  0  0  0  0  0  0  0  0  0  0
   26.2265  -21.5351  -14.9015 O   0  0  0  0  0  0  0  0  0  0  0  0
   26.4587  -22.1892  -10.1236 C   0  0  0  0  0  0  0  0  0  0  0  0
   25.9597  -20.7848  -10.1125 C   0  0  2  0  0  0  0  0  0  0  0  0
   25.4954  -20.4935   -8.6737 C   0  0  0  0  0  0  0  0  0  0  0  0
   24.7989  -20.4821  -10.9819 C   0  0  0  0  0  0  0  0  0  0  0  0
   24.9269  -20.6204  -12.4382 C   0  0  2  0  0  0  0  0  0  0  0  0
   26.0648  -20.0647  -13.0926 N   0  0  0  0  0  0  0  0  0  0  0  0
   23.6238  -20.3490  -13.1109 C   0  0  0  0  0  0  0  0  0  0  0  0
   23.1977  -19.1441  -13.1845 O   0  0  0  0  0  0  0  0  0  0  0  0
   21.5008  -23.1885  -15.2685 C   0  0  0  0  0  0  0  0  0  0  0  0
   21.3991  -21.7212  -15.7038 C   0  0  1  0  0  0  0  0  0  0  0  0
   20.0584  -21.5249  -16.3530 C   0  0  0  0  0  0  0  0  0  0  0  0
   21.5619  -20.9202  -14.4314 C   0  0  2  0  0  0  0  0  0  0  0  0
   22.7734  -21.3173  -13.6908 N   0  0  0  0  0  0  0  0  0  0  0  0
   20.4022  -21.2222  -13.5694 C   0  0  0  0  0  0  0  0  0  0  0  0
   20.5190  -22.0762  -12.6623 O   0  0  0  0  0  0  0  0  0  0  0  0
   19.1762  -20.6033  -13.7126 O   0  0  0  0  0  0  0  0  0  0  0  0
  2  3  1  0
  2  1  1  0
  4  5  1  0
  4  3  1  0
  5  6  1  6
  7  8  2  0
  7  5  1  0
 10  9  1  1
 10 12  1  0
 10 11  1  0
 13 12  1  1
 13 14  1  0
 14  7  1  0
 15 16  2  0
 15 13  1  0
 18 17  1  1
 18 20  1  0
 19 18  1  0
 20 22  1  0
 20 21  1  1
 21 15  1  0
 22 24  1  0
 23 22  2  0
M  END
$$$$
