MLV.pdb
     RDKit          3D

 24 23  0  0  1  0  0  0  0  0999 V2000
   23.3819  -28.8513  -12.8123 C   0  0  0  0  0  0  0  0  0  0  0  0
   21.7121  -28.8647  -13.5210 S   0  0  0  0  0  0  0  0  0  0  0  0
   21.2593  -27.2188  -14.1170 C   0  0  0  0  0  0  0  0  0  0  0  0
   22.1475  -26.2108  -13.4399 C   0  0  0  0  0  0  0  0  0  0  0  0
   22.7812  -25.3509  -14.5385 C   0  0  2  0  0  0  0  0  0  0  0  0
   24.1121  -25.8252  -14.7659 N   0  0  0  0  0  0  0  0  0  0  0  0
   22.7540  -23.9320  -14.0859 C   0  0  0  0  0  0  0  0  0  0  0  0
   21.6325  -23.4368  -13.8167 O   0  0  0  0  0  0  0  0  0  0  0  0
   24.4903  -21.5880  -10.3862 C   0  0  0  0  0  0  0  0  0  0  0  0
   25.4434  -21.9615  -11.4695 C   0  0  2  0  0  0  0  0  0  0  0  0
   26.8315  -21.4647  -11.0257 C   0  0  0  0  0  0  0  0  0  0  0  0
   25.2060  -21.3621  -12.8034 C   0  0  0  0  0  0  0  0  0  0  0  0
   24.0574  -21.8047  -13.6041 C   0  0  2  0  0  0  0  0  0  0  0  0
   23.9502  -23.1791  -13.9667 N   0  0  0  0  0  0  0  0  0  0  0  0
   23.7829  -20.8427  -14.7102 C   0  0  0  0  0  0  0  0  0  0  0  0
   24.7568  -20.4150  -15.4225 O   0  0  0  0  0  0  0  0  0  0  0  0
   21.9185  -21.3783  -17.6643 C   0  0  0  0  0  0  0  0  0  0  0  0
   21.3331  -20.0339  -17.2138 C   0  0  1  0  0  0  0  0  0  0  0  0
   20.0012  -20.3028  -16.5727 C   0  0  0  0  0  0  0  0  0  0  0  0
   22.3489  -19.4650  -16.2487 C   0  0  2  0  0  0  0  0  0  0  0  0
   22.5156  -20.3274  -15.0645 N   0  0  0  0  0  0  0  0  0  0  0  0
   21.8283  -18.1669  -15.7760 C   0  0  0  0  0  0  0  0  0  0  0  0
   21.4845  -18.0438  -14.5792 O   0  0  0  0  0  0  0  0  0  0  0  0
   21.6985  -17.0640  -16.5966 O   0  0  0  0  0  0  0  0  0  0  0  0
  2  3  1  0
  2  1  1  0
  4  5  1  0
  4  3  1  0
  5  6  1  1
  7  8  2  0
  7  5  1  0
 10  9  1  1
 10 12  1  0
 10 11  1  0
 13 12  1  6
 13 14  1  0
 14  7  1  0
 15 16  2  0
 15 13  1  0
 18 17  1  1
 18 20  1  0
 19 18  1  0
 20 22  1  0
 20 21  1  1
 21 15  1  0
 22 24  1  0
 23 22  2  0
M  END
$$$$
