MLV.pdb
     RDKit          3D

 24 23  0  0  1  0  0  0  0  0999 V2000
   18.5698  -25.1171  -11.4161 C   0  0  0  0  0  0  0  0  0  0  0  0
   17.9514  -25.3591   -9.7279 S   0  0  0  0  0  0  0  0  0  0  0  0
   19.0425  -24.5591   -8.5285 C   0  0  0  0  0  0  0  0  0  0  0  0
   19.7526  -23.4264   -9.2185 C   0  0  0  0  0  0  0  0  0  0  0  0
   20.7654  -22.8500   -8.2237 C   0  0  2  0  0  0  0  0  0  0  0  0
   20.0506  -22.3961   -7.0699 N   0  0  0  0  0  0  0  0  0  0  0  0
   21.5032  -21.7489   -8.9035 C   0  0  0  0  0  0  0  0  0  0  0  0
   20.8889  -20.6683   -9.0777 O   0  0  0  0  0  0  0  0  0  0  0  0
   25.2983  -19.2564   -8.1230 C   0  0  0  0  0  0  0  0  0  0  0  0
   25.5856  -20.6169   -8.6597 C   0  0  2  0  0  0  0  0  0  0  0  0
   27.1156  -20.7235   -8.7943 C   0  0  0  0  0  0  0  0  0  0  0  0
   25.0379  -20.9355   -9.9989 C   0  0  0  0  0  0  0  0  0  0  0  0
   23.5852  -21.0491  -10.1810 C   0  0  2  0  0  0  0  0  0  0  0  0
   22.8438  -21.9227   -9.3329 N   0  0  0  0  0  0  0  0  0  0  0  0
   23.2402  -21.1412  -11.6290 C   0  0  0  0  0  0  0  0  0  0  0  0
   23.5562  -22.1967  -12.2806 O   0  0  0  0  0  0  0  0  0  0  0  0
   21.0381  -18.2574  -13.8869 C   0  0  0  0  0  0  0  0  0  0  0  0
   20.7591  -19.7608  -14.0092 C   0  0  1  0  0  0  0  0  0  0  0  0
   20.2320  -20.0207  -15.3920 C   0  0  0  0  0  0  0  0  0  0  0  0
   22.0893  -20.4313  -13.7486 C   0  0  2  0  0  0  0  0  0  0  0  0
   22.5839  -20.1469  -12.3891 N   0  0  0  0  0  0  0  0  0  0  0  0
   23.0642  -19.8597  -14.6985 C   0  0  0  0  0  0  0  0  0  0  0  0
   23.9061  -19.0303  -14.2874 O   0  0  0  0  0  0  0  0  0  0  0  0
   23.0973  -20.1966  -16.0371 O   0  0  0  0  0  0  0  0  0  0  0  0
  2  3  1  0
  2  1  1  0
  4  5  1  0
  4  3  1  0
  5  6  1  1
  7  8  2  0
  7  5  1  0
 10  9  1  6
 10 12  1  0
 10 11  1  0
 13 12  1  6
 13 14  1  0
 14  7  1  0
 15 16  2  0
 15 13  1  0
 18 17  1  6
 18 20  1  0
 19 18  1  0
 20 22  1  0
 20 21  1  1
 21 15  1  0
 22 24  1  0
 23 22  2  0
M  END
$$$$
