MLV.pdb
     RDKit          3D

 24 23  0  0  1  0  0  0  0  0999 V2000
   26.0039  -18.3942  -19.5433 C   0  0  0  0  0  0  0  0  0  0  0  0
   27.4799  -17.6490  -18.7971 S   0  0  0  0  0  0  0  0  0  0  0  0
   28.3067  -18.8288  -17.7045 C   0  0  0  0  0  0  0  0  0  0  0  0
   27.2570  -19.5285  -16.8847 C   0  0  0  0  0  0  0  0  0  0  0  0
   27.9870  -20.3925  -15.8511 C   0  0  2  0  0  0  0  0  0  0  0  0
   28.6406  -21.4612  -16.5430 N   0  0  0  0  0  0  0  0  0  0  0  0
   26.9809  -20.8839  -14.8687 C   0  0  0  0  0  0  0  0  0  0  0  0
   26.1656  -21.7511  -15.2673 O   0  0  0  0  0  0  0  0  0  0  0  0
   25.4275  -20.0315   -8.7645 C   0  0  0  0  0  0  0  0  0  0  0  0
   25.2163  -20.6222  -10.1165 C   0  0  2  0  0  0  0  0  0  0  0  0
   25.3080  -22.1499   -9.9491 C   0  0  0  0  0  0  0  0  0  0  0  0
   26.2057  -20.2690  -11.1612 C   0  0  0  0  0  0  0  0  0  0  0  0
   25.9515  -20.6435  -12.5581 C   0  0  2  0  0  0  0  0  0  0  0  0
   26.9523  -20.3875  -13.5404 N   0  0  0  0  0  0  0  0  0  0  0  0
   24.5668  -20.2652  -12.9625 C   0  0  0  0  0  0  0  0  0  0  0  0
   24.2641  -19.0261  -13.0708 O   0  0  0  0  0  0  0  0  0  0  0  0
   22.7539  -20.8345  -15.9902 C   0  0  0  0  0  0  0  0  0  0  0  0
   21.7277  -21.2939  -14.9468 C   0  0  1  0  0  0  0  0  0  0  0  0
   21.7444  -22.7959  -14.9141 C   0  0  0  0  0  0  0  0  0  0  0  0
   22.1814  -20.6699  -13.6461 C   0  0  2  0  0  0  0  0  0  0  0  0
   23.5111  -21.1621  -13.2421 N   0  0  0  0  0  0  0  0  0  0  0  0
   21.2242  -21.0844  -12.6013 C   0  0  0  0  0  0  0  0  0  0  0  0
   21.5652  -21.9534  -11.7682 O   0  0  0  0  0  0  0  0  0  0  0  0
   19.9531  -20.5564  -12.4926 O   0  0  0  0  0  0  0  0  0  0  0  0
  2  3  1  0
  2  1  1  0
  4  5  1  0
  4  3  1  0
  5  6  1  6
  7  8  2  0
  7  5  1  0
 10  9  1  1
 10 12  1  0
 10 11  1  0
 13 12  1  1
 13 14  1  0
 14  7  1  0
 15 16  2  0
 15 13  1  0
 18 17  1  6
 18 20  1  0
 19 18  1  0
 20 22  1  0
 20 21  1  1
 21 15  1  0
 22 24  1  0
 23 22  2  0
M  END
$$$$
