MLV.pdb
     RDKit          3D

 24 23  0  0  1  0  0  0  0  0999 V2000
   27.2242  -18.8506   -4.0122 C   0  0  0  0  0  0  0  0  0  0  0  0
   28.7459  -18.9621   -4.9935 S   0  0  0  0  0  0  0  0  0  0  0  0
   28.5821  -20.2187   -6.2832 C   0  0  0  0  0  0  0  0  0  0  0  0
   27.3788  -19.8812   -7.1208 C   0  0  0  0  0  0  0  0  0  0  0  0
   27.2265  -20.9900   -8.1673 C   0  0  2  0  0  0  0  0  0  0  0  0
   28.5343  -21.3894   -8.5894 N   0  0  0  0  0  0  0  0  0  0  0  0
   26.4069  -20.4543   -9.2898 C   0  0  0  0  0  0  0  0  0  0  0  0
   25.8856  -19.3236   -9.1312 O   0  0  0  0  0  0  0  0  0  0  0  0
   27.7554  -18.9793  -13.2444 C   0  0  0  0  0  0  0  0  0  0  0  0
   27.5559  -20.4543  -13.1666 C   0  0  2  0  0  0  0  0  0  0  0  0
   28.0075  -21.0320  -14.5204 C   0  0  0  0  0  0  0  0  0  0  0  0
   26.1673  -20.9304  -12.9659 C   0  0  0  0  0  0  0  0  0  0  0  0
   25.5290  -20.7744  -11.6527 C   0  0  2  0  0  0  0  0  0  0  0  0
   26.2280  -21.1975  -10.4846 N   0  0  0  0  0  0  0  0  0  0  0  0
   24.0973  -21.1880  -11.7092 C   0  0  0  0  0  0  0  0  0  0  0  0
   23.7908  -22.4107  -11.4856 O   0  0  0  0  0  0  0  0  0  0  0  0
   21.0253  -19.6060  -10.0213 C   0  0  0  0  0  0  0  0  0  0  0  0
   20.6405  -19.8305  -11.4891 C   0  0  1  0  0  0  0  0  0  0  0  0
   20.7503  -18.5121  -12.2012 C   0  0  0  0  0  0  0  0  0  0  0  0
   21.6215  -20.8615  -12.0007 C   0  0  2  0  0  0  0  0  0  0  0  0
   23.0021  -20.3442  -12.0018 N   0  0  0  0  0  0  0  0  0  0  0  0
   21.2617  -21.1542  -13.4023 C   0  0  0  0  0  0  0  0  0  0  0  0
   22.0210  -20.7749  -14.3217 O   0  0  0  0  0  0  0  0  0  0  0  0
   20.1144  -21.8347  -13.7587 O   0  0  0  0  0  0  0  0  0  0  0  0
  2  3  1  0
  2  1  1  0
  4  5  1  0
  4  3  1  0
  5  6  1  6
  7  8  2  0
  7  5  1  0
 10  9  1  6
 10 12  1  0
 10 11  1  0
 13 12  1  6
 13 14  1  0
 14  7  1  0
 15 16  2  0
 15 13  1  0
 18 17  1  1
 18 20  1  0
 19 18  1  0
 20 22  1  0
 20 21  1  6
 21 15  1  0
 22 24  1  0
 23 22  2  0
M  END
$$$$
