MLV.pdb
     RDKit          3D

 24 23  0  0  1  0  0  0  0  0999 V2000
   13.9165  -22.6901    4.9142 C   0  0  0  0  0  0  0  0  0  0  0  0
   12.7679  -21.4769    4.2072 S   0  0  0  0  0  0  0  0  0  0  0  0
   13.6394  -20.3437    3.1002 C   0  0  0  0  0  0  0  0  0  0  0  0
   14.8928  -19.8798    3.7911 C   0  0  0  0  0  0  0  0  0  0  0  0
   15.6389  -18.9640    2.8151 C   0  0  2  0  0  0  0  0  0  0  0  0
   16.0226  -19.7416    1.6765 N   0  0  0  0  0  0  0  0  0  0  0  0
   16.8117  -18.3874    3.5297 C   0  0  0  0  0  0  0  0  0  0  0  0
   17.9044  -18.9959    3.4238 O   0  0  0  0  0  0  0  0  0  0  0  0
   18.9067  -14.2529    3.1415 C   0  0  0  0  0  0  0  0  0  0  0  0
   17.6821  -14.2588    3.9911 C   0  0  2  0  0  0  0  0  0  0  0  0
   17.4891  -12.8171    4.4958 C   0  0  0  0  0  0  0  0  0  0  0  0
   17.7140  -15.1113    5.2023 C   0  0  0  0  0  0  0  0  0  0  0  0
   17.7162  -16.5730    5.0615 C   0  0  2  0  0  0  0  0  0  0  0  0
   16.6902  -17.1998    4.2957 N   0  0  0  0  0  0  0  0  0  0  0  0
   18.0107  -17.2288    6.3682 C   0  0  0  0  0  0  0  0  0  0  0  0
   17.0468  -17.4817    7.1716 O   0  0  0  0  0  0  0  0  0  0  0  0
   20.2371  -20.2639    7.0096 C   0  0  0  0  0  0  0  0  0  0  0  0
   20.5970  -19.2662    8.1177 C   0  0  1  0  0  0  0  0  0  0  0  0
   21.9147  -18.6380    7.7622 C   0  0  0  0  0  0  0  0  0  0  0  0
   19.4564  -18.2734    8.1402 C   0  0  2  0  0  0  0  0  0  0  0  0
   19.2895  -17.6081    6.8351 N   0  0  0  0  0  0  0  0  0  0  0  0
   19.8015  -17.2284    9.1242 C   0  0  0  0  0  0  0  0  0  0  0  0
   20.2261  -16.1228    8.7203 O   0  0  0  0  0  0  0  0  0  0  0  0
   19.6790  -17.4083   10.4877 O   0  0  0  0  0  0  0  0  0  0  0  0
  2  3  1  0
  2  1  1  0
  4  5  1  0
  4  3  1  0
  5  6  1  6
  7  8  2  0
  7  5  1  0
 10  9  1  1
 10 12  1  0
 10 11  1  0
 13 12  1  1
 13 14  1  0
 14  7  1  0
 15 16  2  0
 15 13  1  0
 18 17  1  6
 18 20  1  0
 19 18  1  0
 20 22  1  0
 20 21  1  6
 21 15  1  0
 22 24  1  0
 23 22  2  0
M  END
$$$$
