MLV.pdb
     RDKit          3D

 24 23  0  0  1  0  0  0  0  0999 V2000
   26.0703  -16.3193  -15.6778 C   0  0  0  0  0  0  0  0  0  0  0  0
   27.8745  -16.3551  -15.4919 S   0  0  0  0  0  0  0  0  0  0  0  0
   28.4764  -18.0593  -15.4413 C   0  0  0  0  0  0  0  0  0  0  0  0
   27.3532  -18.9429  -14.9710 C   0  0  0  0  0  0  0  0  0  0  0  0
   27.9806  -20.2431  -14.4575 C   0  0  2  0  0  0  0  0  0  0  0  0
   28.6057  -20.9047  -15.5619 N   0  0  0  0  0  0  0  0  0  0  0  0
   26.9006  -21.0637  -13.8419 C   0  0  0  0  0  0  0  0  0  0  0  0
   26.3208  -21.8966  -14.5806 O   0  0  0  0  0  0  0  0  0  0  0  0
   27.1539  -20.1517   -9.2921 C   0  0  0  0  0  0  0  0  0  0  0  0
   25.6989  -20.3797   -9.5207 C   0  0  2  0  0  0  0  0  0  0  0  0
   25.0780  -20.6783   -8.1437 C   0  0  0  0  0  0  0  0  0  0  0  0
   25.3305  -21.5231  -10.3878 C   0  0  0  0  0  0  0  0  0  0  0  0
   25.3554  -21.3648  -11.8474 C   0  0  2  0  0  0  0  0  0  0  0  0
   26.5484  -20.9043  -12.4772 N   0  0  0  0  0  0  0  0  0  0  0  0
   24.1026  -20.7148  -12.3294 C   0  0  0  0  0  0  0  0  0  0  0  0
   24.0428  -19.4373  -12.3844 O   0  0  0  0  0  0  0  0  0  0  0  0
   20.5671  -20.6110  -15.5669 C   0  0  0  0  0  0  0  0  0  0  0  0
   21.6682  -21.4162  -14.8654 C   0  0  1  0  0  0  0  0  0  0  0  0
   22.8752  -21.4231  -15.7600 C   0  0  0  0  0  0  0  0  0  0  0  0
   21.9079  -20.6989  -13.5558 C   0  0  2  0  0  0  0  0  0  0  0  0
   22.9273  -21.3836  -12.7400 N   0  0  0  0  0  0  0  0  0  0  0  0
   20.6423  -20.7339  -12.7964 C   0  0  0  0  0  0  0  0  0  0  0  0
   20.5393  -21.5000  -11.8125 O   0  0  0  0  0  0  0  0  0  0  0  0
   19.5491  -19.9545  -13.1187 O   0  0  0  0  0  0  0  0  0  0  0  0
  2  3  1  0
  2  1  1  0
  4  5  1  0
  4  3  1  0
  5  6  1  6
  7  8  2  0
  7  5  1  0
 10  9  1  1
 10 12  1  0
 10 11  1  0
 13 12  1  1
 13 14  1  0
 14  7  1  0
 15 16  2  0
 15 13  1  0
 18 17  1  6
 18 20  1  0
 19 18  1  0
 20 22  1  0
 20 21  1  1
 21 15  1  0
 22 24  1  0
 23 22  2  0
M  END
$$$$
