MLV.pdb
     RDKit          3D

 24 23  0  0  1  0  0  0  0  0999 V2000
   26.3893  -17.3956  -17.8472 C   0  0  0  0  0  0  0  0  0  0  0  0
   28.1167  -17.1840  -17.3349 S   0  0  0  0  0  0  0  0  0  0  0  0
   28.7578  -18.7106  -16.6086 C   0  0  0  0  0  0  0  0  0  0  0  0
   27.6226  -19.4192  -15.9210 C   0  0  0  0  0  0  0  0  0  0  0  0
   28.2207  -20.6078  -15.1613 C   0  0  2  0  0  0  0  0  0  0  0  0
   28.6581  -21.5768  -16.1194 N   0  0  0  0  0  0  0  0  0  0  0  0
   27.1734  -21.1451  -14.2485 C   0  0  0  0  0  0  0  0  0  0  0  0
   26.3383  -21.9431  -14.7398 O   0  0  0  0  0  0  0  0  0  0  0  0
   23.9508  -20.6308   -9.5960 C   0  0  0  0  0  0  0  0  0  0  0  0
   25.2874  -21.2891   -9.5537 C   0  0  2  0  0  0  0  0  0  0  0  0
   25.8782  -20.9978   -8.1621 C   0  0  0  0  0  0  0  0  0  0  0  0
   26.2962  -20.8148  -10.5296 C   0  0  0  0  0  0  0  0  0  0  0  0
   26.0643  -21.0100  -11.9664 C   0  0  2  0  0  0  0  0  0  0  0  0
   27.1287  -20.7657  -12.8826 N   0  0  0  0  0  0  0  0  0  0  0  0
   24.7473  -20.4390  -12.3709 C   0  0  0  0  0  0  0  0  0  0  0  0
   24.5529  -19.1784  -12.2624 O   0  0  0  0  0  0  0  0  0  0  0  0
   23.3185  -20.2914  -15.5435 C   0  0  0  0  0  0  0  0  0  0  0  0
   22.0963  -20.7817  -14.7570 C   0  0  1  0  0  0  0  0  0  0  0  0
   21.9286  -22.2490  -15.0334 C   0  0  0  0  0  0  0  0  0  0  0  0
   22.4149  -20.4863  -13.3085 C   0  0  2  0  0  0  0  0  0  0  0  0
   23.6466  -21.1696  -12.8729 N   0  0  0  0  0  0  0  0  0  0  0  0
   21.3052  -21.0221  -12.4954 C   0  0  0  0  0  0  0  0  0  0  0  0
   21.4758  -22.0780  -11.8461 O   0  0  0  0  0  0  0  0  0  0  0  0
   20.0699  -20.4110  -12.4117 O   0  0  0  0  0  0  0  0  0  0  0  0
  2  3  1  0
  2  1  1  0
  4  5  1  0
  4  3  1  0
  5  6  1  6
  7  8  2  0
  7  5  1  0
 10  9  1  6
 10 12  1  0
 10 11  1  0
 13 12  1  1
 13 14  1  0
 14  7  1  0
 15 16  2  0
 15 13  1  0
 18 17  1  6
 18 20  1  0
 19 18  1  0
 20 22  1  0
 20 21  1  1
 21 15  1  0
 22 24  1  0
 23 22  2  0
M  END
$$$$
