MLV.pdb
     RDKit          3D

 24 23  0  0  1  0  0  0  0  0999 V2000
   24.6992  -14.4061  -16.8190 C   0  0  0  0  0  0  0  0  0  0  0  0
   26.3325  -14.0411  -16.1191 S   0  0  0  0  0  0  0  0  0  0  0  0
   27.3552  -15.5316  -16.0760 C   0  0  0  0  0  0  0  0  0  0  0  0
   26.5115  -16.6683  -15.5667 C   0  0  0  0  0  0  0  0  0  0  0  0
   27.3949  -17.9202  -15.5513 C   0  0  2  0  0  0  0  0  0  0  0  0
   27.7293  -18.2483  -16.9036 N   0  0  0  0  0  0  0  0  0  0  0  0
   26.6380  -19.0096  -14.8737 C   0  0  0  0  0  0  0  0  0  0  0  0
   25.9403  -19.7604  -15.5984 O   0  0  0  0  0  0  0  0  0  0  0  0
   25.3917  -20.8452   -8.9123 C   0  0  0  0  0  0  0  0  0  0  0  0
   25.2472  -20.9713  -10.3904 C   0  0  2  0  0  0  0  0  0  0  0  0
   25.6623  -22.4091  -10.7525 C   0  0  0  0  0  0  0  0  0  0  0  0
   26.0932  -20.0838  -11.2219 C   0  0  0  0  0  0  0  0  0  0  0  0
   25.8595  -20.0053  -12.6694 C   0  0  2  0  0  0  0  0  0  0  0  0
   26.7082  -19.1843  -13.4679 N   0  0  0  0  0  0  0  0  0  0  0  0
   24.4034  -19.8712  -12.9626 C   0  0  0  0  0  0  0  0  0  0  0  0
   23.8031  -18.7814  -12.6611 O   0  0  0  0  0  0  0  0  0  0  0  0
   22.4343  -20.2889  -16.1876 C   0  0  0  0  0  0  0  0  0  0  0  0
   21.7186  -21.1586  -15.1463 C   0  0  1  0  0  0  0  0  0  0  0  0
   22.1479  -22.5823  -15.3614 C   0  0  0  0  0  0  0  0  0  0  0  0
   22.1523  -20.6071  -13.8066 C   0  0  2  0  0  0  0  0  0  0  0  0
   23.5827  -20.8587  -13.5528 N   0  0  0  0  0  0  0  0  0  0  0  0
   21.3894  -21.3255  -12.7668 C   0  0  0  0  0  0  0  0  0  0  0  0
   20.1611  -21.1156  -12.6532 O   0  0  0  0  0  0  0  0  0  0  0  0
   21.9676  -22.2309  -11.8993 O   0  0  0  0  0  0  0  0  0  0  0  0
  2  3  1  0
  2  1  1  0
  4  5  1  0
  4  3  1  0
  5  6  1  6
  7  8  2  0
  7  5  1  0
 10  9  1  1
 10 12  1  0
 10 11  1  0
 13 12  1  1
 13 14  1  0
 14  7  1  0
 15 16  2  0
 15 13  1  0
 18 17  1  6
 18 20  1  0
 19 18  1  0
 20 22  1  0
 20 21  1  1
 21 15  1  0
 22 24  1  0
 23 22  2  0
M  END
$$$$
