MLV.pdb
     RDKit          3D

 24 23  0  0  1  0  0  0  0  0999 V2000
   18.8909  -23.6401   -9.9191 C   0  0  0  0  0  0  0  0  0  0  0  0
   19.0306  -24.6342  -11.4301 S   0  0  0  0  0  0  0  0  0  0  0  0
   18.3591  -23.7359  -12.8484 C   0  0  0  0  0  0  0  0  0  0  0  0
   19.4215  -22.8025  -13.3619 C   0  0  0  0  0  0  0  0  0  0  0  0
   19.6558  -21.7408  -12.2824 C   0  0  2  0  0  0  0  0  0  0  0  0
   18.4607  -20.9643  -12.1517 N   0  0  0  0  0  0  0  0  0  0  0  0
   20.8260  -20.9161  -12.6938 C   0  0  0  0  0  0  0  0  0  0  0  0
   20.5872  -19.7889  -13.1916 O   0  0  0  0  0  0  0  0  0  0  0  0
   24.3383  -19.9615  -10.0755 C   0  0  0  0  0  0  0  0  0  0  0  0
   24.6713  -21.1875  -10.8551 C   0  0  2  0  0  0  0  0  0  0  0  0
   26.1284  -21.5463  -10.5108 C   0  0  0  0  0  0  0  0  0  0  0  0
   24.6199  -21.0742  -12.3314 C   0  0  0  0  0  0  0  0  0  0  0  0
   23.3450  -20.7670  -12.9921 C   0  0  2  0  0  0  0  0  0  0  0  0
   22.1516  -21.3923  -12.5265 N   0  0  0  0  0  0  0  0  0  0  0  0
   23.5079  -20.7554  -14.4745 C   0  0  0  0  0  0  0  0  0  0  0  0
   23.6182  -21.8671  -15.0996 O   0  0  0  0  0  0  0  0  0  0  0  0
   22.8805  -18.7170  -18.8788 C   0  0  0  0  0  0  0  0  0  0  0  0
   22.6688  -18.5982  -17.3643 C   0  0  1  0  0  0  0  0  0  0  0  0
   21.1987  -18.7458  -17.0914 C   0  0  0  0  0  0  0  0  0  0  0  0
   23.4959  -19.7117  -16.7618 C   0  0  2  0  0  0  0  0  0  0  0  0
   23.5634  -19.6047  -15.2929 N   0  0  0  0  0  0  0  0  0  0  0  0
   24.8721  -19.5657  -17.2759 C   0  0  0  0  0  0  0  0  0  0  0  0
   25.1745  -20.0855  -18.3732 O   0  0  0  0  0  0  0  0  0  0  0  0
   25.8588  -18.8756  -16.6002 O   0  0  0  0  0  0  0  0  0  0  0  0
  2  3  1  0
  2  1  1  0
  4  5  1  0
  4  3  1  0
  5  6  1  6
  7  8  2  0
  7  5  1  0
 10  9  1  1
 10 12  1  0
 10 11  1  0
 13 12  1  1
 13 14  1  0
 14  7  1  0
 15 16  2  0
 15 13  1  0
 18 17  1  6
 18 20  1  0
 19 18  1  0
 20 22  1  0
 20 21  1  1
 21 15  1  0
 22 24  1  0
 23 22  2  0
M  END
$$$$
