MLV.pdb
     RDKit          3D

 24 23  0  0  1  0  0  0  0  0999 V2000
   19.4064  -23.1840  -14.2091 C   0  0  0  0  0  0  0  0  0  0  0  0
   18.6840  -23.1046  -12.5469 S   0  0  0  0  0  0  0  0  0  0  0  0
   19.7811  -22.2167  -11.4168 C   0  0  0  0  0  0  0  0  0  0  0  0
   20.7369  -21.3932  -12.2365 C   0  0  0  0  0  0  0  0  0  0  0  0
   22.0330  -21.2622  -11.4299 C   0  0  2  0  0  0  0  0  0  0  0  0
   21.7308  -20.5889  -10.2037 N   0  0  0  0  0  0  0  0  0  0  0  0
   23.0183  -20.5144  -12.2599 C   0  0  0  0  0  0  0  0  0  0  0  0
   22.8323  -19.2809  -12.3993 O   0  0  0  0  0  0  0  0  0  0  0  0
   27.5119  -19.2187  -12.1217 C   0  0  0  0  0  0  0  0  0  0  0  0
   27.2485  -20.6639  -12.3737 C   0  0  2  0  0  0  0  0  0  0  0  0
   28.6224  -21.3428  -12.5219 C   0  0  0  0  0  0  0  0  0  0  0  0
   26.4954  -21.0005  -13.6043 C   0  0  0  0  0  0  0  0  0  0  0  0
   25.0898  -20.5943  -13.7292 C   0  0  2  0  0  0  0  0  0  0  0  0
   24.1178  -21.1762  -12.8640 N   0  0  0  0  0  0  0  0  0  0  0  0
   24.6869  -20.5210  -15.1633 C   0  0  0  0  0  0  0  0  0  0  0  0
   24.4393  -21.6043  -15.7988 O   0  0  0  0  0  0  0  0  0  0  0  0
   22.6658  -17.7698  -16.3039 C   0  0  0  0  0  0  0  0  0  0  0  0
   23.1350  -18.3012  -17.6642 C   0  0  1  0  0  0  0  0  0  0  0  0
   23.7428  -17.1551  -18.4221 C   0  0  0  0  0  0  0  0  0  0  0  0
   24.1332  -19.3898  -17.3393 C   0  0  2  0  0  0  0  0  0  0  0  0
   24.5515  -19.3393  -15.9264 N   0  0  0  0  0  0  0  0  0  0  0  0
   25.3348  -19.1451  -18.1614 C   0  0  0  0  0  0  0  0  0  0  0  0
   26.3439  -18.6278  -17.6326 O   0  0  0  0  0  0  0  0  0  0  0  0
   25.4058  -19.4614  -19.5036 O   0  0  0  0  0  0  0  0  0  0  0  0
  2  3  1  0
  2  1  1  0
  4  5  1  0
  4  3  1  0
  5  6  1  1
  7  8  2  0
  7  5  1  0
 10  9  1  6
 10 12  1  0
 10 11  1  0
 13 12  1  6
 13 14  1  0
 14  7  1  0
 15 16  2  0
 15 13  1  0
 18 17  1  1
 18 20  1  0
 19 18  1  0
 20 22  1  0
 20 21  1  1
 21 15  1  0
 22 24  1  0
 23 22  2  0
M  END
$$$$
