MLV.pdb
     RDKit          3D

 24 23  0  0  1  0  0  0  0  0999 V2000
   17.3184  -25.1797   -0.6411 C   0  0  0  0  0  0  0  0  0  0  0  0
   16.0866  -24.3726   -1.7004 S   0  0  0  0  0  0  0  0  0  0  0  0
   15.2407  -23.0512   -0.8017 C   0  0  0  0  0  0  0  0  0  0  0  0
   16.1278  -22.6067    0.3292 C   0  0  0  0  0  0  0  0  0  0  0  0
   15.3959  -21.4810    1.0673 C   0  0  2  0  0  0  0  0  0  0  0  0
   14.7440  -20.6582    0.0945 N   0  0  0  0  0  0  0  0  0  0  0  0
   16.3999  -20.7262    1.8678 C   0  0  0  0  0  0  0  0  0  0  0  0
   17.0793  -21.3778    2.6980 O   0  0  0  0  0  0  0  0  0  0  0  0
   19.5187  -15.2611    1.8399 C   0  0  0  0  0  0  0  0  0  0  0  0
   19.0146  -16.4776    2.5383 C   0  0  2  0  0  0  0  0  0  0  0  0
   20.2489  -17.3309    2.8830 C   0  0  0  0  0  0  0  0  0  0  0  0
   18.1117  -17.3639    1.7674 C   0  0  0  0  0  0  0  0  0  0  0  0
   17.4384  -18.4798    2.4439 C   0  0  2  0  0  0  0  0  0  0  0  0
   16.5746  -19.3295    1.6930 N   0  0  0  0  0  0  0  0  0  0  0  0
   16.8973  -18.0474    3.7646 C   0  0  0  0  0  0  0  0  0  0  0  0
   15.8958  -17.2508    3.7990 O   0  0  0  0  0  0  0  0  0  0  0  0
   16.1540  -20.2584    6.8806 C   0  0  0  0  0  0  0  0  0  0  0  0
   16.8938  -19.0104    7.3789 C   0  0  1  0  0  0  0  0  0  0  0  0
   18.3259  -19.3915    7.6261 C   0  0  0  0  0  0  0  0  0  0  0  0
   16.7365  -17.9909    6.2731 C   0  0  2  0  0  0  0  0  0  0  0  0
   17.3956  -18.4315    5.0300 N   0  0  0  0  0  0  0  0  0  0  0  0
   17.4132  -16.7551    6.7140 C   0  0  0  0  0  0  0  0  0  0  0  0
   18.5583  -16.4960    6.2814 O   0  0  0  0  0  0  0  0  0  0  0  0
   16.8412  -15.8557    7.5918 O   0  0  0  0  0  0  0  0  0  0  0  0
  2  3  1  0
  2  1  1  0
  4  5  1  0
  4  3  1  0
  5  6  1  6
  7  8  2  0
  7  5  1  0
 10  9  1  6
 10 12  1  0
 10 11  1  0
 13 12  1  6
 13 14  1  0
 14  7  1  0
 15 16  2  0
 15 13  1  0
 18 17  1  6
 18 20  1  0
 19 18  1  0
 20 22  1  0
 20 21  1  6
 21 15  1  0
 22 24  1  0
 23 22  2  0
M  END
$$$$
