MLV.pdb
     RDKit          3D

 24 23  0  0  1  0  0  0  0  0999 V2000
   25.9650  -17.6839  -18.6488 C   0  0  0  0  0  0  0  0  0  0  0  0
   27.6951  -17.3071  -18.2540 S   0  0  0  0  0  0  0  0  0  0  0  0
   28.3222  -18.4400  -16.9920 C   0  0  0  0  0  0  0  0  0  0  0  0
   27.1599  -19.2156  -16.4345 C   0  0  0  0  0  0  0  0  0  0  0  0
   27.6893  -20.0523  -15.2651 C   0  0  2  0  0  0  0  0  0  0  0  0
   28.6256  -21.0028  -15.7828 N   0  0  0  0  0  0  0  0  0  0  0  0
   26.5261  -20.7049  -14.6020 C   0  0  0  0  0  0  0  0  0  0  0  0
   26.0596  -21.7357  -15.1456 O   0  0  0  0  0  0  0  0  0  0  0  0
   26.2502  -22.3724  -10.3659 C   0  0  0  0  0  0  0  0  0  0  0  0
   25.9299  -20.9175  -10.4138 C   0  0  2  0  0  0  0  0  0  0  0  0
   25.5813  -20.4955   -8.9747 C   0  0  0  0  0  0  0  0  0  0  0  0
   24.7715  -20.5161  -11.2456 C   0  0  0  0  0  0  0  0  0  0  0  0
   24.8367  -20.6713  -12.7043 C   0  0  2  0  0  0  0  0  0  0  0  0
   25.9746  -20.1772  -13.4066 N   0  0  0  0  0  0  0  0  0  0  0  0
   23.5237  -20.3408  -13.3296 C   0  0  0  0  0  0  0  0  0  0  0  0
   23.1311  -19.1225  -13.3516 O   0  0  0  0  0  0  0  0  0  0  0  0
   20.9942  -23.0737  -15.3579 C   0  0  0  0  0  0  0  0  0  0  0  0
   21.1582  -21.6355  -15.8656 C   0  0  1  0  0  0  0  0  0  0  0  0
   19.8895  -21.2483  -16.5712 C   0  0  0  0  0  0  0  0  0  0  0  0
   21.4217  -20.8078  -14.6277 C   0  0  2  0  0  0  0  0  0  0  0  0
   22.6292  -21.2647  -13.9156 N   0  0  0  0  0  0  0  0  0  0  0  0
   20.2761  -21.0007  -13.7169 C   0  0  0  0  0  0  0  0  0  0  0  0
   20.3879  -21.7868  -12.7498 O   0  0  0  0  0  0  0  0  0  0  0  0
   19.0688  -20.3501  -13.8774 O   0  0  0  0  0  0  0  0  0  0  0  0
  2  3  1  0
  2  1  1  0
  4  5  1  0
  4  3  1  0
  5  6  1  6
  7  8  2  0
  7  5  1  0
 10  9  1  1
 10 12  1  0
 10 11  1  0
 13 12  1  1
 13 14  1  0
 14  7  1  0
 15 16  2  0
 15 13  1  0
 18 17  1  1
 18 20  1  0
 19 18  1  0
 20 22  1  0
 20 21  1  1
 21 15  1  0
 22 24  1  0
 23 22  2  0
M  END
$$$$
