MLV.pdb
     RDKit          3D

 24 23  0  0  1  0  0  0  0  0999 V2000
   17.7704   -9.8764  -22.0041 C   0  0  0  0  0  0  0  0  0  0  0  0
   18.5519  -11.2200  -22.9395 S   0  0  0  0  0  0  0  0  0  0  0  0
   19.3531  -12.3932  -21.8211 C   0  0  0  0  0  0  0  0  0  0  0  0
   19.3843  -11.7870  -20.4445 C   0  0  0  0  0  0  0  0  0  0  0  0
   20.0944  -12.7845  -19.5233 C   0  0  2  0  0  0  0  0  0  0  0  0
   19.2621  -13.9411  -19.3899 N   0  0  0  0  0  0  0  0  0  0  0  0
   20.3422  -12.1103  -18.2184 C   0  0  0  0  0  0  0  0  0  0  0  0
   19.3662  -11.9946  -17.4376 O   0  0  0  0  0  0  0  0  0  0  0  0
   22.8236  -13.1403  -14.5957 C   0  0  0  0  0  0  0  0  0  0  0  0
   23.6462  -12.5117  -15.6680 C   0  0  2  0  0  0  0  0  0  0  0  0
   25.0842  -12.4225  -15.1251 C   0  0  0  0  0  0  0  0  0  0  0  0
   23.2787  -11.1339  -16.0700 C   0  0  0  0  0  0  0  0  0  0  0  0
   21.9808  -10.8863  -16.7106 C   0  0  2  0  0  0  0  0  0  0  0  0
   21.6303  -11.6223  -17.8800 N   0  0  0  0  0  0  0  0  0  0  0  0
   21.6988   -9.4237  -16.7842 C   0  0  0  0  0  0  0  0  0  0  0  0
   22.3605   -8.7004  -17.6075 O   0  0  0  0  0  0  0  0  0  0  0  0
   18.7879   -7.5594  -17.8254 C   0  0  0  0  0  0  0  0  0  0  0  0
   19.0889   -6.9478  -16.4512 C   0  0  1  0  0  0  0  0  0  0  0  0
   18.1542   -7.5720  -15.4542 C   0  0  0  0  0  0  0  0  0  0  0  0
   20.5411   -7.2741  -16.1838 C   0  0  2  0  0  0  0  0  0  0  0  0
   20.7488   -8.7231  -16.0072 N   0  0  0  0  0  0  0  0  0  0  0  0
   20.9129   -6.6198  -14.9137 C   0  0  0  0  0  0  0  0  0  0  0  0
   21.0894   -7.3206  -13.8923 O   0  0  0  0  0  0  0  0  0  0  0  0
   21.0788   -5.2546  -14.7906 O   0  0  0  0  0  0  0  0  0  0  0  0
  2  3  1  0
  2  1  1  0
  4  5  1  0
  4  3  1  0
  5  6  1  1
  7  8  2  0
  7  5  1  0
 10  9  1  1
 10 12  1  0
 10 11  1  0
 13 12  1  6
 13 14  1  0
 14  7  1  0
 15 16  2  0
 15 13  1  0
 18 17  1  6
 18 20  1  0
 19 18  1  0
 20 22  1  0
 20 21  1  1
 21 15  1  0
 22 24  1  0
 23 22  2  0
M  END
$$$$
