AVR.pdb
     RDKit          3D

 24 23  0  0  1  0  0  0  0  0999 V2000
   24.7442  -32.8586  -15.8445 C   0  0  0  0  0  0  0  0  0  0  0  0
   25.4467  -31.9275  -16.8108 C   0  0  2  0  0  0  0  0  0  0  0  0
   26.8734  -32.1431  -16.6544 N   0  0  0  0  0  0  0  0  0  0  0  0
   25.0688  -30.5190  -16.6373 C   0  0  0  0  0  0  0  0  0  0  0  0
   25.8414  -29.7642  -15.9928 O   0  0  0  0  0  0  0  0  0  0  0  0
   22.5836  -28.6406  -19.3365 C   0  0  0  0  0  0  0  0  0  0  0  0
   23.5153  -27.9314  -18.4019 C   0  0  2  0  0  0  0  0  0  0  0  0
   24.8723  -27.8800  -19.0717 C   0  0  0  0  0  0  0  0  0  0  0  0
   23.6025  -28.5289  -17.0157 C   0  0  2  0  0  0  0  0  0  0  0  0
   23.8874  -29.9797  -17.1572 N   0  0  0  0  0  0  0  0  0  0  0  0
   22.3428  -28.3922  -16.2413 C   0  0  0  0  0  0  0  0  0  0  0  0
   21.3206  -29.1109  -16.5367 O   0  0  0  0  0  0  0  0  0  0  0  0
   18.3110  -25.0561  -10.4610 N   0  0  0  0  0  0  0  0  0  0  0  0
   17.9831  -26.3170   -9.8833 C   0  0  0  0  0  0  0  0  0  0  0  0
   16.8462  -26.4918   -9.3122 N   0  0  0  0  0  0  0  0  0  0  0  0
   18.9129  -27.4137   -9.9275 N   0  0  0  0  0  0  0  0  0  0  0  0
   20.1730  -27.2949  -10.6370 C   0  0  0  0  0  0  0  0  0  0  0  0
   19.8334  -27.3640  -12.1356 C   0  0  0  0  0  0  0  0  0  0  0  0
   21.0923  -27.4298  -12.9517 C   0  0  0  0  0  0  0  0  0  0  0  0
   20.8526  -27.4826  -14.4167 C   0  0  2  0  0  0  0  0  0  0  0  0
   22.1302  -27.5157  -15.1557 N   0  0  0  0  0  0  0  0  0  0  0  0
   20.1271  -26.2909  -14.8727 C   0  0  0  0  0  0  0  0  0  0  0  0
   18.7478  -26.2621  -14.8637 O   0  0  0  0  0  0  0  0  0  0  0  0
   20.7430  -25.2737  -15.2830 O   0  0  0  0  0  0  0  0  0  0  0  0
  2  1  1  1
  2  3  1  0
  4  2  1  0
  5  4  2  0
  7  6  1  6
  7  9  1  0
  7  8  1  0
  9 10  1  6
 10  4  1  0
 11 21  1  0
 11  9  1  0
 12 11  2  0
 14 13  1  0
 14 15  2  0
 16 14  1  0
 17 16  1  0
 18 17  1  0
 20 19  1  1
 19 18  1  0
 20 22  1  0
 20 21  1  0
 22 23  1  0
 24 22  2  0
M  END
$$$$
