AVR.pdb
     RDKit          3D

 24 23  0  0  1  0  0  0  0  0999 V2000
   27.5786  -18.0495  -16.5767 C   0  0  0  0  0  0  0  0  0  0  0  0
   28.6114  -19.1016  -16.2292 C   0  0  2  0  0  0  0  0  0  0  0  0
   28.9238  -19.8172  -17.4526 N   0  0  0  0  0  0  0  0  0  0  0  0
   28.1845  -19.9980  -15.1471 C   0  0  0  0  0  0  0  0  0  0  0  0
   27.5463  -21.0399  -15.4459 O   0  0  0  0  0  0  0  0  0  0  0  0
   30.4112  -21.0102  -11.9247 C   0  0  0  0  0  0  0  0  0  0  0  0
   29.0035  -20.6129  -11.6010 C   0  0  2  0  0  0  0  0  0  0  0  0
   28.5571  -21.4547  -10.4243 C   0  0  0  0  0  0  0  0  0  0  0  0
   28.0325  -20.7133  -12.7557 C   0  0  2  0  0  0  0  0  0  0  0  0
   28.4562  -19.7443  -13.7985 N   0  0  0  0  0  0  0  0  0  0  0  0
   26.6364  -20.3806  -12.3745 C   0  0  0  0  0  0  0  0  0  0  0  0
   26.3238  -19.1787  -12.0482 O   0  0  0  0  0  0  0  0  0  0  0  0
   18.7592  -23.1461  -10.3562 N   0  0  0  0  0  0  0  0  0  0  0  0
   18.4979  -22.3684  -11.5215 C   0  0  0  0  0  0  0  0  0  0  0  0
   17.3267  -21.8830  -11.7269 N   0  0  0  0  0  0  0  0  0  0  0  0
   19.5338  -22.1122  -12.4860 N   0  0  0  0  0  0  0  0  0  0  0  0
   20.9112  -22.4804  -12.2165 C   0  0  0  0  0  0  0  0  0  0  0  0
   21.7628  -21.2448  -12.5542 C   0  0  0  0  0  0  0  0  0  0  0  0
   23.1889  -21.6470  -12.7988 C   0  0  0  0  0  0  0  0  0  0  0  0
   24.1763  -20.8402  -12.0369 C   0  0  2  0  0  0  0  0  0  0  0  0
   25.5533  -21.2845  -12.3299 N   0  0  0  0  0  0  0  0  0  0  0  0
   23.9767  -20.9958  -10.5911 C   0  0  0  0  0  0  0  0  0  0  0  0
   23.1425  -20.1405   -9.9012 O   0  0  0  0  0  0  0  0  0  0  0  0
   24.5610  -21.9067   -9.9497 O   0  0  0  0  0  0  0  0  0  0  0  0
  2  1  1  6
  2  3  1  0
  4  2  1  0
  5  4  2  0
  7  6  1  6
  7  9  1  0
  7  8  1  0
  9 10  1  6
 10  4  1  0
 11 21  1  0
 11  9  1  0
 12 11  2  0
 14 13  1  0
 14 15  2  0
 16 14  1  0
 17 16  1  0
 18 17  1  0
 20 19  1  6
 19 18  1  0
 20 22  1  0
 20 21  1  0
 22 23  1  0
 24 22  2  0
M  END
$$$$
