AVR.pdb
     RDKit          3D

 24 23  0  0  1  0  0  0  0  0999 V2000
   19.1468  -21.7296   -9.6815 C   0  0  0  0  0  0  0  0  0  0  0  0
   19.1126  -23.1931  -10.0708 C   0  0  2  0  0  0  0  0  0  0  0  0
   18.9614  -23.2503  -11.5131 N   0  0  0  0  0  0  0  0  0  0  0  0
   18.0746  -23.9564   -9.3660 C   0  0  0  0  0  0  0  0  0  0  0  0
   16.8863  -23.8695   -9.7691 O   0  0  0  0  0  0  0  0  0  0  0  0
   16.7104  -28.0289   -7.2121 C   0  0  0  0  0  0  0  0  0  0  0  0
   17.5500  -27.0470   -7.9704 C   0  0  2  0  0  0  0  0  0  0  0  0
   18.9997  -27.4017   -7.7147 C   0  0  0  0  0  0  0  0  0  0  0  0
   17.2701  -25.5946   -7.6564 C   0  0  2  0  0  0  0  0  0  0  0  0
   18.3491  -24.7760   -8.2661 N   0  0  0  0  0  0  0  0  0  0  0  0
   17.2555  -25.3050   -6.2000 C   0  0  0  0  0  0  0  0  0  0  0  0
   18.3572  -25.1309   -5.5639 O   0  0  0  0  0  0  0  0  0  0  0  0
   12.2582  -19.9952   -1.6228 N   0  0  0  0  0  0  0  0  0  0  0  0
   12.3807  -20.9731   -2.6522 C   0  0  0  0  0  0  0  0  0  0  0  0
   11.4756  -21.0775   -3.5574 N   0  0  0  0  0  0  0  0  0  0  0  0
   13.5137  -21.8581   -2.6990 N   0  0  0  0  0  0  0  0  0  0  0  0
   13.6436  -22.9536   -1.7564 C   0  0  0  0  0  0  0  0  0  0  0  0
   14.9585  -23.6710   -2.1060 C   0  0  0  0  0  0  0  0  0  0  0  0
   14.9838  -24.0291   -3.5642 C   0  0  0  0  0  0  0  0  0  0  0  0
   16.1848  -24.8040   -3.9684 C   0  0  2  0  0  0  0  0  0  0  0  0
   16.1047  -25.1904   -5.3910 N   0  0  0  0  0  0  0  0  0  0  0  0
   16.2920  -26.0467   -3.1946 C   0  0  0  0  0  0  0  0  0  0  0  0
   16.8637  -26.0450   -1.9389 O   0  0  0  0  0  0  0  0  0  0  0  0
   15.8697  -27.1376   -3.6570 O   0  0  0  0  0  0  0  0  0  0  0  0
  2  1  1  1
  2  3  1  0
  4  2  1  0
  5  4  2  0
  7  6  1  1
  7  9  1  0
  7  8  1  0
  9 10  1  6
 10  4  1  0
 11 21  1  0
 11  9  1  0
 12 11  2  0
 14 13  1  0
 14 15  2  0
 16 14  1  0
 17 16  1  0
 18 17  1  0
 20 19  1  1
 19 18  1  0
 20 22  1  0
 20 21  1  0
 22 23  1  0
 24 22  2  0
M  END
$$$$
