AVR.pdb
     RDKit          3D

 24 23  0  0  1  0  0  0  0  0999 V2000
   30.2999  -22.9593  -17.5114 C   0  0  0  0  0  0  0  0  0  0  0  0
   28.8279  -22.8710  -17.1651 C   0  0  2  0  0  0  0  0  0  0  0  0
   28.0967  -22.7891  -18.4161 N   0  0  0  0  0  0  0  0  0  0  0  0
   28.5117  -21.7621  -16.2556 C   0  0  0  0  0  0  0  0  0  0  0  0
   28.9797  -21.7896  -15.0885 O   0  0  0  0  0  0  0  0  0  0  0  0
   28.4496  -17.7532  -17.0347 C   0  0  0  0  0  0  0  0  0  0  0  0
   27.2064  -18.3141  -16.4149 C   0  0  2  0  0  0  0  0  0  0  0  0
   26.6131  -17.2324  -15.5371 C   0  0  0  0  0  0  0  0  0  0  0  0
   27.4028  -19.6039  -15.6505 C   0  0  2  0  0  0  0  0  0  0  0  0
   27.7130  -20.6764  -16.6300 N   0  0  0  0  0  0  0  0  0  0  0  0
   26.1959  -20.0228  -14.8935 C   0  0  0  0  0  0  0  0  0  0  0  0
   25.1675  -20.4757  -15.5146 O   0  0  0  0  0  0  0  0  0  0  0  0
   21.0042  -20.2500   -9.1146 N   0  0  0  0  0  0  0  0  0  0  0  0
   21.6268  -21.3592   -8.4719 C   0  0  0  0  0  0  0  0  0  0  0  0
   20.9129  -22.2617   -7.9017 N   0  0  0  0  0  0  0  0  0  0  0  0
   23.0591  -21.4906   -8.4487 N   0  0  0  0  0  0  0  0  0  0  0  0
   23.9089  -20.5040   -9.0890 C   0  0  0  0  0  0  0  0  0  0  0  0
   23.6803  -20.6538  -10.6026 C   0  0  0  0  0  0  0  0  0  0  0  0
   24.9590  -20.4031  -11.3491 C   0  0  0  0  0  0  0  0  0  0  0  0
   24.8033  -20.4279  -12.8261 C   0  0  2  0  0  0  0  0  0  0  0  0
   26.0429  -19.9798  -13.4911 N   0  0  0  0  0  0  0  0  0  0  0  0
   23.7357  -19.5170  -13.2562 C   0  0  0  0  0  0  0  0  0  0  0  0
   22.4665  -19.9937  -13.5121 O   0  0  0  0  0  0  0  0  0  0  0  0
   23.9525  -18.2867  -13.4034 O   0  0  0  0  0  0  0  0  0  0  0  0
  2  1  1  6
  2  3  1  0
  4  2  1  0
  5  4  2  0
  7  6  1  1
  7  9  1  0
  7  8  1  0
  9 10  1  6
 10  4  1  0
 11 21  1  0
 11  9  1  0
 12 11  2  0
 14 13  1  0
 14 15  2  0
 16 14  1  0
 17 16  1  0
 18 17  1  0
 20 19  1  1
 19 18  1  0
 20 22  1  0
 20 21  1  0
 22 23  1  0
 24 22  2  0
M  END
$$$$
