AVR.pdb
     RDKit          3D

 24 23  0  0  1  0  0  0  0  0999 V2000
   27.8665  -24.7677  -17.8940 C   0  0  0  0  0  0  0  0  0  0  0  0
   28.9077  -23.8477  -17.2909 C   0  0  2  0  0  0  0  0  0  0  0  0
   29.7851  -24.6678  -16.4761 N   0  0  0  0  0  0  0  0  0  0  0  0
   28.3264  -22.7280  -16.5391 C   0  0  0  0  0  0  0  0  0  0  0  0
   28.2912  -22.8005  -15.2839 O   0  0  0  0  0  0  0  0  0  0  0  0
   29.1990  -18.9080  -16.8108 C   0  0  0  0  0  0  0  0  0  0  0  0
   27.7297  -19.1699  -16.9399 C   0  0  2  0  0  0  0  0  0  0  0  0
   27.0060  -17.9857  -16.3344 C   0  0  0  0  0  0  0  0  0  0  0  0
   27.2607  -20.4748  -16.3370 C   0  0  2  0  0  0  0  0  0  0  0  0
   27.8100  -21.5844  -17.1574 N   0  0  0  0  0  0  0  0  0  0  0  0
   25.7822  -20.6141  -16.3258 C   0  0  0  0  0  0  0  0  0  0  0  0
   25.1271  -20.6450  -17.4296 O   0  0  0  0  0  0  0  0  0  0  0  0
   18.3438  -22.6724  -13.7453 N   0  0  0  0  0  0  0  0  0  0  0  0
   19.0953  -23.8832  -13.7411 C   0  0  0  0  0  0  0  0  0  0  0  0
   18.5604  -24.9789  -14.1446 N   0  0  0  0  0  0  0  0  0  0  0  0
   20.4604  -23.9037  -13.2878 N   0  0  0  0  0  0  0  0  0  0  0  0
   21.1106  -22.6919  -12.8250 C   0  0  0  0  0  0  0  0  0  0  0  0
   21.5354  -21.9206  -14.0861 C   0  0  0  0  0  0  0  0  0  0  0  0
   23.0201  -21.6948  -14.0822 C   0  0  0  0  0  0  0  0  0  0  0  0
   23.5139  -20.9477  -15.2672 C   0  0  2  0  0  0  0  0  0  0  0  0
   24.9705  -20.7252  -15.1766 N   0  0  0  0  0  0  0  0  0  0  0  0
   22.8851  -19.6241  -15.3522 C   0  0  0  0  0  0  0  0  0  0  0  0
   21.7311  -19.4406  -16.0858 O   0  0  0  0  0  0  0  0  0  0  0  0
   23.3827  -18.6303  -14.7631 O   0  0  0  0  0  0  0  0  0  0  0  0
  2  1  1  1
  2  3  1  0
  4  2  1  0
  5  4  2  0
  7  6  1  1
  7  9  1  0
  7  8  1  0
  9 10  1  6
 10  4  1  0
 11 21  1  0
 11  9  1  0
 12 11  2  0
 14 13  1  0
 14 15  2  0
 16 14  1  0
 17 16  1  0
 18 17  1  0
 20 19  1  1
 19 18  1  0
 20 22  1  0
 20 21  1  0
 22 23  1  0
 24 22  2  0
M  END
$$$$
