AVR.pdb
     RDKit          3D

 24 23  0  0  1  0  0  0  0  0999 V2000
   21.9648  -17.1043  -16.7083 C   0  0  0  0  0  0  0  0  0  0  0  0
   23.2806  -17.3854  -17.4040 C   0  0  2  0  0  0  0  0  0  0  0  0
   22.9703  -17.7871  -18.7636 N   0  0  0  0  0  0  0  0  0  0  0  0
   24.1087  -18.3737  -16.7009 C   0  0  0  0  0  0  0  0  0  0  0  0
   23.7810  -19.5865  -16.7639 O   0  0  0  0  0  0  0  0  0  0  0  0
   28.2040  -18.2587  -16.5577 C   0  0  0  0  0  0  0  0  0  0  0  0
   27.5115  -18.5253  -15.2564 C   0  0  2  0  0  0  0  0  0  0  0  0
   28.4054  -19.4436  -14.4501 C   0  0  0  0  0  0  0  0  0  0  0  0
   26.1119  -19.0834  -15.3831 C   0  0  2  0  0  0  0  0  0  0  0  0
   25.2458  -18.0260  -15.9643 N   0  0  0  0  0  0  0  0  0  0  0  0
   25.5220  -19.4805  -14.0793 C   0  0  0  0  0  0  0  0  0  0  0  0
   25.1937  -18.5860  -13.2187 O   0  0  0  0  0  0  0  0  0  0  0  0
   18.9927  -22.9308  -14.9982 N   0  0  0  0  0  0  0  0  0  0  0  0
   18.8595  -22.2118  -13.7749 C   0  0  0  0  0  0  0  0  0  0  0  0
   17.7401  -21.6643  -13.4641 N   0  0  0  0  0  0  0  0  0  0  0  0
   19.9690  -22.0852  -12.8682 N   0  0  0  0  0  0  0  0  0  0  0  0
   21.2587  -22.6718  -13.1813 C   0  0  0  0  0  0  0  0  0  0  0  0
   22.2967  -21.5496  -13.0109 C   0  0  0  0  0  0  0  0  0  0  0  0
   23.5819  -22.1077  -12.4705 C   0  0  0  0  0  0  0  0  0  0  0  0
   24.6638  -21.0982  -12.3405 C   0  0  2  0  0  0  0  0  0  0  0  0
   25.2646  -20.8020  -13.6561 N   0  0  0  0  0  0  0  0  0  0  0  0
   25.7444  -21.5954  -11.4806 C   0  0  0  0  0  0  0  0  0  0  0  0
   25.5565  -21.7238  -10.1198 O   0  0  0  0  0  0  0  0  0  0  0  0
   26.8628  -21.9121  -11.9615 O   0  0  0  0  0  0  0  0  0  0  0  0
  2  1  1  1
  2  3  1  0
  4  2  1  0
  5  4  2  0
  7  6  1  6
  7  9  1  0
  7  8  1  0
  9 10  1  1
 10  4  1  0
 11 21  1  0
 11  9  1  0
 12 11  2  0
 14 13  1  0
 14 15  2  0
 16 14  1  0
 17 16  1  0
 18 17  1  0
 20 19  1  6
 19 18  1  0
 20 22  1  0
 20 21  1  0
 22 23  1  0
 24 22  2  0
M  END
$$$$
