AVR.pdb
     RDKit          3D

 24 23  0  0  1  0  0  0  0  0999 V2000
   24.1041  -22.4137  -16.4939 C   0  0  0  0  0  0  0  0  0  0  0  0
   23.9912  -20.9037  -16.4541 C   0  0  2  0  0  0  0  0  0  0  0  0
   25.3406  -20.3710  -16.4959 N   0  0  0  0  0  0  0  0  0  0  0  0
   23.2273  -20.4096  -15.3013 C   0  0  0  0  0  0  0  0  0  0  0  0
   23.8328  -20.2206  -14.2151 O   0  0  0  0  0  0  0  0  0  0  0  0
   21.3743  -17.1332  -14.8881 C   0  0  0  0  0  0  0  0  0  0  0  0
   20.4636  -18.2934  -14.6256 C   0  0  2  0  0  0  0  0  0  0  0  0
   19.4352  -17.8386  -13.6116 C   0  0  0  0  0  0  0  0  0  0  0  0
   21.1592  -19.5603  -14.1810 C   0  0  2  0  0  0  0  0  0  0  0  0
   21.8559  -20.1398  -15.3577 N   0  0  0  0  0  0  0  0  0  0  0  0
   20.2221  -20.5890  -13.6625 C   0  0  0  0  0  0  0  0  0  0  0  0
   19.4718  -21.2467  -14.4708 O   0  0  0  0  0  0  0  0  0  0  0  0
   18.9566  -25.3161   -6.0348 N   0  0  0  0  0  0  0  0  0  0  0  0
   17.9446  -25.6643   -6.9758 C   0  0  0  0  0  0  0  0  0  0  0  0
   17.1159  -26.6102   -6.7154 N   0  0  0  0  0  0  0  0  0  0  0  0
   17.8306  -24.9679   -8.2293 N   0  0  0  0  0  0  0  0  0  0  0  0
   18.8016  -23.9606   -8.6137 C   0  0  0  0  0  0  0  0  0  0  0  0
   18.3994  -23.4874  -10.0209 C   0  0  0  0  0  0  0  0  0  0  0  0
   19.3526  -22.4338  -10.5075 C   0  0  0  0  0  0  0  0  0  0  0  0
   19.0618  -21.9545  -11.8831 C   0  0  2  0  0  0  0  0  0  0  0  0
   20.0547  -20.9480  -12.3079 N   0  0  0  0  0  0  0  0  0  0  0  0
   17.7457  -21.3078  -11.9458 C   0  0  0  0  0  0  0  0  0  0  0  0
   16.6410  -22.0051  -12.3895 O   0  0  0  0  0  0  0  0  0  0  0  0
   17.5953  -20.1076  -11.6006 O   0  0  0  0  0  0  0  0  0  0  0  0
  2  1  1  1
  2  3  1  0
  4  2  1  0
  5  4  2  0
  7  6  1  1
  7  9  1  0
  7  8  1  0
  9 10  1  6
 10  4  1  0
 11 21  1  0
 11  9  1  0
 12 11  2  0
 14 13  1  0
 14 15  2  0
 16 14  1  0
 17 16  1  0
 18 17  1  0
 20 19  1  1
 19 18  1  0
 20 22  1  0
 20 21  1  0
 22 23  1  0
 24 22  2  0
M  END
$$$$
