AVR.pdb
     RDKit          3D

 24 23  0  0  1  0  0  0  0  0999 V2000
   27.8955  -18.2597  -16.4746 C   0  0  0  0  0  0  0  0  0  0  0  0
   28.9193  -19.2966  -16.0608 C   0  0  2  0  0  0  0  0  0  0  0  0
   29.2438  -20.0748  -17.2421 N   0  0  0  0  0  0  0  0  0  0  0  0
   28.4749  -20.1350  -14.9400 C   0  0  0  0  0  0  0  0  0  0  0  0
   27.8865  -21.2171  -15.1949 O   0  0  0  0  0  0  0  0  0  0  0  0
   30.7368  -20.9626  -11.7408 C   0  0  0  0  0  0  0  0  0  0  0  0
   29.3346  -20.5605  -11.3996 C   0  0  2  0  0  0  0  0  0  0  0  0
   28.9319  -21.3357  -10.1629 C   0  0  0  0  0  0  0  0  0  0  0  0
   28.3319  -20.7384  -12.5174 C   0  0  2  0  0  0  0  0  0  0  0  0
   28.6770  -19.7833  -13.6012 N   0  0  0  0  0  0  0  0  0  0  0  0
   26.9353  -20.4564  -12.0985 C   0  0  0  0  0  0  0  0  0  0  0  0
   26.5800  -19.2605  -11.7948 O   0  0  0  0  0  0  0  0  0  0  0  0
   19.4808  -22.1266  -14.4840 N   0  0  0  0  0  0  0  0  0  0  0  0
   19.1695  -21.1308  -13.5132 C   0  0  0  0  0  0  0  0  0  0  0  0
   17.9482  -20.9038  -13.1870 N   0  0  0  0  0  0  0  0  0  0  0  0
   20.2099  -20.3639  -12.8819 N   0  0  0  0  0  0  0  0  0  0  0  0
   21.6076  -20.6181  -13.1776 C   0  0  0  0  0  0  0  0  0  0  0  0
   22.1051  -21.5996  -12.1029 C   0  0  0  0  0  0  0  0  0  0  0  0
   23.5457  -21.9486  -12.3442 C   0  0  0  0  0  0  0  0  0  0  0  0
   24.5030  -21.0097  -11.7051 C   0  0  2  0  0  0  0  0  0  0  0  0
   25.8959  -21.4052  -11.9928 N   0  0  0  0  0  0  0  0  0  0  0  0
   24.3504  -21.0182  -10.2452 C   0  0  0  0  0  0  0  0  0  0  0  0
   25.0015  -21.9608   -9.4765 O   0  0  0  0  0  0  0  0  0  0  0  0
   23.6237  -20.1719   -9.6638 O   0  0  0  0  0  0  0  0  0  0  0  0
  2  1  1  6
  2  3  1  0
  4  2  1  0
  5  4  2  0
  7  6  1  6
  7  9  1  0
  7  8  1  0
  9 10  1  6
 10  4  1  0
 11 21  1  0
 11  9  1  0
 12 11  2  0
 14 13  1  0
 14 15  2  0
 16 14  1  0
 17 16  1  0
 18 17  1  0
 20 19  1  6
 19 18  1  0
 20 22  1  0
 20 21  1  0
 22 23  1  0
 24 22  2  0
M  END
$$$$
