AVR.pdb
     RDKit          3D

 24 23  0  0  1  0  0  0  0  0999 V2000
   26.2397  -20.5626   -5.9646 C   0  0  0  0  0  0  0  0  0  0  0  0
   27.5987  -20.0984   -6.4464 C   0  0  2  0  0  0  0  0  0  0  0  0
   27.9486  -18.9204   -5.6743 N   0  0  0  0  0  0  0  0  0  0  0  0
   27.6494  -19.8570   -7.8941 C   0  0  0  0  0  0  0  0  0  0  0  0
   27.3685  -18.7082   -8.3223 O   0  0  0  0  0  0  0  0  0  0  0  0
   29.6284  -22.5361  -10.5201 C   0  0  0  0  0  0  0  0  0  0  0  0
   29.4286  -21.0714  -10.7628 C   0  0  2  0  0  0  0  0  0  0  0  0
   30.6083  -20.3480  -10.1483 C   0  0  0  0  0  0  0  0  0  0  0  0
   28.1145  -20.5168  -10.2609 C   0  0  2  0  0  0  0  0  0  0  0  0
   27.9962  -20.8484   -8.8180 N   0  0  0  0  0  0  0  0  0  0  0  0
   26.9348  -21.0957  -10.9527 C   0  0  0  0  0  0  0  0  0  0  0  0
   26.4704  -22.2376  -10.5937 O   0  0  0  0  0  0  0  0  0  0  0  0
   20.3678  -19.5264  -15.1940 N   0  0  0  0  0  0  0  0  0  0  0  0
   20.0923  -20.9015  -14.9403 C   0  0  0  0  0  0  0  0  0  0  0  0
   19.2357  -21.5336  -15.6587 N   0  0  0  0  0  0  0  0  0  0  0  0
   20.7637  -21.6059  -13.8810 N   0  0  0  0  0  0  0  0  0  0  0  0
   21.7691  -20.9476  -13.0679 C   0  0  0  0  0  0  0  0  0  0  0  0
   22.9870  -20.7272  -13.9811 C   0  0  0  0  0  0  0  0  0  0  0  0
   24.1240  -20.1360  -13.1981 C   0  0  0  0  0  0  0  0  0  0  0  0
   25.0528  -21.1495  -12.6356 C   0  0  2  0  0  0  0  0  0  0  0  0
   26.2252  -20.4997  -12.0172 N   0  0  0  0  0  0  0  0  0  0  0  0
   25.5628  -22.0353  -13.6891 C   0  0  0  0  0  0  0  0  0  0  0  0
   24.8985  -23.2016  -14.0085 O   0  0  0  0  0  0  0  0  0  0  0  0
   26.6139  -21.7545  -14.3204 O   0  0  0  0  0  0  0  0  0  0  0  0
  2  1  1  1
  2  3  1  0
  4  2  1  0
  5  4  2  0
  7  6  1  1
  7  9  1  0
  7  8  1  0
  9 10  1  1
 10  4  1  0
 11 21  1  0
 11  9  1  0
 12 11  2  0
 14 13  1  0
 14 15  2  0
 16 14  1  0
 17 16  1  0
 18 17  1  0
 20 19  1  6
 19 18  1  0
 20 22  1  0
 20 21  1  0
 22 23  1  0
 24 22  2  0
M  END
$$$$
