AVR.pdb
     RDKit          3D

 24 23  0  0  1  0  0  0  0  0999 V2000
   19.5538  -29.8705   -2.3050 C   0  0  0  0  0  0  0  0  0  0  0  0
   18.3135  -29.3278   -1.6255 C   0  0  2  0  0  0  0  0  0  0  0  0
   17.6303  -30.4538   -1.0160 N   0  0  0  0  0  0  0  0  0  0  0  0
   17.4436  -28.5651   -2.5301 C   0  0  0  0  0  0  0  0  0  0  0  0
   16.6023  -29.1909   -3.2249 O   0  0  0  0  0  0  0  0  0  0  0  0
   15.0893  -25.8159   -1.4585 C   0  0  0  0  0  0  0  0  0  0  0  0
   15.9156  -25.3449   -2.6159 C   0  0  2  0  0  0  0  0  0  0  0  0
   15.0521  -24.4084   -3.4344 C   0  0  0  0  0  0  0  0  0  0  0  0
   16.5026  -26.4469   -3.4688 C   0  0  2  0  0  0  0  0  0  0  0  0
   17.5091  -27.1732   -2.6531 N   0  0  0  0  0  0  0  0  0  0  0  0
   17.1902  -25.9406   -4.6838 C   0  0  0  0  0  0  0  0  0  0  0  0
   18.2285  -25.1932   -4.5754 O   0  0  0  0  0  0  0  0  0  0  0  0
   19.1140  -29.5555  -12.4668 N   0  0  0  0  0  0  0  0  0  0  0  0
   20.2076  -28.8854  -11.8455 C   0  0  0  0  0  0  0  0  0  0  0  0
   21.3971  -29.0175  -12.3113 N   0  0  0  0  0  0  0  0  0  0  0  0
   20.0035  -28.0522  -10.6908 N   0  0  0  0  0  0  0  0  0  0  0  0
   18.6712  -27.8192  -10.1655 C   0  0  0  0  0  0  0  0  0  0  0  0
   18.8400  -26.8765   -8.9618 C   0  0  0  0  0  0  0  0  0  0  0  0
   17.5092  -26.6111   -8.3184 C   0  0  0  0  0  0  0  0  0  0  0  0
   17.5787  -25.6776   -7.1652 C   0  0  2  0  0  0  0  0  0  0  0  0
   16.8130  -26.2041   -6.0181 N   0  0  0  0  0  0  0  0  0  0  0  0
   16.9924  -24.3763   -7.5078 C   0  0  0  0  0  0  0  0  0  0  0  0
   17.7384  -23.4219   -8.1681 O   0  0  0  0  0  0  0  0  0  0  0  0
   15.8026  -24.1011   -7.2064 O   0  0  0  0  0  0  0  0  0  0  0  0
  2  1  1  6
  2  3  1  0
  4  2  1  0
  5  4  2  0
  7  6  1  1
  7  9  1  0
  7  8  1  0
  9 10  1  1
 10  4  1  0
 11 21  1  0
 11  9  1  0
 12 11  2  0
 14 13  1  0
 14 15  2  0
 16 14  1  0
 17 16  1  0
 18 17  1  0
 20 19  1  6
 19 18  1  0
 20 22  1  0
 20 21  1  0
 22 23  1  0
 24 22  2  0
M  END
$$$$
