AVR.pdb
     RDKit          3D

 24 23  0  0  1  0  0  0  0  0999 V2000
   21.9733  -15.0115  -18.7681 C   0  0  0  0  0  0  0  0  0  0  0  0
   23.0450  -15.5164  -17.8241 C   0  0  2  0  0  0  0  0  0  0  0  0
   22.5712  -16.7704  -17.2680 N   0  0  0  0  0  0  0  0  0  0  0  0
   23.4089  -14.5431  -16.7863 C   0  0  0  0  0  0  0  0  0  0  0  0
   22.7352  -14.5162  -15.7245 O   0  0  0  0  0  0  0  0  0  0  0  0
   27.0198  -13.7389  -15.3044 C   0  0  0  0  0  0  0  0  0  0  0  0
   26.2818  -12.5202  -15.7676 C   0  0  2  0  0  0  0  0  0  0  0  0
   26.6770  -11.3797  -14.8534 C   0  0  0  0  0  0  0  0  0  0  0  0
   24.7797  -12.6764  -15.8431 C   0  0  2  0  0  0  0  0  0  0  0  0
   24.4719  -13.6446  -16.9265 N   0  0  0  0  0  0  0  0  0  0  0  0
   24.0767  -11.4077  -16.1618 C   0  0  0  0  0  0  0  0  0  0  0  0
   24.2362  -10.8499  -17.3072 O   0  0  0  0  0  0  0  0  0  0  0  0
   15.8684   -8.3543  -15.8475 N   0  0  0  0  0  0  0  0  0  0  0  0
   16.6918   -7.2695  -16.2670 C   0  0  0  0  0  0  0  0  0  0  0  0
   16.1633   -6.1509  -16.6118 N   0  0  0  0  0  0  0  0  0  0  0  0
   18.1233   -7.4035  -16.3127 N   0  0  0  0  0  0  0  0  0  0  0  0
   18.7739   -8.6151  -15.8499 C   0  0  0  0  0  0  0  0  0  0  0  0
   20.2857   -8.3833  -16.0135 C   0  0  0  0  0  0  0  0  0  0  0  0
   21.0460   -9.6200  -15.6291 C   0  0  0  0  0  0  0  0  0  0  0  0
   22.5207   -9.4679  -15.7225 C   0  0  2  0  0  0  0  0  0  0  0  0
   23.2028  -10.7079  -15.3024 N   0  0  0  0  0  0  0  0  0  0  0  0
   22.9948   -8.3990  -14.8353 C   0  0  0  0  0  0  0  0  0  0  0  0
   22.9358   -7.0790  -15.2321 O   0  0  0  0  0  0  0  0  0  0  0  0
   23.4664   -8.6605  -13.6988 O   0  0  0  0  0  0  0  0  0  0  0  0
  2  1  1  6
  2  3  1  0
  4  2  1  0
  5  4  2  0
  7  6  1  1
  7  9  1  0
  7  8  1  0
  9 10  1  6
 10  4  1  0
 11 21  1  0
 11  9  1  0
 12 11  2  0
 14 13  1  0
 14 15  2  0
 16 14  1  0
 17 16  1  0
 18 17  1  0
 20 19  1  1
 19 18  1  0
 20 22  1  0
 20 21  1  0
 22 23  1  0
 24 22  2  0
M  END
$$$$
