AVR.pdb
     RDKit          3D

 24 23  0  0  1  0  0  0  0  0999 V2000
   22.6564  -14.4301  -19.2998 C   0  0  0  0  0  0  0  0  0  0  0  0
   23.8309  -14.8249  -18.4285 C   0  0  2  0  0  0  0  0  0  0  0  0
   23.6387  -16.2133  -18.0521 N   0  0  0  0  0  0  0  0  0  0  0  0
   24.0108  -13.9468  -17.2652 C   0  0  0  0  0  0  0  0  0  0  0  0
   23.3519  -14.1889  -16.2215 O   0  0  0  0  0  0  0  0  0  0  0  0
   27.3853  -12.6844  -15.5779 C   0  0  0  0  0  0  0  0  0  0  0  0
   26.4427  -11.5719  -15.9216 C   0  0  2  0  0  0  0  0  0  0  0  0
   26.6112  -10.4972  -14.8684 C   0  0  0  0  0  0  0  0  0  0  0  0
   24.9956  -11.9858  -16.0660 C   0  0  2  0  0  0  0  0  0  0  0  0
   24.8828  -12.8529  -17.2665 N   0  0  0  0  0  0  0  0  0  0  0  0
   24.0760  -10.8352  -16.2553 C   0  0  0  0  0  0  0  0  0  0  0  0
   24.0854  -10.1738  -17.3558 O   0  0  0  0  0  0  0  0  0  0  0  0
   15.4836   -9.6724  -15.9345 N   0  0  0  0  0  0  0  0  0  0  0  0
   16.0408   -8.3889  -16.2052 C   0  0  0  0  0  0  0  0  0  0  0  0
   15.2783   -7.4064  -16.5256 N   0  0  0  0  0  0  0  0  0  0  0  0
   17.4600   -8.1682  -16.1257 N   0  0  0  0  0  0  0  0  0  0  0  0
   18.3578   -9.2302  -15.7116 C   0  0  0  0  0  0  0  0  0  0  0  0
   19.7825   -8.6634  -15.8326 C   0  0  0  0  0  0  0  0  0  0  0  0
   20.7944   -9.7306  -15.5287 C   0  0  0  0  0  0  0  0  0  0  0  0
   22.2015   -9.2647  -15.6251 C   0  0  2  0  0  0  0  0  0  0  0  0
   23.1390  -10.3613  -15.3122 N   0  0  0  0  0  0  0  0  0  0  0  0
   22.4653   -8.1901  -14.6608 C   0  0  0  0  0  0  0  0  0  0  0  0
   22.1625   -6.8798  -14.9690 O   0  0  0  0  0  0  0  0  0  0  0  0
   22.9739   -8.4370  -13.5370 O   0  0  0  0  0  0  0  0  0  0  0  0
  2  1  1  1
  2  3  1  0
  4  2  1  0
  5  4  2  0
  7  6  1  1
  7  9  1  0
  7  8  1  0
  9 10  1  6
 10  4  1  0
 11 21  1  0
 11  9  1  0
 12 11  2  0
 14 13  1  0
 14 15  2  0
 16 14  1  0
 17 16  1  0
 18 17  1  0
 20 19  1  1
 19 18  1  0
 20 22  1  0
 20 21  1  0
 22 23  1  0
 24 22  2  0
M  END
$$$$
