GPQ.pdb
     RDKit          3D

 21 21  0  0  1  0  0  0  0  0999 V2000
   28.1305  -18.4513  -15.4937 N   0  0  0  0  0  0  0  0  0  0  0  0
   27.5607  -18.6254  -14.2024 C   0  0  0  0  0  0  0  0  0  0  0  0
   26.3611  -19.4787  -14.1764 C   0  0  0  0  0  0  0  0  0  0  0  0
   25.4557  -19.2628  -14.9976 O   0  0  0  0  0  0  0  0  0  0  0  0
   26.2368  -20.5194  -13.2425 N   0  0  0  0  0  0  0  0  0  0  0  0
   27.3820  -21.4040  -12.9003 C   0  0  0  0  0  0  0  0  0  0  0  0
   27.3249  -21.3165  -11.3854 C   0  0  0  0  0  0  0  0  0  0  0  0
   25.8883  -21.0674  -11.0342 C   0  0  0  0  0  0  0  0  0  0  0  0
   25.2268  -21.0593  -12.4236 C   0  0  1  0  0  0  0  0  0  0  0  0
   23.9559  -20.3991  -12.2750 C   0  0  0  0  0  0  0  0  0  0  0  0
   23.5904  -19.5069  -11.5031 O   0  0  0  0  0  0  0  0  0  0  0  0
   21.9043  -19.6705  -18.2015 N   0  0  0  0  0  0  0  0  0  0  0  0
   21.8020  -19.1678  -16.8848 C   0  0  0  0  0  0  0  0  0  0  0  0
   21.8655  -17.9326  -16.6870 O   0  0  0  0  0  0  0  0  0  0  0  0
   21.6186  -20.1617  -15.7679 C   0  0  0  0  0  0  0  0  0  0  0  0
   21.6369  -19.3891  -14.4962 C   0  0  0  0  0  0  0  0  0  0  0  0
   21.6272  -20.2234  -13.2376 C   0  0  2  0  0  0  0  0  0  0  0  0
   22.9318  -20.8630  -13.1891 N   0  0  0  0  0  0  0  0  0  0  0  0
   20.6182  -21.2972  -13.3996 C   0  0  0  0  0  0  0  0  0  0  0  0
   20.9414  -22.4553  -13.8387 O   0  0  0  0  0  0  0  0  0  0  0  0
   19.2737  -21.1548  -13.0999 O   0  0  0  0  0  0  0  0  0  0  0  0
  1  2  1  0
  2  3  1  0
  3  4  2  0
  5  9  1  0
  5  3  1  0
  6  5  1  0
  7  6  1  0
  7  8  1  0
  8  9  1  0
  9 10  1  1
 10 18  1  0
 10 11  2  0
 12 13  1  0
 13 14  2  0
 15 16  1  0
 15 13  1  0
 17 16  1  6
 17 19  1  0
 18 17  1  0
 19 20  2  0
 19 21  1  0
M  END
$$$$
