GPQ.pdb
     RDKit          3D

 21 21  0  0  1  0  0  0  0  0999 V2000
   25.4110  -13.5334  -19.7178 N   0  0  0  0  0  0  0  0  0  0  0  0
   25.7838  -12.3463  -19.0291 C   0  0  0  0  0  0  0  0  0  0  0  0
   24.8203  -11.9083  -18.0056 C   0  0  0  0  0  0  0  0  0  0  0  0
   23.6122  -12.1268  -18.1890 O   0  0  0  0  0  0  0  0  0  0  0  0
   25.2529  -11.2549  -16.8409 N   0  0  0  0  0  0  0  0  0  0  0  0
   26.3962  -11.7635  -16.0376 C   0  0  0  0  0  0  0  0  0  0  0  0
   27.2060  -10.4849  -15.9131 C   0  0  0  0  0  0  0  0  0  0  0  0
   26.2189   -9.3572  -15.9668 C   0  0  0  0  0  0  0  0  0  0  0  0
   24.8871  -10.1172  -16.0964 C   0  0  1  0  0  0  0  0  0  0  0  0
   23.9194   -9.1773  -16.5994 C   0  0  0  0  0  0  0  0  0  0  0  0
   23.9452   -8.4365  -17.5874 O   0  0  0  0  0  0  0  0  0  0  0  0
   18.1032  -10.1720  -15.6068 N   0  0  0  0  0  0  0  0  0  0  0  0
   18.7634  -10.5776  -16.7886 C   0  0  0  0  0  0  0  0  0  0  0  0
   18.2430  -11.4515  -17.5196 O   0  0  0  0  0  0  0  0  0  0  0  0
   20.0820   -9.9259  -17.1133 C   0  0  0  0  0  0  0  0  0  0  0  0
   20.3641   -8.9560  -16.0206 C   0  0  0  0  0  0  0  0  0  0  0  0
   21.6429   -8.1681  -16.1754 C   0  0  2  0  0  0  0  0  0  0  0  0
   22.7084   -9.0868  -15.8090 N   0  0  0  0  0  0  0  0  0  0  0  0
   21.6407   -7.0767  -15.1723 C   0  0  0  0  0  0  0  0  0  0  0  0
   22.1362   -7.2438  -14.0039 O   0  0  0  0  0  0  0  0  0  0  0  0
   21.1203   -5.8132  -15.3966 O   0  0  0  0  0  0  0  0  0  0  0  0
  1  2  1  0
  2  3  1  0
  3  4  2  0
  5  9  1  0
  5  3  1  0
  6  5  1  0
  7  6  1  0
  7  8  1  0
  8  9  1  0
  9 10  1  6
 10 18  1  0
 10 11  2  0
 12 13  1  0
 13 14  2  0
 15 16  1  0
 15 13  1  0
 17 16  1  1
 17 19  1  0
 18 17  1  0
 19 20  2  0
 19 21  1  0
M  END
$$$$
