GPQ.pdb
     RDKit          3D

 21 21  0  0  1  0  0  0  0  0999 V2000
   27.6053  -18.3814  -15.7916 N   0  0  0  0  0  0  0  0  0  0  0  0
   26.7591  -18.6391  -14.6782 C   0  0  0  0  0  0  0  0  0  0  0  0
   26.1764  -19.9912  -14.6565 C   0  0  0  0  0  0  0  0  0  0  0  0
   25.4622  -20.3500  -15.6062 O   0  0  0  0  0  0  0  0  0  0  0  0
   26.4200  -20.8640  -13.5844 N   0  0  0  0  0  0  0  0  0  0  0  0
   27.6638  -20.7791  -12.7738 C   0  0  0  0  0  0  0  0  0  0  0  0
   27.0574  -20.7630  -11.3817 C   0  0  0  0  0  0  0  0  0  0  0  0
   25.7685  -21.5237  -11.4775 C   0  0  0  0  0  0  0  0  0  0  0  0
   25.7650  -21.9418  -12.9585 C   0  0  1  0  0  0  0  0  0  0  0  0
   24.4062  -22.2823  -13.2910 C   0  0  0  0  0  0  0  0  0  0  0  0
   23.6924  -23.2216  -12.9254 O   0  0  0  0  0  0  0  0  0  0  0  0
   19.1679  -22.9776  -13.4175 N   0  0  0  0  0  0  0  0  0  0  0  0
   19.7359  -22.0380  -12.5278 C   0  0  0  0  0  0  0  0  0  0  0  0
   19.7904  -22.2988  -11.3039 O   0  0  0  0  0  0  0  0  0  0  0  0
   20.2554  -20.7489  -13.1082 C   0  0  0  0  0  0  0  0  0  0  0  0
   21.7397  -20.8524  -13.1282 C   0  0  0  0  0  0  0  0  0  0  0  0
   22.3294  -21.3831  -14.4130 C   0  0  2  0  0  0  0  0  0  0  0  0
   23.7692  -21.3639  -14.2131 N   0  0  0  0  0  0  0  0  0  0  0  0
   22.0243  -20.4195  -15.4973 C   0  0  0  0  0  0  0  0  0  0  0  0
   21.2135  -20.7144  -16.4429 O   0  0  0  0  0  0  0  0  0  0  0  0
   22.5687  -19.1494  -15.5871 O   0  0  0  0  0  0  0  0  0  0  0  0
  1  2  1  0
  2  3  1  0
  3  4  2  0
  5  9  1  0
  5  3  1  0
  6  5  1  0
  7  6  1  0
  7  8  1  0
  8  9  1  0
  9 10  1  6
 10 18  1  0
 10 11  2  0
 12 13  1  0
 13 14  2  0
 15 16  1  0
 15 13  1  0
 17 16  1  1
 17 19  1  0
 18 17  1  0
 19 20  2  0
 19 21  1  0
M  END
$$$$
