GPQ.pdb
     RDKit          3D

 21 21  0  0  1  0  0  0  0  0999 V2000
   25.5645  -15.1414  -17.9854 N   0  0  0  0  0  0  0  0  0  0  0  0
   25.2871  -14.4573  -16.7699 C   0  0  0  0  0  0  0  0  0  0  0  0
   24.3873  -13.3008  -16.9140 C   0  0  0  0  0  0  0  0  0  0  0  0
   24.4554  -12.6150  -17.9464 O   0  0  0  0  0  0  0  0  0  0  0  0
   23.4665  -12.9738  -15.9062 N   0  0  0  0  0  0  0  0  0  0  0  0
   22.6485  -14.0134  -15.2269 C   0  0  0  0  0  0  0  0  0  0  0  0
   22.9193  -13.6421  -13.7796 C   0  0  0  0  0  0  0  0  0  0  0  0
   23.1865  -12.1664  -13.7688 C   0  0  0  0  0  0  0  0  0  0  0  0
   23.0146  -11.8097  -15.2558 C   0  0  1  0  0  0  0  0  0  0  0  0
   23.6676  -10.5425  -15.4575 C   0  0  0  0  0  0  0  0  0  0  0  0
   24.8246  -10.1795  -15.2227 O   0  0  0  0  0  0  0  0  0  0  0  0
   24.0708   -7.8903  -20.3459 N   0  0  0  0  0  0  0  0  0  0  0  0
   22.7139   -8.1720  -20.0692 C   0  0  0  0  0  0  0  0  0  0  0  0
   21.8967   -8.2685  -21.0136 O   0  0  0  0  0  0  0  0  0  0  0  0
   22.3141   -8.3446  -18.6273 C   0  0  0  0  0  0  0  0  0  0  0  0
   23.5443   -8.1507  -17.8128 C   0  0  0  0  0  0  0  0  0  0  0  0
   23.3375   -8.1905  -16.3175 C   0  0  2  0  0  0  0  0  0  0  0  0
   22.8198   -9.5193  -16.0353 N   0  0  0  0  0  0  0  0  0  0  0  0
   22.2710   -7.2214  -15.9699 C   0  0  0  0  0  0  0  0  0  0  0  0
   21.0551   -7.5927  -15.8214 O   0  0  0  0  0  0  0  0  0  0  0  0
   22.4819   -5.8663  -15.7777 O   0  0  0  0  0  0  0  0  0  0  0  0
  1  2  1  0
  2  3  1  0
  3  4  2  0
  5  9  1  0
  5  3  1  0
  6  5  1  0
  7  6  1  0
  7  8  1  0
  8  9  1  0
  9 10  1  6
 10 18  1  0
 10 11  2  0
 12 13  1  0
 13 14  2  0
 15 16  1  0
 15 13  1  0
 17 16  1  6
 17 19  1  0
 18 17  1  0
 19 20  2  0
 19 21  1  0
M  END
$$$$
