GPQ.pdb
     RDKit          3D

 21 21  0  0  1  0  0  0  0  0999 V2000
   25.5262  -13.5559  -19.8407 N   0  0  0  0  0  0  0  0  0  0  0  0
   26.0480  -12.4682  -19.0878 C   0  0  0  0  0  0  0  0  0  0  0  0
   25.0978  -11.8804  -18.1289 C   0  0  0  0  0  0  0  0  0  0  0  0
   23.8905  -11.8642  -18.4168 O   0  0  0  0  0  0  0  0  0  0  0  0
   25.5421  -11.3460  -16.9092 N   0  0  0  0  0  0  0  0  0  0  0  0
   26.5629  -12.0375  -16.0779 C   0  0  0  0  0  0  0  0  0  0  0  0
   27.5206  -10.8831  -15.8416 C   0  0  0  0  0  0  0  0  0  0  0  0
   26.6902   -9.6349  -15.8831 C   0  0  0  0  0  0  0  0  0  0  0  0
   25.2821  -10.2076  -16.1225 C   0  0  1  0  0  0  0  0  0  0  0  0
   24.4729   -9.1263  -16.6215 C   0  0  0  0  0  0  0  0  0  0  0  0
   24.5052   -8.5174  -17.6955 O   0  0  0  0  0  0  0  0  0  0  0  0
   19.8109   -9.7068  -18.4071 N   0  0  0  0  0  0  0  0  0  0  0  0
   19.4670   -8.3425  -18.2756 C   0  0  0  0  0  0  0  0  0  0  0  0
   18.4463   -7.9029  -18.8534 O   0  0  0  0  0  0  0  0  0  0  0  0
   20.3619   -7.4726  -17.4323 C   0  0  0  0  0  0  0  0  0  0  0  0
   21.4769   -8.3352  -16.9559 C   0  0  0  0  0  0  0  0  0  0  0  0
   22.5000   -7.6417  -16.0884 C   0  0  2  0  0  0  0  0  0  0  0  0
   23.4450   -8.6774  -15.7041 N   0  0  0  0  0  0  0  0  0  0  0  0
   21.8254   -7.1826  -14.8509 C   0  0  0  0  0  0  0  0  0  0  0  0
   21.3999   -5.9815  -14.7296 O   0  0  0  0  0  0  0  0  0  0  0  0
   21.5977   -7.9836  -13.7444 O   0  0  0  0  0  0  0  0  0  0  0  0
  1  2  1  0
  2  3  1  0
  3  4  2  0
  5  9  1  0
  5  3  1  0
  6  5  1  0
  7  6  1  0
  7  8  1  0
  8  9  1  0
  9 10  1  6
 10 18  1  0
 10 11  2  0
 12 13  1  0
 13 14  2  0
 15 16  1  0
 15 13  1  0
 17 16  1  6
 17 19  1  0
 18 17  1  0
 19 20  2  0
 19 21  1  0
M  END
$$$$
