GPQ.pdb
     RDKit          3D

 21 21  0  0  1  0  0  0  0  0999 V2000
   25.3041  -14.0941  -19.1335 N   0  0  0  0  0  0  0  0  0  0  0  0
   25.7792  -12.8696  -18.5882 C   0  0  0  0  0  0  0  0  0  0  0  0
   24.8781  -12.2529  -17.6004 C   0  0  0  0  0  0  0  0  0  0  0  0
   23.6527  -12.3943  -17.7386 O   0  0  0  0  0  0  0  0  0  0  0  0
   25.3887  -11.5171  -16.5195 N   0  0  0  0  0  0  0  0  0  0  0  0
   26.5679  -11.9838  -15.7431 C   0  0  0  0  0  0  0  0  0  0  0  0
   27.4052  -10.7172  -15.7696 C   0  0  0  0  0  0  0  0  0  0  0  0
   26.4360   -9.5764  -15.8597 C   0  0  0  0  0  0  0  0  0  0  0  0
   25.0861  -10.3153  -15.8512 C   0  0  1  0  0  0  0  0  0  0  0  0
   24.1070   -9.3983  -16.3740 C   0  0  0  0  0  0  0  0  0  0  0  0
   24.1560   -8.6164  -17.3288 O   0  0  0  0  0  0  0  0  0  0  0  0
   19.3734  -11.6185  -15.1587 N   0  0  0  0  0  0  0  0  0  0  0  0
   19.6603  -11.5983  -16.5423 C   0  0  0  0  0  0  0  0  0  0  0  0
   19.3989  -12.6028  -17.2435 O   0  0  0  0  0  0  0  0  0  0  0  0
   20.2764  -10.3473  -17.1118 C   0  0  0  0  0  0  0  0  0  0  0  0
   20.5129   -9.4244  -15.9687 C   0  0  0  0  0  0  0  0  0  0  0  0
   21.7427   -8.5564  -16.0877 C   0  0  2  0  0  0  0  0  0  0  0  0
   22.8491   -9.3941  -15.6547 N   0  0  0  0  0  0  0  0  0  0  0  0
   21.6247   -7.4469  -15.1118 C   0  0  0  0  0  0  0  0  0  0  0  0
   22.1431   -7.5277  -13.9442 O   0  0  0  0  0  0  0  0  0  0  0  0
   20.9649   -6.2555  -15.3625 O   0  0  0  0  0  0  0  0  0  0  0  0
  1  2  1  0
  2  3  1  0
  3  4  2  0
  5  9  1  0
  5  3  1  0
  6  5  1  0
  7  6  1  0
  7  8  1  0
  8  9  1  0
  9 10  1  6
 10 18  1  0
 10 11  2  0
 12 13  1  0
 13 14  2  0
 15 16  1  0
 15 13  1  0
 17 16  1  1
 17 19  1  0
 18 17  1  0
 19 20  2  0
 19 21  1  0
M  END
$$$$
