GPQ.pdb
     RDKit          3D

 21 21  0  0  1  0  0  0  0  0999 V2000
   28.3903  -20.7699  -13.0327 N   0  0  0  0  0  0  0  0  0  0  0  0
   28.1498  -20.1178  -11.7921 C   0  0  0  0  0  0  0  0  0  0  0  0
   27.0647  -20.7110  -10.9929 C   0  0  0  0  0  0  0  0  0  0  0  0
   26.0837  -21.1933  -11.5810 O   0  0  0  0  0  0  0  0  0  0  0  0
   27.1317  -20.7341   -9.5910 N   0  0  0  0  0  0  0  0  0  0  0  0
   28.4102  -20.9813   -8.8730 C   0  0  0  0  0  0  0  0  0  0  0  0
   28.3854  -19.8129   -7.9034 C   0  0  0  0  0  0  0  0  0  0  0  0
   26.9388  -19.5073   -7.6528 C   0  0  0  0  0  0  0  0  0  0  0  0
   26.2428  -20.5791   -8.5101 C   0  0  1  0  0  0  0  0  0  0  0  0
   24.8898  -20.1323   -8.7164 C   0  0  0  0  0  0  0  0  0  0  0  0
   24.4168  -18.9956   -8.8155 O   0  0  0  0  0  0  0  0  0  0  0  0
   20.0146  -20.3940  -13.1726 N   0  0  0  0  0  0  0  0  0  0  0  0
   20.9237  -20.2483  -12.1005 C   0  0  0  0  0  0  0  0  0  0  0  0
   21.7206  -19.2820  -12.0916 O   0  0  0  0  0  0  0  0  0  0  0  0
   20.8861  -21.2813  -11.0049 C   0  0  0  0  0  0  0  0  0  0  0  0
   22.2800  -21.4315  -10.5061 C   0  0  0  0  0  0  0  0  0  0  0  0
   22.5206  -20.9165   -9.1071 C   0  0  2  0  0  0  0  0  0  0  0  0
   23.9182  -21.2017   -8.8265 N   0  0  0  0  0  0  0  0  0  0  0  0
   21.7103  -21.7276   -8.1675 C   0  0  0  0  0  0  0  0  0  0  0  0
   20.4853  -21.4444   -7.9274 O   0  0  0  0  0  0  0  0  0  0  0  0
   22.1856  -22.8337   -7.4831 O   0  0  0  0  0  0  0  0  0  0  0  0
  1  2  1  0
  2  3  1  0
  3  4  2  0
  5  9  1  0
  5  3  1  0
  6  5  1  0
  7  6  1  0
  7  8  1  0
  8  9  1  0
  9 10  1  6
 10 18  1  0
 10 11  2  0
 12 13  1  0
 13 14  2  0
 15 16  1  0
 15 13  1  0
 17 16  1  6
 17 19  1  0
 18 17  1  0
 19 20  2  0
 19 21  1  0
M  END
$$$$
