GPQ.pdb
     RDKit          3D

 21 21  0  0  1  0  0  0  0  0999 V2000
   26.9971  -21.6269  -11.2737 N   0  0  0  0  0  0  0  0  0  0  0  0
   27.0465  -21.2975  -12.6562 C   0  0  0  0  0  0  0  0  0  0  0  0
   26.0052  -20.3534  -13.0946 C   0  0  0  0  0  0  0  0  0  0  0  0
   24.8699  -20.4435  -12.6007 O   0  0  0  0  0  0  0  0  0  0  0  0
   26.2840  -19.3668  -14.0534 N   0  0  0  0  0  0  0  0  0  0  0  0
   27.5681  -18.6170  -14.0535 C   0  0  0  0  0  0  0  0  0  0  0  0
   27.9642  -18.7943  -15.5087 C   0  0  0  0  0  0  0  0  0  0  0  0
   26.6837  -18.9291  -16.2777 C   0  0  0  0  0  0  0  0  0  0  0  0
   25.6350  -18.7872  -15.1604 C   0  0  1  0  0  0  0  0  0  0  0  0
   24.4053  -19.3332  -15.6728 C   0  0  0  0  0  0  0  0  0  0  0  0
   24.1882  -20.0928  -16.6222 O   0  0  0  0  0  0  0  0  0  0  0  0
   21.3155  -21.4195  -11.5267 N   0  0  0  0  0  0  0  0  0  0  0  0
   20.2076  -21.5544  -12.3934 C   0  0  0  0  0  0  0  0  0  0  0  0
   19.1983  -22.1914  -12.0134 O   0  0  0  0  0  0  0  0  0  0  0  0
   20.3000  -20.9134  -13.7534 C   0  0  0  0  0  0  0  0  0  0  0  0
   21.6205  -20.2307  -13.8193 C   0  0  0  0  0  0  0  0  0  0  0  0
   21.9481  -19.5926  -15.1480 C   0  0  2  0  0  0  0  0  0  0  0  0
   23.2207  -18.9186  -14.9487 N   0  0  0  0  0  0  0  0  0  0  0  0
   20.9356  -18.5453  -15.4229 C   0  0  0  0  0  0  0  0  0  0  0  0
   21.0961  -17.3407  -15.0209 O   0  0  0  0  0  0  0  0  0  0  0  0
   19.7586  -18.7630  -16.1191 O   0  0  0  0  0  0  0  0  0  0  0  0
  1  2  1  0
  2  3  1  0
  3  4  2  0
  5  9  1  0
  5  3  1  0
  6  5  1  0
  7  6  1  0
  7  8  1  0
  8  9  1  0
  9 10  1  6
 10 18  1  0
 10 11  2  0
 12 13  1  0
 13 14  2  0
 15 16  1  0
 15 13  1  0
 17 16  1  1
 17 19  1  0
 18 17  1  0
 19 20  2  0
 19 21  1  0
M  END
$$$$
