GPQ.pdb
     RDKit          3D

 21 21  0  0  1  0  0  0  0  0999 V2000
   26.7746  -17.2024  -17.2722 N   0  0  0  0  0  0  0  0  0  0  0  0
   27.5165  -17.7284  -16.1790 C   0  0  0  0  0  0  0  0  0  0  0  0
   26.7956  -18.7353  -15.3824 C   0  0  0  0  0  0  0  0  0  0  0  0
   25.5551  -18.7003  -15.3553 O   0  0  0  0  0  0  0  0  0  0  0  0
   27.4921  -19.7200  -14.6642 N   0  0  0  0  0  0  0  0  0  0  0  0
   28.6402  -20.4556  -15.2575 C   0  0  0  0  0  0  0  0  0  0  0  0
   29.6577  -20.2757  -14.1447 C   0  0  0  0  0  0  0  0  0  0  0  0
   28.8712  -20.1560  -12.8734 C   0  0  0  0  0  0  0  0  0  0  0  0
   27.4283  -20.3080  -13.3865 C   0  0  1  0  0  0  0  0  0  0  0  0
   26.5654  -19.7763  -12.3640 C   0  0  0  0  0  0  0  0  0  0  0  0
   26.6049  -18.7094  -11.7429 O   0  0  0  0  0  0  0  0  0  0  0  0
   19.6419  -21.0243  -10.5332 N   0  0  0  0  0  0  0  0  0  0  0  0
   20.7593  -20.7385  -11.3498 C   0  0  0  0  0  0  0  0  0  0  0  0
   20.6879  -20.9294  -12.5857 O   0  0  0  0  0  0  0  0  0  0  0  0
   22.0000  -20.2096  -10.6792 C   0  0  0  0  0  0  0  0  0  0  0  0
   23.1560  -20.6357  -11.5138 C   0  0  0  0  0  0  0  0  0  0  0  0
   24.5137  -20.2579  -10.9714 C   0  0  2  0  0  0  0  0  0  0  0  0
   25.4620  -20.6436  -12.0036 N   0  0  0  0  0  0  0  0  0  0  0  0
   24.7909  -21.1010   -9.7841 C   0  0  0  0  0  0  0  0  0  0  0  0
   25.3151  -22.2631   -9.8991 O   0  0  0  0  0  0  0  0  0  0  0  0
   24.5192  -20.7235   -8.4798 O   0  0  0  0  0  0  0  0  0  0  0  0
  1  2  1  0
  2  3  1  0
  3  4  2  0
  5  9  1  0
  5  3  1  0
  6  5  1  0
  7  6  1  0
  7  8  1  0
  8  9  1  0
  9 10  1  1
 10 18  1  0
 10 11  2  0
 12 13  1  0
 13 14  2  0
 15 16  1  0
 15 13  1  0
 17 16  1  6
 17 19  1  0
 18 17  1  0
 19 20  2  0
 19 21  1  0
M  END
$$$$
