GPQ.pdb
     RDKit          3D

 21 21  0  0  1  0  0  0  0  0999 V2000
   25.1188  -21.3147  -10.6905 N   0  0  0  0  0  0  0  0  0  0  0  0
   25.8568  -21.2767  -11.9055 C   0  0  0  0  0  0  0  0  0  0  0  0
   25.5200  -20.1466  -12.7872 C   0  0  0  0  0  0  0  0  0  0  0  0
   24.3640  -19.6950  -12.7657 O   0  0  0  0  0  0  0  0  0  0  0  0
   26.4839  -19.5849  -13.6393 N   0  0  0  0  0  0  0  0  0  0  0  0
   27.9187  -19.5109  -13.2559 C   0  0  0  0  0  0  0  0  0  0  0  0
   28.5447  -20.1087  -14.5036 C   0  0  0  0  0  0  0  0  0  0  0  0
   27.6139  -19.7866  -15.6345 C   0  0  0  0  0  0  0  0  0  0  0  0
   26.5154  -18.9859  -14.9131 C   0  0  1  0  0  0  0  0  0  0  0  0
   25.3596  -18.9994  -15.7714 C   0  0  0  0  0  0  0  0  0  0  0  0
   24.6685  -19.9348  -16.1872 O   0  0  0  0  0  0  0  0  0  0  0  0
   20.8833  -18.8009  -14.6622 N   0  0  0  0  0  0  0  0  0  0  0  0
   20.4599  -18.1320  -15.8328 C   0  0  0  0  0  0  0  0  0  0  0  0
   19.4369  -18.5287  -16.4368 O   0  0  0  0  0  0  0  0  0  0  0  0
   21.2756  -16.9556  -16.3012 C   0  0  0  0  0  0  0  0  0  0  0  0
   22.6686  -17.1815  -15.8290 C   0  0  0  0  0  0  0  0  0  0  0  0
   23.6688  -17.5089  -16.9118 C   0  0  2  0  0  0  0  0  0  0  0  0
   24.9366  -17.6893  -16.2236 N   0  0  0  0  0  0  0  0  0  0  0  0
   23.8105  -16.3216  -17.7879 C   0  0  0  0  0  0  0  0  0  0  0  0
   24.6907  -15.4220  -17.5547 O   0  0  0  0  0  0  0  0  0  0  0  0
   23.0304  -16.0811  -18.9065 O   0  0  0  0  0  0  0  0  0  0  0  0
  1  2  1  0
  2  3  1  0
  3  4  2  0
  5  9  1  0
  5  3  1  0
  6  5  1  0
  7  6  1  0
  7  8  1  0
  8  9  1  0
  9 10  1  6
 10 18  1  0
 10 11  2  0
 12 13  1  0
 13 14  2  0
 15 16  1  0
 15 13  1  0
 17 16  1  1
 17 19  1  0
 18 17  1  0
 19 20  2  0
 19 21  1  0
M  END
$$$$
