VQT.pdb
     RDKit          3D

 24 23  0  0  1  0  0  0  0  0999 V2000
   25.5691  -13.9213  -15.2850 C   0  0  0  0  0  0  0  0  0  0  0  0
   24.8617  -12.6808  -15.7625 C   0  0  1  0  0  0  0  0  0  0  0  0
   25.5519  -12.1207  -16.9544 C   0  0  0  0  0  0  0  0  0  0  0  0
   23.3837  -12.8099  -15.8509 C   0  0  2  0  0  0  0  0  0  0  0  0
   23.1178  -13.8924  -16.8130 N   0  0  0  0  0  0  0  0  0  0  0  0
   22.6363  -11.6419  -16.2888 C   0  0  0  0  0  0  0  0  0  0  0  0
   22.1388  -11.5973  -17.4700 O   0  0  0  0  0  0  0  0  0  0  0  0
   17.5077   -9.6115  -16.4259 N   0  0  0  0  0  0  0  0  0  0  0  0
   18.1116  -10.0711  -15.2086 C   0  0  0  0  0  0  0  0  0  0  0  0
   17.3205  -10.3061  -14.2675 O   0  0  0  0  0  0  0  0  0  0  0  0
   19.5657  -10.2244  -15.1697 C   0  0  0  0  0  0  0  0  0  0  0  0
   20.2962   -9.7887  -16.4010 C   0  0  0  0  0  0  0  0  0  0  0  0
   21.6887   -9.3215  -16.0522 C   0  0  2  0  0  0  0  0  0  0  0  0
   22.3823  -10.4794  -15.5037 N   0  0  0  0  0  0  0  0  0  0  0  0
   21.6749   -8.1626  -15.1380 C   0  0  0  0  0  0  0  0  0  0  0  0
   21.7591   -8.3413  -13.8965 O   0  0  0  0  0  0  0  0  0  0  0  0
   23.9392   -5.1269  -15.7369 C   0  0  0  0  0  0  0  0  0  0  0  0
   22.5289   -4.6143  -15.5488 C   0  0  1  0  0  0  0  0  0  0  0  0
   22.0111   -4.3715  -16.8216 O   0  0  0  0  0  0  0  0  0  0  0  0
   21.7418   -5.6855  -14.8344 C   0  0  2  0  0  0  0  0  0  0  0  0
   21.5663   -6.8561  -15.6752 N   0  0  0  0  0  0  0  0  0  0  0  0
   20.4209   -5.1217  -14.4681 C   0  0  0  0  0  0  0  0  0  0  0  0
   19.3832   -5.5776  -15.0121 O   0  0  0  0  0  0  0  0  0  0  0  0
   20.3063   -4.1066  -13.5422 O   0  0  0  0  0  0  0  0  0  0  0  0
  2  1  1  6
  2  3  1  0
  4  2  1  0
  4  5  1  6
  6  4  1  0
  6  7  2  0
  8  9  1  0
  9 11  1  0
 10  9  2  0
 11 12  1  0
 13 12  1  1
 13 14  1  0
 14  6  1  0
 15 13  1  0
 16 15  2  0
 18 17  1  6
 18 20  1  0
 19 18  1  0
 20 22  1  0
 20 21  1  6
 21 15  1  0
 22 24  1  0
 23 22  2  0
M  END
$$$$
