VQT.pdb
     RDKit          3D

 24 23  0  0  1  0  0  0  0  0999 V2000
   26.1241  -10.4492  -15.3093 C   0  0  0  0  0  0  0  0  0  0  0  0
   25.6012  -11.6129  -16.1091 C   0  0  1  0  0  0  0  0  0  0  0  0
   26.5640  -12.7448  -16.0616 C   0  0  0  0  0  0  0  0  0  0  0  0
   24.1746  -11.9437  -15.8547 C   0  0  2  0  0  0  0  0  0  0  0  0
   23.8186  -13.0086  -16.8071 N   0  0  0  0  0  0  0  0  0  0  0  0
   23.2027  -10.8734  -16.0117 C   0  0  0  0  0  0  0  0  0  0  0  0
   22.8630  -10.4742  -17.1822 O   0  0  0  0  0  0  0  0  0  0  0  0
   17.6190  -10.2144  -14.2952 N   0  0  0  0  0  0  0  0  0  0  0  0
   18.3042  -10.8784  -15.3664 C   0  0  0  0  0  0  0  0  0  0  0  0
   17.6443  -11.7544  -15.9697 O   0  0  0  0  0  0  0  0  0  0  0  0
   19.6825  -10.4853  -15.6582 C   0  0  0  0  0  0  0  0  0  0  0  0
   20.2904   -9.5014  -14.7085 C   0  0  0  0  0  0  0  0  0  0  0  0
   21.6509   -9.0662  -15.1970 C   0  0  2  0  0  0  0  0  0  0  0  0
   22.5511  -10.1842  -14.9475 N   0  0  0  0  0  0  0  0  0  0  0  0
   22.0937   -7.8081  -14.5644 C   0  0  0  0  0  0  0  0  0  0  0  0
   22.6080   -7.8292  -13.4175 O   0  0  0  0  0  0  0  0  0  0  0  0
   24.1833   -5.0294  -16.3621 C   0  0  0  0  0  0  0  0  0  0  0  0
   22.9255   -4.4166  -15.7882 C   0  0  1  0  0  0  0  0  0  0  0  0
   22.0080   -4.3159  -16.8347 O   0  0  0  0  0  0  0  0  0  0  0  0
   22.4188   -5.3368  -14.7047 C   0  0  2  0  0  0  0  0  0  0  0  0
   21.9322   -6.5859  -15.2626 N   0  0  0  0  0  0  0  0  0  0  0  0
   21.3252   -4.6434  -13.9837 C   0  0  0  0  0  0  0  0  0  0  0  0
   20.1602   -5.1139  -14.0300 O   0  0  0  0  0  0  0  0  0  0  0  0
   21.5589   -3.4920  -13.2624 O   0  0  0  0  0  0  0  0  0  0  0  0
  2  1  1  1
  2  3  1  0
  4  2  1  0
  4  5  1  6
  6  4  1  0
  6  7  2  0
  8  9  1  0
  9 11  1  0
 10  9  2  0
 11 12  1  0
 13 12  1  1
 13 14  1  0
 14  6  1  0
 15 13  1  0
 16 15  2  0
 18 17  1  6
 18 20  1  0
 19 18  1  0
 20 22  1  0
 20 21  1  6
 21 15  1  0
 22 24  1  0
 23 22  2  0
M  END
$$$$
