VQT.pdb
     RDKit          3D

 24 23  0  0  1  0  0  0  0  0999 V2000
   18.5584  -12.7409  -19.5718 C   0  0  0  0  0  0  0  0  0  0  0  0
   19.0339  -13.3632  -18.2858 C   0  0  1  0  0  0  0  0  0  0  0  0
   19.4148  -14.7827  -18.5103 C   0  0  0  0  0  0  0  0  0  0  0  0
   19.9966  -12.5310  -17.5179 C   0  0  2  0  0  0  0  0  0  0  0  0
   20.3190  -13.2881  -16.2969 N   0  0  0  0  0  0  0  0  0  0  0  0
   19.5564  -11.2070  -17.1083 C   0  0  0  0  0  0  0  0  0  0  0  0
   18.3728  -10.8022  -17.3911 O   0  0  0  0  0  0  0  0  0  0  0  0
   16.0491   -9.1036  -14.0887 N   0  0  0  0  0  0  0  0  0  0  0  0
   16.5534   -7.8275  -14.5072 C   0  0  0  0  0  0  0  0  0  0  0  0
   15.8231   -6.8452  -14.2456 O   0  0  0  0  0  0  0  0  0  0  0  0
   17.8478   -7.7814  -15.1868 C   0  0  0  0  0  0  0  0  0  0  0  0
   18.4831   -9.1083  -15.4609 C   0  0  0  0  0  0  0  0  0  0  0  0
   19.8439   -8.9236  -16.0878 C   0  0  2  0  0  0  0  0  0  0  0  0
   20.3406  -10.2603  -16.3865 N   0  0  0  0  0  0  0  0  0  0  0  0
   20.7530   -8.1426  -15.2259 C   0  0  0  0  0  0  0  0  0  0  0  0
   21.1054   -8.5987  -14.1088 O   0  0  0  0  0  0  0  0  0  0  0  0
   23.7720   -5.9821  -16.7821 C   0  0  0  0  0  0  0  0  0  0  0  0
   22.9607   -5.1723  -15.7956 C   0  0  1  0  0  0  0  0  0  0  0  0
   22.0828   -4.3842  -16.5408 O   0  0  0  0  0  0  0  0  0  0  0  0
   22.2107   -6.1401  -14.9133 C   0  0  2  0  0  0  0  0  0  0  0  0
   21.2191   -6.8812  -15.6721 N   0  0  0  0  0  0  0  0  0  0  0  0
   21.5501   -5.3661  -13.8357 C   0  0  0  0  0  0  0  0  0  0  0  0
   20.3005   -5.4254  -13.7106 O   0  0  0  0  0  0  0  0  0  0  0  0
   22.2780   -4.5817  -12.9665 O   0  0  0  0  0  0  0  0  0  0  0  0
  2  1  1  6
  2  3  1  0
  4  2  1  0
  4  5  1  1
  6  4  1  0
  6  7  2  0
  8  9  1  0
  9 11  1  0
 10  9  2  0
 11 12  1  0
 13 12  1  1
 13 14  1  0
 14  6  1  0
 15 13  1  0
 16 15  2  0
 18 17  1  6
 18 20  1  0
 19 18  1  0
 20 22  1  0
 20 21  1  6
 21 15  1  0
 22 24  1  0
 23 22  2  0
M  END
$$$$
