VQT.pdb
     RDKit          3D

 24 23  0  0  1  0  0  0  0  0999 V2000
   16.2561  -16.0803  -17.2757 C   0  0  0  0  0  0  0  0  0  0  0  0
   16.5432  -14.6311  -17.5670 C   0  0  1  0  0  0  0  0  0  0  0  0
   15.2783  -13.8500  -17.5908 C   0  0  0  0  0  0  0  0  0  0  0  0
   17.6645  -14.0550  -16.7798 C   0  0  2  0  0  0  0  0  0  0  0  0
   17.3694  -14.3404  -15.3658 N   0  0  0  0  0  0  0  0  0  0  0  0
   17.8977  -12.6245  -16.8980 C   0  0  0  0  0  0  0  0  0  0  0  0
   18.4654  -12.1456  -17.9436 O   0  0  0  0  0  0  0  0  0  0  0  0
   14.4046   -7.8084  -15.2769 N   0  0  0  0  0  0  0  0  0  0  0  0
   15.5940   -7.1770  -15.7717 C   0  0  0  0  0  0  0  0  0  0  0  0
   15.5258   -5.9360  -15.9199 O   0  0  0  0  0  0  0  0  0  0  0  0
   16.7590   -8.0152  -16.0537 C   0  0  0  0  0  0  0  0  0  0  0  0
   16.5515   -9.4884  -15.8921 C   0  0  0  0  0  0  0  0  0  0  0  0
   17.8460  -10.2323  -16.1154 C   0  0  2  0  0  0  0  0  0  0  0  0
   17.5431  -11.6446  -15.9253 N   0  0  0  0  0  0  0  0  0  0  0  0
   18.9276   -9.7442  -15.2373 C   0  0  0  0  0  0  0  0  0  0  0  0
   18.8510   -9.9123  -13.9939 O   0  0  0  0  0  0  0  0  0  0  0  0
   22.5782  -10.5615  -15.1754 C   0  0  0  0  0  0  0  0  0  0  0  0
   22.4675   -9.0879  -15.4968 C   0  0  1  0  0  0  0  0  0  0  0  0
   22.5472   -8.9671  -16.8846 O   0  0  0  0  0  0  0  0  0  0  0  0
   21.1339   -8.6041  -14.9823 C   0  0  2  0  0  0  0  0  0  0  0  0
   20.0448   -9.0886  -15.8113 N   0  0  0  0  0  0  0  0  0  0  0  0
   21.1493   -7.1219  -14.9808 C   0  0  0  0  0  0  0  0  0  0  0  0
   20.3529   -6.4960  -15.7255 O   0  0  0  0  0  0  0  0  0  0  0  0
   22.0197   -6.4146  -14.1791 O   0  0  0  0  0  0  0  0  0  0  0  0
  2  1  1  1
  2  3  1  0
  4  2  1  0
  4  5  1  1
  6  4  1  0
  6  7  2  0
  8  9  1  0
  9 11  1  0
 10  9  2  0
 11 12  1  0
 13 12  1  1
 13 14  1  0
 14  6  1  0
 15 13  1  0
 16 15  2  0
 18 17  1  6
 18 20  1  0
 19 18  1  0
 20 22  1  0
 20 21  1  6
 21 15  1  0
 22 24  1  0
 23 22  2  0
M  END
$$$$
