VQT.pdb
     RDKit          3D

 24 23  0  0  1  0  0  0  0  0999 V2000
   18.2647  -10.8416  -17.1957 C   0  0  0  0  0  0  0  0  0  0  0  0
   18.8507  -12.2187  -17.0298 C   0  0  1  0  0  0  0  0  0  0  0  0
   18.1631  -13.1830  -17.9286 C   0  0  0  0  0  0  0  0  0  0  0  0
   20.3365  -12.2592  -17.0249 C   0  0  2  0  0  0  0  0  0  0  0  0
   20.7134  -13.6467  -16.7076 N   0  0  0  0  0  0  0  0  0  0  0  0
   21.0250  -11.3922  -16.0821 C   0  0  0  0  0  0  0  0  0  0  0  0
   21.2368  -11.7830  -14.8791 O   0  0  0  0  0  0  0  0  0  0  0  0
   26.2014  -10.6657  -15.0492 N   0  0  0  0  0  0  0  0  0  0  0  0
   25.6656  -10.3480  -16.3414 C   0  0  0  0  0  0  0  0  0  0  0  0
   26.4711  -10.4304  -17.2960 O   0  0  0  0  0  0  0  0  0  0  0  0
   24.2570   -9.9647  -16.4339 C   0  0  0  0  0  0  0  0  0  0  0  0
   23.5303   -9.8492  -15.1309 C   0  0  0  0  0  0  0  0  0  0  0  0
   22.1538   -9.2667  -15.3431 C   0  0  2  0  0  0  0  0  0  0  0  0
   21.5175  -10.0851  -16.3668 N   0  0  0  0  0  0  0  0  0  0  0  0
   22.2031   -7.8326  -15.6899 C   0  0  0  0  0  0  0  0  0  0  0  0
   22.6600   -7.4714  -16.8039 O   0  0  0  0  0  0  0  0  0  0  0  0
   19.4280   -5.6851  -16.1097 C   0  0  0  0  0  0  0  0  0  0  0  0
   20.2181   -4.9785  -15.0311 C   0  0  1  0  0  0  0  0  0  0  0  0
   19.6326   -5.3163  -13.8104 O   0  0  0  0  0  0  0  0  0  0  0  0
   21.6428   -5.4704  -15.1080 C   0  0  2  0  0  0  0  0  0  0  0  0
   21.7318   -6.8764  -14.7566 N   0  0  0  0  0  0  0  0  0  0  0  0
   22.4619   -4.6617  -14.1742 C   0  0  0  0  0  0  0  0  0  0  0  0
   23.0311   -5.2259  -13.2056 O   0  0  0  0  0  0  0  0  0  0  0  0
   22.6128   -3.3021  -14.3459 O   0  0  0  0  0  0  0  0  0  0  0  0
  2  1  1  6
  2  3  1  0
  4  2  1  0
  4  5  1  1
  6  4  1  0
  6  7  2  0
  8  9  1  0
  9 11  1  0
 10  9  2  0
 11 12  1  0
 13 12  1  6
 13 14  1  0
 14  6  1  0
 15 13  1  0
 16 15  2  0
 18 17  1  6
 18 20  1  0
 19 18  1  0
 20 22  1  0
 20 21  1  1
 21 15  1  0
 22 24  1  0
 23 22  2  0
M  END
$$$$
