VQT.pdb
     RDKit          3D

 24 23  0  0  1  0  0  0  0  0999 V2000
   16.5112  -10.0493  -19.5807 C   0  0  0  0  0  0  0  0  0  0  0  0
   16.3739  -11.3801  -18.8896 C   0  0  1  0  0  0  0  0  0  0  0  0
   16.0519  -12.4430  -19.8780 C   0  0  0  0  0  0  0  0  0  0  0  0
   17.4561  -11.6836  -17.9172 C   0  0  2  0  0  0  0  0  0  0  0  0
   17.0592  -12.9219  -17.2266 N   0  0  0  0  0  0  0  0  0  0  0  0
   17.7376  -10.6852  -16.8981 C   0  0  0  0  0  0  0  0  0  0  0  0
   16.9600  -10.5560  -15.8864 O   0  0  0  0  0  0  0  0  0  0  0  0
   22.5645   -9.4735  -13.5702 N   0  0  0  0  0  0  0  0  0  0  0  0
   21.7210   -8.3646  -13.2283 C   0  0  0  0  0  0  0  0  0  0  0  0
   22.0793   -7.7001  -12.2299 O   0  0  0  0  0  0  0  0  0  0  0  0
   20.5421   -8.1083  -14.0553 C   0  0  0  0  0  0  0  0  0  0  0  0
   20.2713   -9.1166  -15.1275 C   0  0  0  0  0  0  0  0  0  0  0  0
   19.0071   -8.7670  -15.8749 C   0  0  2  0  0  0  0  0  0  0  0  0
   18.8448   -9.7873  -16.9021 N   0  0  0  0  0  0  0  0  0  0  0  0
   19.0416   -7.3942  -16.4165 C   0  0  0  0  0  0  0  0  0  0  0  0
   19.7526   -7.1327  -17.4197 O   0  0  0  0  0  0  0  0  0  0  0  0
   15.9429   -5.2544  -17.3144 C   0  0  0  0  0  0  0  0  0  0  0  0
   16.7730   -4.5154  -16.2889 C   0  0  1  0  0  0  0  0  0  0  0  0
   16.2023   -4.7724  -15.0418 O   0  0  0  0  0  0  0  0  0  0  0  0
   18.1818   -5.0509  -16.3654 C   0  0  2  0  0  0  0  0  0  0  0  0
   18.2682   -6.3831  -15.7944 N   0  0  0  0  0  0  0  0  0  0  0  0
   19.0696   -4.1234  -15.6249 C   0  0  0  0  0  0  0  0  0  0  0  0
   19.2107   -2.9439  -16.0366 O   0  0  0  0  0  0  0  0  0  0  0  0
   19.7446   -4.5275  -14.4927 O   0  0  0  0  0  0  0  0  0  0  0  0
  2  1  1  6
  2  3  1  0
  4  2  1  0
  4  5  1  1
  6  4  1  0
  6  7  2  0
  8  9  1  0
  9 11  1  0
 10  9  2  0
 11 12  1  0
 13 12  1  6
 13 14  1  0
 14  6  1  0
 15 13  1  0
 16 15  2  0
 18 17  1  6
 18 20  1  0
 19 18  1  0
 20 22  1  0
 20 21  1  1
 21 15  1  0
 22 24  1  0
 23 22  2  0
M  END
$$$$
