VQT.pdb
     RDKit          3D

 24 23  0  0  1  0  0  0  0  0999 V2000
   19.5629  -13.4689  -19.7768 C   0  0  0  0  0  0  0  0  0  0  0  0
   19.1639  -12.2220  -19.0330 C   0  0  1  0  0  0  0  0  0  0  0  0
   17.9243  -12.4644  -18.2486 C   0  0  0  0  0  0  0  0  0  0  0  0
   20.2794  -11.5467  -18.3198 C   0  0  2  0  0  0  0  0  0  0  0  0
   20.8410  -12.5410  -17.3904 N   0  0  0  0  0  0  0  0  0  0  0  0
   19.9555  -10.3587  -17.5464 C   0  0  0  0  0  0  0  0  0  0  0  0
   19.6417   -9.2658  -18.1396 O   0  0  0  0  0  0  0  0  0  0  0  0
   17.2768   -9.9219  -11.9054 N   0  0  0  0  0  0  0  0  0  0  0  0
   17.4045   -8.5579  -12.3310 C   0  0  0  0  0  0  0  0  0  0  0  0
   16.8078   -7.7132  -11.6258 O   0  0  0  0  0  0  0  0  0  0  0  0
   18.2027   -8.2745  -13.5235 C   0  0  0  0  0  0  0  0  0  0  0  0
   18.6981   -9.4724  -14.2711 C   0  0  0  0  0  0  0  0  0  0  0  0
   19.5667   -9.0497  -15.4312 C   0  0  2  0  0  0  0  0  0  0  0  0
   19.9475  -10.2739  -16.1233 N   0  0  0  0  0  0  0  0  0  0  0  0
   20.7229   -8.2417  -14.9961 C   0  0  0  0  0  0  0  0  0  0  0  0
   21.6537   -8.7781  -14.3432 O   0  0  0  0  0  0  0  0  0  0  0  0
   22.8010   -5.9096  -17.2505 C   0  0  0  0  0  0  0  0  0  0  0  0
   22.2678   -5.0954  -16.0930 C   0  0  1  0  0  0  0  0  0  0  0  0
   21.1330   -4.4272  -16.5542 O   0  0  0  0  0  0  0  0  0  0  0  0
   21.9226   -6.0524  -14.9784 C   0  0  2  0  0  0  0  0  0  0  0  0
   20.7686   -6.8636  -15.3222 N   0  0  0  0  0  0  0  0  0  0  0  0
   21.6392   -5.2587  -13.7591 C   0  0  0  0  0  0  0  0  0  0  0  0
   22.5386   -4.5232  -13.2789 O   0  0  0  0  0  0  0  0  0  0  0  0
   20.4084   -5.3101  -13.1400 O   0  0  0  0  0  0  0  0  0  0  0  0
  2  1  1  1
  2  3  1  0
  4  2  1  0
  4  5  1  1
  6  4  1  0
  6  7  2  0
  8  9  1  0
  9 11  1  0
 10  9  2  0
 11 12  1  0
 13 12  1  1
 13 14  1  0
 14  6  1  0
 15 13  1  0
 16 15  2  0
 18 17  1  6
 18 20  1  0
 19 18  1  0
 20 22  1  0
 20 21  1  6
 21 15  1  0
 22 24  1  0
 23 22  2  0
M  END
$$$$
