VQT.pdb
     RDKit          3D

 24 23  0  0  1  0  0  0  0  0999 V2000
   25.4452  -19.8160   -8.3003 C   0  0  0  0  0  0  0  0  0  0  0  0
   25.1036  -20.3178   -9.6782 C   0  0  1  0  0  0  0  0  0  0  0  0
   25.9450  -21.4945  -10.0213 C   0  0  0  0  0  0  0  0  0  0  0  0
   23.6467  -20.4432   -9.9444 C   0  0  2  0  0  0  0  0  0  0  0  0
   23.1526  -21.5103   -9.0584 N   0  0  0  0  0  0  0  0  0  0  0  0
   23.2419  -20.7779  -11.3004 C   0  0  0  0  0  0  0  0  0  0  0  0
   23.3269  -21.9863  -11.7216 O   0  0  0  0  0  0  0  0  0  0  0  0
   18.8187  -18.5445  -15.0732 N   0  0  0  0  0  0  0  0  0  0  0  0
   19.6029  -19.3495  -15.9648 C   0  0  0  0  0  0  0  0  0  0  0  0
   19.1475  -19.4728  -17.1241 O   0  0  0  0  0  0  0  0  0  0  0  0
   20.8397  -19.9434  -15.4577 C   0  0  0  0  0  0  0  0  0  0  0  0
   21.1428  -19.6771  -14.0167 C   0  0  0  0  0  0  0  0  0  0  0  0
   22.4879  -20.2525  -13.6442 C   0  0  2  0  0  0  0  0  0  0  0  0
   22.7323  -19.8583  -12.2631 N   0  0  0  0  0  0  0  0  0  0  0  0
   23.5536  -19.8228  -14.5709 C   0  0  0  0  0  0  0  0  0  0  0  0
   23.8335  -18.6024  -14.6833 O   0  0  0  0  0  0  0  0  0  0  0  0
   27.1130  -21.0427  -14.7108 C   0  0  0  0  0  0  0  0  0  0  0  0
   26.5191  -21.3116  -16.0754 C   0  0  1  0  0  0  0  0  0  0  0  0
   26.1538  -22.6581  -16.1020 O   0  0  0  0  0  0  0  0  0  0  0  0
   25.3153  -20.4161  -16.2374 C   0  0  2  0  0  0  0  0  0  0  0  0
   24.2513  -20.7977  -15.3261 N   0  0  0  0  0  0  0  0  0  0  0  0
   24.8451  -20.5231  -17.6390 C   0  0  0  0  0  0  0  0  0  0  0  0
   23.7092  -21.0084  -17.8733 O   0  0  0  0  0  0  0  0  0  0  0  0
   25.6281  -20.1010  -18.6922 O   0  0  0  0  0  0  0  0  0  0  0  0
  2  1  1  1
  2  3  1  0
  4  2  1  0
  4  5  1  1
  6  4  1  0
  6  7  2  0
  8  9  1  0
  9 11  1  0
 10  9  2  0
 11 12  1  0
 13 12  1  6
 13 14  1  0
 14  6  1  0
 15 13  1  0
 16 15  2  0
 18 17  1  1
 18 20  1  0
 19 18  1  0
 20 22  1  0
 20 21  1  1
 21 15  1  0
 22 24  1  0
 23 22  2  0
M  END
$$$$
