VQT.pdb
     RDKit          3D

 24 23  0  0  1  0  0  0  0  0999 V2000
   16.0711  -10.2748  -17.2784 C   0  0  0  0  0  0  0  0  0  0  0  0
   16.6847  -11.0977  -16.1768 C   0  0  1  0  0  0  0  0  0  0  0  0
   16.4082  -12.5417  -16.3972 C   0  0  0  0  0  0  0  0  0  0  0  0
   18.0866  -10.7334  -15.8438 C   0  0  2  0  0  0  0  0  0  0  0  0
   18.5280  -11.6827  -14.8084 N   0  0  0  0  0  0  0  0  0  0  0  0
   18.3257   -9.3914  -15.3375 C   0  0  0  0  0  0  0  0  0  0  0  0
   18.0882   -8.3695  -16.0752 O   0  0  0  0  0  0  0  0  0  0  0  0
   17.4200   -7.2781   -9.6019 N   0  0  0  0  0  0  0  0  0  0  0  0
   16.4941   -7.3711  -10.6937 C   0  0  0  0  0  0  0  0  0  0  0  0
   15.2831   -7.3165  -10.3819 O   0  0  0  0  0  0  0  0  0  0  0  0
   17.0291   -7.5171  -12.0471 C   0  0  0  0  0  0  0  0  0  0  0  0
   18.5138   -7.6783  -12.1429 C   0  0  0  0  0  0  0  0  0  0  0  0
   18.9519   -7.6933  -13.5875 C   0  0  2  0  0  0  0  0  0  0  0  0
   18.8210   -9.0721  -14.0394 N   0  0  0  0  0  0  0  0  0  0  0  0
   20.3128   -7.1486  -13.7626 C   0  0  0  0  0  0  0  0  0  0  0  0
   21.3012   -7.7640  -13.2887 O   0  0  0  0  0  0  0  0  0  0  0  0
   21.5717   -5.6217  -17.1635 C   0  0  0  0  0  0  0  0  0  0  0  0
   21.8397   -4.6433  -16.0419 C   0  0  1  0  0  0  0  0  0  0  0  0
   20.8218   -3.6897  -16.0820 O   0  0  0  0  0  0  0  0  0  0  0  0
   21.8155   -5.4135  -14.7444 C   0  0  2  0  0  0  0  0  0  0  0  0
   20.4878   -5.9318  -14.4669 N   0  0  0  0  0  0  0  0  0  0  0  0
   22.2409   -4.5005  -13.6571 C   0  0  0  0  0  0  0  0  0  0  0  0
   21.4269   -4.2054  -12.7455 O   0  0  0  0  0  0  0  0  0  0  0  0
   23.5119   -3.9676  -13.6243 O   0  0  0  0  0  0  0  0  0  0  0  0
  2  1  1  6
  2  3  1  0
  4  2  1  0
  4  5  1  1
  6  4  1  0
  6  7  2  0
  8  9  1  0
  9 11  1  0
 10  9  2  0
 11 12  1  0
 13 12  1  1
 13 14  1  0
 14  6  1  0
 15 13  1  0
 16 15  2  0
 18 17  1  6
 18 20  1  0
 19 18  1  0
 20 22  1  0
 20 21  1  1
 21 15  1  0
 22 24  1  0
 23 22  2  0
M  END
$$$$
