VQT.pdb
     RDKit          3D

 24 23  0  0  1  0  0  0  0  0999 V2000
   14.4522  -11.3013  -15.8990 C   0  0  0  0  0  0  0  0  0  0  0  0
   15.7503  -10.6269  -15.5419 C   0  0  1  0  0  0  0  0  0  0  0  0
   15.7027  -10.1259  -14.1429 C   0  0  0  0  0  0  0  0  0  0  0  0
   16.9667  -11.3852  -15.9345 C   0  0  2  0  0  0  0  0  0  0  0  0
   16.9274  -12.6515  -15.1843 N   0  0  0  0  0  0  0  0  0  0  0  0
   18.2548  -10.7624  -15.6746 C   0  0  0  0  0  0  0  0  0  0  0  0
   18.7917  -10.8464  -14.5129 O   0  0  0  0  0  0  0  0  0  0  0  0
   21.3880  -11.0749  -19.7104 N   0  0  0  0  0  0  0  0  0  0  0  0
   21.8201  -11.7092  -18.4985 C   0  0  0  0  0  0  0  0  0  0  0  0
   22.1492  -12.9121  -18.6053 O   0  0  0  0  0  0  0  0  0  0  0  0
   21.8409  -10.9166  -17.2693 C   0  0  0  0  0  0  0  0  0  0  0  0
   21.2302   -9.5539  -17.3669 C   0  0  0  0  0  0  0  0  0  0  0  0
   20.2480   -9.3329  -16.2420 C   0  0  2  0  0  0  0  0  0  0  0  0
   19.0270  -10.0304  -16.6233 N   0  0  0  0  0  0  0  0  0  0  0  0
   20.0372   -7.8993  -15.9600 C   0  0  0  0  0  0  0  0  0  0  0  0
   19.1034   -7.2784  -16.5281 O   0  0  0  0  0  0  0  0  0  0  0  0
   22.7809   -5.9045  -13.4649 C   0  0  0  0  0  0  0  0  0  0  0  0
   21.3175   -5.5451  -13.3371 C   0  0  1  0  0  0  0  0  0  0  0  0
   21.2570   -4.1795  -13.0568 O   0  0  0  0  0  0  0  0  0  0  0  0
   20.6496   -5.8626  -14.6526 C   0  0  2  0  0  0  0  0  0  0  0  0
   20.8957   -7.2380  -15.0472 N   0  0  0  0  0  0  0  0  0  0  0  0
   21.1861   -4.9371  -15.6785 C   0  0  0  0  0  0  0  0  0  0  0  0
   22.1027   -5.3293  -16.4443 O   0  0  0  0  0  0  0  0  0  0  0  0
   20.7004   -3.6535  -15.8106 O   0  0  0  0  0  0  0  0  0  0  0  0
  2  1  1  1
  2  3  1  0
  4  2  1  0
  4  5  1  1
  6  4  1  0
  6  7  2  0
  8  9  1  0
  9 11  1  0
 10  9  2  0
 11 12  1  0
 13 12  1  6
 13 14  1  0
 14  6  1  0
 15 13  1  0
 16 15  2  0
 18 17  1  6
 18 20  1  0
 19 18  1  0
 20 22  1  0
 20 21  1  6
 21 15  1  0
 22 24  1  0
 23 22  2  0
M  END
$$$$
