VQT.pdb
     RDKit          3D

 24 23  0  0  1  0  0  0  0  0999 V2000
   24.1920  -12.8352  -19.4755 C   0  0  0  0  0  0  0  0  0  0  0  0
   23.5519  -11.5426  -19.0432 C   0  0  1  0  0  0  0  0  0  0  0  0
   23.9428  -10.4414  -19.9625 C   0  0  0  0  0  0  0  0  0  0  0  0
   22.1067  -11.6509  -18.7138 C   0  0  2  0  0  0  0  0  0  0  0  0
   21.4265  -12.0554  -19.9553 N   0  0  0  0  0  0  0  0  0  0  0  0
   21.4427  -10.4549  -18.2207 C   0  0  0  0  0  0  0  0  0  0  0  0
   21.0040   -9.5729  -19.0420 O   0  0  0  0  0  0  0  0  0  0  0  0
   16.7798   -9.6594  -14.5850 N   0  0  0  0  0  0  0  0  0  0  0  0
   17.2181   -8.3022  -14.7398 C   0  0  0  0  0  0  0  0  0  0  0  0
   16.4245   -7.4271  -14.3261 O   0  0  0  0  0  0  0  0  0  0  0  0
   18.5242   -8.0600  -15.3520 C   0  0  0  0  0  0  0  0  0  0  0  0
   19.2490   -9.2770  -15.8349 C   0  0  0  0  0  0  0  0  0  0  0  0
   20.5759   -8.8949  -16.4449 C   0  0  2  0  0  0  0  0  0  0  0  0
   21.2134  -10.1410  -16.8491 N   0  0  0  0  0  0  0  0  0  0  0  0
   21.4014   -8.0894  -15.5235 C   0  0  0  0  0  0  0  0  0  0  0  0
   21.9497   -8.6345  -14.5323 O   0  0  0  0  0  0  0  0  0  0  0  0
   24.0868   -5.3128  -16.4677 C   0  0  0  0  0  0  0  0  0  0  0  0
   22.9945   -4.7295  -15.5995 C   0  0  1  0  0  0  0  0  0  0  0  0
   22.0942   -4.0906  -16.4528 O   0  0  0  0  0  0  0  0  0  0  0  0
   22.3342   -5.8696  -14.8636 C   0  0  2  0  0  0  0  0  0  0  0  0
   21.5658   -6.7039  -15.7702 N   0  0  0  0  0  0  0  0  0  0  0  0
   21.4450   -5.2963  -13.8256 C   0  0  0  0  0  0  0  0  0  0  0  0
   20.2022   -5.4622  -13.9176 O   0  0  0  0  0  0  0  0  0  0  0  0
   21.9529   -4.5840  -12.7600 O   0  0  0  0  0  0  0  0  0  0  0  0
  2  1  1  6
  2  3  1  0
  4  2  1  0
  4  5  1  6
  6  4  1  0
  6  7  2  0
  8  9  1  0
  9 11  1  0
 10  9  2  0
 11 12  1  0
 13 12  1  1
 13 14  1  0
 14  6  1  0
 15 13  1  0
 16 15  2  0
 18 17  1  6
 18 20  1  0
 19 18  1  0
 20 22  1  0
 20 21  1  6
 21 15  1  0
 22 24  1  0
 23 22  2  0
M  END
$$$$
