VQT.pdb
     RDKit          3D

 24 23  0  0  1  0  0  0  0  0999 V2000
   21.2994  -14.2333  -19.7129 C   0  0  0  0  0  0  0  0  0  0  0  0
   20.6491  -12.9614  -19.2367 C   0  0  1  0  0  0  0  0  0  0  0  0
   19.4290  -13.2714  -18.4457 C   0  0  0  0  0  0  0  0  0  0  0  0
   21.5890  -11.9724  -18.6472 C   0  0  2  0  0  0  0  0  0  0  0  0
   22.3117  -12.6744  -17.5735 N   0  0  0  0  0  0  0  0  0  0  0  0
   21.0153  -10.7662  -18.0724 C   0  0  0  0  0  0  0  0  0  0  0  0
   20.5280   -9.8554  -18.8326 O   0  0  0  0  0  0  0  0  0  0  0  0
   16.9280  -10.0666  -13.7691 N   0  0  0  0  0  0  0  0  0  0  0  0
   16.7660   -9.2721  -14.9525 C   0  0  0  0  0  0  0  0  0  0  0  0
   15.5974   -8.8942  -15.1943 O   0  0  0  0  0  0  0  0  0  0  0  0
   17.9507   -8.9761  -15.7576 C   0  0  0  0  0  0  0  0  0  0  0  0
   19.2287   -9.5906  -15.2797 C   0  0  0  0  0  0  0  0  0  0  0  0
   20.3696   -9.2176  -16.1954 C   0  0  2  0  0  0  0  0  0  0  0  0
   20.9306  -10.4718  -16.6802 N   0  0  0  0  0  0  0  0  0  0  0  0
   21.3624   -8.3547  -15.5255 C   0  0  0  0  0  0  0  0  0  0  0  0
   22.2047   -8.8591  -14.7404 O   0  0  0  0  0  0  0  0  0  0  0  0
   21.4489   -4.2653  -16.5427 C   0  0  0  0  0  0  0  0  0  0  0  0
   22.7275   -4.9781  -16.1631 C   0  0  1  0  0  0  0  0  0  0  0  0
   23.5524   -4.0349  -15.5493 O   0  0  0  0  0  0  0  0  0  0  0  0
   22.3676   -6.0913  -15.2099 C   0  0  2  0  0  0  0  0  0  0  0  0
   21.3526   -6.9605  -15.7779 N   0  0  0  0  0  0  0  0  0  0  0  0
   21.8682   -5.4815  -13.9547 C   0  0  0  0  0  0  0  0  0  0  0  0
   20.6454   -5.5614  -13.6739 O   0  0  0  0  0  0  0  0  0  0  0  0
   22.7176   -4.8277  -13.0876 O   0  0  0  0  0  0  0  0  0  0  0  0
  2  1  1  1
  2  3  1  0
  4  2  1  0
  4  5  1  1
  6  4  1  0
  6  7  2  0
  8  9  1  0
  9 11  1  0
 10  9  2  0
 11 12  1  0
 13 12  1  1
 13 14  1  0
 14  6  1  0
 15 13  1  0
 16 15  2  0
 18 17  1  1
 18 20  1  0
 19 18  1  0
 20 22  1  0
 20 21  1  6
 21 15  1  0
 22 24  1  0
 23 22  2  0
M  END
$$$$
