PCY.pdb
     RDKit          3D

 26 27  0  0  1  0  0  0  0  0999 V2000
   28.9538  -26.5107  -18.4469 N   0  0  0  0  0  0  0  0  0  0  0  0
   29.8381  -27.6105  -18.1912 C   0  0  0  0  0  0  0  0  0  0  0  0
   29.4063  -28.2553  -16.8988 C   0  0  0  0  0  0  0  0  0  0  0  0
   28.6223  -27.1246  -16.2344 C   0  0  0  0  0  0  0  0  0  0  0  0
   27.9459  -26.4976  -17.4327 C   0  0  1  0  0  0  0  0  0  0  0  0
   27.5602  -25.0898  -17.0601 C   0  0  0  0  0  0  0  0  0  0  0  0
   26.6904  -24.9165  -16.1683 O   0  0  0  0  0  0  0  0  0  0  0  0
   28.1433  -23.9657  -17.6795 N   0  0  0  0  0  0  0  0  0  0  0  0
   27.7404  -22.6398  -17.3143 C   0  0  1  0  0  0  0  0  0  0  0  0
   28.8526  -21.6283  -17.4753 C   0  0  0  0  0  0  0  0  0  0  0  0
   28.3402  -19.9487  -17.1331 S   0  0  0  0  0  0  0  0  0  0  0  0
   26.5556  -22.2050  -18.1078 C   0  0  0  0  0  0  0  0  0  0  0  0
   26.6052  -22.2460  -19.3423 O   0  0  0  0  0  0  0  0  0  0  0  0
   21.9002  -20.4459  -12.2768 O   0  0  0  0  0  0  0  0  0  0  0  0
   22.1519  -20.8438  -13.5812 C   0  0  0  0  0  0  0  0  0  0  0  0
   22.8359  -22.0160  -13.8474 C   0  0  0  0  0  0  0  0  0  0  0  0
   23.1120  -22.4569  -15.1196 C   0  0  0  0  0  0  0  0  0  0  0  0
   22.6879  -21.6951  -16.2072 C   0  0  0  0  0  0  0  0  0  0  0  0
   23.0120  -22.1620  -17.5626 C   0  0  0  0  0  0  0  0  0  0  0  0
   24.1750  -21.4302  -18.1375 C   0  0  2  0  0  0  0  0  0  0  0  0
   25.4118  -21.7594  -17.4371 N   0  0  0  0  0  0  0  0  0  0  0  0
   23.9715  -19.9681  -18.1834 C   0  0  0  0  0  0  0  0  0  0  0  0
   24.6094  -19.2550  -17.3533 O   0  0  0  0  0  0  0  0  0  0  0  0
   21.9999  -20.5158  -15.9440 C   0  0  0  0  0  0  0  0  0  0  0  0
   21.7294  -20.0847  -14.6659 C   0  0  0  0  0  0  0  0  0  0  0  0
   23.1089  -19.3889  -19.1099 O   0  0  0  0  0  0  0  0  0  0  0  0
  1  2  1  0
  3  2  1  0
  4  3  1  0
  4  5  1  0
  5  6  1  1
  5  1  1  0
  6  7  2  0
  8  6  1  0
  8  9  1  0
  9 10  1  6
 11 10  1  0
 12 21  1  0
 12  9  1  0
 13 12  2  0
 15 14  1  0
 16 15  2  0
 17 16  1  0
 18 24  1  0
 18 17  2  0
 19 18  1  0
 20 21  1  0
 20 19  1  1
 22 26  1  0
 22 20  1  0
 23 22  2  0
 24 25  2  0
 25 15  1  0
M  END
$$$$
