PCY.pdb
     RDKit          3D

 26 27  0  0  1  0  0  0  0  0999 V2000
   27.2682  -22.1446  -16.4828 N   0  0  0  0  0  0  0  0  0  0  0  0
   28.2776  -22.5907  -17.3988 C   0  0  0  0  0  0  0  0  0  0  0  0
   29.0449  -21.3786  -17.8617 C   0  0  0  0  0  0  0  0  0  0  0  0
   28.0509  -20.2540  -17.5759 C   0  0  0  0  0  0  0  0  0  0  0  0
   27.4292  -20.7376  -16.2852 C   0  0  1  0  0  0  0  0  0  0  0  0
   26.0982  -20.0494  -16.1283 C   0  0  0  0  0  0  0  0  0  0  0  0
   26.0791  -18.8090  -15.9204 O   0  0  0  0  0  0  0  0  0  0  0  0
   24.8789  -20.7522  -16.2072 N   0  0  0  0  0  0  0  0  0  0  0  0
   23.6295  -20.0653  -16.0630 C   0  0  1  0  0  0  0  0  0  0  0  0
   22.8432  -20.0102  -17.3533 C   0  0  0  0  0  0  0  0  0  0  0  0
   21.2260  -19.2674  -17.1684 S   0  0  0  0  0  0  0  0  0  0  0  0
   22.7949  -20.6940  -14.9998 C   0  0  0  0  0  0  0  0  0  0  0  0
   22.6589  -21.9226  -14.9839 O   0  0  0  0  0  0  0  0  0  0  0  0
   26.6357  -20.9587   -9.1141 O   0  0  0  0  0  0  0  0  0  0  0  0
   25.4594  -20.6106   -9.7608 C   0  0  0  0  0  0  0  0  0  0  0  0
   24.2403  -20.6951   -9.1131 C   0  0  0  0  0  0  0  0  0  0  0  0
   23.0456  -20.3631   -9.7060 C   0  0  0  0  0  0  0  0  0  0  0  0
   23.0460  -19.9169  -11.0267 C   0  0  0  0  0  0  0  0  0  0  0  0
   21.7604  -19.5904  -11.6596 C   0  0  0  0  0  0  0  0  0  0  0  0
   21.5099  -20.4245  -12.8679 C   0  0  2  0  0  0  0  0  0  0  0  0
   22.1828  -19.8789  -14.0418 N   0  0  0  0  0  0  0  0  0  0  0  0
   20.0729  -20.6338  -13.1371 C   0  0  0  0  0  0  0  0  0  0  0  0
   19.5423  -19.9658  -14.0734 O   0  0  0  0  0  0  0  0  0  0  0  0
   24.2695  -19.8305  -11.6815 C   0  0  0  0  0  0  0  0  0  0  0  0
   25.4592  -20.1657  -11.0773 C   0  0  0  0  0  0  0  0  0  0  0  0
   19.3234  -21.5375  -12.3891 O   0  0  0  0  0  0  0  0  0  0  0  0
  1  2  1  0
  3  2  1  0
  4  3  1  0
  4  5  1  0
  5  6  1  6
  5  1  1  0
  6  7  2  0
  8  6  1  0
  8  9  1  0
  9 10  1  6
 11 10  1  0
 12 21  1  0
 12  9  1  0
 13 12  2  0
 15 14  1  0
 16 15  2  0
 17 16  1  0
 18 24  1  0
 18 17  2  0
 19 18  1  0
 20 21  1  0
 20 19  1  1
 22 26  1  0
 22 20  1  0
 23 22  2  0
 24 25  2  0
 25 15  1  0
M  END
$$$$
