PCY.pdb
     RDKit          3D

 26 27  0  0  1  0  0  0  0  0999 V2000
   16.8371  -21.9497    3.9194 N   0  0  0  0  0  0  0  0  0  0  0  0
   16.2516  -23.0728    3.2464 C   0  0  0  0  0  0  0  0  0  0  0  0
   15.5834  -22.5609    1.9959 C   0  0  0  0  0  0  0  0  0  0  0  0
   15.3810  -21.0846    2.3340 C   0  0  0  0  0  0  0  0  0  0  0  0
   16.6460  -20.7882    3.1075 C   0  0  1  0  0  0  0  0  0  0  0  0
   16.3952  -19.5647    3.9500 C   0  0  0  0  0  0  0  0  0  0  0  0
   16.2035  -18.4627    3.3748 O   0  0  0  0  0  0  0  0  0  0  0  0
   16.3692  -19.6188    5.3584 N   0  0  0  0  0  0  0  0  0  0  0  0
   15.8438  -18.5256    6.1215 C   0  0  1  0  0  0  0  0  0  0  0  0
   15.1623  -18.9779    7.3932 C   0  0  0  0  0  0  0  0  0  0  0  0
   13.9051  -20.2215    7.1217 S   0  0  0  0  0  0  0  0  0  0  0  0
   16.9153  -17.5443    6.4548 C   0  0  0  0  0  0  0  0  0  0  0  0
   18.0345  -17.9566    6.7797 O   0  0  0  0  0  0  0  0  0  0  0  0
   21.8989  -10.4309    6.7443 O   0  0  0  0  0  0  0  0  0  0  0  0
   20.9885  -11.4296    6.4331 C   0  0  0  0  0  0  0  0  0  0  0  0
   21.2114  -12.7395    6.8170 C   0  0  0  0  0  0  0  0  0  0  0  0
   20.3433  -13.7672    6.5352 C   0  0  0  0  0  0  0  0  0  0  0  0
   19.1745  -13.4914    5.8274 C   0  0  0  0  0  0  0  0  0  0  0  0
   18.2665  -14.6021    5.5079 C   0  0  0  0  0  0  0  0  0  0  0  0
   17.6190  -15.1572    6.7290 C   0  0  2  0  0  0  0  0  0  0  0  0
   16.6305  -16.1761    6.3926 N   0  0  0  0  0  0  0  0  0  0  0  0
   17.0258  -14.1157    7.5919 C   0  0  0  0  0  0  0  0  0  0  0  0
   15.8025  -13.8333    7.4238 O   0  0  0  0  0  0  0  0  0  0  0  0
   18.9465  -12.1758    5.4394 C   0  0  0  0  0  0  0  0  0  0  0  0
   19.8231  -11.1553    5.7274 C   0  0  0  0  0  0  0  0  0  0  0  0
   17.7835  -13.4651    8.5618 O   0  0  0  0  0  0  0  0  0  0  0  0
  1  2  1  0
  3  2  1  0
  4  3  1  0
  4  5  1  0
  5  6  1  1
  5  1  1  0
  6  7  2  0
  8  6  1  0
  8  9  1  0
  9 10  1  1
 11 10  1  0
 12 21  1  0
 12  9  1  0
 13 12  2  0
 15 14  1  0
 16 15  2  0
 17 16  1  0
 18 24  1  0
 18 17  2  0
 19 18  1  0
 20 21  1  0
 20 19  1  6
 22 26  1  0
 22 20  1  0
 23 22  2  0
 24 25  2  0
 25 15  1  0
M  END
$$$$
