PCY.pdb
     RDKit          3D

 26 27  0  0  1  0  0  0  0  0999 V2000
   22.1645  -12.4096  -19.2816 N   0  0  0  0  0  0  0  0  0  0  0  0
   22.2937  -13.6890  -19.9168 C   0  0  0  0  0  0  0  0  0  0  0  0
   21.0461  -14.4792  -19.6147 C   0  0  0  0  0  0  0  0  0  0  0  0
   20.5251  -13.7713  -18.3649 C   0  0  0  0  0  0  0  0  0  0  0  0
   20.8687  -12.3333  -18.6818 C   0  0  1  0  0  0  0  0  0  0  0  0
   20.9093  -11.5719  -17.3824 C   0  0  0  0  0  0  0  0  0  0  0  0
   19.8493  -11.4568  -16.7151 O   0  0  0  0  0  0  0  0  0  0  0  0
   22.0956  -10.9871  -16.8948 N   0  0  0  0  0  0  0  0  0  0  0  0
   22.0899  -10.2295  -15.6784 C   0  0  1  0  0  0  0  0  0  0  0  0
   23.1562  -10.6813  -14.7062 C   0  0  0  0  0  0  0  0  0  0  0  0
   23.2110   -9.7050  -13.2080 S   0  0  0  0  0  0  0  0  0  0  0  0
   22.2558   -8.7743  -15.9558 C   0  0  0  0  0  0  0  0  0  0  0  0
   23.1815   -8.3980  -16.6834 O   0  0  0  0  0  0  0  0  0  0  0  0
   20.8915   -0.2234  -16.8457 O   0  0  0  0  0  0  0  0  0  0  0  0
   20.7528   -1.5957  -16.7019 C   0  0  0  0  0  0  0  0  0  0  0  0
   20.0535   -2.1316  -15.6358 C   0  0  0  0  0  0  0  0  0  0  0  0
   19.8857   -3.4824  -15.4454 C   0  0  0  0  0  0  0  0  0  0  0  0
   20.4426   -4.3702  -16.3646 C   0  0  0  0  0  0  0  0  0  0  0  0
   20.2802   -5.8131  -16.1367 C   0  0  0  0  0  0  0  0  0  0  0  0
   21.5039   -6.4217  -15.5447 C   0  0  2  0  0  0  0  0  0  0  0  0
   21.3588   -7.8647  -15.3857 N   0  0  0  0  0  0  0  0  0  0  0  0
   21.9036   -5.7912  -14.2704 C   0  0  0  0  0  0  0  0  0  0  0  0
   21.4679   -6.3002  -13.1955 O   0  0  0  0  0  0  0  0  0  0  0  0
   21.1465   -3.8355  -17.4378 C   0  0  0  0  0  0  0  0  0  0  0  0
   21.3078   -2.4811  -17.6179 C   0  0  0  0  0  0  0  0  0  0  0  0
   22.7346   -4.6745  -14.2479 O   0  0  0  0  0  0  0  0  0  0  0  0
  1  2  1  0
  3  2  1  0
  4  3  1  0
  4  5  1  0
  5  6  1  1
  5  1  1  0
  6  7  2  0
  8  6  1  0
  8  9  1  0
  9 10  1  1
 11 10  1  0
 12 21  1  0
 12  9  1  0
 13 12  2  0
 15 14  1  0
 16 15  2  0
 17 16  1  0
 18 24  1  0
 18 17  2  0
 19 18  1  0
 20 21  1  0
 20 19  1  1
 22 26  1  0
 22 20  1  0
 23 22  2  0
 24 25  2  0
 25 15  1  0
M  END
$$$$
