PCY.pdb
     RDKit          3D

 26 27  0  0  1  0  0  0  0  0999 V2000
   25.8419  -25.9905  -15.9090 N   0  0  0  0  0  0  0  0  0  0  0  0
   25.3006  -26.9399  -16.8377 C   0  0  0  0  0  0  0  0  0  0  0  0
   25.4848  -26.3803  -18.2253 C   0  0  0  0  0  0  0  0  0  0  0  0
   25.6411  -24.8874  -17.9400 C   0  0  0  0  0  0  0  0  0  0  0  0
   26.4313  -24.9198  -16.6512 C   0  0  1  0  0  0  0  0  0  0  0  0
   26.2351  -23.5973  -15.9568 C   0  0  0  0  0  0  0  0  0  0  0  0
   27.0962  -22.6949  -16.1190 O   0  0  0  0  0  0  0  0  0  0  0  0
   25.1192  -23.3428  -15.1339 N   0  0  0  0  0  0  0  0  0  0  0  0
   24.9328  -22.0547  -14.5341 C   0  0  1  0  0  0  0  0  0  0  0  0
   23.5343  -21.5162  -14.7345 C   0  0  0  0  0  0  0  0  0  0  0  0
   22.2632  -22.5617  -14.0330 S   0  0  0  0  0  0  0  0  0  0  0  0
   25.2449  -22.0949  -13.0770 C   0  0  0  0  0  0  0  0  0  0  0  0
   24.9004  -23.0774  -12.4106 O   0  0  0  0  0  0  0  0  0  0  0  0
   28.4568  -19.7597   -5.2082 O   0  0  0  0  0  0  0  0  0  0  0  0
   28.1304  -19.7923   -6.5556 C   0  0  0  0  0  0  0  0  0  0  0  0
   28.8464  -20.5766   -7.4417 C   0  0  0  0  0  0  0  0  0  0  0  0
   28.5660  -20.6462   -8.7854 C   0  0  0  0  0  0  0  0  0  0  0  0
   27.5094  -19.8941   -9.2964 C   0  0  0  0  0  0  0  0  0  0  0  0
   27.2353  -19.9550  -10.7391 C   0  0  0  0  0  0  0  0  0  0  0  0
   26.1520  -20.9266  -11.0568 C   0  0  2  0  0  0  0  0  0  0  0  0
   25.9220  -21.0182  -12.4946 N   0  0  0  0  0  0  0  0  0  0  0  0
   24.8920  -20.6407  -10.3412 C   0  0  0  0  0  0  0  0  0  0  0  0
   24.0339  -19.9116  -10.9213 O   0  0  0  0  0  0  0  0  0  0  0  0
   26.7870  -19.1042   -8.4090 C   0  0  0  0  0  0  0  0  0  0  0  0
   27.0772  -19.0427   -7.0656 C   0  0  0  0  0  0  0  0  0  0  0  0
   24.6512  -21.1565   -9.0709 O   0  0  0  0  0  0  0  0  0  0  0  0
  1  2  1  0
  3  2  1  0
  4  3  1  0
  4  5  1  0
  5  6  1  1
  5  1  1  0
  6  7  2  0
  8  6  1  0
  8  9  1  0
  9 10  1  1
 11 10  1  0
 12 21  1  0
 12  9  1  0
 13 12  2  0
 15 14  1  0
 16 15  2  0
 17 16  1  0
 18 24  1  0
 18 17  2  0
 19 18  1  0
 20 21  1  0
 20 19  1  6
 22 26  1  0
 22 20  1  0
 23 22  2  0
 24 25  2  0
 25 15  1  0
M  END
$$$$
