PCY.pdb
     RDKit          3D

 26 27  0  0  1  0  0  0  0  0999 V2000
   27.5764  -28.2878  -21.5994 N   0  0  0  0  0  0  0  0  0  0  0  0
   28.8303  -27.9441  -22.2047 C   0  0  0  0  0  0  0  0  0  0  0  0
   29.8046  -29.0543  -21.9035 C   0  0  0  0  0  0  0  0  0  0  0  0
   29.1656  -29.7041  -20.6771 C   0  0  0  0  0  0  0  0  0  0  0  0
   27.6974  -29.5896  -21.0202 C   0  0  1  0  0  0  0  0  0  0  0  0
   26.9146  -29.6946  -19.7373 C   0  0  0  0  0  0  0  0  0  0  0  0
   26.2620  -28.6943  -19.3430 O   0  0  0  0  0  0  0  0  0  0  0  0
   26.8924  -30.8764  -18.9692 N   0  0  0  0  0  0  0  0  0  0  0  0
   26.1028  -30.9570  -17.7761 C   0  0  1  0  0  0  0  0  0  0  0  0
   24.6307  -30.7297  -18.0358 C   0  0  0  0  0  0  0  0  0  0  0  0
   23.8773  -32.0154  -19.0260 S   0  0  0  0  0  0  0  0  0  0  0  0
   26.2900  -32.2727  -17.1006 C   0  0  0  0  0  0  0  0  0  0  0  0
   26.4651  -33.2861  -17.7864 O   0  0  0  0  0  0  0  0  0  0  0  0
   32.5486  -32.6462  -16.8324 O   0  0  0  0  0  0  0  0  0  0  0  0
   31.3564  -32.7963  -16.1401 C   0  0  0  0  0  0  0  0  0  0  0  0
   30.9014  -34.0492  -15.7714 C   0  0  0  0  0  0  0  0  0  0  0  0
   29.7283  -34.2548  -15.0852 C   0  0  0  0  0  0  0  0  0  0  0  0
   28.9464  -33.1548  -14.7360 C   0  0  0  0  0  0  0  0  0  0  0  0
   27.6807  -33.3880  -14.0262 C   0  0  0  0  0  0  0  0  0  0  0  0
   26.5407  -33.5616  -14.9689 C   0  0  2  0  0  0  0  0  0  0  0  0
   26.2634  -32.3319  -15.7033 N   0  0  0  0  0  0  0  0  0  0  0  0
   25.3188  -34.0660  -14.3102 C   0  0  0  0  0  0  0  0  0  0  0  0
   25.3445  -35.2391  -13.8330 O   0  0  0  0  0  0  0  0  0  0  0  0
   29.4003  -31.8934  -15.1049 C   0  0  0  0  0  0  0  0  0  0  0  0
   30.5765  -31.7001  -15.7918 C   0  0  0  0  0  0  0  0  0  0  0  0
   24.1747  -33.2789  -14.2129 O   0  0  0  0  0  0  0  0  0  0  0  0
  1  2  1  0
  3  2  1  0
  4  3  1  0
  4  5  1  0
  5  6  1  1
  5  1  1  0
  6  7  2  0
  8  6  1  0
  8  9  1  0
  9 10  1  6
 11 10  1  0
 12 21  1  0
 12  9  1  0
 13 12  2  0
 15 14  1  0
 16 15  2  0
 17 16  1  0
 18 24  1  0
 18 17  2  0
 19 18  1  0
 20 21  1  0
 20 19  1  1
 22 26  1  0
 22 20  1  0
 23 22  2  0
 24 25  2  0
 25 15  1  0
M  END
$$$$
