PCY.pdb
     RDKit          3D

 26 27  0  0  1  0  0  0  0  0999 V2000
   26.9289  -18.7264  -15.0071 N   0  0  0  0  0  0  0  0  0  0  0  0
   28.1329  -18.1648  -15.5475 C   0  0  0  0  0  0  0  0  0  0  0  0
   28.8936  -19.2761  -16.2248 C   0  0  0  0  0  0  0  0  0  0  0  0
   28.3081  -20.5127  -15.5447 C   0  0  0  0  0  0  0  0  0  0  0  0
   26.8609  -20.1019  -15.3922 C   0  0  1  0  0  0  0  0  0  0  0  0
   26.2539  -20.9475  -14.3031 C   0  0  0  0  0  0  0  0  0  0  0  0
   25.5990  -21.9716  -14.6261 O   0  0  0  0  0  0  0  0  0  0  0  0
   26.3981  -20.6258  -12.9382 N   0  0  0  0  0  0  0  0  0  0  0  0
   25.5771  -21.2580  -11.9484 C   0  0  1  0  0  0  0  0  0  0  0  0
   26.2865  -21.4243  -10.6235 C   0  0  0  0  0  0  0  0  0  0  0  0
   25.1749  -21.7376   -9.2570 S   0  0  0  0  0  0  0  0  0  0  0  0
   24.3111  -20.4987  -11.7414 C   0  0  0  0  0  0  0  0  0  0  0  0
   24.3549  -19.3785  -11.2204 O   0  0  0  0  0  0  0  0  0  0  0  0
   22.4946  -20.3156  -18.4514 O   0  0  0  0  0  0  0  0  0  0  0  0
   22.3805  -20.0178  -17.1018 C   0  0  0  0  0  0  0  0  0  0  0  0
   21.1836  -20.1984  -16.4328 C   0  0  0  0  0  0  0  0  0  0  0  0
   21.0154  -19.9197  -15.0974 C   0  0  0  0  0  0  0  0  0  0  0  0
   22.0965  -19.4296  -14.3666 C   0  0  0  0  0  0  0  0  0  0  0  0
   21.8984  -19.1093  -12.9459 C   0  0  0  0  0  0  0  0  0  0  0  0
   21.8391  -20.3368  -12.1043 C   0  0  2  0  0  0  0  0  0  0  0  0
   23.0991  -21.0711  -12.1420 N   0  0  0  0  0  0  0  0  0  0  0  0
   20.7069  -21.2197  -12.4504 C   0  0  0  0  0  0  0  0  0  0  0  0
   19.5353  -20.7508  -12.3413 O   0  0  0  0  0  0  0  0  0  0  0  0
   23.3017  -19.2465  -15.0354 C   0  0  0  0  0  0  0  0  0  0  0  0
   23.4579  -19.5291  -16.3728 C   0  0  0  0  0  0  0  0  0  0  0  0
   20.9174  -22.5253  -12.8853 O   0  0  0  0  0  0  0  0  0  0  0  0
  1  2  1  0
  3  2  1  0
  4  3  1  0
  4  5  1  0
  5  6  1  1
  5  1  1  0
  6  7  2  0
  8  6  1  0
  8  9  1  0
  9 10  1  1
 11 10  1  0
 12 21  1  0
 12  9  1  0
 13 12  2  0
 15 14  1  0
 16 15  2  0
 17 16  1  0
 18 24  1  0
 18 17  2  0
 19 18  1  0
 20 21  1  0
 20 19  1  6
 22 26  1  0
 22 20  1  0
 23 22  2  0
 24 25  2  0
 25 15  1  0
M  END
$$$$
