PCY.pdb
     RDKit          3D

 26 27  0  0  1  0  0  0  0  0999 V2000
   22.3990  -12.0990  -16.5418 N   0  0  0  0  0  0  0  0  0  0  0  0
   23.4424  -12.7405  -17.2880 C   0  0  0  0  0  0  0  0  0  0  0  0
   24.6697  -12.7865  -16.4138 C   0  0  0  0  0  0  0  0  0  0  0  0
   24.3791  -11.6704  -15.4116 C   0  0  0  0  0  0  0  0  0  0  0  0
   22.8870  -11.8294  -15.2250 C   0  0  1  0  0  0  0  0  0  0  0  0
   22.3471  -10.5264  -14.6956 C   0  0  0  0  0  0  0  0  0  0  0  0
   22.7772  -10.0958  -13.5948 O   0  0  0  0  0  0  0  0  0  0  0  0
   21.3780   -9.7789  -15.3950 N   0  0  0  0  0  0  0  0  0  0  0  0
   20.7743   -8.6251  -14.7969 C   0  0  1  0  0  0  0  0  0  0  0  0
   20.7911   -7.4200  -15.7100 C   0  0  0  0  0  0  0  0  0  0  0  0
   19.9372   -6.0021  -15.0306 S   0  0  0  0  0  0  0  0  0  0  0  0
   19.3720   -8.9124  -14.3804 C   0  0  0  0  0  0  0  0  0  0  0  0
   18.6359   -9.5573  -15.1356 O   0  0  0  0  0  0  0  0  0  0  0  0
   12.2452  -11.0745  -10.0695 O   0  0  0  0  0  0  0  0  0  0  0  0
   13.5361  -10.6961  -10.4065 C   0  0  0  0  0  0  0  0  0  0  0  0
   14.1761  -11.2489  -11.5009 C   0  0  0  0  0  0  0  0  0  0  0  0
   15.4533  -10.9103  -11.8793 C   0  0  0  0  0  0  0  0  0  0  0  0
   16.1523   -9.9634  -11.1324 C   0  0  0  0  0  0  0  0  0  0  0  0
   17.5271   -9.6287  -11.5299 C   0  0  0  0  0  0  0  0  0  0  0  0
   17.5567   -8.6739  -12.6726 C   0  0  2  0  0  0  0  0  0  0  0  0
   18.9190   -8.4454  -13.1420 N   0  0  0  0  0  0  0  0  0  0  0  0
   16.8836   -7.3939  -12.3729 C   0  0  0  0  0  0  0  0  0  0  0  0
   17.5916   -6.4424  -11.9280 O   0  0  0  0  0  0  0  0  0  0  0  0
   15.5126   -9.4052  -10.0313 C   0  0  0  0  0  0  0  0  0  0  0  0
   14.2334   -9.7521   -9.6622 C   0  0  0  0  0  0  0  0  0  0  0  0
   15.5154   -7.2342  -12.5744 O   0  0  0  0  0  0  0  0  0  0  0  0
  1  2  1  0
  3  2  1  0
  4  3  1  0
  4  5  1  0
  5  6  1  6
  5  1  1  0
  6  7  2  0
  8  6  1  0
  8  9  1  0
  9 10  1  6
 11 10  1  0
 12 21  1  0
 12  9  1  0
 13 12  2  0
 15 14  1  0
 16 15  2  0
 17 16  1  0
 18 24  1  0
 18 17  2  0
 19 18  1  0
 20 21  1  0
 20 19  1  1
 22 26  1  0
 22 20  1  0
 23 22  2  0
 24 25  2  0
 25 15  1  0
M  END
$$$$
