PCY.pdb
     RDKit          3D

 26 27  0  0  1  0  0  0  0  0999 V2000
   26.4646  -15.5600  -20.4471 N   0  0  0  0  0  0  0  0  0  0  0  0
   27.2871  -14.8995  -21.4188 C   0  0  0  0  0  0  0  0  0  0  0  0
   26.4424  -13.8522  -22.0988 C   0  0  0  0  0  0  0  0  0  0  0  0
   25.0300  -14.3672  -21.8259 C   0  0  0  0  0  0  0  0  0  0  0  0
   25.1873  -14.9174  -20.4263 C   0  0  1  0  0  0  0  0  0  0  0  0
   24.0775  -15.9093  -20.1934 C   0  0  0  0  0  0  0  0  0  0  0  0
   22.8938  -15.4888  -20.1287 O   0  0  0  0  0  0  0  0  0  0  0  0
   24.3261  -17.2891  -20.0466 N   0  0  0  0  0  0  0  0  0  0  0  0
   23.2411  -18.2213  -19.9609 C   0  0  1  0  0  0  0  0  0  0  0  0
   23.5770  -19.5631  -20.5718 C   0  0  0  0  0  0  0  0  0  0  0  0
   24.5398  -19.4383  -22.0745 S   0  0  0  0  0  0  0  0  0  0  0  0
   22.8136  -18.4135  -18.5458 C   0  0  0  0  0  0  0  0  0  0  0  0
   23.6715  -18.4922  -17.6593 O   0  0  0  0  0  0  0  0  0  0  0  0
   17.9148  -18.2428  -11.2835 O   0  0  0  0  0  0  0  0  0  0  0  0
   18.4086  -18.1061  -12.5721 C   0  0  0  0  0  0  0  0  0  0  0  0
   19.5401  -17.3515  -12.8234 C   0  0  0  0  0  0  0  0  0  0  0  0
   20.0718  -17.1830  -14.0797 C   0  0  0  0  0  0  0  0  0  0  0  0
   19.4506  -17.7975  -15.1658 C   0  0  0  0  0  0  0  0  0  0  0  0
   20.0117  -17.5886  -16.5081 C   0  0  0  0  0  0  0  0  0  0  0  0
   20.9538  -18.6770  -16.8904 C   0  0  2  0  0  0  0  0  0  0  0  0
   21.4488  -18.5007  -18.2514 N   0  0  0  0  0  0  0  0  0  0  0  0
   20.3802  -20.0262  -16.7115 C   0  0  0  0  0  0  0  0  0  0  0  0
   19.7336  -20.5278  -17.6784 O   0  0  0  0  0  0  0  0  0  0  0  0
   18.3127  -18.5570  -14.9176 C   0  0  0  0  0  0  0  0  0  0  0  0
   17.7898  -18.7185  -13.6553 C   0  0  0  0  0  0  0  0  0  0  0  0
   20.5454  -20.7278  -15.5206 O   0  0  0  0  0  0  0  0  0  0  0  0
  1  2  1  0
  3  2  1  0
  4  3  1  0
  4  5  1  0
  5  6  1  6
  5  1  1  0
  6  7  2  0
  8  6  1  0
  8  9  1  0
  9 10  1  1
 11 10  1  0
 12 21  1  0
 12  9  1  0
 13 12  2  0
 15 14  1  0
 16 15  2  0
 17 16  1  0
 18 24  1  0
 18 17  2  0
 19 18  1  0
 20 21  1  0
 20 19  1  6
 22 26  1  0
 22 20  1  0
 23 22  2  0
 24 25  2  0
 25 15  1  0
M  END
$$$$
