PCY.pdb
     RDKit          3D

 26 27  0  0  1  0  0  0  0  0999 V2000
   28.4436  -24.0631  -18.0468 N   0  0  0  0  0  0  0  0  0  0  0  0
   29.4056  -24.5967  -18.9671 C   0  0  0  0  0  0  0  0  0  0  0  0
   30.7484  -24.0055  -18.6210 C   0  0  0  0  0  0  0  0  0  0  0  0
   30.3454  -22.7489  -17.8507 C   0  0  0  0  0  0  0  0  0  0  0  0
   29.1336  -23.2476  -17.0962 C   0  0  1  0  0  0  0  0  0  0  0  0
   28.3108  -22.0488  -16.7016 C   0  0  0  0  0  0  0  0  0  0  0  0
   28.7912  -21.2302  -15.8763 O   0  0  0  0  0  0  0  0  0  0  0  0
   27.0235  -21.8190  -17.2281 N   0  0  0  0  0  0  0  0  0  0  0  0
   26.2601  -20.6776  -16.8182 C   0  0  1  0  0  0  0  0  0  0  0  0
   25.4603  -20.0749  -17.9510 C   0  0  0  0  0  0  0  0  0  0  0  0
   24.2198  -18.9081  -17.4025 S   0  0  0  0  0  0  0  0  0  0  0  0
   25.3445  -21.0243  -15.6940 C   0  0  0  0  0  0  0  0  0  0  0  0
   24.5415  -21.9540  -15.8315 O   0  0  0  0  0  0  0  0  0  0  0  0
   22.2499  -21.2688   -7.4249 O   0  0  0  0  0  0  0  0  0  0  0  0
   22.8840  -20.8956   -8.6004 C   0  0  0  0  0  0  0  0  0  0  0  0
   24.2387  -21.1118   -8.7768 C   0  0  0  0  0  0  0  0  0  0  0  0
   24.9165  -20.7621   -9.9202 C   0  0  0  0  0  0  0  0  0  0  0  0
   24.2173  -20.1580  -10.9639 C   0  0  0  0  0  0  0  0  0  0  0  0
   24.9571  -19.7636  -12.1712 C   0  0  0  0  0  0  0  0  0  0  0  0
   24.5831  -20.5974  -13.3473 C   0  0  2  0  0  0  0  0  0  0  0  0
   25.4142  -20.2888  -14.5061 N   0  0  0  0  0  0  0  0  0  0  0  0
   23.1496  -20.5024  -13.6898 C   0  0  0  0  0  0  0  0  0  0  0  0
   22.3989  -21.4713  -13.3702 O   0  0  0  0  0  0  0  0  0  0  0  0
   22.8552  -19.9389  -10.7907 C   0  0  0  0  0  0  0  0  0  0  0  0
   22.1875  -20.2934   -9.6412 C   0  0  0  0  0  0  0  0  0  0  0  0
   22.6363  -19.3841  -14.3408 O   0  0  0  0  0  0  0  0  0  0  0  0
  1  2  1  0
  3  2  1  0
  4  3  1  0
  4  5  1  0
  5  6  1  6
  5  1  1  0
  6  7  2  0
  8  6  1  0
  8  9  1  0
  9 10  1  6
 11 10  1  0
 12 21  1  0
 12  9  1  0
 13 12  2  0
 15 14  1  0
 16 15  2  0
 17 16  1  0
 18 24  1  0
 18 17  2  0
 19 18  1  0
 20 21  1  0
 20 19  1  1
 22 26  1  0
 22 20  1  0
 23 22  2  0
 24 25  2  0
 25 15  1  0
M  END
$$$$
