PEM.pdb
     RDKit          3D

 25 25  0  0  1  0  0  0  0  0999 V2000
    8.0684  -14.7457   18.1750 N   0  0  0  0  0  0  0  0  0  0  0  0
    6.9073  -13.9386   18.4313 C   0  0  0  0  0  0  0  0  0  0  0  0
    7.5570  -12.5892   18.7557 C   0  0  0  0  0  0  0  0  0  0  0  0
    8.6606  -13.0471   19.7027 C   0  0  0  0  0  0  0  0  0  0  0  0
    8.9648  -14.4724   19.2435 C   0  0  1  0  0  0  0  0  0  0  0  0
    8.8502  -15.3387   20.4190 C   0  0  0  0  0  0  0  0  0  0  0  0
    7.7387  -15.6362   20.9531 O   0  0  0  0  0  0  0  0  0  0  0  0
    9.9966  -15.8824   21.0081 N   0  0  0  0  0  0  0  0  0  0  0  0
    9.9343  -16.7830   22.1714 C   0  0  1  0  0  0  0  0  0  0  0  0
   11.2443  -17.5101   22.1946 C   0  0  0  0  0  0  0  0  0  0  0  0
   11.3815  -18.5535   21.1236 C   0  0  0  0  0  0  0  0  0  0  0  0
   12.7564  -19.1275   21.0782 C   0  0  0  0  0  0  0  0  0  0  0  0
   13.5193  -18.7263   20.1514 O   0  0  0  0  0  0  0  0  0  0  0  0
    9.8859  -15.8924   23.3740 C   0  0  0  0  0  0  0  0  0  0  0  0
   10.7092  -14.9254   23.4862 O   0  0  0  0  0  0  0  0  0  0  0  0
   13.1996  -20.0734   22.0167 O   0  0  0  0  0  0  0  0  0  0  0  0
    6.2525  -10.9347   27.7846 C   0  0  0  0  0  0  0  0  0  0  0  0
    6.2835  -12.1964   26.5091 S   0  0  0  0  0  0  0  0  0  0  0  0
    7.7290  -13.2909   26.6757 C   0  0  0  0  0  0  0  0  0  0  0  0
    7.7454  -14.2529   25.5274 C   0  0  0  0  0  0  0  0  0  0  0  0
    8.9078  -15.1711   25.6011 C   0  0  2  0  0  0  0  0  0  0  0  0
    8.9525  -16.0604   24.4311 N   0  0  0  0  0  0  0  0  0  0  0  0
    8.9324  -15.9464   26.8415 C   0  0  0  0  0  0  0  0  0  0  0  0
    8.7923  -17.1779   26.9787 O   0  0  0  0  0  0  0  0  0  0  0  0
    9.1383  -15.2474   28.0586 O   0  0  0  0  0  0  0  0  0  0  0  0
  1  2  1  0
  3  2  1  0
  4  3  1  0
  5  4  1  0
  5  1  1  0
  5  6  1  1
  6  7  2  0
  8  6  1  0
  9  8  1  0
  9 10  1  1
 11 10  1  0
 12 11  1  0
 13 12  2  0
 14  9  1  0
 15 14  2  0
 16 12  1  0
 18 17  1  0
 19 18  1  0
 20 19  1  0
 21 22  1  0
 21 20  1  6
 22 14  1  0
 23 21  1  0
 24 23  2  0
 25 23  1  0
M  END
$$$$
