PEM.pdb
     RDKit          3D

 25 25  0  0  1  0  0  0  0  0999 V2000
    8.5024  -14.4373   18.3069 N   0  0  0  0  0  0  0  0  0  0  0  0
    7.1492  -13.9584   18.2401 C   0  0  0  0  0  0  0  0  0  0  0  0
    7.3282  -12.5136   18.7186 C   0  0  0  0  0  0  0  0  0  0  0  0
    8.2276  -12.7442   19.9279 C   0  0  0  0  0  0  0  0  0  0  0  0
    8.9918  -14.0192   19.5740 C   0  0  1  0  0  0  0  0  0  0  0  0
    8.8003  -14.9589   20.6812 C   0  0  0  0  0  0  0  0  0  0  0  0
    7.6705  -15.1784   21.2144 O   0  0  0  0  0  0  0  0  0  0  0  0
    9.8895  -15.6659   21.2017 N   0  0  0  0  0  0  0  0  0  0  0  0
    9.7331  -16.7179   22.2201 C   0  0  1  0  0  0  0  0  0  0  0  0
   10.9900  -17.5317   22.1616 C   0  0  0  0  0  0  0  0  0  0  0  0
   11.0270  -18.6676   23.1429 C   0  0  0  0  0  0  0  0  0  0  0  0
   12.2639  -19.4872   22.9996 C   0  0  0  0  0  0  0  0  0  0  0  0
   12.4911  -20.3512   23.8962 O   0  0  0  0  0  0  0  0  0  0  0  0
    9.7102  -16.0086   23.5384 C   0  0  0  0  0  0  0  0  0  0  0  0
   10.4829  -15.0152   23.7428 O   0  0  0  0  0  0  0  0  0  0  0  0
   13.1477  -19.3188   21.9215 O   0  0  0  0  0  0  0  0  0  0  0  0
    6.2877  -11.0438   26.3068 C   0  0  0  0  0  0  0  0  0  0  0  0
    6.2267  -12.8249   26.5148 S   0  0  0  0  0  0  0  0  0  0  0  0
    7.7991  -13.6145   26.0467 C   0  0  0  0  0  0  0  0  0  0  0  0
    7.7044  -15.0849   26.3173 C   0  0  0  0  0  0  0  0  0  0  0  0
    8.9572  -15.7893   25.9512 C   0  0  2  0  0  0  0  0  0  0  0  0
    8.8562  -16.3825   24.6097 N   0  0  0  0  0  0  0  0  0  0  0  0
    9.3406  -16.8004   26.9366 C   0  0  0  0  0  0  0  0  0  0  0  0
    9.1262  -18.0283   26.8981 O   0  0  0  0  0  0  0  0  0  0  0  0
   10.0438  -16.3708   28.0912 O   0  0  0  0  0  0  0  0  0  0  0  0
  1  2  1  0
  3  2  1  0
  4  3  1  0
  5  4  1  0
  5  1  1  0
  5  6  1  1
  6  7  2  0
  8  6  1  0
  9  8  1  0
  9 10  1  1
 11 10  1  0
 12 11  1  0
 13 12  2  0
 14  9  1  0
 15 14  2  0
 16 12  1  0
 18 17  1  0
 19 18  1  0
 20 19  1  0
 21 22  1  0
 21 20  1  1
 22 14  1  0
 23 21  1  0
 24 23  2  0
 25 23  1  0
M  END
$$$$
