PEM.pdb
     RDKit          3D

 25 25  0  0  1  0  0  0  0  0999 V2000
    8.2268  -14.6971   18.1048 N   0  0  0  0  0  0  0  0  0  0  0  0
    6.9790  -14.0013   18.2595 C   0  0  0  0  0  0  0  0  0  0  0  0
    7.4725  -12.5967   18.6225 C   0  0  0  0  0  0  0  0  0  0  0  0
    8.5337  -12.9481   19.6593 C   0  0  0  0  0  0  0  0  0  0  0  0
    9.0048  -14.3396   19.2392 C   0  0  1  0  0  0  0  0  0  0  0  0
    8.8763  -15.2108   20.4096 C   0  0  0  0  0  0  0  0  0  0  0  0
    7.7756  -15.4057   21.0093 O   0  0  0  0  0  0  0  0  0  0  0  0
    9.9965  -15.8762   20.9191 N   0  0  0  0  0  0  0  0  0  0  0  0
    9.9109  -16.8085   22.0557 C   0  0  1  0  0  0  0  0  0  0  0  0
   11.1970  -17.5775   22.0497 C   0  0  0  0  0  0  0  0  0  0  0  0
   11.2471  -18.6738   21.0249 C   0  0  0  0  0  0  0  0  0  0  0  0
   12.5847  -19.3299   20.9762 C   0  0  0  0  0  0  0  0  0  0  0  0
   12.8452  -20.1778   21.8790 O   0  0  0  0  0  0  0  0  0  0  0  0
    9.8970  -15.9530   23.2843 C   0  0  0  0  0  0  0  0  0  0  0  0
   10.6896  -14.9588   23.3794 O   0  0  0  0  0  0  0  0  0  0  0  0
   13.5251  -19.0299   19.9774 O   0  0  0  0  0  0  0  0  0  0  0  0
    6.2043  -11.1141   27.6929 C   0  0  0  0  0  0  0  0  0  0  0  0
    6.2120  -12.4373   26.4812 S   0  0  0  0  0  0  0  0  0  0  0  0
    7.6574  -13.5268   26.6790 C   0  0  0  0  0  0  0  0  0  0  0  0
    7.7588  -14.4222   25.4822 C   0  0  0  0  0  0  0  0  0  0  0  0
    8.9630  -15.2856   25.5468 C   0  0  2  0  0  0  0  0  0  0  0  0
    9.0304  -16.1846   24.3854 N   0  0  0  0  0  0  0  0  0  0  0  0
    9.0421  -16.0454   26.7945 C   0  0  0  0  0  0  0  0  0  0  0  0
    8.8293  -17.2621   26.9659 O   0  0  0  0  0  0  0  0  0  0  0  0
    9.4016  -15.3479   27.9762 O   0  0  0  0  0  0  0  0  0  0  0  0
  1  2  1  0
  3  2  1  0
  4  3  1  0
  5  4  1  0
  5  1  1  0
  5  6  1  1
  6  7  2  0
  8  6  1  0
  9  8  1  0
  9 10  1  1
 11 10  1  0
 12 11  1  0
 13 12  2  0
 14  9  1  0
 15 14  2  0
 16 12  1  0
 18 17  1  0
 19 18  1  0
 20 19  1  0
 21 22  1  0
 21 20  1  1
 22 14  1  0
 23 21  1  0
 24 23  2  0
 25 23  1  0
M  END
$$$$
