PEM.pdb
     RDKit          3D

 25 25  0  0  1  0  0  0  0  0999 V2000
    9.5193  -14.3857   18.1184 N   0  0  0  0  0  0  0  0  0  0  0  0
    8.4913  -14.6649   17.1538 C   0  0  0  0  0  0  0  0  0  0  0  0
    7.8256  -13.2900   17.0322 C   0  0  0  0  0  0  0  0  0  0  0  0
    7.7112  -12.9194   18.5067 C   0  0  0  0  0  0  0  0  0  0  0  0
    8.8777  -13.6603   19.1588 C   0  0  1  0  0  0  0  0  0  0  0  0
    8.3237  -14.4587   20.2547 C   0  0  0  0  0  0  0  0  0  0  0  0
    7.5500  -13.9785   21.1378 O   0  0  0  0  0  0  0  0  0  0  0  0
    8.6391  -15.8171   20.3663 N   0  0  0  0  0  0  0  0  0  0  0  0
    8.1768  -16.6442   21.4934 C   0  0  1  0  0  0  0  0  0  0  0  0
    8.8108  -17.9881   21.2997 C   0  0  0  0  0  0  0  0  0  0  0  0
   10.2776  -18.0220   21.6190 C   0  0  0  0  0  0  0  0  0  0  0  0
   10.8498  -19.3896   21.4635 C   0  0  0  0  0  0  0  0  0  0  0  0
   10.0705  -20.2984   21.0529 O   0  0  0  0  0  0  0  0  0  0  0  0
    8.7751  -16.0308   22.7212 C   0  0  0  0  0  0  0  0  0  0  0  0
    9.9066  -15.4467   22.6570 O   0  0  0  0  0  0  0  0  0  0  0  0
   12.1939  -19.6719   21.7562 O   0  0  0  0  0  0  0  0  0  0  0  0
    6.8806  -11.0100   28.2099 C   0  0  0  0  0  0  0  0  0  0  0  0
    6.4811  -12.1548   26.8872 S   0  0  0  0  0  0  0  0  0  0  0  0
    7.8530  -13.3033   26.5497 C   0  0  0  0  0  0  0  0  0  0  0  0
    7.4715  -14.1943   25.4073 C   0  0  0  0  0  0  0  0  0  0  0  0
    8.5416  -15.1734   25.0976 C   0  0  2  0  0  0  0  0  0  0  0  0
    8.1434  -16.0582   23.9929 N   0  0  0  0  0  0  0  0  0  0  0  0
    8.9426  -15.9548   26.2676 C   0  0  0  0  0  0  0  0  0  0  0  0
    8.7347  -17.1641   26.4896 O   0  0  0  0  0  0  0  0  0  0  0  0
    9.6570  -15.2909   27.2976 O   0  0  0  0  0  0  0  0  0  0  0  0
  1  2  1  0
  3  2  1  0
  4  3  1  0
  5  4  1  0
  5  1  1  0
  5  6  1  1
  6  7  2  0
  8  6  1  0
  9  8  1  0
  9 10  1  6
 11 10  1  0
 12 11  1  0
 13 12  2  0
 14  9  1  0
 15 14  2  0
 16 12  1  0
 18 17  1  0
 19 18  1  0
 20 19  1  0
 21 22  1  0
 21 20  1  1
 22 14  1  0
 23 21  1  0
 24 23  2  0
 25 23  1  0
M  END
$$$$
