PEM.pdb
     RDKit          3D

 25 25  0  0  1  0  0  0  0  0999 V2000
    9.1468  -14.4615   18.3275 N   0  0  0  0  0  0  0  0  0  0  0  0
    7.8568  -14.3304   17.7080 C   0  0  0  0  0  0  0  0  0  0  0  0
    7.5217  -12.8724   18.0398 C   0  0  0  0  0  0  0  0  0  0  0  0
    7.9086  -12.8402   19.5142 C   0  0  0  0  0  0  0  0  0  0  0  0
    9.0044  -13.8993   19.6251 C   0  0  1  0  0  0  0  0  0  0  0  0
    8.6052  -14.8243   20.6883 C   0  0  0  0  0  0  0  0  0  0  0  0
    7.5571  -14.6660   21.3851 O   0  0  0  0  0  0  0  0  0  0  0  0
    9.3898  -15.9456   20.9781 N   0  0  0  0  0  0  0  0  0  0  0  0
    9.0303  -16.9087   22.0324 C   0  0  1  0  0  0  0  0  0  0  0  0
   10.0121  -18.0340   21.9084 C   0  0  0  0  0  0  0  0  0  0  0  0
    9.7939  -19.1450   22.8945 C   0  0  0  0  0  0  0  0  0  0  0  0
   10.7921  -20.2398   22.7300 C   0  0  0  0  0  0  0  0  0  0  0  0
   11.9327  -20.0641   23.2496 O   0  0  0  0  0  0  0  0  0  0  0  0
    9.2980  -16.2112   23.3299 C   0  0  0  0  0  0  0  0  0  0  0  0
   10.4030  -15.6017   23.5114 O   0  0  0  0  0  0  0  0  0  0  0  0
   10.4935  -21.4206   22.0312 O   0  0  0  0  0  0  0  0  0  0  0  0
    6.6736  -10.5424   25.9658 C   0  0  0  0  0  0  0  0  0  0  0  0
    6.4088  -12.2869   26.2918 S   0  0  0  0  0  0  0  0  0  0  0  0
    7.8213  -13.2985   25.7470 C   0  0  0  0  0  0  0  0  0  0  0  0
    7.6047  -14.7137   26.1882 C   0  0  0  0  0  0  0  0  0  0  0  0
    8.6932  -15.6047   25.7180 C   0  0  2  0  0  0  0  0  0  0  0  0
    8.3710  -16.1837   24.4055 N   0  0  0  0  0  0  0  0  0  0  0  0
    9.0131  -16.6567   26.6831 C   0  0  0  0  0  0  0  0  0  0  0  0
    8.8491  -17.8866   26.5589 O   0  0  0  0  0  0  0  0  0  0  0  0
    9.5807  -16.2701   27.9243 O   0  0  0  0  0  0  0  0  0  0  0  0
  1  2  1  0
  3  2  1  0
  4  3  1  0
  5  4  1  0
  5  1  1  0
  5  6  1  1
  6  7  2  0
  8  6  1  0
  9  8  1  0
  9 10  1  6
 11 10  1  0
 12 11  1  0
 13 12  2  0
 14  9  1  0
 15 14  2  0
 16 12  1  0
 18 17  1  0
 19 18  1  0
 20 19  1  0
 21 22  1  0
 21 20  1  1
 22 14  1  0
 23 21  1  0
 24 23  2  0
 25 23  1  0
M  END
$$$$
