PEM.pdb
     RDKit          3D

 25 25  0  0  1  0  0  0  0  0999 V2000
    8.0815  -14.5716   18.2243 N   0  0  0  0  0  0  0  0  0  0  0  0
    7.0088  -13.6377   18.4301 C   0  0  0  0  0  0  0  0  0  0  0  0
    7.7919  -12.3683   18.7819 C   0  0  0  0  0  0  0  0  0  0  0  0
    8.7955  -12.9426   19.7757 C   0  0  0  0  0  0  0  0  0  0  0  0
    8.9566  -14.3954   19.3304 C   0  0  1  0  0  0  0  0  0  0  0  0
    8.6949  -15.2373   20.5001 C   0  0  0  0  0  0  0  0  0  0  0  0
    7.5252  -15.5126   20.9062 O   0  0  0  0  0  0  0  0  0  0  0  0
    9.7580  -15.7815   21.2285 N   0  0  0  0  0  0  0  0  0  0  0  0
    9.5503  -16.7042   22.3571 C   0  0  1  0  0  0  0  0  0  0  0  0
   10.7503  -17.6015   22.3760 C   0  0  0  0  0  0  0  0  0  0  0  0
   10.7898  -18.5423   23.5456 C   0  0  0  0  0  0  0  0  0  0  0  0
   11.9166  -19.5126   23.4420 C   0  0  0  0  0  0  0  0  0  0  0  0
   12.0678  -20.3263   24.3996 O   0  0  0  0  0  0  0  0  0  0  0  0
    9.5958  -15.8563   23.5903 C   0  0  0  0  0  0  0  0  0  0  0  0
   10.5229  -14.9938   23.7387 O   0  0  0  0  0  0  0  0  0  0  0  0
   12.7809  -19.5344   22.3355 O   0  0  0  0  0  0  0  0  0  0  0  0
    6.8933  -10.8534   26.2449 C   0  0  0  0  0  0  0  0  0  0  0  0
    6.4680  -12.1857   27.3690 S   0  0  0  0  0  0  0  0  0  0  0  0
    7.7186  -13.5090   27.3529 C   0  0  0  0  0  0  0  0  0  0  0  0
    7.6739  -14.2042   26.0265 C   0  0  0  0  0  0  0  0  0  0  0  0
    8.7638  -15.2015   25.8959 C   0  0  2  0  0  0  0  0  0  0  0  0
    8.6425  -15.9538   24.6385 N   0  0  0  0  0  0  0  0  0  0  0  0
    8.8309  -16.1119   27.0391 C   0  0  0  0  0  0  0  0  0  0  0  0
    8.5563  -17.3280   27.0678 O   0  0  0  0  0  0  0  0  0  0  0  0
    9.2557  -15.5842   28.2854 O   0  0  0  0  0  0  0  0  0  0  0  0
  1  2  1  0
  3  2  1  0
  4  3  1  0
  5  4  1  0
  5  1  1  0
  5  6  1  1
  6  7  2  0
  8  6  1  0
  9  8  1  0
  9 10  1  1
 11 10  1  0
 12 11  1  0
 13 12  2  0
 14  9  1  0
 15 14  2  0
 16 12  1  0
 18 17  1  0
 19 18  1  0
 20 19  1  0
 21 22  1  0
 21 20  1  1
 22 14  1  0
 23 21  1  0
 24 23  2  0
 25 23  1  0
M  END
$$$$
