PEM.pdb
     RDKit          3D

 25 25  0  0  1  0  0  0  0  0999 V2000
    9.4616  -14.4643   18.2751 N   0  0  0  0  0  0  0  0  0  0  0  0
    8.3476  -14.6534   17.3871 C   0  0  0  0  0  0  0  0  0  0  0  0
    7.7449  -13.2446   17.3726 C   0  0  0  0  0  0  0  0  0  0  0  0
    7.7666  -12.9315   18.8646 C   0  0  0  0  0  0  0  0  0  0  0  0
    8.9420  -13.7538   19.3910 C   0  0  1  0  0  0  0  0  0  0  0  0
    8.4368  -14.5706   20.4970 C   0  0  0  0  0  0  0  0  0  0  0  0
    7.6410  -14.1248   21.3785 O   0  0  0  0  0  0  0  0  0  0  0  0
    8.8267  -15.9083   20.6204 N   0  0  0  0  0  0  0  0  0  0  0  0
    8.4255  -16.7447   21.7640 C   0  0  1  0  0  0  0  0  0  0  0  0
    9.1041  -18.0652   21.5611 C   0  0  0  0  0  0  0  0  0  0  0  0
    8.7964  -19.0787   22.6254 C   0  0  0  0  0  0  0  0  0  0  0  0
    9.3735  -20.4153   22.3052 C   0  0  0  0  0  0  0  0  0  0  0  0
    9.1788  -21.3440   23.1427 O   0  0  0  0  0  0  0  0  0  0  0  0
    9.0324  -16.1012   22.9721 C   0  0  0  0  0  0  0  0  0  0  0  0
   10.2356  -15.6811   22.9356 O   0  0  0  0  0  0  0  0  0  0  0  0
   10.1039  -20.6483   21.1287 O   0  0  0  0  0  0  0  0  0  0  0  0
    5.7617  -12.1127   26.4298 C   0  0  0  0  0  0  0  0  0  0  0  0
    7.3638  -11.8728   27.2013 S   0  0  0  0  0  0  0  0  0  0  0  0
    8.4957  -13.2559   26.8533 C   0  0  0  0  0  0  0  0  0  0  0  0
    7.9818  -14.0192   25.6711 C   0  0  0  0  0  0  0  0  0  0  0  0
    8.8781  -15.1468   25.3177 C   0  0  2  0  0  0  0  0  0  0  0  0
    8.3320  -15.9227   24.1946 N   0  0  0  0  0  0  0  0  0  0  0  0
    9.1608  -16.0174   26.4590 C   0  0  0  0  0  0  0  0  0  0  0  0
    8.7830  -17.1920   26.6392 O   0  0  0  0  0  0  0  0  0  0  0  0
    9.9591  -15.4976   27.5102 O   0  0  0  0  0  0  0  0  0  0  0  0
  1  2  1  0
  3  2  1  0
  4  3  1  0
  5  4  1  0
  5  1  1  0
  5  6  1  1
  6  7  2  0
  8  6  1  0
  9  8  1  0
  9 10  1  6
 11 10  1  0
 12 11  1  0
 13 12  2  0
 14  9  1  0
 15 14  2  0
 16 12  1  0
 18 17  1  0
 19 18  1  0
 20 19  1  0
 21 22  1  0
 21 20  1  1
 22 14  1  0
 23 21  1  0
 24 23  2  0
 25 23  1  0
M  END
$$$$
