PEM.pdb
     RDKit          3D

 25 25  0  0  1  0  0  0  0  0999 V2000
    9.2394  -14.5963   18.1158 N   0  0  0  0  0  0  0  0  0  0  0  0
    8.0737  -14.6392   17.2764 C   0  0  0  0  0  0  0  0  0  0  0  0
    7.6736  -13.1600   17.2587 C   0  0  0  0  0  0  0  0  0  0  0  0
    7.8014  -12.8329   18.7424 C   0  0  0  0  0  0  0  0  0  0  0  0
    8.8713  -13.8050   19.2375 C   0  0  1  0  0  0  0  0  0  0  0  0
    8.3038  -14.5277   20.3781 C   0  0  0  0  0  0  0  0  0  0  0  0
    7.6794  -13.9520   21.3203 O   0  0  0  0  0  0  0  0  0  0  0  0
    8.4357  -15.9175   20.4679 N   0  0  0  0  0  0  0  0  0  0  0  0
    7.8187  -16.6999   21.5521 C   0  0  1  0  0  0  0  0  0  0  0  0
    8.3755  -18.0851   21.4228 C   0  0  0  0  0  0  0  0  0  0  0  0
    7.8990  -19.0353   22.4833 C   0  0  0  0  0  0  0  0  0  0  0  0
    8.4663  -20.4019   22.3023 C   0  0  0  0  0  0  0  0  0  0  0  0
    9.0897  -20.6302   21.2247 O   0  0  0  0  0  0  0  0  0  0  0  0
    8.3436  -16.1149   22.8264 C   0  0  0  0  0  0  0  0  0  0  0  0
    9.5523  -15.7152   22.8956 O   0  0  0  0  0  0  0  0  0  0  0  0
    8.3229  -21.4025   23.2770 O   0  0  0  0  0  0  0  0  0  0  0  0
    6.7253  -10.6199   27.8096 C   0  0  0  0  0  0  0  0  0  0  0  0
    6.0821  -12.1125   27.0495 S   0  0  0  0  0  0  0  0  0  0  0  0
    7.4096  -13.2912   26.6448 C   0  0  0  0  0  0  0  0  0  0  0  0
    6.9432  -14.1881   25.5392 C   0  0  0  0  0  0  0  0  0  0  0  0
    7.9881  -15.1672   25.1529 C   0  0  2  0  0  0  0  0  0  0  0  0
    7.5570  -15.9716   24.0002 N   0  0  0  0  0  0  0  0  0  0  0  0
    8.3875  -16.0295   26.2652 C   0  0  0  0  0  0  0  0  0  0  0  0
    8.0286  -17.2017   26.4935 O   0  0  0  0  0  0  0  0  0  0  0  0
    9.2926  -15.5036   27.2225 O   0  0  0  0  0  0  0  0  0  0  0  0
  1  2  1  0
  3  2  1  0
  4  3  1  0
  5  4  1  0
  5  1  1  0
  5  6  1  1
  6  7  2  0
  8  6  1  0
  9  8  1  0
  9 10  1  6
 11 10  1  0
 12 11  1  0
 13 12  2  0
 14  9  1  0
 15 14  2  0
 16 12  1  0
 18 17  1  0
 19 18  1  0
 20 19  1  0
 21 22  1  0
 21 20  1  1
 22 14  1  0
 23 21  1  0
 24 23  2  0
 25 23  1  0
M  END
$$$$
