PEM.pdb
     RDKit          3D

 25 25  0  0  1  0  0  0  0  0999 V2000
    8.3965  -14.5296   17.8359 N   0  0  0  0  0  0  0  0  0  0  0  0
    7.0746  -13.9663   17.8152 C   0  0  0  0  0  0  0  0  0  0  0  0
    7.3626  -12.5320   18.2715 C   0  0  0  0  0  0  0  0  0  0  0  0
    8.2913  -12.8096   19.4484 C   0  0  0  0  0  0  0  0  0  0  0  0
    8.9593  -14.1333   19.0793 C   0  0  1  0  0  0  0  0  0  0  0  0
    8.7514  -15.0501   20.2026 C   0  0  0  0  0  0  0  0  0  0  0  0
    7.6027  -15.3358   20.6586 O   0  0  0  0  0  0  0  0  0  0  0  0
    9.8453  -15.6586   20.8272 N   0  0  0  0  0  0  0  0  0  0  0  0
    9.6887  -16.6191   21.9323 C   0  0  1  0  0  0  0  0  0  0  0  0
   11.0054  -17.3250   22.0484 C   0  0  0  0  0  0  0  0  0  0  0  0
   11.0361  -18.3878   23.1086 C   0  0  0  0  0  0  0  0  0  0  0  0
   12.3867  -19.0048   23.2398 C   0  0  0  0  0  0  0  0  0  0  0  0
   13.3100  -18.2784   23.7107 O   0  0  0  0  0  0  0  0  0  0  0  0
    9.5040  -15.7929   23.1672 C   0  0  0  0  0  0  0  0  0  0  0  0
   10.1478  -14.7014   23.3077 O   0  0  0  0  0  0  0  0  0  0  0  0
   12.6381  -20.3334   22.8613 O   0  0  0  0  0  0  0  0  0  0  0  0
    7.0337  -11.3117   27.8020 C   0  0  0  0  0  0  0  0  0  0  0  0
    7.3482  -12.3757   26.3919 S   0  0  0  0  0  0  0  0  0  0  0  0
    6.6469  -14.0390   26.6301 C   0  0  0  0  0  0  0  0  0  0  0  0
    6.9446  -14.8702   25.4198 C   0  0  0  0  0  0  0  0  0  0  0  0
    8.3684  -15.2833   25.3780 C   0  0  2  0  0  0  0  0  0  0  0  0
    8.6302  -16.1580   24.2256 N   0  0  0  0  0  0  0  0  0  0  0  0
    8.8043  -15.9205   26.6207 C   0  0  0  0  0  0  0  0  0  0  0  0
    8.9956  -15.3850   27.7305 O   0  0  0  0  0  0  0  0  0  0  0  0
    9.0498  -17.3175   26.6012 O   0  0  0  0  0  0  0  0  0  0  0  0
  1  2  1  0
  3  2  1  0
  4  3  1  0
  5  4  1  0
  5  1  1  0
  5  6  1  1
  6  7  2  0
  8  6  1  0
  9  8  1  0
  9 10  1  1
 11 10  1  0
 12 11  1  0
 13 12  2  0
 14  9  1  0
 15 14  2  0
 16 12  1  0
 18 17  1  0
 19 18  1  0
 20 19  1  0
 21 22  1  0
 21 20  1  1
 22 14  1  0
 23 21  1  0
 24 23  2  0
 25 23  1  0
M  END
$$$$
