PEM.pdb
     RDKit          3D

 25 25  0  0  1  0  0  0  0  0999 V2000
    8.2434  -14.7267   18.2746 N   0  0  0  0  0  0  0  0  0  0  0  0
    7.0116  -13.9888   18.3304 C   0  0  0  0  0  0  0  0  0  0  0  0
    7.5283  -12.5855   18.6651 C   0  0  0  0  0  0  0  0  0  0  0  0
    8.5185  -12.9248   19.7737 C   0  0  0  0  0  0  0  0  0  0  0  0
    8.9680  -14.3457   19.4364 C   0  0  1  0  0  0  0  0  0  0  0  0
    8.7471  -15.1638   20.6312 C   0  0  0  0  0  0  0  0  0  0  0  0
    7.6338  -15.2170   21.2367 O   0  0  0  0  0  0  0  0  0  0  0  0
    9.7875  -15.9360   21.1587 N   0  0  0  0  0  0  0  0  0  0  0  0
    9.6119  -16.7920   22.3439 C   0  0  1  0  0  0  0  0  0  0  0  0
   10.8445  -17.6407   22.4198 C   0  0  0  0  0  0  0  0  0  0  0  0
   10.9676  -18.6381   21.3041 C   0  0  0  0  0  0  0  0  0  0  0  0
   12.2086  -19.4555   21.4223 C   0  0  0  0  0  0  0  0  0  0  0  0
   12.7896  -19.7819   20.3463 O   0  0  0  0  0  0  0  0  0  0  0  0
    9.6229  -15.8661   23.5204 C   0  0  0  0  0  0  0  0  0  0  0  0
   10.4911  -14.9352   23.5927 O   0  0  0  0  0  0  0  0  0  0  0  0
   12.7224  -19.8531   22.6671 O   0  0  0  0  0  0  0  0  0  0  0  0
    6.7702  -10.4436   26.9420 C   0  0  0  0  0  0  0  0  0  0  0  0
    6.2145  -12.1493   26.9783 S   0  0  0  0  0  0  0  0  0  0  0  0
    7.6120  -13.3142   27.0491 C   0  0  0  0  0  0  0  0  0  0  0  0
    7.5937  -14.1710   25.8203 C   0  0  0  0  0  0  0  0  0  0  0  0
    8.7603  -15.0857   25.7751 C   0  0  2  0  0  0  0  0  0  0  0  0
    8.6992  -15.9606   24.5951 N   0  0  0  0  0  0  0  0  0  0  0  0
    8.9011  -15.8759   26.9983 C   0  0  0  0  0  0  0  0  0  0  0  0
    9.0331  -15.4622   28.1672 O   0  0  0  0  0  0  0  0  0  0  0  0
    8.8912  -17.2896   26.8815 O   0  0  0  0  0  0  0  0  0  0  0  0
  1  2  1  0
  3  2  1  0
  4  3  1  0
  5  4  1  0
  5  1  1  0
  5  6  1  1
  6  7  2  0
  8  6  1  0
  9  8  1  0
  9 10  1  1
 11 10  1  0
 12 11  1  0
 13 12  2  0
 14  9  1  0
 15 14  2  0
 16 12  1  0
 18 17  1  0
 19 18  1  0
 20 19  1  0
 21 22  1  0
 21 20  1  1
 22 14  1  0
 23 21  1  0
 24 23  2  0
 25 23  1  0
M  END
$$$$
