PEM.pdb
     RDKit          3D

 25 25  0  0  1  0  0  0  0  0999 V2000
    9.3425  -13.7049   19.0411 N   0  0  0  0  0  0  0  0  0  0  0  0
    8.5005  -14.1704   17.9736 C   0  0  0  0  0  0  0  0  0  0  0  0
    7.3531  -13.1571   18.0454 C   0  0  0  0  0  0  0  0  0  0  0  0
    7.1083  -13.1398   19.5502 C   0  0  0  0  0  0  0  0  0  0  0  0
    8.4728  -13.4868   20.1439 C   0  0  1  0  0  0  0  0  0  0  0  0
    8.2752  -14.6251   21.0443 C   0  0  0  0  0  0  0  0  0  0  0  0
    7.2203  -14.7903   21.7290 O   0  0  0  0  0  0  0  0  0  0  0  0
    9.2730  -15.5959   21.1821 N   0  0  0  0  0  0  0  0  0  0  0  0
    9.1916  -16.6743   22.1815 C   0  0  1  0  0  0  0  0  0  0  0  0
   10.3077  -17.6189   21.8535 C   0  0  0  0  0  0  0  0  0  0  0  0
   10.0662  -18.4440   20.6224 C   0  0  0  0  0  0  0  0  0  0  0  0
   11.2240  -19.3290   20.3092 C   0  0  0  0  0  0  0  0  0  0  0  0
   12.0934  -18.8802   19.5062 O   0  0  0  0  0  0  0  0  0  0  0  0
    9.5078  -16.0347   23.4978 C   0  0  0  0  0  0  0  0  0  0  0  0
    9.9777  -14.8501   23.5359 O   0  0  0  0  0  0  0  0  0  0  0  0
   11.3574  -20.6080   20.8734 O   0  0  0  0  0  0  0  0  0  0  0  0
    7.1148  -11.4584   26.3865 C   0  0  0  0  0  0  0  0  0  0  0  0
    6.1925  -12.9972   26.4192 S   0  0  0  0  0  0  0  0  0  0  0  0
    7.2386  -14.4020   26.9167 C   0  0  0  0  0  0  0  0  0  0  0  0
    7.6892  -15.1318   25.6884 C   0  0  0  0  0  0  0  0  0  0  0  0
    8.8867  -15.9646   25.9566 C   0  0  2  0  0  0  0  0  0  0  0  0
    9.3116  -16.6828   24.7461 N   0  0  0  0  0  0  0  0  0  0  0  0
    8.6851  -16.8958   27.0668 C   0  0  0  0  0  0  0  0  0  0  0  0
    8.5676  -16.6292   28.2793 O   0  0  0  0  0  0  0  0  0  0  0  0
    8.6085  -18.2804   26.7678 O   0  0  0  0  0  0  0  0  0  0  0  0
  1  2  1  0
  3  2  1  0
  4  3  1  0
  5  4  1  0
  5  1  1  0
  5  6  1  6
  6  7  2  0
  8  6  1  0
  9  8  1  0
  9 10  1  6
 11 10  1  0
 12 11  1  0
 13 12  2  0
 14  9  1  0
 15 14  2  0
 16 12  1  0
 18 17  1  0
 19 18  1  0
 20 19  1  0
 21 22  1  0
 21 20  1  6
 22 14  1  0
 23 21  1  0
 24 23  2  0
 25 23  1  0
M  END
$$$$
