PEM.pdb
     RDKit          3D

 25 25  0  0  1  0  0  0  0  0999 V2000
    8.2349  -14.4515   18.2088 N   0  0  0  0  0  0  0  0  0  0  0  0
    7.0316  -13.6781   18.3467 C   0  0  0  0  0  0  0  0  0  0  0  0
    7.5959  -12.3533   18.8709 C   0  0  0  0  0  0  0  0  0  0  0  0
    8.5525  -12.8760   19.9370 C   0  0  0  0  0  0  0  0  0  0  0  0
    8.9529  -14.2569   19.4198 C   0  0  1  0  0  0  0  0  0  0  0  0
    8.6795  -15.2159   20.4927 C   0  0  0  0  0  0  0  0  0  0  0  0
    7.5059  -15.5523   20.8372 O   0  0  0  0  0  0  0  0  0  0  0  0
    9.7350  -15.8098   21.1928 N   0  0  0  0  0  0  0  0  0  0  0  0
    9.5168  -16.8253   22.2366 C   0  0  1  0  0  0  0  0  0  0  0  0
   10.6892  -17.7547   22.1524 C   0  0  0  0  0  0  0  0  0  0  0  0
   10.6453  -18.8828   23.1424 C   0  0  0  0  0  0  0  0  0  0  0  0
   11.8261  -19.7834   23.0132 C   0  0  0  0  0  0  0  0  0  0  0  0
   11.7071  -20.7856   22.2496 O   0  0  0  0  0  0  0  0  0  0  0  0
    9.6068  -16.0951   23.5406 C   0  0  0  0  0  0  0  0  0  0  0  0
   10.6100  -15.3475   23.7862 O   0  0  0  0  0  0  0  0  0  0  0  0
   13.0252  -19.5422   23.7031 O   0  0  0  0  0  0  0  0  0  0  0  0
    6.3796  -10.6497   26.0741 C   0  0  0  0  0  0  0  0  0  0  0  0
    6.1928  -12.4284   25.9297 S   0  0  0  0  0  0  0  0  0  0  0  0
    7.7484  -13.3030   26.2908 C   0  0  0  0  0  0  0  0  0  0  0  0
    7.5077  -14.7792   26.2044 C   0  0  0  0  0  0  0  0  0  0  0  0
    8.7474  -15.5151   25.8561 C   0  0  2  0  0  0  0  0  0  0  0  0
    8.6154  -16.1841   24.5536 N   0  0  0  0  0  0  0  0  0  0  0  0
    9.1417  -16.4709   26.8911 C   0  0  0  0  0  0  0  0  0  0  0  0
    9.0913  -17.7160   26.8440 O   0  0  0  0  0  0  0  0  0  0  0  0
    9.6482  -15.9572   28.1125 O   0  0  0  0  0  0  0  0  0  0  0  0
  1  2  1  0
  3  2  1  0
  4  3  1  0
  5  4  1  0
  5  1  1  0
  5  6  1  1
  6  7  2  0
  8  6  1  0
  9  8  1  0
  9 10  1  1
 11 10  1  0
 12 11  1  0
 13 12  2  0
 14  9  1  0
 15 14  2  0
 16 12  1  0
 18 17  1  0
 19 18  1  0
 20 19  1  0
 21 22  1  0
 21 20  1  1
 22 14  1  0
 23 21  1  0
 24 23  2  0
 25 23  1  0
M  END
$$$$
