QAN.pdb
     RDKit          3D

 23 22  0  0  1  0  0  0  0  0999 V2000
   13.3209  -21.0908   21.5093 N   0  0  0  0  0  0  0  0  0  0  0  0
   13.4927  -22.3180   22.1856 C   0  0  0  0  0  0  0  0  0  0  0  0
   13.2449  -23.4022   21.5774 O   0  0  0  0  0  0  0  0  0  0  0  0
   13.9432  -22.4081   23.5705 C   0  0  0  0  0  0  0  0  0  0  0  0
   12.9053  -22.5354   24.6258 C   0  0  0  0  0  0  0  0  0  0  0  0
   13.3634  -23.0190   25.9566 C   0  0  2  0  0  0  0  0  0  0  0  0
   13.8727  -24.3648   25.9566 N   0  0  0  0  0  0  0  0  0  0  0  0
   12.2494  -22.8153   26.9455 C   0  0  0  0  0  0  0  0  0  0  0  0
   11.7150  -21.6847   27.0861 O   0  0  0  0  0  0  0  0  0  0  0  0
    9.9101  -24.9929   28.7810 C   0  0  0  0  0  0  0  0  0  0  0  0
   10.6647  -23.7184   28.7086 C   0  0  2  0  0  0  0  0  0  0  0  0
   11.7541  -23.8691   27.7588 N   0  0  0  0  0  0  0  0  0  0  0  0
   11.2383  -23.2818   30.0008 C   0  0  0  0  0  0  0  0  0  0  0  0
   10.4528  -23.0845   30.9589 O   0  0  0  0  0  0  0  0  0  0  0  0
   14.0864  -22.0540   34.0338 N   0  0  0  0  0  0  0  0  0  0  0  0
   14.8664  -22.8591   33.1958 C   0  0  0  0  0  0  0  0  0  0  0  0
   15.9967  -23.3085   33.5775 O   0  0  0  0  0  0  0  0  0  0  0  0
   14.4336  -23.2548   31.8027 C   0  0  0  0  0  0  0  0  0  0  0  0
   13.0877  -22.5959   31.5252 C   0  0  2  0  0  0  0  0  0  0  0  0
   12.6210  -23.0701   30.2341 N   0  0  0  0  0  0  0  0  0  0  0  0
   13.2571  -21.1285   31.5033 C   0  0  0  0  0  0  0  0  0  0  0  0
   13.6531  -20.5317   32.5505 O   0  0  0  0  0  0  0  0  0  0  0  0
   12.9943  -20.3811   30.3714 O   0  0  0  0  0  0  0  0  0  0  0  0
  2  4  1  0
  2  1  1  0
  3  2  2  0
  5  4  1  0
  6  7  1  6
  6  5  1  0
  8  6  1  0
  9  8  2  0
 11 10  1  1
 11 13  1  0
 11 12  1  0
 12  8  1  0
 13 20  1  0
 14 13  2  0
 16 17  2  0
 16 15  1  0
 18 16  1  0
 19 18  1  6
 19 21  1  0
 20 19  1  0
 21 22  2  0
 21 23  1  0
M  END
$$$$
