QAN.pdb
     RDKit          3D

 23 22  0  0  1  0  0  0  0  0999 V2000
    7.9307  -12.9028   16.9899 N   0  0  0  0  0  0  0  0  0  0  0  0
    8.1338  -14.0306   16.1654 C   0  0  0  0  0  0  0  0  0  0  0  0
    7.3567  -14.2306   15.1841 O   0  0  0  0  0  0  0  0  0  0  0  0
    9.2044  -14.9970   16.3871 C   0  0  0  0  0  0  0  0  0  0  0  0
    9.7967  -15.0690   17.7476 C   0  0  0  0  0  0  0  0  0  0  0  0
    9.0790  -15.9105   18.7434 C   0  0  2  0  0  0  0  0  0  0  0  0
    7.6828  -16.1092   18.4571 N   0  0  0  0  0  0  0  0  0  0  0  0
    9.3192  -15.3363   20.1120 C   0  0  0  0  0  0  0  0  0  0  0  0
   10.4860  -15.0660   20.4986 O   0  0  0  0  0  0  0  0  0  0  0  0
    7.1833  -14.0838   22.9100 C   0  0  0  0  0  0  0  0  0  0  0  0
    8.4591  -14.6356   22.3934 C   0  0  2  0  0  0  0  0  0  0  0  0
    8.2610  -15.0769   21.0231 N   0  0  0  0  0  0  0  0  0  0  0  0
    8.9826  -15.7788   23.1735 C   0  0  0  0  0  0  0  0  0  0  0  0
    8.4107  -16.8887   23.0507 O   0  0  0  0  0  0  0  0  0  0  0  0
   13.2591  -16.0268   22.7969 N   0  0  0  0  0  0  0  0  0  0  0  0
   12.5902  -17.0380   23.4963 C   0  0  0  0  0  0  0  0  0  0  0  0
   12.4166  -18.1918   22.9826 O   0  0  0  0  0  0  0  0  0  0  0  0
   12.0383  -16.8448   24.8901 C   0  0  0  0  0  0  0  0  0  0  0  0
   10.5173  -16.8792   24.8008 C   0  0  2  0  0  0  0  0  0  0  0  0
   10.0915  -15.7081   24.0545 N   0  0  0  0  0  0  0  0  0  0  0  0
    9.9470  -16.8557   26.1634 C   0  0  0  0  0  0  0  0  0  0  0  0
    9.5990  -17.9457   26.7116 O   0  0  0  0  0  0  0  0  0  0  0  0
    9.7783  -15.6763   26.8629 O   0  0  0  0  0  0  0  0  0  0  0  0
  2  4  1  0
  2  1  1  0
  3  2  2  0
  5  4  1  0
  6  7  1  6
  6  5  1  0
  8  6  1  0
  9  8  2  0
 11 10  1  1
 11 13  1  0
 11 12  1  0
 12  8  1  0
 13 20  1  0
 14 13  2  0
 16 17  2  0
 16 15  1  0
 18 16  1  0
 19 18  1  1
 19 21  1  0
 20 19  1  0
 21 22  2  0
 21 23  1  0
M  END
$$$$
