QAN.pdb
     RDKit          3D

 23 22  0  0  1  0  0  0  0  0999 V2000
    7.5362  -13.7612   14.9452 N   0  0  0  0  0  0  0  0  0  0  0  0
    7.2745  -13.9458   16.3202 C   0  0  0  0  0  0  0  0  0  0  0  0
    6.7862  -15.0462   16.7172 O   0  0  0  0  0  0  0  0  0  0  0  0
    7.5357  -12.9209   17.3254 C   0  0  0  0  0  0  0  0  0  0  0  0
    7.9721  -13.3719   18.6719 C   0  0  0  0  0  0  0  0  0  0  0  0
    9.2626  -14.1098   18.7420 C   0  0  2  0  0  0  0  0  0  0  0  0
    9.3216  -15.2837   17.9118 N   0  0  0  0  0  0  0  0  0  0  0  0
    9.5672  -14.3988   20.1856 C   0  0  0  0  0  0  0  0  0  0  0  0
    9.7106  -13.4600   21.0114 O   0  0  0  0  0  0  0  0  0  0  0  0
    9.2815  -17.1808   22.5250 C   0  0  0  0  0  0  0  0  0  0  0  0
   10.0993  -16.0409   22.0445 C   0  0  2  0  0  0  0  0  0  0  0  0
    9.7086  -15.7220   20.6817 N   0  0  0  0  0  0  0  0  0  0  0  0
   11.5569  -16.2954   22.0573 C   0  0  0  0  0  0  0  0  0  0  0  0
   12.0694  -16.8434   21.0519 O   0  0  0  0  0  0  0  0  0  0  0  0
   16.7251  -15.1739   22.3355 N   0  0  0  0  0  0  0  0  0  0  0  0
   16.0483  -15.2364   23.5590 C   0  0  0  0  0  0  0  0  0  0  0  0
   16.6691  -15.4845   24.6446 O   0  0  0  0  0  0  0  0  0  0  0  0
   14.5588  -15.0127   23.6852 C   0  0  0  0  0  0  0  0  0  0  0  0
   13.8506  -16.1914   23.0282 C   0  0  2  0  0  0  0  0  0  0  0  0
   12.4201  -15.9613   23.1316 N   0  0  0  0  0  0  0  0  0  0  0  0
   14.2227  -17.4376   23.7289 C   0  0  0  0  0  0  0  0  0  0  0  0
   13.5331  -17.8237   24.7213 O   0  0  0  0  0  0  0  0  0  0  0  0
   15.3061  -18.1994   23.3356 O   0  0  0  0  0  0  0  0  0  0  0  0
  2  4  1  0
  2  1  1  0
  3  2  2  0
  5  4  1  0
  6  7  1  6
  6  5  1  0
  8  6  1  0
  9  8  2  0
 11 10  1  6
 11 13  1  0
 11 12  1  0
 12  8  1  0
 13 20  1  0
 14 13  2  0
 16 17  2  0
 16 15  1  0
 18 16  1  0
 19 18  1  1
 19 21  1  0
 20 19  1  0
 21 22  2  0
 21 23  1  0
M  END
$$$$
