QAN.pdb
     RDKit          3D

 23 22  0  0  1  0  0  0  0  0999 V2000
    6.9427  -20.2913   18.4255 N   0  0  0  0  0  0  0  0  0  0  0  0
    5.8873  -19.7536   19.1937 C   0  0  0  0  0  0  0  0  0  0  0  0
    5.5774  -18.5323   19.0544 O   0  0  0  0  0  0  0  0  0  0  0  0
    5.1240  -20.5384   20.1582 C   0  0  0  0  0  0  0  0  0  0  0  0
    5.8710  -21.4999   21.0094 C   0  0  0  0  0  0  0  0  0  0  0  0
    5.5763  -21.4679   22.4678 C   0  0  2  0  0  0  0  0  0  0  0  0
    4.2159  -21.1289   22.7917 N   0  0  0  0  0  0  0  0  0  0  0  0
    6.5781  -20.5673   23.1355 C   0  0  0  0  0  0  0  0  0  0  0  0
    7.8033  -20.6565   22.8622 O   0  0  0  0  0  0  0  0  0  0  0  0
    6.3857  -17.5229   25.2781 C   0  0  0  0  0  0  0  0  0  0  0  0
    7.1342  -18.6866   24.7445 C   0  0  2  0  0  0  0  0  0  0  0  0
    6.1999  -19.5893   24.0934 N   0  0  0  0  0  0  0  0  0  0  0  0
    7.8730  -19.4525   25.7726 C   0  0  0  0  0  0  0  0  0  0  0  0
    7.2382  -20.2967   26.4496 O   0  0  0  0  0  0  0  0  0  0  0  0
   11.3756  -23.0546   27.5819 N   0  0  0  0  0  0  0  0  0  0  0  0
   11.7526  -21.7225   27.3763 C   0  0  0  0  0  0  0  0  0  0  0  0
   12.6976  -21.1928   28.0484 O   0  0  0  0  0  0  0  0  0  0  0  0
   11.0848  -20.8287   26.3565 C   0  0  0  0  0  0  0  0  0  0  0  0
    9.9089  -20.1383   27.0371 C   0  0  2  0  0  0  0  0  0  0  0  0
    9.2557  -19.2993   26.0476 N   0  0  0  0  0  0  0  0  0  0  0  0
   10.4073  -19.3167   28.1593 C   0  0  0  0  0  0  0  0  0  0  0  0
   10.5880  -19.8558   29.2935 O   0  0  0  0  0  0  0  0  0  0  0  0
   10.6826  -17.9710   28.0115 O   0  0  0  0  0  0  0  0  0  0  0  0
  2  4  1  0
  2  1  1  0
  3  2  2  0
  5  4  1  0
  6  7  1  6
  6  5  1  0
  8  6  1  0
  9  8  2  0
 11 10  1  1
 11 13  1  0
 11 12  1  0
 12  8  1  0
 13 20  1  0
 14 13  2  0
 16 17  2  0
 16 15  1  0
 18 16  1  0
 19 18  1  6
 19 21  1  0
 20 19  1  0
 21 22  2  0
 21 23  1  0
M  END
$$$$
