QAN.pdb
     RDKit          3D

 23 22  0  0  1  0  0  0  0  0999 V2000
    9.3563  -18.5592   16.6244 N   0  0  0  0  0  0  0  0  0  0  0  0
    9.3661  -17.6473   15.5468 C   0  0  0  0  0  0  0  0  0  0  0  0
    9.2826  -18.0866   14.3606 O   0  0  0  0  0  0  0  0  0  0  0  0
    9.4730  -16.2032   15.7262 C   0  0  0  0  0  0  0  0  0  0  0  0
    9.5309  -15.6842   17.1170 C   0  0  0  0  0  0  0  0  0  0  0  0
    8.4440  -14.7540   17.5272 C   0  0  2  0  0  0  0  0  0  0  0  0
    8.1157  -13.7543   16.5456 N   0  0  0  0  0  0  0  0  0  0  0  0
    8.8010  -14.1658   18.8640 C   0  0  0  0  0  0  0  0  0  0  0  0
    9.9863  -13.8301   19.1212 O   0  0  0  0  0  0  0  0  0  0  0  0
    6.8790  -13.0506   21.8758 C   0  0  0  0  0  0  0  0  0  0  0  0
    8.1454  -13.4196   21.1982 C   0  0  2  0  0  0  0  0  0  0  0  0
    7.8367  -13.9650   19.8871 N   0  0  0  0  0  0  0  0  0  0  0  0
    8.9548  -14.4172   21.9323 C   0  0  0  0  0  0  0  0  0  0  0  0
    9.2863  -14.1548   23.1135 O   0  0  0  0  0  0  0  0  0  0  0  0
   11.2924  -18.6705   23.6117 N   0  0  0  0  0  0  0  0  0  0  0  0
   10.4894  -19.0284   22.5226 C   0  0  0  0  0  0  0  0  0  0  0  0
   10.3070  -20.2511   22.2110 O   0  0  0  0  0  0  0  0  0  0  0  0
    9.7856  -18.0122   21.6529 C   0  0  0  0  0  0  0  0  0  0  0  0
   10.0666  -16.6289   22.2275 C   0  0  2  0  0  0  0  0  0  0  0  0
    9.3843  -15.6560   21.3921 N   0  0  0  0  0  0  0  0  0  0  0  0
   11.5232  -16.3825   22.2187 C   0  0  0  0  0  0  0  0  0  0  0  0
   12.0124  -15.5717   21.3743 O   0  0  0  0  0  0  0  0  0  0  0  0
   12.3745  -17.0127   23.1056 O   0  0  0  0  0  0  0  0  0  0  0  0
  2  4  1  0
  2  1  1  0
  3  2  2  0
  5  4  1  0
  6  7  1  6
  6  5  1  0
  8  6  1  0
  9  8  2  0
 11 10  1  1
 11 13  1  0
 11 12  1  0
 12  8  1  0
 13 20  1  0
 14 13  2  0
 16 17  2  0
 16 15  1  0
 18 16  1  0
 19 18  1  6
 19 21  1  0
 20 19  1  0
 21 22  2  0
 21 23  1  0
M  END
$$$$
