QAN.pdb
     RDKit          3D

 23 22  0  0  1  0  0  0  0  0999 V2000
    8.0847  -13.7207   14.0515 N   0  0  0  0  0  0  0  0  0  0  0  0
    7.6404  -15.0552   13.9303 C   0  0  0  0  0  0  0  0  0  0  0  0
    6.6826  -15.3218   13.1439 O   0  0  0  0  0  0  0  0  0  0  0  0
    8.2301  -16.1620   14.6761 C   0  0  0  0  0  0  0  0  0  0  0  0
    9.4274  -15.8726   15.5066 C   0  0  0  0  0  0  0  0  0  0  0  0
    9.3270  -16.1949   16.9561 C   0  0  2  0  0  0  0  0  0  0  0  0
    8.2545  -17.0935   17.2920 N   0  0  0  0  0  0  0  0  0  0  0  0
    9.2725  -14.9053   17.7270 C   0  0  0  0  0  0  0  0  0  0  0  0
   10.2182  -14.0776   17.6607 O   0  0  0  0  0  0  0  0  0  0  0  0
    6.8315  -13.0973   19.8850 C   0  0  0  0  0  0  0  0  0  0  0  0
    8.2161  -13.5315   19.5797 C   0  0  2  0  0  0  0  0  0  0  0  0
    8.1718  -14.5627   18.5567 N   0  0  0  0  0  0  0  0  0  0  0  0
    8.9507  -14.0714   20.7452 C   0  0  0  0  0  0  0  0  0  0  0  0
    9.0875  -13.3333   21.7504 O   0  0  0  0  0  0  0  0  0  0  0  0
   10.6088  -18.9171   23.8545 N   0  0  0  0  0  0  0  0  0  0  0  0
   10.1940  -17.5870   23.7217 C   0  0  0  0  0  0  0  0  0  0  0  0
   10.4239  -16.7296   24.6367 O   0  0  0  0  0  0  0  0  0  0  0  0
    9.4609  -17.0738   22.5036 C   0  0  0  0  0  0  0  0  0  0  0  0
   10.1871  -15.8282   22.0098 C   0  0  2  0  0  0  0  0  0  0  0  0
    9.5137  -15.3714   20.8066 N   0  0  0  0  0  0  0  0  0  0  0  0
   11.5941  -16.1677   21.7139 C   0  0  0  0  0  0  0  0  0  0  0  0
   12.3488  -16.5674   22.6523 O   0  0  0  0  0  0  0  0  0  0  0  0
   12.1173  -16.0611   20.4398 O   0  0  0  0  0  0  0  0  0  0  0  0
  2  4  1  0
  2  1  1  0
  3  2  2  0
  5  4  1  0
  6  7  1  6
  6  5  1  0
  8  6  1  0
  9  8  2  0
 11 10  1  1
 11 13  1  0
 11 12  1  0
 12  8  1  0
 13 20  1  0
 14 13  2  0
 16 17  2  0
 16 15  1  0
 18 16  1  0
 19 18  1  6
 19 21  1  0
 20 19  1  0
 21 22  2  0
 21 23  1  0
M  END
$$$$
