QAN.pdb
     RDKit          3D

 23 22  0  0  1  0  0  0  0  0999 V2000
    7.9940  -11.9566   18.7882 N   0  0  0  0  0  0  0  0  0  0  0  0
    7.8398  -13.2683   19.2869 C   0  0  0  0  0  0  0  0  0  0  0  0
    6.8930  -13.9906   18.8525 O   0  0  0  0  0  0  0  0  0  0  0  0
    8.7225  -13.8461   20.2948 C   0  0  0  0  0  0  0  0  0  0  0  0
    8.1386  -14.8360   21.2361 C   0  0  0  0  0  0  0  0  0  0  0  0
    9.0926  -15.5565   22.1224 C   0  0  2  0  0  0  0  0  0  0  0  0
   10.1793  -16.1968   21.4297 N   0  0  0  0  0  0  0  0  0  0  0  0
    8.3123  -16.5051   22.9895 C   0  0  0  0  0  0  0  0  0  0  0  0
    7.4779  -16.0711   23.8256 O   0  0  0  0  0  0  0  0  0  0  0  0
    6.9859  -19.7783   23.0173 C   0  0  0  0  0  0  0  0  0  0  0  0
    7.8330  -18.8564   23.8121 C   0  0  2  0  0  0  0  0  0  0  0  0
    8.4760  -17.9137   22.9123 N   0  0  0  0  0  0  0  0  0  0  0  0
    8.8873  -19.5326   24.5998 C   0  0  0  0  0  0  0  0  0  0  0  0
    8.5388  -20.4270   25.4076 O   0  0  0  0  0  0  0  0  0  0  0  0
   11.7835  -21.1685   22.7427 N   0  0  0  0  0  0  0  0  0  0  0  0
   12.4946  -20.0680   23.2348 C   0  0  0  0  0  0  0  0  0  0  0  0
   13.0845  -19.2577   22.4469 O   0  0  0  0  0  0  0  0  0  0  0  0
   12.6103  -19.7586   24.7097 C   0  0  0  0  0  0  0  0  0  0  0  0
   11.2333  -19.9424   25.3365 C   0  0  2  0  0  0  0  0  0  0  0  0
   10.2716  -19.2399   24.5050 N   0  0  0  0  0  0  0  0  0  0  0  0
   11.2391  -19.3803   26.7027 C   0  0  0  0  0  0  0  0  0  0  0  0
   11.3167  -20.1634   27.6979 O   0  0  0  0  0  0  0  0  0  0  0  0
   11.1605  -18.0201   26.9317 O   0  0  0  0  0  0  0  0  0  0  0  0
  2  4  1  0
  2  1  1  0
  3  2  2  0
  5  4  1  0
  6  7  1  6
  6  5  1  0
  8  6  1  0
  9  8  2  0
 11 10  1  6
 11 13  1  0
 11 12  1  0
 12  8  1  0
 13 20  1  0
 14 13  2  0
 16 17  2  0
 16 15  1  0
 18 16  1  0
 19 18  1  6
 19 21  1  0
 20 19  1  0
 21 22  2  0
 21 23  1  0
M  END
$$$$
