QAN.pdb
     RDKit          3D

 23 22  0  0  1  0  0  0  0  0999 V2000
    7.5375  -15.2690   16.3911 N   0  0  0  0  0  0  0  0  0  0  0  0
    7.3031  -13.9017   16.1295 C   0  0  0  0  0  0  0  0  0  0  0  0
    7.1727  -13.5123   14.9302 O   0  0  0  0  0  0  0  0  0  0  0  0
    7.2053  -12.8948   17.1810 C   0  0  0  0  0  0  0  0  0  0  0  0
    7.2934  -13.3588   18.5896 C   0  0  0  0  0  0  0  0  0  0  0  0
    8.6427  -13.3331   19.2168 C   0  0  2  0  0  0  0  0  0  0  0  0
    9.7212  -13.0885   18.2961 N   0  0  0  0  0  0  0  0  0  0  0  0
    8.8240  -14.5996   20.0065 C   0  0  0  0  0  0  0  0  0  0  0  0
    8.0143  -14.9080   20.9192 O   0  0  0  0  0  0  0  0  0  0  0  0
    9.7666  -17.8752   19.9276 C   0  0  0  0  0  0  0  0  0  0  0  0
   10.2085  -16.6368   20.6133 C   0  0  2  0  0  0  0  0  0  0  0  0
    9.9004  -15.4951   19.7688 N   0  0  0  0  0  0  0  0  0  0  0  0
   11.6546  -16.6018   20.9244 C   0  0  0  0  0  0  0  0  0  0  0  0
   12.2154  -17.6767   21.2471 O   0  0  0  0  0  0  0  0  0  0  0  0
   13.9115  -15.7051   18.3920 N   0  0  0  0  0  0  0  0  0  0  0  0
   14.4842  -14.5590   18.9555 C   0  0  0  0  0  0  0  0  0  0  0  0
   14.9887  -13.6453   18.2234 O   0  0  0  0  0  0  0  0  0  0  0  0
   14.5415  -14.3187   20.4466 C   0  0  0  0  0  0  0  0  0  0  0  0
   13.8839  -15.5068   21.1384 C   0  0  2  0  0  0  0  0  0  0  0  0
   12.4560  -15.4326   20.8827 N   0  0  0  0  0  0  0  0  0  0  0  0
   14.1506  -15.4365   22.5897 C   0  0  0  0  0  0  0  0  0  0  0  0
   15.3474  -15.4969   23.0065 O   0  0  0  0  0  0  0  0  0  0  0  0
   13.1309  -15.3078   23.5129 O   0  0  0  0  0  0  0  0  0  0  0  0
  2  4  1  0
  2  1  1  0
  3  2  2  0
  5  4  1  0
  6  7  1  6
  6  5  1  0
  8  6  1  0
  9  8  2  0
 11 10  1  6
 11 13  1  0
 11 12  1  0
 12  8  1  0
 13 20  1  0
 14 13  2  0
 16 17  2  0
 16 15  1  0
 18 16  1  0
 19 18  1  6
 19 21  1  0
 20 19  1  0
 21 22  2  0
 21 23  1  0
M  END
$$$$
