QAN.pdb
     RDKit          3D

 23 22  0  0  1  0  0  0  0  0999 V2000
    9.7681  -18.0045   15.1678 N   0  0  0  0  0  0  0  0  0  0  0  0
    8.9265  -17.1245   14.4535 C   0  0  0  0  0  0  0  0  0  0  0  0
    8.6095  -17.4019   13.2579 O   0  0  0  0  0  0  0  0  0  0  0  0
    8.3961  -15.8907   15.0240 C   0  0  0  0  0  0  0  0  0  0  0  0
    8.8119  -15.5361   16.4055 C   0  0  0  0  0  0  0  0  0  0  0  0
    8.1181  -14.3793   17.0342 C   0  0  2  0  0  0  0  0  0  0  0  0
    8.1829  -13.1612   16.2710 N   0  0  0  0  0  0  0  0  0  0  0  0
    8.6364  -14.2190   18.4364 C   0  0  0  0  0  0  0  0  0  0  0  0
    9.8660  -14.0583   18.6513 O   0  0  0  0  0  0  0  0  0  0  0  0
    7.1476  -13.6709   21.8012 C   0  0  0  0  0  0  0  0  0  0  0  0
    8.2497  -14.1688   20.9430 C   0  0  2  0  0  0  0  0  0  0  0  0
    7.7807  -14.2431   19.5696 N   0  0  0  0  0  0  0  0  0  0  0  0
    8.7591  -15.5036   21.3278 C   0  0  0  0  0  0  0  0  0  0  0  0
    8.7490  -16.4115   20.4620 O   0  0  0  0  0  0  0  0  0  0  0  0
   13.3405  -17.3566   21.1845 N   0  0  0  0  0  0  0  0  0  0  0  0
   12.8966  -16.5407   22.2315 C   0  0  0  0  0  0  0  0  0  0  0  0
   13.5632  -16.4338   23.3130 O   0  0  0  0  0  0  0  0  0  0  0  0
   11.6201  -15.7345   22.1590 C   0  0  0  0  0  0  0  0  0  0  0  0
   10.4987  -16.5779   22.7540 C   0  0  2  0  0  0  0  0  0  0  0  0
    9.2611  -15.8308   22.6130 N   0  0  0  0  0  0  0  0  0  0  0  0
   10.7845  -16.8348   24.1805 C   0  0  0  0  0  0  0  0  0  0  0  0
   10.4874  -15.9536   25.0436 O   0  0  0  0  0  0  0  0  0  0  0  0
   11.3703  -18.0114   24.6061 O   0  0  0  0  0  0  0  0  0  0  0  0
  2  4  1  0
  2  1  1  0
  3  2  2  0
  5  4  1  0
  6  7  1  6
  6  5  1  0
  8  6  1  0
  9  8  2  0
 11 10  1  1
 11 13  1  0
 11 12  1  0
 12  8  1  0
 13 20  1  0
 14 13  2  0
 16 17  2  0
 16 15  1  0
 18 16  1  0
 19 18  1  1
 19 21  1  0
 20 19  1  0
 21 22  2  0
 21 23  1  0
M  END
$$$$
