QAN.pdb
     RDKit          3D

 23 22  0  0  1  0  0  0  0  0999 V2000
    8.7960  -13.9247   14.9864 N   0  0  0  0  0  0  0  0  0  0  0  0
    7.8573  -14.2425   15.9919 C   0  0  0  0  0  0  0  0  0  0  0  0
    7.2192  -15.3356   15.9226 O   0  0  0  0  0  0  0  0  0  0  0  0
    7.5738  -13.3654   17.1229 C   0  0  0  0  0  0  0  0  0  0  0  0
    8.4570  -13.4684   18.3130 C   0  0  0  0  0  0  0  0  0  0  0  0
    8.4308  -14.7594   19.0529 C   0  0  2  0  0  0  0  0  0  0  0  0
    7.1745  -15.4578   18.9847 N   0  0  0  0  0  0  0  0  0  0  0  0
    8.8840  -14.5077   20.4642 C   0  0  0  0  0  0  0  0  0  0  0  0
    9.9822  -13.9376   20.6933 O   0  0  0  0  0  0  0  0  0  0  0  0
    7.3307  -14.4004   23.7937 C   0  0  0  0  0  0  0  0  0  0  0  0
    8.5267  -14.6966   22.9686 C   0  0  2  0  0  0  0  0  0  0  0  0
    8.1109  -14.8959   21.5905 N   0  0  0  0  0  0  0  0  0  0  0  0
    9.2765  -15.8968   23.4007 C   0  0  0  0  0  0  0  0  0  0  0  0
    8.8313  -17.0221   23.0699 O   0  0  0  0  0  0  0  0  0  0  0  0
   12.7680  -17.4862   22.0734 N   0  0  0  0  0  0  0  0  0  0  0  0
   13.0731  -16.5981   23.1113 C   0  0  0  0  0  0  0  0  0  0  0  0
   13.7379  -15.5322   22.8937 O   0  0  0  0  0  0  0  0  0  0  0  0
   12.6407  -16.8275   24.5413 C   0  0  0  0  0  0  0  0  0  0  0  0
   11.1408  -17.0975   24.5397 C   0  0  2  0  0  0  0  0  0  0  0  0
   10.4698  -15.8646   24.1662 N   0  0  0  0  0  0  0  0  0  0  0  0
   10.7194  -17.5234   25.8901 C   0  0  0  0  0  0  0  0  0  0  0  0
   10.7711  -18.7527   26.1997 O   0  0  0  0  0  0  0  0  0  0  0  0
   10.2663  -16.6193   26.8314 O   0  0  0  0  0  0  0  0  0  0  0  0
  2  4  1  0
  2  1  1  0
  3  2  2  0
  5  4  1  0
  6  7  1  1
  6  5  1  0
  8  6  1  0
  9  8  2  0
 11 10  1  1
 11 13  1  0
 11 12  1  0
 12  8  1  0
 13 20  1  0
 14 13  2  0
 16 17  2  0
 16 15  1  0
 18 16  1  0
 19 18  1  1
 19 21  1  0
 20 19  1  0
 21 22  2  0
 21 23  1  0
M  END
$$$$
