QAN.pdb
     RDKit          3D

 23 22  0  0  1  0  0  0  0  0999 V2000
   12.9748  -22.2312   18.4796 N   0  0  0  0  0  0  0  0  0  0  0  0
   12.5949  -21.5224   17.3193 C   0  0  0  0  0  0  0  0  0  0  0  0
   12.5797  -22.1219   16.2025 O   0  0  0  0  0  0  0  0  0  0  0  0
   12.2166  -20.1132   17.3348 C   0  0  0  0  0  0  0  0  0  0  0  0
   12.3211  -19.3860   18.6260 C   0  0  0  0  0  0  0  0  0  0  0  0
   11.1622  -18.5334   19.0066 C   0  0  2  0  0  0  0  0  0  0  0  0
   10.6202  -17.7512   17.9273 N   0  0  0  0  0  0  0  0  0  0  0  0
   11.5558  -17.6986   20.1935 C   0  0  0  0  0  0  0  0  0  0  0  0
   12.7670  -17.4552   20.4333 O   0  0  0  0  0  0  0  0  0  0  0  0
    9.7260  -15.6879   22.7625 C   0  0  0  0  0  0  0  0  0  0  0  0
   10.9400  -16.3863   22.2753 C   0  0  2  0  0  0  0  0  0  0  0  0
   10.5982  -17.1541   21.0899 N   0  0  0  0  0  0  0  0  0  0  0  0
   11.5433  -17.3088   23.2625 C   0  0  0  0  0  0  0  0  0  0  0  0
   11.1016  -18.4815   23.3215 O   0  0  0  0  0  0  0  0  0  0  0  0
   15.8228  -16.3957   23.4311 N   0  0  0  0  0  0  0  0  0  0  0  0
   15.3257  -17.5627   24.0225 C   0  0  0  0  0  0  0  0  0  0  0  0
   15.4774  -18.7002   23.4672 O   0  0  0  0  0  0  0  0  0  0  0  0
   14.5900  -17.5643   25.3429 C   0  0  0  0  0  0  0  0  0  0  0  0
   13.1388  -17.9415   25.0704 C   0  0  2  0  0  0  0  0  0  0  0  0
   12.5917  -16.9590   24.1511 N   0  0  0  0  0  0  0  0  0  0  0  0
   12.3846  -17.9327   26.3407 C   0  0  0  0  0  0  0  0  0  0  0  0
   12.7301  -18.7181   27.2754 O   0  0  0  0  0  0  0  0  0  0  0  0
   11.3073  -17.0919   26.5431 O   0  0  0  0  0  0  0  0  0  0  0  0
  2  4  1  0
  2  1  1  0
  3  2  2  0
  5  4  1  0
  6  7  1  6
  6  5  1  0
  8  6  1  0
  9  8  2  0
 11 10  1  1
 11 13  1  0
 11 12  1  0
 12  8  1  0
 13 20  1  0
 14 13  2  0
 16 17  2  0
 16 15  1  0
 18 16  1  0
 19 18  1  1
 19 21  1  0
 20 19  1  0
 21 22  2  0
 21 23  1  0
M  END
$$$$
