MFT.pdb
     RDKit          3D

 27 27  0  0  1  0  0  0  0  0999 V2000
   17.9699  -14.0043  -20.3926 C   0  0  0  0  0  0  0  0  0  0  0  0
   18.3971  -12.3203  -20.8645 S   0  0  0  0  0  0  0  0  0  0  0  0
   19.8322  -11.7416  -19.9188 C   0  0  0  0  0  0  0  0  0  0  0  0
   19.3691  -10.8512  -18.7852 C   0  0  0  0  0  0  0  0  0  0  0  0
   20.4612  -10.7773  -17.7492 C   0  0  2  0  0  0  0  0  0  0  0  0
   20.7164  -12.1044  -17.2596 N   0  0  0  0  0  0  0  0  0  0  0  0
   20.1539   -9.8162  -16.6728 C   0  0  0  0  0  0  0  0  0  0  0  0
   19.4841  -10.1712  -15.6706 O   0  0  0  0  0  0  0  0  0  0  0  0
   20.6452   -8.4812  -16.8186 N   0  0  0  0  0  0  0  0  0  0  0  0
   20.3888   -7.4722  -15.8565 C   0  0  1  0  0  0  0  0  0  0  0  0
   21.5660   -7.0745  -14.9848 C   0  0  0  0  0  0  0  0  0  0  0  0
   21.9756   -8.1148  -14.0310 C   0  0  0  0  0  0  0  0  0  0  0  0
   21.3713   -8.2546  -12.8139 C   0  0  0  0  0  0  0  0  0  0  0  0
   21.7799   -9.2355  -11.9257 C   0  0  0  0  0  0  0  0  0  0  0  0
   22.7923  -10.0875  -12.2374 C   0  0  0  0  0  0  0  0  0  0  0  0
   23.4336   -9.9833  -13.4599 C   0  0  0  0  0  0  0  0  0  0  0  0
   23.0163   -9.0098  -14.3215 C   0  0  0  0  0  0  0  0  0  0  0  0
   19.6358   -6.3341  -16.3905 C   0  0  0  0  0  0  0  0  0  0  0  0
   20.0362   -5.7739  -17.4432 O   0  0  0  0  0  0  0  0  0  0  0  0
   15.5016   -3.7490  -16.8911 C   0  0  0  0  0  0  0  0  0  0  0  0
   16.2465   -4.9384  -16.3639 C   0  0  1  0  0  0  0  0  0  0  0  0
   15.8793   -6.0797  -17.0368 O   0  0  0  0  0  0  0  0  0  0  0  0
   17.7429   -4.6916  -16.3946 C   0  0  2  0  0  0  0  0  0  0  0  0
   18.4537   -5.8097  -15.7812 N   0  0  0  0  0  0  0  0  0  0  0  0
   18.0760   -3.4249  -15.7062 C   0  0  0  0  0  0  0  0  0  0  0  0
   18.3013   -2.2786  -16.4318 O   0  0  0  0  0  0  0  0  0  0  0  0
   18.1499   -3.4097  -14.4618 O   0  0  0  0  0  0  0  0  0  0  0  0
  2  1  1  0
  3  2  1  0
  4  3  1  0
  4  5  1  0
  5  6  1  1
  7  5  1  0
  7  8  2  0
  9  7  1  0
 10  9  1  0
 11 12  1  0
 10 11  1  6
 12 17  2  0
 13 12  1  0
 13 14  2  0
 14 15  1  0
 15 16  2  0
 17 16  1  0
 18 10  1  0
 19 18  2  0
 21 20  1  6
 22 21  1  0
 23 21  1  0
 23 24  1  1
 24 18  1  0
 25 23  1  0
 26 25  1  0
 27 25  2  0
M  END
$$$$
