MFT.pdb
     RDKit          3D

 27 27  0  0  1  0  0  0  0  0999 V2000
   15.3497   -9.0184  -19.0166 C   0  0  0  0  0  0  0  0  0  0  0  0
   14.7228  -10.4542  -18.1297 S   0  0  0  0  0  0  0  0  0  0  0  0
   16.0638  -11.2785  -17.2293 C   0  0  0  0  0  0  0  0  0  0  0  0
   16.2247  -10.6446  -15.8637 C   0  0  0  0  0  0  0  0  0  0  0  0
   17.6926  -10.5812  -15.5282 C   0  0  2  0  0  0  0  0  0  0  0  0
   18.2141  -11.9204  -15.5063 N   0  0  0  0  0  0  0  0  0  0  0  0
   17.9545   -9.8412  -14.2791 C   0  0  0  0  0  0  0  0  0  0  0  0
   17.7967  -10.3955  -13.1624 O   0  0  0  0  0  0  0  0  0  0  0  0
   18.3899   -8.4839  -14.3936 N   0  0  0  0  0  0  0  0  0  0  0  0
   18.8241   -7.7323  -13.2730 C   0  0  1  0  0  0  0  0  0  0  0  0
   20.2102   -7.1235  -13.3813 C   0  0  0  0  0  0  0  0  0  0  0  0
   21.2794   -8.1136  -13.5717 C   0  0  0  0  0  0  0  0  0  0  0  0
   21.8479   -8.3338  -14.7942 C   0  0  0  0  0  0  0  0  0  0  0  0
   22.8474   -9.2792  -14.9535 C   0  0  0  0  0  0  0  0  0  0  0  0
   23.2923  -10.0150  -13.9005 C   0  0  0  0  0  0  0  0  0  0  0  0
   22.7455   -9.8256  -12.6428 C   0  0  0  0  0  0  0  0  0  0  0  0
   21.7613   -8.8891  -12.5064 C   0  0  0  0  0  0  0  0  0  0  0  0
   17.8090   -6.8073  -12.7616 C   0  0  0  0  0  0  0  0  0  0  0  0
   17.0077   -6.2696  -13.5684 O   0  0  0  0  0  0  0  0  0  0  0  0
   15.6311   -4.3770   -8.9998 C   0  0  0  0  0  0  0  0  0  0  0  0
   16.5697   -5.4575   -9.4460 C   0  0  1  0  0  0  0  0  0  0  0  0
   16.2034   -6.6707   -8.9130 O   0  0  0  0  0  0  0  0  0  0  0  0
   16.6752   -5.4859  -10.9590 C   0  0  2  0  0  0  0  0  0  0  0  0
   17.6679   -6.4704  -11.3794 N   0  0  0  0  0  0  0  0  0  0  0  0
   17.0202   -4.1455  -11.4822 C   0  0  0  0  0  0  0  0  0  0  0  0
   18.2588   -3.9126  -12.0325 O   0  0  0  0  0  0  0  0  0  0  0  0
   16.1753   -3.2311  -11.4182 O   0  0  0  0  0  0  0  0  0  0  0  0
  2  1  1  0
  3  2  1  0
  4  3  1  0
  4  5  1  0
  5  6  1  1
  7  5  1  0
  7  8  2  0
  9  7  1  0
 10  9  1  0
 11 12  1  0
 10 11  1  6
 12 17  2  0
 13 12  1  0
 13 14  2  0
 14 15  1  0
 15 16  2  0
 17 16  1  0
 18 10  1  0
 19 18  2  0
 21 20  1  6
 22 21  1  0
 23 21  1  0
 23 24  1  1
 24 18  1  0
 25 23  1  0
 26 25  1  0
 27 25  2  0
M  END
$$$$
