MFT.pdb
     RDKit          3D

 27 27  0  0  1  0  0  0  0  0999 V2000
   19.2852   -8.2957  -23.2471 C   0  0  0  0  0  0  0  0  0  0  0  0
   19.9290   -9.1206  -24.7122 S   0  0  0  0  0  0  0  0  0  0  0  0
   21.5408   -9.8729  -24.3594 C   0  0  0  0  0  0  0  0  0  0  0  0
   21.6771  -10.1091  -22.8701 C   0  0  0  0  0  0  0  0  0  0  0  0
   23.0275  -10.7202  -22.5974 C   0  0  2  0  0  0  0  0  0  0  0  0
   23.0999  -11.9872  -23.2724 N   0  0  0  0  0  0  0  0  0  0  0  0
   23.3214  -10.8191  -21.1550 C   0  0  0  0  0  0  0  0  0  0  0  0
   23.0637  -11.8729  -20.5207 O   0  0  0  0  0  0  0  0  0  0  0  0
   23.9043   -9.6784  -20.5195 N   0  0  0  0  0  0  0  0  0  0  0  0
   24.1972   -9.6532  -19.1328 C   0  0  1  0  0  0  0  0  0  0  0  0
   25.6663   -9.5400  -18.7687 C   0  0  0  0  0  0  0  0  0  0  0  0
   25.9420   -9.7585  -17.3418 C   0  0  0  0  0  0  0  0  0  0  0  0
   25.5944   -8.8403  -16.3920 C   0  0  0  0  0  0  0  0  0  0  0  0
   25.8729   -9.0617  -15.0535 C   0  0  0  0  0  0  0  0  0  0  0  0
   26.4989  -10.1971  -14.6449 C   0  0  0  0  0  0  0  0  0  0  0  0
   26.8693  -11.1559  -15.5724 C   0  0  0  0  0  0  0  0  0  0  0  0
   26.5861  -10.9190  -16.8869 C   0  0  0  0  0  0  0  0  0  0  0  0
   23.3264   -8.7560  -18.3684 C   0  0  0  0  0  0  0  0  0  0  0  0
   23.2828   -7.5367  -18.6741 O   0  0  0  0  0  0  0  0  0  0  0  0
   20.5009  -10.1838  -15.5803 C   0  0  0  0  0  0  0  0  0  0  0  0
   20.3204   -8.8507  -16.2419 C   0  0  1  0  0  0  0  0  0  0  0  0
   19.5234   -8.0320  -15.4771 O   0  0  0  0  0  0  0  0  0  0  0  0
   21.6640   -8.2272  -16.5689 C   0  0  2  0  0  0  0  0  0  0  0  0
   22.5082   -9.1849  -17.2774 N   0  0  0  0  0  0  0  0  0  0  0  0
   22.3343   -7.7580  -15.3360 C   0  0  0  0  0  0  0  0  0  0  0  0
   23.4809   -8.3737  -14.8916 O   0  0  0  0  0  0  0  0  0  0  0  0
   21.8475   -6.7988  -14.7059 O   0  0  0  0  0  0  0  0  0  0  0  0
  2  1  1  0
  3  2  1  0
  4  3  1  0
  4  5  1  0
  5  6  1  1
  7  5  1  0
  7  8  2  0
  9  7  1  0
 10  9  1  0
 11 12  1  0
 10 11  1  6
 12 17  2  0
 13 12  1  0
 13 14  2  0
 14 15  1  0
 15 16  2  0
 17 16  1  0
 18 10  1  0
 19 18  2  0
 21 20  1  1
 22 21  1  0
 23 21  1  0
 23 24  1  1
 24 18  1  0
 25 23  1  0
 26 25  1  0
 27 25  2  0
M  END
$$$$
