MFT.pdb
     RDKit          3D

 27 27  0  0  1  0  0  0  0  0999 V2000
   17.4290  -13.9068  -21.0497 C   0  0  0  0  0  0  0  0  0  0  0  0
   17.2700  -12.3938  -20.0870 S   0  0  0  0  0  0  0  0  0  0  0  0
   18.5474  -12.3228  -18.8019 C   0  0  0  0  0  0  0  0  0  0  0  0
   18.3353  -11.0956  -17.9408 C   0  0  0  0  0  0  0  0  0  0  0  0
   19.4869  -10.9750  -16.9761 C   0  0  2  0  0  0  0  0  0  0  0  0
   19.5826  -12.1965  -16.2245 N   0  0  0  0  0  0  0  0  0  0  0  0
   19.3821   -9.7788  -16.1190 C   0  0  0  0  0  0  0  0  0  0  0  0
   18.6403   -9.7819  -15.1046 O   0  0  0  0  0  0  0  0  0  0  0  0
   20.1515   -8.6313  -16.4885 N   0  0  0  0  0  0  0  0  0  0  0  0
   20.2650   -7.4951  -15.6487 C   0  0  1  0  0  0  0  0  0  0  0  0
   21.6154   -7.2947  -14.9853 C   0  0  0  0  0  0  0  0  0  0  0  0
   21.9580   -8.3399  -14.0107 C   0  0  0  0  0  0  0  0  0  0  0  0
   21.5123   -8.2955  -12.7201 C   0  0  0  0  0  0  0  0  0  0  0  0
   21.8557   -9.2859  -11.8149 C   0  0  0  0  0  0  0  0  0  0  0  0
   22.6447  -10.3302  -12.1824 C   0  0  0  0  0  0  0  0  0  0  0  0
   23.1192  -10.4167  -13.4800 C   0  0  0  0  0  0  0  0  0  0  0  0
   22.7697   -9.4305  -14.3572 C   0  0  0  0  0  0  0  0  0  0  0  0
   19.7079   -6.2749  -16.2389 C   0  0  0  0  0  0  0  0  0  0  0  0
   20.1068   -5.9052  -17.3731 O   0  0  0  0  0  0  0  0  0  0  0  0
   16.3161   -5.4104  -17.4658 C   0  0  0  0  0  0  0  0  0  0  0  0
   16.6752   -4.4061  -16.4122 C   0  0  1  0  0  0  0  0  0  0  0  0
   16.0516   -4.7039  -15.2237 O   0  0  0  0  0  0  0  0  0  0  0  0
   18.1812   -4.2877  -16.2745 C   0  0  2  0  0  0  0  0  0  0  0  0
   18.7221   -5.4625  -15.5970 N   0  0  0  0  0  0  0  0  0  0  0  0
   18.5417   -3.0543  -15.5409 C   0  0  0  0  0  0  0  0  0  0  0  0
   18.2770   -1.8197  -16.0859 O   0  0  0  0  0  0  0  0  0  0  0  0
   19.0877   -3.1479  -14.4241 O   0  0  0  0  0  0  0  0  0  0  0  0
  2  1  1  0
  3  2  1  0
  4  3  1  0
  4  5  1  0
  5  6  1  1
  7  5  1  0
  7  8  2  0
  9  7  1  0
 10  9  1  0
 11 12  1  0
 10 11  1  6
 12 17  2  0
 13 12  1  0
 13 14  2  0
 14 15  1  0
 15 16  2  0
 17 16  1  0
 18 10  1  0
 19 18  2  0
 21 20  1  6
 22 21  1  0
 23 21  1  0
 23 24  1  1
 24 18  1  0
 25 23  1  0
 26 25  1  0
 27 25  2  0
M  END
$$$$
