MFT.pdb
     RDKit          3D

 27 27  0  0  1  0  0  0  0  0999 V2000
   25.1126  -18.9554  -19.1524 C   0  0  0  0  0  0  0  0  0  0  0  0
   26.8587  -19.3142  -19.4050 S   0  0  0  0  0  0  0  0  0  0  0  0
   27.4885  -20.3694  -18.0714 C   0  0  0  0  0  0  0  0  0  0  0  0
   26.4069  -21.3330  -17.6311 C   0  0  0  0  0  0  0  0  0  0  0  0
   26.9457  -22.1897  -16.5143 C   0  0  2  0  0  0  0  0  0  0  0  0
   27.2425  -23.4935  -17.0417 N   0  0  0  0  0  0  0  0  0  0  0  0
   26.0415  -22.2325  -15.3493 C   0  0  0  0  0  0  0  0  0  0  0  0
   25.1897  -23.1492  -15.2343 O   0  0  0  0  0  0  0  0  0  0  0  0
   26.1755  -21.1989  -14.3702 N   0  0  0  0  0  0  0  0  0  0  0  0
   25.3420  -21.1292  -13.2259 C   0  0  1  0  0  0  0  0  0  0  0  0
   25.9387  -20.4377  -12.0136 C   0  0  0  0  0  0  0  0  0  0  0  0
   25.1056  -20.5333  -10.8067 C   0  0  0  0  0  0  0  0  0  0  0  0
   23.8595  -19.9769  -10.7455 C   0  0  0  0  0  0  0  0  0  0  0  0
   23.0951  -20.0700   -9.5943 C   0  0  0  0  0  0  0  0  0  0  0  0
   23.5603  -20.7168   -8.4928 C   0  0  0  0  0  0  0  0  0  0  0  0
   24.8175  -21.2963   -8.5093 C   0  0  0  0  0  0  0  0  0  0  0  0
   25.5556  -21.1935   -9.6534 C   0  0  0  0  0  0  0  0  0  0  0  0
   23.9690  -20.7154  -13.5280 C   0  0  0  0  0  0  0  0  0  0  0  0
   23.7550  -19.5384  -13.9166 O   0  0  0  0  0  0  0  0  0  0  0  0
   21.7347  -21.1214  -16.1033 C   0  0  0  0  0  0  0  0  0  0  0  0
   20.9297  -21.6068  -14.9355 C   0  0  1  0  0  0  0  0  0  0  0  0
   20.8366  -22.9784  -14.9452 O   0  0  0  0  0  0  0  0  0  0  0  0
   21.4893  -21.0631  -13.6346 C   0  0  2  0  0  0  0  0  0  0  0  0
   22.8361  -21.5790  -13.4073 N   0  0  0  0  0  0  0  0  0  0  0  0
   20.6033  -21.4094  -12.5013 C   0  0  0  0  0  0  0  0  0  0  0  0
   19.3247  -20.9066  -12.4406 O   0  0  0  0  0  0  0  0  0  0  0  0
   21.0295  -22.1618  -11.6033 O   0  0  0  0  0  0  0  0  0  0  0  0
  2  1  1  0
  3  2  1  0
  4  3  1  0
  4  5  1  0
  5  6  1  6
  7  5  1  0
  7  8  2  0
  9  7  1  0
 10  9  1  0
 11 12  1  0
 10 11  1  1
 12 17  2  0
 13 12  1  0
 13 14  2  0
 14 15  1  0
 15 16  2  0
 17 16  1  0
 18 10  1  0
 19 18  2  0
 21 20  1  6
 22 21  1  0
 23 21  1  0
 23 24  1  1
 24 18  1  0
 25 23  1  0
 26 25  1  0
 27 25  2  0
M  END
$$$$
