MFT.pdb
     RDKit          3D

 27 27  0  0  1  0  0  0  0  0999 V2000
   30.1892  -39.2611   -4.7920 C   0  0  0  0  0  0  0  0  0  0  0  0
   28.4319  -39.4952   -4.4787 S   0  0  0  0  0  0  0  0  0  0  0  0
   27.5519  -37.9134   -4.5896 C   0  0  0  0  0  0  0  0  0  0  0  0
   28.2145  -36.8978   -3.6830 C   0  0  0  0  0  0  0  0  0  0  0  0
   27.4132  -35.6219   -3.7165 C   0  0  2  0  0  0  0  0  0  0  0  0
   27.8525  -34.8363   -4.8372 N   0  0  0  0  0  0  0  0  0  0  0  0
   27.4713  -34.8853   -2.4395 C   0  0  0  0  0  0  0  0  0  0  0  0
   28.5565  -34.4038   -2.0278 O   0  0  0  0  0  0  0  0  0  0  0  0
   26.2547  -34.7455   -1.7011 N   0  0  0  0  0  0  0  0  0  0  0  0
   26.1799  -33.9911   -0.5034 C   0  0  1  0  0  0  0  0  0  0  0  0
   24.9813  -33.0688   -0.3758 C   0  0  0  0  0  0  0  0  0  0  0  0
   24.9779  -31.9636   -1.3445 C   0  0  0  0  0  0  0  0  0  0  0  0
   25.3095  -30.6885   -0.9837 C   0  0  0  0  0  0  0  0  0  0  0  0
   25.2898  -29.6595   -1.9105 C   0  0  0  0  0  0  0  0  0  0  0  0
   24.9410  -29.8867   -3.2047 C   0  0  0  0  0  0  0  0  0  0  0  0
   24.5977  -31.1633   -3.6156 C   0  0  0  0  0  0  0  0  0  0  0  0
   24.6230  -32.1640   -2.6870 C   0  0  0  0  0  0  0  0  0  0  0  0
   26.4513  -34.7801    0.7014 C   0  0  0  0  0  0  0  0  0  0  0  0
   26.0378  -35.9663    0.7633 O   0  0  0  0  0  0  0  0  0  0  0  0
   28.8637  -35.4791    4.9730 C   0  0  0  0  0  0  0  0  0  0  0  0
   28.6883  -34.7144    3.6955 C   0  0  1  0  0  0  0  0  0  0  0  0
   29.8052  -34.8299    2.9021 O   0  0  0  0  0  0  0  0  0  0  0  0
   27.4155  -35.1376    2.9870 C   0  0  2  0  0  0  0  0  0  0  0  0
   27.1691  -34.2793    1.8319 N   0  0  0  0  0  0  0  0  0  0  0  0
   26.2648  -35.0993    3.9163 C   0  0  0  0  0  0  0  0  0  0  0  0
   25.3826  -34.0448    3.8862 O   0  0  0  0  0  0  0  0  0  0  0  0
   26.1049  -36.0337    4.7260 O   0  0  0  0  0  0  0  0  0  0  0  0
  2  1  1  0
  3  2  1  0
  4  3  1  0
  4  5  1  0
  5  6  1  6
  7  5  1  0
  7  8  2  0
  9  7  1  0
 10  9  1  0
 11 12  1  0
 10 11  1  1
 12 17  2  0
 13 12  1  0
 13 14  2  0
 14 15  1  0
 15 16  2  0
 17 16  1  0
 18 10  1  0
 19 18  2  0
 21 20  1  1
 22 21  1  0
 23 21  1  0
 23 24  1  6
 24 18  1  0
 25 23  1  0
 26 25  1  0
 27 25  2  0
M  END
$$$$
