MFT.pdb
     RDKit          3D

 27 27  0  0  1  0  0  0  0  0999 V2000
   26.6047  -16.8671  -14.2747 C   0  0  0  0  0  0  0  0  0  0  0  0
   27.5071  -17.7531  -15.5561 S   0  0  0  0  0  0  0  0  0  0  0  0
   28.1621  -19.3142  -14.9061 C   0  0  0  0  0  0  0  0  0  0  0  0
   27.4736  -19.6505  -13.6003 C   0  0  0  0  0  0  0  0  0  0  0  0
   28.0716  -20.9195  -13.0493 C   0  0  2  0  0  0  0  0  0  0  0  0
   27.7994  -21.9895  -13.9698 N   0  0  0  0  0  0  0  0  0  0  0  0
   27.6133  -21.2101  -11.6774 C   0  0  0  0  0  0  0  0  0  0  0  0
   26.5989  -21.9252  -11.4801 O   0  0  0  0  0  0  0  0  0  0  0  0
   28.3641  -20.6498  -10.5970 N   0  0  0  0  0  0  0  0  0  0  0  0
   27.8851  -20.6516   -9.2629 C   0  0  1  0  0  0  0  0  0  0  0  0
   28.8448  -20.1189   -8.2145 C   0  0  0  0  0  0  0  0  0  0  0  0
   28.3001  -20.1345   -6.8497 C   0  0  0  0  0  0  0  0  0  0  0  0
   27.7435  -19.0230   -6.2833 C   0  0  0  0  0  0  0  0  0  0  0  0
   27.2453  -19.0569   -4.9915 C   0  0  0  0  0  0  0  0  0  0  0  0
   27.2945  -20.1949   -4.2496 C   0  0  0  0  0  0  0  0  0  0  0  0
   27.8493  -21.3458   -4.7826 C   0  0  0  0  0  0  0  0  0  0  0  0
   28.3351  -21.2920   -6.0575 C   0  0  0  0  0  0  0  0  0  0  0  0
   26.5194  -20.1366   -9.1322 C   0  0  0  0  0  0  0  0  0  0  0  0
   26.2744  -18.9533   -9.4814 O   0  0  0  0  0  0  0  0  0  0  0  0
   24.4124  -19.1433  -10.7876 C   0  0  0  0  0  0  0  0  0  0  0  0
   23.6067  -20.1994  -10.0925 C   0  0  1  0  0  0  0  0  0  0  0  0
   23.6280  -21.3751  -10.8047 O   0  0  0  0  0  0  0  0  0  0  0  0
   24.0695  -20.3705   -8.6581 C   0  0  2  0  0  0  0  0  0  0  0  0
   25.4272  -20.9065   -8.6241 N   0  0  0  0  0  0  0  0  0  0  0  0
   23.1445  -21.2538   -7.9142 C   0  0  0  0  0  0  0  0  0  0  0  0
   21.8296  -20.8917   -7.7380 O   0  0  0  0  0  0  0  0  0  0  0  0
   23.5713  -22.3291   -7.4496 O   0  0  0  0  0  0  0  0  0  0  0  0
  2  1  1  0
  3  2  1  0
  4  3  1  0
  4  5  1  0
  5  6  1  6
  7  5  1  0
  7  8  2  0
  9  7  1  0
 10  9  1  0
 11 12  1  0
 10 11  1  1
 12 17  2  0
 13 12  1  0
 13 14  2  0
 14 15  1  0
 15 16  2  0
 17 16  1  0
 18 10  1  0
 19 18  2  0
 21 20  1  6
 22 21  1  0
 23 21  1  0
 23 24  1  6
 24 18  1  0
 25 23  1  0
 26 25  1  0
 27 25  2  0
M  END
$$$$
