MFT.pdb
     RDKit          3D

 27 27  0  0  1  0  0  0  0  0999 V2000
   31.6064  -23.4815  -20.8756 C   0  0  0  0  0  0  0  0  0  0  0  0
   30.1926  -23.9873  -19.8824 S   0  0  0  0  0  0  0  0  0  0  0  0
   30.7437  -24.6576  -18.2900 C   0  0  0  0  0  0  0  0  0  0  0  0
   29.5859  -24.6687  -17.3145 C   0  0  0  0  0  0  0  0  0  0  0  0
   29.0136  -23.2774  -17.2248 C   0  0  2  0  0  0  0  0  0  0  0  0
   30.0514  -22.3844  -16.7869 N   0  0  0  0  0  0  0  0  0  0  0  0
   27.8073  -23.2168  -16.3777 C   0  0  0  0  0  0  0  0  0  0  0  0
   27.6969  -23.9571  -15.3683 O   0  0  0  0  0  0  0  0  0  0  0  0
   26.7832  -22.2912  -16.7510 N   0  0  0  0  0  0  0  0  0  0  0  0
   25.5976  -22.1288  -15.9913 C   0  0  1  0  0  0  0  0  0  0  0  0
   25.1185  -20.7001  -15.8094 C   0  0  0  0  0  0  0  0  0  0  0  0
   23.8531  -20.5886  -15.0706 C   0  0  0  0  0  0  0  0  0  0  0  0
   22.6524  -20.4725  -15.7116 C   0  0  0  0  0  0  0  0  0  0  0  0
   21.4724  -20.3582  -14.9957 C   0  0  0  0  0  0  0  0  0  0  0  0
   21.4729  -20.3585  -13.6362 C   0  0  0  0  0  0  0  0  0  0  0  0
   22.6663  -20.4743  -12.9441 C   0  0  0  0  0  0  0  0  0  0  0  0
   23.8187  -20.5857  -13.6680 C   0  0  0  0  0  0  0  0  0  0  0  0
   24.5346  -23.0677  -16.3601 C   0  0  0  0  0  0  0  0  0  0  0  0
   24.2476  -23.2223  -17.5749 O   0  0  0  0  0  0  0  0  0  0  0  0
   22.0162  -27.1418  -15.6371 C   0  0  0  0  0  0  0  0  0  0  0  0
   23.1543  -26.1932  -15.4083 C   0  0  1  0  0  0  0  0  0  0  0  0
   24.3044  -26.6620  -15.9980 O   0  0  0  0  0  0  0  0  0  0  0  0
   22.7866  -24.7937  -15.8636 C   0  0  2  0  0  0  0  0  0  0  0  0
   23.7889  -23.8336  -15.4107 N   0  0  0  0  0  0  0  0  0  0  0  0
   21.4457  -24.4186  -15.3628 C   0  0  0  0  0  0  0  0  0  0  0  0
   20.3692  -24.3856  -16.2180 O   0  0  0  0  0  0  0  0  0  0  0  0
   21.3040  -24.1332  -14.1576 O   0  0  0  0  0  0  0  0  0  0  0  0
  2  1  1  0
  3  2  1  0
  4  3  1  0
  4  5  1  0
  5  6  1  1
  7  5  1  0
  7  8  2  0
  9  7  1  0
 10  9  1  0
 11 12  1  0
 10 11  1  6
 12 17  2  0
 13 12  1  0
 13 14  2  0
 14 15  1  0
 15 16  2  0
 17 16  1  0
 18 10  1  0
 19 18  2  0
 21 20  1  6
 22 21  1  0
 23 21  1  0
 23 24  1  1
 24 18  1  0
 25 23  1  0
 26 25  1  0
 27 25  2  0
M  END
$$$$
