MFT.pdb
     RDKit          3D

 27 27  0  0  1  0  0  0  0  0999 V2000
   28.1050  -17.2904  -16.6522 C   0  0  0  0  0  0  0  0  0  0  0  0
   28.7878  -18.1015  -18.1072 S   0  0  0  0  0  0  0  0  0  0  0  0
   27.8554  -19.6094  -18.4886 C   0  0  0  0  0  0  0  0  0  0  0  0
   26.9188  -19.9319  -17.3435 C   0  0  0  0  0  0  0  0  0  0  0  0
   27.4670  -21.1142  -16.5866 C   0  0  2  0  0  0  0  0  0  0  0  0
   27.5409  -22.2355  -17.4829 N   0  0  0  0  0  0  0  0  0  0  0  0
   26.6979  -21.4062  -15.3620 C   0  0  0  0  0  0  0  0  0  0  0  0
   25.6460  -22.0916  -15.4157 O   0  0  0  0  0  0  0  0  0  0  0  0
   27.1955  -20.8819  -14.1281 N   0  0  0  0  0  0  0  0  0  0  0  0
   26.4424  -20.9297  -12.9282 C   0  0  1  0  0  0  0  0  0  0  0  0
   27.2031  -20.6030  -11.6560 C   0  0  0  0  0  0  0  0  0  0  0  0
   26.3592  -20.5669  -10.4534 C   0  0  0  0  0  0  0  0  0  0  0  0
   25.8377  -21.7041   -9.9047 C   0  0  0  0  0  0  0  0  0  0  0  0
   25.0363  -21.6464   -8.7767 C   0  0  0  0  0  0  0  0  0  0  0  0
   24.7450  -20.4591   -8.1822 C   0  0  0  0  0  0  0  0  0  0  0  0
   25.2519  -19.2808   -8.7032 C   0  0  0  0  0  0  0  0  0  0  0  0
   26.0397  -19.3587   -9.8157 C   0  0  0  0  0  0  0  0  0  0  0  0
   25.1414  -20.2628  -13.0284 C   0  0  0  0  0  0  0  0  0  0  0  0
   25.1025  -19.0243  -13.2443 O   0  0  0  0  0  0  0  0  0  0  0  0
   22.9721  -19.5461  -15.3509 C   0  0  0  0  0  0  0  0  0  0  0  0
   22.0780  -20.2691  -14.3888 C   0  0  1  0  0  0  0  0  0  0  0  0
   21.8517  -21.5582  -14.8099 O   0  0  0  0  0  0  0  0  0  0  0  0
   22.6364  -20.1985  -12.9802 C   0  0  2  0  0  0  0  0  0  0  0  0
   23.8903  -20.9415  -12.8942 N   0  0  0  0  0  0  0  0  0  0  0  0
   21.6553  -20.7222  -12.0042 C   0  0  0  0  0  0  0  0  0  0  0  0
   21.8668  -21.9338  -11.3890 O   0  0  0  0  0  0  0  0  0  0  0  0
   20.6359  -20.0523  -11.7467 O   0  0  0  0  0  0  0  0  0  0  0  0
  2  1  1  0
  3  2  1  0
  4  3  1  0
  4  5  1  0
  5  6  1  6
  7  5  1  0
  7  8  2  0
  9  7  1  0
 10  9  1  0
 11 12  1  0
 10 11  1  1
 12 17  2  0
 13 12  1  0
 13 14  2  0
 14 15  1  0
 15 16  2  0
 17 16  1  0
 18 10  1  0
 19 18  2  0
 21 20  1  6
 22 21  1  0
 23 21  1  0
 23 24  1  6
 24 18  1  0
 25 23  1  0
 26 25  1  0
 27 25  2  0
M  END
$$$$
