MFT.pdb
     RDKit          3D

 27 27  0  0  1  0  0  0  0  0999 V2000
   28.1393  -10.5069  -16.7350 C   0  0  0  0  0  0  0  0  0  0  0  0
   28.0774  -11.9884  -15.7138 S   0  0  0  0  0  0  0  0  0  0  0  0
   26.3577  -12.4730  -15.4035 C   0  0  0  0  0  0  0  0  0  0  0  0
   25.4247  -11.4018  -15.9272 C   0  0  0  0  0  0  0  0  0  0  0  0
   24.0020  -11.8542  -15.7205 C   0  0  2  0  0  0  0  0  0  0  0  0
   23.8111  -13.0946  -16.4212 N   0  0  0  0  0  0  0  0  0  0  0  0
   23.0203  -10.8210  -16.1017 C   0  0  0  0  0  0  0  0  0  0  0  0
   22.8511  -10.5139  -17.3085 O   0  0  0  0  0  0  0  0  0  0  0  0
   22.2798  -10.1932  -15.0517 N   0  0  0  0  0  0  0  0  0  0  0  0
   21.3138   -9.1873  -15.3051 C   0  0  1  0  0  0  0  0  0  0  0  0
   19.8721   -9.5677  -15.0210 C   0  0  0  0  0  0  0  0  0  0  0  0
   19.3735  -10.6683  -15.8575 C   0  0  0  0  0  0  0  0  0  0  0  0
   19.1869  -11.9258  -15.3574 C   0  0  0  0  0  0  0  0  0  0  0  0
   18.7258  -12.9513  -16.1660 C   0  0  0  0  0  0  0  0  0  0  0  0
   18.4450  -12.7382  -17.4789 C   0  0  0  0  0  0  0  0  0  0  0  0
   18.6188  -11.4797  -18.0290 C   0  0  0  0  0  0  0  0  0  0  0  0
   19.0744  -10.4822  -17.2155 C   0  0  0  0  0  0  0  0  0  0  0  0
   21.6924   -7.8703  -14.7859 C   0  0  0  0  0  0  0  0  0  0  0  0
   22.0474   -7.7641  -13.5839 O   0  0  0  0  0  0  0  0  0  0  0  0
   23.4603   -5.0902  -17.0642 C   0  0  0  0  0  0  0  0  0  0  0  0
   23.4778   -5.0168  -15.5669 C   0  0  1  0  0  0  0  0  0  0  0  0
   23.8950   -3.7764  -15.1456 O   0  0  0  0  0  0  0  0  0  0  0  0
   22.1296   -5.4113  -14.9943 C   0  0  2  0  0  0  0  0  0  0  0  0
   21.6842   -6.6761  -15.5718 N   0  0  0  0  0  0  0  0  0  0  0  0
   21.1291   -4.3489  -15.2383 C   0  0  0  0  0  0  0  0  0  0  0  0
   21.2825   -3.1065  -14.6691 O   0  0  0  0  0  0  0  0  0  0  0  0
   20.1464   -4.5937  -15.9654 O   0  0  0  0  0  0  0  0  0  0  0  0
  2  1  1  0
  3  2  1  0
  4  3  1  0
  4  5  1  0
  5  6  1  6
  7  5  1  0
  7  8  2  0
  9  7  1  0
 10  9  1  0
 11 12  1  0
 10 11  1  1
 12 17  2  0
 13 12  1  0
 13 14  2  0
 14 15  1  0
 15 16  2  0
 17 16  1  0
 18 10  1  0
 19 18  2  0
 21 20  1  6
 22 21  1  0
 23 21  1  0
 23 24  1  6
 24 18  1  0
 25 23  1  0
 26 25  1  0
 27 25  2  0
M  END
$$$$
