MFT.pdb
     RDKit          3D

 27 27  0  0  1  0  0  0  0  0999 V2000
   24.1231   -6.5012  -22.6330 C   0  0  0  0  0  0  0  0  0  0  0  0
   24.9989   -7.8841  -23.3826 S   0  0  0  0  0  0  0  0  0  0  0  0
   25.8241   -8.8770  -22.1092 C   0  0  0  0  0  0  0  0  0  0  0  0
   24.8809   -9.0981  -20.9456 C   0  0  0  0  0  0  0  0  0  0  0  0
   25.6290   -9.7997  -19.8413 C   0  0  2  0  0  0  0  0  0  0  0  0
   26.0899  -11.0680  -20.3363 N   0  0  0  0  0  0  0  0  0  0  0  0
   24.8306   -9.9197  -18.6065 C   0  0  0  0  0  0  0  0  0  0  0  0
   24.0367  -10.8811  -18.4492 O   0  0  0  0  0  0  0  0  0  0  0  0
   24.9976   -8.9074  -17.6103 N   0  0  0  0  0  0  0  0  0  0  0  0
   24.3256   -8.9561  -16.3632 C   0  0  1  0  0  0  0  0  0  0  0  0
   25.2041   -9.1830  -15.1464 C   0  0  0  0  0  0  0  0  0  0  0  0
   25.9294  -10.4609  -15.1688 C   0  0  0  0  0  0  0  0  0  0  0  0
   25.3436  -11.6288  -14.7701 C   0  0  0  0  0  0  0  0  0  0  0  0
   26.0487  -12.8207  -14.7894 C   0  0  0  0  0  0  0  0  0  0  0  0
   27.3423  -12.8647  -15.2052 C   0  0  0  0  0  0  0  0  0  0  0  0
   27.9767  -11.7057  -15.6186 C   0  0  0  0  0  0  0  0  0  0  0  0
   27.2647  -10.5410  -15.5920 C   0  0  0  0  0  0  0  0  0  0  0  0
   23.3381   -7.8873  -16.1900 C   0  0  0  0  0  0  0  0  0  0  0  0
   23.7345   -6.6992  -16.0751 O   0  0  0  0  0  0  0  0  0  0  0  0
   20.6410   -6.7493  -18.5195 C   0  0  0  0  0  0  0  0  0  0  0  0
   19.9929   -7.0622  -17.2043 C   0  0  1  0  0  0  0  0  0  0  0  0
   19.3447   -8.2734  -17.2574 O   0  0  0  0  0  0  0  0  0  0  0  0
   21.0034   -6.9832  -16.0756 C   0  0  2  0  0  0  0  0  0  0  0  0
   21.9270   -8.1120  -16.1423 N   0  0  0  0  0  0  0  0  0  0  0  0
   20.3183   -6.9506  -14.7646 C   0  0  0  0  0  0  0  0  0  0  0  0
   20.4371   -8.0072  -13.8925 O   0  0  0  0  0  0  0  0  0  0  0  0
   19.6328   -5.9546  -14.4606 O   0  0  0  0  0  0  0  0  0  0  0  0
  2  1  1  0
  3  2  1  0
  4  3  1  0
  4  5  1  0
  5  6  1  6
  7  5  1  0
  7  8  2  0
  9  7  1  0
 10  9  1  0
 11 12  1  0
 10 11  1  1
 12 17  2  0
 13 12  1  0
 13 14  2  0
 14 15  1  0
 15 16  2  0
 17 16  1  0
 18 10  1  0
 19 18  2  0
 21 20  1  6
 22 21  1  0
 23 21  1  0
 23 24  1  1
 24 18  1  0
 25 23  1  0
 26 25  1  0
 27 25  2  0
M  END
$$$$
