FRM.pdb
     RDKit          3D

 31 31  0  0  1  0  0  0  0  0999 V2000
   26.7631  -17.7277  -19.8329 N   0  0  0  0  0  0  0  0  0  0  0  0
   26.1536  -17.0926  -18.6755 C   0  0  1  0  0  0  0  0  0  0  0  0
   25.2875  -15.9190  -19.0970 C   0  0  0  0  0  0  0  0  0  0  0  0
   26.1087  -14.8823  -19.7936 C   0  0  0  0  0  0  0  0  0  0  0  0
   25.7973  -14.4214  -21.0512 C   0  0  0  0  0  0  0  0  0  0  0  0
   26.5300  -13.4659  -21.7078 C   0  0  0  0  0  0  0  0  0  0  0  0
   27.6488  -12.9127  -21.1056 C   0  0  0  0  0  0  0  0  0  0  0  0
   27.9746  -13.3644  -19.8453 C   0  0  0  0  0  0  0  0  0  0  0  0
   27.2222  -14.3329  -19.1933 C   0  0  0  0  0  0  0  0  0  0  0  0
   25.3914  -18.0626  -17.8569 C   0  0  0  0  0  0  0  0  0  0  0  0
   24.7011  -18.9896  -18.3954 O   0  0  0  0  0  0  0  0  0  0  0  0
   26.2303  -20.0651  -10.2455 N   0  0  0  0  0  0  0  0  0  0  0  0
   26.3873  -21.0574  -11.2457 C   0  0  0  0  0  0  0  0  0  0  0  0
   25.7038  -22.1305  -11.1653 N   0  0  0  0  0  0  0  0  0  0  0  0
   27.2975  -20.8563  -12.3230 N   0  0  0  0  0  0  0  0  0  0  0  0
   27.3662  -19.5770  -12.9871 C   0  0  0  0  0  0  0  0  0  0  0  0
   26.6909  -19.6561  -14.3461 C   0  0  0  0  0  0  0  0  0  0  0  0
   25.3400  -19.0572  -14.2767 C   0  0  0  0  0  0  0  0  0  0  0  0
   24.6645  -19.0447  -15.6486 C   0  0  2  0  0  0  0  0  0  0  0  0
   25.3834  -18.0242  -16.4332 N   0  0  0  0  0  0  0  0  0  0  0  0
   23.2439  -18.6976  -15.4892 C   0  0  0  0  0  0  0  0  0  0  0  0
   22.8730  -17.5135  -15.1896 O   0  0  0  0  0  0  0  0  0  0  0  0
   25.7665  -22.9511  -11.7689 C   0  0  0  0  0  0  0  0  0  0  0  0
   15.8124  -20.1234  -17.6822 S   0  0  0  0  0  0  0  0  0  0  0  0
   17.5474  -20.5346  -17.6255 C   0  0  0  0  0  0  0  0  0  0  0  0
   18.5222  -19.7412  -16.3745 C   0  0  0  0  0  0  0  0  0  0  0  0
   19.9955  -19.9149  -16.5034 C   0  0  1  0  0  0  0  0  0  0  0  0
   20.7825  -19.2178  -15.4223 N   0  0  0  0  0  0  0  0  0  0  0  0
   22.1805  -19.6279  -15.6536 C   0  0  0  0  0  0  0  0  0  0  0  0
   20.4306  -19.7747  -14.0941 O   0  0  0  0  0  0  0  0  0  0  0  0
   19.3940  -19.2748  -13.3392 O   0  0  0  0  0  0  0  0  0  0  0  0
  2  1  1  6
  2 10  1  0
  3  2  1  0
  3  4  1  0
  4  9  2  0
  4  5  1  0
  5  6  2  0
  6  7  1  0
  8  7  2  0
  9  8  1  0
 10 11  2  0
 13 15  1  0
 13 12  1  0
 14 13  2  0
 16 15  1  0
 16 17  1  0
 17 18  1  0
 19 18  1  1
 20 10  1  0
 20 19  1  0
 21 19  1  0
 21 22  2  0
 23 24  1  0
 24 25  1  0
 25 26  1  0
 27 26  1  6
 27 28  1  0
 28 21  1  0
 29 30  1  0
 29 27  1  0
 31 29  2  0
M  END
$$$$
