FRM.pdb
     RDKit          3D

 31 31  0  0  1  0  0  0  0  0999 V2000
   27.8478  -18.3247  -19.2581 N   0  0  0  0  0  0  0  0  0  0  0  0
   27.0882  -17.6301  -18.2310 C   0  0  1  0  0  0  0  0  0  0  0  0
   25.9180  -16.8787  -18.8401 C   0  0  0  0  0  0  0  0  0  0  0  0
   26.4033  -15.7596  -19.7041 C   0  0  0  0  0  0  0  0  0  0  0  0
   26.2622  -15.7731  -21.0720 C   0  0  0  0  0  0  0  0  0  0  0  0
   26.6920  -14.7558  -21.8852 C   0  0  0  0  0  0  0  0  0  0  0  0
   27.3050  -13.6402  -21.3375 C   0  0  0  0  0  0  0  0  0  0  0  0
   27.4545  -13.6116  -19.9680 C   0  0  0  0  0  0  0  0  0  0  0  0
   27.0137  -14.6500  -19.1577 C   0  0  0  0  0  0  0  0  0  0  0  0
   26.6431  -18.5521  -17.1616 C   0  0  0  0  0  0  0  0  0  0  0  0
   26.2535  -19.7372  -17.4249 O   0  0  0  0  0  0  0  0  0  0  0  0
   26.5658  -19.5568   -9.3483 N   0  0  0  0  0  0  0  0  0  0  0  0
   25.7372  -20.6510   -9.7032 C   0  0  0  0  0  0  0  0  0  0  0  0
   24.8961  -21.0915   -8.8525 N   0  0  0  0  0  0  0  0  0  0  0  0
   25.8461  -21.2486  -10.9917 N   0  0  0  0  0  0  0  0  0  0  0  0
   26.5208  -20.5527  -12.0609 C   0  0  0  0  0  0  0  0  0  0  0  0
   25.8820  -19.1922  -12.2845 C   0  0  0  0  0  0  0  0  0  0  0  0
   26.5364  -18.5050  -13.4195 C   0  0  0  0  0  0  0  0  0  0  0  0
   26.0853  -19.0882  -14.7593 C   0  0  2  0  0  0  0  0  0  0  0  0
   26.6250  -18.1793  -15.7871 N   0  0  0  0  0  0  0  0  0  0  0  0
   24.6156  -19.1339  -14.8009 C   0  0  0  0  0  0  0  0  0  0  0  0
   23.9087  -18.0778  -14.6813 O   0  0  0  0  0  0  0  0  0  0  0  0
   24.2368  -21.8610   -8.9751 C   0  0  0  0  0  0  0  0  0  0  0  0
   20.9157  -24.8715  -15.3907 S   0  0  0  0  0  0  0  0  0  0  0  0
   20.0045  -23.4958  -16.0691 C   0  0  0  0  0  0  0  0  0  0  0  0
   20.5242  -21.8703  -15.5875 C   0  0  0  0  0  0  0  0  0  0  0  0
   21.9967  -21.6502  -15.5582 C   0  0  1  0  0  0  0  0  0  0  0  0
   22.3941  -20.2930  -15.0346 N   0  0  0  0  0  0  0  0  0  0  0  0
   23.8676  -20.3309  -14.9769 C   0  0  0  0  0  0  0  0  0  0  0  0
   21.9555  -20.1399  -13.6266 O   0  0  0  0  0  0  0  0  0  0  0  0
   22.5804  -20.7911  -12.5876 O   0  0  0  0  0  0  0  0  0  0  0  0
  2  1  1  6
  2 10  1  0
  3  2  1  0
  3  4  1  0
  4  9  2  0
  4  5  1  0
  5  6  2  0
  6  7  1  0
  8  7  2  0
  9  8  1  0
 10 11  2  0
 13 15  1  0
 13 12  1  0
 14 13  2  0
 16 15  1  0
 16 17  1  0
 17 18  1  0
 19 18  1  1
 20 10  1  0
 20 19  1  0
 21 19  1  0
 21 22  2  0
 23 24  1  0
 24 25  1  0
 25 26  1  0
 27 26  1  6
 27 28  1  0
 28 21  1  0
 29 30  1  0
 29 27  1  0
 31 29  2  0
M  END
$$$$
