FRM.pdb
     RDKit          3D

 31 31  0  0  1  0  0  0  0  0999 V2000
   24.9950  -11.8891  -18.6593 N   0  0  0  0  0  0  0  0  0  0  0  0
   24.5640  -11.3360  -17.3854 C   0  0  1  0  0  0  0  0  0  0  0  0
   25.7517  -11.0998  -16.4696 C   0  0  0  0  0  0  0  0  0  0  0  0
   26.4651  -12.3835  -16.1910 C   0  0  0  0  0  0  0  0  0  0  0  0
   27.6973  -12.6711  -16.7295 C   0  0  0  0  0  0  0  0  0  0  0  0
   28.3750  -13.8377  -16.4830 C   0  0  0  0  0  0  0  0  0  0  0  0
   27.8220  -14.8007  -15.6541 C   0  0  0  0  0  0  0  0  0  0  0  0
   26.5872  -14.5278  -15.1069 C   0  0  0  0  0  0  0  0  0  0  0  0
   25.9133  -13.3413  -15.3661 C   0  0  0  0  0  0  0  0  0  0  0  0
   23.7650  -10.1028  -17.5663 C   0  0  0  0  0  0  0  0  0  0  0  0
   24.0423   -9.2590  -18.4811 O   0  0  0  0  0  0  0  0  0  0  0  0
   19.4901  -13.5303  -16.3846 N   0  0  0  0  0  0  0  0  0  0  0  0
   18.7523  -12.7000  -15.5036 C   0  0  0  0  0  0  0  0  0  0  0  0
   18.3976  -13.1622  -14.3696 N   0  0  0  0  0  0  0  0  0  0  0  0
   18.4124  -11.3698  -15.8831 N   0  0  0  0  0  0  0  0  0  0  0  0
   18.8133  -10.8565  -17.1709 C   0  0  0  0  0  0  0  0  0  0  0  0
   20.2791  -10.4570  -17.1415 C   0  0  0  0  0  0  0  0  0  0  0  0
   20.4024   -8.9933  -16.9656 C   0  0  0  0  0  0  0  0  0  0  0  0
   21.8672   -8.5541  -16.9585 C   0  0  2  0  0  0  0  0  0  0  0  0
   22.6477   -9.7861  -16.7419 N   0  0  0  0  0  0  0  0  0  0  0  0
   22.0802   -7.5852  -15.8722 C   0  0  0  0  0  0  0  0  0  0  0  0
   22.2835   -7.9612  -14.6695 O   0  0  0  0  0  0  0  0  0  0  0  0
   17.9149  -12.6633  -13.6214 C   0  0  0  0  0  0  0  0  0  0  0  0
   23.4383   -0.8380  -16.5361 S   0  0  0  0  0  0  0  0  0  0  0  0
   22.3337   -1.1444  -15.1691 C   0  0  0  0  0  0  0  0  0  0  0  0
   22.3060   -2.7904  -14.5101 C   0  0  0  0  0  0  0  0  0  0  0  0
   22.2808   -3.8850  -15.5195 C   0  0  1  0  0  0  0  0  0  0  0  0
   22.2555   -5.2653  -14.9128 N   0  0  0  0  0  0  0  0  0  0  0  0
   22.0815   -6.1754  -16.0606 C   0  0  0  0  0  0  0  0  0  0  0  0
   21.0336   -5.4404  -14.0916 O   0  0  0  0  0  0  0  0  0  0  0  0
   21.0336   -5.2600  -12.7271 O   0  0  0  0  0  0  0  0  0  0  0  0
  2  1  1  6
  2 10  1  0
  3  2  1  0
  3  4  1  0
  4  9  2  0
  4  5  1  0
  5  6  2  0
  6  7  1  0
  8  7  2  0
  9  8  1  0
 10 11  2  0
 13 15  1  0
 13 12  1  0
 14 13  2  0
 16 15  1  0
 16 17  1  0
 17 18  1  0
 19 18  1  1
 20 10  1  0
 20 19  1  0
 21 19  1  0
 21 22  2  0
 23 24  1  0
 24 25  1  0
 25 26  1  0
 27 26  1  6
 27 28  1  0
 28 21  1  0
 29 30  1  0
 29 27  1  0
 31 29  2  0
M  END
$$$$
