FRM.pdb
     RDKit          3D

 31 31  0  0  1  0  0  0  0  0999 V2000
   26.2296  -17.2486  -17.1241 N   0  0  0  0  0  0  0  0  0  0  0  0
   26.8170  -18.0906  -16.0944 C   0  0  1  0  0  0  0  0  0  0  0  0
   27.9528  -17.3700  -15.3904 C   0  0  0  0  0  0  0  0  0  0  0  0
   29.0510  -17.0515  -16.3532 C   0  0  0  0  0  0  0  0  0  0  0  0
   29.2724  -15.7769  -16.8197 C   0  0  0  0  0  0  0  0  0  0  0  0
   30.2774  -15.4581  -17.6967 C   0  0  0  0  0  0  0  0  0  0  0  0
   31.1344  -16.4439  -18.1596 C   0  0  0  0  0  0  0  0  0  0  0  0
   30.9255  -17.7266  -17.7019 C   0  0  0  0  0  0  0  0  0  0  0  0
   29.9030  -18.0336  -16.8134 C   0  0  0  0  0  0  0  0  0  0  0  0
   25.7989  -18.5690  -15.1318 C   0  0  0  0  0  0  0  0  0  0  0  0
   24.9748  -17.7663  -14.5818 O   0  0  0  0  0  0  0  0  0  0  0  0
   24.2198  -25.0379  -14.9354 N   0  0  0  0  0  0  0  0  0  0  0  0
   23.2082  -25.3023  -13.9781 C   0  0  0  0  0  0  0  0  0  0  0  0
   23.2789  -26.3677  -13.2816 N   0  0  0  0  0  0  0  0  0  0  0  0
   22.1288  -24.3898  -13.8001 N   0  0  0  0  0  0  0  0  0  0  0  0
   22.0700  -23.1738  -14.5749 C   0  0  0  0  0  0  0  0  0  0  0  0
   22.7440  -22.0399  -13.8206 C   0  0  0  0  0  0  0  0  0  0  0  0
   23.8894  -21.5222  -14.6008 C   0  0  0  0  0  0  0  0  0  0  0  0
   24.6034  -20.3913  -13.8592 C   0  0  2  0  0  0  0  0  0  0  0  0
   25.6750  -19.9397  -14.7657 N   0  0  0  0  0  0  0  0  0  0  0  0
   25.1511  -20.9070  -12.5950 C   0  0  0  0  0  0  0  0  0  0  0  0
   26.0773  -21.7851  -12.5748 O   0  0  0  0  0  0  0  0  0  0  0  0
   22.5696  -26.7434  -12.6511 C   0  0  0  0  0  0  0  0  0  0  0  0
   29.5267  -19.7069   -8.0259 S   0  0  0  0  0  0  0  0  0  0  0  0
   27.8628  -19.5583   -7.3996 C   0  0  0  0  0  0  0  0  0  0  0  0
   26.6320  -20.6066   -8.1280 C   0  0  0  0  0  0  0  0  0  0  0  0
   26.2283  -20.2524   -9.5169 C   0  0  1  0  0  0  0  0  0  0  0  0
   25.1768  -21.1676  -10.0921 N   0  0  0  0  0  0  0  0  0  0  0  0
   24.7099  -20.4814  -11.3115 C   0  0  0  0  0  0  0  0  0  0  0  0
   23.9953  -21.2143   -9.1978 O   0  0  0  0  0  0  0  0  0  0  0  0
   24.0335  -21.8169   -7.9609 O   0  0  0  0  0  0  0  0  0  0  0  0
  2  1  1  6
  2 10  1  0
  3  2  1  0
  3  4  1  0
  4  9  2  0
  4  5  1  0
  5  6  2  0
  6  7  1  0
  8  7  2  0
  9  8  1  0
 10 11  2  0
 13 15  1  0
 13 12  1  0
 14 13  2  0
 16 15  1  0
 16 17  1  0
 17 18  1  0
 19 18  1  6
 20 10  1  0
 20 19  1  0
 21 19  1  0
 21 22  2  0
 23 24  1  0
 24 25  1  0
 25 26  1  0
 27 26  1  6
 27 28  1  0
 28 21  1  0
 29 30  1  0
 29 27  1  0
 31 29  2  0
M  END
$$$$
