FRM.pdb
     RDKit          3D

 31 31  0  0  1  0  0  0  0  0999 V2000
   27.5360  -22.5070  -10.8304 N   0  0  0  0  0  0  0  0  0  0  0  0
   26.6028  -21.4961  -10.3597 C   0  0  1  0  0  0  0  0  0  0  0  0
   27.2725  -20.1356  -10.2855 C   0  0  0  0  0  0  0  0  0  0  0  0
   27.7468  -19.8574   -8.8955 C   0  0  0  0  0  0  0  0  0  0  0  0
   26.9959  -19.1420   -7.9924 C   0  0  0  0  0  0  0  0  0  0  0  0
   27.4054  -18.8803   -6.7099 C   0  0  0  0  0  0  0  0  0  0  0  0
   28.6330  -19.3437   -6.2642 C   0  0  0  0  0  0  0  0  0  0  0  0
   29.3978  -20.0619   -7.1575 C   0  0  0  0  0  0  0  0  0  0  0  0
   28.9690  -20.3188   -8.4533 C   0  0  0  0  0  0  0  0  0  0  0  0
   25.3777  -21.4529  -11.1898 C   0  0  0  0  0  0  0  0  0  0  0  0
   25.3962  -21.7866  -12.4203 O   0  0  0  0  0  0  0  0  0  0  0  0
   17.8629  -23.1443  -11.0418 N   0  0  0  0  0  0  0  0  0  0  0  0
   18.2796  -23.9012   -9.9179 C   0  0  0  0  0  0  0  0  0  0  0  0
   17.8327  -25.0859   -9.7698 N   0  0  0  0  0  0  0  0  0  0  0  0
   19.1834  -23.3430   -8.9687 N   0  0  0  0  0  0  0  0  0  0  0  0
   19.8466  -22.0916   -9.2455 C   0  0  0  0  0  0  0  0  0  0  0  0
   20.9185  -22.2905  -10.3040 C   0  0  0  0  0  0  0  0  0  0  0  0
   21.7358  -21.0643  -10.4348 C   0  0  0  0  0  0  0  0  0  0  0  0
   22.8738  -21.2572  -11.4380 C   0  0  2  0  0  0  0  0  0  0  0  0
   24.1155  -21.0439  -10.6721 N   0  0  0  0  0  0  0  0  0  0  0  0
   22.7374  -20.2748  -12.5245 C   0  0  0  0  0  0  0  0  0  0  0  0
   22.8734  -19.0228  -12.3167 O   0  0  0  0  0  0  0  0  0  0  0  0
   18.0124  -25.7227   -8.9926 C   0  0  0  0  0  0  0  0  0  0  0  0
   23.0182  -19.1408  -20.3899 S   0  0  0  0  0  0  0  0  0  0  0  0
   23.1767  -20.1310  -18.9144 C   0  0  0  0  0  0  0  0  0  0  0  0
   22.6756  -19.3841  -17.3862 C   0  0  0  0  0  0  0  0  0  0  0  0
   22.7882  -20.2517  -16.1811 C   0  0  1  0  0  0  0  0  0  0  0  0
   22.3333  -19.5808  -14.9095 N   0  0  0  0  0  0  0  0  0  0  0  0
   22.4510  -20.6240  -13.8733 C   0  0  0  0  0  0  0  0  0  0  0  0
   20.8853  -19.2714  -14.9845 O   0  0  0  0  0  0  0  0  0  0  0  0
   19.9194  -20.1877  -14.6358 O   0  0  0  0  0  0  0  0  0  0  0  0
  2  1  1  6
  2 10  1  0
  3  2  1  0
  3  4  1  0
  4  9  2  0
  4  5  1  0
  5  6  2  0
  6  7  1  0
  8  7  2  0
  9  8  1  0
 10 11  2  0
 13 15  1  0
 13 12  1  0
 14 13  2  0
 16 15  1  0
 16 17  1  0
 17 18  1  0
 19 18  1  1
 20 10  1  0
 20 19  1  0
 21 19  1  0
 21 22  2  0
 23 24  1  0
 24 25  1  0
 25 26  1  0
 27 26  1  1
 27 28  1  0
 28 21  1  0
 29 30  1  0
 29 27  1  0
 31 29  2  0
M  END
$$$$
