FRM.pdb
     RDKit          3D

 31 31  0  0  1  0  0  0  0  0999 V2000
   27.7523  -19.8577  -11.0755 N   0  0  0  0  0  0  0  0  0  0  0  0
   26.6956  -20.8533  -10.9959 C   0  0  1  0  0  0  0  0  0  0  0  0
   26.1546  -20.9549   -9.5810 C   0  0  0  0  0  0  0  0  0  0  0  0
   27.2555  -20.7895   -8.5834 C   0  0  0  0  0  0  0  0  0  0  0  0
   27.2244  -19.8196   -7.6090 C   0  0  0  0  0  0  0  0  0  0  0  0
   28.2177  -19.6528   -6.6782 C   0  0  0  0  0  0  0  0  0  0  0  0
   29.3259  -20.4847   -6.6879 C   0  0  0  0  0  0  0  0  0  0  0  0
   29.3723  -21.4616   -7.6585 C   0  0  0  0  0  0  0  0  0  0  0  0
   28.3581  -21.6180   -8.5944 C   0  0  0  0  0  0  0  0  0  0  0  0
   25.6151  -20.5841  -11.9716 C   0  0  0  0  0  0  0  0  0  0  0  0
   25.0367  -19.4491  -12.0269 O   0  0  0  0  0  0  0  0  0  0  0  0
   28.7570  -22.9888  -16.3565 N   0  0  0  0  0  0  0  0  0  0  0  0
   27.6619  -23.8763  -16.5079 C   0  0  0  0  0  0  0  0  0  0  0  0
   27.8369  -25.1188  -16.2825 N   0  0  0  0  0  0  0  0  0  0  0  0
   26.3862  -23.3843  -16.9074 N   0  0  0  0  0  0  0  0  0  0  0  0
   26.1860  -21.9709  -17.1190 C   0  0  0  0  0  0  0  0  0  0  0  0
   25.8223  -21.2922  -15.8090 C   0  0  0  0  0  0  0  0  0  0  0  0
   24.6466  -21.9555  -15.2035 C   0  0  0  0  0  0  0  0  0  0  0  0
   24.1784  -21.2215  -13.9463 C   0  0  2  0  0  0  0  0  0  0  0  0
   25.1607  -21.5629  -12.9010 N   0  0  0  0  0  0  0  0  0  0  0  0
   22.8288  -21.6832  -13.5865 C   0  0  0  0  0  0  0  0  0  0  0  0
   22.6229  -22.8544  -13.1226 O   0  0  0  0  0  0  0  0  0  0  0  0
   27.1328  -25.8573  -16.3055 C   0  0  0  0  0  0  0  0  0  0  0  0
   17.8756  -17.4221  -12.4290 S   0  0  0  0  0  0  0  0  0  0  0  0
   17.0611  -19.0084  -12.4841 C   0  0  0  0  0  0  0  0  0  0  0  0
   18.0861  -20.4306  -12.7514 C   0  0  0  0  0  0  0  0  0  0  0  0
   19.5094  -20.1424  -13.0811 C   0  0  1  0  0  0  0  0  0  0  0  0
   20.3539  -21.3809  -13.2449 N   0  0  0  0  0  0  0  0  0  0  0  0
   21.6598  -20.8836  -13.7176 C   0  0  0  0  0  0  0  0  0  0  0  0
   19.8315  -22.2127  -14.3554 O   0  0  0  0  0  0  0  0  0  0  0  0
   18.9314  -23.2331  -14.1483 O   0  0  0  0  0  0  0  0  0  0  0  0
  2  1  1  1
  2 10  1  0
  3  2  1  0
  3  4  1  0
  4  9  2  0
  4  5  1  0
  5  6  2  0
  6  7  1  0
  8  7  2  0
  9  8  1  0
 10 11  2  0
 13 15  1  0
 13 12  1  0
 14 13  2  0
 16 15  1  0
 16 17  1  0
 17 18  1  0
 19 18  1  6
 20 10  1  0
 20 19  1  0
 21 19  1  0
 21 22  2  0
 23 24  1  0
 24 25  1  0
 25 26  1  0
 27 26  1  1
 27 28  1  0
 28 21  1  0
 29 30  1  0
 29 27  1  0
 31 29  2  0
M  END
$$$$
