FRM.pdb
     RDKit          3D

 31 31  0  0  1  0  0  0  0  0999 V2000
   24.8685  -21.2983  -11.5729 N   0  0  0  0  0  0  0  0  0  0  0  0
   24.7109  -21.6300  -12.9798 C   0  0  1  0  0  0  0  0  0  0  0  0
   23.3354  -21.2256  -13.4792 C   0  0  0  0  0  0  0  0  0  0  0  0
   22.2742  -22.0499  -12.8243 C   0  0  0  0  0  0  0  0  0  0  0  0
   22.0791  -23.3759  -13.1323 C   0  0  0  0  0  0  0  0  0  0  0  0
   21.1181  -24.1548  -12.5402 C   0  0  0  0  0  0  0  0  0  0  0  0
   20.2809  -23.6136  -11.5776 C   0  0  0  0  0  0  0  0  0  0  0  0
   20.4633  -22.2858  -11.2580 C   0  0  0  0  0  0  0  0  0  0  0  0
   21.4414  -21.5099  -11.8667 C   0  0  0  0  0  0  0  0  0  0  0  0
   25.7848  -21.0340  -13.8065 C   0  0  0  0  0  0  0  0  0  0  0  0
   26.2233  -19.8583  -13.5800 O   0  0  0  0  0  0  0  0  0  0  0  0
   30.7453  -25.8410  -15.4917 N   0  0  0  0  0  0  0  0  0  0  0  0
   30.4248  -25.6870  -16.8640 C   0  0  0  0  0  0  0  0  0  0  0  0
   30.1740  -26.7245  -17.5610 N   0  0  0  0  0  0  0  0  0  0  0  0
   30.3858  -24.3906  -17.4533 N   0  0  0  0  0  0  0  0  0  0  0  0
   30.2202  -23.2205  -16.6251 C   0  0  0  0  0  0  0  0  0  0  0  0
   28.7588  -22.8057  -16.5919 C   0  0  0  0  0  0  0  0  0  0  0  0
   28.6003  -21.5702  -15.7938 C   0  0  0  0  0  0  0  0  0  0  0  0
   27.1817  -21.0106  -15.9083 C   0  0  2  0  0  0  0  0  0  0  0  0
   26.3909  -21.7287  -14.8920 N   0  0  0  0  0  0  0  0  0  0  0  0
   26.6674  -21.2598  -17.2638 C   0  0  0  0  0  0  0  0  0  0  0  0
   26.1318  -22.3736  -17.5829 O   0  0  0  0  0  0  0  0  0  0  0  0
   29.9328  -26.7611  -18.5521 C   0  0  0  0  0  0  0  0  0  0  0  0
   22.1406  -17.6696  -21.0238 S   0  0  0  0  0  0  0  0  0  0  0  0
   23.7870  -17.8256  -21.6930 C   0  0  0  0  0  0  0  0  0  0  0  0
   24.6899  -19.2935  -21.2752 C   0  0  0  0  0  0  0  0  0  0  0  0
   25.2772  -19.3175  -19.9070 C   0  0  1  0  0  0  0  0  0  0  0  0
   26.0569  -20.5728  -19.6066 N   0  0  0  0  0  0  0  0  0  0  0  0
   26.7172  -20.3032  -18.3153 C   0  0  0  0  0  0  0  0  0  0  0  0
   27.1629  -20.7331  -20.5808 O   0  0  0  0  0  0  0  0  0  0  0  0
   26.9906  -21.3677  -21.7899 O   0  0  0  0  0  0  0  0  0  0  0  0
  2  1  1  1
  2 10  1  0
  3  2  1  0
  3  4  1  0
  4  9  2  0
  4  5  1  0
  5  6  2  0
  6  7  1  0
  8  7  2  0
  9  8  1  0
 10 11  2  0
 13 15  1  0
 13 12  1  0
 14 13  2  0
 16 15  1  0
 16 17  1  0
 17 18  1  0
 19 18  1  6
 20 10  1  0
 20 19  1  0
 21 19  1  0
 21 22  2  0
 23 24  1  0
 24 25  1  0
 25 26  1  0
 27 26  1  1
 27 28  1  0
 28 21  1  0
 29 30  1  0
 29 27  1  0
 31 29  2  0
M  END
$$$$
