FRM.pdb
     RDKit          3D

 31 31  0  0  1  0  0  0  0  0999 V2000
   25.4923  -18.6765  -16.8783 N   0  0  0  0  0  0  0  0  0  0  0  0
   25.8955  -18.2399  -15.5513 C   0  0  1  0  0  0  0  0  0  0  0  0
   24.7995  -17.4181  -14.8968 C   0  0  0  0  0  0  0  0  0  0  0  0
   24.5669  -16.1514  -15.6556 C   0  0  0  0  0  0  0  0  0  0  0  0
   23.3747  -15.8803  -16.2850 C   0  0  0  0  0  0  0  0  0  0  0  0
   23.1344  -14.7229  -16.9804 C   0  0  0  0  0  0  0  0  0  0  0  0
   24.1193  -13.7527  -17.0764 C   0  0  0  0  0  0  0  0  0  0  0  0
   25.3201  -14.0095  -16.4514 C   0  0  0  0  0  0  0  0  0  0  0  0
   25.5482  -15.1868  -15.7506 C   0  0  0  0  0  0  0  0  0  0  0  0
   26.3002  -19.3809  -14.6990 C   0  0  0  0  0  0  0  0  0  0  0  0
   25.5447  -20.3963  -14.5446 O   0  0  0  0  0  0  0  0  0  0  0  0
   32.8545  -22.9906   -9.8146 N   0  0  0  0  0  0  0  0  0  0  0  0
   32.6134  -23.2500  -11.1873 C   0  0  0  0  0  0  0  0  0  0  0  0
   33.1634  -24.2633  -11.7313 N   0  0  0  0  0  0  0  0  0  0  0  0
   31.7696  -22.3885  -11.9456 N   0  0  0  0  0  0  0  0  0  0  0  0
   31.1282  -21.2599  -11.3150 C   0  0  0  0  0  0  0  0  0  0  0  0
   29.6294  -21.3054  -11.5611 C   0  0  0  0  0  0  0  0  0  0  0  0
   29.2698  -20.3951  -12.6705 C   0  0  0  0  0  0  0  0  0  0  0  0
   27.7546  -20.3247  -12.8650 C   0  0  2  0  0  0  0  0  0  0  0  0
   27.5452  -19.4175  -14.0083 N   0  0  0  0  0  0  0  0  0  0  0  0
   27.1300  -19.7994  -11.6411 C   0  0  0  0  0  0  0  0  0  0  0  0
   27.6930  -18.8966  -10.9359 O   0  0  0  0  0  0  0  0  0  0  0  0
   33.0836  -24.5635  -12.7035 C   0  0  0  0  0  0  0  0  0  0  0  0
   28.1398  -18.8426   -6.5879 S   0  0  0  0  0  0  0  0  0  0  0  0
   27.1581  -20.2803   -6.1975 C   0  0  0  0  0  0  0  0  0  0  0  0
   26.3139  -21.0681   -7.5433 C   0  0  0  0  0  0  0  0  0  0  0  0
   26.4900  -20.4253   -8.8750 C   0  0  1  0  0  0  0  0  0  0  0  0
   25.7956  -21.1575   -9.9955 N   0  0  0  0  0  0  0  0  0  0  0  0
   25.8706  -20.2381  -11.1466 C   0  0  0  0  0  0  0  0  0  0  0  0
   24.3488  -21.2904   -9.7000 O   0  0  0  0  0  0  0  0  0  0  0  0
   23.3803  -20.7411  -10.5091 O   0  0  0  0  0  0  0  0  0  0  0  0
  2  1  1  6
  2 10  1  0
  3  2  1  0
  3  4  1  0
  4  9  2  0
  4  5  1  0
  5  6  2  0
  6  7  1  0
  8  7  2  0
  9  8  1  0
 10 11  2  0
 13 15  1  0
 13 12  1  0
 14 13  2  0
 16 15  1  0
 16 17  1  0
 17 18  1  0
 19 18  1  1
 20 10  1  0
 20 19  1  0
 21 19  1  0
 21 22  2  0
 23 24  1  0
 24 25  1  0
 25 26  1  0
 27 26  1  6
 27 28  1  0
 28 21  1  0
 29 30  1  0
 29 27  1  0
 31 29  2  0
M  END
$$$$
