FRM.pdb
     RDKit          3D

 31 31  0  0  1  0  0  0  0  0999 V2000
   28.4164  -21.0368   -9.2478 N   0  0  0  0  0  0  0  0  0  0  0  0
   26.9914  -20.8692   -9.0121 C   0  0  1  0  0  0  0  0  0  0  0  0
   26.7295  -19.6734   -8.1140 C   0  0  0  0  0  0  0  0  0  0  0  0
   27.4094  -19.8474   -6.7941 C   0  0  0  0  0  0  0  0  0  0  0  0
   28.6248  -19.2691   -6.5119 C   0  0  0  0  0  0  0  0  0  0  0  0
   29.2648  -19.4075   -5.3068 C   0  0  0  0  0  0  0  0  0  0  0  0
   28.6888  -20.1613   -4.2967 C   0  0  0  0  0  0  0  0  0  0  0  0
   27.4710  -20.7479   -4.5640 C   0  0  0  0  0  0  0  0  0  0  0  0
   26.8353  -20.5983   -5.7898 C   0  0  0  0  0  0  0  0  0  0  0  0
   26.2345  -20.7707  -10.2807 C   0  0  0  0  0  0  0  0  0  0  0  0
   26.4807  -19.8543  -11.1324 O   0  0  0  0  0  0  0  0  0  0  0  0
   25.0693  -24.1501  -17.1080 N   0  0  0  0  0  0  0  0  0  0  0  0
   25.8117  -24.5944  -15.9850 C   0  0  0  0  0  0  0  0  0  0  0  0
   27.0145  -24.9824  -16.1527 N   0  0  0  0  0  0  0  0  0  0  0  0
   25.2195  -24.6075  -14.6895 N   0  0  0  0  0  0  0  0  0  0  0  0
   23.8371  -24.2302  -14.5186 C   0  0  0  0  0  0  0  0  0  0  0  0
   23.7452  -22.8693  -13.8489 C   0  0  0  0  0  0  0  0  0  0  0  0
   24.4434  -22.8976  -12.5449 C   0  0  0  0  0  0  0  0  0  0  0  0
   24.4281  -21.5233  -11.8744 C   0  0  2  0  0  0  0  0  0  0  0  0
   25.1981  -21.6839  -10.6273 N   0  0  0  0  0  0  0  0  0  0  0  0
   23.0373  -21.1303  -11.6000 C   0  0  0  0  0  0  0  0  0  0  0  0
   22.3988  -21.5852  -10.5927 O   0  0  0  0  0  0  0  0  0  0  0  0
   27.6660  -25.3064  -15.4369 C   0  0  0  0  0  0  0  0  0  0  0  0
   18.7928  -16.0316  -14.0879 S   0  0  0  0  0  0  0  0  0  0  0  0
   20.4704  -16.0774  -13.4828 C   0  0  0  0  0  0  0  0  0  0  0  0
   20.9327  -17.4773  -12.4973 C   0  0  0  0  0  0  0  0  0  0  0  0
   20.5175  -18.8035  -13.0325 C   0  0  2  0  0  0  0  0  0  0  0  0
   20.8746  -19.9575  -12.1299 N   0  0  0  0  0  0  0  0  0  0  0  0
   22.2972  -20.2271  -12.4122 C   0  0  0  0  0  0  0  0  0  0  0  0
   20.1565  -21.1820  -12.5574 O   0  0  0  0  0  0  0  0  0  0  0  0
   19.0353  -21.6417  -11.9046 O   0  0  0  0  0  0  0  0  0  0  0  0
  2  1  1  6
  2 10  1  0
  3  2  1  0
  3  4  1  0
  4  9  2  0
  4  5  1  0
  5  6  2  0
  6  7  1  0
  8  7  2  0
  9  8  1  0
 10 11  2  0
 13 15  1  0
 13 12  1  0
 14 13  2  0
 16 15  1  0
 16 17  1  0
 17 18  1  0
 19 18  1  1
 20 10  1  0
 20 19  1  0
 21 19  1  0
 21 22  2  0
 23 24  1  0
 24 25  1  0
 25 26  1  0
 27 26  1  1
 27 28  1  0
 28 21  1  0
 29 30  1  0
 29 27  1  0
 31 29  2  0
M  END
$$$$
