FRM.pdb
     RDKit          3D

 31 31  0  0  1  0  0  0  0  0999 V2000
   20.9720  -24.3171  -15.6965 N   0  0  0  0  0  0  0  0  0  0  0  0
   21.3606  -22.9656  -15.3266 C   0  0  1  0  0  0  0  0  0  0  0  0
   20.2209  -22.2490  -14.6248 C   0  0  0  0  0  0  0  0  0  0  0  0
   19.1390  -21.9027  -15.5965 C   0  0  0  0  0  0  0  0  0  0  0  0
   19.2288  -20.8213  -16.4412 C   0  0  0  0  0  0  0  0  0  0  0  0
   18.2538  -20.4876  -17.3462 C   0  0  0  0  0  0  0  0  0  0  0  0
   17.1042  -21.2552  -17.4439 C   0  0  0  0  0  0  0  0  0  0  0  0
   16.9988  -22.3423  -16.6038 C   0  0  0  0  0  0  0  0  0  0  0  0
   17.9953  -22.6674  -15.6924 C   0  0  0  0  0  0  0  0  0  0  0  0
   22.5938  -22.9554  -14.5074 C   0  0  0  0  0  0  0  0  0  0  0  0
   22.9131  -23.9483  -13.7740 O   0  0  0  0  0  0  0  0  0  0  0  0
   30.0852  -21.8984  -13.6031 N   0  0  0  0  0  0  0  0  0  0  0  0
   29.6279  -21.8692  -14.9447 C   0  0  0  0  0  0  0  0  0  0  0  0
   30.1055  -22.7062  -15.7794 N   0  0  0  0  0  0  0  0  0  0  0  0
   28.6501  -20.9166  -15.3517 N   0  0  0  0  0  0  0  0  0  0  0  0
   28.0011  -20.0779  -14.3730 C   0  0  0  0  0  0  0  0  0  0  0  0
   26.9771  -20.8833  -13.5906 C   0  0  0  0  0  0  0  0  0  0  0  0
   25.7414  -21.0436  -14.3881 C   0  0  0  0  0  0  0  0  0  0  0  0
   24.6919  -21.8594  -13.6320 C   0  0  2  0  0  0  0  0  0  0  0  0
   23.4923  -21.8505  -14.4892 N   0  0  0  0  0  0  0  0  0  0  0  0
   24.4270  -21.2264  -12.3308 C   0  0  0  0  0  0  0  0  0  0  0  0
   23.9562  -20.0431  -12.2448 O   0  0  0  0  0  0  0  0  0  0  0  0
   29.8878  -22.7817  -16.7737 C   0  0  0  0  0  0  0  0  0  0  0  0
   29.1331  -20.0456   -7.8155 S   0  0  0  0  0  0  0  0  0  0  0  0
   27.4275  -19.6117   -7.5234 C   0  0  0  0  0  0  0  0  0  0  0  0
   26.1961  -20.7339   -8.1307 C   0  0  0  0  0  0  0  0  0  0  0  0
   25.6708  -20.4344   -9.4915 C   0  0  2  0  0  0  0  0  0  0  0  0
   24.3870  -21.1561   -9.8155 N   0  0  0  0  0  0  0  0  0  0  0  0
   24.6637  -21.8623  -11.0807 C   0  0  0  0  0  0  0  0  0  0  0  0
   23.3202  -20.1798  -10.1426 O   0  0  0  0  0  0  0  0  0  0  0  0
   22.0359  -20.3074   -9.6644 O   0  0  0  0  0  0  0  0  0  0  0  0
  2  1  1  1
  2 10  1  0
  3  2  1  0
  3  4  1  0
  4  9  2  0
  4  5  1  0
  5  6  2  0
  6  7  1  0
  8  7  2  0
  9  8  1  0
 10 11  2  0
 13 15  1  0
 13 12  1  0
 14 13  2  0
 16 15  1  0
 16 17  1  0
 17 18  1  0
 19 18  1  6
 20 10  1  0
 20 19  1  0
 21 19  1  0
 21 22  2  0
 23 24  1  0
 24 25  1  0
 25 26  1  0
 27 26  1  1
 27 28  1  0
 28 21  1  0
 29 30  1  0
 29 27  1  0
 31 29  2  0
M  END
$$$$
