FRM.pdb
     RDKit          3D

 31 31  0  0  1  0  0  0  0  0999 V2000
   22.1658  -17.5706  -16.9418 N   0  0  0  0  0  0  0  0  0  0  0  0
   21.4965  -18.6181  -16.1875 C   0  0  1  0  0  0  0  0  0  0  0  0
   20.5073  -19.3662  -17.0632 C   0  0  0  0  0  0  0  0  0  0  0  0
   19.4902  -18.4279  -17.6285 C   0  0  0  0  0  0  0  0  0  0  0  0
   18.5035  -17.8616  -16.8559 C   0  0  0  0  0  0  0  0  0  0  0  0
   17.5642  -16.9925  -17.3491 C   0  0  0  0  0  0  0  0  0  0  0  0
   17.5771  -16.6431  -18.6901 C   0  0  0  0  0  0  0  0  0  0  0  0
   18.5593  -17.2027  -19.4779 C   0  0  0  0  0  0  0  0  0  0  0  0
   19.5039  -18.0814  -18.9633 C   0  0  0  0  0  0  0  0  0  0  0  0
   22.4654  -19.5408  -15.5537 C   0  0  0  0  0  0  0  0  0  0  0  0
   22.0804  -20.4930  -14.7980 O   0  0  0  0  0  0  0  0  0  0  0  0
   27.8142  -23.1449  -18.6569 N   0  0  0  0  0  0  0  0  0  0  0  0
   28.4585  -23.5685  -17.4673 C   0  0  0  0  0  0  0  0  0  0  0  0
   28.6586  -24.8138  -17.2819 N   0  0  0  0  0  0  0  0  0  0  0  0
   28.8738  -22.6145  -16.4943 N   0  0  0  0  0  0  0  0  0  0  0  0
   28.2793  -21.2999  -16.4655 C   0  0  0  0  0  0  0  0  0  0  0  0
   27.0923  -21.2833  -15.5169 C   0  0  0  0  0  0  0  0  0  0  0  0
   25.9991  -20.4653  -16.0868 C   0  0  0  0  0  0  0  0  0  0  0  0
   24.8051  -20.3892  -15.1344 C   0  0  2  0  0  0  0  0  0  0  0  0
   23.8717  -19.4266  -15.7478 N   0  0  0  0  0  0  0  0  0  0  0  0
   25.2628  -19.9274  -13.8148 C   0  0  0  0  0  0  0  0  0  0  0  0
   25.8651  -18.8117  -13.6673 O   0  0  0  0  0  0  0  0  0  0  0  0
   28.4535  -25.5767  -17.9282 C   0  0  0  0  0  0  0  0  0  0  0  0
   22.6154  -21.8851   -8.0839 S   0  0  0  0  0  0  0  0  0  0  0  0
   24.1677  -21.1488   -7.6031 C   0  0  0  0  0  0  0  0  0  0  0  0
   25.1427  -20.4143   -8.8893 C   0  0  0  0  0  0  0  0  0  0  0  0
   24.7130  -20.7303  -10.2797 C   0  0  1  0  0  0  0  0  0  0  0  0
   25.6308  -20.1707  -11.3372 N   0  0  0  0  0  0  0  0  0  0  0  0
   25.0772  -20.6641  -12.6124 C   0  0  0  0  0  0  0  0  0  0  0  0
   26.9723  -20.7931  -11.2312 O   0  0  0  0  0  0  0  0  0  0  0  0
   27.9727  -20.2542  -10.4546 O   0  0  0  0  0  0  0  0  0  0  0  0
  2  1  1  6
  2 10  1  0
  3  2  1  0
  3  4  1  0
  4  9  2  0
  4  5  1  0
  5  6  2  0
  6  7  1  0
  8  7  2  0
  9  8  1  0
 10 11  2  0
 13 15  1  0
 13 12  1  0
 14 13  2  0
 16 15  1  0
 16 17  1  0
 17 18  1  0
 19 18  1  6
 20 10  1  0
 20 19  1  0
 21 19  1  0
 21 22  2  0
 23 24  1  0
 24 25  1  0
 25 26  1  0
 27 26  1  6
 27 28  1  0
 28 21  1  0
 29 30  1  0
 29 27  1  0
 31 29  2  0
M  END
$$$$
