FRM.pdb
     RDKit          3D

 31 31  0  0  1  0  0  0  0  0999 V2000
   24.2490  -21.7416  -16.8280 N   0  0  0  0  0  0  0  0  0  0  0  0
   24.8358  -20.6475  -16.0710 C   0  0  1  0  0  0  0  0  0  0  0  0
   23.8083  -19.5617  -15.8063 C   0  0  0  0  0  0  0  0  0  0  0  0
   23.3867  -18.9128  -17.0852 C   0  0  0  0  0  0  0  0  0  0  0  0
   24.2835  -18.2995  -17.9283 C   0  0  0  0  0  0  0  0  0  0  0  0
   23.9228  -17.7042  -19.1100 C   0  0  0  0  0  0  0  0  0  0  0  0
   22.5958  -17.6998  -19.5092 C   0  0  0  0  0  0  0  0  0  0  0  0
   21.6845  -18.3099  -18.6749 C   0  0  0  0  0  0  0  0  0  0  0  0
   22.0656  -18.9087  -17.4810 C   0  0  0  0  0  0  0  0  0  0  0  0
   25.4583  -21.1230  -14.8146 C   0  0  0  0  0  0  0  0  0  0  0  0
   24.8758  -21.9737  -14.0645 O   0  0  0  0  0  0  0  0  0  0  0  0
   32.1395  -21.7152   -9.5234 N   0  0  0  0  0  0  0  0  0  0  0  0
   32.3922  -22.2322  -10.8190 C   0  0  0  0  0  0  0  0  0  0  0  0
   33.2280  -23.1856  -10.9525 N   0  0  0  0  0  0  0  0  0  0  0  0
   31.7217  -21.6915  -11.9536 N   0  0  0  0  0  0  0  0  0  0  0  0
   30.8433  -20.5561  -11.8058 C   0  0  0  0  0  0  0  0  0  0  0  0
   29.3948  -21.0148  -11.7844 C   0  0  0  0  0  0  0  0  0  0  0  0
   28.7360  -20.6743  -13.0645 C   0  0  0  0  0  0  0  0  0  0  0  0
   27.2494  -21.0319  -13.0390 C   0  0  2  0  0  0  0  0  0  0  0  0
   26.7330  -20.6682  -14.3713 N   0  0  0  0  0  0  0  0  0  0  0  0
   26.5817  -20.2646  -11.9762 C   0  0  0  0  0  0  0  0  0  0  0  0
   26.2836  -19.0325  -12.1257 O   0  0  0  0  0  0  0  0  0  0  0  0
   33.5436  -23.6149  -11.8230 C   0  0  0  0  0  0  0  0  0  0  0  0
   21.2061  -19.1876  -12.6648 S   0  0  0  0  0  0  0  0  0  0  0  0
   21.1719  -20.0285  -11.0918 C   0  0  0  0  0  0  0  0  0  0  0  0
   22.6388  -19.9396  -10.0995 C   0  0  0  0  0  0  0  0  0  0  0  0
   23.8829  -20.4386  -10.7481 C   0  0  1  0  0  0  0  0  0  0  0  0
   25.1257  -20.2129   -9.9243 N   0  0  0  0  0  0  0  0  0  0  0  0
   26.2145  -20.8146  -10.7169 C   0  0  0  0  0  0  0  0  0  0  0  0
   25.0655  -21.0142   -8.6784 O   0  0  0  0  0  0  0  0  0  0  0  0
   24.5991  -20.4943   -7.4924 O   0  0  0  0  0  0  0  0  0  0  0  0
  2  1  1  1
  2 10  1  0
  3  2  1  0
  3  4  1  0
  4  9  2  0
  4  5  1  0
  5  6  2  0
  6  7  1  0
  8  7  2  0
  9  8  1  0
 10 11  2  0
 13 15  1  0
 13 12  1  0
 14 13  2  0
 16 15  1  0
 16 17  1  0
 17 18  1  0
 19 18  1  6
 20 10  1  0
 20 19  1  0
 21 19  1  0
 21 22  2  0
 23 24  1  0
 24 25  1  0
 25 26  1  0
 27 26  1  6
 27 28  1  0
 28 21  1  0
 29 30  1  0
 29 27  1  0
 31 29  2  0
M  END
$$$$
