FRM.pdb
     RDKit          3D

 31 31  0  0  1  0  0  0  0  0999 V2000
   26.9248  -21.7864   -8.8950 N   0  0  0  0  0  0  0  0  0  0  0  0
   26.7034  -20.3503   -8.9496 C   0  0  1  0  0  0  0  0  0  0  0  0
   27.9324  -19.5959   -8.4748 C   0  0  0  0  0  0  0  0  0  0  0  0
   28.1161  -19.7633   -7.0008 C   0  0  0  0  0  0  0  0  0  0  0  0
   29.3292  -19.5646   -6.3844 C   0  0  0  0  0  0  0  0  0  0  0  0
   29.5213  -19.7044   -5.0336 C   0  0  0  0  0  0  0  0  0  0  0  0
   28.4626  -20.0634   -4.2147 C   0  0  0  0  0  0  0  0  0  0  0  0
   27.2402  -20.2667   -4.8173 C   0  0  0  0  0  0  0  0  0  0  0  0
   27.0616  -20.1211   -6.1870 C   0  0  0  0  0  0  0  0  0  0  0  0
   26.2861  -19.9116  -10.3006 C   0  0  0  0  0  0  0  0  0  0  0  0
   25.8794  -18.7228  -10.5177 O   0  0  0  0  0  0  0  0  0  0  0  0
   26.7357  -23.1922  -17.8037 N   0  0  0  0  0  0  0  0  0  0  0  0
   27.4376  -23.5697  -16.6312 C   0  0  0  0  0  0  0  0  0  0  0  0
   27.6549  -24.8065  -16.4115 N   0  0  0  0  0  0  0  0  0  0  0  0
   27.8909  -22.5794  -15.7130 N   0  0  0  0  0  0  0  0  0  0  0  0
   27.7656  -21.1782  -16.0348 C   0  0  0  0  0  0  0  0  0  0  0  0
   26.7415  -20.5219  -15.1240 C   0  0  0  0  0  0  0  0  0  0  0  0
   26.9261  -20.9903  -13.7329 C   0  0  0  0  0  0  0  0  0  0  0  0
   25.9633  -20.2869  -12.7754 C   0  0  2  0  0  0  0  0  0  0  0  0
   26.3150  -20.7782  -11.4305 N   0  0  0  0  0  0  0  0  0  0  0  0
   24.5796  -20.6377  -13.1306 C   0  0  0  0  0  0  0  0  0  0  0  0
   24.1085  -21.8048  -12.9178 O   0  0  0  0  0  0  0  0  0  0  0  0
   28.1639  -25.2158  -15.6272 C   0  0  0  0  0  0  0  0  0  0  0  0
   20.2674  -15.9647  -15.1900 S   0  0  0  0  0  0  0  0  0  0  0  0
   19.2650  -17.4239  -14.9695 C   0  0  0  0  0  0  0  0  0  0  0  0
   20.0886  -18.8879  -14.4011 C   0  0  0  0  0  0  0  0  0  0  0  0
   21.5677  -18.7799  -14.2655 C   0  0  2  0  0  0  0  0  0  0  0  0
   22.2273  -20.0577  -13.8116 N   0  0  0  0  0  0  0  0  0  0  0  0
   23.6626  -19.7283  -13.7268 C   0  0  0  0  0  0  0  0  0  0  0  0
   22.1289  -21.0886  -14.8726 O   0  0  0  0  0  0  0  0  0  0  0  0
   21.1498  -22.0559  -14.8684 O   0  0  0  0  0  0  0  0  0  0  0  0
  2  1  1  6
  2 10  1  0
  3  2  1  0
  3  4  1  0
  4  9  2  0
  4  5  1  0
  5  6  2  0
  6  7  1  0
  8  7  2  0
  9  8  1  0
 10 11  2  0
 13 15  1  0
 13 12  1  0
 14 13  2  0
 16 15  1  0
 16 17  1  0
 17 18  1  0
 19 18  1  6
 20 10  1  0
 20 19  1  0
 21 19  1  0
 21 22  2  0
 23 24  1  0
 24 25  1  0
 25 26  1  0
 27 26  1  1
 27 28  1  0
 28 21  1  0
 29 30  1  0
 29 27  1  0
 31 29  2  0
M  END
$$$$
