FRM.pdb
     RDKit          3D

 31 31  0  0  1  0  0  0  0  0999 V2000
   23.0956  -20.4429  -16.8243 N   0  0  0  0  0  0  0  0  0  0  0  0
   23.5397  -19.6210  -15.7101 C   0  0  1  0  0  0  0  0  0  0  0  0
   22.3627  -19.1926  -14.8521 C   0  0  0  0  0  0  0  0  0  0  0  0
   21.4184  -18.3432  -15.6403 C   0  0  0  0  0  0  0  0  0  0  0  0
   20.2986  -18.8598  -16.2487 C   0  0  0  0  0  0  0  0  0  0  0  0
   19.4134  -18.1003  -16.9703 C   0  0  0  0  0  0  0  0  0  0  0  0
   19.6245  -16.7385  -17.1166 C   0  0  0  0  0  0  0  0  0  0  0  0
   20.7427  -16.2055  -16.5132 C   0  0  0  0  0  0  0  0  0  0  0  0
   21.6299  -16.9880  -15.7854 C   0  0  0  0  0  0  0  0  0  0  0  0
   24.5772  -20.3047  -14.9050 C   0  0  0  0  0  0  0  0  0  0  0  0
   24.5025  -21.5504  -14.6436 O   0  0  0  0  0  0  0  0  0  0  0  0
   31.8394  -21.6809  -11.6565 N   0  0  0  0  0  0  0  0  0  0  0  0
   31.4269  -22.3052  -12.8606 C   0  0  0  0  0  0  0  0  0  0  0  0
   31.7399  -23.5241  -13.0642 N   0  0  0  0  0  0  0  0  0  0  0  0
   30.6751  -21.5782  -13.8278 N   0  0  0  0  0  0  0  0  0  0  0  0
   30.3550  -20.1888  -13.6050 C   0  0  0  0  0  0  0  0  0  0  0  0
   29.0640  -20.0700  -12.8122 C   0  0  0  0  0  0  0  0  0  0  0  0
   27.9928  -19.5141  -13.6678 C   0  0  0  0  0  0  0  0  0  0  0  0
   26.7030  -20.3264  -13.5448 C   0  0  2  0  0  0  0  0  0  0  0  0
   25.7124  -19.6232  -14.3803 N   0  0  0  0  0  0  0  0  0  0  0  0
   26.2849  -20.3665  -12.1349 C   0  0  0  0  0  0  0  0  0  0  0  0
   26.0523  -19.2993  -11.4744 O   0  0  0  0  0  0  0  0  0  0  0  0
   31.4973  -24.0989  -13.8719 C   0  0  0  0  0  0  0  0  0  0  0  0
   28.8940  -19.6588   -7.0504 S   0  0  0  0  0  0  0  0  0  0  0  0
   27.1785  -19.1709   -7.0057 C   0  0  0  0  0  0  0  0  0  0  0  0
   26.0405  -20.1420   -7.9577 C   0  0  0  0  0  0  0  0  0  0  0  0
   26.4939  -20.4984   -9.3307 C   0  0  1  0  0  0  0  0  0  0  0  0
   25.6263  -21.5319  -10.0038 N   0  0  0  0  0  0  0  0  0  0  0  0
   26.1039  -21.5702  -11.3990 C   0  0  0  0  0  0  0  0  0  0  0  0
   24.2271  -21.0489  -10.0870 O   0  0  0  0  0  0  0  0  0  0  0  0
   23.4076  -20.9781   -8.9834 O   0  0  0  0  0  0  0  0  0  0  0  0
  2  1  1  6
  2 10  1  0
  3  2  1  0
  3  4  1  0
  4  9  2  0
  4  5  1  0
  5  6  2  0
  6  7  1  0
  8  7  2  0
  9  8  1  0
 10 11  2  0
 13 15  1  0
 13 12  1  0
 14 13  2  0
 16 15  1  0
 16 17  1  0
 17 18  1  0
 19 18  1  1
 20 10  1  0
 20 19  1  0
 21 19  1  0
 21 22  2  0
 23 24  1  0
 24 25  1  0
 25 26  1  0
 27 26  1  1
 27 28  1  0
 28 21  1  0
 29 30  1  0
 29 27  1  0
 31 29  2  0
M  END
$$$$
