NAT.pdb
     RDKit          3D

 21 20  0  0  1  0  0  0  0  0999 V2000
   14.7085  -12.7112  -10.3574 N   0  0  0  0  0  0  0  0  0  0  0  0
   15.9353  -12.5384  -11.0590 C   0  0  0  0  0  0  0  0  0  0  0  0
   16.5853  -13.5956  -11.3249 O   0  0  0  0  0  0  0  0  0  0  0  0
   16.4432  -11.2039  -11.4656 C   0  0  0  0  0  0  0  0  0  0  0  0
   15.4988  -10.1550  -10.9619 C   0  0  2  0  0  0  0  0  0  0  0  0
   14.2181  -10.2681  -11.5970 N   0  0  0  0  0  0  0  0  0  0  0  0
   16.1013   -8.8050  -11.1424 C   0  0  0  0  0  0  0  0  0  0  0  0
   16.2845   -8.3510  -12.2998 O   0  0  0  0  0  0  0  0  0  0  0  0
   16.9049   -5.7975   -8.9898 C   0  0  0  0  0  0  0  0  0  0  0  0
   17.1074   -6.6907  -10.1880 C   0  0  2  0  0  0  0  0  0  0  0  0
   16.4937   -7.9731  -10.0615 N   0  0  0  0  0  0  0  0  0  0  0  0
   18.5383   -6.7329  -10.5183 C   0  0  0  0  0  0  0  0  0  0  0  0
   19.3232   -7.2641   -9.6913 O   0  0  0  0  0  0  0  0  0  0  0  0
   20.6034   -8.6753  -12.7924 C   0  0  0  0  0  0  0  0  0  0  0  0
   20.7950   -7.2402  -13.1788 C   0  0  1  0  0  0  0  0  0  0  0  0
   19.9520   -6.9754  -14.2569 O   0  0  0  0  0  0  0  0  0  0  0  0
   20.4871   -6.2771  -12.0659 C   0  0  2  0  0  0  0  0  0  0  0  0
   19.1092   -6.2149  -11.7111 N   0  0  0  0  0  0  0  0  0  0  0  0
   21.0292   -4.9319  -12.4738 C   0  0  0  0  0  0  0  0  0  0  0  0
   20.1933   -3.8924  -12.7945 O   0  0  0  0  0  0  0  0  0  0  0  0
   22.2776   -4.7376  -12.5276 O   0  0  0  0  0  0  0  0  0  0  0  0
  2  1  1  0
  2  4  1  0
  3  2  2  0
  5  4  1  0
  5  6  1  6
  7 11  1  0
  7  5  1  0
  8  7  2  0
 10  9  1  1
 10 11  1  0
 12 10  1  0
 12 18  1  0
 13 12  2  0
 15 14  1  1
 16 15  1  0
 17 18  1  6
 17 15  1  0
 19 17  1  0
 20 19  1  0
 21 19  2  0
M  END
$$$$
