NAT.pdb
     RDKit          3D

 21 20  0  0  1  0  0  0  0  0999 V2000
   15.2277  -13.9912  -16.2122 N   0  0  0  0  0  0  0  0  0  0  0  0
   15.9492  -13.9708  -14.9850 C   0  0  0  0  0  0  0  0  0  0  0  0
   15.7717  -14.9612  -14.2113 O   0  0  0  0  0  0  0  0  0  0  0  0
   16.8634  -12.8618  -14.6126 C   0  0  0  0  0  0  0  0  0  0  0  0
   16.8714  -11.8518  -15.7197 C   0  0  2  0  0  0  0  0  0  0  0  0
   17.6347  -12.3215  -16.8392 N   0  0  0  0  0  0  0  0  0  0  0  0
   17.3674  -10.5447  -15.2066 C   0  0  0  0  0  0  0  0  0  0  0  0
   16.7797   -9.9852  -14.2471 O   0  0  0  0  0  0  0  0  0  0  0  0
   20.4321   -8.3587  -15.6465 C   0  0  0  0  0  0  0  0  0  0  0  0
   18.9824   -8.6018  -15.3088 C   0  0  2  0  0  0  0  0  0  0  0  0
   18.4934   -9.8695  -15.7459 N   0  0  0  0  0  0  0  0  0  0  0  0
   18.1853   -7.4546  -15.7633 C   0  0  0  0  0  0  0  0  0  0  0  0
   17.8586   -7.4020  -16.9769 O   0  0  0  0  0  0  0  0  0  0  0  0
   14.5618   -5.3342  -14.5954 C   0  0  0  0  0  0  0  0  0  0  0  0
   15.9472   -4.8315  -14.3247 C   0  0  1  0  0  0  0  0  0  0  0  0
   16.3295   -5.2985  -13.0681 O   0  0  0  0  0  0  0  0  0  0  0  0
   16.9553   -5.2837  -15.3447 C   0  0  2  0  0  0  0  0  0  0  0  0
   17.7508   -6.3899  -14.9299 N   0  0  0  0  0  0  0  0  0  0  0  0
   17.7942   -4.0861  -15.7080 C   0  0  0  0  0  0  0  0  0  0  0  0
   19.1195   -4.0109  -15.3612 O   0  0  0  0  0  0  0  0  0  0  0  0
   17.2841   -3.1206  -16.3455 O   0  0  0  0  0  0  0  0  0  0  0  0
  2  1  1  0
  2  4  1  0
  3  2  2  0
  5  4  1  0
  5  6  1  6
  7 11  1  0
  7  5  1  0
  8  7  2  0
 10  9  1  6
 10 11  1  0
 12 10  1  0
 12 18  1  0
 13 12  2  0
 15 14  1  6
 16 15  1  0
 17 18  1  1
 17 15  1  0
 19 17  1  0
 20 19  1  0
 21 19  2  0
M  END
$$$$
