NAT.pdb
     RDKit          3D

 21 20  0  0  1  0  0  0  0  0999 V2000
   22.3852  -13.9252  -18.6231 N   0  0  0  0  0  0  0  0  0  0  0  0
   21.2097  -13.3919  -19.2238 C   0  0  0  0  0  0  0  0  0  0  0  0
   20.7266  -14.0493  -20.1961 O   0  0  0  0  0  0  0  0  0  0  0  0
   20.5693  -12.1377  -18.7535 C   0  0  0  0  0  0  0  0  0  0  0  0
   21.3536  -11.6016  -17.5945 C   0  0  2  0  0  0  0  0  0  0  0  0
   21.3275  -12.5149  -16.4891 N   0  0  0  0  0  0  0  0  0  0  0  0
   20.8464  -10.2515  -17.2234 C   0  0  0  0  0  0  0  0  0  0  0  0
   21.0431   -9.2762  -17.9911 O   0  0  0  0  0  0  0  0  0  0  0  0
   18.6085   -8.7555  -14.5385 C   0  0  0  0  0  0  0  0  0  0  0  0
   19.6713   -8.7020  -15.6073 C   0  0  2  0  0  0  0  0  0  0  0  0
   20.1345   -9.9860  -16.0245 N   0  0  0  0  0  0  0  0  0  0  0  0
   20.7347   -7.7827  -15.1804 C   0  0  0  0  0  0  0  0  0  0  0  0
   21.7736   -8.2733  -14.6684 O   0  0  0  0  0  0  0  0  0  0  0  0
   22.6318   -3.1451  -14.9865 C   0  0  0  0  0  0  0  0  0  0  0  0
   21.4739   -4.0415  -15.3048 C   0  0  1  0  0  0  0  0  0  0  0  0
   21.3033   -4.0383  -16.6883 O   0  0  0  0  0  0  0  0  0  0  0  0
   21.6697   -5.4570  -14.8369 C   0  0  2  0  0  0  0  0  0  0  0  0
   20.6795   -6.3688  -15.3025 N   0  0  0  0  0  0  0  0  0  0  0  0
   21.7496   -5.4256  -13.3328 C   0  0  0  0  0  0  0  0  0  0  0  0
   22.9125   -5.0910  -12.6863 O   0  0  0  0  0  0  0  0  0  0  0  0
   20.7345   -5.7104  -12.6347 O   0  0  0  0  0  0  0  0  0  0  0  0
  2  1  1  0
  2  4  1  0
  3  2  2  0
  5  4  1  0
  5  6  1  1
  7 11  1  0
  7  5  1  0
  8  7  2  0
 10  9  1  1
 10 11  1  0
 12 10  1  0
 12 18  1  0
 13 12  2  0
 15 14  1  6
 16 15  1  0
 17 18  1  1
 17 15  1  0
 19 17  1  0
 20 19  1  0
 21 19  2  0
M  END
$$$$
