NAT.pdb
     RDKit          3D

 21 20  0  0  1  0  0  0  0  0999 V2000
   15.8438  -12.2059  -17.3248 N   0  0  0  0  0  0  0  0  0  0  0  0
   15.7816  -10.7836  -17.3070 C   0  0  0  0  0  0  0  0  0  0  0  0
   14.8302  -10.2537  -17.9589 O   0  0  0  0  0  0  0  0  0  0  0  0
   16.7655   -9.9489  -16.5725 C   0  0  0  0  0  0  0  0  0  0  0  0
   17.8008  -10.8464  -15.9657 C   0  0  2  0  0  0  0  0  0  0  0  0
   17.2419  -11.6331  -14.9050 N   0  0  0  0  0  0  0  0  0  0  0  0
   18.9675  -10.0381  -15.5147 C   0  0  0  0  0  0  0  0  0  0  0  0
   18.9113   -9.4104  -14.4275 O   0  0  0  0  0  0  0  0  0  0  0  0
   22.5951   -9.6136  -16.5560 C   0  0  0  0  0  0  0  0  0  0  0  0
   21.3336   -9.2066  -15.8365 C   0  0  2  0  0  0  0  0  0  0  0  0
   20.1741   -9.9267  -16.2538 N   0  0  0  0  0  0  0  0  0  0  0  0
   21.1957   -7.7454  -15.8996 C   0  0  0  0  0  0  0  0  0  0  0  0
   20.6212   -7.2459  -16.9009 O   0  0  0  0  0  0  0  0  0  0  0  0
   19.7717   -5.1004  -13.3278 C   0  0  0  0  0  0  0  0  0  0  0  0
   21.1717   -4.7448  -13.7264 C   0  0  1  0  0  0  0  0  0  0  0  0
   22.0172   -5.1178  -12.6827 O   0  0  0  0  0  0  0  0  0  0  0  0
   21.6223   -5.4233  -14.9904 C   0  0  2  0  0  0  0  0  0  0  0  0
   21.6657   -6.8445  -14.9075 N   0  0  0  0  0  0  0  0  0  0  0  0
   22.9584   -4.8356  -15.3635 C   0  0  0  0  0  0  0  0  0  0  0  0
   23.0883   -3.5108  -15.6950 O   0  0  0  0  0  0  0  0  0  0  0  0
   23.9928   -5.5627  -15.3769 O   0  0  0  0  0  0  0  0  0  0  0  0
  2  1  1  0
  2  4  1  0
  3  2  2  0
  5  4  1  0
  5  6  1  1
  7 11  1  0
  7  5  1  0
  8  7  2  0
 10  9  1  6
 10 11  1  0
 12 10  1  0
 12 18  1  0
 13 12  2  0
 15 14  1  1
 16 15  1  0
 17 18  1  1
 17 15  1  0
 19 17  1  0
 20 19  1  0
 21 19  2  0
M  END
$$$$
