NAT.pdb
     RDKit          3D

 21 20  0  0  1  0  0  0  0  0999 V2000
   20.1068  -11.8507  -18.1353 N   0  0  0  0  0  0  0  0  0  0  0  0
   19.0580  -10.9499  -18.4754 C   0  0  0  0  0  0  0  0  0  0  0  0
   18.5420  -11.0955  -19.6258 O   0  0  0  0  0  0  0  0  0  0  0  0
   18.5800   -9.8922  -17.5496 C   0  0  0  0  0  0  0  0  0  0  0  0
   19.3741   -9.9677  -16.2810 C   0  0  2  0  0  0  0  0  0  0  0  0
   18.8285  -10.9501  -15.3902 N   0  0  0  0  0  0  0  0  0  0  0  0
   19.4530   -8.6190  -15.6541 C   0  0  0  0  0  0  0  0  0  0  0  0
   18.4018   -8.0386  -15.2836 O   0  0  0  0  0  0  0  0  0  0  0  0
   22.1738   -6.3867  -14.2456 C   0  0  0  0  0  0  0  0  0  0  0  0
   20.7994   -6.6539  -14.8064 C   0  0  2  0  0  0  0  0  0  0  0  0
   20.6731   -7.9258  -15.4416 N   0  0  0  0  0  0  0  0  0  0  0  0
   20.3927   -5.5157  -15.6415 C   0  0  0  0  0  0  0  0  0  0  0  0
   20.6607   -5.5548  -16.8698 O   0  0  0  0  0  0  0  0  0  0  0  0
   17.5014   -1.5035  -16.2669 C   0  0  0  0  0  0  0  0  0  0  0  0
   18.1561   -2.4671  -15.3244 C   0  0  1  0  0  0  0  0  0  0  0  0
   17.1675   -3.3199  -14.8359 O   0  0  0  0  0  0  0  0  0  0  0  0
   19.2392   -3.2878  -15.9681 C   0  0  2  0  0  0  0  0  0  0  0  0
   19.7136   -4.3634  -15.1640 N   0  0  0  0  0  0  0  0  0  0  0  0
   20.3448   -2.3427  -16.3611 C   0  0  0  0  0  0  0  0  0  0  0  0
   20.4316   -1.8346  -17.6325 O   0  0  0  0  0  0  0  0  0  0  0  0
   21.2200   -1.9992  -15.5156 O   0  0  0  0  0  0  0  0  0  0  0  0
  2  1  1  0
  2  4  1  0
  3  2  2  0
  5  4  1  0
  5  6  1  1
  7 11  1  0
  7  5  1  0
  8  7  2  0
 10  9  1  6
 10 11  1  0
 12 10  1  0
 12 18  1  0
 13 12  2  0
 15 14  1  6
 16 15  1  0
 17 18  1  1
 17 15  1  0
 19 17  1  0
 20 19  1  0
 21 19  2  0
M  END
$$$$
