NAT.pdb
     RDKit          3D

 21 20  0  0  1  0  0  0  0  0999 V2000
   19.1547  -14.5068  -16.1567 N   0  0  0  0  0  0  0  0  0  0  0  0
   19.2389  -13.7047  -17.3300 C   0  0  0  0  0  0  0  0  0  0  0  0
   19.4287  -14.3231  -18.4220 O   0  0  0  0  0  0  0  0  0  0  0  0
   19.1143  -12.2256  -17.2986 C   0  0  0  0  0  0  0  0  0  0  0  0
   18.7743  -11.8003  -15.9024 C   0  0  2  0  0  0  0  0  0  0  0  0
   17.4601  -12.2418  -15.5357 N   0  0  0  0  0  0  0  0  0  0  0  0
   18.9313  -10.3251  -15.7720 C   0  0  0  0  0  0  0  0  0  0  0  0
   19.4678   -9.6683  -16.6993 O   0  0  0  0  0  0  0  0  0  0  0  0
   17.5917   -7.6392  -13.4467 C   0  0  0  0  0  0  0  0  0  0  0  0
   18.5056   -8.1677  -14.5238 C   0  0  2  0  0  0  0  0  0  0  0  0
   18.5022   -9.5906  -14.6358 N   0  0  0  0  0  0  0  0  0  0  0  0
   19.8393   -7.5757  -14.3542 C   0  0  0  0  0  0  0  0  0  0  0  0
   20.6792   -8.1955  -13.6524 O   0  0  0  0  0  0  0  0  0  0  0  0
   23.2348   -4.1945  -15.8360 C   0  0  0  0  0  0  0  0  0  0  0  0
   21.8021   -4.6290  -15.7736 C   0  0  1  0  0  0  0  0  0  0  0  0
   21.4033   -4.9617  -17.0673 O   0  0  0  0  0  0  0  0  0  0  0  0
   21.5761   -5.8099  -14.8706 C   0  0  2  0  0  0  0  0  0  0  0  0
   20.2575   -6.3453  -14.9273 N   0  0  0  0  0  0  0  0  0  0  0  0
   21.9574   -5.3876  -13.4756 C   0  0  0  0  0  0  0  0  0  0  0  0
   21.0069   -5.0349  -12.5513 O   0  0  0  0  0  0  0  0  0  0  0  0
   23.1735   -5.3512  -13.1309 O   0  0  0  0  0  0  0  0  0  0  0  0
  2  1  1  0
  2  4  1  0
  3  2  2  0
  5  4  1  0
  5  6  1  6
  7 11  1  0
  7  5  1  0
  8  7  2  0
 10  9  1  1
 10 11  1  0
 12 10  1  0
 12 18  1  0
 13 12  2  0
 15 14  1  6
 16 15  1  0
 17 18  1  1
 17 15  1  0
 19 17  1  0
 20 19  1  0
 21 19  2  0
M  END
$$$$
