NAT.pdb
     RDKit          3D

 21 20  0  0  1  0  0  0  0  0999 V2000
   14.3842  -14.1521  -15.6326 N   0  0  0  0  0  0  0  0  0  0  0  0
   15.6416  -14.5881  -16.1385 C   0  0  0  0  0  0  0  0  0  0  0  0
   15.8506  -15.8399  -16.1238 O   0  0  0  0  0  0  0  0  0  0  0  0
   16.6648  -13.6465  -16.6587 C   0  0  0  0  0  0  0  0  0  0  0  0
   16.1561  -12.2459  -16.4989 C   0  0  2  0  0  0  0  0  0  0  0  0
   15.0218  -12.0110  -17.3444 N   0  0  0  0  0  0  0  0  0  0  0  0
   17.2585  -11.2769  -16.7509 C   0  0  0  0  0  0  0  0  0  0  0  0
   18.3662  -11.4257  -16.1764 O   0  0  0  0  0  0  0  0  0  0  0  0
   17.8433   -8.2799  -19.0383 C   0  0  0  0  0  0  0  0  0  0  0  0
   18.1697   -9.2198  -17.9049 C   0  0  2  0  0  0  0  0  0  0  0  0
   17.1368  -10.1636  -17.6229 N   0  0  0  0  0  0  0  0  0  0  0  0
   18.6088   -8.4356  -16.7428 C   0  0  0  0  0  0  0  0  0  0  0  0
   17.7314   -8.0075  -15.9496 O   0  0  0  0  0  0  0  0  0  0  0  0
   21.4928   -9.3967  -14.1243 C   0  0  0  0  0  0  0  0  0  0  0  0
   21.6728   -8.0171  -14.6808 C   0  0  1  0  0  0  0  0  0  0  0  0
   22.6540   -8.0832  -15.6687 O   0  0  0  0  0  0  0  0  0  0  0  0
   20.4153   -7.4450  -15.2745 C   0  0  2  0  0  0  0  0  0  0  0  0
   19.9607   -8.1205  -16.4431 N   0  0  0  0  0  0  0  0  0  0  0  0
   20.6636   -5.9805  -15.5260 C   0  0  0  0  0  0  0  0  0  0  0  0
   20.8466   -5.0991  -14.4908 O   0  0  0  0  0  0  0  0  0  0  0  0
   20.7078   -5.5358  -16.7089 O   0  0  0  0  0  0  0  0  0  0  0  0
  2  1  1  0
  2  4  1  0
  3  2  2  0
  5  4  1  0
  5  6  1  6
  7 11  1  0
  7  5  1  0
  8  7  2  0
 10  9  1  6
 10 11  1  0
 12 10  1  0
 12 18  1  0
 13 12  2  0
 15 14  1  6
 16 15  1  0
 17 18  1  6
 17 15  1  0
 19 17  1  0
 20 19  1  0
 21 19  2  0
M  END
$$$$
