NAT.pdb
     RDKit          3D

 21 20  0  0  1  0  0  0  0  0999 V2000
   25.9689  -13.3719  -15.9371 N   0  0  0  0  0  0  0  0  0  0  0  0
   26.4651  -12.0665  -16.2142 C   0  0  0  0  0  0  0  0  0  0  0  0
   27.7235  -11.9165  -16.1453 O   0  0  0  0  0  0  0  0  0  0  0  0
   25.5761  -10.9306  -16.5659 C   0  0  0  0  0  0  0  0  0  0  0  0
   24.1556  -11.4077  -16.5497 C   0  0  2  0  0  0  0  0  0  0  0  0
   23.8721  -12.2187  -17.6979 N   0  0  0  0  0  0  0  0  0  0  0  0
   23.2336  -10.2434  -16.4393 C   0  0  0  0  0  0  0  0  0  0  0  0
   23.2234   -9.3656  -17.3386 O   0  0  0  0  0  0  0  0  0  0  0  0
   20.2984   -9.2694  -14.2269 C   0  0  0  0  0  0  0  0  0  0  0  0
   21.3722   -9.0095  -15.2535 C   0  0  2  0  0  0  0  0  0  0  0  0
   22.3394  -10.0543  -15.3534 N   0  0  0  0  0  0  0  0  0  0  0  0
   21.9422   -7.6751  -15.0239 C   0  0  0  0  0  0  0  0  0  0  0  0
   22.8788   -7.5647  -14.1915 O   0  0  0  0  0  0  0  0  0  0  0  0
   22.7064   -4.8696  -17.9431 C   0  0  0  0  0  0  0  0  0  0  0  0
   21.9862   -4.3261  -16.7467 C   0  0  1  0  0  0  0  0  0  0  0  0
   20.6400   -4.1972  -17.0849 O   0  0  0  0  0  0  0  0  0  0  0  0
   22.1058   -5.2017  -15.5302 C   0  0  2  0  0  0  0  0  0  0  0  0
   21.5129   -6.4885  -15.6756 N   0  0  0  0  0  0  0  0  0  0  0  0
   21.5256   -4.4377  -14.3686 C   0  0  0  0  0  0  0  0  0  0  0  0
   22.1434   -3.3191  -13.8695 O   0  0  0  0  0  0  0  0  0  0  0  0
   20.4476   -4.8199  -13.8292 O   0  0  0  0  0  0  0  0  0  0  0  0
  2  1  1  0
  2  4  1  0
  3  2  2  0
  5  4  1  0
  5  6  1  6
  7 11  1  0
  7  5  1  0
  8  7  2  0
 10  9  1  1
 10 11  1  0
 12 10  1  0
 12 18  1  0
 13 12  2  0
 15 14  1  6
 16 15  1  0
 17 18  1  6
 17 15  1  0
 19 17  1  0
 20 19  1  0
 21 19  2  0
M  END
$$$$
