NAT.pdb
     RDKit          3D

 21 20  0  0  1  0  0  0  0  0999 V2000
   14.1971  -12.1500  -10.0956 N   0  0  0  0  0  0  0  0  0  0  0  0
   15.5399  -12.0778  -10.5634 C   0  0  0  0  0  0  0  0  0  0  0  0
   16.1837  -13.1711  -10.5969 O   0  0  0  0  0  0  0  0  0  0  0  0
   16.1701  -10.8040  -10.9929 C   0  0  0  0  0  0  0  0  0  0  0  0
   15.2126   -9.6810  -10.7323 C   0  0  2  0  0  0  0  0  0  0  0  0
   14.0381   -9.8072  -11.5453 N   0  0  0  0  0  0  0  0  0  0  0  0
   15.9002   -8.3752  -10.9323 C   0  0  0  0  0  0  0  0  0  0  0  0
   16.1828   -7.9881  -12.0940 O   0  0  0  0  0  0  0  0  0  0  0  0
   16.7425   -5.3245   -8.8496 C   0  0  0  0  0  0  0  0  0  0  0  0
   16.9469   -6.2666  -10.0095 C   0  0  2  0  0  0  0  0  0  0  0  0
   16.2679   -7.5138   -9.8659 N   0  0  0  0  0  0  0  0  0  0  0  0
   18.3855   -6.3868  -10.2819 C   0  0  0  0  0  0  0  0  0  0  0  0
   19.1307   -6.8104   -9.3613 O   0  0  0  0  0  0  0  0  0  0  0  0
   20.2486   -8.6991  -12.5197 C   0  0  0  0  0  0  0  0  0  0  0  0
   20.5856   -7.2993  -12.9349 C   0  0  1  0  0  0  0  0  0  0  0  0
   19.7774   -6.9738  -14.0231 O   0  0  0  0  0  0  0  0  0  0  0  0
   20.3729   -6.2864  -11.8442 C   0  0  2  0  0  0  0  0  0  0  0  0
   19.0057   -6.0585  -11.5166 N   0  0  0  0  0  0  0  0  0  0  0  0
   21.0743   -5.0209  -12.2640 C   0  0  0  0  0  0  0  0  0  0  0  0
   22.4428   -4.9515  -12.3312 O   0  0  0  0  0  0  0  0  0  0  0  0
   20.4049   -3.9910  -12.5644 O   0  0  0  0  0  0  0  0  0  0  0  0
  2  1  1  0
  2  4  1  0
  3  2  2  0
  5  4  1  0
  5  6  1  6
  7 11  1  0
  7  5  1  0
  8  7  2  0
 10  9  1  1
 10 11  1  0
 12 10  1  0
 12 18  1  0
 13 12  2  0
 15 14  1  1
 16 15  1  0
 17 18  1  6
 17 15  1  0
 19 17  1  0
 20 19  1  0
 21 19  2  0
M  END
$$$$
