NAT.pdb
     RDKit          3D

 21 20  0  0  1  0  0  0  0  0999 V2000
   15.4647  -13.1827  -15.3097 N   0  0  0  0  0  0  0  0  0  0  0  0
   16.7157  -13.7508  -14.9361 C   0  0  0  0  0  0  0  0  0  0  0  0
   16.6719  -14.8879  -14.3741 O   0  0  0  0  0  0  0  0  0  0  0  0
   18.0102  -13.0667  -15.1818 C   0  0  0  0  0  0  0  0  0  0  0  0
   17.7419  -11.7554  -15.8557 C   0  0  2  0  0  0  0  0  0  0  0  0
   17.3054  -11.9515  -17.2076 N   0  0  0  0  0  0  0  0  0  0  0  0
   18.9502  -10.8888  -15.7727 C   0  0  0  0  0  0  0  0  0  0  0  0
   19.4113  -10.5637  -14.6498 O   0  0  0  0  0  0  0  0  0  0  0  0
   21.4386   -9.3572  -18.2270 C   0  0  0  0  0  0  0  0  0  0  0  0
   20.7917   -9.5553  -16.8790 C   0  0  2  0  0  0  0  0  0  0  0  0
   19.6354  -10.3915  -16.9118 N   0  0  0  0  0  0  0  0  0  0  0  0
   20.5745   -8.2437  -16.2539 C   0  0  0  0  0  0  0  0  0  0  0  0
   19.4683   -7.6740  -16.4384 O   0  0  0  0  0  0  0  0  0  0  0  0
   21.9213   -4.6723  -13.0418 C   0  0  0  0  0  0  0  0  0  0  0  0
   22.2407   -5.9721  -13.7156 C   0  0  1  0  0  0  0  0  0  0  0  0
   22.0705   -6.9889  -12.7773 O   0  0  0  0  0  0  0  0  0  0  0  0
   21.3711   -6.2542  -14.9094 C   0  0  2  0  0  0  0  0  0  0  0  0
   21.5265   -7.5628  -15.4496 N   0  0  0  0  0  0  0  0  0  0  0  0
   21.6493   -5.1821  -15.9307 C   0  0  0  0  0  0  0  0  0  0  0  0
   20.8745   -4.0527  -16.0096 O   0  0  0  0  0  0  0  0  0  0  0  0
   22.6124   -5.3080  -16.7404 O   0  0  0  0  0  0  0  0  0  0  0  0
  2  1  1  0
  2  4  1  0
  3  2  2  0
  5  4  1  0
  5  6  1  6
  7 11  1  0
  7  5  1  0
  8  7  2  0
 10  9  1  6
 10 11  1  0
 12 10  1  0
 12 18  1  0
 13 12  2  0
 15 14  1  1
 16 15  1  0
 17 18  1  6
 17 15  1  0
 19 17  1  0
 20 19  1  0
 21 19  2  0
M  END
$$$$
