NAT.pdb
     RDKit          3D

 21 20  0  0  1  0  0  0  0  0999 V2000
   14.9491  -20.2291    2.3656 N   0  0  0  0  0  0  0  0  0  0  0  0
   16.3055  -20.0916    2.7758 C   0  0  0  0  0  0  0  0  0  0  0  0
   17.1320  -20.9122    2.2712 O   0  0  0  0  0  0  0  0  0  0  0  0
   16.7487  -19.0526    3.7393 C   0  0  0  0  0  0  0  0  0  0  0  0
   15.5603  -18.2358    4.1473 C   0  0  2  0  0  0  0  0  0  0  0  0
   14.9439  -17.6197    3.0085 N   0  0  0  0  0  0  0  0  0  0  0  0
   15.9627  -17.2402    5.1791 C   0  0  0  0  0  0  0  0  0  0  0  0
   16.3678  -16.1036    4.8279 O   0  0  0  0  0  0  0  0  0  0  0  0
   15.5846  -16.8629    8.9271 C   0  0  0  0  0  0  0  0  0  0  0  0
   16.2271  -16.5533    7.5982 C   0  0  2  0  0  0  0  0  0  0  0  0
   15.9175  -17.4981    6.5741 N   0  0  0  0  0  0  0  0  0  0  0  0
   17.6645  -16.3280    7.8013 C   0  0  0  0  0  0  0  0  0  0  0  0
   18.4528  -17.2815    7.5745 O   0  0  0  0  0  0  0  0  0  0  0  0
   21.4252  -13.1732    8.8538 C   0  0  0  0  0  0  0  0  0  0  0  0
   19.9565  -13.4686    8.8854 C   0  0  1  0  0  0  0  0  0  0  0  0
   19.3272  -12.5831    8.0118 O   0  0  0  0  0  0  0  0  0  0  0  0
   19.6231  -14.8781    8.4812 C   0  0  2  0  0  0  0  0  0  0  0  0
   18.2381  -15.1045    8.2383 N   0  0  0  0  0  0  0  0  0  0  0  0
   20.1689  -15.7917    9.5476 C   0  0  0  0  0  0  0  0  0  0  0  0
   21.3990  -16.3852    9.4185 O   0  0  0  0  0  0  0  0  0  0  0  0
   19.4939  -16.0286   10.5903 O   0  0  0  0  0  0  0  0  0  0  0  0
  2  1  1  0
  2  4  1  0
  3  2  2  0
  5  4  1  0
  5  6  1  6
  7 11  1  0
  7  5  1  0
  8  7  2  0
 10  9  1  1
 10 11  1  0
 12 10  1  0
 12 18  1  0
 13 12  2  0
 15 14  1  6
 16 15  1  0
 17 18  1  1
 17 15  1  0
 19 17  1  0
 20 19  1  0
 21 19  2  0
M  END
$$$$
