NAT.pdb
     RDKit          3D

 21 20  0  0  1  0  0  0  0  0999 V2000
   17.5014  -13.8306  -15.5935 N   0  0  0  0  0  0  0  0  0  0  0  0
   18.8878  -13.5154  -15.5193 C   0  0  0  0  0  0  0  0  0  0  0  0
   19.6351  -14.3874  -14.9789 O   0  0  0  0  0  0  0  0  0  0  0  0
   19.4479  -12.2426  -16.0395 C   0  0  0  0  0  0  0  0  0  0  0  0
   18.3205  -11.3832  -16.5255 C   0  0  2  0  0  0  0  0  0  0  0  0
   17.9467  -11.7337  -17.8648 N   0  0  0  0  0  0  0  0  0  0  0  0
   18.6913   -9.9463  -16.4005 C   0  0  0  0  0  0  0  0  0  0  0  0
   19.4836   -9.4300  -17.2282 O   0  0  0  0  0  0  0  0  0  0  0  0
   17.3532   -6.9319  -14.5670 C   0  0  0  0  0  0  0  0  0  0  0  0
   18.4437   -7.6949  -15.2765 C   0  0  2  0  0  0  0  0  0  0  0  0
   18.1943   -9.0966  -15.3781 N   0  0  0  0  0  0  0  0  0  0  0  0
   19.7390   -7.3513  -14.6745 C   0  0  0  0  0  0  0  0  0  0  0  0
   20.0990   -7.9757  -13.6436 O   0  0  0  0  0  0  0  0  0  0  0  0
   23.0508   -6.4246  -16.9557 C   0  0  0  0  0  0  0  0  0  0  0  0
   22.8703   -5.5445  -15.7564 C   0  0  1  0  0  0  0  0  0  0  0  0
   22.3409   -4.3322  -16.1962 O   0  0  0  0  0  0  0  0  0  0  0  0
   21.9556   -6.1324  -14.7178 C   0  0  2  0  0  0  0  0  0  0  0  0
   20.6247   -6.3587  -15.1717 N   0  0  0  0  0  0  0  0  0  0  0  0
   21.9986   -5.2246  -13.5163 C   0  0  0  0  0  0  0  0  0  0  0  0
   23.1367   -5.0919  -12.7618 O   0  0  0  0  0  0  0  0  0  0  0  0
   20.9746   -4.5630  -13.1805 O   0  0  0  0  0  0  0  0  0  0  0  0
  2  1  1  0
  2  4  1  0
  3  2  2  0
  5  4  1  0
  5  6  1  6
  7 11  1  0
  7  5  1  0
  8  7  2  0
 10  9  1  1
 10 11  1  0
 12 10  1  0
 12 18  1  0
 13 12  2  0
 15 14  1  6
 16 15  1  0
 17 18  1  6
 17 15  1  0
 19 17  1  0
 20 19  1  0
 21 19  2  0
M  END
$$$$
