VSS.pdb
     RDKit          3D

 20 19  0  0  1  0  0  0  0  0999 V2000
   12.2074  -18.8821   12.0030 C   0  0  0  0  0  0  0  0  0  0  0  0
   12.9691  -18.6859   13.3052 C   0  0  1  0  0  0  0  0  0  0  0  0
   14.4525  -18.7837   13.0781 C   0  0  0  0  0  0  0  0  0  0  0  0
   12.5421  -17.3545   13.8665 C   0  0  2  0  0  0  0  0  0  0  0  0
   12.7960  -16.3385   12.8631 N   0  0  0  0  0  0  0  0  0  0  0  0
   13.2536  -17.0366   15.1378 C   0  0  0  0  0  0  0  0  0  0  0  0
   14.3068  -16.3758   15.0729 O   0  0  0  0  0  0  0  0  0  0  0  0
   11.5990  -17.7651   19.1603 O   0  0  0  0  0  0  0  0  0  0  0  0
   12.4504  -16.7699   18.7032 C   0  0  0  0  0  0  0  0  0  0  0  0
   13.3663  -17.2064   17.6223 C   0  0  2  0  0  0  0  0  0  0  0  0
   12.7340  -17.4803   16.3730 N   0  0  0  0  0  0  0  0  0  0  0  0
   14.3328  -18.2705   18.0629 C   0  0  0  0  0  0  0  0  0  0  0  0
   14.1840  -19.4753   17.7883 O   0  0  0  0  0  0  0  0  0  0  0  0
   17.7182  -16.9493   20.0353 O   0  0  0  0  0  0  0  0  0  0  0  0
   17.7804  -18.0938   19.2441 C   0  0  0  0  0  0  0  0  0  0  0  0
   16.4240  -18.8063   19.3038 C   0  0  2  0  0  0  0  0  0  0  0  0
   15.4519  -17.8377   18.8234 N   0  0  0  0  0  0  0  0  0  0  0  0
   16.0813  -19.1606   20.6898 C   0  0  0  0  0  0  0  0  0  0  0  0
   16.7459  -20.1864   21.3198 O   0  0  0  0  0  0  0  0  0  0  0  0
   15.1886  -18.5427   21.3157 O   0  0  0  0  0  0  0  0  0  0  0  0
  2  1  1  6
  2  4  1  0
  3  2  1  0
  4  5  1  6
  6 11  1  0
  6  4  1  0
  7  6  2  0
 10  9  1  1
  9  8  1  0
 10 12  1  0
 10 11  1  0
 12 17  1  0
 13 12  2  0
 15 14  1  0
 16 18  1  0
 16 15  1  1
 17 16  1  0
 18 19  1  0
 20 18  2  0
M  END
$$$$
