VSS.pdb
     RDKit          3D

 20 19  0  0  1  0  0  0  0  0999 V2000
    9.1437  -22.9538   15.5419 C   0  0  0  0  0  0  0  0  0  0  0  0
    9.7697  -22.6910   16.9033 C   0  0  1  0  0  0  0  0  0  0  0  0
   11.2232  -23.0766   16.9079 C   0  0  0  0  0  0  0  0  0  0  0  0
    9.5419  -21.2351   17.2168 C   0  0  2  0  0  0  0  0  0  0  0  0
    9.9396  -20.4559   16.0599 N   0  0  0  0  0  0  0  0  0  0  0  0
   10.2941  -20.8067   18.4310 C   0  0  0  0  0  0  0  0  0  0  0  0
   11.4098  -20.2766   18.2750 O   0  0  0  0  0  0  0  0  0  0  0  0
    8.4846  -20.1472   22.3421 O   0  0  0  0  0  0  0  0  0  0  0  0
    9.5860  -19.5877   21.7112 C   0  0  0  0  0  0  0  0  0  0  0  0
   10.3780  -20.5507   20.9092 C   0  0  2  0  0  0  0  0  0  0  0  0
    9.7422  -21.0040   19.7151 N   0  0  0  0  0  0  0  0  0  0  0  0
   10.9785  -21.6530   21.7367 C   0  0  0  0  0  0  0  0  0  0  0  0
   10.5234  -22.8114   21.7532 O   0  0  0  0  0  0  0  0  0  0  0  0
   14.4936  -20.7027   23.5934 O   0  0  0  0  0  0  0  0  0  0  0  0
   14.2841  -22.0212   23.1967 C   0  0  0  0  0  0  0  0  0  0  0  0
   12.7872  -22.3350   23.3062 C   0  0  2  0  0  0  0  0  0  0  0  0
   12.1150  -21.3143   22.5188 N   0  0  0  0  0  0  0  0  0  0  0  0
   12.3311  -22.2222   24.7002 C   0  0  0  0  0  0  0  0  0  0  0  0
   11.4859  -21.2007   25.0647 O   0  0  0  0  0  0  0  0  0  0  0  0
   12.6990  -23.0441   25.5718 O   0  0  0  0  0  0  0  0  0  0  0  0
  2  1  1  6
  2  4  1  0
  3  2  1  0
  4  5  1  6
  6 11  1  0
  6  4  1  0
  7  6  2  0
 10  9  1  1
  9  8  1  0
 10 12  1  0
 10 11  1  0
 12 17  1  0
 13 12  2  0
 15 14  1  0
 16 18  1  0
 16 15  1  1
 17 16  1  0
 18 19  1  0
 20 18  2  0
M  END
$$$$
