VSS.pdb
     RDKit          3D

 20 19  0  0  1  0  0  0  0  0999 V2000
    8.0159  -12.0960   18.7083 C   0  0  0  0  0  0  0  0  0  0  0  0
    8.3483  -13.2272   19.6697 C   0  0  1  0  0  0  0  0  0  0  0  0
    7.2377  -13.4297   20.6631 C   0  0  0  0  0  0  0  0  0  0  0  0
    8.6235  -14.4484   18.8313 C   0  0  2  0  0  0  0  0  0  0  0  0
    7.4480  -14.7179   18.0257 N   0  0  0  0  0  0  0  0  0  0  0  0
    8.9745  -15.6287   19.6722 C   0  0  0  0  0  0  0  0  0  0  0  0
    8.0631  -16.4141   19.9930 O   0  0  0  0  0  0  0  0  0  0  0  0
   11.6065  -19.1519   21.0209 O   0  0  0  0  0  0  0  0  0  0  0  0
   11.3500  -18.0522   20.2153 C   0  0  0  0  0  0  0  0  0  0  0  0
   10.7000  -16.9227   20.9221 C   0  0  2  0  0  0  0  0  0  0  0  0
   10.3083  -15.8357   20.0850 N   0  0  0  0  0  0  0  0  0  0  0  0
   11.4371  -16.5019   22.1632 C   0  0  0  0  0  0  0  0  0  0  0  0
   12.4265  -15.7471   22.1394 O   0  0  0  0  0  0  0  0  0  0  0  0
    9.7919  -17.8450   25.6027 O   0  0  0  0  0  0  0  0  0  0  0  0
   10.5552  -16.6860   25.7210 C   0  0  0  0  0  0  0  0  0  0  0  0
   11.6395  -16.6994   24.6370 C   0  0  2  0  0  0  0  0  0  0  0  0
   10.9485  -17.0106   23.3963 N   0  0  0  0  0  0  0  0  0  0  0  0
   12.6255  -17.7594   24.8984 C   0  0  0  0  0  0  0  0  0  0  0  0
   12.6683  -18.8708   24.0898 O   0  0  0  0  0  0  0  0  0  0  0  0
   13.4353  -17.6718   25.8508 O   0  0  0  0  0  0  0  0  0  0  0  0
  2  1  1  6
  2  4  1  0
  3  2  1  0
  4  5  1  1
  6 11  1  0
  6  4  1  0
  7  6  2  0
 10  9  1  6
  9  8  1  0
 10 12  1  0
 10 11  1  0
 12 17  1  0
 13 12  2  0
 15 14  1  0
 16 18  1  0
 16 15  1  1
 17 16  1  0
 18 19  1  0
 20 18  2  0
M  END
$$$$
