VSS.pdb
     RDKit          3D

 20 19  0  0  1  0  0  0  0  0999 V2000
   11.7769  -22.1910   11.5562 C   0  0  0  0  0  0  0  0  0  0  0  0
   12.2297  -21.7806   12.9494 C   0  0  1  0  0  0  0  0  0  0  0  0
   13.6917  -21.4287   12.9555 C   0  0  0  0  0  0  0  0  0  0  0  0
   11.3439  -20.6405   13.3800 C   0  0  2  0  0  0  0  0  0  0  0  0
   11.3665  -19.6320   12.3378 N   0  0  0  0  0  0  0  0  0  0  0  0
   11.7777  -20.0661   14.6859 C   0  0  0  0  0  0  0  0  0  0  0  0
   12.4478  -19.0168   14.6733 O   0  0  0  0  0  0  0  0  0  0  0  0
   11.2090  -19.5925   19.3997 O   0  0  0  0  0  0  0  0  0  0  0  0
   10.7734  -20.0475   18.1638 C   0  0  0  0  0  0  0  0  0  0  0  0
   11.8586  -20.2365   17.1716 C   0  0  2  0  0  0  0  0  0  0  0  0
   11.4298  -20.7068   15.8946 N   0  0  0  0  0  0  0  0  0  0  0  0
   13.0432  -20.9767   17.7278 C   0  0  0  0  0  0  0  0  0  0  0  0
   13.1436  -22.2168   17.6928 O   0  0  0  0  0  0  0  0  0  0  0  0
   16.6334  -19.6062   17.4685 O   0  0  0  0  0  0  0  0  0  0  0  0
   16.3671  -19.8230   18.8183 C   0  0  0  0  0  0  0  0  0  0  0  0
   15.2151  -20.8280   18.9362 C   0  0  2  0  0  0  0  0  0  0  0  0
   14.0708  -20.1868   18.3092 N   0  0  0  0  0  0  0  0  0  0  0  0
   14.8889  -21.0843   20.3476 C   0  0  0  0  0  0  0  0  0  0  0  0
   15.7637  -21.7944   21.1357 O   0  0  0  0  0  0  0  0  0  0  0  0
   13.8211  -20.6660   20.8530 O   0  0  0  0  0  0  0  0  0  0  0  0
  2  1  1  6
  2  4  1  0
  3  2  1  0
  4  5  1  6
  6 11  1  0
  6  4  1  0
  7  6  2  0
 10  9  1  1
  9  8  1  0
 10 12  1  0
 10 11  1  0
 12 17  1  0
 13 12  2  0
 15 14  1  0
 16 18  1  0
 16 15  1  1
 17 16  1  0
 18 19  1  0
 20 18  2  0
M  END
$$$$
