VSS.pdb
     RDKit          3D

 20 19  0  0  1  0  0  0  0  0999 V2000
    9.4115  -13.6560   28.9000 C   0  0  0  0  0  0  0  0  0  0  0  0
   10.2898  -14.5656   28.0541 C   0  0  1  0  0  0  0  0  0  0  0  0
   11.5820  -14.8707   28.7603 C   0  0  0  0  0  0  0  0  0  0  0  0
    9.4777  -15.7967   27.7463 C   0  0  2  0  0  0  0  0  0  0  0  0
    9.5238  -16.6696   28.9037 N   0  0  0  0  0  0  0  0  0  0  0  0
    9.9778  -16.4991   26.5297 C   0  0  0  0  0  0  0  0  0  0  0  0
   10.6720  -17.5210   26.6843 O   0  0  0  0  0  0  0  0  0  0  0  0
   10.0502  -16.6839   21.6471 O   0  0  0  0  0  0  0  0  0  0  0  0
    9.6225  -16.0295   22.7930 C   0  0  0  0  0  0  0  0  0  0  0  0
   10.2021  -16.5651   24.0479 C   0  0  2  0  0  0  0  0  0  0  0  0
    9.6637  -16.0058   25.2450 N   0  0  0  0  0  0  0  0  0  0  0  0
   11.7042  -16.6250   24.0246 C   0  0  0  0  0  0  0  0  0  0  0  0
   12.4248  -15.6555   24.3248 O   0  0  0  0  0  0  0  0  0  0  0  0
   13.2847  -20.1895   24.1665 O   0  0  0  0  0  0  0  0  0  0  0  0
   14.1735  -19.1309   24.3376 C   0  0  0  0  0  0  0  0  0  0  0  0
   13.7236  -17.9638   23.4508 C   0  0  2  0  0  0  0  0  0  0  0  0
   12.2854  -17.8622   23.6378 N   0  0  0  0  0  0  0  0  0  0  0  0
   13.9887  -18.2535   22.0331 C   0  0  0  0  0  0  0  0  0  0  0  0
   15.2846  -18.3495   21.5834 O   0  0  0  0  0  0  0  0  0  0  0  0
   13.0511  -18.4163   21.2177 O   0  0  0  0  0  0  0  0  0  0  0  0
  2  1  1  1
  2  4  1  0
  3  2  1  0
  4  5  1  1
  6 11  1  0
  6  4  1  0
  7  6  2  0
 10  9  1  6
  9  8  1  0
 10 12  1  0
 10 11  1  0
 12 17  1  0
 13 12  2  0
 15 14  1  0
 16 18  1  0
 16 15  1  1
 17 16  1  0
 18 19  1  0
 20 18  2  0
M  END
$$$$
