VSS.pdb
     RDKit          3D

 20 19  0  0  1  0  0  0  0  0999 V2000
    9.6307  -12.5055   19.9376 C   0  0  0  0  0  0  0  0  0  0  0  0
    8.4894  -13.3902   19.4588 C   0  0  1  0  0  0  0  0  0  0  0  0
    7.3131  -12.5594   19.0257 C   0  0  0  0  0  0  0  0  0  0  0  0
    9.0399  -14.2577   18.3569 C   0  0  2  0  0  0  0  0  0  0  0  0
    7.9901  -15.1606   17.9251 N   0  0  0  0  0  0  0  0  0  0  0  0
   10.2450  -15.0160   18.8000 C   0  0  0  0  0  0  0  0  0  0  0  0
   10.0761  -16.0328   19.4984 O   0  0  0  0  0  0  0  0  0  0  0  0
   15.0148  -15.7901   18.3920 O   0  0  0  0  0  0  0  0  0  0  0  0
   13.8763  -15.1319   17.9507 C   0  0  0  0  0  0  0  0  0  0  0  0
   12.7284  -15.2154   18.8851 C   0  0  2  0  0  0  0  0  0  0  0  0
   11.5352  -14.5797   18.4292 N   0  0  0  0  0  0  0  0  0  0  0  0
   13.0968  -14.8763   20.3027 C   0  0  0  0  0  0  0  0  0  0  0  0
   13.4389  -13.7336   20.6581 O   0  0  0  0  0  0  0  0  0  0  0  0
   12.1423  -17.6633   23.0651 O   0  0  0  0  0  0  0  0  0  0  0  0
   12.3078  -16.3426   23.4751 C   0  0  0  0  0  0  0  0  0  0  0  0
   13.4152  -15.7014   22.6303 C   0  0  2  0  0  0  0  0  0  0  0  0
   13.0372  -15.9366   21.2463 N   0  0  0  0  0  0  0  0  0  0  0  0
   14.7073  -16.3595   22.8777 C   0  0  0  0  0  0  0  0  0  0  0  0
   15.3047  -17.0943   21.8807 O   0  0  0  0  0  0  0  0  0  0  0  0
   15.2818  -16.2649   23.9874 O   0  0  0  0  0  0  0  0  0  0  0  0
  2  1  1  6
  2  4  1  0
  3  2  1  0
  4  5  1  1
  6 11  1  0
  6  4  1  0
  7  6  2  0
 10  9  1  6
  9  8  1  0
 10 12  1  0
 10 11  1  0
 12 17  1  0
 13 12  2  0
 15 14  1  0
 16 18  1  0
 16 15  1  1
 17 16  1  0
 18 19  1  0
 20 18  2  0
M  END
$$$$
