VSS.pdb
     RDKit          3D

 20 19  0  0  1  0  0  0  0  0999 V2000
    8.4114  -16.4733   18.0525 C   0  0  0  0  0  0  0  0  0  0  0  0
    8.4587  -15.0962   17.4078 C   0  0  1  0  0  0  0  0  0  0  0  0
    7.7215  -15.0927   16.0971 C   0  0  0  0  0  0  0  0  0  0  0  0
    7.8917  -14.1237   18.4092 C   0  0  2  0  0  0  0  0  0  0  0  0
    7.9890  -12.7896   17.8487 N   0  0  0  0  0  0  0  0  0  0  0  0
    8.5995  -14.2035   19.7193 C   0  0  0  0  0  0  0  0  0  0  0  0
    9.8270  -13.9960   19.7381 O   0  0  0  0  0  0  0  0  0  0  0  0
    6.7167  -15.7572   23.3886 O   0  0  0  0  0  0  0  0  0  0  0  0
    7.6188  -14.7053   23.3270 C   0  0  0  0  0  0  0  0  0  0  0  0
    8.5197  -14.7488   22.1504 C   0  0  2  0  0  0  0  0  0  0  0  0
    7.8827  -14.5070   20.8968 N   0  0  0  0  0  0  0  0  0  0  0  0
    9.4318  -15.9439   22.1505 C   0  0  0  0  0  0  0  0  0  0  0  0
    9.1572  -17.0048   21.5603 O   0  0  0  0  0  0  0  0  0  0  0  0
   13.2824  -15.3465   23.2181 O   0  0  0  0  0  0  0  0  0  0  0  0
   12.9065  -16.4739   22.4920 C   0  0  0  0  0  0  0  0  0  0  0  0
   11.5425  -16.9541   23.0018 C   0  0  2  0  0  0  0  0  0  0  0  0
   10.6511  -15.8133   22.8677 N   0  0  0  0  0  0  0  0  0  0  0  0
   11.6169  -17.3211   24.4244 C   0  0  0  0  0  0  0  0  0  0  0  0
   12.4191  -18.3646   24.8224 O   0  0  0  0  0  0  0  0  0  0  0  0
   10.9594  -16.6982   25.2905 O   0  0  0  0  0  0  0  0  0  0  0  0
  2  1  1  1
  2  4  1  0
  3  2  1  0
  4  5  1  6
  6 11  1  0
  6  4  1  0
  7  6  2  0
 10  9  1  1
  9  8  1  0
 10 12  1  0
 10 11  1  0
 12 17  1  0
 13 12  2  0
 15 14  1  0
 16 18  1  0
 16 15  1  1
 17 16  1  0
 18 19  1  0
 20 18  2  0
M  END
$$$$
