VSS.pdb
     RDKit          3D

 20 19  0  0  1  0  0  0  0  0999 V2000
    6.0446  -11.3859   25.9533 C   0  0  0  0  0  0  0  0  0  0  0  0
    7.0869  -12.4685   25.7169 C   0  0  1  0  0  0  0  0  0  0  0  0
    7.8904  -12.7199   26.9629 C   0  0  0  0  0  0  0  0  0  0  0  0
    6.3489  -13.6889   25.2314 C   0  0  2  0  0  0  0  0  0  0  0  0
    5.5009  -14.1626   26.3085 N   0  0  0  0  0  0  0  0  0  0  0  0
    7.2852  -14.7587   24.7815 C   0  0  0  0  0  0  0  0  0  0  0  0
    7.7022  -15.5699   25.6290 O   0  0  0  0  0  0  0  0  0  0  0  0
    8.5835  -14.5481   20.8701 O   0  0  0  0  0  0  0  0  0  0  0  0
    8.8764  -15.7519   21.4940 C   0  0  0  0  0  0  0  0  0  0  0  0
    8.6851  -15.7340   22.9640 C   0  0  2  0  0  0  0  0  0  0  0  0
    7.6782  -14.8359   23.4279 N   0  0  0  0  0  0  0  0  0  0  0  0
    9.9786  -15.6460   23.7254 C   0  0  0  0  0  0  0  0  0  0  0  0
   10.3008  -14.6502   24.3991 O   0  0  0  0  0  0  0  0  0  0  0  0
   11.4820  -17.9207   27.0041 O   0  0  0  0  0  0  0  0  0  0  0  0
   10.7317  -17.4974   25.9097 C   0  0  0  0  0  0  0  0  0  0  0  0
   11.6899  -17.1198   24.7738 C   0  0  2  0  0  0  0  0  0  0  0  0
   10.8413  -16.7718   23.6457 N   0  0  0  0  0  0  0  0  0  0  0  0
   12.5238  -18.2696   24.3909 C   0  0  0  0  0  0  0  0  0  0  0  0
   12.3058  -18.9057   23.1915 O   0  0  0  0  0  0  0  0  0  0  0  0
   13.4375  -18.6866   25.1404 O   0  0  0  0  0  0  0  0  0  0  0  0
  2  1  1  1
  2  4  1  0
  3  2  1  0
  4  5  1  1
  6 11  1  0
  6  4  1  0
  7  6  2  0
 10  9  1  6
  9  8  1  0
 10 12  1  0
 10 11  1  0
 12 17  1  0
 13 12  2  0
 15 14  1  0
 16 18  1  0
 16 15  1  1
 17 16  1  0
 18 19  1  0
 20 18  2  0
M  END
$$$$
