VSS.pdb
     RDKit          3D

 20 19  0  0  1  0  0  0  0  0999 V2000
    6.7354  -14.0494   18.7259 C   0  0  0  0  0  0  0  0  0  0  0  0
    7.5506  -14.6132   19.8800 C   0  0  1  0  0  0  0  0  0  0  0  0
    8.5197  -15.6549   19.3926 C   0  0  0  0  0  0  0  0  0  0  0  0
    8.2244  -13.4455   20.5524 C   0  0  2  0  0  0  0  0  0  0  0  0
    9.0711  -12.7881   19.5753 N   0  0  0  0  0  0  0  0  0  0  0  0
    9.0167  -13.8736   21.7409 C   0  0  0  0  0  0  0  0  0  0  0  0
   10.2380  -14.0670   21.5949 O   0  0  0  0  0  0  0  0  0  0  0  0
    7.1348  -14.6751   25.5756 O   0  0  0  0  0  0  0  0  0  0  0  0
    8.4385  -14.2224   25.4362 C   0  0  0  0  0  0  0  0  0  0  0  0
    9.0622  -14.5646   24.1356 C   0  0  2  0  0  0  0  0  0  0  0  0
    8.3842  -14.0504   22.9904 N   0  0  0  0  0  0  0  0  0  0  0  0
    9.4326  -16.0175   24.0239 C   0  0  0  0  0  0  0  0  0  0  0  0
    8.8162  -16.8190   23.2980 O   0  0  0  0  0  0  0  0  0  0  0  0
   12.0840  -17.8647   22.8462 O   0  0  0  0  0  0  0  0  0  0  0  0
   12.2314  -18.0266   24.2217 C   0  0  0  0  0  0  0  0  0  0  0  0
   10.8579  -17.8688   24.8847 C   0  0  2  0  0  0  0  0  0  0  0  0
   10.5419  -16.4523   24.7974 N   0  0  0  0  0  0  0  0  0  0  0  0
   10.9181  -18.2449   26.3056 C   0  0  0  0  0  0  0  0  0  0  0  0
   11.1367  -19.5556   26.6593 O   0  0  0  0  0  0  0  0  0  0  0  0
   10.7733  -17.3895   27.2099 O   0  0  0  0  0  0  0  0  0  0  0  0
  2  1  1  6
  2  4  1  0
  3  2  1  0
  4  5  1  6
  6 11  1  0
  6  4  1  0
  7  6  2  0
 10  9  1  1
  9  8  1  0
 10 12  1  0
 10 11  1  0
 12 17  1  0
 13 12  2  0
 15 14  1  0
 16 18  1  0
 16 15  1  1
 17 16  1  0
 18 19  1  0
 20 18  2  0
M  END
$$$$
