TRI.pdb
     RDKit          3D

 27 26  0  0  1  0  0  0  0  0999 V2000
   10.8295  -14.0634   20.1656 C   0  0  0  0  0  0  0  0  0  0  0  0
    9.8307  -13.2310   19.4226 C   0  0  1  0  0  0  0  0  0  0  0  0
   10.3686  -12.8705   18.1798 O   0  0  0  0  0  0  0  0  0  0  0  0
    8.5602  -14.0425   19.1607 C   0  0  2  0  0  0  0  0  0  0  0  0
    7.5691  -13.1129   18.5986 N   0  0  0  0  0  0  0  0  0  0  0  0
    8.0156  -14.5800   20.4161 C   0  0  0  0  0  0  0  0  0  0  0  0
    7.3249  -13.8109   21.1742 O   0  0  0  0  0  0  0  0  0  0  0  0
    8.9586  -19.7012   26.2818 N   0  0  0  0  0  0  0  0  0  0  0  0
    7.6029  -20.1400   26.2850 C   0  0  0  0  0  0  0  0  0  0  0  0
    7.0840  -20.5619   27.4066 N   0  0  0  0  0  0  0  0  0  0  0  0
    6.7850  -20.1409   25.1222 N   0  0  0  0  0  0  0  0  0  0  0  0
    7.3593  -19.7286   23.8590 C   0  0  0  0  0  0  0  0  0  0  0  0
    7.2799  -18.2407   23.6545 C   0  0  0  0  0  0  0  0  0  0  0  0
    7.7410  -17.8201   22.2783 C   0  0  0  0  0  0  0  0  0  0  0  0
    7.6123  -16.3102   22.1834 C   0  0  2  0  0  0  0  0  0  0  0  0
    8.1707  -15.9002   20.9013 N   0  0  0  0  0  0  0  0  0  0  0  0
    8.2591  -15.6234   23.3130 C   0  0  0  0  0  0  0  0  0  0  0  0
    9.5109  -15.5087   23.3416 O   0  0  0  0  0  0  0  0  0  0  0  0
    6.0884  -20.8613   27.4533 C   0  0  0  0  0  0  0  0  0  0  0  0
    6.7192  -11.2597   27.3406 C   0  0  0  0  0  0  0  0  0  0  0  0
    7.7259  -12.2828   26.8980 C   0  0  2  0  0  0  0  0  0  0  0  0
    7.1776  -13.2195   25.8589 C   0  0  0  0  0  0  0  0  0  0  0  0
    5.9748  -13.9241   26.4365 C   0  0  2  0  0  0  0  0  0  0  0  0
    8.1743  -14.2527   25.4176 N   0  0  0  0  0  0  0  0  0  0  0  0
    7.5380  -15.0673   24.4018 C   0  0  0  0  0  0  0  0  0  0  0  0
    8.6441  -15.1155   26.5006 O   0  0  0  0  0  0  0  0  0  0  0  0
    8.1440  -16.2546   26.6814 O   0  0  0  0  0  0  0  0  0  0  0  0
  2  1  1  6
  3  2  1  0
  4  2  1  0
  4  5  1  1
  6  4  1  0
  6 16  1  0
  7  6  2  0
  9  8  1  0
 10  9  2  0
 11  9  1  0
 12 13  1  0
 12 11  1  0
 13 14  1  0
 15 14  1  1
 15 16  1  0
 17 15  1  0
 18 17  2  0
 19 20  1  0
 21 20  1  0
 21 23  1  0
 21 22  1  6
 23 25  1  0
 23 24  1  1
 24 17  1  0
 25 27  1  0
 26 25  2  0
M  END
$$$$
