TRI.pdb
     RDKit          3D

 27 26  0  0  1  0  0  0  0  0999 V2000
    8.4941  -12.4970   20.0661 C   0  0  0  0  0  0  0  0  0  0  0  0
    7.8160  -13.3290   19.0218 C   0  0  1  0  0  0  0  0  0  0  0  0
    8.1749  -12.8537   17.7532 O   0  0  0  0  0  0  0  0  0  0  0  0
    8.2830  -14.7827   19.1220 C   0  0  2  0  0  0  0  0  0  0  0  0
    7.5772  -15.5303   18.0707 N   0  0  0  0  0  0  0  0  0  0  0  0
    7.9084  -15.3633   20.4196 C   0  0  0  0  0  0  0  0  0  0  0  0
    6.6668  -15.5326   20.6902 O   0  0  0  0  0  0  0  0  0  0  0  0
   11.8663  -19.0990   20.1174 N   0  0  0  0  0  0  0  0  0  0  0  0
   12.6849  -19.1396   21.2831 C   0  0  0  0  0  0  0  0  0  0  0  0
   13.9798  -19.0476   21.1424 N   0  0  0  0  0  0  0  0  0  0  0  0
   12.1582  -19.2759   22.5965 N   0  0  0  0  0  0  0  0  0  0  0  0
   10.7256  -19.2005   22.7903 C   0  0  0  0  0  0  0  0  0  0  0  0
   10.2000  -17.8012   22.6237 C   0  0  0  0  0  0  0  0  0  0  0  0
    8.7104  -17.7103   22.8613 C   0  0  0  0  0  0  0  0  0  0  0  0
    8.3040  -16.2535   22.7285 C   0  0  2  0  0  0  0  0  0  0  0  0
    8.7952  -15.7745   21.4429 N   0  0  0  0  0  0  0  0  0  0  0  0
    8.7945  -15.4334   23.8480 C   0  0  0  0  0  0  0  0  0  0  0  0
    9.9185  -14.8753   23.7692 O   0  0  0  0  0  0  0  0  0  0  0  0
   14.6105  -19.1035   21.9683 C   0  0  0  0  0  0  0  0  0  0  0  0
    5.9259  -11.6168   25.7572 C   0  0  0  0  0  0  0  0  0  0  0  0
    7.0740  -12.5139   25.3922 C   0  0  2  0  0  0  0  0  0  0  0  0
    7.4511  -13.4498   26.5057 C   0  0  0  0  0  0  0  0  0  0  0  0
    7.9079  -12.6293   27.6867 C   0  0  2  0  0  0  0  0  0  0  0  0
    8.5508  -14.3992   26.1253 N   0  0  0  0  0  0  0  0  0  0  0  0
    8.0576  -15.2279   25.0435 C   0  0  0  0  0  0  0  0  0  0  0  0
    8.9926  -15.2566   27.2242 O   0  0  0  0  0  0  0  0  0  0  0  0
    8.4762  -16.3880   27.4077 O   0  0  0  0  0  0  0  0  0  0  0  0
  2  1  1  1
  3  2  1  0
  4  2  1  0
  4  5  1  6
  6  4  1  0
  6 16  1  0
  7  6  2  0
  9  8  1  0
 10  9  2  0
 11  9  1  0
 12 13  1  0
 12 11  1  0
 13 14  1  0
 15 14  1  1
 15 16  1  0
 17 15  1  0
 18 17  2  0
 19 20  1  0
 21 20  1  0
 21 23  1  0
 21 22  1  1
 23 25  1  0
 23 24  1  6
 24 17  1  0
 25 27  1  0
 26 25  2  0
M  END
$$$$
