TRI.pdb
     RDKit          3D

 27 26  0  0  1  0  0  0  0  0999 V2000
    6.0589  -17.6506   25.2924 C   0  0  0  0  0  0  0  0  0  0  0  0
    6.6103  -18.7566   24.4466 C   0  0  1  0  0  0  0  0  0  0  0  0
    5.9114  -19.9388   24.7256 O   0  0  0  0  0  0  0  0  0  0  0  0
    6.4077  -18.4365   22.9641 C   0  0  2  0  0  0  0  0  0  0  0  0
    6.7438  -19.6565   22.2150 N   0  0  0  0  0  0  0  0  0  0  0  0
    7.3237  -17.3719   22.5297 C   0  0  0  0  0  0  0  0  0  0  0  0
    8.5878  -17.5773   22.5861 O   0  0  0  0  0  0  0  0  0  0  0  0
    9.9510  -14.3047   16.9470 N   0  0  0  0  0  0  0  0  0  0  0  0
    8.5680  -14.2921   16.6043 C   0  0  0  0  0  0  0  0  0  0  0  0
    8.1911  -14.8787   15.5002 N   0  0  0  0  0  0  0  0  0  0  0  0
    7.5750  -13.6697   17.4089 N   0  0  0  0  0  0  0  0  0  0  0  0
    7.9769  -12.9983   18.6268 C   0  0  0  0  0  0  0  0  0  0  0  0
    8.4035  -13.9647   19.6973 C   0  0  0  0  0  0  0  0  0  0  0  0
    7.3904  -14.0772   20.8128 C   0  0  0  0  0  0  0  0  0  0  0  0
    7.9412  -15.0405   21.8491 C   0  0  2  0  0  0  0  0  0  0  0  0
    6.9560  -16.0978   22.0354 N   0  0  0  0  0  0  0  0  0  0  0  0
    8.2753  -14.3670   23.1145 C   0  0  0  0  0  0  0  0  0  0  0  0
    8.2320  -13.1124   23.1858 O   0  0  0  0  0  0  0  0  0  0  0  0
    7.2004  -14.8339   15.1848 C   0  0  0  0  0  0  0  0  0  0  0  0
    6.7276  -11.8865   27.4508 C   0  0  0  0  0  0  0  0  0  0  0  0
    7.9443  -12.6934   27.0979 C   0  0  2  0  0  0  0  0  0  0  0  0
    7.7332  -13.5548   25.8849 C   0  0  0  0  0  0  0  0  0  0  0  0
    6.5700  -14.4785   26.1503 C   0  0  2  0  0  0  0  0  0  0  0  0
    8.9366  -14.3839   25.5389 N   0  0  0  0  0  0  0  0  0  0  0  0
    8.6537  -15.0648   24.2912 C   0  0  0  0  0  0  0  0  0  0  0  0
    9.2808  -15.3735   26.5588 O   0  0  0  0  0  0  0  0  0  0  0  0
    8.8792  -16.5612   26.4671 O   0  0  0  0  0  0  0  0  0  0  0  0
  2  1  1  1
  3  2  1  0
  4  2  1  0
  4  5  1  6
  6  4  1  0
  6 16  1  0
  7  6  2  0
  9  8  1  0
 10  9  2  0
 11  9  1  0
 12 13  1  0
 12 11  1  0
 13 14  1  0
 15 14  1  6
 15 16  1  0
 17 15  1  0
 18 17  2  0
 19 20  1  0
 21 20  1  0
 21 23  1  0
 21 22  1  6
 23 25  1  0
 23 24  1  1
 24 17  1  0
 25 27  1  0
 26 25  2  0
M  END
$$$$
