TRI.pdb
     RDKit          3D

 27 26  0  0  1  0  0  0  0  0999 V2000
    8.0896  -11.6317   24.7162 C   0  0  0  0  0  0  0  0  0  0  0  0
    7.0432  -11.8756   25.7594 C   0  0  1  0  0  0  0  0  0  0  0  0
    6.3751  -10.6733   26.0280 O   0  0  0  0  0  0  0  0  0  0  0  0
    6.0078  -12.8765   25.2424 C   0  0  2  0  0  0  0  0  0  0  0  0
    4.9588  -12.9727   26.2684 N   0  0  0  0  0  0  0  0  0  0  0  0
    6.6057  -14.2097   25.0801 C   0  0  0  0  0  0  0  0  0  0  0  0
    6.6766  -14.9877   26.0965 O   0  0  0  0  0  0  0  0  0  0  0  0
    9.8805  -13.4083   19.5533 N   0  0  0  0  0  0  0  0  0  0  0  0
    8.5431  -13.3661   19.0634 C   0  0  0  0  0  0  0  0  0  0  0  0
    8.1482  -12.3058   18.4115 N   0  0  0  0  0  0  0  0  0  0  0  0
    7.6145  -14.4262   19.2506 N   0  0  0  0  0  0  0  0  0  0  0  0
    7.9807  -15.5390   20.1009 C   0  0  0  0  0  0  0  0  0  0  0  0
    7.7517  -15.2437   21.5577 C   0  0  0  0  0  0  0  0  0  0  0  0
    8.1139  -16.4094   22.4485 C   0  0  0  0  0  0  0  0  0  0  0  0
    7.9368  -15.9684   23.8905 C   0  0  2  0  0  0  0  0  0  0  0  0
    7.1306  -14.7546   23.8841 N   0  0  0  0  0  0  0  0  0  0  0  0
    9.2246  -15.7730   24.5760 C   0  0  0  0  0  0  0  0  0  0  0  0
    9.9046  -14.7404   24.3474 O   0  0  0  0  0  0  0  0  0  0  0  0
    7.1669  -12.2224   18.0750 C   0  0  0  0  0  0  0  0  0  0  0  0
   10.5890  -14.0297   29.4994 C   0  0  0  0  0  0  0  0  0  0  0  0
   11.2090  -14.9230   28.4632 C   0  0  2  0  0  0  0  0  0  0  0  0
   10.2216  -15.3715   27.4231 C   0  0  0  0  0  0  0  0  0  0  0  0
    9.0562  -16.0285   28.1211 C   0  0  2  0  0  0  0  0  0  0  0  0
   10.8067  -16.3467   26.4423 N   0  0  0  0  0  0  0  0  0  0  0  0
    9.7610  -16.7031   25.5043 C   0  0  0  0  0  0  0  0  0  0  0  0
   11.3294  -17.5626   27.0639 O   0  0  0  0  0  0  0  0  0  0  0  0
   10.6098  -18.5863   27.1843 O   0  0  0  0  0  0  0  0  0  0  0  0
  2  1  1  6
  3  2  1  0
  4  2  1  0
  4  5  1  1
  6  4  1  0
  6 16  1  0
  7  6  2  0
  9  8  1  0
 10  9  2  0
 11  9  1  0
 12 13  1  0
 12 11  1  0
 13 14  1  0
 15 14  1  6
 15 16  1  0
 17 15  1  0
 18 17  2  0
 19 20  1  0
 21 20  1  0
 21 23  1  0
 21 22  1  6
 23 25  1  0
 23 24  1  1
 24 17  1  0
 25 27  1  0
 26 25  2  0
M  END
$$$$
