TRI.pdb
     RDKit          3D

 27 26  0  0  1  0  0  0  0  0999 V2000
    9.6771  -12.9427   20.2291 C   0  0  0  0  0  0  0  0  0  0  0  0
    8.5866  -13.1046   19.2156 C   0  0  1  0  0  0  0  0  0  0  0  0
    9.0781  -12.7475   17.9527 O   0  0  0  0  0  0  0  0  0  0  0  0
    8.1464  -14.5684   19.1454 C   0  0  2  0  0  0  0  0  0  0  0  0
    7.0738  -14.6431   18.1422 N   0  0  0  0  0  0  0  0  0  0  0  0
    7.5926  -15.0096   20.4338 C   0  0  0  0  0  0  0  0  0  0  0  0
    6.5073  -14.4766   20.8598 O   0  0  0  0  0  0  0  0  0  0  0  0
    8.7786  -19.3603   26.6534 N   0  0  0  0  0  0  0  0  0  0  0  0
    7.4501  -19.8584   26.7854 C   0  0  0  0  0  0  0  0  0  0  0  0
    7.0361  -20.2326   27.9660 N   0  0  0  0  0  0  0  0  0  0  0  0
    6.5504  -19.9683   25.6903 N   0  0  0  0  0  0  0  0  0  0  0  0
    7.0213  -19.6486   24.3593 C   0  0  0  0  0  0  0  0  0  0  0  0
    7.0217  -18.1681   24.0943 C   0  0  0  0  0  0  0  0  0  0  0  0
    7.5062  -17.8291   22.7037 C   0  0  0  0  0  0  0  0  0  0  0  0
    7.5244  -16.3168   22.5707 C   0  0  2  0  0  0  0  0  0  0  0  0
    8.1401  -15.9945   21.2899 N   0  0  0  0  0  0  0  0  0  0  0  0
    8.2158  -15.6665   23.6956 C   0  0  0  0  0  0  0  0  0  0  0  0
    9.4707  -15.7052   23.7652 O   0  0  0  0  0  0  0  0  0  0  0  0
    6.0682  -20.5898   28.1024 C   0  0  0  0  0  0  0  0  0  0  0  0
    5.9304  -11.2126   25.7612 C   0  0  0  0  0  0  0  0  0  0  0  0
    6.9566  -12.1945   25.2724 C   0  0  2  0  0  0  0  0  0  0  0  0
    7.3239  -13.2120   26.3154 C   0  0  0  0  0  0  0  0  0  0  0  0
    8.0119  -12.5022   27.4554 C   0  0  2  0  0  0  0  0  0  0  0  0
    8.2389  -14.2820   25.7928 N   0  0  0  0  0  0  0  0  0  0  0  0
    7.5356  -14.9797   24.7350 C   0  0  0  0  0  0  0  0  0  0  0  0
    8.6558  -15.2464   26.8097 O   0  0  0  0  0  0  0  0  0  0  0  0
    7.9649  -16.2683   27.0518 O   0  0  0  0  0  0  0  0  0  0  0  0
  2  1  1  1
  3  2  1  0
  4  2  1  0
  4  5  1  6
  6  4  1  0
  6 16  1  0
  7  6  2  0
  9  8  1  0
 10  9  2  0
 11  9  1  0
 12 13  1  0
 12 11  1  0
 13 14  1  0
 15 14  1  1
 15 16  1  0
 17 15  1  0
 18 17  2  0
 19 20  1  0
 21 20  1  0
 21 23  1  0
 21 22  1  1
 23 25  1  0
 23 24  1  6
 24 17  1  0
 25 27  1  0
 26 25  2  0
M  END
$$$$
