TRI.pdb
     RDKit          3D

 27 26  0  0  1  0  0  0  0  0999 V2000
    8.3448  -12.1186   19.8768 C   0  0  0  0  0  0  0  0  0  0  0  0
    7.5240  -12.9344   18.9263 C   0  0  1  0  0  0  0  0  0  0  0  0
    7.4426  -12.2632   17.6987 O   0  0  0  0  0  0  0  0  0  0  0  0
    8.1984  -14.2844   18.6733 C   0  0  2  0  0  0  0  0  0  0  0  0
    7.3063  -15.0470   17.7874 N   0  0  0  0  0  0  0  0  0  0  0  0
    8.3442  -15.0385   19.9269 C   0  0  0  0  0  0  0  0  0  0  0  0
    7.3250  -15.6498   20.4073 O   0  0  0  0  0  0  0  0  0  0  0  0
   13.6984  -15.6174   18.7499 N   0  0  0  0  0  0  0  0  0  0  0  0
   14.5727  -15.4007   19.8540 C   0  0  0  0  0  0  0  0  0  0  0  0
   15.5776  -14.5802   19.7053 N   0  0  0  0  0  0  0  0  0  0  0  0
   14.4034  -16.0367   21.1141 N   0  0  0  0  0  0  0  0  0  0  0  0
   13.2374  -16.8667   21.3311 C   0  0  0  0  0  0  0  0  0  0  0  0
   11.9820  -16.0553   21.4968 C   0  0  0  0  0  0  0  0  0  0  0  0
   10.7716  -16.9134   21.7835 C   0  0  0  0  0  0  0  0  0  0  0  0
    9.5652  -15.9982   21.8936 C   0  0  2  0  0  0  0  0  0  0  0  0
    9.5266  -15.1738   20.6926 N   0  0  0  0  0  0  0  0  0  0  0  0
    9.5915  -15.1862   23.1208 C   0  0  0  0  0  0  0  0  0  0  0  0
   10.5299  -14.3714   23.3118 O   0  0  0  0  0  0  0  0  0  0  0  0
   16.2496  -14.4149   20.4826 C   0  0  0  0  0  0  0  0  0  0  0  0
    6.2133  -11.7244   26.4784 C   0  0  0  0  0  0  0  0  0  0  0  0
    7.4005  -12.6439   26.5149 C   0  0  2  0  0  0  0  0  0  0  0  0
    7.4122  -13.6162   25.3693 C   0  0  0  0  0  0  0  0  0  0  0  0
    6.2082  -14.5172   25.4937 C   0  0  2  0  0  0  0  0  0  0  0  0
    8.6488  -14.4678   25.3368 N   0  0  0  0  0  0  0  0  0  0  0  0
    8.5964  -15.2679   24.1296 C   0  0  0  0  0  0  0  0  0  0  0  0
    8.7836  -15.3519   26.4936 O   0  0  0  0  0  0  0  0  0  0  0  0
    8.4673  -16.5662   26.4180 O   0  0  0  0  0  0  0  0  0  0  0  0
  2  1  1  1
  3  2  1  0
  4  2  1  0
  4  5  1  6
  6  4  1  0
  6 16  1  0
  7  6  2  0
  9  8  1  0
 10  9  2  0
 11  9  1  0
 12 13  1  0
 12 11  1  0
 13 14  1  0
 15 14  1  6
 15 16  1  0
 17 15  1  0
 18 17  2  0
 19 20  1  0
 21 20  1  0
 21 23  1  0
 21 22  1  6
 23 25  1  0
 23 24  1  1
 24 17  1  0
 25 27  1  0
 26 25  2  0
M  END
$$$$
