TRI.pdb
     RDKit          3D

 27 26  0  0  1  0  0  0  0  0999 V2000
    8.8929  -12.6135   19.6118 C   0  0  0  0  0  0  0  0  0  0  0  0
    8.0134  -13.3856   18.6774 C   0  0  1  0  0  0  0  0  0  0  0  0
    8.3212  -13.0278   17.3578 O   0  0  0  0  0  0  0  0  0  0  0  0
    8.2771  -14.8856   18.8251 C   0  0  2  0  0  0  0  0  0  0  0  0
    7.4118  -15.5682   17.8517 N   0  0  0  0  0  0  0  0  0  0  0  0
    7.9033  -15.3519   20.1682 C   0  0  0  0  0  0  0  0  0  0  0  0
    6.6845  -15.2387   20.5492 O   0  0  0  0  0  0  0  0  0  0  0  0
    6.1794  -20.7388   24.9372 N   0  0  0  0  0  0  0  0  0  0  0  0
    7.1624  -20.5035   25.9416 C   0  0  0  0  0  0  0  0  0  0  0  0
    6.8364  -20.6888   27.1924 N   0  0  0  0  0  0  0  0  0  0  0  0
    8.4856  -20.0754   25.6468 N   0  0  0  0  0  0  0  0  0  0  0  0
    8.8092  -19.6742   24.2941 C   0  0  0  0  0  0  0  0  0  0  0  0
    8.4100  -18.2524   24.0094 C   0  0  0  0  0  0  0  0  0  0  0  0
    8.7149  -17.8390   22.5882 C   0  0  0  0  0  0  0  0  0  0  0  0
    8.2725  -16.3969   22.4158 C   0  0  2  0  0  0  0  0  0  0  0  0
    8.7672  -15.9357   21.1250 N   0  0  0  0  0  0  0  0  0  0  0  0
    8.7275  -15.5381   23.5211 C   0  0  0  0  0  0  0  0  0  0  0  0
    9.9399  -15.2151   23.6040 O   0  0  0  0  0  0  0  0  0  0  0  0
    7.5087  -20.4695   27.9560 C   0  0  0  0  0  0  0  0  0  0  0  0
    6.3426  -11.4057   27.4088 C   0  0  0  0  0  0  0  0  0  0  0  0
    7.5030  -12.2844   27.0384 C   0  0  2  0  0  0  0  0  0  0  0  0
    7.1647  -13.2549   25.9422 C   0  0  0  0  0  0  0  0  0  0  0  0
    6.0171  -14.1186   26.4049 C   0  0  2  0  0  0  0  0  0  0  0  0
    8.3167  -14.1441   25.5712 N   0  0  0  0  0  0  0  0  0  0  0  0
    7.8593  -15.0383   24.5265 C   0  0  0  0  0  0  0  0  0  0  0  0
    8.8321  -14.9343   26.6883 O   0  0  0  0  0  0  0  0  0  0  0  0
    8.4278  -16.1074   26.8897 O   0  0  0  0  0  0  0  0  0  0  0  0
  2  1  1  1
  3  2  1  0
  4  2  1  0
  4  5  1  6
  6  4  1  0
  6 16  1  0
  7  6  2  0
  9  8  1  0
 10  9  2  0
 11  9  1  0
 12 13  1  0
 12 11  1  0
 13 14  1  0
 15 14  1  1
 15 16  1  0
 17 15  1  0
 18 17  2  0
 19 20  1  0
 21 20  1  0
 21 23  1  0
 21 22  1  6
 23 25  1  0
 23 24  1  1
 24 17  1  0
 25 27  1  0
 26 25  2  0
M  END
$$$$
