TRI.pdb
     RDKit          3D

 27 26  0  0  1  0  0  0  0  0999 V2000
    6.6735  -18.1279   26.0323 C   0  0  0  0  0  0  0  0  0  0  0  0
    7.3151  -19.3426   25.4361 C   0  0  1  0  0  0  0  0  0  0  0  0
    6.7847  -20.4872   26.0465 O   0  0  0  0  0  0  0  0  0  0  0  0
    6.9986  -19.4249   23.9413 C   0  0  2  0  0  0  0  0  0  0  0  0
    7.5047  -20.7224   23.4694 N   0  0  0  0  0  0  0  0  0  0  0  0
    7.7016  -18.3680   23.1996 C   0  0  0  0  0  0  0  0  0  0  0  0
    8.9772  -18.4292   23.0883 O   0  0  0  0  0  0  0  0  0  0  0  0
    8.4849  -12.9231   16.2812 N   0  0  0  0  0  0  0  0  0  0  0  0
    8.3010  -13.7330   17.4391 C   0  0  0  0  0  0  0  0  0  0  0  0
    9.3051  -14.4491   17.8684 N   0  0  0  0  0  0  0  0  0  0  0  0
    7.0730  -13.7995   18.1523 N   0  0  0  0  0  0  0  0  0  0  0  0
    7.0479  -13.4093   19.5460 C   0  0  0  0  0  0  0  0  0  0  0  0
    7.8595  -14.3331   20.4121 C   0  0  0  0  0  0  0  0  0  0  0  0
    6.9966  -15.2374   21.2614 C   0  0  0  0  0  0  0  0  0  0  0  0
    7.9151  -16.1483   22.0562 C   0  0  2  0  0  0  0  0  0  0  0  0
    7.1087  -17.2487   22.5685 N   0  0  0  0  0  0  0  0  0  0  0  0
    8.6178  -15.4305   23.1320 C   0  0  0  0  0  0  0  0  0  0  0  0
    9.5351  -14.6191   22.8472 O   0  0  0  0  0  0  0  0  0  0  0  0
    9.1737  -15.1498   18.6265 C   0  0  0  0  0  0  0  0  0  0  0  0
    6.7636  -11.7023   26.9949 C   0  0  0  0  0  0  0  0  0  0  0  0
    7.9217  -12.6255   26.7443 C   0  0  2  0  0  0  0  0  0  0  0  0
    7.5877  -13.7176   25.7678 C   0  0  0  0  0  0  0  0  0  0  0  0
    6.4290  -14.5131   26.3170 C   0  0  2  0  0  0  0  0  0  0  0  0
    8.7370  -14.6516   25.5183 N   0  0  0  0  0  0  0  0  0  0  0  0
    8.3161  -15.6019   24.5083 C   0  0  0  0  0  0  0  0  0  0  0  0
    9.1723  -15.3784   26.7100 O   0  0  0  0  0  0  0  0  0  0  0  0
    8.8764  -16.5895   26.8712 O   0  0  0  0  0  0  0  0  0  0  0  0
  2  1  1  1
  3  2  1  0
  4  2  1  0
  4  5  1  6
  6  4  1  0
  6 16  1  0
  7  6  2  0
  9  8  1  0
 10  9  2  0
 11  9  1  0
 12 13  1  0
 12 11  1  0
 13 14  1  0
 15 14  1  1
 15 16  1  0
 17 15  1  0
 18 17  2  0
 19 20  1  0
 21 20  1  0
 21 23  1  0
 21 22  1  6
 23 25  1  0
 23 24  1  1
 24 17  1  0
 25 27  1  0
 26 25  2  0
M  END
$$$$
