TRI.pdb
     RDKit          3D

 27 26  0  0  1  0  0  0  0  0999 V2000
    8.6989  -12.3865   19.7252 C   0  0  0  0  0  0  0  0  0  0  0  0
    8.1251  -13.2274   18.6269 C   0  0  1  0  0  0  0  0  0  0  0  0
    8.6687  -12.8153   17.4027 O   0  0  0  0  0  0  0  0  0  0  0  0
    8.5065  -14.6948   18.8336 C   0  0  2  0  0  0  0  0  0  0  0  0
    7.9035  -15.4518   17.7265 N   0  0  0  0  0  0  0  0  0  0  0  0
    7.9452  -15.2082   20.0916 C   0  0  0  0  0  0  0  0  0  0  0  0
    6.6764  -15.3628   20.1894 O   0  0  0  0  0  0  0  0  0  0  0  0
   11.0579  -19.3387   19.7706 N   0  0  0  0  0  0  0  0  0  0  0  0
   11.7020  -19.7705   20.9661 C   0  0  0  0  0  0  0  0  0  0  0  0
   12.9667  -20.0918   20.9150 N   0  0  0  0  0  0  0  0  0  0  0  0
   11.0322  -19.8689   22.2161 N   0  0  0  0  0  0  0  0  0  0  0  0
    9.6447  -19.4655   22.3034 C   0  0  0  0  0  0  0  0  0  0  0  0
    9.4855  -17.9702   22.3283 C   0  0  0  0  0  0  0  0  0  0  0  0
    8.0417  -17.5438   22.4595 C   0  0  0  0  0  0  0  0  0  0  0  0
    8.0007  -16.0261   22.4597 C   0  0  2  0  0  0  0  0  0  0  0  0
    8.6729  -15.5670   21.2511 N   0  0  0  0  0  0  0  0  0  0  0  0
    8.5981  -15.4523   23.6763 C   0  0  0  0  0  0  0  0  0  0  0  0
    9.8273  -15.1896   23.7056 O   0  0  0  0  0  0  0  0  0  0  0  0
   13.4857  -20.3505   21.7792 C   0  0  0  0  0  0  0  0  0  0  0  0
    5.8177  -11.6275   25.9899 C   0  0  0  0  0  0  0  0  0  0  0  0
    6.9547  -12.4786   25.5010 C   0  0  2  0  0  0  0  0  0  0  0  0
    7.3636  -13.5240   26.4999 C   0  0  0  0  0  0  0  0  0  0  0  0
    7.8976  -12.8293   27.7284 C   0  0  2  0  0  0  0  0  0  0  0  0
    8.4202  -14.4535   25.9754 N   0  0  0  0  0  0  0  0  0  0  0  0
    7.8525  -15.1695   24.8505 C   0  0  0  0  0  0  0  0  0  0  0  0
    8.8990  -15.4167   26.9658 O   0  0  0  0  0  0  0  0  0  0  0  0
    9.7086  -15.0712   27.8632 O   0  0  0  0  0  0  0  0  0  0  0  0
  2  1  1  1
  3  2  1  0
  4  2  1  0
  4  5  1  6
  6  4  1  0
  6 16  1  0
  7  6  2  0
  9  8  1  0
 10  9  2  0
 11  9  1  0
 12 13  1  0
 12 11  1  0
 13 14  1  0
 15 14  1  1
 15 16  1  0
 17 15  1  0
 18 17  2  0
 19 20  1  0
 21 20  1  0
 21 23  1  0
 21 22  1  1
 23 25  1  0
 23 24  1  6
 24 17  1  0
 25 27  1  0
 26 25  2  0
M  END
$$$$
