TRI.pdb
     RDKit          3D

 27 26  0  0  1  0  0  0  0  0999 V2000
    8.4695  -12.5267   19.9599 C   0  0  0  0  0  0  0  0  0  0  0  0
    7.9973  -13.3105   18.7745 C   0  0  1  0  0  0  0  0  0  0  0  0
    8.5295  -12.7433   17.6087 O   0  0  0  0  0  0  0  0  0  0  0  0
    8.5026  -14.7522   18.8616 C   0  0  2  0  0  0  0  0  0  0  0  0
    7.9112  -15.4800   17.7290 N   0  0  0  0  0  0  0  0  0  0  0  0
    8.0417  -15.3931   20.1018 C   0  0  0  0  0  0  0  0  0  0  0  0
    6.7958  -15.6635   20.2365 O   0  0  0  0  0  0  0  0  0  0  0  0
   11.8413  -18.7860   19.8970 N   0  0  0  0  0  0  0  0  0  0  0  0
   12.5005  -19.2759   21.0614 C   0  0  0  0  0  0  0  0  0  0  0  0
   13.7985  -19.4156   21.0341 N   0  0  0  0  0  0  0  0  0  0  0  0
   11.8110  -19.6212   22.2557 N   0  0  0  0  0  0  0  0  0  0  0  0
   10.3794  -19.4177   22.3244 C   0  0  0  0  0  0  0  0  0  0  0  0
   10.0121  -17.9602   22.3787 C   0  0  0  0  0  0  0  0  0  0  0  0
    8.5236  -17.7434   22.5231 C   0  0  0  0  0  0  0  0  0  0  0  0
    8.2592  -16.2503   22.4465 C   0  0  2  0  0  0  0  0  0  0  0  0
    8.8467  -15.7618   21.2057 N   0  0  0  0  0  0  0  0  0  0  0  0
    8.7750  -15.5316   23.6228 C   0  0  0  0  0  0  0  0  0  0  0  0
    9.9825  -15.1832   23.6631 O   0  0  0  0  0  0  0  0  0  0  0  0
   14.3106  -19.7951   21.8568 C   0  0  0  0  0  0  0  0  0  0  0  0
    5.8520  -11.6563   25.5559 C   0  0  0  0  0  0  0  0  0  0  0  0
    6.9833  -12.5616   25.1600 C   0  0  2  0  0  0  0  0  0  0  0  0
    7.4182  -13.4647   26.2794 C   0  0  0  0  0  0  0  0  0  0  0  0
    7.9511  -12.6110   27.4038 C   0  0  2  0  0  0  0  0  0  0  0  0
    8.4856  -14.4370   25.8663 N   0  0  0  0  0  0  0  0  0  0  0  0
    7.9724  -15.1984   24.7450 C   0  0  0  0  0  0  0  0  0  0  0  0
    8.8846  -15.3578   26.9297 O   0  0  0  0  0  0  0  0  0  0  0  0
    8.2542  -16.4272   27.1276 O   0  0  0  0  0  0  0  0  0  0  0  0
  2  1  1  1
  3  2  1  0
  4  2  1  0
  4  5  1  6
  6  4  1  0
  6 16  1  0
  7  6  2  0
  9  8  1  0
 10  9  2  0
 11  9  1  0
 12 13  1  0
 12 11  1  0
 13 14  1  0
 15 14  1  1
 15 16  1  0
 17 15  1  0
 18 17  2  0
 19 20  1  0
 21 20  1  0
 21 23  1  0
 21 22  1  1
 23 25  1  0
 23 24  1  6
 24 17  1  0
 25 27  1  0
 26 25  2  0
M  END
$$$$
