TRI.pdb
     RDKit          3D

 27 26  0  0  1  0  0  0  0  0999 V2000
    8.4381  -12.2204   19.9074 C   0  0  0  0  0  0  0  0  0  0  0  0
    7.7429  -13.1034   18.9176 C   0  0  1  0  0  0  0  0  0  0  0  0
    7.8606  -12.5404   17.6396 O   0  0  0  0  0  0  0  0  0  0  0  0
    8.4096  -14.4802   18.8814 C   0  0  2  0  0  0  0  0  0  0  0  0
    7.6741  -15.2838   17.8936 N   0  0  0  0  0  0  0  0  0  0  0  0
    8.2957  -15.1501   20.1850 C   0  0  0  0  0  0  0  0  0  0  0  0
    7.1721  -15.6664   20.5232 O   0  0  0  0  0  0  0  0  0  0  0  0
   13.9032  -16.0146   24.2955 N   0  0  0  0  0  0  0  0  0  0  0  0
   14.4480  -16.3864   23.0325 C   0  0  0  0  0  0  0  0  0  0  0  0
   15.5850  -15.8619   22.6621 N   0  0  0  0  0  0  0  0  0  0  0  0
   13.8115  -17.3041   22.1528 N   0  0  0  0  0  0  0  0  0  0  0  0
   12.4796  -17.7736   22.4710 C   0  0  0  0  0  0  0  0  0  0  0  0
   11.4564  -16.6731   22.4085 C   0  0  0  0  0  0  0  0  0  0  0  0
   10.0396  -17.1983   22.4275 C   0  0  0  0  0  0  0  0  0  0  0  0
    9.0990  -16.0068   22.3988 C   0  0  2  0  0  0  0  0  0  0  0  0
    9.3242  -15.2978   21.1458 N   0  0  0  0  0  0  0  0  0  0  0  0
    9.2729  -15.1307   23.5686 C   0  0  0  0  0  0  0  0  0  0  0  0
   10.1193  -14.2015   23.5339 O   0  0  0  0  0  0  0  0  0  0  0  0
   16.0137  -16.1114   21.7472 C   0  0  0  0  0  0  0  0  0  0  0  0
    5.3312  -12.6724   25.8025 C   0  0  0  0  0  0  0  0  0  0  0  0
    6.6807  -13.1415   25.3390 C   0  0  2  0  0  0  0  0  0  0  0  0
    7.4064  -13.9363   26.3876 C   0  0  0  0  0  0  0  0  0  0  0  0
    7.6075  -13.0595   27.5991 C   0  0  2  0  0  0  0  0  0  0  0  0
    8.7465  -14.4311   25.9242 N   0  0  0  0  0  0  0  0  0  0  0  0
    8.5243  -15.2735   24.7660 C   0  0  0  0  0  0  0  0  0  0  0  0
    9.4747  -15.1915   26.9388 O   0  0  0  0  0  0  0  0  0  0  0  0
    9.3091  -16.4319   27.0579 O   0  0  0  0  0  0  0  0  0  0  0  0
  2  1  1  1
  3  2  1  0
  4  2  1  0
  4  5  1  6
  6  4  1  0
  6 16  1  0
  7  6  2  0
  9  8  1  0
 10  9  2  0
 11  9  1  0
 12 13  1  0
 12 11  1  0
 13 14  1  0
 15 14  1  1
 15 16  1  0
 17 15  1  0
 18 17  2  0
 19 20  1  0
 21 20  1  0
 21 23  1  0
 21 22  1  1
 23 25  1  0
 23 24  1  6
 24 17  1  0
 25 27  1  0
 26 25  2  0
M  END
$$$$
