TRI.pdb
     RDKit          3D

 27 26  0  0  1  0  0  0  0  0999 V2000
    9.7226  -13.6851   17.9761 C   0  0  0  0  0  0  0  0  0  0  0  0
    9.3037  -14.1671   19.3306 C   0  0  1  0  0  0  0  0  0  0  0  0
    9.6753  -13.2161   20.2906 O   0  0  0  0  0  0  0  0  0  0  0  0
    7.7819  -14.3154   19.3891 C   0  0  2  0  0  0  0  0  0  0  0  0
    7.2137  -12.9858   19.1213 N   0  0  0  0  0  0  0  0  0  0  0  0
    7.3487  -14.7308   20.7311 C   0  0  0  0  0  0  0  0  0  0  0  0
    6.9456  -13.8387   21.5587 O   0  0  0  0  0  0  0  0  0  0  0  0
    3.9486  -22.0819   22.6901 N   0  0  0  0  0  0  0  0  0  0  0  0
    4.9344  -21.4739   23.5200 C   0  0  0  0  0  0  0  0  0  0  0  0
    5.0956  -21.9256   24.7346 N   0  0  0  0  0  0  0  0  0  0  0  0
    5.7540  -20.3955   23.0883 N   0  0  0  0  0  0  0  0  0  0  0  0
    5.4966  -19.7899   21.7990 C   0  0  0  0  0  0  0  0  0  0  0  0
    5.6513  -18.2942   21.8298 C   0  0  0  0  0  0  0  0  0  0  0  0
    6.7767  -17.8470   22.7337 C   0  0  0  0  0  0  0  0  0  0  0  0
    6.9121  -16.3406   22.6013 C   0  0  2  0  0  0  0  0  0  0  0  0
    7.3228  -16.0537   21.2329 N   0  0  0  0  0  0  0  0  0  0  0  0
    7.8462  -15.7759   23.5887 C   0  0  0  0  0  0  0  0  0  0  0  0
    9.0775  -15.7406   23.3361 O   0  0  0  0  0  0  0  0  0  0  0  0
    5.7837  -21.4855   25.3794 C   0  0  0  0  0  0  0  0  0  0  0  0
    6.3166  -11.4663   26.3031 C   0  0  0  0  0  0  0  0  0  0  0  0
    7.1167  -12.5140   25.5831 C   0  0  2  0  0  0  0  0  0  0  0  0
    7.6511  -13.5695   26.5096 C   0  0  0  0  0  0  0  0  0  0  0  0
    8.6144  -12.9188   27.4716 C   0  0  2  0  0  0  0  0  0  0  0  0
    8.3659  -14.6752   25.7872 N   0  0  0  0  0  0  0  0  0  0  0  0
    7.4323  -15.2546   24.8422 C   0  0  0  0  0  0  0  0  0  0  0  0
    8.8684  -15.7256   26.6716 O   0  0  0  0  0  0  0  0  0  0  0  0
    8.1440  -16.7024   26.9899 O   0  0  0  0  0  0  0  0  0  0  0  0
  2  1  1  6
  3  2  1  0
  4  2  1  0
  4  5  1  1
  6  4  1  0
  6 16  1  0
  7  6  2  0
  9  8  1  0
 10  9  2  0
 11  9  1  0
 12 13  1  0
 12 11  1  0
 13 14  1  0
 15 14  1  6
 15 16  1  0
 17 15  1  0
 18 17  2  0
 19 20  1  0
 21 20  1  0
 21 23  1  0
 21 22  1  1
 23 25  1  0
 23 24  1  6
 24 17  1  0
 25 27  1  0
 26 25  2  0
M  END
$$$$
