HFA.pdb
     RDKit          3D

 27 28  0  0  1  0  0  0  0  0999 V2000
   10.2057  -16.9002   16.8776 N   0  0  0  0  0  0  0  0  0  0  0  0
   10.2958  -17.8357   17.9712 C   0  0  1  0  0  0  0  0  0  0  0  0
   11.2695  -18.9506   17.6788 C   0  0  0  0  0  0  0  0  0  0  0  0
   10.7891  -19.6729   16.4885 C   0  0  0  0  0  0  0  0  0  0  0  0
    9.6850  -20.4812   16.4401 C   0  0  0  0  0  0  0  0  0  0  0  0
    9.5713  -20.9607   15.1852 N   0  0  0  0  0  0  0  0  0  0  0  0
   10.5827  -20.4673   14.4506 C   0  0  0  0  0  0  0  0  0  0  0  0
   11.3308  -19.6704   15.2694 N   0  0  0  0  0  0  0  0  0  0  0  0
   10.5527  -17.1549   19.2465 C   0  0  0  0  0  0  0  0  0  0  0  0
   11.6089  -16.4451   19.3094 O   0  0  0  0  0  0  0  0  0  0  0  0
    9.6974  -17.2533   20.3766 N   0  0  0  0  0  0  0  0  0  0  0  0
    9.9881  -16.4840   21.5378 C   0  0  1  0  0  0  0  0  0  0  0  0
    8.7809  -15.8084   22.1307 C   0  0  0  0  0  0  0  0  0  0  0  0
    8.2218  -14.7399   21.2861 C   0  0  0  0  0  0  0  0  0  0  0  0
    8.7801  -13.4918   21.1662 C   0  0  0  0  0  0  0  0  0  0  0  0
    8.2171  -12.5104   20.3559 C   0  0  0  0  0  0  0  0  0  0  0  0
    7.0685  -12.7589   19.6385 C   0  0  0  0  0  0  0  0  0  0  0  0
    6.5008  -14.0092   19.7526 C   0  0  0  0  0  0  0  0  0  0  0  0
    7.0713  -14.9780   20.5630 C   0  0  0  0  0  0  0  0  0  0  0  0
   10.7693  -17.2888   22.4937 C   0  0  0  0  0  0  0  0  0  0  0  0
   10.4613  -18.4852   22.7567 O   0  0  0  0  0  0  0  0  0  0  0  0
   13.9761  -16.9339   24.3746 C   0  0  0  0  0  0  0  0  0  0  0  0
   12.6263  -17.5976   24.0985 C   0  0  2  0  0  0  0  0  0  0  0  0
   11.9071  -16.7594   23.1635 N   0  0  0  0  0  0  0  0  0  0  0  0
   11.8950  -17.6167   25.3771 C   0  0  0  0  0  0  0  0  0  0  0  0
   10.8757  -16.9289   25.5130 O   0  0  0  0  0  0  0  0  0  0  0  0
   12.3473  -18.4015   26.4191 O   0  0  0  0  0  0  0  0  0  0  0  0
  2  1  1  6
  2  9  1  0
  2  3  1  0
  3  4  1  0
  4  5  2  0
  5  6  1  0
  7  6  1  0
  8  4  1  0
  8  7  2  0
  9 10  2  0
 11  9  1  0
 11 12  1  0
 12 13  1  1
 13 14  1  0
 14 15  2  0
 15 16  1  0
 17 16  2  0
 18 17  1  0
 19 14  1  0
 19 18  2  0
 20 21  2  0
 20 12  1  0
 23 22  1  1
 23 25  1  0
 23 24  1  0
 24 20  1  0
 25 27  1  0
 26 25  2  0
M  END
$$$$
