HFA.pdb
     RDKit          3D

 27 28  0  0  1  0  0  0  0  0999 V2000
    7.9765  -16.1300   20.5645 N   0  0  0  0  0  0  0  0  0  0  0  0
    8.5909  -14.9241   21.0621 C   0  0  1  0  0  0  0  0  0  0  0  0
    7.8404  -13.6896   20.6269 C   0  0  0  0  0  0  0  0  0  0  0  0
    7.7259  -13.7215   19.1588 C   0  0  0  0  0  0  0  0  0  0  0  0
    8.2586  -12.7987   18.2990 C   0  0  0  0  0  0  0  0  0  0  0  0
    7.9433  -13.1669   17.0409 N   0  0  0  0  0  0  0  0  0  0  0  0
    7.2247  -14.3009   17.0997 C   0  0  0  0  0  0  0  0  0  0  0  0
    7.0965  -14.6349   18.4177 N   0  0  0  0  0  0  0  0  0  0  0  0
    8.8171  -14.9898   22.5114 C   0  0  0  0  0  0  0  0  0  0  0  0
    9.5658  -14.0883   23.0114 O   0  0  0  0  0  0  0  0  0  0  0  0
    8.2522  -15.9870   23.3509 N   0  0  0  0  0  0  0  0  0  0  0  0
    8.5360  -15.9647   24.7451 C   0  0  1  0  0  0  0  0  0  0  0  0
    7.3369  -15.6508   25.5989 C   0  0  0  0  0  0  0  0  0  0  0  0
    7.2129  -14.2265   25.9507 C   0  0  0  0  0  0  0  0  0  0  0  0
    8.1002  -13.5606   26.7589 C   0  0  0  0  0  0  0  0  0  0  0  0
    7.9441  -12.2124   27.0663 C   0  0  0  0  0  0  0  0  0  0  0  0
    6.8835  -11.4911   26.5657 C   0  0  0  0  0  0  0  0  0  0  0  0
    5.9874  -12.1512   25.7533 C   0  0  0  0  0  0  0  0  0  0  0  0
    6.1541  -13.4943   25.4547 C   0  0  0  0  0  0  0  0  0  0  0  0
    9.2586  -17.1891   25.1326 C   0  0  0  0  0  0  0  0  0  0  0  0
    8.6667  -18.1591   25.6842 O   0  0  0  0  0  0  0  0  0  0  0  0
   12.6768  -18.6088   24.6283 C   0  0  0  0  0  0  0  0  0  0  0  0
   11.3058  -18.5671   25.3045 C   0  0  2  0  0  0  0  0  0  0  0  0
   10.6544  -17.3389   24.9027 N   0  0  0  0  0  0  0  0  0  0  0  0
   11.5514  -18.5201   26.7562 C   0  0  0  0  0  0  0  0  0  0  0  0
   12.0971  -19.4772   27.3190 O   0  0  0  0  0  0  0  0  0  0  0  0
   11.1735  -17.4096   27.4844 O   0  0  0  0  0  0  0  0  0  0  0  0
  2  1  1  1
  2  9  1  0
  2  3  1  0
  3  4  1  0
  4  5  2  0
  5  6  1  0
  7  6  1  0
  8  4  1  0
  8  7  2  0
  9 10  2  0
 11  9  1  0
 11 12  1  0
 12 13  1  1
 13 14  1  0
 14 15  2  0
 15 16  1  0
 17 16  2  0
 18 17  1  0
 19 14  1  0
 19 18  2  0
 20 21  2  0
 20 12  1  0
 23 22  1  6
 23 25  1  0
 23 24  1  0
 24 20  1  0
 25 27  1  0
 26 25  2  0
M  END
$$$$
