HFA.pdb
     RDKit          3D

 27 28  0  0  1  0  0  0  0  0999 V2000
   10.2437  -16.8655   19.4929 N   0  0  0  0  0  0  0  0  0  0  0  0
    8.9405  -16.7769   20.1038 C   0  0  1  0  0  0  0  0  0  0  0  0
    8.2407  -18.1134   20.1324 C   0  0  0  0  0  0  0  0  0  0  0  0
    7.9278  -18.4922   18.7439 C   0  0  0  0  0  0  0  0  0  0  0  0
    7.6196  -17.6226   17.7322 C   0  0  0  0  0  0  0  0  0  0  0  0
    7.3967  -18.3424   16.6142 N   0  0  0  0  0  0  0  0  0  0  0  0
    7.5599  -19.6433   16.9092 C   0  0  0  0  0  0  0  0  0  0  0  0
    7.8889  -19.7235   18.2322 N   0  0  0  0  0  0  0  0  0  0  0  0
    9.0010  -16.1208   21.4161 C   0  0  0  0  0  0  0  0  0  0  0  0
   10.1216  -16.1619   22.0211 O   0  0  0  0  0  0  0  0  0  0  0  0
    7.8949  -15.4632   22.0181 N   0  0  0  0  0  0  0  0  0  0  0  0
    8.0671  -14.8250   23.2781 C   0  0  1  0  0  0  0  0  0  0  0  0
    7.0279  -13.7757   23.5689 C   0  0  0  0  0  0  0  0  0  0  0  0
    7.1280  -13.1967   24.9189 C   0  0  0  0  0  0  0  0  0  0  0  0
    8.1004  -12.3044   25.2958 C   0  0  0  0  0  0  0  0  0  0  0  0
    8.1580  -11.7821   26.5843 C   0  0  0  0  0  0  0  0  0  0  0  0
    7.2323  -12.1453   27.5367 C   0  0  0  0  0  0  0  0  0  0  0  0
    6.2521  -13.0407   27.1674 C   0  0  0  0  0  0  0  0  0  0  0  0
    6.2058  -13.5537   25.8807 C   0  0  0  0  0  0  0  0  0  0  0  0
    8.2280  -15.8360   24.3381 C   0  0  0  0  0  0  0  0  0  0  0  0
    7.3055  -16.6519   24.6186 O   0  0  0  0  0  0  0  0  0  0  0  0
   10.9945  -17.6519   25.7325 C   0  0  0  0  0  0  0  0  0  0  0  0
    9.6015  -17.0725   25.9825 C   0  0  2  0  0  0  0  0  0  0  0  0
    9.4285  -15.9438   25.0936 N   0  0  0  0  0  0  0  0  0  0  0  0
    9.5888  -16.5867   27.3731 C   0  0  0  0  0  0  0  0  0  0  0  0
    9.6312  -17.3960   28.3078 O   0  0  0  0  0  0  0  0  0  0  0  0
    9.5305  -15.2314   27.6300 O   0  0  0  0  0  0  0  0  0  0  0  0
  2  1  1  1
  2  9  1  0
  2  3  1  0
  3  4  1  0
  4  5  2  0
  5  6  1  0
  7  6  1  0
  8  4  1  0
  8  7  2  0
  9 10  2  0
 11  9  1  0
 11 12  1  0
 12 13  1  1
 13 14  1  0
 14 15  2  0
 15 16  1  0
 17 16  2  0
 18 17  1  0
 19 14  1  0
 19 18  2  0
 20 21  2  0
 20 12  1  0
 23 22  1  6
 23 25  1  0
 23 24  1  0
 24 20  1  0
 25 27  1  0
 26 25  2  0
M  END
$$$$
