HFA.pdb
     RDKit          3D

 27 28  0  0  1  0  0  0  0  0999 V2000
   10.9529  -17.0171   20.6615 N   0  0  0  0  0  0  0  0  0  0  0  0
    9.6793  -17.1749   21.3190 C   0  0  1  0  0  0  0  0  0  0  0  0
    9.4164  -18.6113   21.6986 C   0  0  0  0  0  0  0  0  0  0  0  0
    9.1210  -19.3604   20.4652 C   0  0  0  0  0  0  0  0  0  0  0  0
    8.4449  -18.8710   19.3798 C   0  0  0  0  0  0  0  0  0  0  0  0
    8.3739  -19.8489   18.4544 N   0  0  0  0  0  0  0  0  0  0  0  0
    8.9923  -20.9380   18.9417 C   0  0  0  0  0  0  0  0  0  0  0  0
    9.4512  -20.6230   20.1888 N   0  0  0  0  0  0  0  0  0  0  0  0
    9.5282  -16.2374   22.4390 C   0  0  0  0  0  0  0  0  0  0  0  0
   10.5983  -15.8860   23.0345 O   0  0  0  0  0  0  0  0  0  0  0  0
    8.2761  -15.7235   22.8708 N   0  0  0  0  0  0  0  0  0  0  0  0
    8.2302  -14.8668   24.0059 C   0  0  1  0  0  0  0  0  0  0  0  0
    7.1150  -13.8572   23.9540 C   0  0  0  0  0  0  0  0  0  0  0  0
    6.9868  -13.0483   25.1775 C   0  0  0  0  0  0  0  0  0  0  0  0
    6.0093  -13.2426   26.1212 C   0  0  0  0  0  0  0  0  0  0  0  0
    5.9248  -12.4531   27.2640 C   0  0  0  0  0  0  0  0  0  0  0  0
    6.8277  -11.4388   27.4912 C   0  0  0  0  0  0  0  0  0  0  0  0
    7.8127  -11.2362   26.5492 C   0  0  0  0  0  0  0  0  0  0  0  0
    7.8861  -12.0294   25.4150 C   0  0  0  0  0  0  0  0  0  0  0  0
    8.2741  -15.6658   25.2434 C   0  0  0  0  0  0  0  0  0  0  0  0
    8.4297  -15.1248   26.3741 O   0  0  0  0  0  0  0  0  0  0  0  0
    7.3883  -19.1328   26.2276 C   0  0  0  0  0  0  0  0  0  0  0  0
    8.0957  -17.8007   26.4801 C   0  0  2  0  0  0  0  0  0  0  0  0
    8.1413  -17.0820   25.2250 N   0  0  0  0  0  0  0  0  0  0  0  0
    9.4728  -18.1243   26.8910 C   0  0  0  0  0  0  0  0  0  0  0  0
    9.6718  -18.7351   27.9482 O   0  0  0  0  0  0  0  0  0  0  0  0
   10.5368  -17.7467   26.0962 O   0  0  0  0  0  0  0  0  0  0  0  0
  2  1  1  1
  2  9  1  0
  2  3  1  0
  3  4  1  0
  4  5  2  0
  5  6  1  0
  7  6  1  0
  8  4  1  0
  8  7  2  0
  9 10  2  0
 11  9  1  0
 11 12  1  0
 12 13  1  1
 13 14  1  0
 14 15  2  0
 15 16  1  0
 17 16  2  0
 18 17  1  0
 19 14  1  0
 19 18  2  0
 20 21  2  0
 20 12  1  0
 23 22  1  6
 23 25  1  0
 23 24  1  0
 24 20  1  0
 25 27  1  0
 26 25  2  0
M  END
$$$$
