HFA.pdb
     RDKit          3D

 27 28  0  0  1  0  0  0  0  0999 V2000
   10.5246  -16.6508   19.6405 N   0  0  0  0  0  0  0  0  0  0  0  0
    9.5321  -17.1427   20.5637 C   0  0  1  0  0  0  0  0  0  0  0  0
    9.6914  -18.6199   20.8265 C   0  0  0  0  0  0  0  0  0  0  0  0
    9.4548  -19.3346   19.5605 C   0  0  0  0  0  0  0  0  0  0  0  0
    8.8799  -18.7984   18.4396 C   0  0  0  0  0  0  0  0  0  0  0  0
    8.8350  -19.7566   17.4922 N   0  0  0  0  0  0  0  0  0  0  0  0
    9.3706  -20.8793   18.0006 C   0  0  0  0  0  0  0  0  0  0  0  0
    9.7511  -20.6054   19.2833 N   0  0  0  0  0  0  0  0  0  0  0  0
    9.4830  -16.3334   21.7879 C   0  0  0  0  0  0  0  0  0  0  0  0
   10.6027  -16.0362   22.3182 O   0  0  0  0  0  0  0  0  0  0  0  0
    8.2750  -15.8833   22.3850 N   0  0  0  0  0  0  0  0  0  0  0  0
    8.3360  -15.0874   23.5629 C   0  0  1  0  0  0  0  0  0  0  0  0
    7.1311  -14.2066   23.7579 C   0  0  0  0  0  0  0  0  0  0  0  0
    7.1331  -13.4686   25.0319 C   0  0  0  0  0  0  0  0  0  0  0  0
    6.3781  -13.8256   26.1212 C   0  0  0  0  0  0  0  0  0  0  0  0
    6.4102  -13.0979   27.3070 C   0  0  0  0  0  0  0  0  0  0  0  0
    7.2084  -11.9829   27.4311 C   0  0  0  0  0  0  0  0  0  0  0  0
    7.9700  -11.6169   26.3427 C   0  0  0  0  0  0  0  0  0  0  0  0
    7.9291  -12.3500   25.1672 C   0  0  0  0  0  0  0  0  0  0  0  0
    8.6717  -15.9299   24.7244 C   0  0  0  0  0  0  0  0  0  0  0  0
    7.8925  -16.8379   25.1293 O   0  0  0  0  0  0  0  0  0  0  0  0
   11.8262  -16.8731   26.3324 C   0  0  0  0  0  0  0  0  0  0  0  0
   10.2998  -16.7903   26.3762 C   0  0  2  0  0  0  0  0  0  0  0  0
    9.8879  -15.7637   25.4431 N   0  0  0  0  0  0  0  0  0  0  0  0
    9.9383  -16.3642   27.7392 C   0  0  0  0  0  0  0  0  0  0  0  0
    9.9497  -17.1860   28.6639 O   0  0  0  0  0  0  0  0  0  0  0  0
    9.5888  -15.0507   27.9817 O   0  0  0  0  0  0  0  0  0  0  0  0
  2  1  1  6
  2  9  1  0
  2  3  1  0
  3  4  1  0
  4  5  2  0
  5  6  1  0
  7  6  1  0
  8  4  1  0
  8  7  2  0
  9 10  2  0
 11  9  1  0
 11 12  1  0
 12 13  1  1
 13 14  1  0
 14 15  2  0
 15 16  1  0
 17 16  2  0
 18 17  1  0
 19 14  1  0
 19 18  2  0
 20 21  2  0
 20 12  1  0
 23 22  1  1
 23 25  1  0
 23 24  1  0
 24 20  1  0
 25 27  1  0
 26 25  2  0
M  END
$$$$
