HFA.pdb
     RDKit          3D

 27 28  0  0  1  0  0  0  0  0999 V2000
    9.3501  -14.8839   20.4367 N   0  0  0  0  0  0  0  0  0  0  0  0
    8.6351  -15.8972   21.1725 C   0  0  1  0  0  0  0  0  0  0  0  0
    8.8801  -17.2768   20.6129 C   0  0  0  0  0  0  0  0  0  0  0  0
    8.2280  -17.3546   19.2945 C   0  0  0  0  0  0  0  0  0  0  0  0
    8.2191  -16.3620   18.3515 C   0  0  0  0  0  0  0  0  0  0  0  0
    7.5252  -16.8046   17.2836 N   0  0  0  0  0  0  0  0  0  0  0  0
    7.1016  -18.0534   17.5424 C   0  0  0  0  0  0  0  0  0  0  0  0
    7.5434  -18.3834   18.7918 N   0  0  0  0  0  0  0  0  0  0  0  0
    8.8883  -15.7985   22.6155 C   0  0  0  0  0  0  0  0  0  0  0  0
   10.0260  -15.3424   22.9632 O   0  0  0  0  0  0  0  0  0  0  0  0
    7.9449  -16.1794   23.6072 N   0  0  0  0  0  0  0  0  0  0  0  0
    8.3132  -16.1115   24.9799 C   0  0  1  0  0  0  0  0  0  0  0  0
    7.2048  -15.6317   25.8780 C   0  0  0  0  0  0  0  0  0  0  0  0
    7.1543  -14.1683   26.0315 C   0  0  0  0  0  0  0  0  0  0  0  0
    7.7238  -13.4914   27.0810 C   0  0  0  0  0  0  0  0  0  0  0  0
    7.6512  -12.1058   27.1869 C   0  0  0  0  0  0  0  0  0  0  0  0
    6.9991  -11.3568   26.2332 C   0  0  0  0  0  0  0  0  0  0  0  0
    6.4242  -12.0277   25.1758 C   0  0  0  0  0  0  0  0  0  0  0  0
    6.5035  -13.4082   25.0818 C   0  0  0  0  0  0  0  0  0  0  0  0
    8.9336  -17.3807   25.3992 C   0  0  0  0  0  0  0  0  0  0  0  0
    8.3128  -18.4778   25.3192 O   0  0  0  0  0  0  0  0  0  0  0  0
   12.3007  -18.6959   26.0390 C   0  0  0  0  0  0  0  0  0  0  0  0
   10.8007  -18.7054   26.3365 C   0  0  2  0  0  0  0  0  0  0  0  0
   10.2598  -17.4324   25.9111 N   0  0  0  0  0  0  0  0  0  0  0  0
   10.6602  -18.8151   27.7987 C   0  0  0  0  0  0  0  0  0  0  0  0
   10.1560  -17.8848   28.4397 O   0  0  0  0  0  0  0  0  0  0  0  0
   11.0901  -19.9543   28.4497 O   0  0  0  0  0  0  0  0  0  0  0  0
  2  1  1  6
  2  9  1  0
  2  3  1  0
  3  4  1  0
  4  5  2  0
  5  6  1  0
  7  6  1  0
  8  4  1  0
  8  7  2  0
  9 10  2  0
 11  9  1  0
 11 12  1  0
 12 13  1  1
 13 14  1  0
 14 15  2  0
 15 16  1  0
 17 16  2  0
 18 17  1  0
 19 14  1  0
 19 18  2  0
 20 21  2  0
 20 12  1  0
 23 22  1  1
 23 25  1  0
 23 24  1  0
 24 20  1  0
 25 27  1  0
 26 25  2  0
M  END
$$$$
