HFA.pdb
     RDKit          3D

 27 28  0  0  1  0  0  0  0  0999 V2000
    9.9613  -17.0381   19.5963 N   0  0  0  0  0  0  0  0  0  0  0  0
    9.0178  -17.4119   20.6208 C   0  0  1  0  0  0  0  0  0  0  0  0
    9.1012  -18.8813   20.9531 C   0  0  0  0  0  0  0  0  0  0  0  0
    8.3968  -19.6269   19.8960 C   0  0  0  0  0  0  0  0  0  0  0  0
    7.1188  -20.1109   19.9804 C   0  0  0  0  0  0  0  0  0  0  0  0
    6.8286  -20.7326   18.8198 N   0  0  0  0  0  0  0  0  0  0  0  0
    7.9003  -20.6455   18.0138 C   0  0  0  0  0  0  0  0  0  0  0  0
    8.8660  -19.9579   18.6919 N   0  0  0  0  0  0  0  0  0  0  0  0
    9.1224  -16.5399   21.7975 C   0  0  0  0  0  0  0  0  0  0  0  0
   10.2965  -16.3247   22.2431 O   0  0  0  0  0  0  0  0  0  0  0  0
    8.0020  -15.9458   22.4379 N   0  0  0  0  0  0  0  0  0  0  0  0
    8.2074  -15.1410   23.5933 C   0  0  1  0  0  0  0  0  0  0  0  0
    7.0866  -14.1723   23.8597 C   0  0  0  0  0  0  0  0  0  0  0  0
    7.2327  -13.4249   25.1198 C   0  0  0  0  0  0  0  0  0  0  0  0
    8.1039  -12.3779   25.2888 C   0  0  0  0  0  0  0  0  0  0  0  0
    8.2100  -11.6991   26.4990 C   0  0  0  0  0  0  0  0  0  0  0  0
    7.4372  -12.0571   27.5808 C   0  0  0  0  0  0  0  0  0  0  0  0
    6.5595  -13.1073   27.4205 C   0  0  0  0  0  0  0  0  0  0  0  0
    6.4633  -13.7752   26.2100 C   0  0  0  0  0  0  0  0  0  0  0  0
    8.5673  -15.9904   24.7425 C   0  0  0  0  0  0  0  0  0  0  0  0
    7.7704  -16.8581   25.1981 O   0  0  0  0  0  0  0  0  0  0  0  0
   11.7255  -17.1269   26.1754 C   0  0  0  0  0  0  0  0  0  0  0  0
   10.2236  -16.8925   26.3432 C   0  0  2  0  0  0  0  0  0  0  0  0
    9.8279  -15.8766   25.3916 N   0  0  0  0  0  0  0  0  0  0  0  0
   10.0270  -16.3677   27.7055 C   0  0  0  0  0  0  0  0  0  0  0  0
   10.2574  -17.0908   28.6825 O   0  0  0  0  0  0  0  0  0  0  0  0
    9.5875  -15.0718   27.8890 O   0  0  0  0  0  0  0  0  0  0  0  0
  2  1  1  6
  2  9  1  0
  2  3  1  0
  3  4  1  0
  4  5  2  0
  5  6  1  0
  7  6  1  0
  8  4  1  0
  8  7  2  0
  9 10  2  0
 11  9  1  0
 11 12  1  0
 12 13  1  1
 13 14  1  0
 14 15  2  0
 15 16  1  0
 17 16  2  0
 18 17  1  0
 19 14  1  0
 19 18  2  0
 20 21  2  0
 20 12  1  0
 23 22  1  6
 23 25  1  0
 23 24  1  0
 24 20  1  0
 25 27  1  0
 26 25  2  0
M  END
$$$$
