HFA.pdb
     RDKit          3D

 27 28  0  0  1  0  0  0  0  0999 V2000
    8.8475  -17.9488   20.3623 N   0  0  0  0  0  0  0  0  0  0  0  0
    9.9305  -17.0008   20.4508 C   0  0  1  0  0  0  0  0  0  0  0  0
   10.1306  -16.2530   19.1558 C   0  0  0  0  0  0  0  0  0  0  0  0
   10.2155  -17.2425   18.0681 C   0  0  0  0  0  0  0  0  0  0  0  0
   11.0325  -18.3411   18.0540 C   0  0  0  0  0  0  0  0  0  0  0  0
   10.8274  -19.0012   16.8964 N   0  0  0  0  0  0  0  0  0  0  0  0
    9.8987  -18.3356   16.1889 C   0  0  0  0  0  0  0  0  0  0  0  0
    9.5270  -17.2474   16.9255 N   0  0  0  0  0  0  0  0  0  0  0  0
    9.7860  -16.1209   21.6174 C   0  0  0  0  0  0  0  0  0  0  0  0
   10.7959  -15.4044   21.9176 O   0  0  0  0  0  0  0  0  0  0  0  0
    8.6026  -16.0398   22.3993 N   0  0  0  0  0  0  0  0  0  0  0  0
    8.6263  -15.3150   23.6235 C   0  0  1  0  0  0  0  0  0  0  0  0
    7.4429  -14.4032   23.8069 C   0  0  0  0  0  0  0  0  0  0  0  0
    7.4785  -13.6256   25.0566 C   0  0  0  0  0  0  0  0  0  0  0  0
    8.3680  -12.6084   25.2968 C   0  0  0  0  0  0  0  0  0  0  0  0
    8.3666  -11.8992   26.4941 C   0  0  0  0  0  0  0  0  0  0  0  0
    7.4639  -12.1957   27.4906 C   0  0  0  0  0  0  0  0  0  0  0  0
    6.5668  -13.2155   27.2585 C   0  0  0  0  0  0  0  0  0  0  0  0
    6.5785  -13.9143   26.0616 C   0  0  0  0  0  0  0  0  0  0  0  0
    8.8700  -16.2341   24.7494 C   0  0  0  0  0  0  0  0  0  0  0  0
    7.9937  -17.0607   25.1292 O   0  0  0  0  0  0  0  0  0  0  0  0
   11.7725  -17.7424   26.3096 C   0  0  0  0  0  0  0  0  0  0  0  0
   10.3324  -17.2520   26.4654 C   0  0  2  0  0  0  0  0  0  0  0  0
   10.1023  -16.2368   25.4601 N   0  0  0  0  0  0  0  0  0  0  0  0
   10.2394  -16.6294   27.7972 C   0  0  0  0  0  0  0  0  0  0  0  0
   10.0511  -15.4106   27.8947 O   0  0  0  0  0  0  0  0  0  0  0  0
   10.3617  -17.4062   28.9321 O   0  0  0  0  0  0  0  0  0  0  0  0
  2  1  1  6
  2  9  1  0
  2  3  1  0
  3  4  1  0
  4  5  2  0
  5  6  1  0
  7  6  1  0
  8  4  1  0
  8  7  2  0
  9 10  2  0
 11  9  1  0
 11 12  1  0
 12 13  1  1
 13 14  1  0
 14 15  2  0
 15 16  1  0
 17 16  2  0
 18 17  1  0
 19 14  1  0
 19 18  2  0
 20 21  2  0
 20 12  1  0
 23 22  1  6
 23 25  1  0
 23 24  1  0
 24 20  1  0
 25 27  1  0
 26 25  2  0
M  END
$$$$
