HFA.pdb
     RDKit          3D

 27 28  0  0  1  0  0  0  0  0999 V2000
   10.2275  -16.1816   19.5402 N   0  0  0  0  0  0  0  0  0  0  0  0
    9.0754  -15.4194   19.9538 C   0  0  1  0  0  0  0  0  0  0  0  0
    7.8253  -15.8503   19.2270 C   0  0  0  0  0  0  0  0  0  0  0  0
    7.8296  -15.2133   17.8989 C   0  0  0  0  0  0  0  0  0  0  0  0
    7.9734  -13.8729   17.6600 C   0  0  0  0  0  0  0  0  0  0  0  0
    7.9259  -13.6773   16.3268 N   0  0  0  0  0  0  0  0  0  0  0  0
    7.7554  -14.8694   15.7303 C   0  0  0  0  0  0  0  0  0  0  0  0
    7.6971  -15.8138   16.7151 N   0  0  0  0  0  0  0  0  0  0  0  0
    8.9281  -15.4103   21.4148 C   0  0  0  0  0  0  0  0  0  0  0  0
    9.8027  -16.0568   22.0783 O   0  0  0  0  0  0  0  0  0  0  0  0
    7.8823  -14.7310   22.0954 N   0  0  0  0  0  0  0  0  0  0  0  0
    8.0173  -14.4624   23.4862 C   0  0  1  0  0  0  0  0  0  0  0  0
    7.2115  -13.2797   23.9524 C   0  0  0  0  0  0  0  0  0  0  0  0
    7.3364  -13.0051   25.3934 C   0  0  0  0  0  0  0  0  0  0  0  0
    8.5110  -12.6375   26.0007 C   0  0  0  0  0  0  0  0  0  0  0  0
    8.5840  -12.3878   27.3678 C   0  0  0  0  0  0  0  0  0  0  0  0
    7.4693  -12.5018   28.1680 C   0  0  0  0  0  0  0  0  0  0  0  0
    6.2854  -12.8703   27.5671 C   0  0  0  0  0  0  0  0  0  0  0  0
    6.2259  -13.1162   26.2044 C   0  0  0  0  0  0  0  0  0  0  0  0
    7.7974  -15.6959   24.2619 C   0  0  0  0  0  0  0  0  0  0  0  0
    6.7077  -16.3316   24.1976 O   0  0  0  0  0  0  0  0  0  0  0  0
    9.1043  -18.6150   25.0666 C   0  0  0  0  0  0  0  0  0  0  0  0
    8.5207  -17.4430   25.8569 C   0  0  2  0  0  0  0  0  0  0  0  0
    8.8002  -16.2310   25.1172 N   0  0  0  0  0  0  0  0  0  0  0  0
    9.2459  -17.3939   27.1382 C   0  0  0  0  0  0  0  0  0  0  0  0
    9.9874  -16.4359   27.3890 O   0  0  0  0  0  0  0  0  0  0  0  0
    9.0963  -18.4151   28.0553 O   0  0  0  0  0  0  0  0  0  0  0  0
  2  1  1  1
  2  9  1  0
  2  3  1  0
  3  4  1  0
  4  5  2  0
  5  6  1  0
  7  6  1  0
  8  4  1  0
  8  7  2  0
  9 10  2  0
 11  9  1  0
 11 12  1  0
 12 13  1  1
 13 14  1  0
 14 15  2  0
 15 16  1  0
 17 16  2  0
 18 17  1  0
 19 14  1  0
 19 18  2  0
 20 21  2  0
 20 12  1  0
 23 22  1  6
 23 25  1  0
 23 24  1  0
 24 20  1  0
 25 27  1  0
 26 25  2  0
M  END
$$$$
