HFA.pdb
     RDKit          3D

 27 28  0  0  1  0  0  0  0  0999 V2000
   10.4080  -17.0192   19.7659 N   0  0  0  0  0  0  0  0  0  0  0  0
    9.3885  -17.3918   20.7152 C   0  0  1  0  0  0  0  0  0  0  0  0
    9.4801  -18.8489   21.0961 C   0  0  0  0  0  0  0  0  0  0  0  0
    8.9676  -19.6462   19.9686 C   0  0  0  0  0  0  0  0  0  0  0  0
    9.5507  -19.7445   18.7337 C   0  0  0  0  0  0  0  0  0  0  0  0
    8.7917  -20.5612   17.9756 N   0  0  0  0  0  0  0  0  0  0  0  0
    7.7472  -20.9738   18.7137 C   0  0  0  0  0  0  0  0  0  0  0  0
    7.8672  -20.4000   19.9471 N   0  0  0  0  0  0  0  0  0  0  0  0
    9.3675  -16.4860   21.8707 C   0  0  0  0  0  0  0  0  0  0  0  0
   10.4836  -15.9760   22.2137 O   0  0  0  0  0  0  0  0  0  0  0  0
    8.1896  -16.1663   22.5978 N   0  0  0  0  0  0  0  0  0  0  0  0
    8.2737  -15.2669   23.6972 C   0  0  1  0  0  0  0  0  0  0  0  0
    7.0153  -14.4726   23.9234 C   0  0  0  0  0  0  0  0  0  0  0  0
    7.0562  -13.6215   25.1241 C   0  0  0  0  0  0  0  0  0  0  0  0
    7.7784  -12.4575   25.2095 C   0  0  0  0  0  0  0  0  0  0  0  0
    7.7891  -11.6833   26.3658 C   0  0  0  0  0  0  0  0  0  0  0  0
    7.0684  -12.0610   27.4765 C   0  0  0  0  0  0  0  0  0  0  0  0
    6.3403  -13.2284   27.4001 C   0  0  0  0  0  0  0  0  0  0  0  0
    6.3379  -13.9906   26.2426 C   0  0  0  0  0  0  0  0  0  0  0  0
    8.7733  -15.9733   24.8901 C   0  0  0  0  0  0  0  0  0  0  0  0
    8.1754  -16.9822   25.3593 O   0  0  0  0  0  0  0  0  0  0  0  0
   12.0401  -16.0811   26.6372 C   0  0  0  0  0  0  0  0  0  0  0  0
   10.5577  -16.4434   26.5376 C   0  0  2  0  0  0  0  0  0  0  0  0
    9.9521  -15.5560   25.5682 N   0  0  0  0  0  0  0  0  0  0  0  0
    9.9669  -16.1745   27.8600 C   0  0  0  0  0  0  0  0  0  0  0  0
    9.5719  -17.1150   28.5600 O   0  0  0  0  0  0  0  0  0  0  0  0
    9.8560  -14.8757   28.3151 O   0  0  0  0  0  0  0  0  0  0  0  0
  2  1  1  6
  2  9  1  0
  2  3  1  0
  3  4  1  0
  4  5  2  0
  5  6  1  0
  7  6  1  0
  8  4  1  0
  8  7  2  0
  9 10  2  0
 11  9  1  0
 11 12  1  0
 12 13  1  1
 13 14  1  0
 14 15  2  0
 15 16  1  0
 17 16  2  0
 18 17  1  0
 19 14  1  0
 19 18  2  0
 20 21  2  0
 20 12  1  0
 23 22  1  1
 23 25  1  0
 23 24  1  0
 24 20  1  0
 25 27  1  0
 26 25  2  0
M  END
$$$$
