HFA.pdb
     RDKit          3D

 27 28  0  0  1  0  0  0  0  0999 V2000
   10.2749  -13.5409   20.8240 N   0  0  0  0  0  0  0  0  0  0  0  0
    9.1355  -14.3075   21.2638 C   0  0  1  0  0  0  0  0  0  0  0  0
    8.7997  -15.4191   20.3004 C   0  0  0  0  0  0  0  0  0  0  0  0
    8.4071  -14.8070   19.0195 C   0  0  0  0  0  0  0  0  0  0  0  0
    8.5354  -13.4822   18.6984 C   0  0  0  0  0  0  0  0  0  0  0  0
    8.0692  -13.3076   17.4454 N   0  0  0  0  0  0  0  0  0  0  0  0
    7.6531  -14.4973   16.9794 C   0  0  0  0  0  0  0  0  0  0  0  0
    7.8676  -15.4189   17.9640 N   0  0  0  0  0  0  0  0  0  0  0  0
    9.2925  -14.7637   22.6506 C   0  0  0  0  0  0  0  0  0  0  0  0
   10.4804  -14.7864   23.1107 O   0  0  0  0  0  0  0  0  0  0  0  0
    8.2068  -15.1678   23.4730 N   0  0  0  0  0  0  0  0  0  0  0  0
    8.4573  -15.5342   24.8249 C   0  0  1  0  0  0  0  0  0  0  0  0
    7.2977  -15.2666   25.7465 C   0  0  0  0  0  0  0  0  0  0  0  0
    7.1392  -13.8481   26.1074 C   0  0  0  0  0  0  0  0  0  0  0  0
    6.1238  -13.0513   25.6408 C   0  0  0  0  0  0  0  0  0  0  0  0
    6.0124  -11.7136   26.0078 C   0  0  0  0  0  0  0  0  0  0  0  0
    6.9259  -11.1358   26.8607 C   0  0  0  0  0  0  0  0  0  0  0  0
    7.9490  -11.9281   27.3344 C   0  0  0  0  0  0  0  0  0  0  0  0
    8.0488  -13.2591   26.9612 C   0  0  0  0  0  0  0  0  0  0  0  0
    8.9816  -16.9101   24.8859 C   0  0  0  0  0  0  0  0  0  0  0  0
    8.2907  -17.8979   24.5085 O   0  0  0  0  0  0  0  0  0  0  0  0
   12.2443  -18.5849   25.2413 C   0  0  0  0  0  0  0  0  0  0  0  0
   10.7291  -18.5685   25.4477 C   0  0  2  0  0  0  0  0  0  0  0  0
   10.2894  -17.1920   25.3694 N   0  0  0  0  0  0  0  0  0  0  0  0
   10.4826  -19.0678   26.8115 C   0  0  0  0  0  0  0  0  0  0  0  0
   10.0318  -18.3040   27.6740 O   0  0  0  0  0  0  0  0  0  0  0  0
   10.7539  -20.3851   27.1236 O   0  0  0  0  0  0  0  0  0  0  0  0
  2  1  1  6
  2  9  1  0
  2  3  1  0
  3  4  1  0
  4  5  2  0
  5  6  1  0
  7  6  1  0
  8  4  1  0
  8  7  2  0
  9 10  2  0
 11  9  1  0
 11 12  1  0
 12 13  1  1
 13 14  1  0
 14 15  2  0
 15 16  1  0
 17 16  2  0
 18 17  1  0
 19 14  1  0
 19 18  2  0
 20 21  2  0
 20 12  1  0
 23 22  1  1
 23 25  1  0
 23 24  1  0
 24 20  1  0
 25 27  1  0
 26 25  2  0
M  END
$$$$
