HFA.pdb
     RDKit          3D

 27 28  0  0  1  0  0  0  0  0999 V2000
    8.3682  -17.4075   19.6873 N   0  0  0  0  0  0  0  0  0  0  0  0
    9.6332  -16.8078   20.0332 C   0  0  1  0  0  0  0  0  0  0  0  0
   10.2417  -16.0669   18.8681 C   0  0  0  0  0  0  0  0  0  0  0  0
   10.0216  -16.8707   17.6536 C   0  0  0  0  0  0  0  0  0  0  0  0
   10.2868  -18.2078   17.5257 C   0  0  0  0  0  0  0  0  0  0  0  0
    9.9556  -18.5829   16.2738 N   0  0  0  0  0  0  0  0  0  0  0  0
    9.4893  -17.5060   15.6190 C   0  0  0  0  0  0  0  0  0  0  0  0
    9.5350  -16.4507   16.4847 N   0  0  0  0  0  0  0  0  0  0  0  0
    9.5324  -15.9968   21.2531 C   0  0  0  0  0  0  0  0  0  0  0  0
   10.5903  -15.3895   21.6210 O   0  0  0  0  0  0  0  0  0  0  0  0
    8.3402  -15.8669   22.0147 N   0  0  0  0  0  0  0  0  0  0  0  0
    8.3817  -15.1790   23.2595 C   0  0  1  0  0  0  0  0  0  0  0  0
    7.1610  -14.3394   23.5250 C   0  0  0  0  0  0  0  0  0  0  0  0
    7.1896  -13.6400   24.8202 C   0  0  0  0  0  0  0  0  0  0  0  0
    7.9709  -12.5410   25.0763 C   0  0  0  0  0  0  0  0  0  0  0  0
    7.9673  -11.9106   26.3170 C   0  0  0  0  0  0  0  0  0  0  0  0
    7.1719  -12.3715   27.3421 C   0  0  0  0  0  0  0  0  0  0  0  0
    6.3841  -13.4745   27.0942 C   0  0  0  0  0  0  0  0  0  0  0  0
    6.3967  -14.0933   25.8542 C   0  0  0  0  0  0  0  0  0  0  0  0
    8.7260  -16.1167   24.3430 C   0  0  0  0  0  0  0  0  0  0  0  0
    7.9673  -17.0787   24.6503 O   0  0  0  0  0  0  0  0  0  0  0  0
   11.8119  -17.2201   25.9327 C   0  0  0  0  0  0  0  0  0  0  0  0
   10.2965  -17.0337   26.0199 C   0  0  2  0  0  0  0  0  0  0  0  0
    9.9281  -15.9860   25.0922 N   0  0  0  0  0  0  0  0  0  0  0  0
   10.0046  -16.5777   27.3898 C   0  0  0  0  0  0  0  0  0  0  0  0
    9.5573  -15.4396   27.5771 O   0  0  0  0  0  0  0  0  0  0  0  0
   10.2296  -17.4203   28.4602 O   0  0  0  0  0  0  0  0  0  0  0  0
  2  1  1  6
  2  9  1  0
  2  3  1  0
  3  4  1  0
  4  5  2  0
  5  6  1  0
  7  6  1  0
  8  4  1  0
  8  7  2  0
  9 10  2  0
 11  9  1  0
 11 12  1  0
 12 13  1  1
 13 14  1  0
 14 15  2  0
 15 16  1  0
 17 16  2  0
 18 17  1  0
 19 14  1  0
 19 18  2  0
 20 21  2  0
 20 12  1  0
 23 22  1  1
 23 25  1  0
 23 24  1  0
 24 20  1  0
 25 27  1  0
 26 25  2  0
M  END
$$$$
