HFA.pdb
     RDKit          3D

 27 28  0  0  1  0  0  0  0  0999 V2000
    8.4656  -17.5800   20.0081 N   0  0  0  0  0  0  0  0  0  0  0  0
    9.7069  -16.9067   20.3004 C   0  0  1  0  0  0  0  0  0  0  0  0
   10.2373  -16.1595   19.1017 C   0  0  0  0  0  0  0  0  0  0  0  0
    9.5519  -16.6759   17.9046 C   0  0  0  0  0  0  0  0  0  0  0  0
    9.1903  -17.9798   17.6952 C   0  0  0  0  0  0  0  0  0  0  0  0
    8.5886  -18.0597   16.4914 N   0  0  0  0  0  0  0  0  0  0  0  0
    8.5681  -16.8315   15.9464 C   0  0  0  0  0  0  0  0  0  0  0  0
    9.1681  -15.9822   16.8317 N   0  0  0  0  0  0  0  0  0  0  0  0
    9.6015  -16.0765   21.5069 C   0  0  0  0  0  0  0  0  0  0  0  0
   10.6756  -15.5239   21.9123 O   0  0  0  0  0  0  0  0  0  0  0  0
    8.3881  -15.8717   22.2169 N   0  0  0  0  0  0  0  0  0  0  0  0
    8.4206  -15.1960   23.4688 C   0  0  1  0  0  0  0  0  0  0  0  0
    7.2628  -14.2570   23.6767 C   0  0  0  0  0  0  0  0  0  0  0  0
    7.2949  -13.5489   24.9672 C   0  0  0  0  0  0  0  0  0  0  0  0
    8.1037  -12.4704   25.2252 C   0  0  0  0  0  0  0  0  0  0  0  0
    8.1023  -11.8308   26.4612 C   0  0  0  0  0  0  0  0  0  0  0  0
    7.2815  -12.2613   27.4794 C   0  0  0  0  0  0  0  0  0  0  0  0
    6.4660  -13.3435   27.2295 C   0  0  0  0  0  0  0  0  0  0  0  0
    6.4767  -13.9719   25.9942 C   0  0  0  0  0  0  0  0  0  0  0  0
    8.6253  -16.1650   24.5600 C   0  0  0  0  0  0  0  0  0  0  0  0
    7.7752  -17.0642   24.8134 O   0  0  0  0  0  0  0  0  0  0  0  0
   11.2505  -17.9762   25.8854 C   0  0  0  0  0  0  0  0  0  0  0  0
   10.0067  -17.2050   26.3291 C   0  0  2  0  0  0  0  0  0  0  0  0
    9.7889  -16.1365   25.3778 N   0  0  0  0  0  0  0  0  0  0  0  0
   10.3211  -16.6141   27.6414 C   0  0  0  0  0  0  0  0  0  0  0  0
   10.3750  -15.3844   27.7652 O   0  0  0  0  0  0  0  0  0  0  0  0
   10.5539  -17.4325   28.7287 O   0  0  0  0  0  0  0  0  0  0  0  0
  2  1  1  6
  2  9  1  0
  2  3  1  0
  3  4  1  0
  4  5  2  0
  5  6  1  0
  7  6  1  0
  8  4  1  0
  8  7  2  0
  9 10  2  0
 11  9  1  0
 11 12  1  0
 12 13  1  1
 13 14  1  0
 14 15  2  0
 15 16  1  0
 17 16  2  0
 18 17  1  0
 19 14  1  0
 19 18  2  0
 20 21  2  0
 20 12  1  0
 23 22  1  6
 23 25  1  0
 23 24  1  0
 24 20  1  0
 25 27  1  0
 26 25  2  0
M  END
$$$$
