VGP.pdb
     RDKit          3D

 19 19  0  0  1  0  0  0  0  0999 V2000
    8.4538  -20.1709   21.4506 C   0  0  0  0  0  0  0  0  0  0  0  0
    7.0118  -20.4492   21.7132 C   0  0  1  0  0  0  0  0  0  0  0  0
    6.7361  -21.8905   21.9394 C   0  0  0  0  0  0  0  0  0  0  0  0
    6.4227  -19.5200   22.7674 C   0  0  2  0  0  0  0  0  0  0  0  0
    4.9886  -19.8112   22.9088 N   0  0  0  0  0  0  0  0  0  0  0  0
    6.5089  -18.0953   22.3969 C   0  0  0  0  0  0  0  0  0  0  0  0
    5.7621  -17.5908   21.5048 O   0  0  0  0  0  0  0  0  0  0  0  0
    7.4368  -17.1696   23.0116 N   0  0  0  0  0  0  0  0  0  0  0  0
    7.4697  -15.8027   22.6122 C   0  0  0  0  0  0  0  0  0  0  0  0
    8.1930  -15.3917   21.4415 C   0  0  0  0  0  0  0  0  0  0  0  0
    8.9468  -16.3580   20.9528 O   0  0  0  0  0  0  0  0  0  0  0  0
    8.2283  -14.1574   20.7488 N   0  0  0  0  0  0  0  0  0  0  0  0
    7.4004  -13.0132   20.9436 C   0  0  0  0  0  0  0  0  0  0  0  0
    7.6367  -12.1021   19.7088 C   0  0  0  0  0  0  0  0  0  0  0  0
    9.0536  -12.4535   19.3452 C   0  0  0  0  0  0  0  0  0  0  0  0
    9.1338  -13.9176   19.6514 C   0  0  1  0  0  0  0  0  0  0  0  0
   10.5464  -14.2632   20.0003 C   0  0  0  0  0  0  0  0  0  0  0  0
   11.3519  -14.5196   19.0920 O   0  0  0  0  0  0  0  0  0  0  0  0
   10.9344  -14.2931   21.3084 O   0  0  0  0  0  0  0  0  0  0  0  0
  2  1  1  1
  3  2  1  0
  4  2  1  0
  4  5  1  6
  6  7  2  0
  6  4  1  0
  8  6  1  0
  9 10  1  0
  9  8  1  0
 10 12  1  0
 11 10  2  0
 12 16  1  0
 13 12  1  0
 13 14  1  0
 14 15  1  0
 16 15  1  0
 16 17  1  1
 17 19  1  0
 18 17  2  0
M  END
$$$$
