VGP.pdb
     RDKit          3D

 19 19  0  0  1  0  0  0  0  0999 V2000
    8.3947  -16.1486   19.8097 C   0  0  0  0  0  0  0  0  0  0  0  0
    7.7726  -17.5046   19.8115 C   0  0  1  0  0  0  0  0  0  0  0  0
    8.3544  -18.4058   18.7850 C   0  0  0  0  0  0  0  0  0  0  0  0
    7.6937  -18.1064   21.2092 C   0  0  2  0  0  0  0  0  0  0  0  0
    6.8875  -19.3345   21.1524 N   0  0  0  0  0  0  0  0  0  0  0  0
    7.0183  -17.2269   22.1812 C   0  0  0  0  0  0  0  0  0  0  0  0
    5.7645  -17.2728   22.3648 O   0  0  0  0  0  0  0  0  0  0  0  0
    7.7192  -16.2552   22.9938 N   0  0  0  0  0  0  0  0  0  0  0  0
    7.0180  -15.4725   23.9554 C   0  0  0  0  0  0  0  0  0  0  0  0
    7.7233  -14.6212   24.8721 C   0  0  0  0  0  0  0  0  0  0  0  0
    8.9991  -14.9417   24.9737 O   0  0  0  0  0  0  0  0  0  0  0  0
    7.2863  -13.5291   25.6601 N   0  0  0  0  0  0  0  0  0  0  0  0
    6.0384  -12.8424   25.6001 C   0  0  0  0  0  0  0  0  0  0  0  0
    6.2287  -11.5414   26.4259 C   0  0  0  0  0  0  0  0  0  0  0  0
    7.2614  -11.9740   27.4308 C   0  0  0  0  0  0  0  0  0  0  0  0
    8.1341  -12.9057   26.6472 C   0  0  1  0  0  0  0  0  0  0  0  0
    8.7394  -13.9041   27.5818 C   0  0  0  0  0  0  0  0  0  0  0  0
    8.1656  -14.9884   27.7681 O   0  0  0  0  0  0  0  0  0  0  0  0
    9.9115  -13.6146   28.2180 O   0  0  0  0  0  0  0  0  0  0  0  0
  2  1  1  1
  3  2  1  0
  4  2  1  0
  4  5  1  6
  6  7  2  0
  6  4  1  0
  8  6  1  0
  9 10  1  0
  9  8  1  0
 10 12  1  0
 11 10  2  0
 12 16  1  0
 13 12  1  0
 13 14  1  0
 14 15  1  0
 16 15  1  0
 16 17  1  1
 17 19  1  0
 18 17  2  0
M  END
$$$$
