VGP.pdb
     RDKit          3D

 19 19  0  0  1  0  0  0  0  0999 V2000
    8.6606  -17.8439   18.5004 C   0  0  0  0  0  0  0  0  0  0  0  0
    7.8084  -17.3440   19.6182 C   0  0  1  0  0  0  0  0  0  0  0  0
    6.6826  -18.2583   19.9365 C   0  0  0  0  0  0  0  0  0  0  0  0
    8.6296  -16.9086   20.8257 C   0  0  2  0  0  0  0  0  0  0  0  0
    9.2341  -18.0983   21.4426 N   0  0  0  0  0  0  0  0  0  0  0  0
    7.8166  -16.2775   21.8818 C   0  0  0  0  0  0  0  0  0  0  0  0
    7.2309  -16.9631   22.7733 O   0  0  0  0  0  0  0  0  0  0  0  0
    7.6241  -14.8466   21.9873 N   0  0  0  0  0  0  0  0  0  0  0  0
    6.8979  -14.2908   23.0795 C   0  0  0  0  0  0  0  0  0  0  0  0
    7.5718  -13.8572   24.2713 C   0  0  0  0  0  0  0  0  0  0  0  0
    8.7892  -14.3565   24.3689 O   0  0  0  0  0  0  0  0  0  0  0  0
    7.1556  -13.0086   25.3255 N   0  0  0  0  0  0  0  0  0  0  0  0
    5.9874  -12.1943   25.3927 C   0  0  0  0  0  0  0  0  0  0  0  0
    6.2075  -11.2328   26.5918 C   0  0  0  0  0  0  0  0  0  0  0  0
    7.0878  -12.0650   27.4840 C   0  0  0  0  0  0  0  0  0  0  0  0
    7.9495  -12.8140   26.5144 C   0  0  1  0  0  0  0  0  0  0  0  0
    8.3628  -14.1107   27.1347 C   0  0  0  0  0  0  0  0  0  0  0  0
    7.6460  -15.1123   26.9848 O   0  0  0  0  0  0  0  0  0  0  0  0
    9.5190  -14.1796   27.8565 O   0  0  0  0  0  0  0  0  0  0  0  0
  2  1  1  6
  3  2  1  0
  4  2  1  0
  4  5  1  1
  6  7  2  0
  6  4  1  0
  8  6  1  0
  9 10  1  0
  9  8  1  0
 10 12  1  0
 11 10  2  0
 12 16  1  0
 13 12  1  0
 13 14  1  0
 14 15  1  0
 16 15  1  0
 16 17  1  1
 17 19  1  0
 18 17  2  0
M  END
$$$$
