VGP.pdb
     RDKit          3D

 19 19  0  0  1  0  0  0  0  0999 V2000
    6.1182  -17.6742   22.3585 C   0  0  0  0  0  0  0  0  0  0  0  0
    7.3188  -18.0745   21.5684 C   0  0  1  0  0  0  0  0  0  0  0  0
    7.0952  -19.3029   20.7649 C   0  0  0  0  0  0  0  0  0  0  0  0
    7.9170  -16.9097   20.7892 C   0  0  2  0  0  0  0  0  0  0  0  0
    9.1102  -17.3817   20.0715 N   0  0  0  0  0  0  0  0  0  0  0  0
    8.3784  -15.8094   21.6556 C   0  0  0  0  0  0  0  0  0  0  0  0
    9.4545  -15.8898   22.3215 O   0  0  0  0  0  0  0  0  0  0  0  0
    7.6536  -14.5662   21.8143 N   0  0  0  0  0  0  0  0  0  0  0  0
    8.1261  -13.5594   22.7044 C   0  0  0  0  0  0  0  0  0  0  0  0
    8.0894  -13.7537   24.1268 C   0  0  0  0  0  0  0  0  0  0  0  0
    8.7985  -14.7987   24.5087 O   0  0  0  0  0  0  0  0  0  0  0  0
    7.4363  -13.0298   25.1536 N   0  0  0  0  0  0  0  0  0  0  0  0
    6.6080  -11.8762   25.0290 C   0  0  0  0  0  0  0  0  0  0  0  0
    6.4516  -11.3078   26.4653 C   0  0  0  0  0  0  0  0  0  0  0  0
    6.5751  -12.5563   27.2956 C   0  0  0  0  0  0  0  0  0  0  0  0
    7.5888  -13.3671   26.5481 C   0  0  1  0  0  0  0  0  0  0  0  0
    7.3361  -14.8181   26.8080 C   0  0  0  0  0  0  0  0  0  0  0  0
    6.5468  -15.4381   26.0785 O   0  0  0  0  0  0  0  0  0  0  0  0
    7.9730  -15.4436   27.8403 O   0  0  0  0  0  0  0  0  0  0  0  0
  2  1  1  6
  3  2  1  0
  4  2  1  0
  4  5  1  1
  6  7  2  0
  6  4  1  0
  8  6  1  0
  9 10  1  0
  9  8  1  0
 10 12  1  0
 11 10  2  0
 12 16  1  0
 13 12  1  0
 13 14  1  0
 14 15  1  0
 16 15  1  0
 16 17  1  6
 17 19  1  0
 18 17  2  0
M  END
$$$$
