VGP.pdb
     RDKit          3D

 19 19  0  0  1  0  0  0  0  0999 V2000
    7.3117  -19.8053   21.4205 C   0  0  0  0  0  0  0  0  0  0  0  0
    7.0581  -20.2817   22.8113 C   0  0  1  0  0  0  0  0  0  0  0  0
    7.1912  -21.7541   22.9483 C   0  0  0  0  0  0  0  0  0  0  0  0
    7.8294  -19.4780   23.8511 C   0  0  2  0  0  0  0  0  0  0  0  0
    7.4780  -19.9730   25.1900 N   0  0  0  0  0  0  0  0  0  0  0  0
    7.4831  -18.0447   23.8488 C   0  0  0  0  0  0  0  0  0  0  0  0
    7.8898  -17.2606   22.9390 O   0  0  0  0  0  0  0  0  0  0  0  0
    6.6625  -17.4244   24.8675 N   0  0  0  0  0  0  0  0  0  0  0  0
    6.3511  -16.0359   24.8024 C   0  0  0  0  0  0  0  0  0  0  0  0
    7.2148  -15.0557   25.3989 C   0  0  0  0  0  0  0  0  0  0  0  0
    8.4652  -15.4699   25.4763 O   0  0  0  0  0  0  0  0  0  0  0  0
    6.9515  -13.7587   25.9020 N   0  0  0  0  0  0  0  0  0  0  0  0
    5.7302  -13.0250   25.8516 C   0  0  0  0  0  0  0  0  0  0  0  0
    6.0960  -11.5640   26.2289 C   0  0  0  0  0  0  0  0  0  0  0  0
    7.2788  -11.7766   27.1341 C   0  0  0  0  0  0  0  0  0  0  0  0
    7.9757  -12.9510   26.5186 C   0  0  1  0  0  0  0  0  0  0  0  0
    8.7112  -13.6934   27.5884 C   0  0  0  0  0  0  0  0  0  0  0  0
    8.1874  -14.6923   28.1055 O   0  0  0  0  0  0  0  0  0  0  0  0
    9.9459  -13.2671   27.9841 O   0  0  0  0  0  0  0  0  0  0  0  0
  2  1  1  6
  3  2  1  0
  4  2  1  0
  4  5  1  1
  6  7  2  0
  6  4  1  0
  8  6  1  0
  9 10  1  0
  9  8  1  0
 10 12  1  0
 11 10  2  0
 12 16  1  0
 13 12  1  0
 13 14  1  0
 14 15  1  0
 16 15  1  0
 16 17  1  1
 17 19  1  0
 18 17  2  0
M  END
$$$$
