VGP.pdb
     RDKit          3D

 19 19  0  0  1  0  0  0  0  0999 V2000
    7.7991  -17.5683   19.6987 C   0  0  0  0  0  0  0  0  0  0  0  0
    8.8071  -18.3119   20.5091 C   0  0  1  0  0  0  0  0  0  0  0  0
    9.7255  -19.1287   19.6761 C   0  0  0  0  0  0  0  0  0  0  0  0
    9.5039  -17.4213   21.5304 C   0  0  2  0  0  0  0  0  0  0  0  0
   10.3815  -18.2539   22.3658 N   0  0  0  0  0  0  0  0  0  0  0  0
    8.5672  -16.7651   22.4612 C   0  0  0  0  0  0  0  0  0  0  0  0
    8.0261  -17.3954   23.4193 O   0  0  0  0  0  0  0  0  0  0  0  0
    8.1949  -15.3697   22.3609 N   0  0  0  0  0  0  0  0  0  0  0  0
    7.2846  -14.7928   23.2924 C   0  0  0  0  0  0  0  0  0  0  0  0
    7.7584  -14.1198   24.4692 C   0  0  0  0  0  0  0  0  0  0  0  0
    9.0062  -14.4356   24.7594 O   0  0  0  0  0  0  0  0  0  0  0  0
    7.1246  -13.2022   25.3416 N   0  0  0  0  0  0  0  0  0  0  0  0
    5.8228  -12.6324   25.2271 C   0  0  0  0  0  0  0  0  0  0  0  0
    5.7824  -11.4569   26.2405 C   0  0  0  0  0  0  0  0  0  0  0  0
    6.7441  -11.9370   27.2932 C   0  0  0  0  0  0  0  0  0  0  0  0
    7.7907  -12.6571   26.4995 C   0  0  1  0  0  0  0  0  0  0  0  0
    8.3988  -13.7233   27.3540 C   0  0  0  0  0  0  0  0  0  0  0  0
    9.3726  -13.4462   28.0713 O   0  0  0  0  0  0  0  0  0  0  0  0
    7.8793  -14.9852   27.3369 O   0  0  0  0  0  0  0  0  0  0  0  0
  2  1  1  6
  3  2  1  0
  4  2  1  0
  4  5  1  1
  6  7  2  0
  6  4  1  0
  8  6  1  0
  9 10  1  0
  9  8  1  0
 10 12  1  0
 11 10  2  0
 12 16  1  0
 13 12  1  0
 13 14  1  0
 14 15  1  0
 16 15  1  0
 16 17  1  1
 17 19  1  0
 18 17  2  0
M  END
$$$$
