VGP.pdb
     RDKit          3D

 19 19  0  0  1  0  0  0  0  0999 V2000
    7.9491  -20.6884   24.9769 C   0  0  0  0  0  0  0  0  0  0  0  0
    8.1688  -19.2186   24.8468 C   0  0  1  0  0  0  0  0  0  0  0  0
    9.4501  -18.7728   25.4504 C   0  0  0  0  0  0  0  0  0  0  0  0
    7.9312  -18.7184   23.4272 C   0  0  2  0  0  0  0  0  0  0  0  0
    8.9736  -19.2696   22.5490 N   0  0  0  0  0  0  0  0  0  0  0  0
    8.0361  -17.2527   23.3044 C   0  0  0  0  0  0  0  0  0  0  0  0
    9.1119  -16.6881   22.9412 O   0  0  0  0  0  0  0  0  0  0  0  0
    6.9375  -16.3518   23.5825 N   0  0  0  0  0  0  0  0  0  0  0  0
    7.1187  -14.9410   23.5051 C   0  0  0  0  0  0  0  0  0  0  0  0
    7.6723  -14.2052   24.6071 C   0  0  0  0  0  0  0  0  0  0  0  0
    8.9094  -14.5714   24.8837 O   0  0  0  0  0  0  0  0  0  0  0  0
    7.1242  -13.1836   25.4198 N   0  0  0  0  0  0  0  0  0  0  0  0
    5.8732  -12.5159   25.2724 C   0  0  0  0  0  0  0  0  0  0  0  0
    5.9390  -11.2781   26.2075 C   0  0  0  0  0  0  0  0  0  0  0  0
    6.8663  -11.7679   27.2863 C   0  0  0  0  0  0  0  0  0  0  0  0
    7.8428  -12.6223   26.5380 C   0  0  1  0  0  0  0  0  0  0  0  0
    8.3675  -13.6782   27.4581 C   0  0  0  0  0  0  0  0  0  0  0  0
    7.8818  -14.8191   27.4142 O   0  0  0  0  0  0  0  0  0  0  0  0
    9.3708  -13.3781   28.3333 O   0  0  0  0  0  0  0  0  0  0  0  0
  2  1  1  6
  3  2  1  0
  4  2  1  0
  4  5  1  6
  6  7  2  0
  6  4  1  0
  8  6  1  0
  9 10  1  0
  9  8  1  0
 10 12  1  0
 11 10  2  0
 12 16  1  0
 13 12  1  0
 13 14  1  0
 14 15  1  0
 16 15  1  0
 16 17  1  1
 17 19  1  0
 18 17  2  0
M  END
$$$$
