VGP.pdb
     RDKit          3D

 19 19  0  0  1  0  0  0  0  0999 V2000
   11.3961  -16.8805   23.0595 C   0  0  0  0  0  0  0  0  0  0  0  0
   10.8351  -17.1018   21.6950 C   0  0  1  0  0  0  0  0  0  0  0  0
   11.7109  -17.9452   20.8428 C   0  0  0  0  0  0  0  0  0  0  0  0
    9.3760  -17.5398   21.7301 C   0  0  2  0  0  0  0  0  0  0  0  0
    8.8823  -17.6568   20.3502 N   0  0  0  0  0  0  0  0  0  0  0  0
    8.4932  -16.5609   22.3911 C   0  0  0  0  0  0  0  0  0  0  0  0
    8.2824  -15.4118   21.8980 O   0  0  0  0  0  0  0  0  0  0  0  0
    7.8046  -16.8267   23.6365 N   0  0  0  0  0  0  0  0  0  0  0  0
    7.0612  -15.8009   24.2878 C   0  0  0  0  0  0  0  0  0  0  0  0
    7.7167  -14.8157   25.1015 C   0  0  0  0  0  0  0  0  0  0  0  0
    8.9920  -15.0931   25.2951 O   0  0  0  0  0  0  0  0  0  0  0  0
    7.2326  -13.6330   25.7110 N   0  0  0  0  0  0  0  0  0  0  0  0
    5.9843  -12.9784   25.4972 C   0  0  0  0  0  0  0  0  0  0  0  0
    6.1233  -11.5748   26.1462 C   0  0  0  0  0  0  0  0  0  0  0  0
    7.1073  -11.8524   27.2499 C   0  0  0  0  0  0  0  0  0  0  0  0
    8.0251  -12.8695   26.6441 C   0  0  1  0  0  0  0  0  0  0  0  0
    8.5899  -13.7232   27.7346 C   0  0  0  0  0  0  0  0  0  0  0  0
    8.0551  -14.8126   27.9927 O   0  0  0  0  0  0  0  0  0  0  0  0
    9.6831  -13.2978   28.4321 O   0  0  0  0  0  0  0  0  0  0  0  0
  2  1  1  1
  3  2  1  0
  4  2  1  0
  4  5  1  6
  6  7  2  0
  6  4  1  0
  8  6  1  0
  9 10  1  0
  9  8  1  0
 10 12  1  0
 11 10  2  0
 12 16  1  0
 13 12  1  0
 13 14  1  0
 14 15  1  0
 16 15  1  0
 16 17  1  1
 17 19  1  0
 18 17  2  0
M  END
$$$$
