VGP.pdb
     RDKit          3D

 19 19  0  0  1  0  0  0  0  0999 V2000
   11.2361  -19.0727   22.1042 C   0  0  0  0  0  0  0  0  0  0  0  0
   10.6633  -17.7449   22.4709 C   0  0  1  0  0  0  0  0  0  0  0  0
   11.7044  -16.7065   22.6771 C   0  0  0  0  0  0  0  0  0  0  0  0
    9.5274  -17.3259   21.5456 C   0  0  2  0  0  0  0  0  0  0  0  0
   10.0754  -17.0762   20.2044 N   0  0  0  0  0  0  0  0  0  0  0  0
    8.8806  -16.0660   21.9564 C   0  0  0  0  0  0  0  0  0  0  0  0
    9.2779  -14.9405   21.5280 O   0  0  0  0  0  0  0  0  0  0  0  0
    7.7563  -16.0106   22.8667 N   0  0  0  0  0  0  0  0  0  0  0  0
    7.2595  -14.7588   23.3308 C   0  0  0  0  0  0  0  0  0  0  0  0
    7.7524  -14.1722   24.5455 C   0  0  0  0  0  0  0  0  0  0  0  0
    8.9112  -14.6835   24.9151 O   0  0  0  0  0  0  0  0  0  0  0  0
    7.2141  -13.1670   25.3848 N   0  0  0  0  0  0  0  0  0  0  0  0
    6.0918  -12.3226   25.1406 C   0  0  0  0  0  0  0  0  0  0  0  0
    6.1629  -11.2004   26.2112 C   0  0  0  0  0  0  0  0  0  0  0  0
    6.8460  -11.9135   27.3463 C   0  0  0  0  0  0  0  0  0  0  0  0
    7.8147  -12.8190   26.6497 C   0  0  1  0  0  0  0  0  0  0  0  0
    8.0584  -14.0198   27.5073 C   0  0  0  0  0  0  0  0  0  0  0  0
    7.3949  -15.0502   27.3136 O   0  0  0  0  0  0  0  0  0  0  0  0
    9.0039  -13.9711   28.4903 O   0  0  0  0  0  0  0  0  0  0  0  0
  2  1  1  6
  3  2  1  0
  4  2  1  0
  4  5  1  6
  6  7  2  0
  6  4  1  0
  8  6  1  0
  9 10  1  0
  9  8  1  0
 10 12  1  0
 11 10  2  0
 12 16  1  0
 13 12  1  0
 13 14  1  0
 14 15  1  0
 16 15  1  0
 16 17  1  1
 17 19  1  0
 18 17  2  0
M  END
$$$$
