VGP.pdb
     RDKit          3D

 19 19  0  0  1  0  0  0  0  0999 V2000
    9.4121  -19.3556   21.3720 C   0  0  0  0  0  0  0  0  0  0  0  0
    9.4193  -17.9797   21.9487 C   0  0  1  0  0  0  0  0  0  0  0  0
   10.7389  -17.5996   22.5133 C   0  0  0  0  0  0  0  0  0  0  0  0
    8.8166  -16.9491   21.0019 C   0  0  2  0  0  0  0  0  0  0  0  0
    9.7496  -16.7248   19.8881 N   0  0  0  0  0  0  0  0  0  0  0  0
    8.6180  -15.6305   21.6314 C   0  0  0  0  0  0  0  0  0  0  0  0
    9.5204  -14.7397   21.6148 O   0  0  0  0  0  0  0  0  0  0  0  0
    7.3964  -15.2496   22.3084 N   0  0  0  0  0  0  0  0  0  0  0  0
    7.2841  -13.9789   22.9424 C   0  0  0  0  0  0  0  0  0  0  0  0
    7.7106  -13.7901   24.3007 C   0  0  0  0  0  0  0  0  0  0  0  0
    8.7281  -14.5672   24.6195 O   0  0  0  0  0  0  0  0  0  0  0  0
    7.2318  -12.9336   25.3213 N   0  0  0  0  0  0  0  0  0  0  0  0
    6.2145  -11.9387   25.2320 C   0  0  0  0  0  0  0  0  0  0  0  0
    6.3405  -11.0845   26.5224 C   0  0  0  0  0  0  0  0  0  0  0  0
    6.8868  -12.0932   27.4960 C   0  0  0  0  0  0  0  0  0  0  0  0
    7.7957  -12.9304   26.6494 C   0  0  1  0  0  0  0  0  0  0  0  0
    7.8714  -14.3054   27.2329 C   0  0  0  0  0  0  0  0  0  0  0  0
    8.7300  -14.5545   28.0933 O   0  0  0  0  0  0  0  0  0  0  0  0
    6.9994  -15.2687   26.8154 O   0  0  0  0  0  0  0  0  0  0  0  0
  2  1  1  6
  3  2  1  0
  4  2  1  0
  4  5  1  6
  6  7  2  0
  6  4  1  0
  8  6  1  0
  9 10  1  0
  9  8  1  0
 10 12  1  0
 11 10  2  0
 12 16  1  0
 13 12  1  0
 13 14  1  0
 14 15  1  0
 16 15  1  0
 16 17  1  1
 17 19  1  0
 18 17  2  0
M  END
$$$$
