VGP.pdb
     RDKit          3D

 19 19  0  0  1  0  0  0  0  0999 V2000
    9.9963  -18.1375   19.0302 C   0  0  0  0  0  0  0  0  0  0  0  0
    9.2287  -17.0815   19.7523 C   0  0  1  0  0  0  0  0  0  0  0  0
    7.7894  -17.0661   19.3880 C   0  0  0  0  0  0  0  0  0  0  0  0
    9.5012  -17.0869   21.2515 C   0  0  2  0  0  0  0  0  0  0  0  0
    8.9081  -18.2979   21.8373 N   0  0  0  0  0  0  0  0  0  0  0  0
    8.8778  -15.9522   21.9575 C   0  0  0  0  0  0  0  0  0  0  0  0
    9.3193  -14.7692   21.8411 O   0  0  0  0  0  0  0  0  0  0  0  0
    7.7285  -16.0923   22.8265 N   0  0  0  0  0  0  0  0  0  0  0  0
    7.1143  -14.9460   23.4077 C   0  0  0  0  0  0  0  0  0  0  0  0
    7.6901  -14.2996   24.5535 C   0  0  0  0  0  0  0  0  0  0  0  0
    8.8901  -14.7661   24.8422 O   0  0  0  0  0  0  0  0  0  0  0  0
    7.1954  -13.2761   25.3976 N   0  0  0  0  0  0  0  0  0  0  0  0
    6.0182  -12.4893   25.2321 C   0  0  0  0  0  0  0  0  0  0  0  0
    6.1473  -11.3138   26.2383 C   0  0  0  0  0  0  0  0  0  0  0  0
    6.9718  -11.9430   27.3282 C   0  0  0  0  0  0  0  0  0  0  0  0
    7.9044  -12.8431   26.5772 C   0  0  1  0  0  0  0  0  0  0  0  0
    8.2857  -13.9897   27.4585 C   0  0  0  0  0  0  0  0  0  0  0  0
    7.6543  -15.0548   27.3779 O   0  0  0  0  0  0  0  0  0  0  0  0
    9.3197  -13.8544   28.3389 O   0  0  0  0  0  0  0  0  0  0  0  0
  2  1  1  6
  3  2  1  0
  4  2  1  0
  4  5  1  1
  6  7  2  0
  6  4  1  0
  8  6  1  0
  9 10  1  0
  9  8  1  0
 10 12  1  0
 11 10  2  0
 12 16  1  0
 13 12  1  0
 13 14  1  0
 14 15  1  0
 16 15  1  0
 16 17  1  1
 17 19  1  0
 18 17  2  0
M  END
$$$$
