VGP.pdb
     RDKit          3D

 19 19  0  0  1  0  0  0  0  0999 V2000
    9.0742  -13.7323   18.0378 C   0  0  0  0  0  0  0  0  0  0  0  0
    8.4844  -13.6771   19.4070 C   0  0  1  0  0  0  0  0  0  0  0  0
    7.3739  -12.6976   19.5159 C   0  0  0  0  0  0  0  0  0  0  0  0
    8.1628  -15.0609   19.9580 C   0  0  2  0  0  0  0  0  0  0  0  0
    7.2391  -15.7364   19.0349 N   0  0  0  0  0  0  0  0  0  0  0  0
    7.4714  -15.0196   21.2597 C   0  0  0  0  0  0  0  0  0  0  0  0
    6.2346  -14.7547   21.3511 O   0  0  0  0  0  0  0  0  0  0  0  0
    8.1358  -15.2751   22.5203 N   0  0  0  0  0  0  0  0  0  0  0  0
    7.4318  -15.1427   23.7515 C   0  0  0  0  0  0  0  0  0  0  0  0
    7.9411  -14.3153   24.8092 C   0  0  0  0  0  0  0  0  0  0  0  0
    9.2443  -14.4481   24.9664 O   0  0  0  0  0  0  0  0  0  0  0  0
    7.2929  -13.4096   25.6834 N   0  0  0  0  0  0  0  0  0  0  0  0
    5.9961  -12.8324   25.5514 C   0  0  0  0  0  0  0  0  0  0  0  0
    5.9393  -11.6737   26.5834 C   0  0  0  0  0  0  0  0  0  0  0  0
    6.8770  -12.1754   27.6476 C   0  0  0  0  0  0  0  0  0  0  0  0
    7.9370  -12.8867   26.8638 C   0  0  1  0  0  0  0  0  0  0  0  0
    8.5229  -13.9696   27.7128 C   0  0  0  0  0  0  0  0  0  0  0  0
    8.0589  -15.1181   27.6395 O   0  0  0  0  0  0  0  0  0  0  0  0
    9.5576  -13.6858   28.5563 O   0  0  0  0  0  0  0  0  0  0  0  0
  2  1  1  6
  3  2  1  0
  4  2  1  0
  4  5  1  6
  6  7  2  0
  6  4  1  0
  8  6  1  0
  9 10  1  0
  9  8  1  0
 10 12  1  0
 11 10  2  0
 12 16  1  0
 13 12  1  0
 13 14  1  0
 14 15  1  0
 16 15  1  0
 16 17  1  1
 17 19  1  0
 18 17  2  0
M  END
$$$$
