EFH.pdb
     RDKit          3D

 31 32  0  0  1  0  0  0  0  0999 V2000
   27.5609  -22.0607  -17.9310 N   0  0  0  0  0  0  0  0  0  0  0  0
   26.9453  -20.8345  -17.3943 C   0  0  1  0  0  0  0  0  0  0  0  0
   25.8524  -20.4512  -18.3323 C   0  0  0  0  0  0  0  0  0  0  0  0
   26.3263  -19.5662  -19.4255 C   0  0  0  0  0  0  0  0  0  0  0  0
   26.9792  -20.3238  -20.5055 C   0  0  0  0  0  0  0  0  0  0  0  0
   28.2187  -20.3129  -20.7062 O   0  0  0  0  0  0  0  0  0  0  0  0
   26.2885  -21.2648  -16.1056 C   0  0  0  0  0  0  0  0  0  0  0  0
   25.7095  -22.3971  -16.0352 O   0  0  0  0  0  0  0  0  0  0  0  0
   26.2439  -21.1154  -21.3886 O   0  0  0  0  0  0  0  0  0  0  0  0
   26.2809  -20.4555  -14.9390 N   0  0  0  0  0  0  0  0  0  0  0  0
   25.6593  -20.8821  -13.6926 C   0  0  1  0  0  0  0  0  0  0  0  0
   26.4252  -20.2648  -12.5747 C   0  0  0  0  0  0  0  0  0  0  0  0
   25.8399  -20.4526  -11.2401 C   0  0  0  0  0  0  0  0  0  0  0  0
   24.9996  -19.5259  -10.6734 C   0  0  0  0  0  0  0  0  0  0  0  0
   24.4391  -19.6847   -9.4210 C   0  0  0  0  0  0  0  0  0  0  0  0
   24.7311  -20.8298   -8.6915 C   0  0  0  0  0  0  0  0  0  0  0  0
   25.5713  -21.7753   -9.2365 C   0  0  0  0  0  0  0  0  0  0  0  0
   26.1182  -21.5815  -10.5025 C   0  0  0  0  0  0  0  0  0  0  0  0
   24.2322  -20.5109  -13.7428 C   0  0  0  0  0  0  0  0  0  0  0  0
   23.8631  -19.3402  -14.0494 O   0  0  0  0  0  0  0  0  0  0  0  0
   23.1898  -21.4326  -13.4535 N   0  0  0  0  0  0  0  0  0  0  0  0
   21.7647  -20.9820  -13.4417 C   0  0  1  0  0  0  0  0  0  0  0  0
   20.9239  -22.0922  -13.9538 C   0  0  0  0  0  0  0  0  0  0  0  0
   20.8815  -22.2894  -15.4037 C   0  0  0  0  0  0  0  0  0  0  0  0
   20.6544  -21.4512  -16.4581 C   0  0  0  0  0  0  0  0  0  0  0  0
   20.7980  -22.1881  -17.5915 N   0  0  0  0  0  0  0  0  0  0  0  0
   21.1025  -23.4317  -17.2692 C   0  0  0  0  0  0  0  0  0  0  0  0
   21.1563  -23.5053  -15.9422 N   0  0  0  0  0  0  0  0  0  0  0  0
   21.4471  -20.6744  -11.9962 C   0  0  0  0  0  0  0  0  0  0  0  0
   21.8327  -21.3884  -10.9130 O   0  0  0  0  0  0  0  0  0  0  0  0
   20.7405  -19.6271  -11.7850 O   0  0  0  0  0  0  0  0  0  0  0  0
  2  1  1  6
  2  3  1  0
  3  4  1  0
  5  4  1  0
  6  5  2  0
  7  2  1  0
  8  7  2  0
  9  5  1  0
 10  7  1  0
 11 12  1  1
 11 10  1  0
 12 13  1  0
 13 18  2  0
 14 15  2  0
 14 13  1  0
 15 16  1  0
 16 17  2  0
 18 17  1  0
 19 11  1  0
 20 19  2  0
 21 19  1  0
 22 21  1  0
 23 24  1  0
 22 23  1  1
 24 25  2  0
 25 26  1  0
 27 26  1  0
 28 24  1  0
 28 27  2  0
 29 22  1  0
 29 30  1  0
 31 29  2  0
M  END
$$$$
