EFH.pdb
     RDKit          3D

 31 32  0  0  1  0  0  0  0  0999 V2000
   22.7247  -14.8815  -15.9554 N   0  0  0  0  0  0  0  0  0  0  0  0
   23.0839  -13.7584  -16.8386 C   0  0  1  0  0  0  0  0  0  0  0  0
   22.0495  -13.7007  -17.9099 C   0  0  0  0  0  0  0  0  0  0  0  0
   22.2432  -12.5484  -18.8252 C   0  0  0  0  0  0  0  0  0  0  0  0
   22.8361  -12.9568  -20.1091 C   0  0  0  0  0  0  0  0  0  0  0  0
   22.8412  -12.2276  -21.1314 O   0  0  0  0  0  0  0  0  0  0  0  0
   22.9050  -12.5254  -15.9871 C   0  0  0  0  0  0  0  0  0  0  0  0
   21.8213  -12.3521  -15.3406 O   0  0  0  0  0  0  0  0  0  0  0  0
   23.4403  -14.2044  -20.2693 O   0  0  0  0  0  0  0  0  0  0  0  0
   23.9039  -11.5238  -15.8649 N   0  0  0  0  0  0  0  0  0  0  0  0
   23.7496  -10.3641  -14.9971 C   0  0  1  0  0  0  0  0  0  0  0  0
   25.0972  -10.0180  -14.4666 C   0  0  0  0  0  0  0  0  0  0  0  0
   26.1526   -9.8913  -15.4811 C   0  0  0  0  0  0  0  0  0  0  0  0
   26.2484   -8.7954  -16.3032 C   0  0  0  0  0  0  0  0  0  0  0  0
   27.2333   -8.6576  -17.2619 C   0  0  0  0  0  0  0  0  0  0  0  0
   28.1756   -9.6668  -17.4108 C   0  0  0  0  0  0  0  0  0  0  0  0
   28.1024  -10.7770  -16.5990 C   0  0  0  0  0  0  0  0  0  0  0  0
   27.0953  -10.8818  -15.6429 C   0  0  0  0  0  0  0  0  0  0  0  0
   23.0985   -9.2934  -15.7760 C   0  0  0  0  0  0  0  0  0  0  0  0
   23.3736   -9.1014  -16.9959 O   0  0  0  0  0  0  0  0  0  0  0  0
   22.1309   -8.4170  -15.2144 N   0  0  0  0  0  0  0  0  0  0  0  0
   21.5681   -7.2942  -16.0247 C   0  0  1  0  0  0  0  0  0  0  0  0
   20.1006   -7.4880  -16.1279 C   0  0  0  0  0  0  0  0  0  0  0  0
   19.3203   -6.4047  -16.7280 C   0  0  0  0  0  0  0  0  0  0  0  0
   19.6603   -5.2444  -17.3636 C   0  0  0  0  0  0  0  0  0  0  0  0
   18.5024   -4.6540  -17.7624 N   0  0  0  0  0  0  0  0  0  0  0  0
   17.4800   -5.4054  -17.3978 C   0  0  0  0  0  0  0  0  0  0  0  0
   17.9646   -6.4724  -16.7684 N   0  0  0  0  0  0  0  0  0  0  0  0
   21.9030   -6.0334  -15.2611 C   0  0  0  0  0  0  0  0  0  0  0  0
   22.5159   -5.9550  -14.0568 O   0  0  0  0  0  0  0  0  0  0  0  0
   21.5693   -4.9304  -15.8202 O   0  0  0  0  0  0  0  0  0  0  0  0
  2  1  1  1
  2  3  1  0
  3  4  1  0
  5  4  1  0
  6  5  2  0
  7  2  1  0
  8  7  2  0
  9  5  1  0
 10  7  1  0
 11 12  1  6
 11 10  1  0
 12 13  1  0
 13 18  2  0
 14 15  2  0
 14 13  1  0
 15 16  1  0
 16 17  2  0
 18 17  1  0
 19 11  1  0
 20 19  2  0
 21 19  1  0
 22 21  1  0
 23 24  1  0
 22 23  1  1
 24 25  2  0
 25 26  1  0
 27 26  1  0
 28 24  1  0
 28 27  2  0
 29 22  1  0
 29 30  1  0
 31 29  2  0
M  END
$$$$
