EFH.pdb
     RDKit          3D

 31 32  0  0  1  0  0  0  0  0999 V2000
   27.5032  -21.6732  -16.0249 N   0  0  0  0  0  0  0  0  0  0  0  0
   27.1359  -20.6644  -15.0160 C   0  0  1  0  0  0  0  0  0  0  0  0
   26.3173  -19.6320  -15.7125 C   0  0  0  0  0  0  0  0  0  0  0  0
   27.1138  -18.8283  -16.6730 C   0  0  0  0  0  0  0  0  0  0  0  0
   27.9726  -17.8459  -15.9920 C   0  0  0  0  0  0  0  0  0  0  0  0
   27.6110  -17.1945  -14.9812 O   0  0  0  0  0  0  0  0  0  0  0  0
   26.2150  -21.3879  -14.0643 C   0  0  0  0  0  0  0  0  0  0  0  0
   25.5585  -22.4033  -14.4648 O   0  0  0  0  0  0  0  0  0  0  0  0
   29.2665  -17.5747  -16.4388 O   0  0  0  0  0  0  0  0  0  0  0  0
   26.0365  -20.9879  -12.7137 N   0  0  0  0  0  0  0  0  0  0  0  0
   25.2532  -21.7649  -11.7627 C   0  0  1  0  0  0  0  0  0  0  0  0
   26.1316  -22.0676  -10.5990 C   0  0  0  0  0  0  0  0  0  0  0  0
   26.1898  -21.0177   -9.5726 C   0  0  0  0  0  0  0  0  0  0  0  0
   26.1139  -19.6831   -9.8870 C   0  0  0  0  0  0  0  0  0  0  0  0
   26.1659  -18.6818   -8.9368 C   0  0  0  0  0  0  0  0  0  0  0  0
   26.3012  -19.0281   -7.5987 C   0  0  0  0  0  0  0  0  0  0  0  0
   26.3797  -20.3597   -7.2559 C   0  0  0  0  0  0  0  0  0  0  0  0
   26.3237  -21.3423   -8.2411 C   0  0  0  0  0  0  0  0  0  0  0  0
   24.0373  -20.9959  -11.4354 C   0  0  0  0  0  0  0  0  0  0  0  0
   23.3471  -21.2547  -10.4072 O   0  0  0  0  0  0  0  0  0  0  0  0
   23.5662  -19.9261  -12.2439 N   0  0  0  0  0  0  0  0  0  0  0  0
   22.1304  -19.8654  -12.6548 C   0  0  1  0  0  0  0  0  0  0  0  0
   22.0623  -20.0405  -14.1266 C   0  0  0  0  0  0  0  0  0  0  0  0
   22.6278  -18.9757  -14.9569 C   0  0  0  0  0  0  0  0  0  0  0  0
   23.1767  -17.7573  -14.6742 C   0  0  0  0  0  0  0  0  0  0  0  0
   23.5872  -17.2214  -15.8543 N   0  0  0  0  0  0  0  0  0  0  0  0
   23.3123  -18.0610  -16.8353 C   0  0  0  0  0  0  0  0  0  0  0  0
   22.7292  -19.1311  -16.3021 N   0  0  0  0  0  0  0  0  0  0  0  0
   21.4521  -21.0078  -11.9339 C   0  0  0  0  0  0  0  0  0  0  0  0
   21.7879  -22.3175  -11.9960 O   0  0  0  0  0  0  0  0  0  0  0  0
   20.4586  -20.6935  -11.1890 O   0  0  0  0  0  0  0  0  0  0  0  0
  2  1  1  6
  2  3  1  0
  3  4  1  0
  5  4  1  0
  6  5  2  0
  7  2  1  0
  8  7  2  0
  9  5  1  0
 10  7  1  0
 11 12  1  1
 11 10  1  0
 12 13  1  0
 13 18  2  0
 14 15  2  0
 14 13  1  0
 15 16  1  0
 16 17  2  0
 18 17  1  0
 19 11  1  0
 20 19  2  0
 21 19  1  0
 22 21  1  0
 23 24  1  0
 22 23  1  6
 24 25  2  0
 25 26  1  0
 27 26  1  0
 28 24  1  0
 28 27  2  0
 29 22  1  0
 29 30  1  0
 31 29  2  0
M  END
$$$$
