EFH.pdb
     RDKit          3D

 31 32  0  0  1  0  0  0  0  0999 V2000
   18.0220  -13.3797  -16.6253 N   0  0  0  0  0  0  0  0  0  0  0  0
   18.2119  -11.9952  -17.0918 C   0  0  1  0  0  0  0  0  0  0  0  0
   17.0763  -11.1955  -16.5516 C   0  0  0  0  0  0  0  0  0  0  0  0
   15.7881  -11.5184  -17.2144 C   0  0  0  0  0  0  0  0  0  0  0  0
   14.6725  -10.7295  -16.6669 C   0  0  0  0  0  0  0  0  0  0  0  0
   14.3440   -9.5996  -17.1053 O   0  0  0  0  0  0  0  0  0  0  0  0
   19.4594  -11.5188  -16.3887 C   0  0  0  0  0  0  0  0  0  0  0  0
   19.8494  -12.0997  -15.3243 O   0  0  0  0  0  0  0  0  0  0  0  0
   13.8979  -11.2006  -15.6061 O   0  0  0  0  0  0  0  0  0  0  0  0
   20.2407  -10.4315  -16.8613 N   0  0  0  0  0  0  0  0  0  0  0  0
   21.4282   -9.9575  -16.1635 C   0  0  1  0  0  0  0  0  0  0  0  0
   22.6052  -10.6458  -16.7620 C   0  0  0  0  0  0  0  0  0  0  0  0
   23.9065  -10.2550  -16.2027 C   0  0  0  0  0  0  0  0  0  0  0  0
   24.4316  -10.8554  -15.0848 C   0  0  0  0  0  0  0  0  0  0  0  0
   25.6530  -10.5027  -14.5446 C   0  0  0  0  0  0  0  0  0  0  0  0
   26.3934   -9.4962  -15.1507 C   0  0  0  0  0  0  0  0  0  0  0  0
   25.8898   -8.8774  -16.2734 C   0  0  0  0  0  0  0  0  0  0  0  0
   24.6543   -9.2593  -16.7903 C   0  0  0  0  0  0  0  0  0  0  0  0
   21.4583   -8.4855  -16.2600 C   0  0  0  0  0  0  0  0  0  0  0  0
   21.3681   -7.8932  -17.3743 O   0  0  0  0  0  0  0  0  0  0  0  0
   21.5891   -7.6452  -15.1213 N   0  0  0  0  0  0  0  0  0  0  0  0
   21.6892   -6.1628  -15.2839 C   0  0  1  0  0  0  0  0  0  0  0  0
   20.4110   -5.5601  -14.8313 C   0  0  0  0  0  0  0  0  0  0  0  0
   19.2490   -5.7115  -15.7086 C   0  0  0  0  0  0  0  0  0  0  0  0
   18.9462   -5.2395  -16.9541 C   0  0  0  0  0  0  0  0  0  0  0  0
   17.7362   -5.7581  -17.2938 N   0  0  0  0  0  0  0  0  0  0  0  0
   17.2961   -6.5220  -16.3111 C   0  0  0  0  0  0  0  0  0  0  0  0
   18.2072   -6.5016  -15.3421 N   0  0  0  0  0  0  0  0  0  0  0  0
   22.8407   -5.7337  -14.4037 C   0  0  0  0  0  0  0  0  0  0  0  0
   23.3188   -4.4765  -14.2517 O   0  0  0  0  0  0  0  0  0  0  0  0
   23.4162   -6.6628  -13.7358 O   0  0  0  0  0  0  0  0  0  0  0  0
  2  1  1  1
  2  3  1  0
  3  4  1  0
  5  4  1  0
  6  5  2  0
  7  2  1  0
  8  7  2  0
  9  5  1  0
 10  7  1  0
 11 12  1  6
 11 10  1  0
 12 13  1  0
 13 18  2  0
 14 15  2  0
 14 13  1  0
 15 16  1  0
 16 17  2  0
 18 17  1  0
 19 11  1  0
 20 19  2  0
 21 19  1  0
 22 21  1  0
 23 24  1  0
 22 23  1  1
 24 25  2  0
 25 26  1  0
 27 26  1  0
 28 24  1  0
 28 27  2  0
 29 22  1  0
 29 30  1  0
 31 29  2  0
M  END
$$$$
