EFH.pdb
     RDKit          3D

 31 32  0  0  1  0  0  0  0  0999 V2000
   16.2219   -8.4709  -11.8992 N   0  0  0  0  0  0  0  0  0  0  0  0
   16.6983   -9.2793  -13.0349 C   0  0  1  0  0  0  0  0  0  0  0  0
   15.6297   -9.2418  -14.0730 C   0  0  0  0  0  0  0  0  0  0  0  0
   14.5096  -10.1670  -13.7690 C   0  0  0  0  0  0  0  0  0  0  0  0
   13.2099   -9.4762  -13.7594 C   0  0  0  0  0  0  0  0  0  0  0  0
   12.5876   -9.1591  -14.8029 O   0  0  0  0  0  0  0  0  0  0  0  0
   17.8754   -8.5131  -13.5871 C   0  0  0  0  0  0  0  0  0  0  0  0
   17.7889   -7.2542  -13.7596 O   0  0  0  0  0  0  0  0  0  0  0  0
   12.5793   -9.1254  -12.5650 O   0  0  0  0  0  0  0  0  0  0  0  0
   19.1038   -9.1354  -13.9331 N   0  0  0  0  0  0  0  0  0  0  0  0
   20.2387   -8.3905  -14.4615 C   0  0  1  0  0  0  0  0  0  0  0  0
   21.2989   -8.3864  -13.4159 C   0  0  0  0  0  0  0  0  0  0  0  0
   21.0916   -7.4273  -12.3221 C   0  0  0  0  0  0  0  0  0  0  0  0
   20.6515   -7.8178  -11.0812 C   0  0  0  0  0  0  0  0  0  0  0  0
   20.4515   -6.9319  -10.0405 C   0  0  0  0  0  0  0  0  0  0  0  0
   20.7034   -5.5817  -10.2460 C   0  0  0  0  0  0  0  0  0  0  0  0
   21.1456   -5.1632  -11.4814 C   0  0  0  0  0  0  0  0  0  0  0  0
   21.3362   -6.0851  -12.5076 C   0  0  0  0  0  0  0  0  0  0  0  0
   20.6354   -9.0085  -15.7412 C   0  0  0  0  0  0  0  0  0  0  0  0
   20.4590  -10.2414  -15.9637 O   0  0  0  0  0  0  0  0  0  0  0  0
   21.2351   -8.2688  -16.7962 N   0  0  0  0  0  0  0  0  0  0  0  0
   21.2487   -8.8135  -18.1880 C   0  0  1  0  0  0  0  0  0  0  0  0
   19.8521   -9.1340  -18.5733 C   0  0  0  0  0  0  0  0  0  0  0  0
   19.6221   -9.5957  -19.9433 C   0  0  0  0  0  0  0  0  0  0  0  0
   20.4535   -9.8838  -20.9881 C   0  0  0  0  0  0  0  0  0  0  0  0
   19.6726  -10.3284  -22.0083 N   0  0  0  0  0  0  0  0  0  0  0  0
   18.4089  -10.3227  -21.6265 C   0  0  0  0  0  0  0  0  0  0  0  0
   18.3657   -9.8795  -20.3731 N   0  0  0  0  0  0  0  0  0  0  0  0
   21.8171   -7.7105  -19.0513 C   0  0  0  0  0  0  0  0  0  0  0  0
   22.7813   -7.8349  -19.9930 O   0  0  0  0  0  0  0  0  0  0  0  0
   21.3286   -6.5411  -18.8655 O   0  0  0  0  0  0  0  0  0  0  0  0
  2  1  1  1
  2  3  1  0
  3  4  1  0
  5  4  1  0
  6  5  2  0
  7  2  1  0
  8  7  2  0
  9  5  1  0
 10  7  1  0
 11 12  1  1
 11 10  1  0
 12 13  1  0
 13 18  2  0
 14 15  2  0
 14 13  1  0
 15 16  1  0
 16 17  2  0
 18 17  1  0
 19 11  1  0
 20 19  2  0
 21 19  1  0
 22 21  1  0
 23 24  1  0
 22 23  1  6
 24 25  2  0
 25 26  1  0
 27 26  1  0
 28 24  1  0
 28 27  2  0
 29 22  1  0
 29 30  1  0
 31 29  2  0
M  END
$$$$
