EFH.pdb
     RDKit          3D

 31 32  0  0  1  0  0  0  0  0999 V2000
   27.1886  -38.2683   -6.5495 N   0  0  0  0  0  0  0  0  0  0  0  0
   26.4869  -38.4201   -5.2630 C   0  0  1  0  0  0  0  0  0  0  0  0
   27.2052  -39.4790   -4.4990 C   0  0  0  0  0  0  0  0  0  0  0  0
   26.7207  -40.8432   -4.8261 C   0  0  0  0  0  0  0  0  0  0  0  0
   25.5048  -41.1925   -4.0736 C   0  0  0  0  0  0  0  0  0  0  0  0
   24.3911  -40.6457   -4.2668 O   0  0  0  0  0  0  0  0  0  0  0  0
   26.7233  -37.1175   -4.5385 C   0  0  0  0  0  0  0  0  0  0  0  0
   27.8087  -36.4768   -4.7222 O   0  0  0  0  0  0  0  0  0  0  0  0
   25.5183  -42.1724   -3.0801 O   0  0  0  0  0  0  0  0  0  0  0  0
   25.7780  -36.5542   -3.6412 N   0  0  0  0  0  0  0  0  0  0  0  0
   25.9516  -35.2368   -3.0445 C   0  0  1  0  0  0  0  0  0  0  0  0
   24.8319  -34.3778   -3.5195 C   0  0  0  0  0  0  0  0  0  0  0  0
   24.7725  -33.0403   -2.9140 C   0  0  0  0  0  0  0  0  0  0  0  0
   25.6775  -32.0557   -3.2263 C   0  0  0  0  0  0  0  0  0  0  0  0
   25.6377  -30.7926   -2.6686 C   0  0  0  0  0  0  0  0  0  0  0  0
   24.6416  -30.4924   -1.7487 C   0  0  0  0  0  0  0  0  0  0  0  0
   23.7209  -31.4618   -1.4178 C   0  0  0  0  0  0  0  0  0  0  0  0
   23.7919  -32.7248   -2.0003 C   0  0  0  0  0  0  0  0  0  0  0  0
   26.0239  -35.4039   -1.5803 C   0  0  0  0  0  0  0  0  0  0  0  0
   25.2166  -36.1542   -0.9591 O   0  0  0  0  0  0  0  0  0  0  0  0
   26.9934  -34.7409   -0.7802 N   0  0  0  0  0  0  0  0  0  0  0  0
   27.0526  -34.9863    0.6931 C   0  0  1  0  0  0  0  0  0  0  0  0
   25.6798  -34.8528    1.2401 C   0  0  0  0  0  0  0  0  0  0  0  0
   25.2732  -33.5310    1.7199 C   0  0  0  0  0  0  0  0  0  0  0  0
   25.6436  -32.2584    1.3895 C   0  0  0  0  0  0  0  0  0  0  0  0
   24.8806  -31.4150    2.1343 N   0  0  0  0  0  0  0  0  0  0  0  0
   24.0665  -32.1202    2.8976 C   0  0  0  0  0  0  0  0  0  0  0  0
   24.2957  -33.4077    2.6544 N   0  0  0  0  0  0  0  0  0  0  0  0
   27.5715  -36.3973    0.8502 C   0  0  0  0  0  0  0  0  0  0  0  0
   27.2040  -37.2947    1.7945 O   0  0  0  0  0  0  0  0  0  0  0  0
   28.4485  -36.7736   -0.0041 O   0  0  0  0  0  0  0  0  0  0  0  0
  2  1  1  6
  2  3  1  0
  3  4  1  0
  5  4  1  0
  6  5  2  0
  7  2  1  0
  8  7  2  0
  9  5  1  0
 10  7  1  0
 11 12  1  1
 11 10  1  0
 12 13  1  0
 13 18  2  0
 14 15  2  0
 14 13  1  0
 15 16  1  0
 16 17  2  0
 18 17  1  0
 19 11  1  0
 20 19  2  0
 21 19  1  0
 22 21  1  0
 23 24  1  0
 22 23  1  6
 24 25  2  0
 25 26  1  0
 27 26  1  0
 28 24  1  0
 28 27  2  0
 29 22  1  0
 29 30  1  0
 31 29  2  0
M  END
$$$$
