EFH.pdb
     RDKit          3D

 31 32  0  0  1  0  0  0  0  0999 V2000
   28.1634  -20.9411  -16.0955 N   0  0  0  0  0  0  0  0  0  0  0  0
   27.9527  -20.1098  -14.8976 C   0  0  1  0  0  0  0  0  0  0  0  0
   27.4229  -18.7983  -15.3671 C   0  0  0  0  0  0  0  0  0  0  0  0
   28.4560  -17.9794  -16.0490 C   0  0  0  0  0  0  0  0  0  0  0  0
   28.7697  -18.4929  -17.3923 C   0  0  0  0  0  0  0  0  0  0  0  0
   29.9220  -18.8443  -17.7466 O   0  0  0  0  0  0  0  0  0  0  0  0
   26.8359  -20.7920  -14.1460 C   0  0  0  0  0  0  0  0  0  0  0  0
   25.8219  -21.2330  -14.7782 O   0  0  0  0  0  0  0  0  0  0  0  0
   27.7844  -18.6222  -18.3720 O   0  0  0  0  0  0  0  0  0  0  0  0
   26.8553  -20.9731  -12.7379 N   0  0  0  0  0  0  0  0  0  0  0  0
   25.8077  -21.6917  -12.0253 C   0  0  1  0  0  0  0  0  0  0  0  0
   26.3964  -22.2010  -10.7559 C   0  0  0  0  0  0  0  0  0  0  0  0
   26.4229  -21.2346   -9.6494 C   0  0  0  0  0  0  0  0  0  0  0  0
   25.2759  -20.7945   -9.0357 C   0  0  0  0  0  0  0  0  0  0  0  0
   25.2803  -19.8874   -7.9940 C   0  0  0  0  0  0  0  0  0  0  0  0
   26.4940  -19.3904   -7.5374 C   0  0  0  0  0  0  0  0  0  0  0  0
   27.6597  -19.8152   -8.1354 C   0  0  0  0  0  0  0  0  0  0  0  0
   27.6169  -20.7311   -9.1836 C   0  0  0  0  0  0  0  0  0  0  0  0
   24.6625  -20.7775  -11.8521 C   0  0  0  0  0  0  0  0  0  0  0  0
   24.8277  -19.5574  -11.5610 O   0  0  0  0  0  0  0  0  0  0  0  0
   23.3141  -21.2018  -11.9988 N   0  0  0  0  0  0  0  0  0  0  0  0
   22.1944  -20.2215  -11.8592 C   0  0  1  0  0  0  0  0  0  0  0  0
   22.1613  -19.3795  -13.0806 C   0  0  0  0  0  0  0  0  0  0  0  0
   21.0521  -18.4338  -13.2148 C   0  0  0  0  0  0  0  0  0  0  0  0
   20.0906  -17.9873  -12.3534 C   0  0  0  0  0  0  0  0  0  0  0  0
   19.3553  -17.0599  -13.0225 N   0  0  0  0  0  0  0  0  0  0  0  0
   19.8298  -16.9257  -14.2471 C   0  0  0  0  0  0  0  0  0  0  0  0
   20.8614  -17.7555  -14.3757 N   0  0  0  0  0  0  0  0  0  0  0  0
   20.9387  -21.0534  -11.7315 C   0  0  0  0  0  0  0  0  0  0  0  0
   20.6783  -22.2268  -12.3539 O   0  0  0  0  0  0  0  0  0  0  0  0
   20.0342  -20.5923  -10.9506 O   0  0  0  0  0  0  0  0  0  0  0  0
  2  1  1  6
  2  3  1  0
  3  4  1  0
  5  4  1  0
  6  5  2  0
  7  2  1  0
  8  7  2  0
  9  5  1  0
 10  7  1  0
 11 12  1  1
 11 10  1  0
 12 13  1  0
 13 18  2  0
 14 15  2  0
 14 13  1  0
 15 16  1  0
 16 17  2  0
 18 17  1  0
 19 11  1  0
 20 19  2  0
 21 19  1  0
 22 21  1  0
 23 24  1  0
 22 23  1  6
 24 25  2  0
 25 26  1  0
 27 26  1  0
 28 24  1  0
 28 27  2  0
 29 22  1  0
 29 30  1  0
 31 29  2  0
M  END
$$$$
