EFH.pdb
     RDKit          3D

 31 32  0  0  1  0  0  0  0  0999 V2000
   28.2692  -20.6800  -17.6538 N   0  0  0  0  0  0  0  0  0  0  0  0
   27.9451  -22.1158  -17.5900 C   0  0  1  0  0  0  0  0  0  0  0  0
   29.2398  -22.8502  -17.5164 C   0  0  0  0  0  0  0  0  0  0  0  0
   30.3421  -22.1282  -18.1994 C   0  0  0  0  0  0  0  0  0  0  0  0
   30.2759  -22.2761  -19.6624 C   0  0  0  0  0  0  0  0  0  0  0  0
   30.1748  -21.3047  -20.4517 O   0  0  0  0  0  0  0  0  0  0  0  0
   27.2596  -22.2977  -16.2579 C   0  0  0  0  0  0  0  0  0  0  0  0
   26.9817  -23.4689  -15.8415 O   0  0  0  0  0  0  0  0  0  0  0  0
   30.3225  -23.5307  -20.2715 O   0  0  0  0  0  0  0  0  0  0  0  0
   26.8989  -21.2069  -15.4235 N   0  0  0  0  0  0  0  0  0  0  0  0
   26.1672  -21.3822  -14.1763 C   0  0  1  0  0  0  0  0  0  0  0  0
   26.7557  -20.4496  -13.1757 C   0  0  0  0  0  0  0  0  0  0  0  0
   26.1211  -20.4757  -11.8507 C   0  0  0  0  0  0  0  0  0  0  0  0
   24.9588  -19.7950  -11.5834 C   0  0  0  0  0  0  0  0  0  0  0  0
   24.3467  -19.8079  -10.3451 C   0  0  0  0  0  0  0  0  0  0  0  0
   24.9237  -20.5392   -9.3151 C   0  0  0  0  0  0  0  0  0  0  0  0
   26.0898  -21.2312   -9.5563 C   0  0  0  0  0  0  0  0  0  0  0  0
   26.6788  -21.1953  -10.8177 C   0  0  0  0  0  0  0  0  0  0  0  0
   24.7339  -21.1673  -14.4529 C   0  0  0  0  0  0  0  0  0  0  0  0
   24.3146  -20.0958  -14.9788 O   0  0  0  0  0  0  0  0  0  0  0  0
   23.7410  -22.1381  -14.1505 N   0  0  0  0  0  0  0  0  0  0  0  0
   22.2946  -21.8341  -14.3736 C   0  0  1  0  0  0  0  0  0  0  0  0
   21.5713  -23.1194  -14.5369 C   0  0  0  0  0  0  0  0  0  0  0  0
   20.1256  -23.0535  -14.7570 C   0  0  0  0  0  0  0  0  0  0  0  0
   19.2342  -22.0213  -14.8315 C   0  0  0  0  0  0  0  0  0  0  0  0
   18.0194  -22.5629  -15.1131 N   0  0  0  0  0  0  0  0  0  0  0  0
   18.1375  -23.8740  -15.2130 C   0  0  0  0  0  0  0  0  0  0  0  0
   19.4132  -24.1840  -14.9988 N   0  0  0  0  0  0  0  0  0  0  0  0
   21.8371  -21.1002  -13.1338 C   0  0  0  0  0  0  0  0  0  0  0  0
   21.1062  -19.9618  -13.0903 O   0  0  0  0  0  0  0  0  0  0  0  0
   22.1806  -21.6177  -12.0136 O   0  0  0  0  0  0  0  0  0  0  0  0
  2  1  1  1
  2  3  1  0
  3  4  1  0
  5  4  1  0
  6  5  2  0
  7  2  1  0
  8  7  2  0
  9  5  1  0
 10  7  1  0
 11 12  1  1
 11 10  1  0
 12 13  1  0
 13 18  2  0
 14 15  2  0
 14 13  1  0
 15 16  1  0
 16 17  2  0
 18 17  1  0
 19 11  1  0
 20 19  2  0
 21 19  1  0
 22 21  1  0
 23 24  1  0
 22 23  1  1
 24 25  2  0
 25 26  1  0
 27 26  1  0
 28 24  1  0
 28 27  2  0
 29 22  1  0
 29 30  1  0
 31 29  2  0
M  END
$$$$
