EFH.pdb
     RDKit          3D

 31 32  0  0  1  0  0  0  0  0999 V2000
   24.0551  -21.0012  -18.4330 N   0  0  0  0  0  0  0  0  0  0  0  0
   22.6266  -20.6418  -18.4028 C   0  0  1  0  0  0  0  0  0  0  0  0
   21.9144  -21.6205  -19.2721 C   0  0  0  0  0  0  0  0  0  0  0  0
   20.4599  -21.3410  -19.3691 C   0  0  0  0  0  0  0  0  0  0  0  0
   19.6496  -22.4242  -18.7887 C   0  0  0  0  0  0  0  0  0  0  0  0
   18.7494  -22.2326  -17.9344 O   0  0  0  0  0  0  0  0  0  0  0  0
   22.1901  -20.9141  -16.9841 C   0  0  0  0  0  0  0  0  0  0  0  0
   22.3427  -22.0759  -16.4848 O   0  0  0  0  0  0  0  0  0  0  0  0
   19.8379  -23.7557  -19.1612 O   0  0  0  0  0  0  0  0  0  0  0  0
   21.6042  -19.9208  -16.1559 N   0  0  0  0  0  0  0  0  0  0  0  0
   21.1665  -20.1939  -14.7937 C   0  0  1  0  0  0  0  0  0  0  0  0
   21.8256  -19.1995  -13.9025 C   0  0  0  0  0  0  0  0  0  0  0  0
   21.4314  -19.2719  -12.4889 C   0  0  0  0  0  0  0  0  0  0  0  0
   20.4996  -18.4220  -11.9455 C   0  0  0  0  0  0  0  0  0  0  0  0
   20.1154  -18.4749  -10.6197 C   0  0  0  0  0  0  0  0  0  0  0  0
   20.6906  -19.4268   -9.7881 C   0  0  0  0  0  0  0  0  0  0  0  0
   21.6280  -20.2917  -10.3078 C   0  0  0  0  0  0  0  0  0  0  0  0
   21.9911  -20.2091  -11.6497 C   0  0  0  0  0  0  0  0  0  0  0  0
   19.6916  -20.1608  -14.7720 C   0  0  0  0  0  0  0  0  0  0  0  0
   19.0399  -19.2771  -15.4004 O   0  0  0  0  0  0  0  0  0  0  0  0
   18.9142  -21.1082  -14.0522 N   0  0  0  0  0  0  0  0  0  0  0  0
   17.4218  -21.0259  -14.0642 C   0  0  1  0  0  0  0  0  0  0  0  0
   16.8813  -22.3997  -13.9150 C   0  0  0  0  0  0  0  0  0  0  0  0
   16.5340  -23.1219  -15.1400 C   0  0  0  0  0  0  0  0  0  0  0  0
   16.5481  -22.7848  -16.4636 C   0  0  0  0  0  0  0  0  0  0  0  0
   16.1714  -23.8896  -17.1605 N   0  0  0  0  0  0  0  0  0  0  0  0
   15.9320  -24.8777  -16.3183 C   0  0  0  0  0  0  0  0  0  0  0  0
   16.1493  -24.4231  -15.0872 N   0  0  0  0  0  0  0  0  0  0  0  0
   17.0525  -20.1591  -12.8822 C   0  0  0  0  0  0  0  0  0  0  0  0
   16.2468  -19.0716  -12.8962 O   0  0  0  0  0  0  0  0  0  0  0  0
   17.5584  -20.4975  -11.7553 O   0  0  0  0  0  0  0  0  0  0  0  0
  2  1  1  1
  2  3  1  0
  3  4  1  0
  5  4  1  0
  6  5  2  0
  7  2  1  0
  8  7  2  0
  9  5  1  0
 10  7  1  0
 11 12  1  1
 11 10  1  0
 12 13  1  0
 13 18  2  0
 14 15  2  0
 14 13  1  0
 15 16  1  0
 16 17  2  0
 18 17  1  0
 19 11  1  0
 20 19  2  0
 21 19  1  0
 22 21  1  0
 23 24  1  0
 22 23  1  1
 24 25  2  0
 25 26  1  0
 27 26  1  0
 28 24  1  0
 28 27  2  0
 29 22  1  0
 29 30  1  0
 31 29  2  0
M  END
$$$$
