EFH.pdb
     RDKit          3D

 31 32  0  0  1  0  0  0  0  0999 V2000
   28.7038  -22.7802  -16.7546 N   0  0  0  0  0  0  0  0  0  0  0  0
   27.7972  -21.6193  -16.7827 C   0  0  1  0  0  0  0  0  0  0  0  0
   26.8652  -21.8241  -17.9275 C   0  0  0  0  0  0  0  0  0  0  0  0
   27.4304  -21.3440  -19.2132 C   0  0  0  0  0  0  0  0  0  0  0  0
   27.7547  -19.9089  -19.1721 C   0  0  0  0  0  0  0  0  0  0  0  0
   28.9247  -19.4616  -19.2611 O   0  0  0  0  0  0  0  0  0  0  0  0
   26.9777  -21.7392  -15.5211 C   0  0  0  0  0  0  0  0  0  0  0  0
   26.5770  -22.8834  -15.1306 O   0  0  0  0  0  0  0  0  0  0  0  0
   26.7604  -18.9403  -19.0288 O   0  0  0  0  0  0  0  0  0  0  0  0
   26.6206  -20.6177  -14.7269 N   0  0  0  0  0  0  0  0  0  0  0  0
   25.8858  -20.7450  -13.4757 C   0  0  1  0  0  0  0  0  0  0  0  0
   26.5833  -19.9105  -12.4586 C   0  0  0  0  0  0  0  0  0  0  0  0
   27.8396  -20.4740  -11.9455 C   0  0  0  0  0  0  0  0  0  0  0  0
   27.8789  -21.2819  -10.8357 C   0  0  0  0  0  0  0  0  0  0  0  0
   29.0494  -21.8216  -10.3388 C   0  0  0  0  0  0  0  0  0  0  0  0
   30.2478  -21.5416  -10.9822 C   0  0  0  0  0  0  0  0  0  0  0  0
   30.2366  -20.7338  -12.0977 C   0  0  0  0  0  0  0  0  0  0  0  0
   29.0372  -20.2072  -12.5705 C   0  0  0  0  0  0  0  0  0  0  0  0
   24.4825  -20.3660  -13.7288 C   0  0  0  0  0  0  0  0  0  0  0  0
   24.1796  -19.2426  -14.2257 O   0  0  0  0  0  0  0  0  0  0  0  0
   23.3909  -21.2272  -13.4347 N   0  0  0  0  0  0  0  0  0  0  0  0
   21.9909  -20.8053  -13.7449 C   0  0  1  0  0  0  0  0  0  0  0  0
   21.2212  -22.0105  -14.1407 C   0  0  0  0  0  0  0  0  0  0  0  0
   19.8088  -21.8249  -14.4778 C   0  0  0  0  0  0  0  0  0  0  0  0
   19.0031  -20.7258  -14.5706 C   0  0  0  0  0  0  0  0  0  0  0  0
   17.7824  -21.1597  -14.9826 N   0  0  0  0  0  0  0  0  0  0  0  0
   17.8152  -22.4697  -15.1438 C   0  0  0  0  0  0  0  0  0  0  0  0
   19.0418  -22.8852  -14.8402 N   0  0  0  0  0  0  0  0  0  0  0  0
   21.4535  -20.2062  -12.4653 C   0  0  0  0  0  0  0  0  0  0  0  0
   20.5224  -19.2298  -12.3572 O   0  0  0  0  0  0  0  0  0  0  0  0
   21.9344  -20.6788  -11.3763 O   0  0  0  0  0  0  0  0  0  0  0  0
  2  1  1  1
  2  3  1  0
  3  4  1  0
  5  4  1  0
  6  5  2  0
  7  2  1  0
  8  7  2  0
  9  5  1  0
 10  7  1  0
 11 12  1  1
 11 10  1  0
 12 13  1  0
 13 18  2  0
 14 15  2  0
 14 13  1  0
 15 16  1  0
 16 17  2  0
 18 17  1  0
 19 11  1  0
 20 19  2  0
 21 19  1  0
 22 21  1  0
 23 24  1  0
 22 23  1  1
 24 25  2  0
 25 26  1  0
 27 26  1  0
 28 24  1  0
 28 27  2  0
 29 22  1  0
 29 30  1  0
 31 29  2  0
M  END
$$$$
