EFH.pdb
     RDKit          3D

 31 32  0  0  1  0  0  0  0  0999 V2000
   26.1361  -25.2609  -16.0652 N   0  0  0  0  0  0  0  0  0  0  0  0
   26.2138  -23.7896  -16.0600 C   0  0  1  0  0  0  0  0  0  0  0  0
   25.5011  -23.3130  -17.2789 C   0  0  0  0  0  0  0  0  0  0  0  0
   26.3414  -23.4006  -18.4992 C   0  0  0  0  0  0  0  0  0  0  0  0
   27.5937  -22.6393  -18.3631 C   0  0  0  0  0  0  0  0  0  0  0  0
   27.6350  -21.3882  -18.2632 O   0  0  0  0  0  0  0  0  0  0  0  0
   25.3867  -23.3638  -14.8717 C   0  0  0  0  0  0  0  0  0  0  0  0
   24.3588  -24.0383  -14.5391 O   0  0  0  0  0  0  0  0  0  0  0  0
   28.8351  -23.2761  -18.3365 O   0  0  0  0  0  0  0  0  0  0  0  0
   25.7004  -22.2239  -14.0855 N   0  0  0  0  0  0  0  0  0  0  0  0
   24.8963  -21.8145  -12.9420 C   0  0  1  0  0  0  0  0  0  0  0  0
   25.7768  -21.0322  -12.0310 C   0  0  0  0  0  0  0  0  0  0  0  0
   25.1021  -20.4433  -10.8661 C   0  0  0  0  0  0  0  0  0  0  0  0
   24.7414  -19.1189  -10.8226 C   0  0  0  0  0  0  0  0  0  0  0  0
   24.1060  -18.5472   -9.7374 C   0  0  0  0  0  0  0  0  0  0  0  0
   23.8131  -19.3377   -8.6338 C   0  0  0  0  0  0  0  0  0  0  0  0
   24.1640  -20.6694   -8.6513 C   0  0  0  0  0  0  0  0  0  0  0  0
   24.8038  -21.2117   -9.7631 C   0  0  0  0  0  0  0  0  0  0  0  0
   23.7221  -21.0786  -13.4488 C   0  0  0  0  0  0  0  0  0  0  0  0
   23.8477  -20.0662  -14.1970 O   0  0  0  0  0  0  0  0  0  0  0  0
   22.3879  -21.4537  -13.1337 N   0  0  0  0  0  0  0  0  0  0  0  0
   21.2362  -20.6538  -13.6513 C   0  0  1  0  0  0  0  0  0  0  0  0
   19.9877  -21.4048  -13.3702 C   0  0  0  0  0  0  0  0  0  0  0  0
   18.7337  -20.8321  -13.8628 C   0  0  0  0  0  0  0  0  0  0  0  0
   18.1228  -20.8229  -15.0845 C   0  0  0  0  0  0  0  0  0  0  0  0
   16.9349  -20.1797  -14.9315 N   0  0  0  0  0  0  0  0  0  0  0  0
   16.8008  -19.8018  -13.6736 C   0  0  0  0  0  0  0  0  0  0  0  0
   17.8878  -20.1930  -13.0143 N   0  0  0  0  0  0  0  0  0  0  0  0
   21.2740  -19.3474  -12.8919 C   0  0  0  0  0  0  0  0  0  0  0  0
   21.1626  -18.1038  -13.4144 O   0  0  0  0  0  0  0  0  0  0  0  0
   21.4265  -19.4372  -11.6233 O   0  0  0  0  0  0  0  0  0  0  0  0
  2  1  1  6
  2  3  1  0
  3  4  1  0
  5  4  1  0
  6  5  2  0
  7  2  1  0
  8  7  2  0
  9  5  1  0
 10  7  1  0
 11 12  1  1
 11 10  1  0
 12 13  1  0
 13 18  2  0
 14 15  2  0
 14 13  1  0
 15 16  1  0
 16 17  2  0
 18 17  1  0
 19 11  1  0
 20 19  2  0
 21 19  1  0
 22 21  1  0
 23 24  1  0
 22 23  1  1
 24 25  2  0
 25 26  1  0
 27 26  1  0
 28 24  1  0
 28 27  2  0
 29 22  1  0
 29 30  1  0
 31 29  2  0
M  END
$$$$
