EFH.pdb
     RDKit          3D

 31 32  0  0  1  0  0  0  0  0999 V2000
   27.5952  -22.0075  -18.0300 N   0  0  0  0  0  0  0  0  0  0  0  0
   27.6030  -20.8112  -17.1701 C   0  0  1  0  0  0  0  0  0  0  0  0
   26.7655  -19.7828  -17.8497 C   0  0  0  0  0  0  0  0  0  0  0  0
   27.0399  -19.6982  -19.3059 C   0  0  0  0  0  0  0  0  0  0  0  0
   28.3576  -19.1049  -19.5858 C   0  0  0  0  0  0  0  0  0  0  0  0
   28.6265  -17.8941  -19.3898 O   0  0  0  0  0  0  0  0  0  0  0  0
   26.8628  -21.2277  -15.9228 C   0  0  0  0  0  0  0  0  0  0  0  0
   25.9604  -22.1241  -15.9895 O   0  0  0  0  0  0  0  0  0  0  0  0
   29.4077  -19.8690  -20.0964 O   0  0  0  0  0  0  0  0  0  0  0  0
   27.1244  -20.6602  -14.6478 N   0  0  0  0  0  0  0  0  0  0  0  0
   26.3507  -21.0042  -13.4626 C   0  0  1  0  0  0  0  0  0  0  0  0
   27.1567  -20.6164  -12.2722 C   0  0  0  0  0  0  0  0  0  0  0  0
   26.4434  -20.6797  -10.9891 C   0  0  0  0  0  0  0  0  0  0  0  0
   26.1462  -21.8721  -10.3761 C   0  0  0  0  0  0  0  0  0  0  0  0
   25.4774  -21.9521   -9.1701 C   0  0  0  0  0  0  0  0  0  0  0  0
   25.0822  -20.7800   -8.5388 C   0  0  0  0  0  0  0  0  0  0  0  0
   25.3678  -19.5703   -9.1321 C   0  0  0  0  0  0  0  0  0  0  0  0
   26.0440  -19.5280  -10.3488 C   0  0  0  0  0  0  0  0  0  0  0  0
   25.0383  -20.3375  -13.5639 C   0  0  0  0  0  0  0  0  0  0  0  0
   24.9417  -19.0988  -13.8022 O   0  0  0  0  0  0  0  0  0  0  0  0
   23.8101  -21.0343  -13.4024 N   0  0  0  0  0  0  0  0  0  0  0  0
   22.5088  -20.3082  -13.5184 C   0  0  1  0  0  0  0  0  0  0  0  0
   21.7673  -20.8690  -14.6748 C   0  0  0  0  0  0  0  0  0  0  0  0
   20.4113  -20.3699  -14.9096 C   0  0  0  0  0  0  0  0  0  0  0  0
   19.6470  -19.4116  -14.3067 C   0  0  0  0  0  0  0  0  0  0  0  0
   18.4770  -19.3429  -14.9956 N   0  0  0  0  0  0  0  0  0  0  0  0
   18.5011  -20.2146  -15.9869 C   0  0  0  0  0  0  0  0  0  0  0  0
   19.6719  -20.8446  -15.9448 N   0  0  0  0  0  0  0  0  0  0  0  0
   21.7801  -20.5691  -12.2200 C   0  0  0  0  0  0  0  0  0  0  0  0
   20.9778  -19.7058  -11.5543 O   0  0  0  0  0  0  0  0  0  0  0  0
   21.9442  -21.7304  -11.7051 O   0  0  0  0  0  0  0  0  0  0  0  0
  2  1  1  6
  2  3  1  0
  3  4  1  0
  5  4  1  0
  6  5  2  0
  7  2  1  0
  8  7  2  0
  9  5  1  0
 10  7  1  0
 11 12  1  1
 11 10  1  0
 12 13  1  0
 13 18  2  0
 14 15  2  0
 14 13  1  0
 15 16  1  0
 16 17  2  0
 18 17  1  0
 19 11  1  0
 20 19  2  0
 21 19  1  0
 22 21  1  0
 23 24  1  0
 22 23  1  6
 24 25  2  0
 25 26  1  0
 27 26  1  0
 28 24  1  0
 28 27  2  0
 29 22  1  0
 29 30  1  0
 31 29  2  0
M  END
$$$$
