EFH.pdb
     RDKit          3D

 31 32  0  0  1  0  0  0  0  0999 V2000
   28.7357  -21.6449  -15.4421 N   0  0  0  0  0  0  0  0  0  0  0  0
   27.9991  -20.4467  -15.0036 C   0  0  1  0  0  0  0  0  0  0  0  0
   27.2279  -19.9564  -16.1808 C   0  0  0  0  0  0  0  0  0  0  0  0
   28.0961  -19.3255  -17.2060 C   0  0  0  0  0  0  0  0  0  0  0  0
   27.8402  -19.8625  -18.5525 C   0  0  0  0  0  0  0  0  0  0  0  0
   28.4496  -19.4737  -19.5792 O   0  0  0  0  0  0  0  0  0  0  0  0
   26.9939  -20.9574  -14.0005 C   0  0  0  0  0  0  0  0  0  0  0  0
   26.5638  -22.1533  -14.0852 O   0  0  0  0  0  0  0  0  0  0  0  0
   26.8853  -20.8561  -18.7719 O   0  0  0  0  0  0  0  0  0  0  0  0
   26.4894  -20.1570  -12.9419 N   0  0  0  0  0  0  0  0  0  0  0  0
   25.5519  -20.6676  -11.9508 C   0  0  1  0  0  0  0  0  0  0  0  0
   25.8102  -19.9453  -10.6746 C   0  0  0  0  0  0  0  0  0  0  0  0
   27.0082  -20.3806   -9.9437 C   0  0  0  0  0  0  0  0  0  0  0  0
   27.1008  -20.2966   -8.5761 C   0  0  0  0  0  0  0  0  0  0  0  0
   28.2177  -20.7012   -7.8711 C   0  0  0  0  0  0  0  0  0  0  0  0
   29.3033  -21.2183   -8.5660 C   0  0  0  0  0  0  0  0  0  0  0  0
   29.2366  -21.3135   -9.9383 C   0  0  0  0  0  0  0  0  0  0  0  0
   28.0939  -20.8957  -10.6159 C   0  0  0  0  0  0  0  0  0  0  0  0
   24.1868  -20.5061  -12.4868 C   0  0  0  0  0  0  0  0  0  0  0  0
   23.6792  -19.3620  -12.6715 O   0  0  0  0  0  0  0  0  0  0  0  0
   23.3611  -21.6117  -12.8270 N   0  0  0  0  0  0  0  0  0  0  0  0
   21.9906  -21.3889  -13.3806 C   0  0  1  0  0  0  0  0  0  0  0  0
   21.4942  -22.6787  -13.9206 C   0  0  0  0  0  0  0  0  0  0  0  0
   20.1411  -22.6973  -14.4787 C   0  0  0  0  0  0  0  0  0  0  0  0
   19.1789  -21.7409  -14.6378 C   0  0  0  0  0  0  0  0  0  0  0  0
   18.1327  -22.3301  -15.2756 N   0  0  0  0  0  0  0  0  0  0  0  0
   18.4202  -23.5972  -15.5094 C   0  0  0  0  0  0  0  0  0  0  0  0
   19.6384  -23.8320  -15.0298 N   0  0  0  0  0  0  0  0  0  0  0  0
   21.1510  -20.9227  -12.2133 C   0  0  0  0  0  0  0  0  0  0  0  0
   21.2811  -21.3012  -10.9203 O   0  0  0  0  0  0  0  0  0  0  0  0
   20.2240  -20.0820  -12.4860 O   0  0  0  0  0  0  0  0  0  0  0  0
  2  1  1  6
  2  3  1  0
  3  4  1  0
  5  4  1  0
  6  5  2  0
  7  2  1  0
  8  7  2  0
  9  5  1  0
 10  7  1  0
 11 12  1  1
 11 10  1  0
 12 13  1  0
 13 18  2  0
 14 15  2  0
 14 13  1  0
 15 16  1  0
 16 17  2  0
 18 17  1  0
 19 11  1  0
 20 19  2  0
 21 19  1  0
 22 21  1  0
 23 24  1  0
 22 23  1  1
 24 25  2  0
 25 26  1  0
 27 26  1  0
 28 24  1  0
 28 27  2  0
 29 22  1  0
 29 30  1  0
 31 29  2  0
M  END
$$$$
