DNG.pdb
     RDKit          3D

 21 20  0  0  1  0  0  0  0  0999 V2000
   22.9427  -11.4172  -17.4735 N   0  0  0  0  0  0  0  0  0  0  0  0
   21.9313  -10.9364  -18.3572 C   0  0  1  0  0  0  0  0  0  0  0  0
   20.9496  -12.0419  -18.7520 C   0  0  0  0  0  0  0  0  0  0  0  0
   21.7230  -13.2548  -19.1037 C   0  0  0  0  0  0  0  0  0  0  0  0
   22.6893  -13.1869  -19.8929 O   0  0  0  0  0  0  0  0  0  0  0  0
   21.2127   -9.7424  -17.8828 C   0  0  0  0  0  0  0  0  0  0  0  0
   20.4025   -9.1548  -18.6560 O   0  0  0  0  0  0  0  0  0  0  0  0
   21.3432  -14.4593  -18.5341 O   0  0  0  0  0  0  0  0  0  0  0  0
   17.8022   -6.3636  -15.9755 N   0  0  0  0  0  0  0  0  0  0  0  0
   18.7427   -6.9641  -15.0753 C   0  0  0  0  0  0  0  0  0  0  0  0
   18.9436   -6.3255  -13.9915 O   0  0  0  0  0  0  0  0  0  0  0  0
   19.4203   -8.2366  -15.4045 C   0  0  0  0  0  0  0  0  0  0  0  0
   20.6587   -7.9611  -16.1901 C   0  0  2  0  0  0  0  0  0  0  0  0
   21.3514   -9.1684  -16.5866 N   0  0  0  0  0  0  0  0  0  0  0  0
   21.5558   -6.9989  -15.5142 C   0  0  0  0  0  0  0  0  0  0  0  0
   22.5332   -7.4692  -14.8807 O   0  0  0  0  0  0  0  0  0  0  0  0
   21.3503   -5.5827  -15.5578 N   0  0  0  0  0  0  0  0  0  0  0  0
   22.3285   -4.7648  -14.9042 C   0  0  0  0  0  0  0  0  0  0  0  0
   22.0088   -3.3389  -14.8668 C   0  0  0  0  0  0  0  0  0  0  0  0
   22.7356   -2.4821  -14.3326 O   0  0  0  0  0  0  0  0  0  0  0  0
   20.8143   -2.9353  -15.4717 O   0  0  0  0  0  0  0  0  0  0  0  0
  2  3  1  0
  2  1  1  1
  3  4  1  0
  4  8  1  0
  5  4  2  0
  6  2  1  0
  6  7  2  0
  9 10  1  0
 10 11  2  0
 10 12  1  0
 13 12  1  1
 13 14  1  0
 13 15  1  0
 14  6  1  0
 15 16  2  0
 17 15  1  0
 17 18  1  0
 19 18  1  0
 19 21  1  0
 20 19  2  0
M  END
$$$$
