DNG.pdb
     RDKit          3D

 21 20  0  0  1  0  0  0  0  0999 V2000
   19.8217  -11.1574  -15.9700 N   0  0  0  0  0  0  0  0  0  0  0  0
   19.8150   -9.7487  -16.1953 C   0  0  1  0  0  0  0  0  0  0  0  0
   18.5427   -9.0930  -15.6540 C   0  0  0  0  0  0  0  0  0  0  0  0
   17.3722   -9.7431  -16.2866 C   0  0  0  0  0  0  0  0  0  0  0  0
   17.4984  -10.3835  -17.3521 O   0  0  0  0  0  0  0  0  0  0  0  0
   21.0137   -9.0406  -15.7171 C   0  0  0  0  0  0  0  0  0  0  0  0
   21.4344   -9.2508  -14.5430 O   0  0  0  0  0  0  0  0  0  0  0  0
   16.1408   -9.6192  -15.6638 O   0  0  0  0  0  0  0  0  0  0  0  0
   23.7889   -9.9272  -16.6507 N   0  0  0  0  0  0  0  0  0  0  0  0
   24.5052   -8.8050  -17.1827 C   0  0  0  0  0  0  0  0  0  0  0  0
   25.5164   -9.0950  -17.9012 O   0  0  0  0  0  0  0  0  0  0  0  0
   24.0810   -7.4164  -16.9023 C   0  0  0  0  0  0  0  0  0  0  0  0
   22.9290   -7.4219  -15.9536 C   0  0  2  0  0  0  0  0  0  0  0  0
   21.7699   -8.1078  -16.4831 N   0  0  0  0  0  0  0  0  0  0  0  0
   22.5985   -6.0687  -15.4566 C   0  0  0  0  0  0  0  0  0  0  0  0
   22.5223   -5.1456  -16.3051 O   0  0  0  0  0  0  0  0  0  0  0  0
   22.3684   -5.7844  -14.0723 N   0  0  0  0  0  0  0  0  0  0  0  0
   21.9820   -4.4451  -13.7407 C   0  0  0  0  0  0  0  0  0  0  0  0
   20.5494   -4.1757  -13.8507 C   0  0  0  0  0  0  0  0  0  0  0  0
   20.0296   -3.0802  -13.5726 O   0  0  0  0  0  0  0  0  0  0  0  0
   19.7344   -5.2212  -14.2960 O   0  0  0  0  0  0  0  0  0  0  0  0
  2  3  1  0
  2  1  1  1
  3  4  1  0
  4  8  1  0
  5  4  2  0
  6  2  1  0
  6  7  2  0
  9 10  1  0
 10 11  2  0
 10 12  1  0
 13 12  1  6
 13 14  1  0
 13 15  1  0
 14  6  1  0
 15 16  2  0
 17 15  1  0
 17 18  1  0
 19 18  1  0
 19 21  1  0
 20 19  2  0
M  END
$$$$
