DNG.pdb
     RDKit          3D

 21 20  0  0  1  0  0  0  0  0999 V2000
   13.3001  -10.1864  -12.1464 N   0  0  0  0  0  0  0  0  0  0  0  0
   14.7265  -10.1969  -12.1249 C   0  0  1  0  0  0  0  0  0  0  0  0
   15.3103  -10.7355  -13.4329 C   0  0  0  0  0  0  0  0  0  0  0  0
   15.3744  -12.2125  -13.3472 C   0  0  0  0  0  0  0  0  0  0  0  0
   14.4654  -12.8573  -12.7821 O   0  0  0  0  0  0  0  0  0  0  0  0
   15.3487   -8.9129  -11.7628 C   0  0  0  0  0  0  0  0  0  0  0  0
   14.9996   -7.8588  -12.3685 O   0  0  0  0  0  0  0  0  0  0  0  0
   16.4671  -12.8524  -13.9093 O   0  0  0  0  0  0  0  0  0  0  0  0
   14.6788   -7.6478   -8.0526 N   0  0  0  0  0  0  0  0  0  0  0  0
   15.5048   -6.7176   -8.7653 C   0  0  0  0  0  0  0  0  0  0  0  0
   14.9411   -5.6199   -9.0819 O   0  0  0  0  0  0  0  0  0  0  0  0
   16.9104   -7.0333   -9.0990 C   0  0  0  0  0  0  0  0  0  0  0  0
   17.0047   -7.4782  -10.5202 C   0  0  2  0  0  0  0  0  0  0  0  0
   16.3427   -8.7432  -10.7570 N   0  0  0  0  0  0  0  0  0  0  0  0
   18.3951   -7.4726  -11.0242 C   0  0  0  0  0  0  0  0  0  0  0  0
   19.1962   -8.2953  -10.5147 O   0  0  0  0  0  0  0  0  0  0  0  0
   18.8463   -6.5808  -12.0494 N   0  0  0  0  0  0  0  0  0  0  0  0
   20.2393   -6.6261  -12.3817 C   0  0  0  0  0  0  0  0  0  0  0  0
   20.6514   -5.6875  -13.4240 C   0  0  0  0  0  0  0  0  0  0  0  0
   19.8532   -5.0380  -14.1230 O   0  0  0  0  0  0  0  0  0  0  0  0
   22.0248   -5.5246  -13.6311 O   0  0  0  0  0  0  0  0  0  0  0  0
  2  3  1  0
  2  1  1  6
  3  4  1  0
  4  8  1  0
  5  4  2  0
  6  2  1  0
  6  7  2  0
  9 10  1  0
 10 11  2  0
 10 12  1  0
 13 12  1  1
 13 14  1  0
 13 15  1  0
 14  6  1  0
 15 16  2  0
 17 15  1  0
 17 18  1  0
 19 18  1  0
 19 21  1  0
 20 19  2  0
M  END
$$$$
