DNG.pdb
     RDKit          3D

 21 20  0  0  1  0  0  0  0  0999 V2000
   22.8297   -6.4755  -16.8152 N   0  0  0  0  0  0  0  0  0  0  0  0
   21.4357   -6.2462  -17.0136 C   0  0  1  0  0  0  0  0  0  0  0  0
   20.9777   -6.6983  -18.4019 C   0  0  0  0  0  0  0  0  0  0  0  0
   21.7637   -5.9638  -19.4196 C   0  0  0  0  0  0  0  0  0  0  0  0
   21.7663   -4.7145  -19.4421 O   0  0  0  0  0  0  0  0  0  0  0  0
   20.5627   -6.8022  -15.9668 C   0  0  0  0  0  0  0  0  0  0  0  0
   19.3218   -6.5598  -15.9970 O   0  0  0  0  0  0  0  0  0  0  0  0
   22.4910   -6.7009  -20.3400 O   0  0  0  0  0  0  0  0  0  0  0  0
   19.1555  -10.0370  -15.7762 N   0  0  0  0  0  0  0  0  0  0  0  0
   19.9003  -10.5437  -14.6607 C   0  0  0  0  0  0  0  0  0  0  0  0
   20.0498  -11.8085  -14.6347 O   0  0  0  0  0  0  0  0  0  0  0  0
   20.4463   -9.6409  -13.6246 C   0  0  0  0  0  0  0  0  0  0  0  0
   20.0881   -8.2283  -13.9454 C   0  0  2  0  0  0  0  0  0  0  0  0
   21.0036   -7.6172  -14.8852 N   0  0  0  0  0  0  0  0  0  0  0  0
   19.8988   -7.4028  -12.7330 C   0  0  0  0  0  0  0  0  0  0  0  0
   20.9178   -6.8547  -12.2439 O   0  0  0  0  0  0  0  0  0  0  0  0
   18.6219   -7.2132  -12.1139 N   0  0  0  0  0  0  0  0  0  0  0  0
   18.5669   -6.3086  -11.0041 C   0  0  0  0  0  0  0  0  0  0  0  0
   17.2240   -6.0589  -10.4831 C   0  0  0  0  0  0  0  0  0  0  0  0
   16.1887   -6.5264  -10.9903 O   0  0  0  0  0  0  0  0  0  0  0  0
   17.1187   -5.2464   -9.3498 O   0  0  0  0  0  0  0  0  0  0  0  0
  2  3  1  0
  2  1  1  1
  3  4  1  0
  4  8  1  0
  5  4  2  0
  6  2  1  0
  6  7  2  0
  9 10  1  0
 10 11  2  0
 10 12  1  0
 13 12  1  1
 13 14  1  0
 13 15  1  0
 14  6  1  0
 15 16  2  0
 17 15  1  0
 17 18  1  0
 19 18  1  0
 19 21  1  0
 20 19  2  0
M  END
$$$$
