DNG.pdb
     RDKit          3D

 21 20  0  0  1  0  0  0  0  0999 V2000
   18.8541  -10.7091  -17.1038 N   0  0  0  0  0  0  0  0  0  0  0  0
   19.1151  -10.7099  -15.7013 C   0  0  1  0  0  0  0  0  0  0  0  0
   18.9691  -12.1082  -15.0972 C   0  0  0  0  0  0  0  0  0  0  0  0
   17.6117  -12.6145  -15.4043 C   0  0  0  0  0  0  0  0  0  0  0  0
   17.4169  -13.3549  -16.3918 O   0  0  0  0  0  0  0  0  0  0  0  0
   20.3976  -10.1016  -15.3110 C   0  0  0  0  0  0  0  0  0  0  0  0
   20.6892   -9.9958  -14.0848 O   0  0  0  0  0  0  0  0  0  0  0  0
   16.5716  -12.2434  -14.5677 O   0  0  0  0  0  0  0  0  0  0  0  0
   25.0985  -11.1107  -15.5108 N   0  0  0  0  0  0  0  0  0  0  0  0
   24.0773  -10.6624  -16.4119 C   0  0  0  0  0  0  0  0  0  0  0  0
   23.4713  -11.5834  -17.0503 O   0  0  0  0  0  0  0  0  0  0  0  0
   23.7677   -9.2254  -16.5725 C   0  0  0  0  0  0  0  0  0  0  0  0
   22.5490   -8.8799  -15.7837 C   0  0  2  0  0  0  0  0  0  0  0  0
   21.3745   -9.6042  -16.2202 N   0  0  0  0  0  0  0  0  0  0  0  0
   22.3127   -7.4215  -15.7164 C   0  0  0  0  0  0  0  0  0  0  0  0
   22.0848   -6.8240  -16.7976 O   0  0  0  0  0  0  0  0  0  0  0  0
   22.3352   -6.6867  -14.4878 N   0  0  0  0  0  0  0  0  0  0  0  0
   22.0720   -5.2806  -14.5679 C   0  0  0  0  0  0  0  0  0  0  0  0
   22.0619   -4.5849  -13.2822 C   0  0  0  0  0  0  0  0  0  0  0  0
   21.9838   -3.3487  -13.1668 O   0  0  0  0  0  0  0  0  0  0  0  0
   22.1453   -5.3713  -12.1289 O   0  0  0  0  0  0  0  0  0  0  0  0
  2  3  1  0
  2  1  1  6
  3  4  1  0
  4  8  1  0
  5  4  2  0
  6  2  1  0
  6  7  2  0
  9 10  1  0
 10 11  2  0
 10 12  1  0
 13 12  1  6
 13 14  1  0
 13 15  1  0
 14  6  1  0
 15 16  2  0
 17 15  1  0
 17 18  1  0
 19 18  1  0
 19 21  1  0
 20 19  2  0
M  END
$$$$
