DNG.pdb
     RDKit          3D

 21 20  0  0  1  0  0  0  0  0999 V2000
   14.9966  -10.5111  -13.7638 N   0  0  0  0  0  0  0  0  0  0  0  0
   16.4159  -10.4489  -13.6336 C   0  0  1  0  0  0  0  0  0  0  0  0
   17.1228  -10.8195  -14.9393 C   0  0  0  0  0  0  0  0  0  0  0  0
   16.7546  -12.2087  -15.2963 C   0  0  0  0  0  0  0  0  0  0  0  0
   16.2811  -12.4723  -16.4222 O   0  0  0  0  0  0  0  0  0  0  0  0
   16.9325   -9.1778  -13.1004 C   0  0  0  0  0  0  0  0  0  0  0  0
   16.2967   -8.1065  -13.3186 O   0  0  0  0  0  0  0  0  0  0  0  0
   16.9502  -13.2002  -14.3485 O   0  0  0  0  0  0  0  0  0  0  0  0
   16.3353   -6.9554   -9.8019 N   0  0  0  0  0  0  0  0  0  0  0  0
   17.3627   -7.9539   -9.7467 C   0  0  0  0  0  0  0  0  0  0  0  0
   17.0428   -9.0324   -9.1489 O   0  0  0  0  0  0  0  0  0  0  0  0
   18.6938   -7.7243  -10.3486 C   0  0  0  0  0  0  0  0  0  0  0  0
   18.5888   -7.7619  -11.8366 C   0  0  2  0  0  0  0  0  0  0  0  0
   18.1250   -9.0395  -12.3340 N   0  0  0  0  0  0  0  0  0  0  0  0
   19.8332   -7.3215  -12.5034 C   0  0  0  0  0  0  0  0  0  0  0  0
   20.7204   -8.1889  -12.6991 O   0  0  0  0  0  0  0  0  0  0  0  0
   20.0536   -5.9703  -12.9226 N   0  0  0  0  0  0  0  0  0  0  0  0
   21.2129   -5.7216  -13.7270 C   0  0  0  0  0  0  0  0  0  0  0  0
   21.3859   -4.3295  -14.1385 C   0  0  0  0  0  0  0  0  0  0  0  0
   20.5581   -3.4316  -13.9017 O   0  0  0  0  0  0  0  0  0  0  0  0
   22.5548   -4.0097  -14.8365 O   0  0  0  0  0  0  0  0  0  0  0  0
  2  3  1  0
  2  1  1  6
  3  4  1  0
  4  8  1  0
  5  4  2  0
  6  2  1  0
  6  7  2  0
  9 10  1  0
 10 11  2  0
 10 12  1  0
 13 12  1  1
 13 14  1  0
 13 15  1  0
 14  6  1  0
 15 16  2  0
 17 15  1  0
 17 18  1  0
 19 18  1  0
 19 21  1  0
 20 19  2  0
M  END
$$$$
