DNG.pdb
     RDKit          3D

 21 20  0  0  1  0  0  0  0  0999 V2000
   23.2858  -10.6883  -17.3903 N   0  0  0  0  0  0  0  0  0  0  0  0
   22.0868  -10.4526  -18.1266 C   0  0  1  0  0  0  0  0  0  0  0  0
   21.4991  -11.7503  -18.6853 C   0  0  0  0  0  0  0  0  0  0  0  0
   22.5782  -12.5006  -19.3677 C   0  0  0  0  0  0  0  0  0  0  0  0
   22.8041  -13.6949  -19.0784 O   0  0  0  0  0  0  0  0  0  0  0  0
   21.0612   -9.6801  -17.4066 C   0  0  0  0  0  0  0  0  0  0  0  0
   19.9957   -9.3514  -18.0035 O   0  0  0  0  0  0  0  0  0  0  0  0
   23.3245  -11.8404  -20.3304 O   0  0  0  0  0  0  0  0  0  0  0  0
   17.0837  -10.0126  -14.9347 N   0  0  0  0  0  0  0  0  0  0  0  0
   18.4934  -10.2725  -14.9101 C   0  0  0  0  0  0  0  0  0  0  0  0
   18.8534  -11.3751  -15.4370 O   0  0  0  0  0  0  0  0  0  0  0  0
   19.4438   -9.3125  -14.3086 C   0  0  0  0  0  0  0  0  0  0  0  0
   20.1096   -8.5198  -15.3834 C   0  0  2  0  0  0  0  0  0  0  0  0
   21.1628   -9.2543  -16.0512 N   0  0  0  0  0  0  0  0  0  0  0  0
   20.5662   -7.1953  -14.9098 C   0  0  0  0  0  0  0  0  0  0  0  0
   19.8809   -6.6339  -14.0192 O   0  0  0  0  0  0  0  0  0  0  0  0
   21.7361   -6.5480  -15.4220 N   0  0  0  0  0  0  0  0  0  0  0  0
   22.0821   -5.2826  -14.8459 C   0  0  0  0  0  0  0  0  0  0  0  0
   23.3117   -4.6878  -15.3669 C   0  0  0  0  0  0  0  0  0  0  0  0
   23.7393   -3.5720  -15.0210 O   0  0  0  0  0  0  0  0  0  0  0  0
   24.0337   -5.4313  -16.3058 O   0  0  0  0  0  0  0  0  0  0  0  0
  2  3  1  0
  2  1  1  1
  3  4  1  0
  4  8  1  0
  5  4  2  0
  6  2  1  0
  6  7  2  0
  9 10  1  0
 10 11  2  0
 10 12  1  0
 13 12  1  1
 13 14  1  0
 13 15  1  0
 14  6  1  0
 15 16  2  0
 17 15  1  0
 17 18  1  0
 19 18  1  0
 19 21  1  0
 20 19  2  0
M  END
$$$$
