DNG.pdb
     RDKit          3D

 21 20  0  0  1  0  0  0  0  0999 V2000
   19.8318  -11.6640  -15.2002 N   0  0  0  0  0  0  0  0  0  0  0  0
   19.2019  -10.4721  -15.6671 C   0  0  1  0  0  0  0  0  0  0  0  0
   17.6775  -10.5579  -15.5650 C   0  0  0  0  0  0  0  0  0  0  0  0
   17.2292  -11.7966  -16.2414 C   0  0  0  0  0  0  0  0  0  0  0  0
   17.5543  -12.0287  -17.4253 O   0  0  0  0  0  0  0  0  0  0  0  0
   19.6991   -9.2295  -15.0541 C   0  0  0  0  0  0  0  0  0  0  0  0
   19.7602   -9.1375  -13.7942 O   0  0  0  0  0  0  0  0  0  0  0  0
   16.4427  -12.6840  -15.5247 O   0  0  0  0  0  0  0  0  0  0  0  0
   21.6434   -4.6838  -13.8540 N   0  0  0  0  0  0  0  0  0  0  0  0
   22.5693   -5.5307  -14.5477 C   0  0  0  0  0  0  0  0  0  0  0  0
   23.7909   -5.1764  -14.4758 O   0  0  0  0  0  0  0  0  0  0  0  0
   22.1139   -6.7264  -15.2890 C   0  0  0  0  0  0  0  0  0  0  0  0
   20.6406   -6.8941  -15.1213 C   0  0  2  0  0  0  0  0  0  0  0  0
   20.1333   -8.0810  -15.7759 N   0  0  0  0  0  0  0  0  0  0  0  0
   19.8856   -5.6806  -15.5016 C   0  0  0  0  0  0  0  0  0  0  0  0
   19.8745   -5.3662  -16.7177 O   0  0  0  0  0  0  0  0  0  0  0  0
   19.1841   -4.8723  -14.5506 N   0  0  0  0  0  0  0  0  0  0  0  0
   18.3926   -3.7974  -15.0714 C   0  0  0  0  0  0  0  0  0  0  0  0
   17.7605   -2.9550  -14.0577 C   0  0  0  0  0  0  0  0  0  0  0  0
   17.8486   -3.1629  -12.8343 O   0  0  0  0  0  0  0  0  0  0  0  0
   17.0196   -1.8582  -14.5091 O   0  0  0  0  0  0  0  0  0  0  0  0
  2  3  1  0
  2  1  1  1
  3  4  1  0
  4  8  1  0
  5  4  2  0
  6  2  1  0
  6  7  2  0
  9 10  1  0
 10 11  2  0
 10 12  1  0
 13 12  1  6
 13 14  1  0
 13 15  1  0
 14  6  1  0
 15 16  2  0
 17 15  1  0
 17 18  1  0
 19 18  1  0
 19 21  1  0
 20 19  2  0
M  END
$$$$
