DNG.pdb
     RDKit          3D

 21 20  0  0  1  0  0  0  0  0999 V2000
   23.9353  -36.6620   -1.1604 N   0  0  0  0  0  0  0  0  0  0  0  0
   24.9037  -35.7043   -0.7363 C   0  0  1  0  0  0  0  0  0  0  0  0
   25.3664  -35.9620    0.6994 C   0  0  0  0  0  0  0  0  0  0  0  0
   24.2378  -35.6800    1.6157 C   0  0  0  0  0  0  0  0  0  0  0  0
   23.5749  -34.6268    1.5038 O   0  0  0  0  0  0  0  0  0  0  0  0
   26.0565  -35.5497   -1.6386 C   0  0  0  0  0  0  0  0  0  0  0  0
   26.5819  -36.5756   -2.1593 O   0  0  0  0  0  0  0  0  0  0  0  0
   23.9424  -36.6147    2.5948 O   0  0  0  0  0  0  0  0  0  0  0  0
   26.3428  -33.1573   -5.8255 N   0  0  0  0  0  0  0  0  0  0  0  0
   26.4492  -32.8072   -4.4392 C   0  0  0  0  0  0  0  0  0  0  0  0
   25.3742  -32.3887   -3.8989 O   0  0  0  0  0  0  0  0  0  0  0  0
   27.7291  -32.9312   -3.7090 C   0  0  0  0  0  0  0  0  0  0  0  0
   27.7479  -34.2069   -2.9351 C   0  0  2  0  0  0  0  0  0  0  0  0
   26.6550  -34.3064   -1.9915 N   0  0  0  0  0  0  0  0  0  0  0  0
   29.0587  -34.4650   -2.3007 C   0  0  0  0  0  0  0  0  0  0  0  0
   29.3096  -33.8597   -1.2289 O   0  0  0  0  0  0  0  0  0  0  0  0
   30.0274  -35.3612   -2.8560 N   0  0  0  0  0  0  0  0  0  0  0  0
   31.2712  -35.4869   -2.1559 C   0  0  0  0  0  0  0  0  0  0  0  0
   32.1450  -36.5517   -2.6454 C   0  0  0  0  0  0  0  0  0  0  0  0
   31.8596  -37.2937   -3.6023 O   0  0  0  0  0  0  0  0  0  0  0  0
   33.3661  -36.7299   -1.9877 O   0  0  0  0  0  0  0  0  0  0  0  0
  2  3  1  0
  2  1  1  6
  3  4  1  0
  4  8  1  0
  5  4  2  0
  6  2  1  0
  6  7  2  0
  9 10  1  0
 10 11  2  0
 10 12  1  0
 13 12  1  1
 13 14  1  0
 13 15  1  0
 14  6  1  0
 15 16  2  0
 17 15  1  0
 17 18  1  0
 19 18  1  0
 19 21  1  0
 20 19  2  0
M  END
$$$$
