DNG.pdb
     RDKit          3D

 21 20  0  0  1  0  0  0  0  0999 V2000
   21.6525  -13.3483  -18.7510 N   0  0  0  0  0  0  0  0  0  0  0  0
   22.2309  -12.1023  -18.3662 C   0  0  1  0  0  0  0  0  0  0  0  0
   22.8201  -11.3554  -19.5648 C   0  0  0  0  0  0  0  0  0  0  0  0
   23.9508  -12.1459  -20.1028 C   0  0  0  0  0  0  0  0  0  0  0  0
   24.8816  -12.5156  -19.3555 O   0  0  0  0  0  0  0  0  0  0  0  0
   21.3441  -11.2240  -17.5857 C   0  0  0  0  0  0  0  0  0  0  0  0
   20.1037  -11.4679  -17.5458 O   0  0  0  0  0  0  0  0  0  0  0  0
   23.9443  -12.4602  -21.4521 O   0  0  0  0  0  0  0  0  0  0  0  0
   18.3090   -9.7063  -17.0138 N   0  0  0  0  0  0  0  0  0  0  0  0
   18.6620  -10.2295  -15.7264 C   0  0  0  0  0  0  0  0  0  0  0  0
   17.7426  -10.8809  -15.1322 O   0  0  0  0  0  0  0  0  0  0  0  0
   20.0062  -10.0140  -15.1490 C   0  0  0  0  0  0  0  0  0  0  0  0
   20.8509   -9.2442  -16.1085 C   0  0  2  0  0  0  0  0  0  0  0  0
   21.7706  -10.0846  -16.8451 N   0  0  0  0  0  0  0  0  0  0  0  0
   21.5318   -8.0973  -15.4696 C   0  0  0  0  0  0  0  0  0  0  0  0
   22.5358   -8.3470  -14.7571 O   0  0  0  0  0  0  0  0  0  0  0  0
   21.0935   -6.7442  -15.6333 N   0  0  0  0  0  0  0  0  0  0  0  0
   21.8007   -5.7395  -14.8961 C   0  0  0  0  0  0  0  0  0  0  0  0
   21.4911   -5.6957  -13.4681 C   0  0  0  0  0  0  0  0  0  0  0  0
   20.7483   -6.5142  -12.8972 O   0  0  0  0  0  0  0  0  0  0  0  0
   22.0730   -4.6682  -12.7189 O   0  0  0  0  0  0  0  0  0  0  0  0
  2  3  1  0
  2  1  1  6
  3  4  1  0
  4  8  1  0
  5  4  2  0
  6  2  1  0
  6  7  2  0
  9 10  1  0
 10 11  2  0
 10 12  1  0
 13 12  1  1
 13 14  1  0
 13 15  1  0
 14  6  1  0
 15 16  2  0
 17 15  1  0
 17 18  1  0
 19 18  1  0
 19 21  1  0
 20 19  2  0
M  END
$$$$
