DNG.pdb
     RDKit          3D

 21 20  0  0  1  0  0  0  0  0999 V2000
   17.9569  -10.7106  -15.8437 N   0  0  0  0  0  0  0  0  0  0  0  0
   18.5355   -9.6810  -16.6438 C   0  0  1  0  0  0  0  0  0  0  0  0
   17.6788   -9.3673  -17.8723 C   0  0  0  0  0  0  0  0  0  0  0  0
   17.4784  -10.6185  -18.6387 C   0  0  0  0  0  0  0  0  0  0  0  0
   18.4449  -11.3655  -18.9017 O   0  0  0  0  0  0  0  0  0  0  0  0
   18.8760   -8.4488  -15.9138 C   0  0  0  0  0  0  0  0  0  0  0  0
   18.0303   -7.9392  -15.1234 O   0  0  0  0  0  0  0  0  0  0  0  0
   16.1939  -10.9322  -19.0523 O   0  0  0  0  0  0  0  0  0  0  0  0
   19.9563   -8.0335  -13.0735 N   0  0  0  0  0  0  0  0  0  0  0  0
   21.2447   -7.4246  -13.2316 C   0  0  0  0  0  0  0  0  0  0  0  0
   22.0692   -7.6403  -12.2847 O   0  0  0  0  0  0  0  0  0  0  0  0
   21.5701   -6.6067  -14.4198 C   0  0  0  0  0  0  0  0  0  0  0  0
   20.3788   -6.5183  -15.3141 C   0  0  2  0  0  0  0  0  0  0  0  0
   20.1147   -7.7538  -16.0200 N   0  0  0  0  0  0  0  0  0  0  0  0
   20.4407   -5.3560  -16.2265 C   0  0  0  0  0  0  0  0  0  0  0  0
   21.3876   -5.3205  -17.0512 O   0  0  0  0  0  0  0  0  0  0  0  0
   19.4791   -4.2957  -16.2002 N   0  0  0  0  0  0  0  0  0  0  0  0
   19.6432   -3.2470  -17.1627 C   0  0  0  0  0  0  0  0  0  0  0  0
   20.6630   -2.2567  -16.8219 C   0  0  0  0  0  0  0  0  0  0  0  0
   21.3885   -2.3315  -15.8141 O   0  0  0  0  0  0  0  0  0  0  0  0
   20.8163   -1.1717  -17.6907 O   0  0  0  0  0  0  0  0  0  0  0  0
  2  3  1  0
  2  1  1  1
  3  4  1  0
  4  8  1  0
  5  4  2  0
  6  2  1  0
  6  7  2  0
  9 10  1  0
 10 11  2  0
 10 12  1  0
 13 12  1  6
 13 14  1  0
 13 15  1  0
 14  6  1  0
 15 16  2  0
 17 15  1  0
 17 18  1  0
 19 18  1  0
 19 21  1  0
 20 19  2  0
M  END
$$$$
