YKK.pdb
     RDKit          3D

 31 31  0  0  1  0  0  0  0  0999 V2000
   20.7781   -2.6512  -13.6786 O   0  0  0  0  0  0  0  0  0  0  0  0
   20.6518   -3.8925  -13.0452 C   0  0  0  0  0  0  0  0  0  0  0  0
   21.5975   -4.8626  -13.2804 C   0  0  0  0  0  0  0  0  0  0  0  0
   21.4968   -6.0951  -12.6684 C   0  0  0  0  0  0  0  0  0  0  0  0
   20.4685   -6.4128  -11.8097 C   0  0  0  0  0  0  0  0  0  0  0  0
   20.3721   -7.7328  -11.1876 C   0  0  0  0  0  0  0  0  0  0  0  0
   19.4291   -8.6613  -11.9516 C   0  0  2  0  0  0  0  0  0  0  0  0
   19.7722   -8.7206  -13.3397 N   0  0  0  0  0  0  0  0  0  0  0  0
   18.0155   -8.1841  -11.7831 C   0  0  0  0  0  0  0  0  0  0  0  0
   17.4256   -7.4961  -12.6323 O   0  0  0  0  0  0  0  0  0  0  0  0
   19.5293   -5.4371  -11.5823 C   0  0  0  0  0  0  0  0  0  0  0  0
   19.6125   -4.1823  -12.1914 C   0  0  0  0  0  0  0  0  0  0  0  0
   17.3299   -8.5413  -10.5980 N   0  0  0  0  0  0  0  0  0  0  0  0
   15.9278   -8.0533  -10.3458 C   0  0  1  0  0  0  0  0  0  0  0  0
   15.1650   -9.1891   -9.7828 C   0  0  0  0  0  0  0  0  0  0  0  0
   13.7659   -9.1544   -9.4247 C   0  0  0  0  0  0  0  0  0  0  0  0
   12.9877  -10.3373   -9.0211 C   0  0  0  0  0  0  0  0  0  0  0  0
   11.4951  -10.0830   -8.8843 C   0  0  0  0  0  0  0  0  0  0  0  0
   10.7867  -11.2889   -8.5241 N   0  0  0  0  0  0  0  0  0  0  0  0
   16.0817   -6.9387   -9.3886 C   0  0  0  0  0  0  0  0  0  0  0  0
   17.2108   -6.6030   -8.8883 O   0  0  0  0  0  0  0  0  0  0  0  0
   15.0079   -6.1115   -8.9129 N   0  0  0  0  0  0  0  0  0  0  0  0
   15.2506   -4.8003   -8.2937 C   0  0  1  0  0  0  0  0  0  0  0  0
   16.0813   -3.9387   -9.2227 C   0  0  0  0  0  0  0  0  0  0  0  0
   16.1799   -2.5590   -8.6271 C   0  0  0  0  0  0  0  0  0  0  0  0
   17.5688   -2.0014   -8.5738 C   0  0  0  0  0  0  0  0  0  0  0  0
   17.5423   -0.6281   -7.9375 C   0  0  0  0  0  0  0  0  0  0  0  0
   18.9091   -0.1042   -7.9849 N   0  0  0  0  0  0  0  0  0  0  0  0
   13.9813   -4.1560   -7.9253 C   0  0  0  0  0  0  0  0  0  0  0  0
   12.9495   -4.4001   -8.6340 O   0  0  0  0  0  0  0  0  0  0  0  0
   13.7777   -3.2939   -6.8669 O   0  0  0  0  0  0  0  0  0  0  0  0
  2 12  2  0
  2  1  1  0
  3  2  1  0
  4  5  1  0
  4  3  2  0
  5 11  2  0
  6  5  1  0
  7  8  1  6
  7  6  1  0
  9  7  1  0
 10  9  2  0
 11 12  1  0
 13  9  1  0
 14 20  1  0
 14 13  1  0
 14 15  1  1
 16 15  1  0
 17 16  1  0
 18 17  1  0
 19 18  1  0
 20 21  2  0
 22 23  1  0
 22 20  1  0
 23 24  1  6
 24 25  1  0
 25 26  1  0
 26 27  1  0
 28 27  1  0
 29 31  1  0
 29 23  1  0
 30 29  2  0
M  END
$$$$
