YKK.pdb
     RDKit          3D

 31 31  0  0  1  0  0  0  0  0999 V2000
   28.7566  -20.1680   -3.2211 O   0  0  0  0  0  0  0  0  0  0  0  0
   28.1582  -19.9995   -4.4748 C   0  0  0  0  0  0  0  0  0  0  0  0
   27.1550  -20.8583   -4.8578 C   0  0  0  0  0  0  0  0  0  0  0  0
   26.5480  -20.7141   -6.0885 C   0  0  0  0  0  0  0  0  0  0  0  0
   26.9056  -19.7263   -6.9783 C   0  0  0  0  0  0  0  0  0  0  0  0
   26.2610  -19.6050   -8.2855 C   0  0  0  0  0  0  0  0  0  0  0  0
   26.6512  -20.7434   -9.2272 C   0  0  2  0  0  0  0  0  0  0  0  0
   28.0731  -20.8844   -9.3085 N   0  0  0  0  0  0  0  0  0  0  0  0
   26.0736  -20.4839  -10.5886 C   0  0  0  0  0  0  0  0  0  0  0  0
   26.4959  -19.5955  -11.3470 O   0  0  0  0  0  0  0  0  0  0  0  0
   27.9088  -18.8745   -6.5861 C   0  0  0  0  0  0  0  0  0  0  0  0
   28.5365  -19.0025   -5.3444 C   0  0  0  0  0  0  0  0  0  0  0  0
   24.9985  -21.2960  -11.0205 N   0  0  0  0  0  0  0  0  0  0  0  0
   24.5315  -21.2536  -12.4515 C   0  0  1  0  0  0  0  0  0  0  0  0
   25.2415  -22.3316  -13.1745 C   0  0  0  0  0  0  0  0  0  0  0  0
   26.5188  -22.1886  -13.8340 C   0  0  0  0  0  0  0  0  0  0  0  0
   26.7933  -21.2079  -14.8973 C   0  0  0  0  0  0  0  0  0  0  0  0
   28.1836  -21.3192  -15.5024 C   0  0  0  0  0  0  0  0  0  0  0  0
   28.1467  -21.9751  -16.7885 N   0  0  0  0  0  0  0  0  0  0  0  0
   23.0732  -21.4785  -12.3803 C   0  0  0  0  0  0  0  0  0  0  0  0
   22.5498  -22.4412  -11.7192 O   0  0  0  0  0  0  0  0  0  0  0  0
   22.0845  -20.6621  -13.0280 N   0  0  0  0  0  0  0  0  0  0  0  0
   20.6495  -20.9742  -12.9580 C   0  0  1  0  0  0  0  0  0  0  0  0
   19.8553  -19.9090  -13.6859 C   0  0  0  0  0  0  0  0  0  0  0  0
   18.3950  -20.2677  -13.6031 C   0  0  0  0  0  0  0  0  0  0  0  0
   17.4873  -19.1164  -13.2974 C   0  0  0  0  0  0  0  0  0  0  0  0
   16.0654  -19.6143  -13.1492 C   0  0  0  0  0  0  0  0  0  0  0  0
   15.2295  -18.4496  -12.8501 N   0  0  0  0  0  0  0  0  0  0  0  0
   20.3839  -22.3215  -13.4838 C   0  0  0  0  0  0  0  0  0  0  0  0
   21.0904  -22.7417  -14.4589 O   0  0  0  0  0  0  0  0  0  0  0  0
   19.4294  -23.2061  -13.0244 O   0  0  0  0  0  0  0  0  0  0  0  0
  2 12  2  0
  2  1  1  0
  3  2  1  0
  4  5  1  0
  4  3  2  0
  5 11  2  0
  6  5  1  0
  7  8  1  6
  7  6  1  0
  9  7  1  0
 10  9  2  0
 11 12  1  0
 13  9  1  0
 14 20  1  0
 14 13  1  0
 14 15  1  6
 16 15  1  0
 17 16  1  0
 18 17  1  0
 19 18  1  0
 20 21  2  0
 22 23  1  0
 22 20  1  0
 23 24  1  6
 24 25  1  0
 25 26  1  0
 26 27  1  0
 28 27  1  0
 29 31  1  0
 29 23  1  0
 30 29  2  0
M  END
$$$$
