YKK.pdb
     RDKit          3D

 31 31  0  0  1  0  0  0  0  0999 V2000
   29.0276  -20.9219   -9.9486 O   0  0  0  0  0  0  0  0  0  0  0  0
   28.3728  -20.3556  -11.0479 C   0  0  0  0  0  0  0  0  0  0  0  0
   27.0007  -20.2676  -11.0366 C   0  0  0  0  0  0  0  0  0  0  0  0
   26.3302  -19.7133  -12.1076 C   0  0  0  0  0  0  0  0  0  0  0  0
   26.9834  -19.2299  -13.2191 C   0  0  0  0  0  0  0  0  0  0  0  0
   26.2501  -18.6642  -14.3510 C   0  0  0  0  0  0  0  0  0  0  0  0
   25.5336  -19.7390  -15.1674 C   0  0  2  0  0  0  0  0  0  0  0  0
   26.4669  -20.6488  -15.7586 N   0  0  0  0  0  0  0  0  0  0  0  0
   24.6987  -19.0839  -16.2295 C   0  0  0  0  0  0  0  0  0  0  0  0
   25.1856  -18.5054  -17.2150 O   0  0  0  0  0  0  0  0  0  0  0  0
   28.3534  -19.3231  -13.2204 C   0  0  0  0  0  0  0  0  0  0  0  0
   29.0520  -19.8805  -12.1462 C   0  0  0  0  0  0  0  0  0  0  0  0
   23.2912  -19.1343  -16.0942 N   0  0  0  0  0  0  0  0  0  0  0  0
   22.3962  -18.5966  -17.1793 C   0  0  1  0  0  0  0  0  0  0  0  0
   21.1767  -19.4342  -17.1942 C   0  0  0  0  0  0  0  0  0  0  0  0
   20.0325  -19.2209  -18.0498 C   0  0  0  0  0  0  0  0  0  0  0  0
   18.8556  -20.1047  -18.0896 C   0  0  0  0  0  0  0  0  0  0  0  0
   17.7725  -19.6552  -19.0573 C   0  0  0  0  0  0  0  0  0  0  0  0
   16.7391  -20.6551  -19.1917 N   0  0  0  0  0  0  0  0  0  0  0  0
   22.1237  -17.1988  -16.7868 C   0  0  0  0  0  0  0  0  0  0  0  0
   21.8942  -16.8485  -15.5775 O   0  0  0  0  0  0  0  0  0  0  0  0
   22.0851  -16.0847  -17.6929 N   0  0  0  0  0  0  0  0  0  0  0  0
   21.6980  -14.7364  -17.2531 C   0  0  1  0  0  0  0  0  0  0  0  0
   22.1965  -13.7080  -18.2478 C   0  0  0  0  0  0  0  0  0  0  0  0
   21.7812  -12.3429  -17.7658 C   0  0  0  0  0  0  0  0  0  0  0  0
   22.1079  -11.2243  -18.7065 C   0  0  0  0  0  0  0  0  0  0  0  0
   21.6912   -9.9048  -18.0928 C   0  0  0  0  0  0  0  0  0  0  0  0
   21.9516   -8.8640  -19.0898 N   0  0  0  0  0  0  0  0  0  0  0  0
   20.2440  -14.6530  -17.0496 C   0  0  0  0  0  0  0  0  0  0  0  0
   19.8074  -13.9544  -16.0760 O   0  0  0  0  0  0  0  0  0  0  0  0
   19.2735  -15.2627  -17.8184 O   0  0  0  0  0  0  0  0  0  0  0  0
  2 12  2  0
  2  1  1  0
  3  2  1  0
  4  5  1  0
  4  3  2  0
  5 11  2  0
  6  5  1  0
  7  8  1  6
  7  6  1  0
  9  7  1  0
 10  9  2  0
 11 12  1  0
 13  9  1  0
 14 20  1  0
 14 13  1  0
 14 15  1  1
 16 15  1  0
 17 16  1  0
 18 17  1  0
 19 18  1  0
 20 21  2  0
 22 23  1  0
 22 20  1  0
 23 24  1  6
 24 25  1  0
 25 26  1  0
 26 27  1  0
 28 27  1  0
 29 31  1  0
 29 23  1  0
 30 29  2  0
M  END
$$$$
