YKK.pdb
     RDKit          3D

 31 31  0  0  1  0  0  0  0  0999 V2000
   31.0894  -21.7548    8.5278 O   0  0  0  0  0  0  0  0  0  0  0  0
   32.0294  -22.3547    7.6825 C   0  0  0  0  0  0  0  0  0  0  0  0
   32.3448  -21.7431    6.4921 C   0  0  0  0  0  0  0  0  0  0  0  0
   33.2685  -22.3133    5.6403 C   0  0  0  0  0  0  0  0  0  0  0  0
   33.9091  -23.4972    5.9294 C   0  0  0  0  0  0  0  0  0  0  0  0
   34.8705  -24.0926    5.0020 C   0  0  0  0  0  0  0  0  0  0  0  0
   36.2115  -24.3860    5.6733 C   0  0  2  0  0  0  0  0  0  0  0  0
   36.9138  -23.1770    5.9787 N   0  0  0  0  0  0  0  0  0  0  0  0
   37.0390  -25.2574    4.7732 C   0  0  0  0  0  0  0  0  0  0  0  0
   37.6271  -24.8288    3.7666 O   0  0  0  0  0  0  0  0  0  0  0  0
   33.5864  -24.0999    7.1204 C   0  0  0  0  0  0  0  0  0  0  0  0
   32.6541  -23.5395    7.9975 C   0  0  0  0  0  0  0  0  0  0  0  0
   37.1502  -26.6306    5.0957 N   0  0  0  0  0  0  0  0  0  0  0  0
   38.0584  -27.5338    4.3038 C   0  0  1  0  0  0  0  0  0  0  0  0
   39.1332  -27.9812    5.2167 C   0  0  0  0  0  0  0  0  0  0  0  0
   40.2478  -28.8196    4.8403 C   0  0  0  0  0  0  0  0  0  0  0  0
   41.1041  -28.5767    3.6675 C   0  0  0  0  0  0  0  0  0  0  0  0
   42.1368  -29.6637    3.4154 C   0  0  0  0  0  0  0  0  0  0  0  0
   42.9372  -29.3689    2.2501 N   0  0  0  0  0  0  0  0  0  0  0  0
   37.1917  -28.6430    3.8556 C   0  0  0  0  0  0  0  0  0  0  0  0
   36.1095  -28.9662    4.4573 O   0  0  0  0  0  0  0  0  0  0  0  0
   37.4496  -29.4760    2.7140 N   0  0  0  0  0  0  0  0  0  0  0  0
   36.5770  -30.6055    2.3613 C   0  0  1  0  0  0  0  0  0  0  0  0
   36.9546  -31.1399    0.9948 C   0  0  0  0  0  0  0  0  0  0  0  0
   36.0176  -32.2680    0.6521 C   0  0  0  0  0  0  0  0  0  0  0  0
   36.2548  -32.8889   -0.6899 C   0  0  0  0  0  0  0  0  0  0  0  0
   35.2899  -34.0365   -0.8979 C   0  0  0  0  0  0  0  0  0  0  0  0
   35.6695  -34.6981   -2.1482 N   0  0  0  0  0  0  0  0  0  0  0  0
   36.6288  -31.6465    3.3985 C   0  0  0  0  0  0  0  0  0  0  0  0
   37.7651  -31.9630    3.8835 O   0  0  0  0  0  0  0  0  0  0  0  0
   35.5534  -32.3363    3.9205 O   0  0  0  0  0  0  0  0  0  0  0  0
  2 12  2  0
  2  1  1  0
  3  2  1  0
  4  5  1  0
  4  3  2  0
  5 11  2  0
  6  5  1  0
  7  8  1  6
  7  6  1  0
  9  7  1  0
 10  9  2  0
 11 12  1  0
 13  9  1  0
 14 20  1  0
 14 13  1  0
 14 15  1  1
 16 15  1  0
 17 16  1  0
 18 17  1  0
 19 18  1  0
 20 21  2  0
 22 23  1  0
 22 20  1  0
 23 24  1  6
 24 25  1  0
 25 26  1  0
 26 27  1  0
 28 27  1  0
 29 31  1  0
 29 23  1  0
 30 29  2  0
M  END
$$$$
