YKK.pdb
     RDKit          3D

 31 31  0  0  1  0  0  0  0  0999 V2000
   14.4603  -11.9506  -21.8197 O   0  0  0  0  0  0  0  0  0  0  0  0
   15.3363  -11.6103  -20.7829 C   0  0  0  0  0  0  0  0  0  0  0  0
   15.0473  -12.0185  -19.5022 C   0  0  0  0  0  0  0  0  0  0  0  0
   15.8943  -11.6966  -18.4616 C   0  0  0  0  0  0  0  0  0  0  0  0
   17.0472  -10.9666  -18.6452 C   0  0  0  0  0  0  0  0  0  0  0  0
   17.9199  -10.6208  -17.5237 C   0  0  0  0  0  0  0  0  0  0  0  0
   18.9404  -11.7193  -17.2289 C   0  0  2  0  0  0  0  0  0  0  0  0
   18.3081  -12.8809  -16.6819 N   0  0  0  0  0  0  0  0  0  0  0  0
   19.9778  -11.1935  -16.2794 C   0  0  0  0  0  0  0  0  0  0  0  0
   19.8635  -11.2599  -15.0444 O   0  0  0  0  0  0  0  0  0  0  0  0
   17.3260  -10.5634  -19.9280 C   0  0  0  0  0  0  0  0  0  0  0  0
   16.4821  -10.8788  -20.9960 C   0  0  0  0  0  0  0  0  0  0  0  0
   21.1386  -10.5974  -16.8264 N   0  0  0  0  0  0  0  0  0  0  0  0
   22.1939  -10.0072  -15.9287 C   0  0  1  0  0  0  0  0  0  0  0  0
   23.4722  -10.6739  -16.2609 C   0  0  0  0  0  0  0  0  0  0  0  0
   24.7320  -10.4337  -15.5961 C   0  0  0  0  0  0  0  0  0  0  0  0
   26.0216  -10.9813  -16.0488 C   0  0  0  0  0  0  0  0  0  0  0  0
   27.2007  -10.6080  -15.1645 C   0  0  0  0  0  0  0  0  0  0  0  0
   28.4187  -11.2377  -15.6183 N   0  0  0  0  0  0  0  0  0  0  0  0
   22.2015   -8.5655  -16.2510 C   0  0  0  0  0  0  0  0  0  0  0  0
   22.4848   -8.1149  -17.4148 O   0  0  0  0  0  0  0  0  0  0  0  0
   21.8971   -7.5149  -15.3197 N   0  0  0  0  0  0  0  0  0  0  0  0
   21.9074   -6.0985  -15.7132 C   0  0  1  0  0  0  0  0  0  0  0  0
   20.4926   -5.5566  -15.7214 C   0  0  0  0  0  0  0  0  0  0  0  0
   20.5478   -4.0937  -16.0746 C   0  0  0  0  0  0  0  0  0  0  0  0
   19.2347   -3.3798  -15.9790 C   0  0  0  0  0  0  0  0  0  0  0  0
   19.3734   -1.9810  -16.5407 C   0  0  0  0  0  0  0  0  0  0  0  0
   18.0386   -1.3783  -16.5318 N   0  0  0  0  0  0  0  0  0  0  0  0
   22.7948   -5.3211  -14.8354 C   0  0  0  0  0  0  0  0  0  0  0  0
   23.4677   -4.3657  -15.3464 O   0  0  0  0  0  0  0  0  0  0  0  0
   22.9834   -5.5158  -13.4822 O   0  0  0  0  0  0  0  0  0  0  0  0
  2 12  2  0
  2  1  1  0
  3  2  1  0
  4  5  1  0
  4  3  2  0
  5 11  2  0
  6  5  1  0
  7  8  1  1
  7  6  1  0
  9  7  1  0
 10  9  2  0
 11 12  1  0
 13  9  1  0
 14 20  1  0
 14 13  1  0
 14 15  1  6
 16 15  1  0
 17 16  1  0
 18 17  1  0
 19 18  1  0
 20 21  2  0
 22 23  1  0
 22 20  1  0
 23 24  1  1
 24 25  1  0
 25 26  1  0
 26 27  1  0
 28 27  1  0
 29 31  1  0
 29 23  1  0
 30 29  2  0
M  END
$$$$
