YKK.pdb
     RDKit          3D

 31 31  0  0  1  0  0  0  0  0999 V2000
   29.2356  -19.2472   -3.6157 O   0  0  0  0  0  0  0  0  0  0  0  0
   28.5082  -19.4748   -4.7892 C   0  0  0  0  0  0  0  0  0  0  0  0
   28.1365  -18.4017   -5.5644 C   0  0  0  0  0  0  0  0  0  0  0  0
   27.4190  -18.5984   -6.7264 C   0  0  0  0  0  0  0  0  0  0  0  0
   27.0455  -19.8498   -7.1623 C   0  0  0  0  0  0  0  0  0  0  0  0
   26.2683  -20.0322   -8.3877 C   0  0  0  0  0  0  0  0  0  0  0  0
   26.9871  -20.9261   -9.3972 C   0  0  2  0  0  0  0  0  0  0  0  0
   28.3921  -20.6545   -9.4218 N   0  0  0  0  0  0  0  0  0  0  0  0
   26.3912  -20.7184  -10.7595 C   0  0  0  0  0  0  0  0  0  0  0  0
   26.5755  -19.6901  -11.4314 O   0  0  0  0  0  0  0  0  0  0  0  0
   27.4214  -20.9144   -6.3806 C   0  0  0  0  0  0  0  0  0  0  0  0
   28.1483  -20.7376   -5.2004 C   0  0  0  0  0  0  0  0  0  0  0  0
   25.5841  -21.7490  -11.2964 N   0  0  0  0  0  0  0  0  0  0  0  0
   25.0417  -21.6478  -12.6976 C   0  0  1  0  0  0  0  0  0  0  0  0
   25.1214  -22.9989  -13.2952 C   0  0  0  0  0  0  0  0  0  0  0  0
   24.6329  -23.3577  -14.6065 C   0  0  0  0  0  0  0  0  0  0  0  0
   25.3812  -23.1363  -15.8550 C   0  0  0  0  0  0  0  0  0  0  0  0
   24.6065  -23.4872  -17.1152 C   0  0  0  0  0  0  0  0  0  0  0  0
   25.3742  -23.1956  -18.3031 N   0  0  0  0  0  0  0  0  0  0  0  0
   23.6509  -21.1783  -12.5317 C   0  0  0  0  0  0  0  0  0  0  0  0
   22.9235  -21.5001  -11.5292 O   0  0  0  0  0  0  0  0  0  0  0  0
   22.9591  -20.3205  -13.4533 N   0  0  0  0  0  0  0  0  0  0  0  0
   21.5801  -19.8708  -13.2132 C   0  0  1  0  0  0  0  0  0  0  0  0
   21.2865  -18.6427  -14.0505 C   0  0  0  0  0  0  0  0  0  0  0  0
   19.8661  -18.2177  -13.7859 C   0  0  0  0  0  0  0  0  0  0  0  0
   19.3803  -17.0960  -14.6511 C   0  0  0  0  0  0  0  0  0  0  0  0
   17.9810  -16.6989  -14.2320 C   0  0  0  0  0  0  0  0  0  0  0  0
   17.6074  -15.5289  -15.0298 N   0  0  0  0  0  0  0  0  0  0  0  0
   20.6256  -20.9595  -13.4704 C   0  0  0  0  0  0  0  0  0  0  0  0
   20.8431  -21.7353  -14.4590 O   0  0  0  0  0  0  0  0  0  0  0  0
   19.4904  -21.2429  -12.7386 O   0  0  0  0  0  0  0  0  0  0  0  0
  2 12  2  0
  2  1  1  0
  3  2  1  0
  4  5  1  0
  4  3  2  0
  5 11  2  0
  6  5  1  0
  7  8  1  6
  7  6  1  0
  9  7  1  0
 10  9  2  0
 11 12  1  0
 13  9  1  0
 14 20  1  0
 14 13  1  0
 14 15  1  1
 16 15  1  0
 17 16  1  0
 18 17  1  0
 19 18  1  0
 20 21  2  0
 22 23  1  0
 22 20  1  0
 23 24  1  6
 24 25  1  0
 25 26  1  0
 26 27  1  0
 28 27  1  0
 29 31  1  0
 29 23  1  0
 30 29  2  0
M  END
$$$$
