YKK.pdb
     RDKit          3D

 31 31  0  0  1  0  0  0  0  0999 V2000
   16.9715  -22.1193  -17.1259 O   0  0  0  0  0  0  0  0  0  0  0  0
   17.5757  -20.8592  -17.1980 C   0  0  0  0  0  0  0  0  0  0  0  0
   17.9191  -20.2145  -16.0331 C   0  0  0  0  0  0  0  0  0  0  0  0
   18.5162  -18.9714  -16.0761 C   0  0  0  0  0  0  0  0  0  0  0  0
   18.7940  -18.3248  -17.2594 C   0  0  0  0  0  0  0  0  0  0  0  0
   19.4101  -16.9985  -17.2796 C   0  0  0  0  0  0  0  0  0  0  0  0
   20.8363  -17.0350  -17.8270 C   0  0  2  0  0  0  0  0  0  0  0  0
   21.7095  -17.7548  -16.9508 N   0  0  0  0  0  0  0  0  0  0  0  0
   21.3318  -15.6309  -18.0201 C   0  0  0  0  0  0  0  0  0  0  0  0
   21.7786  -14.9353  -17.0933 O   0  0  0  0  0  0  0  0  0  0  0  0
   18.4465  -18.9772  -18.4168 C   0  0  0  0  0  0  0  0  0  0  0  0
   17.8412  -20.2364  -18.3959 C   0  0  0  0  0  0  0  0  0  0  0  0
   21.2855  -15.0829  -19.3238 N   0  0  0  0  0  0  0  0  0  0  0  0
   21.9000  -13.7390  -19.6136 C   0  0  1  0  0  0  0  0  0  0  0  0
   22.5015  -13.8160  -20.9630 C   0  0  0  0  0  0  0  0  0  0  0  0
   23.0997  -12.7077  -21.6707 C   0  0  0  0  0  0  0  0  0  0  0  0
   24.3936  -12.1024  -21.3138 C   0  0  0  0  0  0  0  0  0  0  0  0
   24.7540  -10.8751  -22.1356 C   0  0  0  0  0  0  0  0  0  0  0  0
   25.9954  -11.0653  -22.8486 N   0  0  0  0  0  0  0  0  0  0  0  0
   20.7739  -12.7853  -19.5441 C   0  0  0  0  0  0  0  0  0  0  0  0
   19.6207  -13.0341  -20.0402 O   0  0  0  0  0  0  0  0  0  0  0  0
   20.8321  -11.4909  -18.9239 N   0  0  0  0  0  0  0  0  0  0  0  0
   19.6595  -10.6066  -18.8561 C   0  0  1  0  0  0  0  0  0  0  0  0
   19.9167   -9.4860  -17.8694 C   0  0  0  0  0  0  0  0  0  0  0  0
   18.6539   -8.6771  -17.7318 C   0  0  0  0  0  0  0  0  0  0  0  0
   18.6895   -7.6469  -16.6455 C   0  0  0  0  0  0  0  0  0  0  0  0
   17.3434   -6.9611  -16.5496 C   0  0  0  0  0  0  0  0  0  0  0  0
   17.3674   -6.1303  -15.3437 N   0  0  0  0  0  0  0  0  0  0  0  0
   19.3111  -10.1011  -20.1923 C   0  0  0  0  0  0  0  0  0  0  0  0
   18.0789   -9.9310  -20.4737 O   0  0  0  0  0  0  0  0  0  0  0  0
   20.1952   -9.7799  -21.2022 O   0  0  0  0  0  0  0  0  0  0  0  0
  2 12  2  0
  2  1  1  0
  3  2  1  0
  4  5  1  0
  4  3  2  0
  5 11  2  0
  6  5  1  0
  7  8  1  1
  7  6  1  0
  9  7  1  0
 10  9  2  0
 11 12  1  0
 13  9  1  0
 14 20  1  0
 14 13  1  0
 14 15  1  6
 16 15  1  0
 17 16  1  0
 18 17  1  0
 19 18  1  0
 20 21  2  0
 22 23  1  0
 22 20  1  0
 23 24  1  1
 24 25  1  0
 25 26  1  0
 26 27  1  0
 28 27  1  0
 29 31  1  0
 29 23  1  0
 30 29  2  0
M  END
$$$$
