YKK.pdb
     RDKit          3D

 31 31  0  0  1  0  0  0  0  0999 V2000
   28.7924  -19.3235   -4.5592 O   0  0  0  0  0  0  0  0  0  0  0  0
   28.2673  -19.7570   -5.7816 C   0  0  0  0  0  0  0  0  0  0  0  0
   29.0540  -19.6940   -6.9075 C   0  0  0  0  0  0  0  0  0  0  0  0
   28.5607  -20.1152   -8.1253 C   0  0  0  0  0  0  0  0  0  0  0  0
   27.2846  -20.6098   -8.2753 C   0  0  0  0  0  0  0  0  0  0  0  0
   26.7769  -21.0325   -9.5802 C   0  0  0  0  0  0  0  0  0  0  0  0
   25.8072  -20.0139  -10.1777 C   0  0  2  0  0  0  0  0  0  0  0  0
   24.4789  -20.2103   -9.6822 N   0  0  0  0  0  0  0  0  0  0  0  0
   25.8277  -20.1252  -11.6748 C   0  0  0  0  0  0  0  0  0  0  0  0
   24.9953  -20.7858  -12.3179 O   0  0  0  0  0  0  0  0  0  0  0  0
   26.5072  -20.6680   -7.1448 C   0  0  0  0  0  0  0  0  0  0  0  0
   26.9871  -20.2469   -5.9019 C   0  0  0  0  0  0  0  0  0  0  0  0
   26.8464  -19.4403  -12.3785 N   0  0  0  0  0  0  0  0  0  0  0  0
   26.8233  -19.3659  -13.8824 C   0  0  1  0  0  0  0  0  0  0  0  0
   27.7468  -18.2806  -14.2799 C   0  0  0  0  0  0  0  0  0  0  0  0
   27.9643  -17.8290  -15.6348 C   0  0  0  0  0  0  0  0  0  0  0  0
   26.9100  -17.7575  -16.6601 C   0  0  0  0  0  0  0  0  0  0  0  0
   27.3730  -17.1833  -17.9895 C   0  0  0  0  0  0  0  0  0  0  0  0
   26.2989  -17.1587  -18.9546 N   0  0  0  0  0  0  0  0  0  0  0  0
   27.2785  -20.6967  -14.3340 C   0  0  0  0  0  0  0  0  0  0  0  0
   28.3810  -21.2214  -13.9506 O   0  0  0  0  0  0  0  0  0  0  0  0
   26.5557  -21.5481  -15.2376 N   0  0  0  0  0  0  0  0  0  0  0  0
   27.1042  -22.8285  -15.7079 C   0  0  1  0  0  0  0  0  0  0  0  0
   25.9901  -23.6929  -16.2619 C   0  0  0  0  0  0  0  0  0  0  0  0
   26.5594  -25.0489  -16.5861 C   0  0  0  0  0  0  0  0  0  0  0  0
   25.5677  -26.0243  -17.1410 C   0  0  0  0  0  0  0  0  0  0  0  0
   26.2572  -27.3392  -17.4364 C   0  0  0  0  0  0  0  0  0  0  0  0
   25.2262  -28.2738  -17.8931 N   0  0  0  0  0  0  0  0  0  0  0  0
   28.1755  -22.6060  -16.6903 C   0  0  0  0  0  0  0  0  0  0  0  0
   29.3011  -23.1742  -16.4988 O   0  0  0  0  0  0  0  0  0  0  0  0
   28.0940  -21.8303  -17.8289 O   0  0  0  0  0  0  0  0  0  0  0  0
  2 12  2  0
  2  1  1  0
  3  2  1  0
  4  5  1  0
  4  3  2  0
  5 11  2  0
  6  5  1  0
  7  8  1  1
  7  6  1  0
  9  7  1  0
 10  9  2  0
 11 12  1  0
 13  9  1  0
 14 20  1  0
 14 13  1  0
 14 15  1  1
 16 15  1  0
 17 16  1  0
 18 17  1  0
 19 18  1  0
 20 21  2  0
 22 23  1  0
 22 20  1  0
 23 24  1  6
 24 25  1  0
 25 26  1  0
 26 27  1  0
 28 27  1  0
 29 31  1  0
 29 23  1  0
 30 29  2  0
M  END
$$$$
