YKK.pdb
     RDKit          3D

 31 31  0  0  1  0  0  0  0  0999 V2000
   28.9214  -19.2266   -6.1660 O   0  0  0  0  0  0  0  0  0  0  0  0
   28.3267  -19.4357   -7.4153 C   0  0  0  0  0  0  0  0  0  0  0  0
   26.9771  -19.2156   -7.5588 C   0  0  0  0  0  0  0  0  0  0  0  0
   26.3658  -19.4140   -8.7798 C   0  0  0  0  0  0  0  0  0  0  0  0
   27.0577  -19.8330   -9.8939 C   0  0  0  0  0  0  0  0  0  0  0  0
   26.3846  -20.0552  -11.1732 C   0  0  0  0  0  0  0  0  0  0  0  0
   25.6557  -21.3976  -11.2142 C   0  0  2  0  0  0  0  0  0  0  0  0
   26.5765  -22.4829  -11.3641 N   0  0  0  0  0  0  0  0  0  0  0  0
   24.6661  -21.3927  -12.3434 C   0  0  0  0  0  0  0  0  0  0  0  0
   24.9716  -21.6700  -13.5149 O   0  0  0  0  0  0  0  0  0  0  0  0
   28.4049  -20.0503   -9.7395 C   0  0  0  0  0  0  0  0  0  0  0  0
   29.0437  -19.8553   -8.5122 C   0  0  0  0  0  0  0  0  0  0  0  0
   23.3235  -21.0568  -12.0493 N   0  0  0  0  0  0  0  0  0  0  0  0
   22.2318  -21.3068  -13.0560 C   0  0  1  0  0  0  0  0  0  0  0  0
   21.0231  -21.7020  -12.2999 C   0  0  0  0  0  0  0  0  0  0  0  0
   20.3316  -22.9628  -12.4382 C   0  0  0  0  0  0  0  0  0  0  0  0
   19.0730  -23.2937  -11.7496 C   0  0  0  0  0  0  0  0  0  0  0  0
   18.5232  -24.6707  -12.0860 C   0  0  0  0  0  0  0  0  0  0  0  0
   17.3066  -24.9439  -11.3572 N   0  0  0  0  0  0  0  0  0  0  0  0
   22.0674  -20.0203  -13.7631 C   0  0  0  0  0  0  0  0  0  0  0  0
   21.9911  -18.8972  -13.1543 O   0  0  0  0  0  0  0  0  0  0  0  0
   21.9767  -19.8737  -15.1893 N   0  0  0  0  0  0  0  0  0  0  0  0
   21.9036  -18.5540  -15.8332 C   0  0  1  0  0  0  0  0  0  0  0  0
   22.5921  -18.6010  -17.1820 C   0  0  0  0  0  0  0  0  0  0  0  0
   22.5101  -17.2317  -17.8035 C   0  0  0  0  0  0  0  0  0  0  0  0
   23.1560  -17.1191  -19.1499 C   0  0  0  0  0  0  0  0  0  0  0  0
   22.9994  -15.7075  -19.6735 C   0  0  0  0  0  0  0  0  0  0  0  0
   23.6915  -15.6463  -20.9628 N   0  0  0  0  0  0  0  0  0  0  0  0
   20.5080  -18.1027  -15.9375 C   0  0  0  0  0  0  0  0  0  0  0  0
   19.5919  -18.9841  -16.0401 O   0  0  0  0  0  0  0  0  0  0  0  0
   20.0682  -16.7945  -15.9347 O   0  0  0  0  0  0  0  0  0  0  0  0
  2 12  2  0
  2  1  1  0
  3  2  1  0
  4  5  1  0
  4  3  2  0
  5 11  2  0
  6  5  1  0
  7  8  1  6
  7  6  1  0
  9  7  1  0
 10  9  2  0
 11 12  1  0
 13  9  1  0
 14 20  1  0
 14 13  1  0
 14 15  1  1
 16 15  1  0
 17 16  1  0
 18 17  1  0
 19 18  1  0
 20 21  2  0
 22 23  1  0
 22 20  1  0
 23 24  1  6
 24 25  1  0
 25 26  1  0
 26 27  1  0
 28 27  1  0
 29 31  1  0
 29 23  1  0
 30 29  2  0
M  END
$$$$
