YKK.pdb
     RDKit          3D

 31 31  0  0  1  0  0  0  0  0999 V2000
   30.2545  -13.2804  -16.9659 O   0  0  0  0  0  0  0  0  0  0  0  0
   29.1555  -12.4274  -16.8160 C   0  0  0  0  0  0  0  0  0  0  0  0
   28.8179  -11.5839  -17.8481 C   0  0  0  0  0  0  0  0  0  0  0  0
   27.7387  -10.7328  -17.7263 C   0  0  0  0  0  0  0  0  0  0  0  0
   26.9601  -10.6833  -16.5919 C   0  0  0  0  0  0  0  0  0  0  0  0
   25.8325   -9.7590  -16.4783 C   0  0  0  0  0  0  0  0  0  0  0  0
   24.4874  -10.4788  -16.5663 C   0  0  2  0  0  0  0  0  0  0  0  0
   24.4480  -11.3684  -17.6868 N   0  0  0  0  0  0  0  0  0  0  0  0
   23.3851   -9.4643  -16.6661 C   0  0  0  0  0  0  0  0  0  0  0  0
   23.0435   -8.9362  -17.7372 O   0  0  0  0  0  0  0  0  0  0  0  0
   27.3062  -11.5294  -15.5671 C   0  0  0  0  0  0  0  0  0  0  0  0
   28.3949  -12.3992  -15.6697 C   0  0  0  0  0  0  0  0  0  0  0  0
   22.7076   -9.0996  -15.4787 N   0  0  0  0  0  0  0  0  0  0  0  0
   21.5092   -8.1890  -15.5277 C   0  0  1  0  0  0  0  0  0  0  0  0
   20.6325   -8.5600  -14.3952 C   0  0  0  0  0  0  0  0  0  0  0  0
   19.2895   -9.0776  -14.5188 C   0  0  0  0  0  0  0  0  0  0  0  0
   18.9710  -10.4612  -14.9086 C   0  0  0  0  0  0  0  0  0  0  0  0
   17.4820  -10.7566  -14.9933 C   0  0  0  0  0  0  0  0  0  0  0  0
   17.2379  -12.0965  -15.4735 N   0  0  0  0  0  0  0  0  0  0  0  0
   22.0642   -6.8262  -15.3973 C   0  0  0  0  0  0  0  0  0  0  0  0
   22.8949   -6.4987  -14.4805 O   0  0  0  0  0  0  0  0  0  0  0  0
   21.7487   -5.7253  -16.2646 N   0  0  0  0  0  0  0  0  0  0  0  0
   22.3504   -4.3959  -16.0857 C   0  0  1  0  0  0  0  0  0  0  0  0
   22.1802   -3.5798  -17.3509 C   0  0  0  0  0  0  0  0  0  0  0  0
   22.9079   -2.2733  -17.1731 C   0  0  0  0  0  0  0  0  0  0  0  0
   22.9672   -1.4211  -18.4031 C   0  0  0  0  0  0  0  0  0  0  0  0
   23.7473   -0.1574  -18.1099 C   0  0  0  0  0  0  0  0  0  0  0  0
   23.8413    0.5924  -19.3645 N   0  0  0  0  0  0  0  0  0  0  0  0
   21.7818   -3.7216  -14.9091 C   0  0  0  0  0  0  0  0  0  0  0  0
   22.5641   -3.0501  -14.1584 O   0  0  0  0  0  0  0  0  0  0  0  0
   20.4583   -3.7343  -14.5183 O   0  0  0  0  0  0  0  0  0  0  0  0
  2 12  2  0
  2  1  1  0
  3  2  1  0
  4  5  1  0
  4  3  2  0
  5 11  2  0
  6  5  1  0
  7  8  1  6
  7  6  1  0
  9  7  1  0
 10  9  2  0
 11 12  1  0
 13  9  1  0
 14 20  1  0
 14 13  1  0
 14 15  1  1
 16 15  1  0
 17 16  1  0
 18 17  1  0
 19 18  1  0
 20 21  2  0
 22 23  1  0
 22 20  1  0
 23 24  1  6
 24 25  1  0
 25 26  1  0
 26 27  1  0
 28 27  1  0
 29 31  1  0
 29 23  1  0
 30 29  2  0
M  END
$$$$
