YKK.pdb
     RDKit          3D

 31 31  0  0  1  0  0  0  0  0999 V2000
   24.3564  -20.4735  -15.8331 O   0  0  0  0  0  0  0  0  0  0  0  0
   23.5630  -19.4426  -16.3485 C   0  0  0  0  0  0  0  0  0  0  0  0
   23.3363  -18.3251  -15.5802 C   0  0  0  0  0  0  0  0  0  0  0  0
   22.5579  -17.2940  -16.0646 C   0  0  0  0  0  0  0  0  0  0  0  0
   21.9798  -17.3275  -17.3137 C   0  0  0  0  0  0  0  0  0  0  0  0
   21.1424  -16.2307  -17.7983 C   0  0  0  0  0  0  0  0  0  0  0  0
   19.7248  -16.2955  -17.2315 C   0  0  2  0  0  0  0  0  0  0  0  0
   19.1147  -17.5609  -17.5048 N   0  0  0  0  0  0  0  0  0  0  0  0
   18.9034  -15.1828  -17.8159 C   0  0  0  0  0  0  0  0  0  0  0  0
   18.4596  -15.2035  -18.9757 O   0  0  0  0  0  0  0  0  0  0  0  0
   22.2120  -18.4482  -18.0725 C   0  0  0  0  0  0  0  0  0  0  0  0
   22.9973  -19.5036  -17.6014 C   0  0  0  0  0  0  0  0  0  0  0  0
   18.6251  -14.0618  -16.9985 N   0  0  0  0  0  0  0  0  0  0  0  0
   17.8062  -12.9128  -17.5247 C   0  0  1  0  0  0  0  0  0  0  0  0
   16.4358  -13.0728  -16.9907 C   0  0  0  0  0  0  0  0  0  0  0  0
   15.3483  -12.1455  -17.2012 C   0  0  0  0  0  0  0  0  0  0  0  0
   13.9761  -12.3579  -16.7114 C   0  0  0  0  0  0  0  0  0  0  0  0
   13.0311  -11.1991  -16.9865 C   0  0  0  0  0  0  0  0  0  0  0  0
   11.6590  -11.5654  -16.7241 N   0  0  0  0  0  0  0  0  0  0  0  0
   18.4805  -11.7022  -17.0129 C   0  0  0  0  0  0  0  0  0  0  0  0
   18.9033  -11.5982  -15.8095 O   0  0  0  0  0  0  0  0  0  0  0  0
   18.7406  -10.5193  -17.7854 N   0  0  0  0  0  0  0  0  0  0  0  0
   19.4348   -9.3549  -17.2165 C   0  0  1  0  0  0  0  0  0  0  0  0
   20.1838   -8.6185  -18.3085 C   0  0  0  0  0  0  0  0  0  0  0  0
   19.1753   -7.9808  -19.2272 C   0  0  0  0  0  0  0  0  0  0  0  0
   19.7696   -7.1962  -20.3559 C   0  0  0  0  0  0  0  0  0  0  0  0
   18.6633   -6.5961  -21.1970 C   0  0  0  0  0  0  0  0  0  0  0  0
   19.3034   -5.8220  -22.2629 N   0  0  0  0  0  0  0  0  0  0  0  0
   18.4892   -8.4815  -16.5056 C   0  0  0  0  0  0  0  0  0  0  0  0
   17.2486   -8.5762  -16.7858 O   0  0  0  0  0  0  0  0  0  0  0  0
   18.8050   -7.5465  -15.5409 O   0  0  0  0  0  0  0  0  0  0  0  0
  2 12  2  0
  2  1  1  0
  3  2  1  0
  4  5  1  0
  4  3  2  0
  5 11  2  0
  6  5  1  0
  7  8  1  6
  7  6  1  0
  9  7  1  0
 10  9  2  0
 11 12  1  0
 13  9  1  0
 14 20  1  0
 14 13  1  0
 14 15  1  1
 16 15  1  0
 17 16  1  0
 18 17  1  0
 19 18  1  0
 20 21  2  0
 22 23  1  0
 22 20  1  0
 23 24  1  6
 24 25  1  0
 25 26  1  0
 26 27  1  0
 28 27  1  0
 29 31  1  0
 29 23  1  0
 30 29  2  0
M  END
$$$$
