YKK.pdb
     RDKit          3D

 31 31  0  0  1  0  0  0  0  0999 V2000
   19.1926  -22.9971   -7.1638 O   0  0  0  0  0  0  0  0  0  0  0  0
   20.1456  -22.3386   -7.9488 C   0  0  0  0  0  0  0  0  0  0  0  0
   20.1313  -22.5213   -9.3115 C   0  0  0  0  0  0  0  0  0  0  0  0
   21.0596  -21.8837  -10.1086 C   0  0  0  0  0  0  0  0  0  0  0  0
   22.0274  -21.0499   -9.5949 C   0  0  0  0  0  0  0  0  0  0  0  0
   23.0132  -20.3999  -10.4579 C   0  0  0  0  0  0  0  0  0  0  0  0
   24.1718  -21.3316  -10.8110 C   0  0  2  0  0  0  0  0  0  0  0  0
   25.0154  -21.5620   -9.6781 N   0  0  0  0  0  0  0  0  0  0  0  0
   24.9637  -20.7361  -11.9391 C   0  0  0  0  0  0  0  0  0  0  0  0
   25.8411  -19.8731  -11.7712 O   0  0  0  0  0  0  0  0  0  0  0  0
   22.0331  -20.8749   -8.2329 C   0  0  0  0  0  0  0  0  0  0  0  0
   21.1021  -21.5107   -7.4075 C   0  0  0  0  0  0  0  0  0  0  0  0
   24.6921  -21.1867  -13.2526 N   0  0  0  0  0  0  0  0  0  0  0  0
   25.4579  -20.6361  -14.4265 C   0  0  1  0  0  0  0  0  0  0  0  0
   26.1180  -21.7804  -15.0926 C   0  0  0  0  0  0  0  0  0  0  0  0
   26.9361  -21.6917  -16.2799 C   0  0  0  0  0  0  0  0  0  0  0  0
   27.5979  -22.8440  -16.9140 C   0  0  0  0  0  0  0  0  0  0  0  0
   28.4778  -22.4810  -18.0996 C   0  0  0  0  0  0  0  0  0  0  0  0
   29.2650  -23.6105  -18.5358 N   0  0  0  0  0  0  0  0  0  0  0  0
   24.4354  -19.9929  -15.2769 C   0  0  0  0  0  0  0  0  0  0  0  0
   23.2201  -20.3911  -15.3244 O   0  0  0  0  0  0  0  0  0  0  0  0
   24.6728  -18.8655  -16.1351 N   0  0  0  0  0  0  0  0  0  0  0  0
   23.6079  -18.2776  -16.9607 C   0  0  1  0  0  0  0  0  0  0  0  0
   23.7770  -16.7733  -17.0235 C   0  0  0  0  0  0  0  0  0  0  0  0
   22.6760  -16.2084  -17.8818 C   0  0  0  0  0  0  0  0  0  0  0  0
   22.7288  -14.7230  -18.0647 C   0  0  0  0  0  0  0  0  0  0  0  0
   21.5956  -14.2801  -18.9653 C   0  0  0  0  0  0  0  0  0  0  0  0
   21.6671  -12.8206  -19.0628 N   0  0  0  0  0  0  0  0  0  0  0  0
   23.5876  -18.8904  -18.2973 C   0  0  0  0  0  0  0  0  0  0  0  0
   24.6989  -19.2155  -18.8320 O   0  0  0  0  0  0  0  0  0  0  0  0
   22.4675  -19.1616  -19.0566 O   0  0  0  0  0  0  0  0  0  0  0  0
  2 12  2  0
  2  1  1  0
  3  2  1  0
  4  5  1  0
  4  3  2  0
  5 11  2  0
  6  5  1  0
  7  8  1  1
  7  6  1  0
  9  7  1  0
 10  9  2  0
 11 12  1  0
 13  9  1  0
 14 20  1  0
 14 13  1  0
 14 15  1  6
 16 15  1  0
 17 16  1  0
 18 17  1  0
 19 18  1  0
 20 21  2  0
 22 23  1  0
 22 20  1  0
 23 24  1  6
 24 25  1  0
 25 26  1  0
 26 27  1  0
 28 27  1  0
 29 31  1  0
 29 23  1  0
 30 29  2  0
M  END
$$$$
