YKK.pdb
     RDKit          3D

 31 31  0  0  1  0  0  0  0  0999 V2000
   23.8461  -21.2473   -8.5622 O   0  0  0  0  0  0  0  0  0  0  0  0
   24.3928  -20.7385   -9.7455 C   0  0  0  0  0  0  0  0  0  0  0  0
   23.7738  -21.0157  -10.9416 C   0  0  0  0  0  0  0  0  0  0  0  0
   24.2920  -20.5261  -12.1229 C   0  0  0  0  0  0  0  0  0  0  0  0
   25.4296  -19.7520  -12.1669 C   0  0  0  0  0  0  0  0  0  0  0  0
   25.9712  -19.2602  -13.4333 C   0  0  0  0  0  0  0  0  0  0  0  0
   26.9125  -20.2706  -14.0876 C   0  0  2  0  0  0  0  0  0  0  0  0
   28.0380  -20.5492  -13.2487 N   0  0  0  0  0  0  0  0  0  0  0  0
   27.3697  -19.7385  -15.4151 C   0  0  0  0  0  0  0  0  0  0  0  0
   28.3819  -19.0317  -15.5508 O   0  0  0  0  0  0  0  0  0  0  0  0
   26.0402  -19.4815  -10.9670 C   0  0  0  0  0  0  0  0  0  0  0  0
   25.5321  -19.9671   -9.7593 C   0  0  0  0  0  0  0  0  0  0  0  0
   26.6059  -20.0642  -16.5607 N   0  0  0  0  0  0  0  0  0  0  0  0
   27.2801  -20.5123  -17.8305 C   0  0  1  0  0  0  0  0  0  0  0  0
   28.1084  -21.6907  -17.4925 C   0  0  0  0  0  0  0  0  0  0  0  0
   29.2920  -22.1074  -18.2083 C   0  0  0  0  0  0  0  0  0  0  0  0
   29.4163  -23.3892  -18.9221 C   0  0  0  0  0  0  0  0  0  0  0  0
   30.7737  -23.6114  -19.5699 C   0  0  0  0  0  0  0  0  0  0  0  0
   30.8791  -24.9391  -20.1283 N   0  0  0  0  0  0  0  0  0  0  0  0
   26.1725  -20.8386  -18.7520 C   0  0  0  0  0  0  0  0  0  0  0  0
   25.0479  -21.2996  -18.3514 O   0  0  0  0  0  0  0  0  0  0  0  0
   26.2190  -20.6808  -20.1791 N   0  0  0  0  0  0  0  0  0  0  0  0
   25.0633  -20.1946  -20.9468 C   0  0  1  0  0  0  0  0  0  0  0  0
   24.8179  -18.7321  -20.6362 C   0  0  0  0  0  0  0  0  0  0  0  0
   23.6539  -18.2603  -21.4672 C   0  0  0  0  0  0  0  0  0  0  0  0
   23.2457  -16.8410  -21.2184 C   0  0  0  0  0  0  0  0  0  0  0  0
   22.0358  -16.5036  -22.0632 C   0  0  0  0  0  0  0  0  0  0  0  0
   21.5872  -15.1689  -21.6603 N   0  0  0  0  0  0  0  0  0  0  0  0
   25.2568  -20.4321  -22.3849 C   0  0  0  0  0  0  0  0  0  0  0  0
   24.4004  -21.1481  -23.0017 O   0  0  0  0  0  0  0  0  0  0  0  0
   26.2905  -19.9507  -23.1624 O   0  0  0  0  0  0  0  0  0  0  0  0
  2 12  2  0
  2  1  1  0
  3  2  1  0
  4  5  1  0
  4  3  2  0
  5 11  2  0
  6  5  1  0
  7  8  1  1
  7  6  1  0
  9  7  1  0
 10  9  2  0
 11 12  1  0
 13  9  1  0
 14 20  1  0
 14 13  1  0
 14 15  1  1
 16 15  1  0
 17 16  1  0
 18 17  1  0
 19 18  1  0
 20 21  2  0
 22 23  1  0
 22 20  1  0
 23 24  1  6
 24 25  1  0
 25 26  1  0
 26 27  1  0
 28 27  1  0
 29 31  1  0
 29 23  1  0
 30 29  2  0
M  END
$$$$
