ECQ.pdb
     RDKit          3D

 25 24  0  0  1  0  0  0  0  0999 V2000
   24.6149  -13.6288  -18.3968 N   0  0  0  0  0  0  0  0  0  0  0  0
   23.6065  -12.6474  -18.4517 C   0  0  1  0  0  0  0  0  0  0  0  0
   22.2191  -13.1736  -18.3011 C   0  0  0  0  0  0  0  0  0  0  0  0
   21.6896  -13.8889  -19.4882 C   0  0  0  0  0  0  0  0  0  0  0  0
   21.1020  -15.1878  -19.2271 C   0  0  0  0  0  0  0  0  0  0  0  0
   21.6266  -16.2950  -19.3781 O   0  0  0  0  0  0  0  0  0  0  0  0
   23.7488  -11.5701  -17.4247 C   0  0  0  0  0  0  0  0  0  0  0  0
   23.1177  -11.6568  -16.3162 O   0  0  0  0  0  0  0  0  0  0  0  0
   19.7786  -15.2085  -18.7441 O   0  0  0  0  0  0  0  0  0  0  0  0
   24.5449  -10.4169  -17.5603 N   0  0  0  0  0  0  0  0  0  0  0  0
   24.7671   -9.4828  -16.4924 C   0  0  1  0  0  0  0  0  0  0  0  0
   26.1804   -9.0120  -16.3659 C   0  0  0  0  0  0  0  0  0  0  0  0
   27.1997  -10.1018  -15.3475 S   0  0  0  0  0  0  0  0  0  0  0  0
   23.9015   -8.2953  -16.6760 C   0  0  0  0  0  0  0  0  0  0  0  0
   23.7778   -7.7533  -17.8135 O   0  0  0  0  0  0  0  0  0  0  0  0
   18.2062   -7.5963  -15.4510 N   0  0  0  0  0  0  0  0  0  0  0  0
   18.4768   -6.2595  -15.8779 C   0  0  0  0  0  0  0  0  0  0  0  0
   17.5266   -5.4794  -16.1024 O   0  0  0  0  0  0  0  0  0  0  0  0
   19.9007   -5.8736  -16.0323 C   0  0  0  0  0  0  0  0  0  0  0  0
   20.8642   -6.9848  -15.7568 C   0  0  0  0  0  0  0  0  0  0  0  0
   22.3061   -6.5627  -15.8602 C   0  0  2  0  0  0  0  0  0  0  0  0
   23.1774   -7.7133  -15.6009 N   0  0  0  0  0  0  0  0  0  0  0  0
   22.5674   -5.5271  -14.8385 C   0  0  0  0  0  0  0  0  0  0  0  0
   23.0375   -5.8856  -13.7313 O   0  0  0  0  0  0  0  0  0  0  0  0
   22.3356   -4.1760  -15.0035 O   0  0  0  0  0  0  0  0  0  0  0  0
  2  1  1  1
  2  7  1  0
  3  2  1  0
  4  3  1  0
  5  4  1  0
  6  5  2  0
  7  8  2  0
  9  5  1  0
 10 11  1  0
 10  7  1  0
 11 12  1  6
 12 13  1  0
 14 15  2  0
 14 11  1  0
 16 17  1  0
 17 19  1  0
 18 17  2  0
 19 20  1  0
 21 20  1  1
 21 23  1  0
 21 22  1  0
 22 14  1  0
 23 25  1  0
 24 23  2  0
M  END
$$$$
