ECQ.pdb
     RDKit          3D

 25 24  0  0  1  0  0  0  0  0999 V2000
   18.0274   -9.6586  -16.2084 N   0  0  0  0  0  0  0  0  0  0  0  0
   17.2304  -10.1339  -15.1492 C   0  0  1  0  0  0  0  0  0  0  0  0
   17.2596  -11.6137  -14.9658 C   0  0  0  0  0  0  0  0  0  0  0  0
   17.0735  -12.4014  -16.2093 C   0  0  0  0  0  0  0  0  0  0  0  0
   17.3186  -13.8251  -16.0922 C   0  0  0  0  0  0  0  0  0  0  0  0
   17.7728  -14.4328  -15.1183 O   0  0  0  0  0  0  0  0  0  0  0  0
   17.5769   -9.5501  -13.8169 C   0  0  0  0  0  0  0  0  0  0  0  0
   17.0107   -9.9918  -12.7592 O   0  0  0  0  0  0  0  0  0  0  0  0
   17.0081  -14.6243  -17.2103 O   0  0  0  0  0  0  0  0  0  0  0  0
   18.5073   -8.5162  -13.5989 N   0  0  0  0  0  0  0  0  0  0  0  0
   18.8644   -8.0403  -12.2919 C   0  0  1  0  0  0  0  0  0  0  0  0
   20.0711   -7.1581  -12.2627 C   0  0  0  0  0  0  0  0  0  0  0  0
   21.5944   -8.0303  -12.6903 S   0  0  0  0  0  0  0  0  0  0  0  0
   17.7313   -7.2891  -11.7043 C   0  0  0  0  0  0  0  0  0  0  0  0
   17.0748   -6.4587  -12.3989 O   0  0  0  0  0  0  0  0  0  0  0  0
   12.9968   -9.1793   -8.6046 N   0  0  0  0  0  0  0  0  0  0  0  0
   12.8509   -7.7856   -8.3239 C   0  0  0  0  0  0  0  0  0  0  0  0
   11.8366   -7.3818   -7.7156 O   0  0  0  0  0  0  0  0  0  0  0  0
   13.9366   -6.8855   -8.7834 C   0  0  0  0  0  0  0  0  0  0  0  0
   15.1301   -7.6036   -9.3302 C   0  0  0  0  0  0  0  0  0  0  0  0
   16.2059   -6.6763   -9.8308 C   0  0  2  0  0  0  0  0  0  0  0  0
   17.3302   -7.4601  -10.3520 N   0  0  0  0  0  0  0  0  0  0  0  0
   16.6822   -5.8540   -8.6989 C   0  0  0  0  0  0  0  0  0  0  0  0
   15.9324   -4.9468   -8.2626 O   0  0  0  0  0  0  0  0  0  0  0  0
   17.9020   -6.0039   -8.0696 O   0  0  0  0  0  0  0  0  0  0  0  0
  2  1  1  6
  2  7  1  0
  3  2  1  0
  4  3  1  0
  5  4  1  0
  6  5  2  0
  7  8  2  0
  9  5  1  0
 10 11  1  0
 10  7  1  0
 11 12  1  6
 12 13  1  0
 14 15  2  0
 14 11  1  0
 16 17  1  0
 17 19  1  0
 18 17  2  0
 19 20  1  0
 21 20  1  1
 21 23  1  0
 21 22  1  0
 22 14  1  0
 23 25  1  0
 24 23  2  0
M  END
$$$$
