ECQ.pdb
     RDKit          3D

 25 24  0  0  1  0  0  0  0  0999 V2000
   21.4831  -12.7976  -16.5629 N   0  0  0  0  0  0  0  0  0  0  0  0
   21.1695  -12.0916  -17.7403 C   0  0  1  0  0  0  0  0  0  0  0  0
   20.2438  -12.8071  -18.6653 C   0  0  0  0  0  0  0  0  0  0  0  0
   19.7146  -14.0933  -18.1486 C   0  0  0  0  0  0  0  0  0  0  0  0
   18.7751  -14.7778  -19.0145 C   0  0  0  0  0  0  0  0  0  0  0  0
   17.5861  -15.0227  -18.7903 O   0  0  0  0  0  0  0  0  0  0  0  0
   20.5522  -10.7511  -17.5005 C   0  0  0  0  0  0  0  0  0  0  0  0
   19.5347  -10.3851  -18.1825 O   0  0  0  0  0  0  0  0  0  0  0  0
   19.2577  -15.2226  -20.2612 O   0  0  0  0  0  0  0  0  0  0  0  0
   20.9978   -9.8076  -16.5552 N   0  0  0  0  0  0  0  0  0  0  0  0
   20.3634   -8.5354  -16.3525 C   0  0  1  0  0  0  0  0  0  0  0  0
   19.1446   -8.5822  -15.4880 C   0  0  0  0  0  0  0  0  0  0  0  0
   19.4218   -9.4389  -13.9218 S   0  0  0  0  0  0  0  0  0  0  0  0
   21.3236   -7.5872  -15.7424 C   0  0  0  0  0  0  0  0  0  0  0  0
   22.2383   -7.9986  -14.9697 O   0  0  0  0  0  0  0  0  0  0  0  0
   23.6370   -2.3940  -18.1664 N   0  0  0  0  0  0  0  0  0  0  0  0
   24.2133   -2.3354  -16.8598 C   0  0  0  0  0  0  0  0  0  0  0  0
   25.0475   -1.4439  -16.5930 O   0  0  0  0  0  0  0  0  0  0  0  0
   23.7758   -3.3602  -15.8808 C   0  0  0  0  0  0  0  0  0  0  0  0
   22.7202   -4.2848  -16.4003 C   0  0  0  0  0  0  0  0  0  0  0  0
   22.2781   -5.3116  -15.3912 C   0  0  2  0  0  0  0  0  0  0  0  0
   21.2675   -6.1892  -15.9899 N   0  0  0  0  0  0  0  0  0  0  0  0
   21.6769   -4.6094  -14.2381 C   0  0  0  0  0  0  0  0  0  0  0  0
   20.4350   -4.4274  -14.2309 O   0  0  0  0  0  0  0  0  0  0  0  0
   22.3782   -4.1306  -13.1493 O   0  0  0  0  0  0  0  0  0  0  0  0
  2  1  1  1
  2  7  1  0
  3  2  1  0
  4  3  1  0
  5  4  1  0
  6  5  2  0
  7  8  2  0
  9  5  1  0
 10 11  1  0
 10  7  1  0
 11 12  1  1
 12 13  1  0
 14 15  2  0
 14 11  1  0
 16 17  1  0
 17 19  1  0
 18 17  2  0
 19 20  1  0
 21 20  1  6
 21 23  1  0
 21 22  1  0
 22 14  1  0
 23 25  1  0
 24 23  2  0
M  END
$$$$
