ECQ.pdb
     RDKit          3D

 25 24  0  0  1  0  0  0  0  0999 V2000
   19.6958  -14.0155  -15.7697 N   0  0  0  0  0  0  0  0  0  0  0  0
   18.8857  -12.8942  -16.0334 C   0  0  1  0  0  0  0  0  0  0  0  0
   17.4211  -13.1405  -15.8969 C   0  0  0  0  0  0  0  0  0  0  0  0
   16.8848  -14.2177  -16.7648 C   0  0  0  0  0  0  0  0  0  0  0  0
   17.0957  -15.5702  -16.2883 C   0  0  0  0  0  0  0  0  0  0  0  0
   16.6508  -16.0825  -15.2570 O   0  0  0  0  0  0  0  0  0  0  0  0
   19.1835  -11.7110  -15.1692 C   0  0  0  0  0  0  0  0  0  0  0  0
   19.3895  -11.8698  -13.9175 O   0  0  0  0  0  0  0  0  0  0  0  0
   17.8995  -16.4125  -17.0816 O   0  0  0  0  0  0  0  0  0  0  0  0
   19.2650  -10.3780  -15.6149 N   0  0  0  0  0  0  0  0  0  0  0  0
   19.7025   -9.2937  -14.7810 C   0  0  1  0  0  0  0  0  0  0  0  0
   20.7209   -8.3995  -15.4120 C   0  0  0  0  0  0  0  0  0  0  0  0
   21.2277   -7.0378  -14.3382 S   0  0  0  0  0  0  0  0  0  0  0  0
   18.5414   -8.4628  -14.3878 C   0  0  0  0  0  0  0  0  0  0  0  0
   17.6069   -8.2255  -15.2085 O   0  0  0  0  0  0  0  0  0  0  0  0
   16.2107   -7.5664   -8.6485 N   0  0  0  0  0  0  0  0  0  0  0  0
   15.3289   -6.7551   -9.4275 C   0  0  0  0  0  0  0  0  0  0  0  0
   14.3387   -6.2217   -8.8828 O   0  0  0  0  0  0  0  0  0  0  0  0
   15.6513   -6.5944  -10.8664 C   0  0  0  0  0  0  0  0  0  0  0  0
   16.8486   -7.3740  -11.3112 C   0  0  0  0  0  0  0  0  0  0  0  0
   17.2193   -7.1279  -12.7500 C   0  0  2  0  0  0  0  0  0  0  0  0
   18.4196   -7.8986  -13.0895 N   0  0  0  0  0  0  0  0  0  0  0  0
   17.5123   -5.6894  -12.9207 C   0  0  0  0  0  0  0  0  0  0  0  0
   18.7078   -5.3119  -12.8588 O   0  0  0  0  0  0  0  0  0  0  0  0
   16.5657   -4.7102  -13.1482 O   0  0  0  0  0  0  0  0  0  0  0  0
  2  1  1  1
  2  7  1  0
  3  2  1  0
  4  3  1  0
  5  4  1  0
  6  5  2  0
  7  8  2  0
  9  5  1  0
 10 11  1  0
 10  7  1  0
 11 12  1  6
 12 13  1  0
 14 15  2  0
 14 11  1  0
 16 17  1  0
 17 19  1  0
 18 17  2  0
 19 20  1  0
 21 20  1  1
 21 23  1  0
 21 22  1  0
 22 14  1  0
 23 25  1  0
 24 23  2  0
M  END
$$$$
