ECQ.pdb
     RDKit          3D

 25 24  0  0  1  0  0  0  0  0999 V2000
   19.3900  -12.8859  -19.0062 N   0  0  0  0  0  0  0  0  0  0  0  0
   20.3304  -12.2079  -18.2068 C   0  0  1  0  0  0  0  0  0  0  0  0
   21.6056  -11.8680  -18.9015 C   0  0  0  0  0  0  0  0  0  0  0  0
   22.4656  -13.0305  -19.2337 C   0  0  0  0  0  0  0  0  0  0  0  0
   23.6816  -12.7234  -19.9603 C   0  0  0  0  0  0  0  0  0  0  0  0
   23.9706  -13.0493  -21.1154 O   0  0  0  0  0  0  0  0  0  0  0  0
   19.8256  -10.9250  -17.6282 C   0  0  0  0  0  0  0  0  0  0  0  0
   19.0212  -10.1935  -18.3009 O   0  0  0  0  0  0  0  0  0  0  0  0
   24.6589  -11.9656  -19.2853 O   0  0  0  0  0  0  0  0  0  0  0  0
   20.1607  -10.4177  -16.3584 N   0  0  0  0  0  0  0  0  0  0  0  0
   19.6057   -9.2066  -15.8221 C   0  0  1  0  0  0  0  0  0  0  0  0
   18.8538   -9.3841  -14.5421 C   0  0  0  0  0  0  0  0  0  0  0  0
   17.4642  -10.5288  -14.6918 S   0  0  0  0  0  0  0  0  0  0  0  0
   20.6852   -8.2201  -15.5884 C   0  0  0  0  0  0  0  0  0  0  0  0
   21.8150   -8.5875  -15.1507 O   0  0  0  0  0  0  0  0  0  0  0  0
   23.6133   -1.9821  -18.1621 N   0  0  0  0  0  0  0  0  0  0  0  0
   22.5942   -2.9817  -18.0914 C   0  0  0  0  0  0  0  0  0  0  0  0
   21.6478   -2.9564  -18.9072 O   0  0  0  0  0  0  0  0  0  0  0  0
   22.7264   -4.0088  -17.0295 C   0  0  0  0  0  0  0  0  0  0  0  0
   21.6031   -4.9968  -16.9973 C   0  0  0  0  0  0  0  0  0  0  0  0
   21.6783   -5.9469  -15.8312 C   0  0  2  0  0  0  0  0  0  0  0  0
   20.5098   -6.8327  -15.8397 N   0  0  0  0  0  0  0  0  0  0  0  0
   21.6699   -5.1587  -14.5810 C   0  0  0  0  0  0  0  0  0  0  0  0
   20.6072   -5.1062  -13.9152 O   0  0  0  0  0  0  0  0  0  0  0  0
   22.7515   -4.4655  -14.0749 O   0  0  0  0  0  0  0  0  0  0  0  0
  2  1  1  6
  2  7  1  0
  3  2  1  0
  4  3  1  0
  5  4  1  0
  6  5  2  0
  7  8  2  0
  9  5  1  0
 10 11  1  0
 10  7  1  0
 11 12  1  1
 12 13  1  0
 14 15  2  0
 14 11  1  0
 16 17  1  0
 17 19  1  0
 18 17  2  0
 19 20  1  0
 21 20  1  6
 21 23  1  0
 21 22  1  0
 22 14  1  0
 23 25  1  0
 24 23  2  0
M  END
$$$$
