ECQ.pdb
     RDKit          3D

 25 24  0  0  1  0  0  0  0  0999 V2000
   17.7518  -10.1179  -15.8135 N   0  0  0  0  0  0  0  0  0  0  0  0
   17.3882  -10.7387  -14.6030 C   0  0  1  0  0  0  0  0  0  0  0  0
   17.8774  -12.1395  -14.4520 C   0  0  0  0  0  0  0  0  0  0  0  0
   17.8739  -12.9408  -15.7007 C   0  0  0  0  0  0  0  0  0  0  0  0
   16.5658  -13.2952  -16.2145 C   0  0  0  0  0  0  0  0  0  0  0  0
   16.1098  -14.4282  -16.3943 O   0  0  0  0  0  0  0  0  0  0  0  0
   17.8511  -10.0103  -13.3820 C   0  0  0  0  0  0  0  0  0  0  0  0
   17.6530  -10.5143  -12.2239 O   0  0  0  0  0  0  0  0  0  0  0  0
   15.7005  -12.2362  -16.5534 O   0  0  0  0  0  0  0  0  0  0  0  0
   18.5148   -8.7686  -13.3781 N   0  0  0  0  0  0  0  0  0  0  0  0
   18.8701   -8.0690  -12.1754 C   0  0  1  0  0  0  0  0  0  0  0  0
   19.9517   -7.0514  -12.3479 C   0  0  0  0  0  0  0  0  0  0  0  0
   20.4525   -6.2819  -10.7920 S   0  0  0  0  0  0  0  0  0  0  0  0
   17.6789   -7.3846  -11.6222 C   0  0  0  0  0  0  0  0  0  0  0  0
   16.9126   -6.7107  -12.3715 O   0  0  0  0  0  0  0  0  0  0  0  0
   13.4492   -9.2260   -8.5032 N   0  0  0  0  0  0  0  0  0  0  0  0
   13.1804   -7.9066   -8.0241 C   0  0  0  0  0  0  0  0  0  0  0  0
   12.0375   -7.6234   -7.6051 O   0  0  0  0  0  0  0  0  0  0  0  0
   14.2998   -6.9340   -8.0560 C   0  0  0  0  0  0  0  0  0  0  0  0
   15.5863   -7.5053   -8.5636 C   0  0  0  0  0  0  0  0  0  0  0  0
   16.1257   -6.7808   -9.7687 C   0  0  2  0  0  0  0  0  0  0  0  0
   17.3414   -7.4491  -10.2435 N   0  0  0  0  0  0  0  0  0  0  0  0
   16.4655   -5.3979   -9.3730 C   0  0  0  0  0  0  0  0  0  0  0  0
   15.5473   -4.5426   -9.3428 O   0  0  0  0  0  0  0  0  0  0  0  0
   17.7287   -4.9615   -9.0261 O   0  0  0  0  0  0  0  0  0  0  0  0
  2  1  1  6
  2  7  1  0
  3  2  1  0
  4  3  1  0
  5  4  1  0
  6  5  2  0
  7  8  2  0
  9  5  1  0
 10 11  1  0
 10  7  1  0
 11 12  1  6
 12 13  1  0
 14 15  2  0
 14 11  1  0
 16 17  1  0
 17 19  1  0
 18 17  2  0
 19 20  1  0
 21 20  1  1
 21 23  1  0
 21 22  1  0
 22 14  1  0
 23 25  1  0
 24 23  2  0
M  END
$$$$
