ECQ.pdb
     RDKit          3D

 25 24  0  0  1  0  0  0  0  0999 V2000
   13.3936   -9.9007   -9.9727 N   0  0  0  0  0  0  0  0  0  0  0  0
   14.7811   -9.9146  -10.2124 C   0  0  1  0  0  0  0  0  0  0  0  0
   15.2012  -10.7423  -11.3799 C   0  0  0  0  0  0  0  0  0  0  0  0
   14.9477  -12.1973  -11.2380 C   0  0  0  0  0  0  0  0  0  0  0  0
   15.4478  -13.0287  -12.3148 C   0  0  0  0  0  0  0  0  0  0  0  0
   16.4531  -13.7452  -12.3075 O   0  0  0  0  0  0  0  0  0  0  0  0
   15.3739   -8.5604  -10.4371 C   0  0  0  0  0  0  0  0  0  0  0  0
   14.8535   -7.7698  -11.2964 O   0  0  0  0  0  0  0  0  0  0  0  0
   14.7139  -13.0319  -13.5175 O   0  0  0  0  0  0  0  0  0  0  0  0
   16.4986   -8.0433   -9.7663 N   0  0  0  0  0  0  0  0  0  0  0  0
   17.0401   -6.7389  -10.0263 C   0  0  1  0  0  0  0  0  0  0  0  0
   17.0242   -5.8163   -8.8500 C   0  0  0  0  0  0  0  0  0  0  0  0
   15.3614   -5.5151   -8.2109 S   0  0  0  0  0  0  0  0  0  0  0  0
   18.4393   -6.8608  -10.4961 C   0  0  0  0  0  0  0  0  0  0  0  0
   19.3089   -7.4557   -9.7942 O   0  0  0  0  0  0  0  0  0  0  0  0
   20.6155   -8.8145  -15.6718 N   0  0  0  0  0  0  0  0  0  0  0  0
   21.8354   -8.2889  -15.1442 C   0  0  0  0  0  0  0  0  0  0  0  0
   22.9179   -8.5583  -15.7077 O   0  0  0  0  0  0  0  0  0  0  0  0
   21.7378   -7.4384  -13.9329 C   0  0  0  0  0  0  0  0  0  0  0  0
   20.3601   -7.3621  -13.3539 C   0  0  0  0  0  0  0  0  0  0  0  0
   20.2718   -6.4741  -12.1408 C   0  0  2  0  0  0  0  0  0  0  0  0
   18.8695   -6.3242  -11.7394 N   0  0  0  0  0  0  0  0  0  0  0  0
   20.8122   -5.1439  -12.4913 C   0  0  0  0  0  0  0  0  0  0  0  0
   20.0064   -4.2405  -12.8232 O   0  0  0  0  0  0  0  0  0  0  0  0
   22.1508   -4.8056  -12.4821 O   0  0  0  0  0  0  0  0  0  0  0  0
  2  1  1  6
  2  7  1  0
  3  2  1  0
  4  3  1  0
  5  4  1  0
  6  5  2  0
  7  8  2  0
  9  5  1  0
 10 11  1  0
 10  7  1  0
 11 12  1  1
 12 13  1  0
 14 15  2  0
 14 11  1  0
 16 17  1  0
 17 19  1  0
 18 17  2  0
 19 20  1  0
 21 20  1  6
 21 23  1  0
 21 22  1  0
 22 14  1  0
 23 25  1  0
 24 23  2  0
M  END
$$$$
