ECQ.pdb
     RDKit          3D

 25 24  0  0  1  0  0  0  0  0999 V2000
   23.3377  -12.8339  -18.8425 N   0  0  0  0  0  0  0  0  0  0  0  0
   22.3142  -12.1252  -18.1844 C   0  0  1  0  0  0  0  0  0  0  0  0
   21.2716  -12.9842  -17.5523 C   0  0  0  0  0  0  0  0  0  0  0  0
   21.1157  -14.3282  -18.1610 C   0  0  0  0  0  0  0  0  0  0  0  0
   21.6657  -15.4302  -17.3968 C   0  0  0  0  0  0  0  0  0  0  0  0
   22.8565  -15.6862  -17.1959 O   0  0  0  0  0  0  0  0  0  0  0  0
   22.8021  -11.2132  -17.1046 C   0  0  0  0  0  0  0  0  0  0  0  0
   22.0341  -10.9107  -16.1284 O   0  0  0  0  0  0  0  0  0  0  0  0
   20.7492  -16.3233  -16.8073 O   0  0  0  0  0  0  0  0  0  0  0  0
   24.0813  -10.6275  -17.0508 N   0  0  0  0  0  0  0  0  0  0  0  0
   24.4696   -9.6736  -16.0501 C   0  0  1  0  0  0  0  0  0  0  0  0
   25.9418   -9.4259  -15.9692 C   0  0  0  0  0  0  0  0  0  0  0  0
   26.8961  -10.9309  -15.6720 S   0  0  0  0  0  0  0  0  0  0  0  0
   23.7987   -8.3780  -16.3042 C   0  0  0  0  0  0  0  0  0  0  0  0
   23.6027   -7.9710  -17.4870 O   0  0  0  0  0  0  0  0  0  0  0  0
   18.7754   -7.2094  -17.1703 N   0  0  0  0  0  0  0  0  0  0  0  0
   19.0887   -5.8220  -17.0302 C   0  0  0  0  0  0  0  0  0  0  0  0
   18.2470   -4.9623  -17.3685 O   0  0  0  0  0  0  0  0  0  0  0  0
   20.4237   -5.4819  -16.4805 C   0  0  0  0  0  0  0  0  0  0  0  0
   21.2834   -6.6725  -16.1936 C   0  0  0  0  0  0  0  0  0  0  0  0
   22.6071   -6.3155  -15.5703 C   0  0  2  0  0  0  0  0  0  0  0  0
   23.3481   -7.5395  -15.2494 N   0  0  0  0  0  0  0  0  0  0  0  0
   22.3523   -5.5707  -14.3194 C   0  0  0  0  0  0  0  0  0  0  0  0
   22.0435   -4.3568  -14.3994 O   0  0  0  0  0  0  0  0  0  0  0  0
   22.4248   -6.1079  -13.0495 O   0  0  0  0  0  0  0  0  0  0  0  0
  2  1  1  1
  2  7  1  0
  3  2  1  0
  4  3  1  0
  5  4  1  0
  6  5  2  0
  7  8  2  0
  9  5  1  0
 10 11  1  0
 10  7  1  0
 11 12  1  6
 12 13  1  0
 14 15  2  0
 14 11  1  0
 16 17  1  0
 17 19  1  0
 18 17  2  0
 19 20  1  0
 21 20  1  1
 21 23  1  0
 21 22  1  0
 22 14  1  0
 23 25  1  0
 24 23  2  0
M  END
$$$$
