ECQ.pdb
     RDKit          3D

 25 24  0  0  1  0  0  0  0  0999 V2000
   28.6359  -27.2825  -20.9529 N   0  0  0  0  0  0  0  0  0  0  0  0
   27.7948  -28.2019  -20.2969 C   0  0  1  0  0  0  0  0  0  0  0  0
   27.2607  -29.2870  -21.1697 C   0  0  0  0  0  0  0  0  0  0  0  0
   26.2821  -28.8419  -22.1923 C   0  0  0  0  0  0  0  0  0  0  0  0
   25.3916  -29.8684  -22.6966 C   0  0  0  0  0  0  0  0  0  0  0  0
   25.3209  -31.0468  -22.3356 O   0  0  0  0  0  0  0  0  0  0  0  0
   28.4346  -28.8904  -19.1341 C   0  0  0  0  0  0  0  0  0  0  0  0
   29.3592  -29.7511  -19.3310 O   0  0  0  0  0  0  0  0  0  0  0  0
   24.4954  -29.4959  -23.7179 O   0  0  0  0  0  0  0  0  0  0  0  0
   28.1078  -28.6763  -17.7815 N   0  0  0  0  0  0  0  0  0  0  0  0
   28.8130  -29.2935  -16.6933 C   0  0  1  0  0  0  0  0  0  0  0  0
   29.3418  -28.3348  -15.6754 C   0  0  0  0  0  0  0  0  0  0  0  0
   29.3332  -26.6210  -16.2473 S   0  0  0  0  0  0  0  0  0  0  0  0
   27.9250  -30.2556  -16.0012 C   0  0  0  0  0  0  0  0  0  0  0  0
   26.6662  -30.1335  -16.0599 O   0  0  0  0  0  0  0  0  0  0  0  0
   26.4569  -35.2360  -17.1783 N   0  0  0  0  0  0  0  0  0  0  0  0
   25.6070  -35.1712  -16.0311 C   0  0  0  0  0  0  0  0  0  0  0  0
   24.8441  -36.1271  -15.7738 O   0  0  0  0  0  0  0  0  0  0  0  0
   25.6848  -33.9452  -15.1998 C   0  0  0  0  0  0  0  0  0  0  0  0
   26.6404  -32.9182  -15.7205 C   0  0  0  0  0  0  0  0  0  0  0  0
   27.4987  -32.3038  -14.6463 C   0  0  2  0  0  0  0  0  0  0  0  0
   28.4336  -31.3477  -15.2477 N   0  0  0  0  0  0  0  0  0  0  0  0
   28.2723  -33.3788  -13.9903 C   0  0  0  0  0  0  0  0  0  0  0  0
   29.4209  -33.6385  -14.4249 O   0  0  0  0  0  0  0  0  0  0  0  0
   27.8310  -34.1322  -12.9207 O   0  0  0  0  0  0  0  0  0  0  0  0
  2  1  1  6
  2  7  1  0
  3  2  1  0
  4  3  1  0
  5  4  1  0
  6  5  2  0
  7  8  2  0
  9  5  1  0
 10 11  1  0
 10  7  1  0
 11 12  1  1
 12 13  1  0
 14 15  2  0
 14 11  1  0
 16 17  1  0
 17 19  1  0
 18 17  2  0
 19 20  1  0
 21 20  1  6
 21 23  1  0
 21 22  1  0
 22 14  1  0
 23 25  1  0
 24 23  2  0
M  END
$$$$
