ECQ.pdb
     RDKit          3D

 25 24  0  0  1  0  0  0  0  0999 V2000
   28.4572  -18.8607  -14.8882 N   0  0  0  0  0  0  0  0  0  0  0  0
   27.1798  -19.1927  -15.3793 C   0  0  1  0  0  0  0  0  0  0  0  0
   27.1842  -19.9042  -16.6900 C   0  0  0  0  0  0  0  0  0  0  0  0
   28.5296  -20.1360  -17.2710 C   0  0  0  0  0  0  0  0  0  0  0  0
   28.8219  -21.5044  -17.6490 C   0  0  0  0  0  0  0  0  0  0  0  0
   28.6935  -22.0210  -18.7628 O   0  0  0  0  0  0  0  0  0  0  0  0
   26.3744  -20.0468  -14.4533 C   0  0  0  0  0  0  0  0  0  0  0  0
   25.4498  -20.7973  -14.9182 O   0  0  0  0  0  0  0  0  0  0  0  0
   29.3104  -22.3587  -16.6407 O   0  0  0  0  0  0  0  0  0  0  0  0
   26.5394  -20.1123  -13.0566 N   0  0  0  0  0  0  0  0  0  0  0  0
   25.6715  -20.8653  -12.1952 C   0  0  1  0  0  0  0  0  0  0  0  0
   26.0992  -20.9002  -10.7630 C   0  0  0  0  0  0  0  0  0  0  0  0
   24.7286  -21.1949   -9.6234 S   0  0  0  0  0  0  0  0  0  0  0  0
   24.3007  -20.3078  -12.2522 C   0  0  0  0  0  0  0  0  0  0  0  0
   24.0964  -19.0708  -12.0763 O   0  0  0  0  0  0  0  0  0  0  0  0
   20.7307  -20.0916  -16.6490 N   0  0  0  0  0  0  0  0  0  0  0  0
   19.8656  -19.4441  -15.7136 C   0  0  0  0  0  0  0  0  0  0  0  0
   18.7980  -18.9317  -16.1132 O   0  0  0  0  0  0  0  0  0  0  0  0
   20.2995  -19.4194  -14.2955 C   0  0  0  0  0  0  0  0  0  0  0  0
   21.6391  -20.0430  -14.0595 C   0  0  0  0  0  0  0  0  0  0  0  0
   21.8450  -20.4925  -12.6369 C   0  0  2  0  0  0  0  0  0  0  0  0
   23.1630  -21.1211  -12.5035 N   0  0  0  0  0  0  0  0  0  0  0  0
   20.8057  -21.4890  -12.3036 C   0  0  0  0  0  0  0  0  0  0  0  0
   21.0478  -22.7009  -12.5231 O   0  0  0  0  0  0  0  0  0  0  0  0
   19.5712  -21.1938  -11.7601 O   0  0  0  0  0  0  0  0  0  0  0  0
  2  1  1  1
  2  7  1  0
  3  2  1  0
  4  3  1  0
  5  4  1  0
  6  5  2  0
  7  8  2  0
  9  5  1  0
 10 11  1  0
 10  7  1  0
 11 12  1  1
 12 13  1  0
 14 15  2  0
 14 11  1  0
 16 17  1  0
 17 19  1  0
 18 17  2  0
 19 20  1  0
 21 20  1  6
 21 23  1  0
 21 22  1  0
 22 14  1  0
 23 25  1  0
 24 23  2  0
M  END
$$$$
