ECQ.pdb
     RDKit          3D

 25 24  0  0  1  0  0  0  0  0999 V2000
   20.1103  -13.7498  -18.7255 N   0  0  0  0  0  0  0  0  0  0  0  0
   19.2780  -13.5318  -17.6108 C   0  0  1  0  0  0  0  0  0  0  0  0
   19.1728  -14.6910  -16.6783 C   0  0  0  0  0  0  0  0  0  0  0  0
   18.8416  -15.9849  -17.3244 C   0  0  0  0  0  0  0  0  0  0  0  0
   18.8327  -17.1392  -16.4479 C   0  0  0  0  0  0  0  0  0  0  0  0
   17.8568  -17.6612  -15.9011 O   0  0  0  0  0  0  0  0  0  0  0  0
   19.6822  -12.3647  -16.7680 C   0  0  0  0  0  0  0  0  0  0  0  0
   18.9548  -12.0088  -15.7787 O   0  0  0  0  0  0  0  0  0  0  0  0
   20.0734  -17.7496  -16.1773 O   0  0  0  0  0  0  0  0  0  0  0  0
   20.8366  -11.5824  -16.9617 N   0  0  0  0  0  0  0  0  0  0  0  0
   21.1988  -10.4872  -16.1063 C   0  0  1  0  0  0  0  0  0  0  0  0
   22.6549  -10.4162  -15.7748 C   0  0  0  0  0  0  0  0  0  0  0  0
   23.0784   -8.9858  -14.7556 S   0  0  0  0  0  0  0  0  0  0  0  0
   20.8081   -9.2062  -16.7383 C   0  0  0  0  0  0  0  0  0  0  0  0
   21.1402   -8.9446  -17.9317 O   0  0  0  0  0  0  0  0  0  0  0  0
   16.0463   -5.4721  -15.2063 N   0  0  0  0  0  0  0  0  0  0  0  0
   16.0078   -6.0131  -16.5286 C   0  0  0  0  0  0  0  0  0  0  0  0
   14.9253   -6.0406  -17.1525 O   0  0  0  0  0  0  0  0  0  0  0  0
   17.2838   -6.5203  -17.0895 C   0  0  0  0  0  0  0  0  0  0  0  0
   18.4477   -6.3993  -16.1570 C   0  0  0  0  0  0  0  0  0  0  0  0
   19.7254   -6.9611  -16.7225 C   0  0  2  0  0  0  0  0  0  0  0  0
   20.0523   -8.2211  -16.0475 N   0  0  0  0  0  0  0  0  0  0  0  0
   20.8143   -5.9924  -16.4770 C   0  0  0  0  0  0  0  0  0  0  0  0
   21.4176   -6.0380  -15.3773 O   0  0  0  0  0  0  0  0  0  0  0  0
   21.2316   -5.0270  -17.3716 O   0  0  0  0  0  0  0  0  0  0  0  0
  2  1  1  6
  2  7  1  0
  3  2  1  0
  4  3  1  0
  5  4  1  0
  6  5  2  0
  7  8  2  0
  9  5  1  0
 10 11  1  0
 10  7  1  0
 11 12  1  6
 12 13  1  0
 14 15  2  0
 14 11  1  0
 16 17  1  0
 17 19  1  0
 18 17  2  0
 19 20  1  0
 21 20  1  1
 21 23  1  0
 21 22  1  0
 22 14  1  0
 23 25  1  0
 24 23  2  0
M  END
$$$$
