ECQ.pdb
     RDKit          3D

 25 24  0  0  1  0  0  0  0  0999 V2000
   18.5086  -12.9733  -15.5799 N   0  0  0  0  0  0  0  0  0  0  0  0
   17.9207  -11.6993  -15.6989 C   0  0  1  0  0  0  0  0  0  0  0  0
   16.4303  -11.7060  -15.7549 C   0  0  0  0  0  0  0  0  0  0  0  0
   15.8529  -12.3575  -16.9564 C   0  0  0  0  0  0  0  0  0  0  0  0
   14.4087  -12.3021  -17.0666 C   0  0  0  0  0  0  0  0  0  0  0  0
   13.6122  -11.7973  -16.2699 O   0  0  0  0  0  0  0  0  0  0  0  0
   18.2840  -10.7556  -14.5974 C   0  0  0  0  0  0  0  0  0  0  0  0
   18.2299  -11.1432  -13.3803 O   0  0  0  0  0  0  0  0  0  0  0  0
   13.8290  -12.8876  -18.2095 O   0  0  0  0  0  0  0  0  0  0  0  0
   18.7001   -9.4221  -14.7728 N   0  0  0  0  0  0  0  0  0  0  0  0
   19.0620   -8.5599  -13.6829 C   0  0  1  0  0  0  0  0  0  0  0  0
   20.1989   -7.6346  -13.9769 C   0  0  0  0  0  0  0  0  0  0  0  0
   20.5897   -6.5350  -12.5977 S   0  0  0  0  0  0  0  0  0  0  0  0
   17.8949   -7.7414  -13.2814 C   0  0  0  0  0  0  0  0  0  0  0  0
   17.1476   -7.2073  -14.1528 O   0  0  0  0  0  0  0  0  0  0  0  0
   15.3362   -6.9849   -7.5057 N   0  0  0  0  0  0  0  0  0  0  0  0
   14.5960   -6.0348   -8.2751 C   0  0  0  0  0  0  0  0  0  0  0  0
   13.6944   -5.3652   -7.7268 O   0  0  0  0  0  0  0  0  0  0  0  0
   14.9516   -5.9011   -9.7089 C   0  0  0  0  0  0  0  0  0  0  0  0
   16.0390   -6.8277  -10.1538 C   0  0  0  0  0  0  0  0  0  0  0  0
   16.4460   -6.6235  -11.5893 C   0  0  2  0  0  0  0  0  0  0  0  0
   17.5604   -7.5177  -11.9187 N   0  0  0  0  0  0  0  0  0  0  0  0
   16.8917   -5.2244  -11.7572 C   0  0  0  0  0  0  0  0  0  0  0  0
   18.1208   -4.9775  -11.6941 O   0  0  0  0  0  0  0  0  0  0  0  0
   16.0559   -4.1489  -11.9833 O   0  0  0  0  0  0  0  0  0  0  0  0
  2  1  1  1
  2  7  1  0
  3  2  1  0
  4  3  1  0
  5  4  1  0
  6  5  2  0
  7  8  2  0
  9  5  1  0
 10 11  1  0
 10  7  1  0
 11 12  1  6
 12 13  1  0
 14 15  2  0
 14 11  1  0
 16 17  1  0
 17 19  1  0
 18 17  2  0
 19 20  1  0
 21 20  1  1
 21 23  1  0
 21 22  1  0
 22 14  1  0
 23 25  1  0
 24 23  2  0
M  END
$$$$
