ECQ.pdb
     RDKit          3D

 25 24  0  0  1  0  0  0  0  0999 V2000
   17.2478  -12.5598  -14.0797 N   0  0  0  0  0  0  0  0  0  0  0  0
   16.1646  -11.9348  -14.7269 C   0  0  1  0  0  0  0  0  0  0  0  0
   14.9524  -12.7909  -14.8758 C   0  0  0  0  0  0  0  0  0  0  0  0
   14.7867  -13.8274  -13.8272 C   0  0  0  0  0  0  0  0  0  0  0  0
   13.6058  -14.6591  -13.9489 C   0  0  0  0  0  0  0  0  0  0  0  0
   13.3540  -15.4834  -14.8327 O   0  0  0  0  0  0  0  0  0  0  0  0
   15.6992  -10.6797  -14.0608 C   0  0  0  0  0  0  0  0  0  0  0  0
   14.8305   -9.9367  -14.6336 O   0  0  0  0  0  0  0  0  0  0  0  0
   12.6201  -14.5245  -12.9513 O   0  0  0  0  0  0  0  0  0  0  0  0
   16.1399  -10.2118  -12.8082 N   0  0  0  0  0  0  0  0  0  0  0  0
   15.6956   -8.9756  -12.2280 C   0  0  1  0  0  0  0  0  0  0  0  0
   14.4490   -9.0884  -11.4105 C   0  0  0  0  0  0  0  0  0  0  0  0
   14.5236  -10.4162  -10.1876 S   0  0  0  0  0  0  0  0  0  0  0  0
   16.7612   -8.4139  -11.3664 C   0  0  0  0  0  0  0  0  0  0  0  0
   17.4242   -9.1591  -10.5867 O   0  0  0  0  0  0  0  0  0  0  0  0
   21.2534   -4.8844  -12.8653 N   0  0  0  0  0  0  0  0  0  0  0  0
   21.1519   -6.3100  -12.8677 C   0  0  0  0  0  0  0  0  0  0  0  0
   21.9524   -6.9842  -13.5507 O   0  0  0  0  0  0  0  0  0  0  0  0
   20.0779   -6.9132  -12.0415 C   0  0  0  0  0  0  0  0  0  0  0  0
   19.2445   -5.9127  -11.3043 C   0  0  0  0  0  0  0  0  0  0  0  0
   18.1472   -6.5392  -10.4848 C   0  0  2  0  0  0  0  0  0  0  0  0
   17.0880   -7.0311  -11.3715 N   0  0  0  0  0  0  0  0  0  0  0  0
   17.5800   -5.5075   -9.5914 C   0  0  0  0  0  0  0  0  0  0  0  0
   16.5103   -4.9456   -9.9312 O   0  0  0  0  0  0  0  0  0  0  0  0
   18.1364   -5.1048   -8.3935 O   0  0  0  0  0  0  0  0  0  0  0  0
  2  1  1  1
  2  7  1  0
  3  2  1  0
  4  3  1  0
  5  4  1  0
  6  5  2  0
  7  8  2  0
  9  5  1  0
 10 11  1  0
 10  7  1  0
 11 12  1  1
 12 13  1  0
 14 15  2  0
 14 11  1  0
 16 17  1  0
 17 19  1  0
 18 17  2  0
 19 20  1  0
 21 20  1  6
 21 23  1  0
 21 22  1  0
 22 14  1  0
 23 25  1  0
 24 23  2  0
M  END
$$$$
