ECQ.pdb
     RDKit          3D

 25 24  0  0  1  0  0  0  0  0999 V2000
   13.5173  -12.9677  -11.8726 N   0  0  0  0  0  0  0  0  0  0  0  0
   14.7562  -12.3242  -11.6887 C   0  0  1  0  0  0  0  0  0  0  0  0
   15.6965  -12.4467  -12.8399 C   0  0  0  0  0  0  0  0  0  0  0  0
   15.9885  -13.8385  -13.2630 C   0  0  0  0  0  0  0  0  0  0  0  0
   16.8252  -13.9738  -14.4388 C   0  0  0  0  0  0  0  0  0  0  0  0
   17.8926  -14.5863  -14.5363 O   0  0  0  0  0  0  0  0  0  0  0  0
   14.6458  -10.8602  -11.4052 C   0  0  0  0  0  0  0  0  0  0  0  0
   14.0499  -10.0919  -12.2353 O   0  0  0  0  0  0  0  0  0  0  0  0
   16.3846  -13.3390  -15.6169 O   0  0  0  0  0  0  0  0  0  0  0  0
   15.1541  -10.2121  -10.2634 N   0  0  0  0  0  0  0  0  0  0  0  0
   15.0020   -8.8045  -10.0231 C   0  0  1  0  0  0  0  0  0  0  0  0
   14.1549   -8.4667   -8.8385 C   0  0  0  0  0  0  0  0  0  0  0  0
   12.5997   -9.3852   -8.7971 S   0  0  0  0  0  0  0  0  0  0  0  0
   16.3316   -8.1816   -9.8302 C   0  0  0  0  0  0  0  0  0  0  0  0
   17.3037   -8.8559   -9.3791 O   0  0  0  0  0  0  0  0  0  0  0  0
   20.3890   -8.1685  -13.0347 N   0  0  0  0  0  0  0  0  0  0  0  0
   21.0015   -7.1167  -12.2855 C   0  0  0  0  0  0  0  0  0  0  0  0
   22.1938   -6.8149  -12.5072 O   0  0  0  0  0  0  0  0  0  0  0  0
   20.1648   -6.4346  -11.2683 C   0  0  0  0  0  0  0  0  0  0  0  0
   18.7885   -7.0058  -11.1319 C   0  0  0  0  0  0  0  0  0  0  0  0
   17.9537   -6.3072  -10.0911 C   0  0  2  0  0  0  0  0  0  0  0  0
   16.5795   -6.8166  -10.1369 N   0  0  0  0  0  0  0  0  0  0  0  0
   17.9365   -4.8610  -10.3952 C   0  0  0  0  0  0  0  0  0  0  0  0
   16.9876   -4.4058  -11.0793 O   0  0  0  0  0  0  0  0  0  0  0  0
   18.8914   -3.9536   -9.9814 O   0  0  0  0  0  0  0  0  0  0  0  0
  2  1  1  6
  2  7  1  0
  3  2  1  0
  4  3  1  0
  5  4  1  0
  6  5  2  0
  7  8  2  0
  9  5  1  0
 10 11  1  0
 10  7  1  0
 11 12  1  1
 12 13  1  0
 14 15  2  0
 14 11  1  0
 16 17  1  0
 17 19  1  0
 18 17  2  0
 19 20  1  0
 21 20  1  6
 21 23  1  0
 21 22  1  0
 22 14  1  0
 23 25  1  0
 24 23  2  0
M  END
$$$$
