ECQ.pdb
     RDKit          3D

 25 24  0  0  1  0  0  0  0  0999 V2000
   16.9354  -13.1194  -15.9190 N   0  0  0  0  0  0  0  0  0  0  0  0
   18.3337  -13.1669  -15.7592 C   0  0  1  0  0  0  0  0  0  0  0  0
   18.9772  -14.4046  -16.2868 C   0  0  0  0  0  0  0  0  0  0  0  0
   18.2131  -15.6547  -16.0531 C   0  0  0  0  0  0  0  0  0  0  0  0
   18.7901  -16.8575  -16.6199 C   0  0  0  0  0  0  0  0  0  0  0  0
   19.8814  -16.9742  -17.1851 O   0  0  0  0  0  0  0  0  0  0  0  0
   19.0586  -12.0254  -16.3974 C   0  0  0  0  0  0  0  0  0  0  0  0
   20.3361  -11.9844  -16.3697 O   0  0  0  0  0  0  0  0  0  0  0  0
   18.0313  -18.0407  -16.5236 O   0  0  0  0  0  0  0  0  0  0  0  0
   18.4488  -10.9415  -17.0574 N   0  0  0  0  0  0  0  0  0  0  0  0
   19.1898   -9.8909  -17.6973 C   0  0  1  0  0  0  0  0  0  0  0  0
   18.7640   -9.5992  -19.1004 C   0  0  0  0  0  0  0  0  0  0  0  0
   16.9876   -9.3077  -19.2536 S   0  0  0  0  0  0  0  0  0  0  0  0
   19.0700   -8.6415  -16.9113 C   0  0  0  0  0  0  0  0  0  0  0  0
   18.0802   -8.4503  -16.1453 O   0  0  0  0  0  0  0  0  0  0  0  0
   23.3174   -5.4629  -13.9422 N   0  0  0  0  0  0  0  0  0  0  0  0
   22.2310   -4.5426  -13.8184 C   0  0  0  0  0  0  0  0  0  0  0  0
   22.3666   -3.5193  -13.1138 O   0  0  0  0  0  0  0  0  0  0  0  0
   20.9822   -4.8677  -14.5497 C   0  0  0  0  0  0  0  0  0  0  0  0
   21.0306   -6.1700  -15.2851 C   0  0  0  0  0  0  0  0  0  0  0  0
   19.8496   -6.3852  -16.1945 C   0  0  2  0  0  0  0  0  0  0  0  0
   20.0452   -7.6102  -16.9763 N   0  0  0  0  0  0  0  0  0  0  0  0
   19.7547   -5.2381  -17.1215 C   0  0  0  0  0  0  0  0  0  0  0  0
   20.1456   -5.3921  -18.3043 O   0  0  0  0  0  0  0  0  0  0  0  0
   19.2621   -3.9914  -16.7905 O   0  0  0  0  0  0  0  0  0  0  0  0
  2  1  1  6
  2  7  1  0
  3  2  1  0
  4  3  1  0
  5  4  1  0
  6  5  2  0
  7  8  2  0
  9  5  1  0
 10 11  1  0
 10  7  1  0
 11 12  1  6
 12 13  1  0
 14 15  2  0
 14 11  1  0
 16 17  1  0
 17 19  1  0
 18 17  2  0
 19 20  1  0
 21 20  1  1
 21 23  1  0
 21 22  1  0
 22 14  1  0
 23 25  1  0
 24 23  2  0
M  END
$$$$
