EAE.pdb
     RDKit          3D

 24 23  0  0  1  0  0  0  0  0999 V2000
   24.2327  -10.2222  -19.1114 N   0  0  0  0  0  0  0  0  0  0  0  0
   23.8048   -8.9198  -18.6756 C   0  0  1  0  0  0  0  0  0  0  0  0
   23.0558   -8.1911  -19.7518 C   0  0  0  0  0  0  0  0  0  0  0  0
   21.9034   -8.9202  -20.3365 C   0  0  0  0  0  0  0  0  0  0  0  0
   21.2940   -8.1741  -21.4523 C   0  0  0  0  0  0  0  0  0  0  0  0
   21.8989   -7.9356  -22.5116 O   0  0  0  0  0  0  0  0  0  0  0  0
   22.9268   -9.0620  -17.4670 C   0  0  0  0  0  0  0  0  0  0  0  0
   22.4120  -10.1772  -17.2076 O   0  0  0  0  0  0  0  0  0  0  0  0
   19.9720   -7.6994  -21.3409 O   0  0  0  0  0  0  0  0  0  0  0  0
   21.9888   -6.9427  -14.5507 C   0  0  0  0  0  0  0  0  0  0  0  0
   21.8875   -8.1496  -15.4354 C   0  0  2  0  0  0  0  0  0  0  0  0
   22.6806   -7.9578  -16.6304 N   0  0  0  0  0  0  0  0  0  0  0  0
   20.4603   -8.3462  -15.8502 C   0  0  0  0  0  0  0  0  0  0  0  0
   20.0253   -7.8644  -16.9356 O   0  0  0  0  0  0  0  0  0  0  0  0
   19.5654   -9.0712  -15.0444 N   0  0  0  0  0  0  0  0  0  0  0  0
   18.1753   -9.2098  -15.3995 C   0  0  1  0  0  0  0  0  0  0  0  0
   17.5923  -10.4915  -14.8481 C   0  0  0  0  0  0  0  0  0  0  0  0
   16.1384  -10.6727  -15.2408 C   0  0  0  0  0  0  0  0  0  0  0  0
   15.6338  -11.9185  -14.6348 C   0  0  0  0  0  0  0  0  0  0  0  0
   16.3435  -12.9456  -14.6257 O   0  0  0  0  0  0  0  0  0  0  0  0
   17.3820   -8.0911  -14.8174 C   0  0  0  0  0  0  0  0  0  0  0  0
   16.1976   -7.6520  -15.3729 O   0  0  0  0  0  0  0  0  0  0  0  0
   14.3705  -11.9371  -14.0786 O   0  0  0  0  0  0  0  0  0  0  0  0
   17.8012   -7.5308  -13.7927 O   0  0  0  0  0  0  0  0  0  0  0  0
  2  1  1  6
  2  7  1  0
  3  2  1  0
  4  3  1  0
  4  5  1  0
  5  6  2  0
  7 12  1  0
  8  7  2  0
  9  5  1  0
 11 10  1  1
 11 13  1  0
 12 11  1  0
 13 14  2  0
 13 15  1  0
 15 16  1  0
 16 17  1  1
 16 21  1  0
 18 17  1  0
 19 18  1  0
 20 19  2  0
 21 22  1  0
 23 19  1  0
 24 21  2  0
M  END
$$$$
