EAE.pdb
     RDKit          3D

 24 23  0  0  1  0  0  0  0  0999 V2000
   18.0513  -12.1940  -16.0977 N   0  0  0  0  0  0  0  0  0  0  0  0
   18.6748  -11.1140  -16.8145 C   0  0  1  0  0  0  0  0  0  0  0  0
   17.6610  -10.2058  -17.4450 C   0  0  0  0  0  0  0  0  0  0  0  0
   16.9150  -10.7775  -18.5932 C   0  0  0  0  0  0  0  0  0  0  0  0
   16.0509   -9.7724  -19.2383 C   0  0  0  0  0  0  0  0  0  0  0  0
   14.9741  -10.0639  -19.7865 O   0  0  0  0  0  0  0  0  0  0  0  0
   19.5354  -10.3225  -15.8739 C   0  0  0  0  0  0  0  0  0  0  0  0
   19.0405   -9.8859  -14.8060 O   0  0  0  0  0  0  0  0  0  0  0  0
   16.4366   -8.4173  -19.2491 O   0  0  0  0  0  0  0  0  0  0  0  0
   23.1371   -9.5255  -15.5015 C   0  0  0  0  0  0  0  0  0  0  0  0
   21.6765   -9.2816  -15.2636 C   0  0  2  0  0  0  0  0  0  0  0  0
   20.8847  -10.0700  -16.1830 N   0  0  0  0  0  0  0  0  0  0  0  0
   21.3664   -7.8347  -15.5043 C   0  0  0  0  0  0  0  0  0  0  0  0
   21.1071   -7.4088  -16.6666 O   0  0  0  0  0  0  0  0  0  0  0  0
   21.3553   -6.9106  -14.4452 N   0  0  0  0  0  0  0  0  0  0  0  0
   21.1305   -5.5054  -14.6742 C   0  0  1  0  0  0  0  0  0  0  0  0
   19.8177   -5.0538  -14.0747 C   0  0  0  0  0  0  0  0  0  0  0  0
   19.5425   -3.5864  -14.3426 C   0  0  0  0  0  0  0  0  0  0  0  0
   18.1968   -3.4546  -14.9305 C   0  0  0  0  0  0  0  0  0  0  0  0
   17.6426   -2.3374  -14.9884 O   0  0  0  0  0  0  0  0  0  0  0  0
   22.2009   -4.7004  -14.0216 C   0  0  0  0  0  0  0  0  0  0  0  0
   22.5843   -3.4585  -14.4854 O   0  0  0  0  0  0  0  0  0  0  0  0
   17.5573   -4.5778  -15.4154 O   0  0  0  0  0  0  0  0  0  0  0  0
   22.7713   -5.1631  -13.0215 O   0  0  0  0  0  0  0  0  0  0  0  0
  2  1  1  1
  2  7  1  0
  3  2  1  0
  4  3  1  0
  4  5  1  0
  5  6  2  0
  7 12  1  0
  8  7  2  0
  9  5  1  0
 11 10  1  6
 11 13  1  0
 12 11  1  0
 13 14  2  0
 13 15  1  0
 15 16  1  0
 16 17  1  1
 16 21  1  0
 18 17  1  0
 19 18  1  0
 20 19  2  0
 21 22  1  0
 23 19  1  0
 24 21  2  0
M  END
$$$$
