EAE.pdb
     RDKit          3D

 24 23  0  0  1  0  0  0  0  0999 V2000
   19.6299  -12.0966  -17.5395 N   0  0  0  0  0  0  0  0  0  0  0  0
   18.7341  -11.2775  -16.7676 C   0  0  1  0  0  0  0  0  0  0  0  0
   17.7619  -12.1052  -15.9804 C   0  0  0  0  0  0  0  0  0  0  0  0
   18.0189  -13.5665  -15.9786 C   0  0  0  0  0  0  0  0  0  0  0  0
   16.9534  -14.3079  -15.2799 C   0  0  0  0  0  0  0  0  0  0  0  0
   17.1798  -15.0690  -14.3237 O   0  0  0  0  0  0  0  0  0  0  0  0
   19.5288  -10.4168  -15.8298 C   0  0  0  0  0  0  0  0  0  0  0  0
   18.9269   -9.6681  -15.0216 O   0  0  0  0  0  0  0  0  0  0  0  0
   15.6133  -14.1672  -15.6917 O   0  0  0  0  0  0  0  0  0  0  0  0
   23.1241   -9.9917  -14.9385 C   0  0  0  0  0  0  0  0  0  0  0  0
   21.6673   -9.6365  -14.9034 C   0  0  2  0  0  0  0  0  0  0  0  0
   20.9354  -10.4460  -15.8536 N   0  0  0  0  0  0  0  0  0  0  0  0
   21.4949   -8.1976  -15.2872 C   0  0  0  0  0  0  0  0  0  0  0  0
   21.4772   -7.8451  -16.5016 O   0  0  0  0  0  0  0  0  0  0  0  0
   21.3483   -7.1997  -14.3082 N   0  0  0  0  0  0  0  0  0  0  0  0
   21.1606   -5.8159  -14.6657 C   0  0  1  0  0  0  0  0  0  0  0  0
   19.7302   -5.3795  -14.4414 C   0  0  0  0  0  0  0  0  0  0  0  0
   19.5123   -3.9250  -14.8128 C   0  0  0  0  0  0  0  0  0  0  0  0
   18.0945   -3.5853  -14.5924 C   0  0  0  0  0  0  0  0  0  0  0  0
   17.2967   -4.4530  -14.1814 O   0  0  0  0  0  0  0  0  0  0  0  0
   22.0153   -4.9439  -13.8121 C   0  0  0  0  0  0  0  0  0  0  0  0
   22.3652   -3.6598  -14.1769 O   0  0  0  0  0  0  0  0  0  0  0  0
   17.6596   -2.2997  -14.8452 O   0  0  0  0  0  0  0  0  0  0  0  0
   22.4299   -5.3879  -12.7301 O   0  0  0  0  0  0  0  0  0  0  0  0
  2  1  1  1
  2  7  1  0
  3  2  1  0
  4  3  1  0
  4  5  1  0
  5  6  2  0
  7 12  1  0
  8  7  2  0
  9  5  1  0
 11 10  1  6
 11 13  1  0
 12 11  1  0
 13 14  2  0
 13 15  1  0
 15 16  1  0
 16 17  1  1
 16 21  1  0
 18 17  1  0
 19 18  1  0
 20 19  2  0
 21 22  1  0
 23 19  1  0
 24 21  2  0
M  END
$$$$
