EAE.pdb
     RDKit          3D

 24 23  0  0  1  0  0  0  0  0999 V2000
   19.0386  -11.7189  -17.4571 N   0  0  0  0  0  0  0  0  0  0  0  0
   18.3907  -11.1697  -16.2962 C   0  0  1  0  0  0  0  0  0  0  0  0
   17.6710  -12.2246  -15.5092 C   0  0  0  0  0  0  0  0  0  0  0  0
   16.9050  -13.2108  -16.3105 C   0  0  0  0  0  0  0  0  0  0  0  0
   16.2840  -14.2420  -15.4596 C   0  0  0  0  0  0  0  0  0  0  0  0
   16.9486  -15.0370  -14.7732 O   0  0  0  0  0  0  0  0  0  0  0  0
   19.4139  -10.5070  -15.4210 C   0  0  0  0  0  0  0  0  0  0  0  0
   19.0464   -9.9478  -14.3589 O   0  0  0  0  0  0  0  0  0  0  0  0
   14.8807  -14.3543  -15.4027 O   0  0  0  0  0  0  0  0  0  0  0  0
   23.1135  -10.0885  -15.3612 C   0  0  0  0  0  0  0  0  0  0  0  0
   21.7034   -9.7089  -15.0190 C   0  0  2  0  0  0  0  0  0  0  0  0
   20.7732  -10.5104  -15.7847 N   0  0  0  0  0  0  0  0  0  0  0  0
   21.4751   -8.2691  -15.3686 C   0  0  0  0  0  0  0  0  0  0  0  0
   21.1868   -7.9237  -16.5506 O   0  0  0  0  0  0  0  0  0  0  0  0
   21.5752   -7.2624  -14.3928 N   0  0  0  0  0  0  0  0  0  0  0  0
   21.4196   -5.8694  -14.7293 C   0  0  1  0  0  0  0  0  0  0  0  0
   19.9714   -5.4421  -14.6450 C   0  0  0  0  0  0  0  0  0  0  0  0
   19.7877   -3.9764  -14.9901 C   0  0  0  0  0  0  0  0  0  0  0  0
   18.3563   -3.6389  -14.8846 C   0  0  0  0  0  0  0  0  0  0  0  0
   17.5217   -4.5219  -14.5980 O   0  0  0  0  0  0  0  0  0  0  0  0
   22.1754   -5.0203  -13.7662 C   0  0  0  0  0  0  0  0  0  0  0  0
   22.5995   -5.4861  -12.5385 O   0  0  0  0  0  0  0  0  0  0  0  0
   17.9497   -2.3384  -15.1057 O   0  0  0  0  0  0  0  0  0  0  0  0
   22.4346   -3.8477  -14.0786 O   0  0  0  0  0  0  0  0  0  0  0  0
  2  1  1  6
  2  7  1  0
  3  2  1  0
  4  3  1  0
  4  5  1  0
  5  6  2  0
  7 12  1  0
  8  7  2  0
  9  5  1  0
 11 10  1  6
 11 13  1  0
 12 11  1  0
 13 14  2  0
 13 15  1  0
 15 16  1  0
 16 17  1  1
 16 21  1  0
 18 17  1  0
 19 18  1  0
 20 19  2  0
 21 22  1  0
 23 19  1  0
 24 21  2  0
M  END
$$$$
