EAE.pdb
     RDKit          3D

 24 23  0  0  1  0  0  0  0  0999 V2000
   24.3698  -34.3230   -5.7777 N   0  0  0  0  0  0  0  0  0  0  0  0
   25.6930  -33.7592   -5.7995 C   0  0  1  0  0  0  0  0  0  0  0  0
   25.8589  -32.7717   -6.9164 C   0  0  0  0  0  0  0  0  0  0  0  0
   25.4456  -33.2481   -8.2595 C   0  0  0  0  0  0  0  0  0  0  0  0
   25.7254  -32.2467   -9.3044 C   0  0  0  0  0  0  0  0  0  0  0  0
   24.9226  -31.9840  -10.2162 O   0  0  0  0  0  0  0  0  0  0  0  0
   25.9671  -33.0801   -4.4897 C   0  0  0  0  0  0  0  0  0  0  0  0
   27.0857  -32.5440   -4.2963 O   0  0  0  0  0  0  0  0  0  0  0  0
   26.9459  -31.5428   -9.2941 O   0  0  0  0  0  0  0  0  0  0  0  0
   24.0231  -31.5851   -1.8155 C   0  0  0  0  0  0  0  0  0  0  0  0
   25.2545  -32.3132   -2.2662 C   0  0  2  0  0  0  0  0  0  0  0  0
   24.9821  -33.0429   -3.4857 N   0  0  0  0  0  0  0  0  0  0  0  0
   25.6639  -33.3001   -1.2145 C   0  0  0  0  0  0  0  0  0  0  0  0
   25.2152  -34.4825   -1.2210 O   0  0  0  0  0  0  0  0  0  0  0  0
   26.5578  -32.9390   -0.1916 N   0  0  0  0  0  0  0  0  0  0  0  0
   26.9053  -33.8576    0.8636 C   0  0  1  0  0  0  0  0  0  0  0  0
   28.0275  -33.3132    1.7187 C   0  0  0  0  0  0  0  0  0  0  0  0
   28.4857  -34.3130    2.7634 C   0  0  0  0  0  0  0  0  0  0  0  0
   29.5573  -33.7006    3.5699 C   0  0  0  0  0  0  0  0  0  0  0  0
   30.7223  -33.6399    3.1252 O   0  0  0  0  0  0  0  0  0  0  0  0
   25.7393  -34.0679    1.7669 C   0  0  0  0  0  0  0  0  0  0  0  0
   24.8928  -33.0434    2.1386 O   0  0  0  0  0  0  0  0  0  0  0  0
   29.2593  -33.1961    4.8198 O   0  0  0  0  0  0  0  0  0  0  0  0
   25.5191  -35.2084    2.2032 O   0  0  0  0  0  0  0  0  0  0  0  0
  2  1  1  1
  2  7  1  0
  3  2  1  0
  4  3  1  0
  4  5  1  0
  5  6  2  0
  7 12  1  0
  8  7  2  0
  9  5  1  0
 11 10  1  1
 11 13  1  0
 12 11  1  0
 13 14  2  0
 13 15  1  0
 15 16  1  0
 16 17  1  1
 16 21  1  0
 18 17  1  0
 19 18  1  0
 20 19  2  0
 21 22  1  0
 23 19  1  0
 24 21  2  0
M  END
$$$$
