EAE.pdb
     RDKit          3D

 24 23  0  0  1  0  0  0  0  0999 V2000
   15.7333  -13.2432  -14.9625 N   0  0  0  0  0  0  0  0  0  0  0  0
   16.0167  -12.0457  -15.7074 C   0  0  1  0  0  0  0  0  0  0  0  0
   15.3016  -10.8552  -15.1404 C   0  0  0  0  0  0  0  0  0  0  0  0
   13.8226  -10.8811  -15.2563 C   0  0  0  0  0  0  0  0  0  0  0  0
   13.2146   -9.6286  -14.7719 C   0  0  0  0  0  0  0  0  0  0  0  0
   12.7798   -9.4958  -13.6150 O   0  0  0  0  0  0  0  0  0  0  0  0
   17.4953  -11.7900  -15.6965 C   0  0  0  0  0  0  0  0  0  0  0  0
   18.1333  -11.9108  -14.6221 O   0  0  0  0  0  0  0  0  0  0  0  0
   13.1085   -8.5196  -15.6344 O   0  0  0  0  0  0  0  0  0  0  0  0
   20.2187  -11.4933  -18.1444 C   0  0  0  0  0  0  0  0  0  0  0  0
   19.5870  -11.1635  -16.8247 C   0  0  2  0  0  0  0  0  0  0  0  0
   18.1635  -11.4179  -16.8777 N   0  0  0  0  0  0  0  0  0  0  0  0
   19.7892   -9.7087  -16.5242 C   0  0  0  0  0  0  0  0  0  0  0  0
   18.8754   -8.8640  -16.7496 O   0  0  0  0  0  0  0  0  0  0  0  0
   21.0001   -9.2426  -15.9836 N   0  0  0  0  0  0  0  0  0  0  0  0
   21.2425   -7.8361  -15.7814 C   0  0  1  0  0  0  0  0  0  0  0  0
   22.4918   -7.6060  -14.9609 C   0  0  0  0  0  0  0  0  0  0  0  0
   22.8481   -6.1347  -14.8638 C   0  0  0  0  0  0  0  0  0  0  0  0
   22.1289   -5.5459  -13.7193 C   0  0  0  0  0  0  0  0  0  0  0  0
   22.0141   -6.1846  -12.6529 O   0  0  0  0  0  0  0  0  0  0  0  0
   21.4567   -7.1579  -17.0905 C   0  0  0  0  0  0  0  0  0  0  0  0
   21.0638   -5.8562  -17.3264 O   0  0  0  0  0  0  0  0  0  0  0  0
   21.5847   -4.2829  -13.8394 O   0  0  0  0  0  0  0  0  0  0  0  0
   22.0101   -7.7866  -18.0061 O   0  0  0  0  0  0  0  0  0  0  0  0
  2  1  1  1
  2  7  1  0
  3  2  1  0
  4  3  1  0
  4  5  1  0
  5  6  2  0
  7 12  1  0
  8  7  2  0
  9  5  1  0
 11 10  1  6
 11 13  1  0
 12 11  1  0
 13 14  2  0
 13 15  1  0
 15 16  1  0
 16 17  1  1
 16 21  1  0
 18 17  1  0
 19 18  1  0
 20 19  2  0
 21 22  1  0
 23 19  1  0
 24 21  2  0
M  END
$$$$
