EAE.pdb
     RDKit          3D

 24 23  0  0  1  0  0  0  0  0999 V2000
   14.2725  -12.9085   -9.9361 N   0  0  0  0  0  0  0  0  0  0  0  0
   15.1772  -12.5245  -10.9864 C   0  0  1  0  0  0  0  0  0  0  0  0
   14.7674  -13.0969  -12.3110 C   0  0  0  0  0  0  0  0  0  0  0  0
   14.3585  -14.5231  -12.2937 C   0  0  0  0  0  0  0  0  0  0  0  0
   14.8425  -15.2447  -13.4845 C   0  0  0  0  0  0  0  0  0  0  0  0
   15.9296  -14.9889  -14.0301 O   0  0  0  0  0  0  0  0  0  0  0  0
   15.2219  -11.0276  -11.0833 C   0  0  0  0  0  0  0  0  0  0  0  0
   15.8856  -10.4896  -12.0031 O   0  0  0  0  0  0  0  0  0  0  0  0
   14.0610  -16.2721  -14.0492 O   0  0  0  0  0  0  0  0  0  0  0  0
   13.6534   -8.1464   -9.3040 C   0  0  0  0  0  0  0  0  0  0  0  0
   14.5876   -8.7918  -10.2840 C   0  0  2  0  0  0  0  0  0  0  0  0
   14.5278  -10.2317  -10.1535 N   0  0  0  0  0  0  0  0  0  0  0  0
   15.9927   -8.3560   -9.9955 C   0  0  0  0  0  0  0  0  0  0  0  0
   16.6893   -8.9425   -9.1178 O   0  0  0  0  0  0  0  0  0  0  0  0
   16.5755   -7.2831  -10.6920 N   0  0  0  0  0  0  0  0  0  0  0  0
   17.8889   -6.7925  -10.3569 C   0  0  1  0  0  0  0  0  0  0  0  0
   18.8649   -7.0166  -11.4900 C   0  0  0  0  0  0  0  0  0  0  0  0
   20.2223   -6.4028  -11.2040 C   0  0  0  0  0  0  0  0  0  0  0  0
   21.1036   -6.6368  -12.3626 C   0  0  0  0  0  0  0  0  0  0  0  0
   21.1431   -7.7602  -12.9057 O   0  0  0  0  0  0  0  0  0  0  0  0
   17.8422   -5.3235  -10.1135 C   0  0  0  0  0  0  0  0  0  0  0  0
   18.7084   -4.6853   -9.2492 O   0  0  0  0  0  0  0  0  0  0  0  0
   21.8834   -5.6023  -12.8394 O   0  0  0  0  0  0  0  0  0  0  0  0
   16.9918   -4.6452  -10.7105 O   0  0  0  0  0  0  0  0  0  0  0  0
  2  1  1  1
  2  7  1  0
  3  2  1  0
  4  3  1  0
  4  5  1  0
  5  6  2  0
  7 12  1  0
  8  7  2  0
  9  5  1  0
 11 10  1  1
 11 13  1  0
 12 11  1  0
 13 14  2  0
 13 15  1  0
 15 16  1  0
 16 17  1  6
 16 21  1  0
 18 17  1  0
 19 18  1  0
 20 19  2  0
 21 22  1  0
 23 19  1  0
 24 21  2  0
M  END
$$$$
