EAE.pdb
     RDKit          3D

 24 23  0  0  1  0  0  0  0  0999 V2000
   27.3112  -33.9322    3.1541 N   0  0  0  0  0  0  0  0  0  0  0  0
   26.7473  -33.3576    4.3461 C   0  0  1  0  0  0  0  0  0  0  0  0
   26.9814  -34.2257    5.5469 C   0  0  0  0  0  0  0  0  0  0  0  0
   27.8799  -35.3869    5.3326 C   0  0  0  0  0  0  0  0  0  0  0  0
   28.0494  -36.1810    6.5629 C   0  0  0  0  0  0  0  0  0  0  0  0
   27.0890  -36.6412    7.2038 O   0  0  0  0  0  0  0  0  0  0  0  0
   27.3541  -32.0058    4.5833 C   0  0  0  0  0  0  0  0  0  0  0  0
   28.4406  -31.7123    4.0270 O   0  0  0  0  0  0  0  0  0  0  0  0
   29.3426  -36.4449    7.0562 O   0  0  0  0  0  0  0  0  0  0  0  0
   26.2817  -28.7011    5.2875 C   0  0  0  0  0  0  0  0  0  0  0  0
   27.3011  -29.7610    5.5825 C   0  0  2  0  0  0  0  0  0  0  0  0
   26.7142  -31.0738    5.4210 N   0  0  0  0  0  0  0  0  0  0  0  0
   27.7623  -29.6286    7.0028 C   0  0  0  0  0  0  0  0  0  0  0  0
   27.1660  -30.2329    7.9402 O   0  0  0  0  0  0  0  0  0  0  0  0
   28.8703  -28.8291    7.3327 N   0  0  0  0  0  0  0  0  0  0  0  0
   29.3088  -28.6760    8.6973 C   0  0  1  0  0  0  0  0  0  0  0  0
   30.6482  -27.9778    8.7692 C   0  0  0  0  0  0  0  0  0  0  0  0
   31.7538  -28.7965    8.1301 C   0  0  0  0  0  0  0  0  0  0  0  0
   33.0104  -28.0275    8.1903 C   0  0  0  0  0  0  0  0  0  0  0  0
   34.0176  -28.5115    8.7469 O   0  0  0  0  0  0  0  0  0  0  0  0
   28.3429  -27.8329    9.4562 C   0  0  0  0  0  0  0  0  0  0  0  0
   28.4399  -27.6343   10.8183 O   0  0  0  0  0  0  0  0  0  0  0  0
   33.0611  -26.7688    7.6258 O   0  0  0  0  0  0  0  0  0  0  0  0
   27.4139  -27.2869    8.8409 O   0  0  0  0  0  0  0  0  0  0  0  0
  2  1  1  6
  2  7  1  0
  3  2  1  0
  4  3  1  0
  4  5  1  0
  5  6  2  0
  7 12  1  0
  8  7  2  0
  9  5  1  0
 11 10  1  1
 11 13  1  0
 12 11  1  0
 13 14  2  0
 13 15  1  0
 15 16  1  0
 16 17  1  6
 16 21  1  0
 18 17  1  0
 19 18  1  0
 20 19  2  0
 21 22  1  0
 23 19  1  0
 24 21  2  0
M  END
$$$$
