EAE.pdb
     RDKit          3D

 24 23  0  0  1  0  0  0  0  0999 V2000
   19.7764  -11.8467  -17.4199 N   0  0  0  0  0  0  0  0  0  0  0  0
   18.9991  -11.1651  -16.4198 C   0  0  1  0  0  0  0  0  0  0  0  0
   18.1595  -12.1185  -15.6221 C   0  0  0  0  0  0  0  0  0  0  0  0
   17.4062  -13.1238  -16.4117 C   0  0  0  0  0  0  0  0  0  0  0  0
   16.0314  -13.2955  -15.9081 C   0  0  0  0  0  0  0  0  0  0  0  0
   15.0989  -12.5384  -16.2275 O   0  0  0  0  0  0  0  0  0  0  0  0
   19.9178  -10.4189  -15.4973 C   0  0  0  0  0  0  0  0  0  0  0  0
   19.4307   -9.7311  -14.5669 O   0  0  0  0  0  0  0  0  0  0  0  0
   15.7331  -14.3534  -15.0266 O   0  0  0  0  0  0  0  0  0  0  0  0
   23.5944  -10.0925  -14.9843 C   0  0  0  0  0  0  0  0  0  0  0  0
   22.1622   -9.6760  -14.8259 C   0  0  2  0  0  0  0  0  0  0  0  0
   21.3125  -10.4872  -15.6708 N   0  0  0  0  0  0  0  0  0  0  0  0
   22.0088   -8.2455  -15.2474 C   0  0  0  0  0  0  0  0  0  0  0  0
   21.7921   -7.9423  -16.4559 O   0  0  0  0  0  0  0  0  0  0  0  0
   22.1017   -7.2010  -14.3114 N   0  0  0  0  0  0  0  0  0  0  0  0
   21.8669   -5.8295  -14.6879 C   0  0  1  0  0  0  0  0  0  0  0  0
   20.3994   -5.5749  -14.9494 C   0  0  0  0  0  0  0  0  0  0  0  0
   20.1270   -4.1276  -15.3130 C   0  0  0  0  0  0  0  0  0  0  0  0
   18.6754   -3.9495  -15.5003 C   0  0  0  0  0  0  0  0  0  0  0  0
   18.1406   -2.8480  -15.2570 O   0  0  0  0  0  0  0  0  0  0  0  0
   22.2715   -4.9164  -13.5824 C   0  0  0  0  0  0  0  0  0  0  0  0
   22.4939   -3.5682  -13.7756 O   0  0  0  0  0  0  0  0  0  0  0  0
   17.9154   -5.0118  -15.9468 O   0  0  0  0  0  0  0  0  0  0  0  0
   22.4148   -5.3847  -12.4423 O   0  0  0  0  0  0  0  0  0  0  0  0
  2  1  1  6
  2  7  1  0
  3  2  1  0
  4  3  1  0
  4  5  1  0
  5  6  2  0
  7 12  1  0
  8  7  2  0
  9  5  1  0
 11 10  1  6
 11 13  1  0
 12 11  1  0
 13 14  2  0
 13 15  1  0
 15 16  1  0
 16 17  1  1
 16 21  1  0
 18 17  1  0
 19 18  1  0
 20 19  2  0
 21 22  1  0
 23 19  1  0
 24 21  2  0
M  END
$$$$
