EAE.pdb
     RDKit          3D

 24 23  0  0  1  0  0  0  0  0999 V2000
   15.7738  -11.1506  -10.0732 N   0  0  0  0  0  0  0  0  0  0  0  0
   15.4370  -10.5200  -11.3214 C   0  0  1  0  0  0  0  0  0  0  0  0
   14.0378  -10.8484  -11.7512 C   0  0  0  0  0  0  0  0  0  0  0  0
   13.3111  -11.8104  -10.8863 C   0  0  0  0  0  0  0  0  0  0  0  0
   11.9651  -11.3218  -10.5364 C   0  0  0  0  0  0  0  0  0  0  0  0
   11.5030  -10.2536  -10.9727 O   0  0  0  0  0  0  0  0  0  0  0  0
   15.5790   -9.0325  -11.1829 C   0  0  0  0  0  0  0  0  0  0  0  0
   15.2368   -8.2898  -12.1354 O   0  0  0  0  0  0  0  0  0  0  0  0
   11.1461  -12.0765   -9.6734 O   0  0  0  0  0  0  0  0  0  0  0  0
   15.8443   -6.6166   -8.4714 C   0  0  0  0  0  0  0  0  0  0  0  0
   16.1577   -7.0318   -9.8782 C   0  0  2  0  0  0  0  0  0  0  0  0
   16.0907   -8.4723   -9.9979 N   0  0  0  0  0  0  0  0  0  0  0  0
   17.5501   -6.5996  -10.2278 C   0  0  0  0  0  0  0  0  0  0  0  0
   18.5548   -7.1219   -9.6646 O   0  0  0  0  0  0  0  0  0  0  0  0
   17.7781   -5.6017  -11.1911 N   0  0  0  0  0  0  0  0  0  0  0  0
   19.0742   -5.4205  -11.7952 C   0  0  1  0  0  0  0  0  0  0  0  0
   19.5356   -6.6794  -12.4945 C   0  0  0  0  0  0  0  0  0  0  0  0
   20.7991   -6.4531  -13.3027 C   0  0  0  0  0  0  0  0  0  0  0  0
   21.1649   -7.7128  -13.9760 C   0  0  0  0  0  0  0  0  0  0  0  0
   21.8902   -7.6951  -14.9919 O   0  0  0  0  0  0  0  0  0  0  0  0
   19.0139   -4.3508  -12.8304 C   0  0  0  0  0  0  0  0  0  0  0  0
   20.1102   -3.5867  -13.1746 O   0  0  0  0  0  0  0  0  0  0  0  0
   20.6976   -8.9099  -13.4718 O   0  0  0  0  0  0  0  0  0  0  0  0
   17.9362   -4.1370  -13.4072 O   0  0  0  0  0  0  0  0  0  0  0  0
  2  1  1  1
  2  7  1  0
  3  2  1  0
  4  3  1  0
  4  5  1  0
  5  6  2  0
  7 12  1  0
  8  7  2  0
  9  5  1  0
 11 10  1  1
 11 13  1  0
 12 11  1  0
 13 14  2  0
 13 15  1  0
 15 16  1  0
 16 17  1  6
 16 21  1  0
 18 17  1  0
 19 18  1  0
 20 19  2  0
 21 22  1  0
 23 19  1  0
 24 21  2  0
M  END
$$$$
