EAE.pdb
     RDKit          3D

 24 23  0  0  1  0  0  0  0  0999 V2000
   17.7164   -9.4065  -16.7243 N   0  0  0  0  0  0  0  0  0  0  0  0
   18.6990   -8.6278  -17.4296 C   0  0  1  0  0  0  0  0  0  0  0  0
   18.1575   -8.0837  -18.7184 C   0  0  0  0  0  0  0  0  0  0  0  0
   17.8908   -9.0891  -19.7764 C   0  0  0  0  0  0  0  0  0  0  0  0
   18.4110   -8.6556  -21.0858 C   0  0  0  0  0  0  0  0  0  0  0  0
   17.6746   -8.4354  -22.0625 O   0  0  0  0  0  0  0  0  0  0  0  0
   19.1519   -7.4913  -16.5606 C   0  0  0  0  0  0  0  0  0  0  0  0
   18.3434   -6.9753  -15.7506 O   0  0  0  0  0  0  0  0  0  0  0  0
   19.7967   -8.4754  -21.2665 O   0  0  0  0  0  0  0  0  0  0  0  0
   22.1077   -6.3895  -14.9860 C   0  0  0  0  0  0  0  0  0  0  0  0
   20.8907   -5.9562  -15.7481 C   0  0  2  0  0  0  0  0  0  0  0  0
   20.4696   -7.0059  -16.6506 N   0  0  0  0  0  0  0  0  0  0  0  0
   21.2192   -4.7432  -16.5655 C   0  0  0  0  0  0  0  0  0  0  0  0
   21.6103   -4.8515  -17.7634 O   0  0  0  0  0  0  0  0  0  0  0  0
   21.1022   -3.4515  -16.0237 N   0  0  0  0  0  0  0  0  0  0  0  0
   21.4095   -2.2778  -16.8021 C   0  0  1  0  0  0  0  0  0  0  0  0
   20.7693   -1.0424  -16.2098 C   0  0  0  0  0  0  0  0  0  0  0  0
   19.2632   -1.0374  -16.3905 C   0  0  0  0  0  0  0  0  0  0  0  0
   18.7143    0.1839  -15.7732 C   0  0  0  0  0  0  0  0  0  0  0  0
   18.6507    1.2451  -16.4277 O   0  0  0  0  0  0  0  0  0  0  0  0
   22.8798   -2.0377  -16.8118 C   0  0  0  0  0  0  0  0  0  0  0  0
   23.5191   -1.3820  -17.8441 O   0  0  0  0  0  0  0  0  0  0  0  0
   18.2724    0.1415  -14.4661 O   0  0  0  0  0  0  0  0  0  0  0  0
   23.5580   -2.4427  -15.8549 O   0  0  0  0  0  0  0  0  0  0  0  0
  2  1  1  1
  2  7  1  0
  3  2  1  0
  4  3  1  0
  4  5  1  0
  5  6  2  0
  7 12  1  0
  8  7  2  0
  9  5  1  0
 11 10  1  6
 11 13  1  0
 12 11  1  0
 13 14  2  0
 13 15  1  0
 15 16  1  0
 16 17  1  1
 16 21  1  0
 18 17  1  0
 19 18  1  0
 20 19  2  0
 21 22  1  0
 23 19  1  0
 24 21  2  0
M  END
$$$$
