YWW.pdb
     RDKit          3D

 41 45  0  0  1  0  0  0  0  0999 V2000
   11.9060  -22.7234   16.2797 O   0  0  0  0  0  0  0  0  0  0  0  0
   11.5048  -21.5959   16.9529 C   0  0  0  0  0  0  0  0  0  0  0  0
   10.1708  -21.2353   16.9696 C   0  0  0  0  0  0  0  0  0  0  0  0
    9.7948  -20.1046   17.6494 C   0  0  0  0  0  0  0  0  0  0  0  0
   10.7219  -19.3387   18.3044 C   0  0  0  0  0  0  0  0  0  0  0  0
   10.2981  -18.1363   19.0240 C   0  0  0  0  0  0  0  0  0  0  0  0
   10.7021  -18.3081   20.4951 C   0  0  2  0  0  0  0  0  0  0  0  0
    9.9235  -19.3682   21.0755 N   0  0  0  0  0  0  0  0  0  0  0  0
   10.4275  -17.0373   21.1681 C   0  0  0  0  0  0  0  0  0  0  0  0
   11.0108  -15.9881   20.7382 O   0  0  0  0  0  0  0  0  0  0  0  0
   12.0481  -19.6914   18.2913 C   0  0  0  0  0  0  0  0  0  0  0  0
   12.4264  -20.8298   17.6071 C   0  0  0  0  0  0  0  0  0  0  0  0
    9.5655  -16.8585   22.2664 N   0  0  0  0  0  0  0  0  0  0  0  0
    9.3055  -15.5379   22.7779 C   0  0  1  0  0  0  0  0  0  0  0  0
    7.9037  -15.0714   22.7149 C   0  0  0  0  0  0  0  0  0  0  0  0
    7.2991  -14.9191   21.3919 C   0  0  0  0  0  0  0  0  0  0  0  0
    6.3572  -15.7141   20.7822 C   0  0  0  0  0  0  0  0  0  0  0  0
    6.1366  -15.1617   19.5722 N   0  0  0  0  0  0  0  0  0  0  0  0
    6.8868  -14.0631   19.3846 C   0  0  0  0  0  0  0  0  0  0  0  0
    7.0399  -13.1540   18.3483 C   0  0  0  0  0  0  0  0  0  0  0  0
    7.9064  -12.0929   18.4247 C   0  0  0  0  0  0  0  0  0  0  0  0
    8.6524  -11.9249   19.5754 C   0  0  0  0  0  0  0  0  0  0  0  0
    8.5153  -12.8150   20.6137 C   0  0  0  0  0  0  0  0  0  0  0  0
    7.6381  -13.8733   20.5128 C   0  0  0  0  0  0  0  0  0  0  0  0
    9.6864  -15.5473   24.2343 C   0  0  0  0  0  0  0  0  0  0  0  0
    9.9406  -14.4599   24.7900 O   0  0  0  0  0  0  0  0  0  0  0  0
    9.7657  -16.7226   24.9872 N   0  0  0  0  0  0  0  0  0  0  0  0
   10.1876  -16.7386   26.4072 C   0  0  1  0  0  0  0  0  0  0  0  0
    8.9078  -16.9090   27.1665 C   0  0  0  0  0  0  0  0  0  0  0  0
    7.8612  -15.9473   26.8039 C   0  0  0  0  0  0  0  0  0  0  0  0
    6.6192  -16.2876   26.2551 C   0  0  0  0  0  0  0  0  0  0  0  0
    5.9835  -15.1379   26.0423 N   0  0  0  0  0  0  0  0  0  0  0  0
    6.7310  -14.0923   26.4167 C   0  0  0  0  0  0  0  0  0  0  0  0
    6.5629  -12.7217   26.4338 C   0  0  0  0  0  0  0  0  0  0  0  0
    7.4950  -11.8452   26.8973 C   0  0  0  0  0  0  0  0  0  0  0  0
    8.6940  -12.3546   27.3856 C   0  0  0  0  0  0  0  0  0  0  0  0
    8.9029  -13.7134   27.3860 C   0  0  0  0  0  0  0  0  0  0  0  0
    7.9451  -14.5758   26.9115 C   0  0  0  0  0  0  0  0  0  0  0  0
   11.1647  -17.8001   26.6262 C   0  0  0  0  0  0  0  0  0  0  0  0
   11.6023  -18.6806   25.6286 O   0  0  0  0  0  0  0  0  0  0  0  0
   11.6619  -17.9578   27.7983 O   0  0  0  0  0  0  0  0  0  0  0  0
  2  1  1  0
  3  2  2  0
  4  3  1  0
  5  4  2  0
  5 11  1  0
  6  5  1  0
  7  6  1  0
  7  9  1  0
  7  8  1  1
  9 10  2  0
 11 12  2  0
 12  2  1  0
 13  9  1  0
 13 14  1  0
 14 25  1  0
 14 15  1  1
 16 15  1  0
 17 16  2  0
 18 17  1  0
 19 18  1  0
 19 24  2  0
 20 19  1  0
 21 20  2  0
 21 22  1  0
 22 23  2  0
 23 24  1  0
 24 16  1  0
 25 26  2  0
 27 25  1  0
 27 28  1  0
 28 29  1  1
 28 39  1  0
 30 29  1  0
 31 30  2  0
 32 31  1  0
 33 32  1  0
 33 38  2  0
 34 35  2  0
 34 33  1  0
 35 36  1  0
 36 37  2  0
 38 37  1  0
 38 30  1  0
 39 41  2  0
 39 40  1  0
M  END
$$$$
