YWW.pdb
     RDKit          3D

 41 45  0  0  1  0  0  0  0  0999 V2000
    6.8484  -14.1042   14.5408 O   0  0  0  0  0  0  0  0  0  0  0  0
    7.1532  -14.0894   15.8796 C   0  0  0  0  0  0  0  0  0  0  0  0
    8.3615  -13.5756   16.3108 C   0  0  0  0  0  0  0  0  0  0  0  0
    8.6426  -13.5718   17.6535 C   0  0  0  0  0  0  0  0  0  0  0  0
    7.7442  -14.0682   18.5600 C   0  0  0  0  0  0  0  0  0  0  0  0
    8.0649  -14.0535   19.9883 C   0  0  0  0  0  0  0  0  0  0  0  0
    9.0925  -15.1648   20.2457 C   0  0  2  0  0  0  0  0  0  0  0  0
    8.5480  -16.4198   19.8038 N   0  0  0  0  0  0  0  0  0  0  0  0
    9.3466  -15.1907   21.6872 C   0  0  0  0  0  0  0  0  0  0  0  0
    9.8874  -14.1680   22.2234 O   0  0  0  0  0  0  0  0  0  0  0  0
    6.5428  -14.5800   18.1380 C   0  0  0  0  0  0  0  0  0  0  0  0
    6.2599  -14.5836   16.7863 C   0  0  0  0  0  0  0  0  0  0  0  0
    9.0464  -16.2571   22.5555 N   0  0  0  0  0  0  0  0  0  0  0  0
    9.4322  -16.1957   23.9414 C   0  0  1  0  0  0  0  0  0  0  0  0
    8.4746  -16.7590   24.9172 C   0  0  0  0  0  0  0  0  0  0  0  0
    7.2874  -15.9666   25.2362 C   0  0  0  0  0  0  0  0  0  0  0  0
    6.0156  -16.4037   25.5233 C   0  0  0  0  0  0  0  0  0  0  0  0
    5.2830  -15.2917   25.7350 N   0  0  0  0  0  0  0  0  0  0  0  0
    6.0215  -14.1779   25.5972 C   0  0  0  0  0  0  0  0  0  0  0  0
    5.7629  -12.8192   25.7015 C   0  0  0  0  0  0  0  0  0  0  0  0
    6.7329  -11.8698   25.5004 C   0  0  0  0  0  0  0  0  0  0  0  0
    8.0125  -12.2830   25.1829 C   0  0  0  0  0  0  0  0  0  0  0  0
    8.2891  -13.6250   25.0748 C   0  0  0  0  0  0  0  0  0  0  0  0
    7.2974  -14.5597   25.2815 C   0  0  0  0  0  0  0  0  0  0  0  0
   10.7012  -16.9935   24.0806 C   0  0  0  0  0  0  0  0  0  0  0  0
   11.0574  -17.7161   23.1283 O   0  0  0  0  0  0  0  0  0  0  0  0
   11.4948  -16.9564   25.2310 N   0  0  0  0  0  0  0  0  0  0  0  0
   12.6562  -17.8537   25.4334 C   0  0  1  0  0  0  0  0  0  0  0  0
   13.3547  -17.2826   26.6290 C   0  0  0  0  0  0  0  0  0  0  0  0
   12.4825  -17.0667   27.7884 C   0  0  0  0  0  0  0  0  0  0  0  0
   12.2291  -18.0164   28.7852 C   0  0  0  0  0  0  0  0  0  0  0  0
   11.3704  -17.4461   29.6270 N   0  0  0  0  0  0  0  0  0  0  0  0
   11.0608  -16.2031   29.2380 C   0  0  0  0  0  0  0  0  0  0  0  0
   10.2614  -15.1909   29.7313 C   0  0  0  0  0  0  0  0  0  0  0  0
   10.1255  -13.9715   29.1427 C   0  0  0  0  0  0  0  0  0  0  0  0
   10.8328  -13.7224   27.9708 C   0  0  0  0  0  0  0  0  0  0  0  0
   11.6397  -14.7032   27.4448 C   0  0  0  0  0  0  0  0  0  0  0  0
   11.7581  -15.9259   28.0592 C   0  0  0  0  0  0  0  0  0  0  0  0
   12.2010  -19.2300   25.6011 C   0  0  0  0  0  0  0  0  0  0  0  0
   13.0428  -20.3475   25.5350 O   0  0  0  0  0  0  0  0  0  0  0  0
   10.9563  -19.4530   25.8175 O   0  0  0  0  0  0  0  0  0  0  0  0
  2  1  1  0
  3  2  2  0
  4  3  1  0
  5  4  2  0
  5 11  1  0
  6  5  1  0
  7  6  1  0
  7  9  1  0
  7  8  1  1
  9 10  2  0
 11 12  2  0
 12  2  1  0
 13  9  1  0
 13 14  1  0
 14 25  1  0
 14 15  1  1
 16 15  1  0
 17 16  2  0
 18 17  1  0
 19 18  1  0
 19 24  2  0
 20 19  1  0
 21 20  2  0
 21 22  1  0
 22 23  2  0
 23 24  1  0
 24 16  1  0
 25 26  2  0
 27 25  1  0
 27 28  1  0
 28 29  1  1
 28 39  1  0
 30 29  1  0
 31 30  2  0
 32 31  1  0
 33 32  1  0
 33 38  2  0
 34 35  2  0
 34 33  1  0
 35 36  1  0
 36 37  2  0
 38 37  1  0
 38 30  1  0
 39 41  2  0
 39 40  1  0
M  END
$$$$
