YWW.pdb
     RDKit          3D

 41 45  0  0  1  0  0  0  0  0999 V2000
    7.8670  -13.9191   14.3442 O   0  0  0  0  0  0  0  0  0  0  0  0
    8.0884  -13.9508   15.6990 C   0  0  0  0  0  0  0  0  0  0  0  0
    8.8027  -14.9916   16.2614 C   0  0  0  0  0  0  0  0  0  0  0  0
    9.0109  -15.0006   17.6174 C   0  0  0  0  0  0  0  0  0  0  0  0
    8.5210  -13.9966   18.4092 C   0  0  0  0  0  0  0  0  0  0  0  0
    8.7556  -14.0262   19.8539 C   0  0  0  0  0  0  0  0  0  0  0  0
    9.6090  -15.2648   20.1612 C   0  0  2  0  0  0  0  0  0  0  0  0
    8.9661  -16.4268   19.6104 N   0  0  0  0  0  0  0  0  0  0  0  0
    9.7061  -15.3700   21.6182 C   0  0  0  0  0  0  0  0  0  0  0  0
   10.0000  -14.3210   22.2809 O   0  0  0  0  0  0  0  0  0  0  0  0
    7.8106  -12.9604   17.8567 C   0  0  0  0  0  0  0  0  0  0  0  0
    7.6013  -12.9514   16.4917 C   0  0  0  0  0  0  0  0  0  0  0  0
    9.5035  -16.5406   22.3730 N   0  0  0  0  0  0  0  0  0  0  0  0
    9.5178  -16.4885   23.8118 C   0  0  1  0  0  0  0  0  0  0  0  0
    8.2459  -16.8077   24.4951 C   0  0  0  0  0  0  0  0  0  0  0  0
    7.1680  -15.8225   24.4150 C   0  0  0  0  0  0  0  0  0  0  0  0
    6.0271  -15.8592   23.6481 C   0  0  0  0  0  0  0  0  0  0  0  0
    5.3631  -14.7179   23.9210 N   0  0  0  0  0  0  0  0  0  0  0  0
    6.0213  -13.9635   24.8168 C   0  0  0  0  0  0  0  0  0  0  0  0
    5.7842  -12.7359   25.4173 C   0  0  0  0  0  0  0  0  0  0  0  0
    6.6533  -12.1817   26.3230 C   0  0  0  0  0  0  0  0  0  0  0  0
    7.8052  -12.8719   26.6477 C   0  0  0  0  0  0  0  0  0  0  0  0
    8.0585  -14.0900   26.0636 C   0  0  0  0  0  0  0  0  0  0  0  0
    7.1699  -14.6259   25.1563 C   0  0  0  0  0  0  0  0  0  0  0  0
   10.5205  -17.5096   24.2791 C   0  0  0  0  0  0  0  0  0  0  0  0
   10.5864  -18.5988   23.6748 O   0  0  0  0  0  0  0  0  0  0  0  0
   11.3789  -17.2863   25.3597 N   0  0  0  0  0  0  0  0  0  0  0  0
   12.2725  -18.3351   25.9042 C   0  0  1  0  0  0  0  0  0  0  0  0
   12.6768  -17.8092   27.2472 C   0  0  0  0  0  0  0  0  0  0  0  0
   11.5709  -17.2485   28.0309 C   0  0  0  0  0  0  0  0  0  0  0  0
   10.5933  -18.0051   28.6877 C   0  0  0  0  0  0  0  0  0  0  0  0
    9.7631  -17.1279   29.2467 N   0  0  0  0  0  0  0  0  0  0  0  0
   10.1428  -15.8694   28.9936 C   0  0  0  0  0  0  0  0  0  0  0  0
    9.6725  -14.6157   29.3315 C   0  0  0  0  0  0  0  0  0  0  0  0
   10.2675  -13.4513   28.9543 C   0  0  0  0  0  0  0  0  0  0  0  0
   11.4213  -13.5209   28.1801 C   0  0  0  0  0  0  0  0  0  0  0  0
   11.9230  -14.7493   27.8203 C   0  0  0  0  0  0  0  0  0  0  0  0
   11.3020  -15.9092   28.2143 C   0  0  0  0  0  0  0  0  0  0  0  0
   11.5739  -19.6157   25.9433 C   0  0  0  0  0  0  0  0  0  0  0  0
   12.2140  -20.8600   25.8788 O   0  0  0  0  0  0  0  0  0  0  0  0
   10.2945  -19.6254   26.0365 O   0  0  0  0  0  0  0  0  0  0  0  0
  2  1  1  0
  3  2  2  0
  4  3  1  0
  5  4  2  0
  5 11  1  0
  6  5  1  0
  7  6  1  0
  7  9  1  0
  7  8  1  1
  9 10  2  0
 11 12  2  0
 12  2  1  0
 13  9  1  0
 13 14  1  0
 14 25  1  0
 14 15  1  1
 16 15  1  0
 17 16  2  0
 18 17  1  0
 19 18  1  0
 19 24  2  0
 20 19  1  0
 21 20  2  0
 21 22  1  0
 22 23  2  0
 23 24  1  0
 24 16  1  0
 25 26  2  0
 27 25  1  0
 27 28  1  0
 28 29  1  1
 28 39  1  0
 30 29  1  0
 31 30  2  0
 32 31  1  0
 33 32  1  0
 33 38  2  0
 34 35  2  0
 34 33  1  0
 35 36  1  0
 36 37  2  0
 38 37  1  0
 38 30  1  0
 39 41  2  0
 39 40  1  0
M  END
$$$$
