YWW.pdb
     RDKit          3D

 41 45  0  0  1  0  0  0  0  0999 V2000
    7.6710  -24.6096   18.2500 O   0  0  0  0  0  0  0  0  0  0  0  0
    8.2173  -23.4424   18.7239 C   0  0  0  0  0  0  0  0  0  0  0  0
    7.7346  -22.8720   19.8865 C   0  0  0  0  0  0  0  0  0  0  0  0
    8.2971  -21.7058   20.3398 C   0  0  0  0  0  0  0  0  0  0  0  0
    9.3224  -21.1090   19.6558 C   0  0  0  0  0  0  0  0  0  0  0  0
    9.9081  -19.8649   20.1582 C   0  0  0  0  0  0  0  0  0  0  0  0
    8.9564  -18.7192   19.7858 C   0  0  2  0  0  0  0  0  0  0  0  0
    8.9436  -18.5648   18.3565 N   0  0  0  0  0  0  0  0  0  0  0  0
    9.4667  -17.5085   20.4317 C   0  0  0  0  0  0  0  0  0  0  0  0
   10.6083  -17.0683   20.0729 O   0  0  0  0  0  0  0  0  0  0  0  0
    9.8058  -21.6703   18.5006 C   0  0  0  0  0  0  0  0  0  0  0  0
    9.2396  -22.8445   18.0445 C   0  0  0  0  0  0  0  0  0  0  0  0
    8.8061  -16.7695   21.4310 N   0  0  0  0  0  0  0  0  0  0  0  0
    9.3943  -15.5620   21.9496 C   0  0  1  0  0  0  0  0  0  0  0  0
    8.4552  -14.5043   22.3809 C   0  0  0  0  0  0  0  0  0  0  0  0
    7.7043  -14.7276   23.6160 C   0  0  0  0  0  0  0  0  0  0  0  0
    7.1197  -15.8876   24.0671 C   0  0  0  0  0  0  0  0  0  0  0  0
    6.5417  -15.5751   25.2444 N   0  0  0  0  0  0  0  0  0  0  0  0
    6.7287  -14.2829   25.5609 C   0  0  0  0  0  0  0  0  0  0  0  0
    6.3513  -13.4765   26.6244 C   0  0  0  0  0  0  0  0  0  0  0  0
    6.6859  -12.1476   26.6929 C   0  0  0  0  0  0  0  0  0  0  0  0
    7.4252  -11.5940   25.6653 C   0  0  0  0  0  0  0  0  0  0  0  0
    7.8090  -12.3763   24.6024 C   0  0  0  0  0  0  0  0  0  0  0  0
    7.4603  -13.7090   24.5565 C   0  0  0  0  0  0  0  0  0  0  0  0
   10.1899  -15.9481   23.1679 C   0  0  0  0  0  0  0  0  0  0  0  0
    9.9229  -17.0261   23.7359 O   0  0  0  0  0  0  0  0  0  0  0  0
   11.2136  -15.1496   23.6864 N   0  0  0  0  0  0  0  0  0  0  0  0
   12.2007  -15.6502   24.6713 C   0  0  1  0  0  0  0  0  0  0  0  0
   11.5512  -16.8685   25.2521 C   0  0  0  0  0  0  0  0  0  0  0  0
   10.5553  -16.5817   26.2901 C   0  0  0  0  0  0  0  0  0  0  0  0
    9.4831  -17.4186   26.6213 C   0  0  0  0  0  0  0  0  0  0  0  0
    8.8047  -16.7869   27.5763 N   0  0  0  0  0  0  0  0  0  0  0  0
    9.3684  -15.6104   27.8763 C   0  0  0  0  0  0  0  0  0  0  0  0
    9.1000  -14.5933   28.7711 C   0  0  0  0  0  0  0  0  0  0  0  0
    9.8603  -13.4722   28.9011 C   0  0  0  0  0  0  0  0  0  0  0  0
   10.9787  -13.3355   28.0851 C   0  0  0  0  0  0  0  0  0  0  0  0
   11.2818  -14.3244   27.1794 C   0  0  0  0  0  0  0  0  0  0  0  0
   10.4967  -15.4458   27.0684 C   0  0  0  0  0  0  0  0  0  0  0  0
   13.4784  -15.9034   24.0134 C   0  0  0  0  0  0  0  0  0  0  0  0
   14.6281  -16.3478   24.6787 O   0  0  0  0  0  0  0  0  0  0  0  0
   13.5784  -15.7080   22.7494 O   0  0  0  0  0  0  0  0  0  0  0  0
  2  1  1  0
  3  2  2  0
  4  3  1  0
  5  4  2  0
  5 11  1  0
  6  5  1  0
  7  6  1  0
  7  9  1  0
  7  8  1  6
  9 10  2  0
 11 12  2  0
 12  2  1  0
 13  9  1  0
 13 14  1  0
 14 25  1  0
 14 15  1  1
 16 15  1  0
 17 16  2  0
 18 17  1  0
 19 18  1  0
 19 24  2  0
 20 19  1  0
 21 20  2  0
 21 22  1  0
 22 23  2  0
 23 24  1  0
 24 16  1  0
 25 26  2  0
 27 25  1  0
 27 28  1  0
 28 29  1  6
 28 39  1  0
 30 29  1  0
 31 30  2  0
 32 31  1  0
 33 32  1  0
 33 38  2  0
 34 35  2  0
 34 33  1  0
 35 36  1  0
 36 37  2  0
 38 37  1  0
 38 30  1  0
 39 41  2  0
 39 40  1  0
M  END
$$$$
