YWW.pdb
     RDKit          3D

 41 45  0  0  1  0  0  0  0  0999 V2000
    6.3660  -24.3409   25.8926 O   0  0  0  0  0  0  0  0  0  0  0  0
    6.9958  -23.2999   25.2563 C   0  0  0  0  0  0  0  0  0  0  0  0
    6.4029  -22.0523   25.2127 C   0  0  0  0  0  0  0  0  0  0  0  0
    7.0522  -21.0282   24.5711 C   0  0  0  0  0  0  0  0  0  0  0  0
    8.2704  -21.2311   23.9797 C   0  0  0  0  0  0  0  0  0  0  0  0
    8.9456  -20.1236   23.3009 C   0  0  0  0  0  0  0  0  0  0  0  0
    8.0368  -19.6572   22.1549 C   0  0  2  0  0  0  0  0  0  0  0  0
    8.1933  -20.5490   21.0383 N   0  0  0  0  0  0  0  0  0  0  0  0
    8.4575  -18.3015   21.7962 C   0  0  0  0  0  0  0  0  0  0  0  0
    9.1894  -18.1501   20.7631 O   0  0  0  0  0  0  0  0  0  0  0  0
    8.8642  -22.4677   24.0193 C   0  0  0  0  0  0  0  0  0  0  0  0
    8.2105  -23.4985   24.6653 C   0  0  0  0  0  0  0  0  0  0  0  0
    8.1265  -17.1261   22.4962 N   0  0  0  0  0  0  0  0  0  0  0  0
    8.6309  -15.8518   22.0549 C   0  0  1  0  0  0  0  0  0  0  0  0
    7.8481  -14.6610   22.4497 C   0  0  0  0  0  0  0  0  0  0  0  0
    7.3057  -14.6264   23.8075 C   0  0  0  0  0  0  0  0  0  0  0  0
    6.7352  -15.6480   24.5300 C   0  0  0  0  0  0  0  0  0  0  0  0
    6.3864  -15.1101   25.7161 N   0  0  0  0  0  0  0  0  0  0  0  0
    6.7046  -13.8065   25.7820 C   0  0  0  0  0  0  0  0  0  0  0  0
    6.5645  -12.8176   26.7444 C   0  0  0  0  0  0  0  0  0  0  0  0
    6.9881  -11.5286   26.5394 C   0  0  0  0  0  0  0  0  0  0  0  0
    7.5749  -11.2054   25.3311 C   0  0  0  0  0  0  0  0  0  0  0  0
    7.7229  -12.1712   24.3644 C   0  0  0  0  0  0  0  0  0  0  0  0
    7.2892  -13.4592   24.5941 C   0  0  0  0  0  0  0  0  0  0  0  0
    9.9974  -15.6846   22.6642 C   0  0  0  0  0  0  0  0  0  0  0  0
   10.6184  -14.6241   22.4508 O   0  0  0  0  0  0  0  0  0  0  0  0
   10.5962  -16.6673   23.4581 N   0  0  0  0  0  0  0  0  0  0  0  0
   11.8289  -16.4232   24.2428 C   0  0  1  0  0  0  0  0  0  0  0  0
   11.7463  -17.4081   25.3683 C   0  0  0  0  0  0  0  0  0  0  0  0
   10.4600  -17.4087   26.0732 C   0  0  0  0  0  0  0  0  0  0  0  0
    9.4688  -18.3861   25.9257 C   0  0  0  0  0  0  0  0  0  0  0  0
    8.4578  -18.0051   26.7028 N   0  0  0  0  0  0  0  0  0  0  0  0
    8.7349  -16.8574   27.3337 C   0  0  0  0  0  0  0  0  0  0  0  0
    8.0741  -16.0509   28.2391 C   0  0  0  0  0  0  0  0  0  0  0  0
    8.5948  -14.9083   28.7638 C   0  0  0  0  0  0  0  0  0  0  0  0
    9.8715  -14.5228   28.3678 C   0  0  0  0  0  0  0  0  0  0  0  0
   10.5643  -15.2967   27.4671 C   0  0  0  0  0  0  0  0  0  0  0  0
   10.0146  -16.4453   26.9524 C   0  0  0  0  0  0  0  0  0  0  0  0
   13.0029  -16.5788   23.3901 C   0  0  0  0  0  0  0  0  0  0  0  0
   12.9643  -17.1004   22.0908 O   0  0  0  0  0  0  0  0  0  0  0  0
   14.1517  -16.2278   23.8407 O   0  0  0  0  0  0  0  0  0  0  0  0
  2  1  1  0
  3  2  2  0
  4  3  1  0
  5  4  2  0
  5 11  1  0
  6  5  1  0
  7  6  1  0
  7  9  1  0
  7  8  1  6
  9 10  2  0
 11 12  2  0
 12  2  1  0
 13  9  1  0
 13 14  1  0
 14 25  1  0
 14 15  1  1
 16 15  1  0
 17 16  2  0
 18 17  1  0
 19 18  1  0
 19 24  2  0
 20 19  1  0
 21 20  2  0
 21 22  1  0
 22 23  2  0
 23 24  1  0
 24 16  1  0
 25 26  2  0
 27 25  1  0
 27 28  1  0
 28 29  1  1
 28 39  1  0
 30 29  1  0
 31 30  2  0
 32 31  1  0
 33 32  1  0
 33 38  2  0
 34 35  2  0
 34 33  1  0
 35 36  1  0
 36 37  2  0
 38 37  1  0
 38 30  1  0
 39 41  2  0
 39 40  1  0
M  END
$$$$
