YWW.pdb
     RDKit          3D

 41 45  0  0  1  0  0  0  0  0999 V2000
   16.5493  -20.6345   18.2008 O   0  0  0  0  0  0  0  0  0  0  0  0
   15.1927  -20.4323   18.2644 C   0  0  0  0  0  0  0  0  0  0  0  0
   14.5076  -20.6840   19.4379 C   0  0  0  0  0  0  0  0  0  0  0  0
   13.1525  -20.4740   19.4764 C   0  0  0  0  0  0  0  0  0  0  0  0
   12.4808  -20.0218   18.3722 C   0  0  0  0  0  0  0  0  0  0  0  0
   11.0346  -19.8041   18.4360 C   0  0  0  0  0  0  0  0  0  0  0  0
   10.7886  -18.2903   18.3676 C   0  0  2  0  0  0  0  0  0  0  0  0
   11.6168  -17.7258   17.3370 N   0  0  0  0  0  0  0  0  0  0  0  0
   11.1428  -17.7370   19.6760 C   0  0  0  0  0  0  0  0  0  0  0  0
   12.2996  -17.2203   19.8198 O   0  0  0  0  0  0  0  0  0  0  0  0
   13.1554  -19.7703   17.2038 C   0  0  0  0  0  0  0  0  0  0  0  0
   14.5196  -19.9815   17.1652 C   0  0  0  0  0  0  0  0  0  0  0  0
   10.3136  -17.7209   20.8132 N   0  0  0  0  0  0  0  0  0  0  0  0
   10.7228  -17.0163   22.0003 C   0  0  1  0  0  0  0  0  0  0  0  0
   10.0704  -15.7131   22.2505 C   0  0  0  0  0  0  0  0  0  0  0  0
    8.6887  -15.5495   21.7998 C   0  0  0  0  0  0  0  0  0  0  0  0
    7.5827  -16.2945   22.1355 C   0  0  0  0  0  0  0  0  0  0  0  0
    6.5535  -15.7542   21.4523 N   0  0  0  0  0  0  0  0  0  0  0  0
    6.9485  -14.7104   20.7044 C   0  0  0  0  0  0  0  0  0  0  0  0
    6.3087  -13.8347   19.8397 C   0  0  0  0  0  0  0  0  0  0  0  0
    6.9765  -12.8303   19.1854 C   0  0  0  0  0  0  0  0  0  0  0  0
    8.3344  -12.6870   19.3961 C   0  0  0  0  0  0  0  0  0  0  0  0
    8.9868  -13.5447   20.2492 C   0  0  0  0  0  0  0  0  0  0  0  0
    8.2939  -14.5461   20.8949 C   0  0  0  0  0  0  0  0  0  0  0  0
   10.3817  -17.8957   23.1736 C   0  0  0  0  0  0  0  0  0  0  0  0
   11.0079  -18.9647   23.3180 O   0  0  0  0  0  0  0  0  0  0  0  0
    9.3943  -17.5629   24.1057 N   0  0  0  0  0  0  0  0  0  0  0  0
    9.5540  -17.7941   25.5603 C   0  0  1  0  0  0  0  0  0  0  0  0
   10.7877  -17.0241   25.9192 C   0  0  0  0  0  0  0  0  0  0  0  0
   10.8509  -16.6117   27.3254 C   0  0  0  0  0  0  0  0  0  0  0  0
   11.2959  -17.4223   28.3763 C   0  0  0  0  0  0  0  0  0  0  0  0
   11.1652  -16.6948   29.4830 N   0  0  0  0  0  0  0  0  0  0  0  0
   10.6705  -15.4808   29.2115 C   0  0  0  0  0  0  0  0  0  0  0  0
   10.3609  -14.3586   29.9542 C   0  0  0  0  0  0  0  0  0  0  0  0
    9.8733  -13.2041   29.4238 C   0  0  0  0  0  0  0  0  0  0  0  0
    9.6718  -13.1438   28.0485 C   0  0  0  0  0  0  0  0  0  0  0  0
    9.9662  -14.2392   27.2717 C   0  0  0  0  0  0  0  0  0  0  0  0
   10.4567  -15.3926   27.8333 C   0  0  0  0  0  0  0  0  0  0  0  0
    8.3508  -17.3697   26.2686 C   0  0  0  0  0  0  0  0  0  0  0  0
    7.8849  -17.9641   27.4483 O   0  0  0  0  0  0  0  0  0  0  0  0
    7.6591  -16.3980   25.7960 O   0  0  0  0  0  0  0  0  0  0  0  0
  2  1  1  0
  3  2  2  0
  4  3  1  0
  5  4  2  0
  5 11  1  0
  6  5  1  0
  7  6  1  0
  7  9  1  0
  7  8  1  6
  9 10  2  0
 11 12  2  0
 12  2  1  0
 13  9  1  0
 13 14  1  0
 14 25  1  0
 14 15  1  1
 16 15  1  0
 17 16  2  0
 18 17  1  0
 19 18  1  0
 19 24  2  0
 20 19  1  0
 21 20  2  0
 21 22  1  0
 22 23  2  0
 23 24  1  0
 24 16  1  0
 25 26  2  0
 27 25  1  0
 27 28  1  0
 28 29  1  1
 28 39  1  0
 30 29  1  0
 31 30  2  0
 32 31  1  0
 33 32  1  0
 33 38  2  0
 34 35  2  0
 34 33  1  0
 35 36  1  0
 36 37  2  0
 38 37  1  0
 38 30  1  0
 39 41  2  0
 39 40  1  0
M  END
$$$$
