YWW.pdb
     RDKit          3D

 41 45  0  0  1  0  0  0  0  0999 V2000
    9.8344  -20.4254   14.4023 O   0  0  0  0  0  0  0  0  0  0  0  0
   10.0488  -19.7759   15.5929 C   0  0  0  0  0  0  0  0  0  0  0  0
    9.5978  -20.3289   16.7764 C   0  0  0  0  0  0  0  0  0  0  0  0
    9.8245  -19.6608   17.9529 C   0  0  0  0  0  0  0  0  0  0  0  0
   10.4872  -18.4625   17.9630 C   0  0  0  0  0  0  0  0  0  0  0  0
   10.7186  -17.7672   19.2303 C   0  0  0  0  0  0  0  0  0  0  0  0
    9.3757  -17.1847   19.6931 C   0  0  2  0  0  0  0  0  0  0  0  0
    8.9909  -16.1248   18.8014 N   0  0  0  0  0  0  0  0  0  0  0  0
    9.5735  -16.6721   21.0501 C   0  0  0  0  0  0  0  0  0  0  0  0
   10.2190  -15.5820   21.1955 O   0  0  0  0  0  0  0  0  0  0  0  0
   10.9372  -17.9081   16.7911 C   0  0  0  0  0  0  0  0  0  0  0  0
   10.7091  -18.5808   15.6068 C   0  0  0  0  0  0  0  0  0  0  0  0
    9.1118  -17.2788   22.2333 N   0  0  0  0  0  0  0  0  0  0  0  0
    9.3763  -16.6715   23.5117 C   0  0  1  0  0  0  0  0  0  0  0  0
    8.3972  -16.9444   24.5857 C   0  0  0  0  0  0  0  0  0  0  0  0
    7.3347  -15.9622   24.7994 C   0  0  0  0  0  0  0  0  0  0  0  0
    6.0051  -16.1821   25.0729 C   0  0  0  0  0  0  0  0  0  0  0  0
    5.4425  -14.9608   25.1716 N   0  0  0  0  0  0  0  0  0  0  0  0
    6.3428  -13.9830   24.9754 C   0  0  0  0  0  0  0  0  0  0  0  0
    6.2882  -12.5971   24.9652 C   0  0  0  0  0  0  0  0  0  0  0  0
    7.3942  -11.8207   24.7269 C   0  0  0  0  0  0  0  0  0  0  0  0
    8.6047  -12.4426   24.4887 C   0  0  0  0  0  0  0  0  0  0  0  0
    8.6797  -13.8150   24.4945 C   0  0  0  0  0  0  0  0  0  0  0  0
    7.5543  -14.5732   24.7365 C   0  0  0  0  0  0  0  0  0  0  0  0
   10.6966  -17.2129   23.9912 C   0  0  0  0  0  0  0  0  0  0  0  0
   11.1265  -18.2683   23.4842 O   0  0  0  0  0  0  0  0  0  0  0  0
   11.4585  -16.5814   24.9788 N   0  0  0  0  0  0  0  0  0  0  0  0
   12.7725  -17.0962   25.4297 C   0  0  1  0  0  0  0  0  0  0  0  0
   13.1444  -16.1992   26.5701 C   0  0  0  0  0  0  0  0  0  0  0  0
   12.3211  -16.3803   27.7704 C   0  0  0  0  0  0  0  0  0  0  0  0
   12.3639  -17.5021   28.6066 C   0  0  0  0  0  0  0  0  0  0  0  0
   11.4495  -17.2926   29.5506 N   0  0  0  0  0  0  0  0  0  0  0  0
   10.8296  -16.1191   29.3754 C   0  0  0  0  0  0  0  0  0  0  0  0
    9.8457  -15.4193   30.0455 C   0  0  0  0  0  0  0  0  0  0  0  0
    9.3872  -14.1957   29.6652 C   0  0  0  0  0  0  0  0  0  0  0  0
    9.9395  -13.6075   28.5318 C   0  0  0  0  0  0  0  0  0  0  0  0
   10.9212  -14.2706   27.8342 C   0  0  0  0  0  0  0  0  0  0  0  0
   11.3652  -15.5054   28.2399 C   0  0  0  0  0  0  0  0  0  0  0  0
   12.6613  -18.5075   25.7839 C   0  0  0  0  0  0  0  0  0  0  0  0
   13.7560  -19.3714   25.9149 O   0  0  0  0  0  0  0  0  0  0  0  0
   11.4982  -19.0096   25.9866 O   0  0  0  0  0  0  0  0  0  0  0  0
  2  1  1  0
  3  2  2  0
  4  3  1  0
  5  4  2  0
  5 11  1  0
  6  5  1  0
  7  6  1  0
  7  9  1  0
  7  8  1  6
  9 10  2  0
 11 12  2  0
 12  2  1  0
 13  9  1  0
 13 14  1  0
 14 25  1  0
 14 15  1  1
 16 15  1  0
 17 16  2  0
 18 17  1  0
 19 18  1  0
 19 24  2  0
 20 19  1  0
 21 20  2  0
 21 22  1  0
 22 23  2  0
 23 24  1  0
 24 16  1  0
 25 26  2  0
 27 25  1  0
 27 28  1  0
 28 29  1  1
 28 39  1  0
 30 29  1  0
 31 30  2  0
 32 31  1  0
 33 32  1  0
 33 38  2  0
 34 35  2  0
 34 33  1  0
 35 36  1  0
 36 37  2  0
 38 37  1  0
 38 30  1  0
 39 41  2  0
 39 40  1  0
M  END
$$$$
