YWW.pdb
     RDKit          3D

 41 45  0  0  1  0  0  0  0  0999 V2000
   11.2290  -26.1662   21.3968 O   0  0  0  0  0  0  0  0  0  0  0  0
   10.6525  -24.9200   21.4110 C   0  0  0  0  0  0  0  0  0  0  0  0
    9.6114  -24.6467   22.2777 C   0  0  0  0  0  0  0  0  0  0  0  0
    9.0523  -23.3940   22.2732 C   0  0  0  0  0  0  0  0  0  0  0  0
    9.5133  -22.4228   21.4250 C   0  0  0  0  0  0  0  0  0  0  0  0
    8.9020  -21.0926   21.4376 C   0  0  0  0  0  0  0  0  0  0  0  0
    7.8349  -21.0816   22.5413 C   0  0  2  0  0  0  0  0  0  0  0  0
    6.6232  -21.6615   22.0291 N   0  0  0  0  0  0  0  0  0  0  0  0
    7.6194  -19.6834   22.9179 C   0  0  0  0  0  0  0  0  0  0  0  0
    6.7500  -19.0111   22.2713 O   0  0  0  0  0  0  0  0  0  0  0  0
   10.5467  -22.6882   20.5618 C   0  0  0  0  0  0  0  0  0  0  0  0
   11.1096  -23.9492   20.5666 C   0  0  0  0  0  0  0  0  0  0  0  0
    8.2934  -18.9956   23.9445 N   0  0  0  0  0  0  0  0  0  0  0  0
    7.9474  -17.6327   24.2542 C   0  0  1  0  0  0  0  0  0  0  0  0
    7.5814  -17.3489   25.6585 C   0  0  0  0  0  0  0  0  0  0  0  0
    7.0826  -16.0101   25.9713 C   0  0  0  0  0  0  0  0  0  0  0  0
    5.8113  -15.5098   25.8147 C   0  0  0  0  0  0  0  0  0  0  0  0
    5.8650  -14.2299   26.2352 N   0  0  0  0  0  0  0  0  0  0  0  0
    7.0989  -13.8949   26.6479 C   0  0  0  0  0  0  0  0  0  0  0  0
    7.6758  -12.7400   27.1550 C   0  0  0  0  0  0  0  0  0  0  0  0
    9.0016  -12.6733   27.5023 C   0  0  0  0  0  0  0  0  0  0  0  0
    9.7889  -13.7971   27.3405 C   0  0  0  0  0  0  0  0  0  0  0  0
    9.2361  -14.9514   26.8395 C   0  0  0  0  0  0  0  0  0  0  0  0
    7.9014  -14.9934   26.4978 C   0  0  0  0  0  0  0  0  0  0  0  0
    9.1585  -16.7915   23.9511 C   0  0  0  0  0  0  0  0  0  0  0  0
    9.6778  -16.1397   24.8793 O   0  0  0  0  0  0  0  0  0  0  0  0
    9.7236  -16.7124   22.6748 N   0  0  0  0  0  0  0  0  0  0  0  0
   10.7515  -15.7085   22.3136 C   0  0  1  0  0  0  0  0  0  0  0  0
   10.1361  -14.3995   22.7027 C   0  0  0  0  0  0  0  0  0  0  0  0
    8.8538  -14.1199   22.0478 C   0  0  0  0  0  0  0  0  0  0  0  0
    7.6102  -14.5785   22.4980 C   0  0  0  0  0  0  0  0  0  0  0  0
    6.7150  -14.1400   21.6163 N   0  0  0  0  0  0  0  0  0  0  0  0
    7.2993  -13.4356   20.6393 C   0  0  0  0  0  0  0  0  0  0  0  0
    6.8591  -12.7611   19.5176 C   0  0  0  0  0  0  0  0  0  0  0  0
    7.6762  -12.0837   18.6659 C   0  0  0  0  0  0  0  0  0  0  0  0
    9.0409  -12.0656   18.9358 C   0  0  0  0  0  0  0  0  0  0  0  0
    9.5217  -12.7253   20.0419 C   0  0  0  0  0  0  0  0  0  0  0  0
    8.6746  -13.4021   20.8849 C   0  0  0  0  0  0  0  0  0  0  0  0
   12.0063  -16.0111   22.9944 C   0  0  0  0  0  0  0  0  0  0  0  0
   12.0882  -16.5311   24.2923 O   0  0  0  0  0  0  0  0  0  0  0  0
   13.1143  -15.7895   22.3869 O   0  0  0  0  0  0  0  0  0  0  0  0
  2  1  1  0
  3  2  2  0
  4  3  1  0
  5  4  2  0
  5 11  1  0
  6  5  1  0
  7  6  1  0
  7  9  1  0
  7  8  1  6
  9 10  2  0
 11 12  2  0
 12  2  1  0
 13  9  1  0
 13 14  1  0
 14 25  1  0
 14 15  1  1
 16 15  1  0
 17 16  2  0
 18 17  1  0
 19 18  1  0
 19 24  2  0
 20 19  1  0
 21 20  2  0
 21 22  1  0
 22 23  2  0
 23 24  1  0
 24 16  1  0
 25 26  2  0
 27 25  1  0
 27 28  1  0
 28 29  1  1
 28 39  1  0
 30 29  1  0
 31 30  2  0
 32 31  1  0
 33 32  1  0
 33 38  2  0
 34 35  2  0
 34 33  1  0
 35 36  1  0
 36 37  2  0
 38 37  1  0
 38 30  1  0
 39 41  2  0
 39 40  1  0
M  END
$$$$
