YWW.pdb
     RDKit          3D

 41 45  0  0  1  0  0  0  0  0999 V2000
   14.0033  -17.9317   17.7746 O   0  0  0  0  0  0  0  0  0  0  0  0
   12.9756  -17.0999   18.1453 C   0  0  0  0  0  0  0  0  0  0  0  0
   11.6697  -17.4295   17.8356 C   0  0  0  0  0  0  0  0  0  0  0  0
   10.6605  -16.5822   18.2169 C   0  0  0  0  0  0  0  0  0  0  0  0
   10.9347  -15.4245   18.8949 C   0  0  0  0  0  0  0  0  0  0  0  0
    9.8418  -14.5353   19.2926 C   0  0  0  0  0  0  0  0  0  0  0  0
    8.7131  -15.4095   19.8574 C   0  0  2  0  0  0  0  0  0  0  0  0
    7.4485  -14.8867   19.4168 N   0  0  0  0  0  0  0  0  0  0  0  0
    8.8149  -15.3539   21.3168 C   0  0  0  0  0  0  0  0  0  0  0  0
    8.5918  -14.2398   21.8955 O   0  0  0  0  0  0  0  0  0  0  0  0
   12.2294  -15.0916   19.2051 C   0  0  0  0  0  0  0  0  0  0  0  0
   13.2453  -15.9447   18.8213 C   0  0  0  0  0  0  0  0  0  0  0  0
    9.1427  -16.4327   22.1595 N   0  0  0  0  0  0  0  0  0  0  0  0
    9.3955  -16.2099   23.5593 C   0  0  1  0  0  0  0  0  0  0  0  0
    8.4575  -16.8480   24.5077 C   0  0  0  0  0  0  0  0  0  0  0  0
    7.3369  -16.0449   24.9961 C   0  0  0  0  0  0  0  0  0  0  0  0
    6.1178  -16.4705   25.4688 C   0  0  0  0  0  0  0  0  0  0  0  0
    5.4337  -15.3520   25.7830 N   0  0  0  0  0  0  0  0  0  0  0  0
    6.1530  -14.2448   25.5346 C   0  0  0  0  0  0  0  0  0  0  0  0
    5.9237  -12.8837   25.6720 C   0  0  0  0  0  0  0  0  0  0  0  0
    6.8613  -11.9430   25.3272 C   0  0  0  0  0  0  0  0  0  0  0  0
    8.0766  -12.3678   24.8257 C   0  0  0  0  0  0  0  0  0  0  0  0
    8.3232  -13.7123   24.6819 C   0  0  0  0  0  0  0  0  0  0  0  0
    7.3651  -14.6380   25.0352 C   0  0  0  0  0  0  0  0  0  0  0  0
   10.7564  -16.7807   23.8569 C   0  0  0  0  0  0  0  0  0  0  0  0
   11.1820  -17.7090   23.1407 O   0  0  0  0  0  0  0  0  0  0  0  0
   11.5604  -16.3128   24.9005 N   0  0  0  0  0  0  0  0  0  0  0  0
   12.7817  -17.0200   25.3512 C   0  0  1  0  0  0  0  0  0  0  0  0
   13.2201  -16.2560   26.5626 C   0  0  0  0  0  0  0  0  0  0  0  0
   12.3351  -16.4087   27.7224 C   0  0  0  0  0  0  0  0  0  0  0  0
   12.3446  -17.5027   28.5957 C   0  0  0  0  0  0  0  0  0  0  0  0
   11.3784  -17.2744   29.4820 N   0  0  0  0  0  0  0  0  0  0  0  0
   10.7566  -16.1147   29.2357 C   0  0  0  0  0  0  0  0  0  0  0  0
    9.7306  -15.4060   29.8290 C   0  0  0  0  0  0  0  0  0  0  0  0
    9.2804  -14.2009   29.3850 C   0  0  0  0  0  0  0  0  0  0  0  0
    9.8869  -13.6425   28.2643 C   0  0  0  0  0  0  0  0  0  0  0  0
   10.9118  -14.3154   27.6423 C   0  0  0  0  0  0  0  0  0  0  0  0
   11.3461  -15.5311   28.1112 C   0  0  0  0  0  0  0  0  0  0  0  0
   12.4812  -18.4261   25.6010 C   0  0  0  0  0  0  0  0  0  0  0  0
   13.4529  -19.4305   25.6951 O   0  0  0  0  0  0  0  0  0  0  0  0
   11.2580  -18.7870   25.7404 O   0  0  0  0  0  0  0  0  0  0  0  0
  2  1  1  0
  3  2  2  0
  4  3  1  0
  5  4  2  0
  5 11  1  0
  6  5  1  0
  7  6  1  0
  7  9  1  0
  7  8  1  1
  9 10  2  0
 11 12  2  0
 12  2  1  0
 13  9  1  0
 13 14  1  0
 14 25  1  0
 14 15  1  1
 16 15  1  0
 17 16  2  0
 18 17  1  0
 19 18  1  0
 19 24  2  0
 20 19  1  0
 21 20  2  0
 21 22  1  0
 22 23  2  0
 23 24  1  0
 24 16  1  0
 25 26  2  0
 27 25  1  0
 27 28  1  0
 28 29  1  1
 28 39  1  0
 30 29  1  0
 31 30  2  0
 32 31  1  0
 33 32  1  0
 33 38  2  0
 34 35  2  0
 34 33  1  0
 35 36  1  0
 36 37  2  0
 38 37  1  0
 38 30  1  0
 39 41  2  0
 39 40  1  0
M  END
$$$$
