YWW.pdb
     RDKit          3D

 41 45  0  0  1  0  0  0  0  0999 V2000
    6.8290  -15.0664   14.2251 O   0  0  0  0  0  0  0  0  0  0  0  0
    7.0847  -14.9038   15.5643 C   0  0  0  0  0  0  0  0  0  0  0  0
    6.0625  -15.0275   16.4861 C   0  0  0  0  0  0  0  0  0  0  0  0
    6.3433  -14.8608   17.8186 C   0  0  0  0  0  0  0  0  0  0  0  0
    7.6155  -14.5756   18.2373 C   0  0  0  0  0  0  0  0  0  0  0  0
    7.8924  -14.4023   19.6643 C   0  0  0  0  0  0  0  0  0  0  0  0
    8.7360  -15.6000   20.1232 C   0  0  2  0  0  0  0  0  0  0  0  0
    7.8823  -16.7473   20.2701 N   0  0  0  0  0  0  0  0  0  0  0  0
    9.3379  -15.2361   21.4072 C   0  0  0  0  0  0  0  0  0  0  0  0
   10.2202  -14.3156   21.4210 O   0  0  0  0  0  0  0  0  0  0  0  0
    8.6347  -14.4513   17.3268 C   0  0  0  0  0  0  0  0  0  0  0  0
    8.3519  -14.6193   15.9855 C   0  0  0  0  0  0  0  0  0  0  0  0
    9.0313  -15.8163   22.6524 N   0  0  0  0  0  0  0  0  0  0  0  0
    9.6644  -15.3358   23.8529 C   0  0  1  0  0  0  0  0  0  0  0  0
    8.9124  -15.5191   25.1128 C   0  0  0  0  0  0  0  0  0  0  0  0
    7.5411  -15.0129   25.1631 C   0  0  0  0  0  0  0  0  0  0  0  0
    6.3636  -15.7097   25.0253 C   0  0  0  0  0  0  0  0  0  0  0  0
    5.3793  -14.7953   25.1380 N   0  0  0  0  0  0  0  0  0  0  0  0
    5.8700  -13.5608   25.3388 C   0  0  0  0  0  0  0  0  0  0  0  0
    5.3064  -12.3053   25.5113 C   0  0  0  0  0  0  0  0  0  0  0  0
    6.0670  -11.1790   25.7001 C   0  0  0  0  0  0  0  0  0  0  0  0
    7.4431  -11.3010   25.7188 C   0  0  0  0  0  0  0  0  0  0  0  0
    8.0210  -12.5365   25.5496 C   0  0  0  0  0  0  0  0  0  0  0  0
    7.2354  -13.6533   25.3615 C   0  0  0  0  0  0  0  0  0  0  0  0
   10.9506  -16.1024   24.0091 C   0  0  0  0  0  0  0  0  0  0  0  0
   11.2063  -17.0088   23.1913 O   0  0  0  0  0  0  0  0  0  0  0  0
   11.8679  -15.8392   25.0308 N   0  0  0  0  0  0  0  0  0  0  0  0
   12.7888  -16.8687   25.5666 C   0  0  1  0  0  0  0  0  0  0  0  0
   11.8805  -17.9668   26.0276 C   0  0  0  0  0  0  0  0  0  0  0  0
   10.7211  -17.5043   26.7979 C   0  0  0  0  0  0  0  0  0  0  0  0
    9.4124  -17.9718   26.6298 C   0  0  0  0  0  0  0  0  0  0  0  0
    8.6625  -17.2823   27.4862 N   0  0  0  0  0  0  0  0  0  0  0  0
    9.3997  -16.4116   28.1865 C   0  0  0  0  0  0  0  0  0  0  0  0
    9.1467  -15.4910   29.1843 C   0  0  0  0  0  0  0  0  0  0  0  0
   10.1017  -14.7151   29.7655 C   0  0  0  0  0  0  0  0  0  0  0  0
   11.4166  -14.8524   29.3323 C   0  0  0  0  0  0  0  0  0  0  0  0
   11.7124  -15.7569   28.3401 C   0  0  0  0  0  0  0  0  0  0  0  0
   10.7286  -16.5273   27.7700 C   0  0  0  0  0  0  0  0  0  0  0  0
   13.7444  -17.2679   24.5385 C   0  0  0  0  0  0  0  0  0  0  0  0
   14.8066  -18.1543   24.7574 O   0  0  0  0  0  0  0  0  0  0  0  0
   13.6260  -16.7848   23.3559 O   0  0  0  0  0  0  0  0  0  0  0  0
  2  1  1  0
  3  2  2  0
  4  3  1  0
  5  4  2  0
  5 11  1  0
  6  5  1  0
  7  6  1  0
  7  9  1  0
  7  8  1  1
  9 10  2  0
 11 12  2  0
 12  2  1  0
 13  9  1  0
 13 14  1  0
 14 25  1  0
 14 15  1  1
 16 15  1  0
 17 16  2  0
 18 17  1  0
 19 18  1  0
 19 24  2  0
 20 19  1  0
 21 20  2  0
 21 22  1  0
 22 23  2  0
 23 24  1  0
 24 16  1  0
 25 26  2  0
 27 25  1  0
 27 28  1  0
 28 29  1  6
 28 39  1  0
 30 29  1  0
 31 30  2  0
 32 31  1  0
 33 32  1  0
 33 38  2  0
 34 35  2  0
 34 33  1  0
 35 36  1  0
 36 37  2  0
 38 37  1  0
 38 30  1  0
 39 41  2  0
 39 40  1  0
M  END
$$$$
