YWW.pdb
     RDKit          3D

 41 45  0  0  1  0  0  0  0  0999 V2000
    7.1069  -14.8112   13.0282 O   0  0  0  0  0  0  0  0  0  0  0  0
    7.4042  -14.6177   14.3547 C   0  0  0  0  0  0  0  0  0  0  0  0
    8.2511  -15.4907   15.0107 C   0  0  0  0  0  0  0  0  0  0  0  0
    8.5330  -15.2760   16.3360 C   0  0  0  0  0  0  0  0  0  0  0  0
    7.9868  -14.2143   17.0065 C   0  0  0  0  0  0  0  0  0  0  0  0
    8.3018  -14.0041   18.4206 C   0  0  0  0  0  0  0  0  0  0  0  0
    9.2477  -15.1310   18.8589 C   0  0  2  0  0  0  0  0  0  0  0  0
    8.7514  -16.3832   18.3564 N   0  0  0  0  0  0  0  0  0  0  0  0
    9.2662  -15.1327   20.3228 C   0  0  0  0  0  0  0  0  0  0  0  0
    9.7828  -14.1321   20.9211 O   0  0  0  0  0  0  0  0  0  0  0  0
    7.1448  -13.3440   16.3607 C   0  0  0  0  0  0  0  0  0  0  0  0
    6.8613  -13.5602   15.0265 C   0  0  0  0  0  0  0  0  0  0  0  0
    8.7597  -16.1527   21.1500 N   0  0  0  0  0  0  0  0  0  0  0  0
    8.7045  -15.9700   22.5771 C   0  0  1  0  0  0  0  0  0  0  0  0
    7.3985  -16.2218   23.2233 C   0  0  0  0  0  0  0  0  0  0  0  0
    7.2149  -15.7373   24.5910 C   0  0  0  0  0  0  0  0  0  0  0  0
    6.9302  -16.4593   25.7262 C   0  0  0  0  0  0  0  0  0  0  0  0
    6.8488  -15.5577   26.7254 N   0  0  0  0  0  0  0  0  0  0  0  0
    7.0660  -14.3075   26.2839 C   0  0  0  0  0  0  0  0  0  0  0  0
    7.0928  -13.0554   26.8799 C   0  0  0  0  0  0  0  0  0  0  0  0
    7.3444  -11.9092   26.1688 C   0  0  0  0  0  0  0  0  0  0  0  0
    7.5794  -12.0069   24.8109 C   0  0  0  0  0  0  0  0  0  0  0  0
    7.5572  -13.2387   24.2014 C   0  0  0  0  0  0  0  0  0  0  0  0
    7.3019  -14.3757   24.9374 C   0  0  0  0  0  0  0  0  0  0  0  0
    9.6755  -16.9476   23.1836 C   0  0  0  0  0  0  0  0  0  0  0  0
    9.8054  -18.0669   22.6488 O   0  0  0  0  0  0  0  0  0  0  0  0
   10.4360  -16.6516   24.3187 N   0  0  0  0  0  0  0  0  0  0  0  0
   11.5380  -17.5200   24.7947 C   0  0  1  0  0  0  0  0  0  0  0  0
   12.1952  -16.7170   25.8749 C   0  0  0  0  0  0  0  0  0  0  0  0
   11.4770  -16.7284   27.1537 C   0  0  0  0  0  0  0  0  0  0  0  0
   11.6230  -17.7079   28.1431 C   0  0  0  0  0  0  0  0  0  0  0  0
   10.7809  -17.3744   29.1182 N   0  0  0  0  0  0  0  0  0  0  0  0
   10.1113  -16.2540   28.8206 C   0  0  0  0  0  0  0  0  0  0  0  0
    9.1621  -15.4794   29.4578 C   0  0  0  0  0  0  0  0  0  0  0  0
    8.6353  -14.3379   28.9370 C   0  0  0  0  0  0  0  0  0  0  0  0
    9.0757  -13.9194   27.6854 C   0  0  0  0  0  0  0  0  0  0  0  0
   10.0193  -14.6619   27.0158 C   0  0  0  0  0  0  0  0  0  0  0  0
   10.5340  -15.8110   27.5645 C   0  0  0  0  0  0  0  0  0  0  0  0
   11.0059  -18.8049   25.2372 C   0  0  0  0  0  0  0  0  0  0  0  0
   11.7899  -19.9452   25.4536 O   0  0  0  0  0  0  0  0  0  0  0  0
    9.7446  -18.9205   25.4409 O   0  0  0  0  0  0  0  0  0  0  0  0
  2  1  1  0
  3  2  2  0
  4  3  1  0
  5  4  2  0
  5 11  1  0
  6  5  1  0
  7  6  1  0
  7  9  1  0
  7  8  1  1
  9 10  2  0
 11 12  2  0
 12  2  1  0
 13  9  1  0
 13 14  1  0
 14 25  1  0
 14 15  1  1
 16 15  1  0
 17 16  2  0
 18 17  1  0
 19 18  1  0
 19 24  2  0
 20 19  1  0
 21 20  2  0
 21 22  1  0
 22 23  2  0
 23 24  1  0
 24 16  1  0
 25 26  2  0
 27 25  1  0
 27 28  1  0
 28 29  1  1
 28 39  1  0
 30 29  1  0
 31 30  2  0
 32 31  1  0
 33 32  1  0
 33 38  2  0
 34 35  2  0
 34 33  1  0
 35 36  1  0
 36 37  2  0
 38 37  1  0
 38 30  1  0
 39 41  2  0
 39 40  1  0
M  END
$$$$
