CIC.pdb
     RDKit          3D

 21 20  0  0  1  0  0  0  0  0999 V2000
   27.7979  -32.3316  -16.1329 N   0  0  0  0  0  0  0  0  0  0  0  0
   27.8573  -31.4832  -17.2869 C   0  0  1  0  0  0  0  0  0  0  0  0
   27.3659  -32.1774  -18.5396 C   0  0  0  0  0  0  0  0  0  0  0  0
   28.5422  -33.4637  -19.0269 S   0  0  0  0  0  0  0  0  0  0  0  0
   27.1065  -30.2428  -17.0176 C   0  0  0  0  0  0  0  0  0  0  0  0
   26.1334  -30.2805  -16.1969 O   0  0  0  0  0  0  0  0  0  0  0  0
   29.6731  -25.5440  -16.6779 C   0  0  0  0  0  0  0  0  0  0  0  0
   28.7409  -26.6992  -16.3720 C   0  0  0  0  0  0  0  0  0  0  0  0
   27.5635  -26.5783  -17.3071 C   0  0  2  0  0  0  0  0  0  0  0  0
   26.7216  -25.4167  -16.8736 C   0  0  0  0  0  0  0  0  0  0  0  0
   26.6970  -27.8192  -17.2966 C   0  0  2  0  0  0  0  0  0  0  0  0
   27.4197  -29.0039  -17.6333 N   0  0  0  0  0  0  0  0  0  0  0  0
   25.5614  -27.6939  -18.2523 C   0  0  0  0  0  0  0  0  0  0  0  0
   25.6608  -28.0403  -19.4546 O   0  0  0  0  0  0  0  0  0  0  0  0
   24.3286  -27.1655  -17.7855 N   0  0  0  0  0  0  0  0  0  0  0  0
   23.1235  -27.1200  -18.5672 C   0  0  1  0  0  0  0  0  0  0  0  0
   22.8365  -28.4726  -19.1614 C   0  0  0  0  0  0  0  0  0  0  0  0
   21.2171  -28.5915  -19.9090 S   0  0  0  0  0  0  0  0  0  0  0  0
   22.0316  -26.5824  -17.7645 C   0  0  0  0  0  0  0  0  0  0  0  0
   22.0153  -26.8076  -16.5303 O   0  0  0  0  0  0  0  0  0  0  0  0
   20.9843  -25.8228  -18.2734 O   0  0  0  0  0  0  0  0  0  0  0  0
  2  3  1  0
  2  1  1  1
  4  3  1  0
  5  6  2  0
  5  2  1  0
  8  7  1  0
  8  9  1  0
  9 10  1  1
  9 11  1  0
 11 12  1  6
 12  5  1  0
 13 15  1  0
 13 11  1  0
 14 13  2  0
 16 15  1  0
 16 19  1  0
 16 17  1  1
 17 18  1  0
 19 21  1  0
 20 19  2  0
M  END
$$$$
