CIC.pdb
     RDKit          3D

 21 20  0  0  1  0  0  0  0  0999 V2000
   28.5833  -21.9271  -16.2887 N   0  0  0  0  0  0  0  0  0  0  0  0
   27.9532  -20.8182  -15.6344 C   0  0  1  0  0  0  0  0  0  0  0  0
   27.3381  -19.8425  -16.6154 C   0  0  0  0  0  0  0  0  0  0  0  0
   28.6266  -18.7743  -17.3042 S   0  0  0  0  0  0  0  0  0  0  0  0
   26.9597  -21.3239  -14.6689 C   0  0  0  0  0  0  0  0  0  0  0  0
   26.4366  -22.4676  -14.8691 O   0  0  0  0  0  0  0  0  0  0  0  0
   25.3328  -21.0046   -8.8135 C   0  0  0  0  0  0  0  0  0  0  0  0
   24.8787  -21.3470  -10.2183 C   0  0  0  0  0  0  0  0  0  0  0  0
   25.9423  -20.8449  -11.1627 C   0  0  2  0  0  0  0  0  0  0  0  0
   26.0697  -19.3607  -10.9994 C   0  0  0  0  0  0  0  0  0  0  0  0
   25.6029  -21.1333  -12.6093 C   0  0  2  0  0  0  0  0  0  0  0  0
   26.5581  -20.5917  -13.5222 N   0  0  0  0  0  0  0  0  0  0  0  0
   24.2670  -20.5829  -12.9714 C   0  0  0  0  0  0  0  0  0  0  0  0
   24.0682  -19.3509  -13.1068 O   0  0  0  0  0  0  0  0  0  0  0  0
   23.1863  -21.4827  -13.1691 N   0  0  0  0  0  0  0  0  0  0  0  0
   21.8750  -21.0848  -13.6020 C   0  0  1  0  0  0  0  0  0  0  0  0
   21.3500  -22.0511  -14.6295 C   0  0  0  0  0  0  0  0  0  0  0  0
   22.4927  -22.3531  -15.9706 S   0  0  0  0  0  0  0  0  0  0  0  0
   21.0011  -20.9162  -12.4472 C   0  0  0  0  0  0  0  0  0  0  0  0
   21.2251  -21.5878  -11.4112 O   0  0  0  0  0  0  0  0  0  0  0  0
   19.9151  -20.0493  -12.4053 O   0  0  0  0  0  0  0  0  0  0  0  0
  2  3  1  0
  2  1  1  6
  4  3  1  0
  5  6  2  0
  5  2  1  0
  8  7  1  0
  8  9  1  0
  9 10  1  6
  9 11  1  0
 11 12  1  6
 12  5  1  0
 13 15  1  0
 13 11  1  0
 14 13  2  0
 16 15  1  0
 16 19  1  0
 16 17  1  6
 17 18  1  0
 19 21  1  0
 20 19  2  0
M  END
$$$$
