CIC.pdb
     RDKit          3D

 21 20  0  0  1  0  0  0  0  0999 V2000
   21.9465  -20.2317  -17.6306 N   0  0  0  0  0  0  0  0  0  0  0  0
   22.2386  -19.6927  -16.3349 C   0  0  1  0  0  0  0  0  0  0  0  0
   21.3354  -20.2563  -15.2582 C   0  0  0  0  0  0  0  0  0  0  0  0
   19.6302  -19.7247  -15.5509 S   0  0  0  0  0  0  0  0  0  0  0  0
   23.6635  -19.9144  -16.0260 C   0  0  0  0  0  0  0  0  0  0  0  0
   24.2615  -20.9016  -16.5642 O   0  0  0  0  0  0  0  0  0  0  0  0
   26.7652  -15.7110  -15.3772 C   0  0  0  0  0  0  0  0  0  0  0  0
   26.5684  -17.1261  -15.8827 C   0  0  0  0  0  0  0  0  0  0  0  0
   26.5689  -18.0318  -14.6765 C   0  0  2  0  0  0  0  0  0  0  0  0
   27.9846  -18.4019  -14.3527 C   0  0  0  0  0  0  0  0  0  0  0  0
   25.7917  -19.3074  -14.9207 C   0  0  2  0  0  0  0  0  0  0  0  0
   24.4020  -19.0749  -15.1531 N   0  0  0  0  0  0  0  0  0  0  0  0
   25.9082  -20.2411  -13.7661 C   0  0  0  0  0  0  0  0  0  0  0  0
   26.9550  -20.8966  -13.5420 O   0  0  0  0  0  0  0  0  0  0  0  0
   24.7985  -20.3925  -12.8930 N   0  0  0  0  0  0  0  0  0  0  0  0
   24.8791  -20.9697  -11.5794 C   0  0  1  0  0  0  0  0  0  0  0  0
   25.8598  -20.2036  -10.7329 C   0  0  0  0  0  0  0  0  0  0  0  0
   25.8411  -20.6852   -9.0115 S   0  0  0  0  0  0  0  0  0  0  0  0
   23.5457  -21.0679  -10.9979 C   0  0  0  0  0  0  0  0  0  0  0  0
   22.6784  -20.2191  -11.3172 O   0  0  0  0  0  0  0  0  0  0  0  0
   23.1532  -22.0515  -10.0972 O   0  0  0  0  0  0  0  0  0  0  0  0
  2  3  1  0
  2  1  1  6
  4  3  1  0
  5  6  2  0
  5  2  1  0
  8  7  1  0
  8  9  1  0
  9 10  1  6
  9 11  1  0
 11 12  1  1
 12  5  1  0
 13 15  1  0
 13 11  1  0
 14 13  2  0
 16 15  1  0
 16 19  1  0
 16 17  1  1
 17 18  1  0
 19 21  1  0
 20 19  2  0
M  END
$$$$
