CIC.pdb
     RDKit          3D

 21 20  0  0  1  0  0  0  0  0999 V2000
   13.7860  -12.2420  -11.3120 N   0  0  0  0  0  0  0  0  0  0  0  0
   15.0081  -11.7474  -10.7492 C   0  0  1  0  0  0  0  0  0  0  0  0
   16.2286  -12.4319  -11.3276 C   0  0  0  0  0  0  0  0  0  0  0  0
   16.2542  -14.1684  -10.8181 S   0  0  0  0  0  0  0  0  0  0  0  0
   15.0665  -10.2841  -10.9237 C   0  0  0  0  0  0  0  0  0  0  0  0
   14.4510   -9.7584  -11.9070 O   0  0  0  0  0  0  0  0  0  0  0  0
   14.0800   -6.5111   -7.1734 C   0  0  0  0  0  0  0  0  0  0  0  0
   14.1518   -7.3232   -8.4510 C   0  0  0  0  0  0  0  0  0  0  0  0
   15.5755   -7.2493   -8.9438 C   0  0  2  0  0  0  0  0  0  0  0  0
   15.9242   -5.8137   -9.1954 C   0  0  0  0  0  0  0  0  0  0  0  0
   15.7731   -8.0161  -10.2336 C   0  0  2  0  0  0  0  0  0  0  0  0
   15.7798   -9.4313  -10.0428 N   0  0  0  0  0  0  0  0  0  0  0  0
   17.0545   -7.6418  -10.8944 C   0  0  0  0  0  0  0  0  0  0  0  0
   18.1624   -7.7630  -10.3170 O   0  0  0  0  0  0  0  0  0  0  0  0
   17.0183   -7.1319  -12.2193 N   0  0  0  0  0  0  0  0  0  0  0  0
   18.1691   -6.6388  -12.9250 C   0  0  1  0  0  0  0  0  0  0  0  0
   18.4451   -7.4930  -14.1330 C   0  0  0  0  0  0  0  0  0  0  0  0
   18.4375   -9.2456  -13.7810 S   0  0  0  0  0  0  0  0  0  0  0  0
   17.9962   -5.2232  -13.2281 C   0  0  0  0  0  0  0  0  0  0  0  0
   16.8521   -4.7163  -13.1359 O   0  0  0  0  0  0  0  0  0  0  0  0
   19.0245   -4.3737  -13.6201 O   0  0  0  0  0  0  0  0  0  0  0  0
  2  3  1  0
  2  1  1  6
  4  3  1  0
  5  6  2  0
  5  2  1  0
  8  7  1  0
  8  9  1  0
  9 10  1  6
  9 11  1  0
 11 12  1  1
 12  5  1  0
 13 15  1  0
 13 11  1  0
 14 13  2  0
 16 15  1  0
 16 19  1  0
 16 17  1  6
 17 18  1  0
 19 21  1  0
 20 19  2  0
M  END
$$$$
