CIC.pdb
     RDKit          3D

 21 20  0  0  1  0  0  0  0  0999 V2000
   28.6239  -20.4404  -15.4785 N   0  0  0  0  0  0  0  0  0  0  0  0
   27.7593  -19.5207  -14.7992 C   0  0  1  0  0  0  0  0  0  0  0  0
   27.2089  -18.4554  -15.7239 C   0  0  0  0  0  0  0  0  0  0  0  0
   28.5493  -17.3694  -16.2713 S   0  0  0  0  0  0  0  0  0  0  0  0
   26.6828  -20.2717  -14.1267 C   0  0  0  0  0  0  0  0  0  0  0  0
   26.2943  -21.3735  -14.6335 O   0  0  0  0  0  0  0  0  0  0  0  0
   26.5189  -21.8881  -10.3903 C   0  0  0  0  0  0  0  0  0  0  0  0
   26.0449  -20.4820  -10.0817 C   0  0  0  0  0  0  0  0  0  0  0  0
   24.7880  -20.2520  -10.8831 C   0  0  2  0  0  0  0  0  0  0  0  0
   23.7101  -21.1505  -10.3569 C   0  0  0  0  0  0  0  0  0  0  0  0
   24.9837  -20.5598  -12.3521 C   0  0  2  0  0  0  0  0  0  0  0  0
   26.0575  -19.8213  -12.9358 N   0  0  0  0  0  0  0  0  0  0  0  0
   23.7518  -20.2643  -13.1354 C   0  0  0  0  0  0  0  0  0  0  0  0
   23.3742  -19.0896  -13.3657 O   0  0  0  0  0  0  0  0  0  0  0  0
   22.9823  -21.3477  -13.6361 N   0  0  0  0  0  0  0  0  0  0  0  0
   21.7350  -21.1961  -14.3337 C   0  0  1  0  0  0  0  0  0  0  0  0
   21.8146  -21.8432  -15.6902 C   0  0  0  0  0  0  0  0  0  0  0  0
   20.2508  -21.8748  -16.5556 S   0  0  0  0  0  0  0  0  0  0  0  0
   20.6405  -21.6889  -13.5062 C   0  0  0  0  0  0  0  0  0  0  0  0
   20.8419  -22.6721  -12.7532 O   0  0  0  0  0  0  0  0  0  0  0  0
   19.3631  -21.1408  -13.4874 O   0  0  0  0  0  0  0  0  0  0  0  0
  2  3  1  0
  2  1  1  6
  4  3  1  0
  5  6  2  0
  5  2  1  0
  8  7  1  0
  8  9  1  0
  9 10  1  1
  9 11  1  0
 11 12  1  6
 12  5  1  0
 13 15  1  0
 13 11  1  0
 14 13  2  0
 16 15  1  0
 16 19  1  0
 16 17  1  6
 17 18  1  0
 19 21  1  0
 20 19  2  0
M  END
$$$$
