CIC.pdb
     RDKit          3D

 21 20  0  0  1  0  0  0  0  0999 V2000
   18.2872  -13.3224  -17.7564 N   0  0  0  0  0  0  0  0  0  0  0  0
   19.1206  -12.3365  -18.3795 C   0  0  1  0  0  0  0  0  0  0  0  0
   18.4243  -11.6326  -19.5251 C   0  0  0  0  0  0  0  0  0  0  0  0
   17.9930  -12.8337  -20.8086 S   0  0  0  0  0  0  0  0  0  0  0  0
   19.5937  -11.3839  -17.3578 C   0  0  0  0  0  0  0  0  0  0  0  0
   18.8156  -11.0778  -16.3972 O   0  0  0  0  0  0  0  0  0  0  0  0
   24.3023  -11.5509  -14.8997 C   0  0  0  0  0  0  0  0  0  0  0  0
   22.8335  -11.3913  -15.2372 C   0  0  0  0  0  0  0  0  0  0  0  0
   22.6745  -10.0452  -15.8990 C   0  0  2  0  0  0  0  0  0  0  0  0
   22.9743   -8.9755  -14.8931 C   0  0  0  0  0  0  0  0  0  0  0  0
   21.2690   -9.8263  -16.4162 C   0  0  2  0  0  0  0  0  0  0  0  0
   20.8815  -10.7903  -17.3959 N   0  0  0  0  0  0  0  0  0  0  0  0
   21.1214   -8.4755  -17.0261 C   0  0  0  0  0  0  0  0  0  0  0  0
   21.3993   -8.2538  -18.2300 O   0  0  0  0  0  0  0  0  0  0  0  0
   20.6513   -7.4067  -16.2178 N   0  0  0  0  0  0  0  0  0  0  0  0
   20.2526   -6.1242  -16.7292 C   0  0  1  0  0  0  0  0  0  0  0  0
   19.1860   -6.2902  -17.7781 C   0  0  0  0  0  0  0  0  0  0  0  0
   18.6122   -4.7405  -18.4598 S   0  0  0  0  0  0  0  0  0  0  0  0
   19.8689   -5.2486  -15.6284 C   0  0  0  0  0  0  0  0  0  0  0  0
   19.3231   -5.7482  -14.6151 O   0  0  0  0  0  0  0  0  0  0  0  0
   20.0660   -3.8724  -15.6155 O   0  0  0  0  0  0  0  0  0  0  0  0
  2  3  1  0
  2  1  1  1
  4  3  1  0
  5  6  2  0
  5  2  1  0
  8  7  1  0
  8  9  1  0
  9 10  1  1
  9 11  1  0
 11 12  1  6
 12  5  1  0
 13 15  1  0
 13 11  1  0
 14 13  2  0
 16 15  1  0
 16 19  1  0
 16 17  1  6
 17 18  1  0
 19 21  1  0
 20 19  2  0
M  END
$$$$
