CIC.pdb
     RDKit          3D

 21 20  0  0  1  0  0  0  0  0999 V2000
   20.1407  -13.2908  -17.3087 N   0  0  0  0  0  0  0  0  0  0  0  0
   20.7473  -12.1189  -17.8684 C   0  0  1  0  0  0  0  0  0  0  0  0
   19.7619  -11.2764  -18.6507 C   0  0  0  0  0  0  0  0  0  0  0  0
   19.0152  -12.2718  -19.9650 S   0  0  0  0  0  0  0  0  0  0  0  0
   21.3957  -11.3461  -16.7926 C   0  0  0  0  0  0  0  0  0  0  0  0
   20.8478  -11.3153  -15.6433 O   0  0  0  0  0  0  0  0  0  0  0  0
   26.5471  -11.6954  -15.5484 C   0  0  0  0  0  0  0  0  0  0  0  0
   25.0360  -11.5825  -15.5298 C   0  0  0  0  0  0  0  0  0  0  0  0
   24.6962  -10.1371  -15.7960 C   0  0  2  0  0  0  0  0  0  0  0  0
   25.2166   -9.3037  -14.6643 C   0  0  0  0  0  0  0  0  0  0  0  0
   23.2031   -9.9121  -15.9002 C   0  0  2  0  0  0  0  0  0  0  0  0
   22.6071  -10.6322  -16.9798 N   0  0  0  0  0  0  0  0  0  0  0  0
   22.8855   -8.4690  -16.0878 C   0  0  0  0  0  0  0  0  0  0  0  0
   23.0646   -7.8842  -17.1840 O   0  0  0  0  0  0  0  0  0  0  0  0
   22.3639   -7.7342  -14.9903 N   0  0  0  0  0  0  0  0  0  0  0  0
   22.0234   -6.3390  -15.0431 C   0  0  1  0  0  0  0  0  0  0  0  0
   20.5359   -6.1712  -15.1992 C   0  0  0  0  0  0  0  0  0  0  0  0
   19.9773   -4.4950  -14.9279 S   0  0  0  0  0  0  0  0  0  0  0  0
   22.5786   -5.6486  -13.8853 C   0  0  0  0  0  0  0  0  0  0  0  0
   22.6327   -6.2507  -12.7858 O   0  0  0  0  0  0  0  0  0  0  0  0
   23.0631   -4.3457  -13.9068 O   0  0  0  0  0  0  0  0  0  0  0  0
  2  3  1  0
  2  1  1  1
  4  3  1  0
  5  6  2  0
  5  2  1  0
  8  7  1  0
  8  9  1  0
  9 10  1  1
  9 11  1  0
 11 12  1  6
 12  5  1  0
 13 15  1  0
 13 11  1  0
 14 13  2  0
 16 15  1  0
 16 19  1  0
 16 17  1  1
 17 18  1  0
 19 21  1  0
 20 19  2  0
M  END
$$$$
