CIC.pdb
     RDKit          3D

 21 20  0  0  1  0  0  0  0  0999 V2000
   17.1267  -10.0752  -10.1477 N   0  0  0  0  0  0  0  0  0  0  0  0
   16.3107   -9.6947  -11.2631 C   0  0  1  0  0  0  0  0  0  0  0  0
   15.3058  -10.7646  -11.6347 C   0  0  0  0  0  0  0  0  0  0  0  0
   16.1671  -12.3189  -11.9787 S   0  0  0  0  0  0  0  0  0  0  0  0
   15.6557   -8.4064  -10.9692 C   0  0  0  0  0  0  0  0  0  0  0  0
   14.8779   -7.9005  -11.8415 O   0  0  0  0  0  0  0  0  0  0  0  0
   12.8267   -7.3045   -6.6346 C   0  0  0  0  0  0  0  0  0  0  0  0
   13.3721   -7.4060   -8.0450 C   0  0  0  0  0  0  0  0  0  0  0  0
   14.5096   -6.4211   -8.1523 C   0  0  2  0  0  0  0  0  0  0  0  0
   13.9707   -5.0383   -7.9435 C   0  0  0  0  0  0  0  0  0  0  0  0
   15.1779   -6.4673   -9.5095 C   0  0  2  0  0  0  0  0  0  0  0  0
   15.8531   -7.7016   -9.7541 N   0  0  0  0  0  0  0  0  0  0  0  0
   16.1726   -5.3689   -9.6601 C   0  0  0  0  0  0  0  0  0  0  0  0
   17.2941   -5.4035   -9.0974 O   0  0  0  0  0  0  0  0  0  0  0  0
   15.8388   -4.2484  -10.4663 N   0  0  0  0  0  0  0  0  0  0  0  0
   16.6981   -3.1138  -10.6653 C   0  0  1  0  0  0  0  0  0  0  0  0
   16.9425   -2.8966  -12.1343 C   0  0  0  0  0  0  0  0  0  0  0  0
   17.6452   -4.3200  -12.9562 S   0  0  0  0  0  0  0  0  0  0  0  0
   16.1508   -1.9504   -9.9779 C   0  0  0  0  0  0  0  0  0  0  0  0
   14.9137   -1.8879   -9.7777 O   0  0  0  0  0  0  0  0  0  0  0  0
   16.9114   -0.8816   -9.5175 O   0  0  0  0  0  0  0  0  0  0  0  0
  2  3  1  0
  2  1  1  1
  4  3  1  0
  5  6  2  0
  5  2  1  0
  8  7  1  0
  8  9  1  0
  9 10  1  6
  9 11  1  0
 11 12  1  1
 12  5  1  0
 13 15  1  0
 13 11  1  0
 14 13  2  0
 16 15  1  0
 16 19  1  0
 16 17  1  6
 17 18  1  0
 19 21  1  0
 20 19  2  0
M  END
$$$$
