CIC.pdb
     RDKit          3D

 21 20  0  0  1  0  0  0  0  0999 V2000
   28.3213  -20.8687  -15.8137 N   0  0  0  0  0  0  0  0  0  0  0  0
   27.7464  -19.9111  -14.9151 C   0  0  1  0  0  0  0  0  0  0  0  0
   27.3251  -18.6387  -15.6196 C   0  0  0  0  0  0  0  0  0  0  0  0
   28.7836  -17.7929  -16.2777 S   0  0  0  0  0  0  0  0  0  0  0  0
   26.6222  -20.5356  -14.1932 C   0  0  0  0  0  0  0  0  0  0  0  0
   25.9754  -21.4751  -14.7598 O   0  0  0  0  0  0  0  0  0  0  0  0
   26.1311  -20.6274   -8.6210 C   0  0  0  0  0  0  0  0  0  0  0  0
   26.1750  -21.1123  -10.0561 C   0  0  0  0  0  0  0  0  0  0  0  0
   25.0230  -20.4608  -10.7797 C   0  0  2  0  0  0  0  0  0  0  0  0
   23.7402  -21.0307  -10.2546 C   0  0  0  0  0  0  0  0  0  0  0  0
   25.0735  -20.7082  -12.2720 C   0  0  2  0  0  0  0  0  0  0  0  0
   26.2263  -20.1362  -12.8910 N   0  0  0  0  0  0  0  0  0  0  0  0
   23.8708  -20.1532  -12.9532 C   0  0  0  0  0  0  0  0  0  0  0  0
   23.7740  -18.9372  -13.2489 O   0  0  0  0  0  0  0  0  0  0  0  0
   22.8015  -21.0299  -13.2771 N   0  0  0  0  0  0  0  0  0  0  0  0
   21.6131  -20.6274  -13.9777 C   0  0  1  0  0  0  0  0  0  0  0  0
   21.7354  -20.9540  -15.4418 C   0  0  0  0  0  0  0  0  0  0  0  0
   22.2472  -22.6381  -15.7541 S   0  0  0  0  0  0  0  0  0  0  0  0
   20.4391  -21.2086  -13.3378 C   0  0  0  0  0  0  0  0  0  0  0  0
   20.5976  -22.1059  -12.4751 O   0  0  0  0  0  0  0  0  0  0  0  0
   19.1288  -20.8365  -13.6164 O   0  0  0  0  0  0  0  0  0  0  0  0
  2  3  1  0
  2  1  1  6
  4  3  1  0
  5  6  2  0
  5  2  1  0
  8  7  1  0
  8  9  1  0
  9 10  1  1
  9 11  1  0
 11 12  1  6
 12  5  1  0
 13 15  1  0
 13 11  1  0
 14 13  2  0
 16 15  1  0
 16 19  1  0
 16 17  1  6
 17 18  1  0
 19 21  1  0
 20 19  2  0
M  END
$$$$
