CIC.pdb
     RDKit          3D

 21 20  0  0  1  0  0  0  0  0999 V2000
   22.0350  -11.6022  -16.8666 N   0  0  0  0  0  0  0  0  0  0  0  0
   21.7106  -11.0529  -15.5830 C   0  0  1  0  0  0  0  0  0  0  0  0
   22.7416  -10.0516  -15.1062 C   0  0  0  0  0  0  0  0  0  0  0  0
   24.2902  -10.9055  -14.7209 S   0  0  0  0  0  0  0  0  0  0  0  0
   20.3588  -10.4655  -15.6331 C   0  0  0  0  0  0  0  0  0  0  0  0
   19.9490   -9.9616  -16.7286 O   0  0  0  0  0  0  0  0  0  0  0  0
   16.0189  -12.9651  -13.8613 C   0  0  0  0  0  0  0  0  0  0  0  0
   16.9562  -12.1153  -14.6957 C   0  0  0  0  0  0  0  0  0  0  0  0
   17.1268  -10.8027  -13.9724 C   0  0  2  0  0  0  0  0  0  0  0  0
   15.8174  -10.0737  -13.9823 C   0  0  0  0  0  0  0  0  0  0  0  0
   18.1640   -9.9190  -14.6312 C   0  0  2  0  0  0  0  0  0  0  0  0
   19.4899  -10.4357  -14.5122 N   0  0  0  0  0  0  0  0  0  0  0  0
   18.1572   -8.5490  -14.0466 C   0  0  0  0  0  0  0  0  0  0  0  0
   18.6671   -8.2995  -12.9271 O   0  0  0  0  0  0  0  0  0  0  0  0
   17.5541   -7.4940  -14.7813 N   0  0  0  0  0  0  0  0  0  0  0  0
   17.5236   -6.1242  -14.3475 C   0  0  1  0  0  0  0  0  0  0  0  0
   18.5734   -5.3249  -15.0714 C   0  0  0  0  0  0  0  0  0  0  0  0
   18.5526   -3.5857  -14.6590 S   0  0  0  0  0  0  0  0  0  0  0  0
   16.1739   -5.5902  -14.4847 C   0  0  0  0  0  0  0  0  0  0  0  0
   15.4488   -6.0021  -15.4223 O   0  0  0  0  0  0  0  0  0  0  0  0
   15.6169   -4.6389  -13.6376 O   0  0  0  0  0  0  0  0  0  0  0  0
  2  3  1  0
  2  1  1  6
  4  3  1  0
  5  6  2  0
  5  2  1  0
  8  7  1  0
  8  9  1  0
  9 10  1  6
  9 11  1  0
 11 12  1  1
 12  5  1  0
 13 15  1  0
 13 11  1  0
 14 13  2  0
 16 15  1  0
 16 19  1  0
 16 17  1  6
 17 18  1  0
 19 21  1  0
 20 19  2  0
M  END
$$$$
