CIC.pdb
     RDKit          3D

 21 20  0  0  1  0  0  0  0  0999 V2000
   20.5907  -11.8325  -19.9685 N   0  0  0  0  0  0  0  0  0  0  0  0
   21.4720  -10.7253  -19.7398 C   0  0  1  0  0  0  0  0  0  0  0  0
   21.3346   -9.6501  -20.7969 C   0  0  0  0  0  0  0  0  0  0  0  0
   22.1099  -10.2035  -22.3359 S   0  0  0  0  0  0  0  0  0  0  0  0
   21.2421  -10.1929  -18.3838 C   0  0  0  0  0  0  0  0  0  0  0  0
   20.0455  -10.0892  -17.9602 O   0  0  0  0  0  0  0  0  0  0  0  0
   21.6158  -11.5137  -14.3062 C   0  0  0  0  0  0  0  0  0  0  0  0
   22.9355  -11.1953  -14.9800 C   0  0  0  0  0  0  0  0  0  0  0  0
   22.9847   -9.7003  -15.1742 C   0  0  2  0  0  0  0  0  0  0  0  0
   22.6148   -9.0345  -13.8835 C   0  0  0  0  0  0  0  0  0  0  0  0
   22.0187   -9.2315  -16.2409 C   0  0  2  0  0  0  0  0  0  0  0  0
   22.2970   -9.7892  -17.5257 N   0  0  0  0  0  0  0  0  0  0  0  0
   22.0405   -7.7484  -16.3762 C   0  0  0  0  0  0  0  0  0  0  0  0
   22.9856   -7.1443  -16.9396 O   0  0  0  0  0  0  0  0  0  0  0  0
   20.9565   -6.9967  -15.8501 N   0  0  0  0  0  0  0  0  0  0  0  0
   20.7639   -5.5911  -16.0791 C   0  0  1  0  0  0  0  0  0  0  0  0
   20.8151   -5.2915  -17.5532 C   0  0  0  0  0  0  0  0  0  0  0  0
   20.4575   -3.5843  -17.9444 S   0  0  0  0  0  0  0  0  0  0  0  0
   19.5385   -5.1455  -15.4268 C   0  0  0  0  0  0  0  0  0  0  0  0
   18.5913   -5.9572  -15.2913 O   0  0  0  0  0  0  0  0  0  0  0  0
   19.3349   -3.8620  -14.9328 O   0  0  0  0  0  0  0  0  0  0  0  0
  2  3  1  0
  2  1  1  6
  4  3  1  0
  5  6  2  0
  5  2  1  0
  8  7  1  0
  8  9  1  0
  9 10  1  1
  9 11  1  0
 11 12  1  6
 12  5  1  0
 13 15  1  0
 13 11  1  0
 14 13  2  0
 16 15  1  0
 16 19  1  0
 16 17  1  6
 17 18  1  0
 19 21  1  0
 20 19  2  0
M  END
$$$$
