CIC.pdb
     RDKit          3D

 21 20  0  0  1  0  0  0  0  0999 V2000
   14.7343  -12.7198  -12.1505 N   0  0  0  0  0  0  0  0  0  0  0  0
   15.5274  -11.9552  -11.2333 C   0  0  1  0  0  0  0  0  0  0  0  0
   17.0027  -11.9976  -11.5714 C   0  0  0  0  0  0  0  0  0  0  0  0
   17.6428  -13.6695  -11.3057 S   0  0  0  0  0  0  0  0  0  0  0  0
   15.0161  -10.5728  -11.1839 C   0  0  0  0  0  0  0  0  0  0  0  0
   14.5578  -10.0496  -12.2508 O   0  0  0  0  0  0  0  0  0  0  0  0
   11.5132   -8.6260   -7.6523 C   0  0  0  0  0  0  0  0  0  0  0  0
   12.3135   -8.9684   -8.8929 C   0  0  0  0  0  0  0  0  0  0  0  0
   13.5934   -8.1726   -8.8283 C   0  0  2  0  0  0  0  0  0  0  0  0
   13.2543   -6.7130   -8.8467 C   0  0  0  0  0  0  0  0  0  0  0  0
   14.5039   -8.4606  -10.0026 C   0  0  2  0  0  0  0  0  0  0  0  0
   15.0114   -9.7954   -9.9974 N   0  0  0  0  0  0  0  0  0  0  0  0
   15.6689   -7.5327  -10.0238 C   0  0  0  0  0  0  0  0  0  0  0  0
   16.5345   -7.5289   -9.1148 O   0  0  0  0  0  0  0  0  0  0  0  0
   15.8018   -6.6250  -11.1078 N   0  0  0  0  0  0  0  0  0  0  0  0
   16.8474   -5.6449  -11.2149 C   0  0  1  0  0  0  0  0  0  0  0  0
   17.6624   -5.8860  -12.4570 C   0  0  0  0  0  0  0  0  0  0  0  0
   18.2518   -7.5670  -12.6052 S   0  0  0  0  0  0  0  0  0  0  0  0
   16.2812   -4.3041  -11.1295 C   0  0  0  0  0  0  0  0  0  0  0  0
   15.0576   -4.1445  -11.3570 O   0  0  0  0  0  0  0  0  0  0  0  0
   17.0093   -3.1641  -10.8084 O   0  0  0  0  0  0  0  0  0  0  0  0
  2  3  1  0
  2  1  1  6
  4  3  1  0
  5  6  2  0
  5  2  1  0
  8  7  1  0
  8  9  1  0
  9 10  1  6
  9 11  1  0
 11 12  1  1
 12  5  1  0
 13 15  1  0
 13 11  1  0
 14 13  2  0
 16 15  1  0
 16 19  1  0
 16 17  1  6
 17 18  1  0
 19 21  1  0
 20 19  2  0
M  END
$$$$
