CIC.pdb
     RDKit          3D

 21 20  0  0  1  0  0  0  0  0999 V2000
    9.5510  -22.9905   -0.3649 N   0  0  0  0  0  0  0  0  0  0  0  0
   10.2088  -21.7310   -0.1762 C   0  0  1  0  0  0  0  0  0  0  0  0
    9.3144  -20.7067    0.4897 C   0  0  0  0  0  0  0  0  0  0  0  0
    8.1009  -20.0881   -0.7022 S   0  0  0  0  0  0  0  0  0  0  0  0
   11.4568  -21.9429    0.5805 C   0  0  0  0  0  0  0  0  0  0  0  0
   11.4518  -22.7627    1.5550 O   0  0  0  0  0  0  0  0  0  0  0  0
   15.2114  -23.1447   -2.0344 C   0  0  0  0  0  0  0  0  0  0  0  0
   14.8070  -23.2894   -0.5810 C   0  0  0  0  0  0  0  0  0  0  0  0
   15.0170  -21.9466    0.0733 C   0  0  2  0  0  0  0  0  0  0  0  0
   16.2681  -22.0024    0.8965 C   0  0  0  0  0  0  0  0  0  0  0  0
   13.8687  -21.5705    0.9848 C   0  0  2  0  0  0  0  0  0  0  0  0
   12.6681  -21.2726    0.2713 N   0  0  0  0  0  0  0  0  0  0  0  0
   14.2067  -20.3836    1.8188 C   0  0  0  0  0  0  0  0  0  0  0  0
   13.9777  -19.2112    1.4335 O   0  0  0  0  0  0  0  0  0  0  0  0
   14.8069  -20.5880    3.0895 N   0  0  0  0  0  0  0  0  0  0  0  0
   15.0806  -19.5367    4.0303 C   0  0  1  0  0  0  0  0  0  0  0  0
   13.8239  -18.7637    4.3280 C   0  0  0  0  0  0  0  0  0  0  0  0
   14.0499  -17.4858    5.5574 S   0  0  0  0  0  0  0  0  0  0  0  0
   15.7315  -20.0865    5.2134 C   0  0  0  0  0  0  0  0  0  0  0  0
   15.5071  -21.2791    5.5325 O   0  0  0  0  0  0  0  0  0  0  0  0
   16.6005  -19.3750    6.0326 O   0  0  0  0  0  0  0  0  0  0  0  0
  2  3  1  0
  2  1  1  1
  4  3  1  0
  5  6  2  0
  5  2  1  0
  8  7  1  0
  8  9  1  0
  9 10  1  1
  9 11  1  0
 11 12  1  6
 12  5  1  0
 13 15  1  0
 13 11  1  0
 14 13  2  0
 16 15  1  0
 16 19  1  0
 16 17  1  1
 17 18  1  0
 19 21  1  0
 20 19  2  0
M  END
$$$$
