CIC.pdb
     RDKit          3D

 21 20  0  0  1  0  0  0  0  0999 V2000
   24.1323  -26.2258  -15.1637 N   0  0  0  0  0  0  0  0  0  0  0  0
   24.4918  -24.8811  -15.5060 C   0  0  1  0  0  0  0  0  0  0  0  0
   24.2702  -24.5799  -16.9732 C   0  0  0  0  0  0  0  0  0  0  0  0
   25.4545  -25.5133  -17.9743 S   0  0  0  0  0  0  0  0  0  0  0  0
   23.7547  -23.9446  -14.6371 C   0  0  0  0  0  0  0  0  0  0  0  0
   22.5850  -24.2619  -14.2460 O   0  0  0  0  0  0  0  0  0  0  0  0
   26.0351  -21.2062  -10.5611 C   0  0  0  0  0  0  0  0  0  0  0  0
   25.1519  -22.0499  -11.4583 C   0  0  0  0  0  0  0  0  0  0  0  0
   24.4017  -21.1018  -12.3602 C   0  0  2  0  0  0  0  0  0  0  0  0
   23.5097  -20.2406  -11.5184 C   0  0  0  0  0  0  0  0  0  0  0  0
   23.5392  -21.8335  -13.3659 C   0  0  2  0  0  0  0  0  0  0  0  0
   24.2911  -22.7011  -14.2151 N   0  0  0  0  0  0  0  0  0  0  0  0
   22.7958  -20.8800  -14.2359 C   0  0  0  0  0  0  0  0  0  0  0  0
   23.3848  -20.0555  -14.9767 O   0  0  0  0  0  0  0  0  0  0  0  0
   21.3760  -20.9070  -14.2248 N   0  0  0  0  0  0  0  0  0  0  0  0
   20.5466  -19.9953  -14.9638 C   0  0  1  0  0  0  0  0  0  0  0  0
   19.7603  -20.7376  -16.0106 C   0  0  0  0  0  0  0  0  0  0  0  0
   20.7714  -21.7806  -17.0524 S   0  0  0  0  0  0  0  0  0  0  0  0
   19.7230  -19.2181  -14.0454 C   0  0  0  0  0  0  0  0  0  0  0  0
   19.7198  -19.5191  -12.8273 O   0  0  0  0  0  0  0  0  0  0  0  0
   18.9236  -18.1457  -14.4245 O   0  0  0  0  0  0  0  0  0  0  0  0
  2  3  1  0
  2  1  1  6
  4  3  1  0
  5  6  2  0
  5  2  1  0
  8  7  1  0
  8  9  1  0
  9 10  1  1
  9 11  1  0
 11 12  1  6
 12  5  1  0
 13 15  1  0
 13 11  1  0
 14 13  2  0
 16 15  1  0
 16 19  1  0
 16 17  1  6
 17 18  1  0
 19 21  1  0
 20 19  2  0
M  END
$$$$
