CIC.pdb
     RDKit          3D

 21 20  0  0  1  0  0  0  0  0999 V2000
   21.6933  -13.9971  -18.4946 N   0  0  0  0  0  0  0  0  0  0  0  0
   22.4144  -12.8619  -18.9907 C   0  0  1  0  0  0  0  0  0  0  0  0
   21.6590  -12.1289  -20.0791 C   0  0  0  0  0  0  0  0  0  0  0  0
   21.5975  -13.1483  -21.5733 S   0  0  0  0  0  0  0  0  0  0  0  0
   22.7543  -11.9719  -17.8650 C   0  0  0  0  0  0  0  0  0  0  0  0
   21.9276  -11.8562  -16.9031 O   0  0  0  0  0  0  0  0  0  0  0  0
   27.6793  -11.6967  -15.6912 C   0  0  0  0  0  0  0  0  0  0  0  0
   26.1794  -11.7783  -15.8923 C   0  0  0  0  0  0  0  0  0  0  0  0
   25.7110  -10.4030  -16.2975 C   0  0  2  0  0  0  0  0  0  0  0  0
   25.8928   -9.4712  -15.1378 C   0  0  0  0  0  0  0  0  0  0  0  0
   24.2488  -10.3904  -16.6882 C   0  0  2  0  0  0  0  0  0  0  0  0
   23.9650  -11.2353  -17.8040 N   0  0  0  0  0  0  0  0  0  0  0  0
   23.7931   -9.0151  -17.0336 C   0  0  0  0  0  0  0  0  0  0  0  0
   24.2078   -8.4119  -18.0533 O   0  0  0  0  0  0  0  0  0  0  0  0
   22.8599   -8.3684  -16.1805 N   0  0  0  0  0  0  0  0  0  0  0  0
   22.2633   -7.0911  -16.4595 C   0  0  1  0  0  0  0  0  0  0  0  0
   21.6153   -7.1041  -17.8178 C   0  0  0  0  0  0  0  0  0  0  0  0
   20.6961   -5.6147  -18.1812 S   0  0  0  0  0  0  0  0  0  0  0  0
   21.3609   -6.7179  -15.3769 C   0  0  0  0  0  0  0  0  0  0  0  0
   20.8030   -7.6229  -14.7104 O   0  0  0  0  0  0  0  0  0  0  0  0
   21.0650   -5.4076  -15.0188 O   0  0  0  0  0  0  0  0  0  0  0  0
  2  3  1  0
  2  1  1  1
  4  3  1  0
  5  6  2  0
  5  2  1  0
  8  7  1  0
  8  9  1  0
  9 10  1  1
  9 11  1  0
 11 12  1  6
 12  5  1  0
 13 15  1  0
 13 11  1  0
 14 13  2  0
 16 15  1  0
 16 19  1  0
 16 17  1  6
 17 18  1  0
 19 21  1  0
 20 19  2  0
M  END
$$$$
