CIC.pdb
     RDKit          3D

 21 20  0  0  1  0  0  0  0  0999 V2000
   24.3423  -12.8213  -17.8301 N   0  0  0  0  0  0  0  0  0  0  0  0
   23.7675  -12.3488  -16.6049 C   0  0  1  0  0  0  0  0  0  0  0  0
   24.8177  -11.9986  -15.5719 C   0  0  0  0  0  0  0  0  0  0  0  0
   25.7513  -13.4826  -15.1222 S   0  0  0  0  0  0  0  0  0  0  0  0
   22.8801  -11.2066  -16.8929 C   0  0  0  0  0  0  0  0  0  0  0  0
   23.1816  -10.4213  -17.8491 O   0  0  0  0  0  0  0  0  0  0  0  0
   18.4396  -12.1450  -17.6880 C   0  0  0  0  0  0  0  0  0  0  0  0
   19.1669  -10.8466  -17.9742 C   0  0  0  0  0  0  0  0  0  0  0  0
   19.4236  -10.1801  -16.6456 C   0  0  2  0  0  0  0  0  0  0  0  0
   18.6135   -8.9214  -16.5736 C   0  0  0  0  0  0  0  0  0  0  0  0
   20.8810   -9.8146  -16.4630 C   0  0  2  0  0  0  0  0  0  0  0  0
   21.7010  -10.9411  -16.1504 N   0  0  0  0  0  0  0  0  0  0  0  0
   21.0548   -8.8117  -15.3755 C   0  0  0  0  0  0  0  0  0  0  0  0
   20.7774   -9.0710  -14.1791 O   0  0  0  0  0  0  0  0  0  0  0  0
   21.5501   -7.5224  -15.7057 N   0  0  0  0  0  0  0  0  0  0  0  0
   21.6743   -6.4417  -14.7666 C   0  0  1  0  0  0  0  0  0  0  0  0
   22.6816   -5.4373  -15.2583 C   0  0  0  0  0  0  0  0  0  0  0  0
   22.9364   -4.0749  -14.1293 S   0  0  0  0  0  0  0  0  0  0  0  0
   20.3609   -5.8743  -14.4865 C   0  0  0  0  0  0  0  0  0  0  0  0
   19.9904   -5.7571  -13.2934 O   0  0  0  0  0  0  0  0  0  0  0  0
   19.4683   -5.4437  -15.4615 O   0  0  0  0  0  0  0  0  0  0  0  0
  2  3  1  0
  2  1  1  6
  4  3  1  0
  5  6  2  0
  5  2  1  0
  8  7  1  0
  8  9  1  0
  9 10  1  6
  9 11  1  0
 11 12  1  1
 12  5  1  0
 13 15  1  0
 13 11  1  0
 14 13  2  0
 16 15  1  0
 16 19  1  0
 16 17  1  6
 17 18  1  0
 19 21  1  0
 20 19  2  0
M  END
$$$$
