VMP.pdb
     RDKit          3D

 23 23  0  0  1  0  0  0  0  0999 V2000
   17.3026  -12.6492  -17.9676 C   0  0  0  0  0  0  0  0  0  0  0  0
   17.6842  -14.0334  -17.4827 C   0  0  2  0  0  0  0  0  0  0  0  0
   17.4890  -14.1912  -16.0004 C   0  0  0  0  0  0  0  0  0  0  0  0
   19.0160  -14.4731  -17.9908 C   0  0  2  0  0  0  0  0  0  0  0  0
   19.2002  -15.8666  -17.6430 N   0  0  0  0  0  0  0  0  0  0  0  0
   20.1124  -13.6327  -17.4334 C   0  0  0  0  0  0  0  0  0  0  0  0
   20.5610  -13.8427  -16.2549 O   0  0  0  0  0  0  0  0  0  0  0  0
   25.6447  -10.5582  -20.1643 C   0  0  0  0  0  0  0  0  0  0  0  0
   24.2579  -11.5123  -20.8205 S   0  0  0  0  0  0  0  0  0  0  0  0
   23.3085  -12.2672  -19.4796 C   0  0  0  0  0  0  0  0  0  0  0  0
   22.5890  -11.1768  -18.7159 C   0  0  0  0  0  0  0  0  0  0  0  0
   21.7944  -11.7457  -17.5575 C   0  0  2  0  0  0  0  0  0  0  0  0
   20.7393  -12.5640  -18.1208 N   0  0  0  0  0  0  0  0  0  0  0  0
   21.2584  -10.6776  -16.6798 C   0  0  0  0  0  0  0  0  0  0  0  0
   20.0905  -10.2152  -16.8897 O   0  0  0  0  0  0  0  0  0  0  0  0
   21.9658  -10.1200  -15.5991 N   0  0  0  0  0  0  0  0  0  0  0  0
   23.3087  -10.4707  -15.2123 C   0  0  0  0  0  0  0  0  0  0  0  0
   23.2128  -10.4116  -13.6816 C   0  0  0  0  0  0  0  0  0  0  0  0
   22.4597   -9.1138  -13.5089 C   0  0  0  0  0  0  0  0  0  0  0  0
   21.5110   -9.1087  -14.6818 C   0  0  1  0  0  0  0  0  0  0  0  0
   21.5154   -7.7608  -15.2592 C   0  0  0  0  0  0  0  0  0  0  0  0
   20.9259   -6.7173  -14.5786 O   0  0  0  0  0  0  0  0  0  0  0  0
   22.0499   -7.5460  -16.3663 O   0  0  0  0  0  0  0  0  0  0  0  0
  2  1  1  1
  2  3  1  0
  4  2  1  0
  4  6  1  0
  4  5  1  1
  6  7  2  0
  8  9  1  0
  9 10  1  0
 12 11  1  6
 11 10  1  0
 13  6  1  0
 13 12  1  0
 14 12  1  0
 14 15  2  0
 16 14  1  0
 17 16  1  0
 18 19  1  0
 18 17  1  0
 19 20  1  0
 20 16  1  0
 20 21  1  6
 21 22  1  0
 23 21  2  0
M  END
$$$$
