VMP.pdb
     RDKit          3D

 23 23  0  0  1  0  0  0  0  0999 V2000
   20.1183  -20.9405  -12.3739 C   0  0  0  0  0  0  0  0  0  0  0  0
   21.1630  -20.0626  -13.0330 C   0  0  2  0  0  0  0  0  0  0  0  0
   20.5778  -18.7852  -13.5679 C   0  0  0  0  0  0  0  0  0  0  0  0
   22.0187  -20.8130  -13.9972 C   0  0  2  0  0  0  0  0  0  0  0  0
   21.9356  -22.2234  -13.6799 N   0  0  0  0  0  0  0  0  0  0  0  0
   23.4294  -20.3365  -13.9537 C   0  0  0  0  0  0  0  0  0  0  0  0
   23.7245  -19.1390  -14.2901 O   0  0  0  0  0  0  0  0  0  0  0  0
   29.1648  -21.2239  -10.3770 C   0  0  0  0  0  0  0  0  0  0  0  0
   27.4137  -21.3145   -9.9418 S   0  0  0  0  0  0  0  0  0  0  0  0
   26.3903  -20.6050  -11.2528 C   0  0  0  0  0  0  0  0  0  0  0  0
   26.6938  -21.3205  -12.5512 C   0  0  0  0  0  0  0  0  0  0  0  0
   25.9189  -20.7200  -13.7069 C   0  0  2  0  0  0  0  0  0  0  0  0
   24.5361  -21.1261  -13.5545 N   0  0  0  0  0  0  0  0  0  0  0  0
   26.4763  -21.1328  -15.0176 C   0  0  0  0  0  0  0  0  0  0  0  0
   26.0734  -22.2106  -15.5634 O   0  0  0  0  0  0  0  0  0  0  0  0
   27.4467  -20.3997  -15.7246 N   0  0  0  0  0  0  0  0  0  0  0  0
   28.0326  -19.1571  -15.2902 C   0  0  0  0  0  0  0  0  0  0  0  0
   28.1600  -18.3970  -16.6176 C   0  0  0  0  0  0  0  0  0  0  0  0
   28.7299  -19.4847  -17.4970 C   0  0  0  0  0  0  0  0  0  0  0  0
   28.0436  -20.7295  -16.9919 C   0  0  1  0  0  0  0  0  0  0  0  0
   29.0496  -21.7921  -16.8976 C   0  0  0  0  0  0  0  0  0  0  0  0
   29.5908  -22.3328  -18.0442 O   0  0  0  0  0  0  0  0  0  0  0  0
   29.4239  -22.2155  -15.7849 O   0  0  0  0  0  0  0  0  0  0  0  0
  2  1  1  6
  2  3  1  0
  4  2  1  0
  4  6  1  0
  4  5  1  1
  6  7  2  0
  8  9  1  0
  9 10  1  0
 12 11  1  1
 11 10  1  0
 13  6  1  0
 13 12  1  0
 14 12  1  0
 14 15  2  0
 16 14  1  0
 17 16  1  0
 18 19  1  0
 18 17  1  0
 19 20  1  0
 20 16  1  0
 20 21  1  1
 21 22  1  0
 23 21  2  0
M  END
$$$$
