VMP.pdb
     RDKit          3D

 23 23  0  0  1  0  0  0  0  0999 V2000
   21.6817  -22.3019  -15.6606 C   0  0  0  0  0  0  0  0  0  0  0  0
   20.9822  -21.0786  -15.1032 C   0  0  2  0  0  0  0  0  0  0  0  0
   21.2044  -19.8589  -15.9536 C   0  0  0  0  0  0  0  0  0  0  0  0
   21.2390  -20.8836  -13.6468 C   0  0  2  0  0  0  0  0  0  0  0  0
   20.2379  -19.9777  -13.1236 N   0  0  0  0  0  0  0  0  0  0  0  0
   22.6129  -20.3612  -13.4046 C   0  0  0  0  0  0  0  0  0  0  0  0
   22.8970  -19.1374  -13.6414 O   0  0  0  0  0  0  0  0  0  0  0  0
   26.8432  -19.6200   -8.3773 C   0  0  0  0  0  0  0  0  0  0  0  0
   25.8061  -21.0404   -8.7908 S   0  0  0  0  0  0  0  0  0  0  0  0
   24.8359  -20.7126  -10.2811 C   0  0  0  0  0  0  0  0  0  0  0  0
   25.6078  -21.2063  -11.4853 C   0  0  0  0  0  0  0  0  0  0  0  0
   25.0483  -20.6345  -12.7725 C   0  0  2  0  0  0  0  0  0  0  0  0
   23.6944  -21.1323  -12.9112 N   0  0  0  0  0  0  0  0  0  0  0  0
   25.8897  -20.9841  -13.9423 C   0  0  0  0  0  0  0  0  0  0  0  0
   25.6917  -22.0821  -14.5564 O   0  0  0  0  0  0  0  0  0  0  0  0
   26.9220  -20.1679  -14.4396 N   0  0  0  0  0  0  0  0  0  0  0  0
   27.4340  -18.9858  -13.7943 C   0  0  0  0  0  0  0  0  0  0  0  0
   27.6990  -18.0698  -14.9969 C   0  0  0  0  0  0  0  0  0  0  0  0
   28.3832  -19.0410  -15.9296 C   0  0  0  0  0  0  0  0  0  0  0  0
   27.6646  -20.3397  -15.6604 C   0  0  1  0  0  0  0  0  0  0  0  0
   28.6708  -21.4033  -15.5797 C   0  0  0  0  0  0  0  0  0  0  0  0
   29.3012  -21.8440  -16.7234 O   0  0  0  0  0  0  0  0  0  0  0  0
   28.9650  -21.9173  -14.4812 O   0  0  0  0  0  0  0  0  0  0  0  0
  2  1  1  6
  2  3  1  0
  4  2  1  0
  4  6  1  0
  4  5  1  6
  6  7  2  0
  8  9  1  0
  9 10  1  0
 12 11  1  1
 11 10  1  0
 13  6  1  0
 13 12  1  0
 14 12  1  0
 14 15  2  0
 16 14  1  0
 17 16  1  0
 18 19  1  0
 18 17  1  0
 19 20  1  0
 20 16  1  0
 20 21  1  1
 21 22  1  0
 23 21  2  0
M  END
$$$$
