VMP.pdb
     RDKit          3D

 23 23  0  0  1  0  0  0  0  0999 V2000
   26.3237  -13.0509  -16.0284 C   0  0  0  0  0  0  0  0  0  0  0  0
   25.5496  -11.7939  -16.3710 C   0  0  2  0  0  0  0  0  0  0  0  0
   26.0035  -10.6085  -15.5652 C   0  0  0  0  0  0  0  0  0  0  0  0
   24.0744  -12.0141  -16.3873 C   0  0  2  0  0  0  0  0  0  0  0  0
   23.7854  -13.1045  -17.2952 N   0  0  0  0  0  0  0  0  0  0  0  0
   23.3468  -10.7773  -16.7871 C   0  0  0  0  0  0  0  0  0  0  0  0
   23.5291  -10.2567  -17.9404 O   0  0  0  0  0  0  0  0  0  0  0  0
   17.7507  -11.2758  -15.9609 C   0  0  0  0  0  0  0  0  0  0  0  0
   18.0980  -10.2212  -17.3861 S   0  0  0  0  0  0  0  0  0  0  0  0
   19.8701   -9.8875  -17.5192 C   0  0  0  0  0  0  0  0  0  0  0  0
   20.3008   -9.0525  -16.3330 C   0  0  0  0  0  0  0  0  0  0  0  0
   21.7994   -8.8271  -16.3312 C   0  0  2  0  0  0  0  0  0  0  0  0
   22.4226  -10.0838  -15.9670 N   0  0  0  0  0  0  0  0  0  0  0  0
   22.1903   -7.7288  -15.4147 C   0  0  0  0  0  0  0  0  0  0  0  0
   22.4505   -7.9871  -14.1952 O   0  0  0  0  0  0  0  0  0  0  0  0
   22.2984   -6.3814  -15.8045 N   0  0  0  0  0  0  0  0  0  0  0  0
   22.0913   -5.8808  -17.1396 C   0  0  0  0  0  0  0  0  0  0  0  0
   23.1689   -4.7916  -17.2298 C   0  0  0  0  0  0  0  0  0  0  0  0
   22.9752   -4.1101  -15.8959 C   0  0  0  0  0  0  0  0  0  0  0  0
   22.6254   -5.2521  -14.9744 C   0  0  1  0  0  0  0  0  0  0  0  0
   21.5128   -4.8196  -14.1229 C   0  0  0  0  0  0  0  0  0  0  0  0
   21.7500   -3.9929  -13.0458 O   0  0  0  0  0  0  0  0  0  0  0  0
   20.3466   -5.1933  -14.3631 O   0  0  0  0  0  0  0  0  0  0  0  0
  2  1  1  1
  2  3  1  0
  4  2  1  0
  4  6  1  0
  4  5  1  6
  6  7  2  0
  8  9  1  0
  9 10  1  0
 12 11  1  1
 11 10  1  0
 13  6  1  0
 13 12  1  0
 14 12  1  0
 14 15  2  0
 16 14  1  0
 17 16  1  0
 18 19  1  0
 18 17  1  0
 19 20  1  0
 20 16  1  0
 20 21  1  6
 21 22  1  0
 23 21  2  0
M  END
$$$$
