VMP.pdb
     RDKit          3D

 23 23  0  0  1  0  0  0  0  0999 V2000
   17.1525  -19.8963  -15.9644 C   0  0  0  0  0  0  0  0  0  0  0  0
   17.5707  -21.2228  -15.3625 C   0  0  2  0  0  0  0  0  0  0  0  0
   16.3953  -22.1190  -15.0879 C   0  0  0  0  0  0  0  0  0  0  0  0
   18.5181  -21.0627  -14.2215 C   0  0  2  0  0  0  0  0  0  0  0  0
   18.5335  -19.6679  -13.8328 N   0  0  0  0  0  0  0  0  0  0  0  0
   19.8847  -21.5331  -14.5825 C   0  0  0  0  0  0  0  0  0  0  0  0
   20.1302  -22.7801  -14.7211 O   0  0  0  0  0  0  0  0  0  0  0  0
   21.6727  -20.9518  -19.7677 C   0  0  0  0  0  0  0  0  0  0  0  0
   22.7987  -22.1871  -19.0821 S   0  0  0  0  0  0  0  0  0  0  0  0
   22.5095  -22.4042  -17.3105 C   0  0  0  0  0  0  0  0  0  0  0  0
   22.4594  -21.0423  -16.6528 C   0  0  0  0  0  0  0  0  0  0  0  0
   22.3232  -21.1602  -15.1480 C   0  0  2  0  0  0  0  0  0  0  0  0
   20.9995  -20.6855  -14.7977 N   0  0  0  0  0  0  0  0  0  0  0  0
   23.3868  -20.4095  -14.4381 C   0  0  0  0  0  0  0  0  0  0  0  0
   23.2673  -19.1529  -14.2697 O   0  0  0  0  0  0  0  0  0  0  0  0
   24.5539  -21.0006  -13.9207 N   0  0  0  0  0  0  0  0  0  0  0  0
   24.8388  -22.4129  -13.9107 C   0  0  0  0  0  0  0  0  0  0  0  0
   25.5446  -22.5743  -12.5573 C   0  0  0  0  0  0  0  0  0  0  0  0
   26.4856  -21.3938  -12.6020 C   0  0  0  0  0  0  0  0  0  0  0  0
   25.6776  -20.3373  -13.3137 C   0  0  1  0  0  0  0  0  0  0  0  0
   26.5545  -19.6787  -14.2870 C   0  0  0  0  0  0  0  0  0  0  0  0
   27.5257  -18.8005  -13.8564 O   0  0  0  0  0  0  0  0  0  0  0  0
   26.4314  -19.9052  -15.5081 O   0  0  0  0  0  0  0  0  0  0  0  0
  2  1  1  1
  2  3  1  0
  4  2  1  0
  4  6  1  0
  4  5  1  6
  6  7  2  0
  8  9  1  0
  9 10  1  0
 12 11  1  6
 11 10  1  0
 13  6  1  0
 13 12  1  0
 14 12  1  0
 14 15  2  0
 16 14  1  0
 17 16  1  0
 18 19  1  0
 18 17  1  0
 19 20  1  0
 20 16  1  0
 20 21  1  6
 21 22  1  0
 23 21  2  0
M  END
$$$$
