VMP.pdb
     RDKit          3D

 23 23  0  0  1  0  0  0  0  0999 V2000
   18.9392  -19.0968  -15.3451 C   0  0  0  0  0  0  0  0  0  0  0  0
   20.3013  -18.9633  -15.9959 C   0  0  2  0  0  0  0  0  0  0  0  0
   20.2036  -18.6011  -17.4518 C   0  0  0  0  0  0  0  0  0  0  0  0
   21.1974  -20.1171  -15.6948 C   0  0  2  0  0  0  0  0  0  0  0  0
   20.4823  -21.0394  -14.8377 N   0  0  0  0  0  0  0  0  0  0  0  0
   22.4652  -19.6657  -15.0560 C   0  0  0  0  0  0  0  0  0  0  0  0
   22.9980  -18.5497  -15.3800 O   0  0  0  0  0  0  0  0  0  0  0  0
   25.1384  -20.5453   -9.0322 C   0  0  0  0  0  0  0  0  0  0  0  0
   26.3367  -21.2605  -10.1795 S   0  0  0  0  0  0  0  0  0  0  0  0
   26.1702  -20.5228  -11.8219 C   0  0  0  0  0  0  0  0  0  0  0  0
   24.7602  -20.7533  -12.3206 C   0  0  0  0  0  0  0  0  0  0  0  0
   24.5377  -20.0994  -13.6696 C   0  0  2  0  0  0  0  0  0  0  0  0
   23.1768  -20.3944  -14.0710 N   0  0  0  0  0  0  0  0  0  0  0  0
   25.5244  -20.5616  -14.6754 C   0  0  0  0  0  0  0  0  0  0  0  0
   25.3266  -21.6551  -15.2974 O   0  0  0  0  0  0  0  0  0  0  0  0
   26.6989  -19.8601  -15.0037 N   0  0  0  0  0  0  0  0  0  0  0  0
   27.1701  -18.6689  -14.3442 C   0  0  0  0  0  0  0  0  0  0  0  0
   27.7426  -17.8709  -15.5237 C   0  0  0  0  0  0  0  0  0  0  0  0
   28.5140  -18.9574  -16.2348 C   0  0  0  0  0  0  0  0  0  0  0  0
   27.6508  -20.1783  -16.0351 C   0  0  1  0  0  0  0  0  0  0  0  0
   28.5292  -21.2989  -15.6849 C   0  0  0  0  0  0  0  0  0  0  0  0
   29.3682  -21.8404  -16.6350 O   0  0  0  0  0  0  0  0  0  0  0  0
   28.5262  -21.7713  -14.5297 O   0  0  0  0  0  0  0  0  0  0  0  0
  2  1  1  6
  2  3  1  0
  4  2  1  0
  4  6  1  0
  4  5  1  1
  6  7  2  0
  8  9  1  0
  9 10  1  0
 12 11  1  1
 11 10  1  0
 13  6  1  0
 13 12  1  0
 14 12  1  0
 14 15  2  0
 16 14  1  0
 17 16  1  0
 18 19  1  0
 18 17  1  0
 19 20  1  0
 20 16  1  0
 20 21  1  1
 21 22  1  0
 23 21  2  0
M  END
$$$$
