VMP.pdb
     RDKit          3D

 23 23  0  0  1  0  0  0  0  0999 V2000
   20.0487  -18.9725  -13.7880 C   0  0  0  0  0  0  0  0  0  0  0  0
   20.1041  -19.1331  -15.2940 C   0  0  2  0  0  0  0  0  0  0  0  0
   18.7692  -19.5073  -15.8759 C   0  0  0  0  0  0  0  0  0  0  0  0
   21.2442  -19.9857  -15.7393 C   0  0  2  0  0  0  0  0  0  0  0  0
   20.8992  -21.3714  -15.4995 N   0  0  0  0  0  0  0  0  0  0  0  0
   22.5034  -19.6175  -15.0336 C   0  0  0  0  0  0  0  0  0  0  0  0
   23.0221  -18.4590  -15.1861 O   0  0  0  0  0  0  0  0  0  0  0  0
   24.9482  -20.2937   -8.9730 C   0  0  0  0  0  0  0  0  0  0  0  0
   26.0688  -21.2497  -10.0191 S   0  0  0  0  0  0  0  0  0  0  0  0
   26.0521  -20.6236  -11.7153 C   0  0  0  0  0  0  0  0  0  0  0  0
   24.6581  -20.7836  -12.2818 C   0  0  0  0  0  0  0  0  0  0  0  0
   24.5590  -20.2014  -13.6776 C   0  0  2  0  0  0  0  0  0  0  0  0
   23.2212  -20.4746  -14.1632 N   0  0  0  0  0  0  0  0  0  0  0  0
   25.5990  -20.7524  -14.5795 C   0  0  0  0  0  0  0  0  0  0  0  0
   25.4766  -21.9351  -15.0356 O   0  0  0  0  0  0  0  0  0  0  0  0
   26.7461  -20.0439  -14.9813 N   0  0  0  0  0  0  0  0  0  0  0  0
   27.1673  -18.7714  -14.4527 C   0  0  0  0  0  0  0  0  0  0  0  0
   27.7122  -18.0814  -15.7108 C   0  0  0  0  0  0  0  0  0  0  0  0
   28.5287  -19.2060  -16.3024 C   0  0  0  0  0  0  0  0  0  0  0  0
   27.7137  -20.4320  -15.9734 C   0  0  1  0  0  0  0  0  0  0  0  0
   28.6343  -21.4732  -15.5062 C   0  0  0  0  0  0  0  0  0  0  0  0
   28.6462  -21.8370  -14.1768 O   0  0  0  0  0  0  0  0  0  0  0  0
   29.4121  -22.0374  -16.3026 O   0  0  0  0  0  0  0  0  0  0  0  0
  2  1  1  1
  2  3  1  0
  4  2  1  0
  4  6  1  0
  4  5  1  1
  6  7  2  0
  8  9  1  0
  9 10  1  0
 12 11  1  1
 11 10  1  0
 13  6  1  0
 13 12  1  0
 14 12  1  0
 14 15  2  0
 16 14  1  0
 17 16  1  0
 18 19  1  0
 18 17  1  0
 19 20  1  0
 20 16  1  0
 20 21  1  1
 21 22  1  0
 23 21  2  0
M  END
$$$$
