VMP.pdb
     RDKit          3D

 23 23  0  0  1  0  0  0  0  0999 V2000
   19.0174  -16.6576  -17.4808 C   0  0  0  0  0  0  0  0  0  0  0  0
   18.5880  -15.2042  -17.4775 C   0  0  2  0  0  0  0  0  0  0  0  0
   17.1694  -15.0288  -17.9435 C   0  0  0  0  0  0  0  0  0  0  0  0
   19.5814  -14.3102  -18.1399 C   0  0  2  0  0  0  0  0  0  0  0  0
   20.4984  -15.1317  -18.9020 N   0  0  0  0  0  0  0  0  0  0  0  0
   20.3104  -13.4780  -17.1423 C   0  0  0  0  0  0  0  0  0  0  0  0
   19.6781  -12.6700  -16.3797 O   0  0  0  0  0  0  0  0  0  0  0  0
   26.5779  -14.4566  -15.0002 C   0  0  0  0  0  0  0  0  0  0  0  0
   26.4283  -12.6701  -15.2238 S   0  0  0  0  0  0  0  0  0  0  0  0
   24.6981  -12.1547  -15.1228 C   0  0  0  0  0  0  0  0  0  0  0  0
   23.8750  -13.0206  -16.0516 C   0  0  0  0  0  0  0  0  0  0  0  0
   22.4208  -12.5941  -16.0605 C   0  0  2  0  0  0  0  0  0  0  0  0
   21.7138  -13.4960  -16.9475 N   0  0  0  0  0  0  0  0  0  0  0  0
   22.2645  -11.1778  -16.4711 C   0  0  0  0  0  0  0  0  0  0  0  0
   22.3636  -10.8627  -17.7010 O   0  0  0  0  0  0  0  0  0  0  0  0
   22.0069  -10.1240  -15.5753 N   0  0  0  0  0  0  0  0  0  0  0  0
   21.8686  -10.2589  -14.1475 C   0  0  0  0  0  0  0  0  0  0  0  0
   20.7528   -9.2478  -13.8501 C   0  0  0  0  0  0  0  0  0  0  0  0
   21.2269   -8.0737  -14.6736 C   0  0  0  0  0  0  0  0  0  0  0  0
   21.8361   -8.7296  -15.8878 C   0  0  1  0  0  0  0  0  0  0  0  0
   23.0986   -8.0452  -16.1841 C   0  0  0  0  0  0  0  0  0  0  0  0
   23.0875   -6.7415  -16.6315 O   0  0  0  0  0  0  0  0  0  0  0  0
   24.1896   -8.6324  -16.0352 O   0  0  0  0  0  0  0  0  0  0  0  0
  2  1  1  6
  2  3  1  0
  4  2  1  0
  4  6  1  0
  4  5  1  1
  6  7  2  0
  8  9  1  0
  9 10  1  0
 12 11  1  6
 11 10  1  0
 13  6  1  0
 13 12  1  0
 14 12  1  0
 14 15  2  0
 16 14  1  0
 17 16  1  0
 18 19  1  0
 18 17  1  0
 19 20  1  0
 20 16  1  0
 20 21  1  1
 21 22  1  0
 23 21  2  0
M  END
$$$$
