VMP.pdb
     RDKit          3D

 23 23  0  0  1  0  0  0  0  0999 V2000
   13.2370  -20.5409    3.4700 C   0  0  0  0  0  0  0  0  0  0  0  0
   13.5431  -19.9212    2.1213 C   0  0  2  0  0  0  0  0  0  0  0  0
   12.3320  -19.8664    1.2321 C   0  0  0  0  0  0  0  0  0  0  0  0
   14.7623  -20.5003    1.4864 C   0  0  2  0  0  0  0  0  0  0  0  0
   14.5097  -21.8974    1.2023 N   0  0  0  0  0  0  0  0  0  0  0  0
   15.9568  -20.3394    2.3619 C   0  0  0  0  0  0  0  0  0  0  0  0
   16.4395  -21.3381    2.9974 O   0  0  0  0  0  0  0  0  0  0  0  0
   22.0447  -17.4971    2.1287 C   0  0  0  0  0  0  0  0  0  0  0  0
   20.6558  -17.5157    0.9735 S   0  0  0  0  0  0  0  0  0  0  0  0
   19.3418  -18.6055    1.5692 C   0  0  0  0  0  0  0  0  0  0  0  0
   18.7453  -18.0104    2.8261 C   0  0  0  0  0  0  0  0  0  0  0  0
   17.7654  -18.9652    3.4781 C   0  0  2  0  0  0  0  0  0  0  0  0
   16.6465  -19.1192    2.5702 N   0  0  0  0  0  0  0  0  0  0  0  0
   17.3336  -18.4849    4.8130 C   0  0  0  0  0  0  0  0  0  0  0  0
   16.3064  -17.7390    4.9133 O   0  0  0  0  0  0  0  0  0  0  0  0
   17.9947  -18.8020    6.0136 N   0  0  0  0  0  0  0  0  0  0  0  0
   19.1329  -19.6775    6.1322 C   0  0  0  0  0  0  0  0  0  0  0  0
   18.8336  -20.3926    7.4569 C   0  0  0  0  0  0  0  0  0  0  0  0
   18.4191  -19.2171    8.3099 C   0  0  0  0  0  0  0  0  0  0  0  0
   17.6841  -18.3290    7.3369 C   0  0  1  0  0  0  0  0  0  0  0  0
   18.1157  -16.9477    7.5728 C   0  0  0  0  0  0  0  0  0  0  0  0
   17.7149  -16.2854    8.7131 O   0  0  0  0  0  0  0  0  0  0  0  0
   18.8461  -16.3609    6.7483 O   0  0  0  0  0  0  0  0  0  0  0  0
  2  1  1  1
  2  3  1  0
  4  2  1  0
  4  6  1  0
  4  5  1  1
  6  7  2  0
  8  9  1  0
  9 10  1  0
 12 11  1  6
 11 10  1  0
 13  6  1  0
 13 12  1  0
 14 12  1  0
 14 15  2  0
 16 14  1  0
 17 16  1  0
 18 19  1  0
 18 17  1  0
 19 20  1  0
 20 16  1  0
 20 21  1  6
 21 22  1  0
 23 21  2  0
M  END
$$$$
