VMP.pdb
     RDKit          3D

 23 23  0  0  1  0  0  0  0  0999 V2000
   26.4954  -16.9754  -16.2481 C   0  0  0  0  0  0  0  0  0  0  0  0
   27.3213  -17.8823  -17.1381 C   0  0  2  0  0  0  0  0  0  0  0  0
   26.4794  -18.6035  -18.1538 C   0  0  0  0  0  0  0  0  0  0  0  0
   28.2540  -18.7521  -16.3645 C   0  0  2  0  0  0  0  0  0  0  0  0
   29.1174  -19.4419  -17.3001 N   0  0  0  0  0  0  0  0  0  0  0  0
   27.5094  -19.7189  -15.5101 C   0  0  0  0  0  0  0  0  0  0  0  0
   26.9471  -20.7456  -16.0240 O   0  0  0  0  0  0  0  0  0  0  0  0
   25.0727  -21.2986   -8.0921 C   0  0  0  0  0  0  0  0  0  0  0  0
   26.1779  -20.4323   -9.2286 S   0  0  0  0  0  0  0  0  0  0  0  0
   25.8155  -20.8822  -10.9420 C   0  0  0  0  0  0  0  0  0  0  0  0
   26.7561  -20.1265  -11.8553 C   0  0  0  0  0  0  0  0  0  0  0  0
   26.5023  -20.4636  -13.3109 C   0  0  2  0  0  0  0  0  0  0  0  0
   27.3551  -19.6033  -14.1063 N   0  0  0  0  0  0  0  0  0  0  0  0
   25.0718  -20.3111  -13.6704 C   0  0  0  0  0  0  0  0  0  0  0  0
   24.6010  -19.1520  -13.9084 O   0  0  0  0  0  0  0  0  0  0  0  0
   24.1683  -21.3847  -13.7712 N   0  0  0  0  0  0  0  0  0  0  0  0
   24.4933  -22.7710  -13.5508 C   0  0  0  0  0  0  0  0  0  0  0  0
   23.6407  -23.4608  -14.6245 C   0  0  0  0  0  0  0  0  0  0  0  0
   22.3324  -22.7287  -14.4409 C   0  0  0  0  0  0  0  0  0  0  0  0
   22.7690  -21.3250  -14.1026 C   0  0  1  0  0  0  0  0  0  0  0  0
   21.9333  -20.8473  -12.9964 C   0  0  0  0  0  0  0  0  0  0  0  0
   20.6563  -20.3918  -13.2441 O   0  0  0  0  0  0  0  0  0  0  0  0
   22.3672  -20.8482  -11.8263 O   0  0  0  0  0  0  0  0  0  0  0  0
  2  1  1  1
  2  3  1  0
  4  2  1  0
  4  6  1  0
  4  5  1  6
  6  7  2  0
  8  9  1  0
  9 10  1  0
 12 11  1  1
 11 10  1  0
 13  6  1  0
 13 12  1  0
 14 12  1  0
 14 15  2  0
 16 14  1  0
 17 16  1  0
 18 19  1  0
 18 17  1  0
 19 20  1  0
 20 16  1  0
 20 21  1  1
 21 22  1  0
 23 21  2  0
M  END
$$$$
