VMP.pdb
     RDKit          3D

 23 23  0  0  1  0  0  0  0  0999 V2000
   19.5256  -21.7548  -15.8664 C   0  0  0  0  0  0  0  0  0  0  0  0
   20.9372  -21.2821  -15.5822 C   0  0  2  0  0  0  0  0  0  0  0  0
   21.9634  -22.0475  -16.3705 C   0  0  0  0  0  0  0  0  0  0  0  0
   21.2225  -21.1701  -14.1224 C   0  0  2  0  0  0  0  0  0  0  0  0
   20.1476  -20.4235  -13.5028 N   0  0  0  0  0  0  0  0  0  0  0  0
   22.5388  -20.5174  -13.8766 C   0  0  0  0  0  0  0  0  0  0  0  0
   22.7275  -19.2916  -14.1868 O   0  0  0  0  0  0  0  0  0  0  0  0
   27.5030  -20.8120   -9.4014 C   0  0  0  0  0  0  0  0  0  0  0  0
   25.7088  -20.8959   -9.2072 S   0  0  0  0  0  0  0  0  0  0  0  0
   24.8755  -20.3912  -10.7304 C   0  0  0  0  0  0  0  0  0  0  0  0
   25.5968  -21.0070  -11.9094 C   0  0  0  0  0  0  0  0  0  0  0  0
   24.9835  -20.5668  -13.2235 C   0  0  2  0  0  0  0  0  0  0  0  0
   23.6634  -21.1596  -13.3017 N   0  0  0  0  0  0  0  0  0  0  0  0
   25.8300  -20.9450  -14.3807 C   0  0  0  0  0  0  0  0  0  0  0  0
   25.6484  -22.0667  -14.9556 O   0  0  0  0  0  0  0  0  0  0  0  0
   26.8501  -20.1315  -14.9070 N   0  0  0  0  0  0  0  0  0  0  0  0
   27.3132  -18.8962  -14.3278 C   0  0  0  0  0  0  0  0  0  0  0  0
   27.5801  -18.0507  -15.5807 C   0  0  0  0  0  0  0  0  0  0  0  0
   28.3130  -19.0582  -16.4344 C   0  0  0  0  0  0  0  0  0  0  0  0
   27.6255  -20.3581  -16.0981 C   0  0  1  0  0  0  0  0  0  0  0  0
   28.6593  -21.3840  -15.9280 C   0  0  0  0  0  0  0  0  0  0  0  0
   28.9420  -21.8761  -14.6719 O   0  0  0  0  0  0  0  0  0  0  0  0
   29.2900  -21.8195  -16.9128 O   0  0  0  0  0  0  0  0  0  0  0  0
  2  1  1  1
  2  3  1  0
  4  2  1  0
  4  6  1  0
  4  5  1  1
  6  7  2  0
  8  9  1  0
  9 10  1  0
 12 11  1  1
 11 10  1  0
 13  6  1  0
 13 12  1  0
 14 12  1  0
 14 15  2  0
 16 14  1  0
 17 16  1  0
 18 19  1  0
 18 17  1  0
 19 20  1  0
 20 16  1  0
 20 21  1  1
 21 22  1  0
 23 21  2  0
M  END
$$$$
