VMP.pdb
     RDKit          3D

 23 23  0  0  1  0  0  0  0  0999 V2000
   19.8842  -19.7307  -16.8188 C   0  0  0  0  0  0  0  0  0  0  0  0
   21.1924  -19.0250  -17.1145 C   0  0  2  0  0  0  0  0  0  0  0  0
   22.2560  -19.9743  -17.5919 C   0  0  0  0  0  0  0  0  0  0  0  0
   21.6144  -18.1121  -16.0129 C   0  0  2  0  0  0  0  0  0  0  0  0
   21.5895  -16.7528  -16.5113 N   0  0  0  0  0  0  0  0  0  0  0  0
   22.9668  -18.4702  -15.5012 C   0  0  0  0  0  0  0  0  0  0  0  0
   24.0198  -18.0965  -16.1226 O   0  0  0  0  0  0  0  0  0  0  0  0
   25.1993  -20.1088   -9.0974 C   0  0  0  0  0  0  0  0  0  0  0  0
   25.4449  -21.4186  -10.3173 S   0  0  0  0  0  0  0  0  0  0  0  0
   25.7056  -20.7191  -11.9642 C   0  0  0  0  0  0  0  0  0  0  0  0
   24.3752  -20.2519  -12.5132 C   0  0  0  0  0  0  0  0  0  0  0  0
   24.5305  -19.6385  -13.8903 C   0  0  2  0  0  0  0  0  0  0  0  0
   23.2120  -19.2272  -14.3289 N   0  0  0  0  0  0  0  0  0  0  0  0
   25.1632  -20.5805  -14.8449 C   0  0  0  0  0  0  0  0  0  0  0  0
   24.4593  -21.4867  -15.3972 O   0  0  0  0  0  0  0  0  0  0  0  0
   26.5249  -20.5463  -15.1966 N   0  0  0  0  0  0  0  0  0  0  0  0
   27.5084  -19.6552  -14.6356 C   0  0  0  0  0  0  0  0  0  0  0  0
   28.3723  -19.3388  -15.8641 C   0  0  0  0  0  0  0  0  0  0  0  0
   28.5347  -20.7243  -16.4432 C   0  0  0  0  0  0  0  0  0  0  0  0
   27.2026  -21.3731  -16.1601 C   0  0  1  0  0  0  0  0  0  0  0  0
   27.4576  -22.7335  -15.6762 C   0  0  0  0  0  0  0  0  0  0  0  0
   27.9116  -23.7010  -16.5466 O   0  0  0  0  0  0  0  0  0  0  0  0
   27.2673  -23.0277  -14.4784 O   0  0  0  0  0  0  0  0  0  0  0  0
  2  1  1  1
  2  3  1  0
  4  2  1  0
  4  6  1  0
  4  5  1  6
  6  7  2  0
  8  9  1  0
  9 10  1  0
 12 11  1  1
 11 10  1  0
 13  6  1  0
 13 12  1  0
 14 12  1  0
 14 15  2  0
 16 14  1  0
 17 16  1  0
 18 19  1  0
 18 17  1  0
 19 20  1  0
 20 16  1  0
 20 21  1  1
 21 22  1  0
 23 21  2  0
M  END
$$$$
