CQI.pdb
     RDKit          3D

 24 23  0  0  1  0  0  0  0  0999 V2000
   26.0906  -19.2001  -15.2867 N   0  0  0  0  0  0  0  0  0  0  0  0
   26.9361  -19.2530  -14.1394 C   0  0  1  0  0  0  0  0  0  0  0  0
   27.9452  -18.1255  -14.1074 C   0  0  0  0  0  0  0  0  0  0  0  0
   29.0404  -18.3263  -15.5510 S   0  0  0  0  0  0  0  0  0  0  0  0
   26.1034  -19.1356  -12.9188 C   0  0  0  0  0  0  0  0  0  0  0  0
   25.4664  -18.0730  -12.6495 O   0  0  0  0  0  0  0  0  0  0  0  0
   21.2426  -20.6655  -10.5681 N   0  0  0  0  0  0  0  0  0  0  0  0
   21.6525  -20.3569  -11.8858 C   0  0  0  0  0  0  0  0  0  0  0  0
   20.7859  -19.8884  -12.6674 O   0  0  0  0  0  0  0  0  0  0  0  0
   23.0590  -20.5917  -12.2664 C   0  0  0  0  0  0  0  0  0  0  0  0
   23.9725  -21.0412  -11.1967 C   0  0  0  0  0  0  0  0  0  0  0  0
   25.1321  -20.2033  -10.8249 C   0  0  2  0  0  0  0  0  0  0  0  0
   26.0011  -20.2036  -12.0296 N   0  0  0  0  0  0  0  0  0  0  0  0
   25.9858  -20.6327   -9.7065 C   0  0  0  0  0  0  0  0  0  0  0  0
   26.7041  -21.6794   -9.7695 O   0  0  0  0  0  0  0  0  0  0  0  0
   29.0219  -17.7529   -6.1545 C   0  0  0  0  0  0  0  0  0  0  0  0
   28.3726  -18.8063   -6.9622 C   0  0  0  0  0  0  0  0  0  0  0  0
   27.2412  -19.5598   -6.4250 C   0  0  2  0  0  0  0  0  0  0  0  0
   27.6315  -20.1266   -5.0540 C   0  0  0  0  0  0  0  0  0  0  0  0
   26.5471  -20.5639   -7.2580 C   0  0  2  0  0  0  0  0  0  0  0  0
   26.0677  -19.9210   -8.4955 N   0  0  0  0  0  0  0  0  0  0  0  0
   25.4235  -21.3046   -6.7373 C   0  0  0  0  0  0  0  0  0  0  0  0
   25.5408  -22.5542   -6.1825 O   0  0  0  0  0  0  0  0  0  0  0  0
   24.2306  -20.8401   -6.7661 O   0  0  0  0  0  0  0  0  0  0  0  0
  2  1  1  6
  2  3  1  0
  3  4  1  0
  5  2  1  0
  5  6  2  0
  7  8  1  0
  8  9  2  0
  8 10  1  0
 10 11  1  0
 12 11  1  6
 12 13  1  0
 13  5  1  0
 14 12  1  0
 15 14  2  0
 17 16  1  0
 18 17  1  0
 18 20  1  0
 18 19  1  1
 20 22  1  0
 20 21  1  6
 21 14  1  0
 22 23  1  0
 24 22  2  0
M  END
$$$$
