CQI.pdb
     RDKit          3D

 24 23  0  0  1  0  0  0  0  0999 V2000
   28.3400  -20.8813  -15.7189 N   0  0  0  0  0  0  0  0  0  0  0  0
   27.6168  -19.9002  -14.9783 C   0  0  1  0  0  0  0  0  0  0  0  0
   27.1387  -18.7537  -15.8429 C   0  0  0  0  0  0  0  0  0  0  0  0
   28.6071  -17.8036  -16.3579 S   0  0  0  0  0  0  0  0  0  0  0  0
   26.4171  -20.5327  -14.3801 C   0  0  0  0  0  0  0  0  0  0  0  0
   25.8612  -21.5392  -14.9144 O   0  0  0  0  0  0  0  0  0  0  0  0
   24.6394  -21.0963   -8.4364 N   0  0  0  0  0  0  0  0  0  0  0  0
   25.9353  -20.9608   -8.9858 C   0  0  0  0  0  0  0  0  0  0  0  0
   26.9107  -21.2578   -8.2497 O   0  0  0  0  0  0  0  0  0  0  0  0
   26.0718  -20.4905  -10.3780 C   0  0  0  0  0  0  0  0  0  0  0  0
   24.8219  -20.1980  -11.1080 C   0  0  0  0  0  0  0  0  0  0  0  0
   24.6848  -20.6135  -12.5200 C   0  0  2  0  0  0  0  0  0  0  0  0
   25.8672  -20.0290  -13.2031 N   0  0  0  0  0  0  0  0  0  0  0  0
   23.5097  -20.1603  -13.2800 C   0  0  0  0  0  0  0  0  0  0  0  0
   23.3838  -18.9585  -13.6742 O   0  0  0  0  0  0  0  0  0  0  0  0
   22.5791  -20.7630  -18.0507 C   0  0  0  0  0  0  0  0  0  0  0  0
   22.4563  -20.3641  -16.6331 C   0  0  0  0  0  0  0  0  0  0  0  0
   21.4068  -20.9352  -15.7912 C   0  0  2  0  0  0  0  0  0  0  0  0
   20.0692  -20.8395  -16.5360 C   0  0  0  0  0  0  0  0  0  0  0  0
   21.2787  -20.5296  -14.3759 C   0  0  2  0  0  0  0  0  0  0  0  0
   22.4483  -21.0182  -13.6226 N   0  0  0  0  0  0  0  0  0  0  0  0
   20.1227  -20.9114  -13.6011 C   0  0  0  0  0  0  0  0  0  0  0  0
   20.0845  -22.0352  -12.8146 O   0  0  0  0  0  0  0  0  0  0  0  0
   19.0441  -20.2213  -13.6037 O   0  0  0  0  0  0  0  0  0  0  0  0
  2  1  1  6
  2  3  1  0
  3  4  1  0
  5  2  1  0
  5  6  2  0
  7  8  1  0
  8  9  2  0
  8 10  1  0
 10 11  1  0
 12 11  1  1
 12 13  1  0
 13  5  1  0
 14 12  1  0
 15 14  2  0
 17 16  1  0
 18 17  1  0
 18 20  1  0
 18 19  1  6
 20 22  1  0
 20 21  1  1
 21 14  1  0
 22 23  1  0
 24 22  2  0
M  END
$$$$
