CQI.pdb
     RDKit          3D

 24 23  0  0  1  0  0  0  0  0999 V2000
   16.9942  -12.2260  -14.0849 N   0  0  0  0  0  0  0  0  0  0  0  0
   16.2112  -11.0567  -13.8528 C   0  0  1  0  0  0  0  0  0  0  0  0
   14.7487  -11.3715  -13.6242 C   0  0  0  0  0  0  0  0  0  0  0  0
   14.1194  -12.1857  -15.1292 S   0  0  0  0  0  0  0  0  0  0  0  0
   16.7115  -10.3729  -12.6366 C   0  0  0  0  0  0  0  0  0  0  0  0
   17.0158  -11.0194  -11.5892 O   0  0  0  0  0  0  0  0  0  0  0  0
   21.2594   -6.7606  -12.6436 N   0  0  0  0  0  0  0  0  0  0  0  0
   20.1608   -6.3788  -13.4478 C   0  0  0  0  0  0  0  0  0  0  0  0
   20.3973   -5.6451  -14.4414 O   0  0  0  0  0  0  0  0  0  0  0  0
   18.8136   -6.8612  -13.0866 C   0  0  0  0  0  0  0  0  0  0  0  0
   18.7153   -7.7391  -11.9032 C   0  0  0  0  0  0  0  0  0  0  0  0
   17.3911   -8.2235  -11.4594 C   0  0  2  0  0  0  0  0  0  0  0  0
   16.8600   -8.9876  -12.6173 N   0  0  0  0  0  0  0  0  0  0  0  0
   16.3565   -7.2369  -11.1131 C   0  0  0  0  0  0  0  0  0  0  0  0
   15.5163   -6.8124  -11.9672 O   0  0  0  0  0  0  0  0  0  0  0  0
   12.1924   -6.3854   -6.9608 C   0  0  0  0  0  0  0  0  0  0  0  0
   13.1130   -5.7107   -7.8993 C   0  0  0  0  0  0  0  0  0  0  0  0
   14.2415   -6.4359   -8.4798 C   0  0  2  0  0  0  0  0  0  0  0  0
   15.0514   -7.0783   -7.3466 C   0  0  0  0  0  0  0  0  0  0  0  0
   15.1143   -5.7861   -9.4799 C   0  0  2  0  0  0  0  0  0  0  0  0
   16.2235   -6.6959   -9.8210 N   0  0  0  0  0  0  0  0  0  0  0  0
   15.7231   -4.5066   -9.2069 C   0  0  0  0  0  0  0  0  0  0  0  0
   15.0308   -3.3225   -9.2473 O   0  0  0  0  0  0  0  0  0  0  0  0
   16.9641   -4.3929   -8.9127 O   0  0  0  0  0  0  0  0  0  0  0  0
  2  1  1  1
  2  3  1  0
  3  4  1  0
  5  2  1  0
  5  6  2  0
  7  8  1  0
  8  9  2  0
  8 10  1  0
 10 11  1  0
 12 11  1  6
 12 13  1  0
 13  5  1  0
 14 12  1  0
 15 14  2  0
 17 16  1  0
 18 17  1  0
 18 20  1  0
 18 19  1  1
 20 22  1  0
 20 21  1  1
 21 14  1  0
 22 23  1  0
 24 22  2  0
M  END
$$$$
