CQI.pdb
     RDKit          3D

 24 23  0  0  1  0  0  0  0  0999 V2000
   13.9896  -13.7826  -12.2642 N   0  0  0  0  0  0  0  0  0  0  0  0
   13.6208  -12.4349  -11.9783 C   0  0  1  0  0  0  0  0  0  0  0  0
   12.5293  -12.3391  -10.9343 C   0  0  0  0  0  0  0  0  0  0  0  0
   11.0985  -13.2895  -11.5453 S   0  0  0  0  0  0  0  0  0  0  0  0
   14.8020  -11.7115  -11.4505 C   0  0  0  0  0  0  0  0  0  0  0  0
   15.8673  -12.3219  -11.1341 O   0  0  0  0  0  0  0  0  0  0  0  0
   18.2193   -9.3949  -14.5847 N   0  0  0  0  0  0  0  0  0  0  0  0
   18.8696   -8.9055  -13.4284 C   0  0  0  0  0  0  0  0  0  0  0  0
   20.0257   -8.4316  -13.5706 O   0  0  0  0  0  0  0  0  0  0  0  0
   18.1630   -8.9698  -12.1343 C   0  0  0  0  0  0  0  0  0  0  0  0
   16.8583   -9.6615  -12.1212 C   0  0  0  0  0  0  0  0  0  0  0  0
   15.9551   -9.4980  -10.9625 C   0  0  2  0  0  0  0  0  0  0  0  0
   14.7671  -10.3280  -11.2886 N   0  0  0  0  0  0  0  0  0  0  0  0
   15.4410   -8.1556  -10.6500 C   0  0  0  0  0  0  0  0  0  0  0  0
   14.4331   -7.6633  -11.2477 O   0  0  0  0  0  0  0  0  0  0  0  0
   12.4661   -5.1806   -6.9823 C   0  0  0  0  0  0  0  0  0  0  0  0
   13.6086   -5.0090   -7.9036 C   0  0  0  0  0  0  0  0  0  0  0  0
   14.2979   -6.1747   -8.4538 C   0  0  2  0  0  0  0  0  0  0  0  0
   14.6006   -7.1538   -7.3126 C   0  0  0  0  0  0  0  0  0  0  0  0
   15.4576   -6.0030   -9.3536 C   0  0  2  0  0  0  0  0  0  0  0  0
   16.0239   -7.3262   -9.6743 N   0  0  0  0  0  0  0  0  0  0  0  0
   16.5765   -5.1785   -8.9653 C   0  0  0  0  0  0  0  0  0  0  0  0
   16.5346   -3.8068   -8.9692 O   0  0  0  0  0  0  0  0  0  0  0  0
   17.6946   -5.6802   -8.5944 O   0  0  0  0  0  0  0  0  0  0  0  0
  2  1  1  1
  2  3  1  0
  3  4  1  0
  5  2  1  0
  5  6  2  0
  7  8  1  0
  8  9  2  0
  8 10  1  0
 10 11  1  0
 12 11  1  6
 12 13  1  0
 13  5  1  0
 14 12  1  0
 15 14  2  0
 17 16  1  0
 18 17  1  0
 18 20  1  0
 18 19  1  1
 20 22  1  0
 20 21  1  1
 21 14  1  0
 22 23  1  0
 24 22  2  0
M  END
$$$$
