CQI.pdb
     RDKit          3D

 24 23  0  0  1  0  0  0  0  0999 V2000
   26.8294  -21.1262  -19.6446 N   0  0  0  0  0  0  0  0  0  0  0  0
   27.3976  -21.2361  -18.3410 C   0  0  1  0  0  0  0  0  0  0  0  0
   28.8237  -20.7329  -18.2833 C   0  0  0  0  0  0  0  0  0  0  0  0
   29.9227  -22.1612  -18.5597 S   0  0  0  0  0  0  0  0  0  0  0  0
   26.6016  -20.4178  -17.3956 C   0  0  0  0  0  0  0  0  0  0  0  0
   26.7983  -19.1718  -17.2679 O   0  0  0  0  0  0  0  0  0  0  0  0
   21.0719  -19.9223  -18.0548 N   0  0  0  0  0  0  0  0  0  0  0  0
   21.0257  -19.4277  -16.7309 C   0  0  0  0  0  0  0  0  0  0  0  0
   19.9446  -18.9180  -16.3401 O   0  0  0  0  0  0  0  0  0  0  0  0
   22.2313  -19.5408  -15.8872 C   0  0  0  0  0  0  0  0  0  0  0  0
   23.4228  -20.1552  -16.5067 C   0  0  0  0  0  0  0  0  0  0  0  0
   24.6813  -20.2495  -15.7369 C   0  0  2  0  0  0  0  0  0  0  0  0
   25.6075  -21.0070  -16.6171 N   0  0  0  0  0  0  0  0  0  0  0  0
   24.6711  -20.9596  -14.4486 C   0  0  0  0  0  0  0  0  0  0  0  0
   24.6342  -22.2281  -14.3779 O   0  0  0  0  0  0  0  0  0  0  0  0
   28.4034  -20.7477  -10.9527 C   0  0  0  0  0  0  0  0  0  0  0  0
   27.1734  -21.1239  -11.6802 C   0  0  0  0  0  0  0  0  0  0  0  0
   25.8600  -20.7575  -11.1536 C   0  0  2  0  0  0  0  0  0  0  0  0
   25.7432  -21.2743   -9.7141 C   0  0  0  0  0  0  0  0  0  0  0  0
   24.6368  -21.0298  -11.9369 C   0  0  2  0  0  0  0  0  0  0  0  0
   24.7011  -20.2905  -13.2112 N   0  0  0  0  0  0  0  0  0  0  0  0
   23.3318  -20.7539  -11.3861 C   0  0  0  0  0  0  0  0  0  0  0  0
   22.5949  -21.6861  -10.6997 O   0  0  0  0  0  0  0  0  0  0  0  0
   22.7692  -19.6104  -11.5101 O   0  0  0  0  0  0  0  0  0  0  0  0
  2  1  1  6
  2  3  1  0
  3  4  1  0
  5  2  1  0
  5  6  2  0
  7  8  1  0
  8  9  2  0
  8 10  1  0
 10 11  1  0
 12 11  1  6
 12 13  1  0
 13  5  1  0
 14 12  1  0
 15 14  2  0
 17 16  1  0
 18 17  1  0
 18 20  1  0
 18 19  1  1
 20 22  1  0
 20 21  1  6
 21 14  1  0
 22 23  1  0
 24 22  2  0
M  END
$$$$
