CQI.pdb
     RDKit          3D

 24 23  0  0  1  0  0  0  0  0999 V2000
   28.5548  -19.9298  -17.4572 N   0  0  0  0  0  0  0  0  0  0  0  0
   28.6791  -19.2570  -16.2058 C   0  0  1  0  0  0  0  0  0  0  0  0
   27.7798  -18.0439  -16.1053 C   0  0  0  0  0  0  0  0  0  0  0  0
   28.4398  -16.7747  -17.2355 S   0  0  0  0  0  0  0  0  0  0  0  0
   28.2923  -20.1853  -15.1168 C   0  0  0  0  0  0  0  0  0  0  0  0
   27.3032  -20.9698  -15.2335 O   0  0  0  0  0  0  0  0  0  0  0  0
   32.4497  -21.7700  -10.8148 N   0  0  0  0  0  0  0  0  0  0  0  0
   31.2879  -22.1726  -10.1166 C   0  0  0  0  0  0  0  0  0  0  0  0
   31.4466  -22.7298   -9.0005 O   0  0  0  0  0  0  0  0  0  0  0  0
   29.9678  -21.9146  -10.7241 C   0  0  0  0  0  0  0  0  0  0  0  0
   29.9603  -21.2625  -12.0491 C   0  0  0  0  0  0  0  0  0  0  0  0
   28.6826  -21.0900  -12.7724 C   0  0  2  0  0  0  0  0  0  0  0  0
   29.0161  -20.2165  -13.9266 N   0  0  0  0  0  0  0  0  0  0  0  0
   27.5598  -20.4393  -12.0798 C   0  0  0  0  0  0  0  0  0  0  0  0
   27.4573  -19.1749  -12.0012 O   0  0  0  0  0  0  0  0  0  0  0  0
   21.7893  -19.8994  -12.1434 C   0  0  0  0  0  0  0  0  0  0  0  0
   22.9695  -19.8799  -11.2543 C   0  0  0  0  0  0  0  0  0  0  0  0
   24.2073  -20.5481  -11.6518 C   0  0  2  0  0  0  0  0  0  0  0  0
   23.8803  -21.9888  -12.0646 C   0  0  0  0  0  0  0  0  0  0  0  0
   25.4046  -20.4815  -10.7881 C   0  0  2  0  0  0  0  0  0  0  0  0
   26.5262  -21.1646  -11.4588 N   0  0  0  0  0  0  0  0  0  0  0  0
   25.3732  -21.0023   -9.4427 C   0  0  0  0  0  0  0  0  0  0  0  0
   26.0310  -22.1460   -9.0654 O   0  0  0  0  0  0  0  0  0  0  0  0
   24.7164  -20.4271   -8.5060 O   0  0  0  0  0  0  0  0  0  0  0  0
  2  1  1  6
  2  3  1  0
  3  4  1  0
  5  2  1  0
  5  6  2  0
  7  8  1  0
  8  9  2  0
  8 10  1  0
 10 11  1  0
 12 11  1  1
 12 13  1  0
 13  5  1  0
 14 12  1  0
 15 14  2  0
 17 16  1  0
 18 17  1  0
 18 20  1  0
 18 19  1  1
 20 22  1  0
 20 21  1  6
 21 14  1  0
 22 23  1  0
 24 22  2  0
M  END
$$$$
