CQI.pdb
     RDKit          3D

 24 23  0  0  1  0  0  0  0  0999 V2000
   28.6319  -19.3564  -17.2368 N   0  0  0  0  0  0  0  0  0  0  0  0
   27.8379  -18.5154  -16.4025 C   0  0  1  0  0  0  0  0  0  0  0  0
   26.9427  -17.5873  -17.1949 C   0  0  0  0  0  0  0  0  0  0  0  0
   28.0069  -16.3282  -17.9732 S   0  0  0  0  0  0  0  0  0  0  0  0
   26.9610  -19.3606  -15.5577 C   0  0  0  0  0  0  0  0  0  0  0  0
   26.5162  -20.4744  -15.9692 O   0  0  0  0  0  0  0  0  0  0  0  0
   26.9694  -22.0028  -10.9140 N   0  0  0  0  0  0  0  0  0  0  0  0
   25.8758  -21.3102  -10.3450 C   0  0  0  0  0  0  0  0  0  0  0  0
   25.2123  -21.9044   -9.4572 O   0  0  0  0  0  0  0  0  0  0  0  0
   25.5794  -19.9421  -10.8125 C   0  0  0  0  0  0  0  0  0  0  0  0
   26.3072  -19.4748  -12.0095 C   0  0  0  0  0  0  0  0  0  0  0  0
   25.7498  -19.7366  -13.3533 C   0  0  2  0  0  0  0  0  0  0  0  0
   26.6018  -18.9448  -14.2773 N   0  0  0  0  0  0  0  0  0  0  0  0
   24.3625  -19.3363  -13.6342 C   0  0  0  0  0  0  0  0  0  0  0  0
   24.0355  -18.1224  -13.8217 O   0  0  0  0  0  0  0  0  0  0  0  0
   20.2242  -19.9932  -17.5783 C   0  0  0  0  0  0  0  0  0  0  0  0
   20.4699  -19.6869  -16.1537 C   0  0  0  0  0  0  0  0  0  0  0  0
   21.6908  -20.1496  -15.4966 C   0  0  2  0  0  0  0  0  0  0  0  0
   21.8766  -21.6428  -15.7945 C   0  0  0  0  0  0  0  0  0  0  0  0
   21.9395  -19.8374  -14.0737 C   0  0  2  0  0  0  0  0  0  0  0  0
   23.3054  -20.2615  -13.7147 N   0  0  0  0  0  0  0  0  0  0  0  0
   21.0789  -20.3638  -13.0419 C   0  0  0  0  0  0  0  0  0  0  0  0
   19.9212  -19.7447  -12.6424 O   0  0  0  0  0  0  0  0  0  0  0  0
   21.3474  -21.4514  -12.4216 O   0  0  0  0  0  0  0  0  0  0  0  0
  2  1  1  6
  2  3  1  0
  3  4  1  0
  5  2  1  0
  5  6  2  0
  7  8  1  0
  8  9  2  0
  8 10  1  0
 10 11  1  0
 12 11  1  1
 12 13  1  0
 13  5  1  0
 14 12  1  0
 15 14  2  0
 17 16  1  0
 18 17  1  0
 18 20  1  0
 18 19  1  1
 20 22  1  0
 20 21  1  1
 21 14  1  0
 22 23  1  0
 24 22  2  0
M  END
$$$$
