CQI.pdb
     RDKit          3D

 24 23  0  0  1  0  0  0  0  0999 V2000
   25.0030  -13.2710  -17.8922 N   0  0  0  0  0  0  0  0  0  0  0  0
   24.9654  -12.3364  -16.8156 C   0  0  1  0  0  0  0  0  0  0  0  0
   26.2914  -11.6381  -16.6045 C   0  0  0  0  0  0  0  0  0  0  0  0
   27.4877  -12.8900  -16.0338 S   0  0  0  0  0  0  0  0  0  0  0  0
   23.9586  -11.2912  -17.1171 C   0  0  0  0  0  0  0  0  0  0  0  0
   23.7037  -10.9389  -18.3081 O   0  0  0  0  0  0  0  0  0  0  0  0
   18.5957  -11.8639  -15.2573 N   0  0  0  0  0  0  0  0  0  0  0  0
   18.4622  -10.4673  -15.4333 C   0  0  0  0  0  0  0  0  0  0  0  0
   17.3103   -9.9762  -15.3181 O   0  0  0  0  0  0  0  0  0  0  0  0
   19.6676   -9.6698  -15.7322 C   0  0  0  0  0  0  0  0  0  0  0  0
   20.9376  -10.4098  -15.8742 C   0  0  0  0  0  0  0  0  0  0  0  0
   22.1591   -9.6924  -16.2967 C   0  0  2  0  0  0  0  0  0  0  0  0
   23.2616  -10.6652  -16.0856 N   0  0  0  0  0  0  0  0  0  0  0  0
   22.5486   -8.4719  -15.5738 C   0  0  0  0  0  0  0  0  0  0  0  0
   23.2116   -8.5123  -14.4901 O   0  0  0  0  0  0  0  0  0  0  0  0
   24.3222   -2.8076  -17.0085 C   0  0  0  0  0  0  0  0  0  0  0  0
   23.8052   -3.7425  -15.9876 C   0  0  0  0  0  0  0  0  0  0  0  0
   23.2336   -5.0285  -16.3827 C   0  0  2  0  0  0  0  0  0  0  0  0
   22.1940   -4.7892  -17.4850 C   0  0  0  0  0  0  0  0  0  0  0  0
   22.7428   -5.9756  -15.3599 C   0  0  2  0  0  0  0  0  0  0  0  0
   22.2174   -7.1814  -16.0265 N   0  0  0  0  0  0  0  0  0  0  0  0
   21.7315   -5.5771  -14.4108 C   0  0  0  0  0  0  0  0  0  0  0  0
   21.9919   -4.7706  -13.3314 O   0  0  0  0  0  0  0  0  0  0  0  0
   20.5141   -5.9607  -14.5128 O   0  0  0  0  0  0  0  0  0  0  0  0
  2  1  1  6
  2  3  1  0
  3  4  1  0
  5  2  1  0
  5  6  2  0
  7  8  1  0
  8  9  2  0
  8 10  1  0
 10 11  1  0
 12 11  1  1
 12 13  1  0
 13  5  1  0
 14 12  1  0
 15 14  2  0
 17 16  1  0
 18 17  1  0
 18 20  1  0
 18 19  1  6
 20 22  1  0
 20 21  1  6
 21 14  1  0
 22 23  1  0
 24 22  2  0
M  END
$$$$
