CQI.pdb
     RDKit          3D

 24 23  0  0  1  0  0  0  0  0999 V2000
   26.4687  -20.7330  -15.0403 N   0  0  0  0  0  0  0  0  0  0  0  0
   27.2964  -20.9182  -13.8937 C   0  0  1  0  0  0  0  0  0  0  0  0
   28.7336  -20.5140  -14.1419 C   0  0  0  0  0  0  0  0  0  0  0  0
   29.4744  -21.7642  -15.2430 S   0  0  0  0  0  0  0  0  0  0  0  0
   26.7852  -20.0756  -12.7866 C   0  0  0  0  0  0  0  0  0  0  0  0
   26.3753  -18.8928  -12.9875 O   0  0  0  0  0  0  0  0  0  0  0  0
   21.9345  -21.1754  -11.9665 N   0  0  0  0  0  0  0  0  0  0  0  0
   21.9594  -20.4842  -10.7332 C   0  0  0  0  0  0  0  0  0  0  0  0
   20.8561  -20.2554  -10.1749 O   0  0  0  0  0  0  0  0  0  0  0  0
   23.2626  -20.0795  -10.1710 C   0  0  0  0  0  0  0  0  0  0  0  0
   24.4581  -20.3610  -10.9909 C   0  0  0  0  0  0  0  0  0  0  0  0
   25.8030  -20.0892  -10.4408 C   0  0  2  0  0  0  0  0  0  0  0  0
   26.7434  -20.5709  -11.4849 N   0  0  0  0  0  0  0  0  0  0  0  0
   26.2046  -20.7550   -9.1921 C   0  0  0  0  0  0  0  0  0  0  0  0
   26.3748  -22.0127   -9.1229 O   0  0  0  0  0  0  0  0  0  0  0  0
   29.4772  -18.2231   -5.5817 C   0  0  0  0  0  0  0  0  0  0  0  0
   28.8082  -19.3001   -6.3407 C   0  0  0  0  0  0  0  0  0  0  0  0
   27.5443  -19.8632   -5.8694 C   0  0  2  0  0  0  0  0  0  0  0  0
   27.7616  -20.4673   -4.4763 C   0  0  0  0  0  0  0  0  0  0  0  0
   26.7525  -20.7576   -6.7396 C   0  0  2  0  0  0  0  0  0  0  0  0
   26.4272  -20.0527   -7.9933 N   0  0  0  0  0  0  0  0  0  0  0  0
   25.5118  -21.3295   -6.2750 C   0  0  0  0  0  0  0  0  0  0  0  0
   25.4483  -22.4827   -5.5339 O   0  0  0  0  0  0  0  0  0  0  0  0
   24.3775  -20.7946   -6.5336 O   0  0  0  0  0  0  0  0  0  0  0  0
  2  1  1  6
  2  3  1  0
  3  4  1  0
  5  2  1  0
  5  6  2  0
  7  8  1  0
  8  9  2  0
  8 10  1  0
 10 11  1  0
 12 11  1  6
 12 13  1  0
 13  5  1  0
 14 12  1  0
 15 14  2  0
 17 16  1  0
 18 17  1  0
 18 20  1  0
 18 19  1  1
 20 22  1  0
 20 21  1  6
 21 14  1  0
 22 23  1  0
 24 22  2  0
M  END
$$$$
