CQI.pdb
     RDKit          3D

 24 23  0  0  1  0  0  0  0  0999 V2000
   15.7969  -12.9541  -14.2760 N   0  0  0  0  0  0  0  0  0  0  0  0
   15.0451  -11.7677  -14.0283 C   0  0  1  0  0  0  0  0  0  0  0  0
   13.7218  -12.0482  -13.3497 C   0  0  0  0  0  0  0  0  0  0  0  0
   12.8816  -10.4495  -13.1003 S   0  0  0  0  0  0  0  0  0  0  0  0
   15.8227  -10.8806  -13.1308 C   0  0  0  0  0  0  0  0  0  0  0  0
   16.2900  -11.2968  -12.0281 O   0  0  0  0  0  0  0  0  0  0  0  0
   20.4195   -8.6920  -12.8163 N   0  0  0  0  0  0  0  0  0  0  0  0
   20.0444   -7.3352  -12.6826 C   0  0  0  0  0  0  0  0  0  0  0  0
   20.8815   -6.5506  -12.1679 O   0  0  0  0  0  0  0  0  0  0  0  0
   18.7101   -6.9166  -13.1546 C   0  0  0  0  0  0  0  0  0  0  0  0
   17.8014   -7.9850  -13.6167 C   0  0  0  0  0  0  0  0  0  0  0  0
   16.8559   -8.6042  -12.6640 C   0  0  2  0  0  0  0  0  0  0  0  0
   16.0601   -9.5537  -13.4835 N   0  0  0  0  0  0  0  0  0  0  0  0
   15.8812   -7.7446  -11.9748 C   0  0  0  0  0  0  0  0  0  0  0  0
   14.8078   -7.3581  -12.5352 O   0  0  0  0  0  0  0  0  0  0  0  0
   12.3738   -7.1248   -7.3636 C   0  0  0  0  0  0  0  0  0  0  0  0
   13.2655   -6.3773   -8.2745 C   0  0  0  0  0  0  0  0  0  0  0  0
   14.3161   -7.0713   -9.0170 C   0  0  2  0  0  0  0  0  0  0  0  0
   15.2000   -7.8362   -8.0237 C   0  0  0  0  0  0  0  0  0  0  0  0
   15.1195   -6.3514  -10.0271 C   0  0  2  0  0  0  0  0  0  0  0  0
   16.0658   -7.2916  -10.6555 N   0  0  0  0  0  0  0  0  0  0  0  0
   15.8984   -5.1932   -9.6609 C   0  0  0  0  0  0  0  0  0  0  0  0
   15.3409   -3.9683   -9.3926 O   0  0  0  0  0  0  0  0  0  0  0  0
   17.1749   -5.2336   -9.5683 O   0  0  0  0  0  0  0  0  0  0  0  0
  2  1  1  1
  2  3  1  0
  3  4  1  0
  5  2  1  0
  5  6  2  0
  7  8  1  0
  8  9  2  0
  8 10  1  0
 10 11  1  0
 12 11  1  6
 12 13  1  0
 13  5  1  0
 14 12  1  0
 15 14  2  0
 17 16  1  0
 18 17  1  0
 18 20  1  0
 18 19  1  1
 20 22  1  0
 20 21  1  1
 21 14  1  0
 22 23  1  0
 24 22  2  0
M  END
$$$$
