CQI.pdb
     RDKit          3D

 24 23  0  0  1  0  0  0  0  0999 V2000
   28.7719  -20.9238  -15.4259 N   0  0  0  0  0  0  0  0  0  0  0  0
   27.6274  -20.3779  -14.7731 C   0  0  1  0  0  0  0  0  0  0  0  0
   27.8014  -18.9171  -14.4178 C   0  0  0  0  0  0  0  0  0  0  0  0
   28.9066  -18.8308  -12.9704 S   0  0  0  0  0  0  0  0  0  0  0  0
   26.4598  -20.4759  -15.6809 C   0  0  0  0  0  0  0  0  0  0  0  0
   26.5197  -20.0813  -16.8844 O   0  0  0  0  0  0  0  0  0  0  0  0
   23.2930  -25.8227  -14.1706 N   0  0  0  0  0  0  0  0  0  0  0  0
   23.6134  -25.0012  -15.2760 C   0  0  0  0  0  0  0  0  0  0  0  0
   23.6597  -25.5458  -16.4085 O   0  0  0  0  0  0  0  0  0  0  0  0
   23.8665  -23.5656  -15.0453 C   0  0  0  0  0  0  0  0  0  0  0  0
   23.9973  -22.7113  -16.2427 C   0  0  0  0  0  0  0  0  0  0  0  0
   24.0697  -21.2428  -16.0894 C   0  0  2  0  0  0  0  0  0  0  0  0
   25.2560  -21.0104  -15.2262 N   0  0  0  0  0  0  0  0  0  0  0  0
   22.9502  -20.5430  -15.4407 C   0  0  0  0  0  0  0  0  0  0  0  0
   22.9358  -20.3057  -14.1921 O   0  0  0  0  0  0  0  0  0  0  0  0
   19.4753  -15.7309  -16.2705 C   0  0  0  0  0  0  0  0  0  0  0  0
   19.6002  -17.0643  -15.6459 C   0  0  0  0  0  0  0  0  0  0  0  0
   20.6043  -18.0139  -16.1217 C   0  0  2  0  0  0  0  0  0  0  0  0
   20.4938  -18.1267  -17.6474 C   0  0  0  0  0  0  0  0  0  0  0  0
   20.7453  -19.3382  -15.4809 C   0  0  2  0  0  0  0  0  0  0  0  0
   21.8230  -20.0896  -16.1504 N   0  0  0  0  0  0  0  0  0  0  0  0
   19.6235  -20.2425  -15.4024 C   0  0  0  0  0  0  0  0  0  0  0  0
   18.6451  -20.1429  -14.4453 O   0  0  0  0  0  0  0  0  0  0  0  0
   19.4716  -21.2107  -16.2264 O   0  0  0  0  0  0  0  0  0  0  0  0
  2  1  1  6
  2  3  1  0
  3  4  1  0
  5  2  1  0
  5  6  2  0
  7  8  1  0
  8  9  2  0
  8 10  1  0
 10 11  1  0
 12 11  1  1
 12 13  1  0
 13  5  1  0
 14 12  1  0
 15 14  2  0
 17 16  1  0
 18 17  1  0
 18 20  1  0
 18 19  1  6
 20 22  1  0
 20 21  1  6
 21 14  1  0
 22 23  1  0
 24 22  2  0
M  END
$$$$
