CQI.pdb
     RDKit          3D

 24 23  0  0  1  0  0  0  0  0999 V2000
   25.5433  -13.1066  -17.9038 N   0  0  0  0  0  0  0  0  0  0  0  0
   25.3971  -12.3071  -16.7319 C   0  0  1  0  0  0  0  0  0  0  0  0
   26.7110  -11.7261  -16.2559 C   0  0  0  0  0  0  0  0  0  0  0  0
   27.7482  -13.1105  -15.6801 S   0  0  0  0  0  0  0  0  0  0  0  0
   24.4939  -11.1705  -17.0312 C   0  0  0  0  0  0  0  0  0  0  0  0
   24.5768  -10.5257  -18.1197 O   0  0  0  0  0  0  0  0  0  0  0  0
   18.7059  -11.3999  -15.1804 N   0  0  0  0  0  0  0  0  0  0  0  0
   19.4966  -12.1853  -16.0508 C   0  0  0  0  0  0  0  0  0  0  0  0
   19.0273  -13.2921  -16.4197 O   0  0  0  0  0  0  0  0  0  0  0  0
   20.8104  -11.6676  -16.4795 C   0  0  0  0  0  0  0  0  0  0  0  0
   21.2200  -10.3573  -15.9355 C   0  0  0  0  0  0  0  0  0  0  0  0
   22.4908   -9.7459  -16.3787 C   0  0  2  0  0  0  0  0  0  0  0  0
   23.5223  -10.7809  -16.1116 N   0  0  0  0  0  0  0  0  0  0  0  0
   22.9586   -8.5222  -15.7097 C   0  0  0  0  0  0  0  0  0  0  0  0
   23.5981   -8.5561  -14.6118 O   0  0  0  0  0  0  0  0  0  0  0  0
   25.5787   -3.2862  -17.1327 C   0  0  0  0  0  0  0  0  0  0  0  0
   24.6756   -3.9895  -16.1981 C   0  0  0  0  0  0  0  0  0  0  0  0
   24.1486   -5.3116  -16.5311 C   0  0  2  0  0  0  0  0  0  0  0  0
   23.5342   -5.2590  -17.9357 C   0  0  0  0  0  0  0  0  0  0  0  0
   23.2805   -6.0334  -15.5776 C   0  0  2  0  0  0  0  0  0  0  0  0
   22.7331   -7.2356  -16.2329 N   0  0  0  0  0  0  0  0  0  0  0  0
   22.1554   -5.3739  -14.9598 C   0  0  0  0  0  0  0  0  0  0  0  0
   20.8510   -5.6762  -15.2603 O   0  0  0  0  0  0  0  0  0  0  0  0
   22.3046   -4.4494  -14.0866 O   0  0  0  0  0  0  0  0  0  0  0  0
  2  1  1  6
  2  3  1  0
  3  4  1  0
  5  2  1  0
  5  6  2  0
  7  8  1  0
  8  9  2  0
  8 10  1  0
 10 11  1  0
 12 11  1  1
 12 13  1  0
 13  5  1  0
 14 12  1  0
 15 14  2  0
 17 16  1  0
 18 17  1  0
 18 20  1  0
 18 19  1  6
 20 22  1  0
 20 21  1  6
 21 14  1  0
 22 23  1  0
 24 22  2  0
M  END
$$$$
