CQI.pdb
     RDKit          3D

 24 23  0  0  1  0  0  0  0  0999 V2000
   26.4716  -19.3888  -15.4300 N   0  0  0  0  0  0  0  0  0  0  0  0
   27.4000  -19.2592  -14.3551 C   0  0  1  0  0  0  0  0  0  0  0  0
   28.4665  -18.2210  -14.6290 C   0  0  0  0  0  0  0  0  0  0  0  0
   29.4183  -18.7797  -16.0801 S   0  0  0  0  0  0  0  0  0  0  0  0
   26.6722  -18.8342  -13.1357 C   0  0  0  0  0  0  0  0  0  0  0  0
   25.9918  -17.7648  -13.1077 O   0  0  0  0  0  0  0  0  0  0  0  0
   22.4434  -21.7348  -13.2118 N   0  0  0  0  0  0  0  0  0  0  0  0
   22.1026  -20.5332  -12.5488 C   0  0  0  0  0  0  0  0  0  0  0  0
   20.9020  -20.1629  -12.6014 O   0  0  0  0  0  0  0  0  0  0  0  0
   23.1593  -19.7911  -11.8340 C   0  0  0  0  0  0  0  0  0  0  0  0
   24.5102  -20.3876  -11.8362 C   0  0  0  0  0  0  0  0  0  0  0  0
   25.5855  -19.7667  -11.0341 C   0  0  2  0  0  0  0  0  0  0  0  0
   26.7205  -19.6101  -11.9793 N   0  0  0  0  0  0  0  0  0  0  0  0
   26.1179  -20.5007   -9.8758 C   0  0  0  0  0  0  0  0  0  0  0  0
   26.6213  -21.6625   -9.9869 O   0  0  0  0  0  0  0  0  0  0  0  0
   28.7426  -18.2459   -5.6028 C   0  0  0  0  0  0  0  0  0  0  0  0
   28.2148  -19.1806   -6.6183 C   0  0  0  0  0  0  0  0  0  0  0  0
   27.0193  -19.9753   -6.3432 C   0  0  2  0  0  0  0  0  0  0  0  0
   27.2372  -20.7620   -5.0445 C   0  0  0  0  0  0  0  0  0  0  0  0
   26.4186  -20.8148   -7.4008 C   0  0  2  0  0  0  0  0  0  0  0  0
   26.1082  -19.9734   -8.5713 N   0  0  0  0  0  0  0  0  0  0  0  0
   25.2268  -21.5861   -7.1420 C   0  0  0  0  0  0  0  0  0  0  0  0
   23.9801  -21.2080   -7.5734 O   0  0  0  0  0  0  0  0  0  0  0  0
   25.2561  -22.6817   -6.4799 O   0  0  0  0  0  0  0  0  0  0  0  0
  2  1  1  6
  2  3  1  0
  3  4  1  0
  5  2  1  0
  5  6  2  0
  7  8  1  0
  8  9  2  0
  8 10  1  0
 10 11  1  0
 12 11  1  6
 12 13  1  0
 13  5  1  0
 14 12  1  0
 15 14  2  0
 17 16  1  0
 18 17  1  0
 18 20  1  0
 18 19  1  1
 20 22  1  0
 20 21  1  6
 21 14  1  0
 22 23  1  0
 24 22  2  0
M  END
$$$$
