CQI.pdb
     RDKit          3D

 24 23  0  0  1  0  0  0  0  0999 V2000
   15.8950  -11.2614  -14.3904 N   0  0  0  0  0  0  0  0  0  0  0  0
   16.8729  -10.3955  -13.8178 C   0  0  1  0  0  0  0  0  0  0  0  0
   18.0696  -10.1909  -14.7213 C   0  0  0  0  0  0  0  0  0  0  0  0
   18.9735  -11.7720  -14.8037 S   0  0  0  0  0  0  0  0  0  0  0  0
   16.2633   -9.0648  -13.5836 C   0  0  0  0  0  0  0  0  0  0  0  0
   15.5138   -8.5169  -14.4471 O   0  0  0  0  0  0  0  0  0  0  0  0
   15.3381   -7.3919   -7.7591 N   0  0  0  0  0  0  0  0  0  0  0  0
   15.0107   -6.1528   -8.3564 C   0  0  0  0  0  0  0  0  0  0  0  0
   14.5904   -5.2389   -7.6017 O   0  0  0  0  0  0  0  0  0  0  0  0
   15.1839   -5.9981   -9.8139 C   0  0  0  0  0  0  0  0  0  0  0  0
   15.6870   -7.1732  -10.5534 C   0  0  0  0  0  0  0  0  0  0  0  0
   15.8404   -7.1027  -12.0220 C   0  0  2  0  0  0  0  0  0  0  0  0
   16.5033   -8.3786  -12.3949 N   0  0  0  0  0  0  0  0  0  0  0  0
   16.6677   -6.0305  -12.5963 C   0  0  0  0  0  0  0  0  0  0  0  0
   17.9184   -6.1670  -12.7773 O   0  0  0  0  0  0  0  0  0  0  0  0
   17.5049   -3.2384  -17.4847 C   0  0  0  0  0  0  0  0  0  0  0  0
   17.5406   -3.0156  -16.0243 C   0  0  0  0  0  0  0  0  0  0  0  0
   16.8414   -3.9255  -15.1189 C   0  0  2  0  0  0  0  0  0  0  0  0
   15.3738   -4.0243  -15.5541 C   0  0  0  0  0  0  0  0  0  0  0  0
   16.9719   -3.7718  -13.6549 C   0  0  2  0  0  0  0  0  0  0  0  0
   16.1379   -4.7858  -12.9836 N   0  0  0  0  0  0  0  0  0  0  0  0
   16.6595   -2.5170  -13.0145 C   0  0  0  0  0  0  0  0  0  0  0  0
   17.5905   -1.5319  -12.8000 O   0  0  0  0  0  0  0  0  0  0  0  0
   15.4813   -2.2424  -12.5948 O   0  0  0  0  0  0  0  0  0  0  0  0
  2  1  1  6
  2  3  1  0
  3  4  1  0
  5  2  1  0
  5  6  2  0
  7  8  1  0
  8  9  2  0
  8 10  1  0
 10 11  1  0
 12 11  1  1
 12 13  1  0
 13  5  1  0
 14 12  1  0
 15 14  2  0
 17 16  1  0
 18 17  1  0
 18 20  1  0
 18 19  1  1
 20 22  1  0
 20 21  1  1
 21 14  1  0
 22 23  1  0
 24 22  2  0
M  END
$$$$
