CQI.pdb
     RDKit          3D

 24 23  0  0  1  0  0  0  0  0999 V2000
   26.1722  -18.2694  -16.2280 N   0  0  0  0  0  0  0  0  0  0  0  0
   26.9077  -18.8490  -15.1523 C   0  0  1  0  0  0  0  0  0  0  0  0
   28.1674  -18.0765  -14.8256 C   0  0  0  0  0  0  0  0  0  0  0  0
   29.2607  -18.1655  -16.2818 S   0  0  0  0  0  0  0  0  0  0  0  0
   26.0627  -18.8521  -13.9345 C   0  0  0  0  0  0  0  0  0  0  0  0
   25.4623  -17.8072  -13.5406 O   0  0  0  0  0  0  0  0  0  0  0  0
   21.6985  -22.5560  -13.5631 N   0  0  0  0  0  0  0  0  0  0  0  0
   21.5819  -21.1551  -13.7158 C   0  0  0  0  0  0  0  0  0  0  0  0
   20.5243  -20.7149  -14.2346 O   0  0  0  0  0  0  0  0  0  0  0  0
   22.6904  -20.2952  -13.2577 C   0  0  0  0  0  0  0  0  0  0  0  0
   23.8386  -20.9711  -12.6209 C   0  0  0  0  0  0  0  0  0  0  0  0
   24.9457  -20.1648  -12.0646 C   0  0  2  0  0  0  0  0  0  0  0  0
   25.9077  -20.0176  -13.1868 N   0  0  0  0  0  0  0  0  0  0  0  0
   25.7169  -20.7059  -10.9349 C   0  0  0  0  0  0  0  0  0  0  0  0
   26.4762  -21.7176  -11.0596 O   0  0  0  0  0  0  0  0  0  0  0  0
   29.0434  -19.6014   -6.0656 C   0  0  0  0  0  0  0  0  0  0  0  0
   28.0058  -20.4552   -6.6806 C   0  0  0  0  0  0  0  0  0  0  0  0
   27.2165  -19.9651   -7.8090 C   0  0  2  0  0  0  0  0  0  0  0  0
   26.5941  -18.6160   -7.4276 C   0  0  0  0  0  0  0  0  0  0  0  0
   26.2425  -20.8498   -8.4817 C   0  0  2  0  0  0  0  0  0  0  0  0
   25.6698  -20.1468   -9.6446 N   0  0  0  0  0  0  0  0  0  0  0  0
   25.1195  -21.3954   -7.7581 C   0  0  0  0  0  0  0  0  0  0  0  0
   23.8196  -21.0312   -8.0047 O   0  0  0  0  0  0  0  0  0  0  0  0
   25.2670  -22.2592   -6.8244 O   0  0  0  0  0  0  0  0  0  0  0  0
  2  1  1  6
  2  3  1  0
  3  4  1  0
  5  2  1  0
  5  6  2  0
  7  8  1  0
  8  9  2  0
  8 10  1  0
 10 11  1  0
 12 11  1  6
 12 13  1  0
 13  5  1  0
 14 12  1  0
 15 14  2  0
 17 16  1  0
 18 17  1  0
 18 20  1  0
 18 19  1  1
 20 22  1  0
 20 21  1  6
 21 14  1  0
 22 23  1  0
 24 22  2  0
M  END
$$$$
