YCY.pdb
     RDKit          3D

 31 32  0  0  1  0  0  0  0  0999 V2000
   11.1631  -15.5755   11.3198 O   0  0  0  0  0  0  0  0  0  0  0  0
   10.6041  -15.8334   12.5699 C   0  0  0  0  0  0  0  0  0  0  0  0
   11.4283  -16.0770   13.6447 C   0  0  0  0  0  0  0  0  0  0  0  0
   10.9080  -16.3353   14.8939 C   0  0  0  0  0  0  0  0  0  0  0  0
    9.5411  -16.3584   15.1092 C   0  0  0  0  0  0  0  0  0  0  0  0
    9.0448  -16.6394   16.4625 C   0  0  0  0  0  0  0  0  0  0  0  0
    9.1297  -18.1121   16.7106 C   0  0  2  0  0  0  0  0  0  0  0  0
    8.2451  -18.8649   15.8521 N   0  0  0  0  0  0  0  0  0  0  0  0
    8.8805  -18.4883   18.1230 C   0  0  0  0  0  0  0  0  0  0  0  0
    8.0068  -19.3164   18.4588 O   0  0  0  0  0  0  0  0  0  0  0  0
    8.7334  -16.1111   14.0161 C   0  0  0  0  0  0  0  0  0  0  0  0
    9.2408  -15.8527   12.7675 C   0  0  0  0  0  0  0  0  0  0  0  0
    9.6528  -17.9010   19.1859 N   0  0  0  0  0  0  0  0  0  0  0  0
    9.4843  -18.3022   20.5689 C   0  0  1  0  0  0  0  0  0  0  0  0
   10.1288  -19.6500   20.7718 C   0  0  0  0  0  0  0  0  0  0  0  0
   11.8375  -19.6731   20.1645 S   0  0  0  0  0  0  0  0  0  0  0  0
   10.0099  -17.2590   21.4403 C   0  0  0  0  0  0  0  0  0  0  0  0
   11.1429  -16.7687   21.2149 O   0  0  0  0  0  0  0  0  0  0  0  0
    7.3963  -12.6793   18.1739 O   0  0  0  0  0  0  0  0  0  0  0  0
    7.7686  -13.1099   19.4413 C   0  0  0  0  0  0  0  0  0  0  0  0
    8.9730  -12.7471   20.0053 C   0  0  0  0  0  0  0  0  0  0  0  0
    9.3641  -13.1630   21.2635 C   0  0  0  0  0  0  0  0  0  0  0  0
    8.5330  -13.9756   22.0066 C   0  0  0  0  0  0  0  0  0  0  0  0
    8.8761  -14.4610   23.3540 C   0  0  0  0  0  0  0  0  0  0  0  0
    9.8474  -15.6234   23.3191 C   0  0  2  0  0  0  0  0  0  0  0  0
    9.3067  -16.7348   22.5712 N   0  0  0  0  0  0  0  0  0  0  0  0
   10.0642  -16.0499   24.7207 C   0  0  0  0  0  0  0  0  0  0  0  0
   10.7505  -15.2331   25.6029 O   0  0  0  0  0  0  0  0  0  0  0  0
    7.3252  -14.3465   21.4555 C   0  0  0  0  0  0  0  0  0  0  0  0
    6.9288  -13.9322   20.1948 C   0  0  0  0  0  0  0  0  0  0  0  0
    9.6431  -17.1539   25.1677 O   0  0  0  0  0  0  0  0  0  0  0  0
  2  1  1  0
  3  2  2  0
  4  3  1  0
  5 11  1  0
  5  4  2  0
  6  5  1  0
  7  6  1  0
  7  8  1  6
  9  7  1  0
  9 10  2  0
 11 12  2  0
 12  2  1  0
 13  9  1  0
 14 13  1  0
 14 15  1  6
 16 15  1  0
 17 14  1  0
 18 17  2  0
 20 30  2  0
 20 19  1  0
 21 20  1  0
 22 23  1  0
 22 21  2  0
 23 29  2  0
 25 24  1  1
 24 23  1  0
 25 26  1  0
 26 17  1  0
 27 28  1  0
 27 25  1  0
 29 30  1  0
 31 27  2  0
M  END
$$$$
