YCY.pdb
     RDKit          3D

 31 32  0  0  1  0  0  0  0  0999 V2000
   17.3216  -19.4664   15.4375 O   0  0  0  0  0  0  0  0  0  0  0  0
   16.3302  -18.7098   16.0592 C   0  0  0  0  0  0  0  0  0  0  0  0
   15.1400  -18.4834   15.4064 C   0  0  0  0  0  0  0  0  0  0  0  0
   14.1393  -17.7398   15.9926 C   0  0  0  0  0  0  0  0  0  0  0  0
   14.2975  -17.1965   17.2556 C   0  0  0  0  0  0  0  0  0  0  0  0
   13.1960  -16.4128   17.8295 C   0  0  0  0  0  0  0  0  0  0  0  0
   12.6245  -17.1634   18.9904 C   0  0  2  0  0  0  0  0  0  0  0  0
   12.0544  -18.4309   18.5969 N   0  0  0  0  0  0  0  0  0  0  0  0
   11.6183  -16.3893   19.7564 C   0  0  0  0  0  0  0  0  0  0  0  0
   11.8059  -15.2084   20.1198 O   0  0  0  0  0  0  0  0  0  0  0  0
   15.5001  -17.4366   17.8917 C   0  0  0  0  0  0  0  0  0  0  0  0
   16.5036  -18.1758   17.3172 C   0  0  0  0  0  0  0  0  0  0  0  0
   10.3578  -16.9816   20.1193 N   0  0  0  0  0  0  0  0  0  0  0  0
    9.3986  -16.2906   20.9585 C   0  0  1  0  0  0  0  0  0  0  0  0
    8.0091  -16.7529   20.6003 C   0  0  0  0  0  0  0  0  0  0  0  0
    6.7684  -16.0968   21.7489 S   0  0  0  0  0  0  0  0  0  0  0  0
    9.7471  -16.4969   22.3585 C   0  0  0  0  0  0  0  0  0  0  0  0
   10.0378  -17.6473   22.7671 O   0  0  0  0  0  0  0  0  0  0  0  0
   11.4978  -15.3380   30.9829 O   0  0  0  0  0  0  0  0  0  0  0  0
   11.1291  -15.1428   29.6576 C   0  0  0  0  0  0  0  0  0  0  0  0
   11.8598  -15.6736   28.6161 C   0  0  0  0  0  0  0  0  0  0  0  0
   11.5123  -15.4926   27.2913 C   0  0  0  0  0  0  0  0  0  0  0  0
   10.3920  -14.7541   26.9705 C   0  0  0  0  0  0  0  0  0  0  0  0
    9.9547  -14.5156   25.5847 C   0  0  0  0  0  0  0  0  0  0  0  0
   10.1100  -15.7434   24.7106 C   0  0  2  0  0  0  0  0  0  0  0  0
    9.7837  -15.4505   23.3341 N   0  0  0  0  0  0  0  0  0  0  0  0
    9.1634  -16.7618   25.2206 C   0  0  0  0  0  0  0  0  0  0  0  0
    7.7997  -16.5995   25.0468 O   0  0  0  0  0  0  0  0  0  0  0  0
    9.6514  -14.2170   28.0016 C   0  0  0  0  0  0  0  0  0  0  0  0
    9.9957  -14.3957   29.3311 C   0  0  0  0  0  0  0  0  0  0  0  0
    9.5464  -17.8031   25.8247 O   0  0  0  0  0  0  0  0  0  0  0  0
  2  1  1  0
  3  2  2  0
  4  3  1  0
  5 11  1  0
  5  4  2  0
  6  5  1  0
  7  6  1  0
  7  8  1  6
  9  7  1  0
  9 10  2  0
 11 12  2  0
 12  2  1  0
 13  9  1  0
 14 13  1  0
 14 15  1  1
 16 15  1  0
 17 14  1  0
 18 17  2  0
 20 30  2  0
 20 19  1  0
 21 20  1  0
 22 23  1  0
 22 21  2  0
 23 29  2  0
 25 24  1  1
 24 23  1  0
 25 26  1  0
 26 17  1  0
 27 28  1  0
 27 25  1  0
 29 30  1  0
 31 27  2  0
M  END
$$$$
