YCY.pdb
     RDKit          3D

 31 32  0  0  1  0  0  0  0  0999 V2000
    9.2191  -12.8633   17.4390 O   0  0  0  0  0  0  0  0  0  0  0  0
    8.6193  -13.3252   18.6088 C   0  0  0  0  0  0  0  0  0  0  0  0
    9.3881  -13.9480   19.5654 C   0  0  0  0  0  0  0  0  0  0  0  0
    8.8264  -14.4163   20.7330 C   0  0  0  0  0  0  0  0  0  0  0  0
    7.4723  -14.2762   20.9823 C   0  0  0  0  0  0  0  0  0  0  0  0
    6.9301  -14.7952   22.2447 C   0  0  0  0  0  0  0  0  0  0  0  0
    6.8894  -16.2888   22.1735 C   0  0  2  0  0  0  0  0  0  0  0  0
    5.8653  -16.7673   21.2741 N   0  0  0  0  0  0  0  0  0  0  0  0
    6.7238  -16.9387   23.4959 C   0  0  0  0  0  0  0  0  0  0  0  0
    5.6246  -16.9998   24.0873 O   0  0  0  0  0  0  0  0  0  0  0  0
    6.7205  -13.6482   20.0083 C   0  0  0  0  0  0  0  0  0  0  0  0
    7.2695  -13.1779   18.8417 C   0  0  0  0  0  0  0  0  0  0  0  0
    7.8485  -17.5378   24.1648 N   0  0  0  0  0  0  0  0  0  0  0  0
    7.8435  -17.7979   25.5911 C   0  0  1  0  0  0  0  0  0  0  0  0
    7.7548  -19.2855   25.8193 C   0  0  0  0  0  0  0  0  0  0  0  0
    7.9882  -19.7097   27.5670 S   0  0  0  0  0  0  0  0  0  0  0  0
    9.0136  -17.1760   26.1979 C   0  0  0  0  0  0  0  0  0  0  0  0
   10.1405  -17.3094   25.6623 O   0  0  0  0  0  0  0  0  0  0  0  0
    5.4661  -12.0390   25.6106 O   0  0  0  0  0  0  0  0  0  0  0  0
    6.5282  -12.6019   26.3074 C   0  0  0  0  0  0  0  0  0  0  0  0
    6.5470  -12.6504   27.6849 C   0  0  0  0  0  0  0  0  0  0  0  0
    7.5919  -13.2050   28.3987 C   0  0  0  0  0  0  0  0  0  0  0  0
    8.6732  -13.7391   27.7288 C   0  0  0  0  0  0  0  0  0  0  0  0
    9.8249  -14.3480   28.4154 C   0  0  0  0  0  0  0  0  0  0  0  0
   10.1562  -15.7251   27.8775 C   0  0  2  0  0  0  0  0  0  0  0  0
    8.9713  -16.3989   27.3989 N   0  0  0  0  0  0  0  0  0  0  0  0
   10.7291  -16.5032   28.9998 C   0  0  0  0  0  0  0  0  0  0  0  0
   11.9212  -16.1132   29.5856 O   0  0  0  0  0  0  0  0  0  0  0  0
    8.6684  -13.6977   26.3510 C   0  0  0  0  0  0  0  0  0  0  0  0
    7.6233  -13.1428   25.6311 C   0  0  0  0  0  0  0  0  0  0  0  0
   10.1702  -17.5361   29.4653 O   0  0  0  0  0  0  0  0  0  0  0  0
  2  1  1  0
  3  2  2  0
  4  3  1  0
  5 11  1  0
  5  4  2  0
  6  5  1  0
  7  6  1  0
  7  8  1  6
  9  7  1  0
  9 10  2  0
 11 12  2  0
 12  2  1  0
 13  9  1  0
 14 13  1  0
 14 15  1  6
 16 15  1  0
 17 14  1  0
 18 17  2  0
 20 30  2  0
 20 19  1  0
 21 20  1  0
 22 23  1  0
 22 21  2  0
 23 29  2  0
 25 24  1  1
 24 23  1  0
 25 26  1  0
 26 17  1  0
 27 28  1  0
 27 25  1  0
 29 30  1  0
 31 27  2  0
M  END
$$$$
