YCY.pdb
     RDKit          3D

 31 32  0  0  1  0  0  0  0  0999 V2000
    6.7718  -14.1781   14.4092 O   0  0  0  0  0  0  0  0  0  0  0  0
    7.0376  -14.4418   15.7514 C   0  0  0  0  0  0  0  0  0  0  0  0
    6.8142  -13.4629   16.6925 C   0  0  0  0  0  0  0  0  0  0  0  0
    7.0665  -13.6909   18.0275 C   0  0  0  0  0  0  0  0  0  0  0  0
    7.5523  -14.9104   18.4660 C   0  0  0  0  0  0  0  0  0  0  0  0
    7.8024  -15.0953   19.9013 C   0  0  0  0  0  0  0  0  0  0  0  0
    8.6947  -13.9945   20.3805 C   0  0  2  0  0  0  0  0  0  0  0  0
    9.9853  -14.0130   19.7319 N   0  0  0  0  0  0  0  0  0  0  0  0
    8.8846  -13.9862   21.8510 C   0  0  0  0  0  0  0  0  0  0  0  0
    9.9489  -14.3464   22.3982 O   0  0  0  0  0  0  0  0  0  0  0  0
    7.7689  -15.8778   17.5039 C   0  0  0  0  0  0  0  0  0  0  0  0
    7.5211  -15.6615   16.1716 C   0  0  0  0  0  0  0  0  0  0  0  0
    7.8264  -13.5531   22.7250 N   0  0  0  0  0  0  0  0  0  0  0  0
    7.9382  -13.6415   24.1678 C   0  0  1  0  0  0  0  0  0  0  0  0
    6.6773  -13.1007   24.7926 C   0  0  0  0  0  0  0  0  0  0  0  0
    6.6624  -13.3456   26.5895 S   0  0  0  0  0  0  0  0  0  0  0  0
    8.2409  -15.0167   24.5437 C   0  0  0  0  0  0  0  0  0  0  0  0
    7.7484  -15.9666   23.8881 O   0  0  0  0  0  0  0  0  0  0  0  0
   10.4133  -14.7031   31.7190 O   0  0  0  0  0  0  0  0  0  0  0  0
   10.5778  -15.1689   30.4203 C   0  0  0  0  0  0  0  0  0  0  0  0
   10.6918  -16.5141   30.1416 C   0  0  0  0  0  0  0  0  0  0  0  0
   10.8559  -16.9999   28.8587 C   0  0  0  0  0  0  0  0  0  0  0  0
   10.9111  -16.1233   27.7949 C   0  0  0  0  0  0  0  0  0  0  0  0
   11.0836  -16.5607   26.3993 C   0  0  0  0  0  0  0  0  0  0  0  0
    9.7668  -16.6501   25.6551 C   0  0  2  0  0  0  0  0  0  0  0  0
    9.0860  -15.3760   25.6414 N   0  0  0  0  0  0  0  0  0  0  0  0
    8.9268  -17.6340   26.3759 C   0  0  0  0  0  0  0  0  0  0  0  0
    9.3613  -18.9379   26.5410 O   0  0  0  0  0  0  0  0  0  0  0  0
   10.7985  -14.7749   28.0583 C   0  0  0  0  0  0  0  0  0  0  0  0
   10.6339  -14.2831   29.3425 C   0  0  0  0  0  0  0  0  0  0  0  0
    7.7997  -17.3371   26.8633 O   0  0  0  0  0  0  0  0  0  0  0  0
  2  1  1  0
  3  2  2  0
  4  3  1  0
  5 11  1  0
  5  4  2  0
  6  5  1  0
  7  6  1  0
  7  8  1  6
  9  7  1  0
  9 10  2  0
 11 12  2  0
 12  2  1  0
 13  9  1  0
 14 13  1  0
 14 15  1  1
 16 15  1  0
 17 14  1  0
 18 17  2  0
 20 30  2  0
 20 19  1  0
 21 20  1  0
 22 23  1  0
 22 21  2  0
 23 29  2  0
 25 24  1  1
 24 23  1  0
 25 26  1  0
 26 17  1  0
 27 28  1  0
 27 25  1  0
 29 30  1  0
 31 27  2  0
M  END
$$$$
