YCY.pdb
     RDKit          3D

 31 32  0  0  1  0  0  0  0  0999 V2000
   13.6684  -22.1374   18.6310 O   0  0  0  0  0  0  0  0  0  0  0  0
   12.5986  -21.2466   18.6944 C   0  0  0  0  0  0  0  0  0  0  0  0
   11.4259  -21.5469   18.0397 C   0  0  0  0  0  0  0  0  0  0  0  0
   10.3495  -20.6881   18.0821 C   0  0  0  0  0  0  0  0  0  0  0  0
   10.4116  -19.4966   18.7836 C   0  0  0  0  0  0  0  0  0  0  0  0
    9.2324  -18.6213   18.7930 C   0  0  0  0  0  0  0  0  0  0  0  0
    8.1089  -19.3341   19.4765 C   0  0  2  0  0  0  0  0  0  0  0  0
    7.0768  -19.7441   18.5528 N   0  0  0  0  0  0  0  0  0  0  0  0
    7.4984  -18.5534   20.5794 C   0  0  0  0  0  0  0  0  0  0  0  0
    6.3086  -18.1716   20.5607 O   0  0  0  0  0  0  0  0  0  0  0  0
   11.5983  -19.2163   19.4327 C   0  0  0  0  0  0  0  0  0  0  0  0
   12.6767  -20.0644   19.3971 C   0  0  0  0  0  0  0  0  0  0  0  0
    8.2702  -18.1972   21.7407 N   0  0  0  0  0  0  0  0  0  0  0  0
    7.6784  -17.5176   22.8765 C   0  0  1  0  0  0  0  0  0  0  0  0
    6.5812  -18.3792   23.4478 C   0  0  0  0  0  0  0  0  0  0  0  0
    6.3075  -18.0352   25.2073 S   0  0  0  0  0  0  0  0  0  0  0  0
    8.7240  -17.1806   23.8342 C   0  0  0  0  0  0  0  0  0  0  0  0
    9.6140  -18.0214   24.1093 O   0  0  0  0  0  0  0  0  0  0  0  0
    4.8114  -12.4403   27.5298 O   0  0  0  0  0  0  0  0  0  0  0  0
    6.0608  -12.8650   27.0949 C   0  0  0  0  0  0  0  0  0  0  0  0
    6.3141  -13.1302   25.7660 C   0  0  0  0  0  0  0  0  0  0  0  0
    7.5481  -13.5533   25.3108 C   0  0  0  0  0  0  0  0  0  0  0  0
    8.5864  -13.7252   26.2028 C   0  0  0  0  0  0  0  0  0  0  0  0
    9.9298  -14.1724   25.7979 C   0  0  0  0  0  0  0  0  0  0  0  0
    9.9465  -15.6202   25.3515 C   0  0  2  0  0  0  0  0  0  0  0  0
    8.8140  -15.9203   24.5064 N   0  0  0  0  0  0  0  0  0  0  0  0
    9.8654  -16.4522   26.5740 C   0  0  0  0  0  0  0  0  0  0  0  0
   10.9026  -16.4527   27.4908 O   0  0  0  0  0  0  0  0  0  0  0  0
    8.3479  -13.4638   27.5350 C   0  0  0  0  0  0  0  0  0  0  0  0
    7.1127  -13.0395   27.9961 C   0  0  0  0  0  0  0  0  0  0  0  0
    8.8688  -17.1843   26.8325 O   0  0  0  0  0  0  0  0  0  0  0  0
  2  1  1  0
  3  2  2  0
  4  3  1  0
  5 11  1  0
  5  4  2  0
  6  5  1  0
  7  6  1  0
  7  8  1  6
  9  7  1  0
  9 10  2  0
 11 12  2  0
 12  2  1  0
 13  9  1  0
 14 13  1  0
 14 15  1  1
 16 15  1  0
 17 14  1  0
 18 17  2  0
 20 30  2  0
 20 19  1  0
 21 20  1  0
 22 23  1  0
 22 21  2  0
 23 29  2  0
 25 24  1  1
 24 23  1  0
 25 26  1  0
 26 17  1  0
 27 28  1  0
 27 25  1  0
 29 30  1  0
 31 27  2  0
M  END
$$$$
