YCY.pdb
     RDKit          3D

 31 32  0  0  1  0  0  0  0  0999 V2000
   21.8176  -13.3940   17.4194 O   0  0  0  0  0  0  0  0  0  0  0  0
   20.4548  -13.4246   17.7085 C   0  0  0  0  0  0  0  0  0  0  0  0
   19.7739  -12.2431   17.8938 C   0  0  0  0  0  0  0  0  0  0  0  0
   18.4264  -12.2380   18.1809 C   0  0  0  0  0  0  0  0  0  0  0  0
   17.7139  -13.4193   18.2924 C   0  0  0  0  0  0  0  0  0  0  0  0
   16.2796  -13.3515   18.6002 C   0  0  0  0  0  0  0  0  0  0  0  0
   15.5112  -13.8949   17.4375 C   0  0  2  0  0  0  0  0  0  0  0  0
   15.6479  -13.0732   16.2575 N   0  0  0  0  0  0  0  0  0  0  0  0
   14.0718  -14.1032   17.7263 C   0  0  0  0  0  0  0  0  0  0  0  0
   13.2531  -13.1620   17.8003 O   0  0  0  0  0  0  0  0  0  0  0  0
   18.4180  -14.5926   18.1025 C   0  0  0  0  0  0  0  0  0  0  0  0
   19.7601  -14.6093   17.8162 C   0  0  0  0  0  0  0  0  0  0  0  0
   13.5502  -15.4278   17.9375 N   0  0  0  0  0  0  0  0  0  0  0  0
   12.1746  -15.6565   18.3343 C   0  0  1  0  0  0  0  0  0  0  0  0
   11.5327  -16.6082   17.3570 C   0  0  0  0  0  0  0  0  0  0  0  0
    9.8848  -17.1253   17.9102 S   0  0  0  0  0  0  0  0  0  0  0  0
   12.1425  -16.1183   19.7162 C   0  0  0  0  0  0  0  0  0  0  0  0
   13.1633  -16.0037   20.4371 O   0  0  0  0  0  0  0  0  0  0  0  0
   11.0127  -17.5669   28.0938 O   0  0  0  0  0  0  0  0  0  0  0  0
   10.9972  -17.1688   26.7627 C   0  0  0  0  0  0  0  0  0  0  0  0
    9.8534  -16.6852   26.1640 C   0  0  0  0  0  0  0  0  0  0  0  0
    9.8145  -16.2838   24.8426 C   0  0  0  0  0  0  0  0  0  0  0  0
   10.9539  -16.3599   24.0685 C   0  0  0  0  0  0  0  0  0  0  0  0
   10.9950  -15.9520   22.6541 C   0  0  0  0  0  0  0  0  0  0  0  0
   11.0432  -17.1378   21.7121 C   0  0  2  0  0  0  0  0  0  0  0  0
   10.9955  -16.7123   20.3324 N   0  0  0  0  0  0  0  0  0  0  0  0
    9.8510  -17.9683   21.9985 C   0  0  0  0  0  0  0  0  0  0  0  0
    9.7915  -18.7344   23.1499 O   0  0  0  0  0  0  0  0  0  0  0  0
   12.1053  -16.8415   24.6537 C   0  0  0  0  0  0  0  0  0  0  0  0
   12.1493  -17.2452   25.9778 C   0  0  0  0  0  0  0  0  0  0  0  0
    8.8544  -18.0161   21.2235 O   0  0  0  0  0  0  0  0  0  0  0  0
  2  1  1  0
  3  2  2  0
  4  3  1  0
  5 11  1  0
  5  4  2  0
  6  5  1  0
  7  6  1  0
  7  8  1  6
  9  7  1  0
  9 10  2  0
 11 12  2  0
 12  2  1  0
 13  9  1  0
 14 13  1  0
 14 15  1  6
 16 15  1  0
 17 14  1  0
 18 17  2  0
 20 30  2  0
 20 19  1  0
 21 20  1  0
 22 23  1  0
 22 21  2  0
 23 29  2  0
 25 24  1  1
 24 23  1  0
 25 26  1  0
 26 17  1  0
 27 28  1  0
 27 25  1  0
 29 30  1  0
 31 27  2  0
M  END
$$$$
