YCY.pdb
     RDKit          3D

 31 32  0  0  1  0  0  0  0  0999 V2000
    7.7931  -12.2323   17.7695 O   0  0  0  0  0  0  0  0  0  0  0  0
    7.9070  -13.4509   18.4358 C   0  0  0  0  0  0  0  0  0  0  0  0
    6.9758  -13.7921   19.3900 C   0  0  0  0  0  0  0  0  0  0  0  0
    7.0593  -14.9889   20.0671 C   0  0  0  0  0  0  0  0  0  0  0  0
    8.0809  -15.8867   19.8106 C   0  0  0  0  0  0  0  0  0  0  0  0
    8.1183  -17.1468   20.5639 C   0  0  0  0  0  0  0  0  0  0  0  0
    6.9384  -17.1943   21.4822 C   0  0  2  0  0  0  0  0  0  0  0  0
    5.6851  -17.2157   20.7643 N   0  0  0  0  0  0  0  0  0  0  0  0
    6.9172  -16.0921   22.4738 C   0  0  0  0  0  0  0  0  0  0  0  0
    5.9092  -15.3809   22.6739 O   0  0  0  0  0  0  0  0  0  0  0  0
    9.0038  -15.5231   18.8492 C   0  0  0  0  0  0  0  0  0  0  0  0
    8.9303  -14.3336   18.1687 C   0  0  0  0  0  0  0  0  0  0  0  0
    8.0832  -15.7919   23.2621 N   0  0  0  0  0  0  0  0  0  0  0  0
    8.0601  -14.8003   24.3195 C   0  0  1  0  0  0  0  0  0  0  0  0
    6.9886  -15.1677   25.3145 C   0  0  0  0  0  0  0  0  0  0  0  0
    6.7532  -13.8665   26.5557 S   0  0  0  0  0  0  0  0  0  0  0  0
    9.3916  -14.6853   24.9009 C   0  0  0  0  0  0  0  0  0  0  0  0
    9.5905  -13.8954   25.8555 O   0  0  0  0  0  0  0  0  0  0  0  0
   10.8212  -14.1042   31.2262 O   0  0  0  0  0  0  0  0  0  0  0  0
   10.6435  -14.7829   30.0270 C   0  0  0  0  0  0  0  0  0  0  0  0
   10.0153  -14.1972   28.9487 C   0  0  0  0  0  0  0  0  0  0  0  0
    9.8275  -14.8526   27.7470 C   0  0  0  0  0  0  0  0  0  0  0  0
   10.2781  -16.1475   27.5941 C   0  0  0  0  0  0  0  0  0  0  0  0
   10.1172  -16.9138   26.3468 C   0  0  0  0  0  0  0  0  0  0  0  0
   11.0903  -16.4767   25.2708 C   0  0  2  0  0  0  0  0  0  0  0  0
   10.5265  -15.4309   24.4489 N   0  0  0  0  0  0  0  0  0  0  0  0
   11.3591  -17.6601   24.4220 C   0  0  0  0  0  0  0  0  0  0  0  0
   12.0914  -18.7253   24.9174 O   0  0  0  0  0  0  0  0  0  0  0  0
   10.9083  -16.7463   28.6639 C   0  0  0  0  0  0  0  0  0  0  0  0
   11.0988  -16.0934   29.8704 C   0  0  0  0  0  0  0  0  0  0  0  0
   10.9426  -17.7519   23.2328 O   0  0  0  0  0  0  0  0  0  0  0  0
  2  1  1  0
  3  2  2  0
  4  3  1  0
  5 11  1  0
  5  4  2  0
  6  5  1  0
  7  6  1  0
  7  8  1  6
  9  7  1  0
  9 10  2  0
 11 12  2  0
 12  2  1  0
 13  9  1  0
 14 13  1  0
 14 15  1  1
 16 15  1  0
 17 14  1  0
 18 17  2  0
 20 30  2  0
 20 19  1  0
 21 20  1  0
 22 23  1  0
 22 21  2  0
 23 29  2  0
 25 24  1  1
 24 23  1  0
 25 26  1  0
 26 17  1  0
 27 28  1  0
 27 25  1  0
 29 30  1  0
 31 27  2  0
M  END
$$$$
