YCY.pdb
     RDKit          3D

 31 32  0  0  1  0  0  0  0  0999 V2000
    1.2218  -22.0326   24.3565 O   0  0  0  0  0  0  0  0  0  0  0  0
    2.2933  -21.1962   24.0496 C   0  0  0  0  0  0  0  0  0  0  0  0
    3.5674  -21.5624   24.4189 C   0  0  0  0  0  0  0  0  0  0  0  0
    4.6485  -20.7586   24.1308 C   0  0  0  0  0  0  0  0  0  0  0  0
    4.4894  -19.5577   23.4614 C   0  0  0  0  0  0  0  0  0  0  0  0
    5.6788  -18.7428   23.1820 C   0  0  0  0  0  0  0  0  0  0  0  0
    5.9391  -18.7597   21.7091 C   0  0  2  0  0  0  0  0  0  0  0  0
    6.2734  -20.0793   21.2262 N   0  0  0  0  0  0  0  0  0  0  0  0
    6.9875  -17.8013   21.2837 C   0  0  0  0  0  0  0  0  0  0  0  0
    8.2055  -18.0804   21.2973 O   0  0  0  0  0  0  0  0  0  0  0  0
    3.2018  -19.2107   23.1006 C   0  0  0  0  0  0  0  0  0  0  0  0
    2.1178  -20.0038   23.3825 C   0  0  0  0  0  0  0  0  0  0  0  0
    6.6346  -16.4824   20.8283 N   0  0  0  0  0  0  0  0  0  0  0  0
    7.6013  -15.4029   20.7808 C   0  0  1  0  0  0  0  0  0  0  0  0
    7.0292  -14.2659   19.9729 C   0  0  0  0  0  0  0  0  0  0  0  0
    8.1924  -12.8799   19.8507 S   0  0  0  0  0  0  0  0  0  0  0  0
    7.9760  -15.0321   22.1395 C   0  0  0  0  0  0  0  0  0  0  0  0
    7.2200  -14.2943   22.8169 O   0  0  0  0  0  0  0  0  0  0  0  0
    9.7817  -15.5870   30.5692 O   0  0  0  0  0  0  0  0  0  0  0  0
    9.4516  -15.6578   29.2215 C   0  0  0  0  0  0  0  0  0  0  0  0
    8.9305  -14.5755   28.5450 C   0  0  0  0  0  0  0  0  0  0  0  0
    8.5950  -14.6227   27.2056 C   0  0  0  0  0  0  0  0  0  0  0  0
    8.7795  -15.7894   26.4928 C   0  0  0  0  0  0  0  0  0  0  0  0
    8.4478  -15.9209   25.0640 C   0  0  0  0  0  0  0  0  0  0  0  0
    9.4153  -15.1668   24.1747 C   0  0  2  0  0  0  0  0  0  0  0  0
    9.1819  -15.4611   22.7797 N   0  0  0  0  0  0  0  0  0  0  0  0
   10.7789  -15.6167   24.5372 C   0  0  0  0  0  0  0  0  0  0  0  0
   11.2692  -16.8201   24.0600 O   0  0  0  0  0  0  0  0  0  0  0  0
    9.2998  -16.8801   27.1560 C   0  0  0  0  0  0  0  0  0  0  0  0
    9.6376  -16.8376   28.4986 C   0  0  0  0  0  0  0  0  0  0  0  0
   11.5420  -14.9395   25.2822 O   0  0  0  0  0  0  0  0  0  0  0  0
  2  1  1  0
  3  2  2  0
  4  3  1  0
  5 11  1  0
  5  4  2  0
  6  5  1  0
  7  6  1  0
  7  8  1  1
  9  7  1  0
  9 10  2  0
 11 12  2  0
 12  2  1  0
 13  9  1  0
 14 13  1  0
 14 15  1  1
 16 15  1  0
 17 14  1  0
 18 17  2  0
 20 30  2  0
 20 19  1  0
 21 20  1  0
 22 23  1  0
 22 21  2  0
 23 29  2  0
 25 24  1  1
 24 23  1  0
 25 26  1  0
 26 17  1  0
 27 28  1  0
 27 25  1  0
 29 30  1  0
 31 27  2  0
M  END
$$$$
