YCY.pdb
     RDKit          3D

 31 32  0  0  1  0  0  0  0  0999 V2000
    3.8775  -23.8890   26.1853 O   0  0  0  0  0  0  0  0  0  0  0  0
    4.4421  -22.7500   25.6146 C   0  0  0  0  0  0  0  0  0  0  0  0
    5.7717  -22.4697   25.8326 C   0  0  0  0  0  0  0  0  0  0  0  0
    6.3608  -21.3521   25.2832 C   0  0  0  0  0  0  0  0  0  0  0  0
    5.6361  -20.4754   24.4947 C   0  0  0  0  0  0  0  0  0  0  0  0
    6.3178  -19.3007   23.9360 C   0  0  0  0  0  0  0  0  0  0  0  0
    6.5126  -19.5099   22.4677 C   0  0  2  0  0  0  0  0  0  0  0  0
    7.1817  -20.7562   22.1752 N   0  0  0  0  0  0  0  0  0  0  0  0
    7.2342  -18.3979   21.8034 C   0  0  0  0  0  0  0  0  0  0  0  0
    8.4657  -18.4206   21.5920 O   0  0  0  0  0  0  0  0  0  0  0  0
    4.3037  -20.7769   24.2895 C   0  0  0  0  0  0  0  0  0  0  0  0
    3.7067  -21.8872   24.8319 C   0  0  0  0  0  0  0  0  0  0  0  0
    6.5280  -17.2225   21.3664 N   0  0  0  0  0  0  0  0  0  0  0  0
    7.1975  -15.9502   21.1794 C   0  0  1  0  0  0  0  0  0  0  0  0
    6.2472  -14.9877   20.5135 C   0  0  0  0  0  0  0  0  0  0  0  0
    7.0136  -13.3655   20.2491 S   0  0  0  0  0  0  0  0  0  0  0  0
    7.7099  -15.4828   22.4612 C   0  0  0  0  0  0  0  0  0  0  0  0
    6.9716  -14.8110   23.2217 O   0  0  0  0  0  0  0  0  0  0  0  0
   10.6043  -15.1354   30.5629 O   0  0  0  0  0  0  0  0  0  0  0  0
   10.1139  -15.3443   29.2798 C   0  0  0  0  0  0  0  0  0  0  0  0
    9.3797  -14.3828   28.6189 C   0  0  0  0  0  0  0  0  0  0  0  0
    8.8822  -14.5684   27.3434 C   0  0  0  0  0  0  0  0  0  0  0  0
    9.1160  -15.7563   26.6818 C   0  0  0  0  0  0  0  0  0  0  0  0
    8.6211  -16.0316   25.3225 C   0  0  0  0  0  0  0  0  0  0  0  0
    9.4366  -15.3273   24.2572 C   0  0  2  0  0  0  0  0  0  0  0  0
    9.0361  -15.7416   22.9325 N   0  0  0  0  0  0  0  0  0  0  0  0
   10.8515  -15.7088   24.4709 C   0  0  0  0  0  0  0  0  0  0  0  0
   11.7094  -14.8631   25.1529 O   0  0  0  0  0  0  0  0  0  0  0  0
    9.8488  -16.7272   27.3303 C   0  0  0  0  0  0  0  0  0  0  0  0
   10.3495  -16.5458   28.6088 C   0  0  0  0  0  0  0  0  0  0  0  0
   11.3320  -16.7990   24.0506 O   0  0  0  0  0  0  0  0  0  0  0  0
  2  1  1  0
  3  2  2  0
  4  3  1  0
  5 11  1  0
  5  4  2  0
  6  5  1  0
  7  6  1  0
  7  8  1  1
  9  7  1  0
  9 10  2  0
 11 12  2  0
 12  2  1  0
 13  9  1  0
 14 13  1  0
 14 15  1  1
 16 15  1  0
 17 14  1  0
 18 17  2  0
 20 30  2  0
 20 19  1  0
 21 20  1  0
 22 23  1  0
 22 21  2  0
 23 29  2  0
 25 24  1  1
 24 23  1  0
 25 26  1  0
 26 17  1  0
 27 28  1  0
 27 25  1  0
 29 30  1  0
 31 27  2  0
M  END
$$$$
