YCY.pdb
     RDKit          3D

 31 32  0  0  1  0  0  0  0  0999 V2000
    8.2448  -12.3036   17.1452 O   0  0  0  0  0  0  0  0  0  0  0  0
    8.1627  -12.9305   18.3870 C   0  0  0  0  0  0  0  0  0  0  0  0
    6.9276  -13.2008   18.9304 C   0  0  0  0  0  0  0  0  0  0  0  0
    6.8113  -13.8193   20.1559 C   0  0  0  0  0  0  0  0  0  0  0  0
    7.9312  -14.1887   20.8803 C   0  0  0  0  0  0  0  0  0  0  0  0
    7.7451  -14.8449   22.1810 C   0  0  0  0  0  0  0  0  0  0  0  0
    7.8237  -16.3263   21.9887 C   0  0  2  0  0  0  0  0  0  0  0  0
    6.6604  -16.8544   21.3147 N   0  0  0  0  0  0  0  0  0  0  0  0
    8.0419  -17.0747   23.2500 C   0  0  0  0  0  0  0  0  0  0  0  0
    7.1027  -17.5180   23.9452 O   0  0  0  0  0  0  0  0  0  0  0  0
    9.1601  -13.9075   20.3155 C   0  0  0  0  0  0  0  0  0  0  0  0
    9.2875  -13.2919   19.0955 C   0  0  0  0  0  0  0  0  0  0  0  0
    9.3741  -17.3250   23.7335 N   0  0  0  0  0  0  0  0  0  0  0  0
    9.6196  -17.9261   25.0298 C   0  0  1  0  0  0  0  0  0  0  0  0
   10.4613  -19.1635   24.8464 C   0  0  0  0  0  0  0  0  0  0  0  0
   10.8440  -19.9538   26.4332 S   0  0  0  0  0  0  0  0  0  0  0  0
   10.2140  -16.9335   25.9159 C   0  0  0  0  0  0  0  0  0  0  0  0
   10.9870  -16.0622   25.4490 O   0  0  0  0  0  0  0  0  0  0  0  0
    5.9184  -12.6478   25.4393 O   0  0  0  0  0  0  0  0  0  0  0  0
    6.8652  -13.2182   26.2811 C   0  0  0  0  0  0  0  0  0  0  0  0
    8.1111  -12.6552   26.4576 C   0  0  0  0  0  0  0  0  0  0  0  0
    9.0680  -13.2045   27.2892 C   0  0  0  0  0  0  0  0  0  0  0  0
    8.7901  -14.3641   27.9829 C   0  0  0  0  0  0  0  0  0  0  0  0
    9.7547  -15.0115   28.8880 C   0  0  0  0  0  0  0  0  0  0  0  0
   10.6990  -15.9428   28.1553 C   0  0  2  0  0  0  0  0  0  0  0  0
    9.9737  -16.8768   27.3256 N   0  0  0  0  0  0  0  0  0  0  0  0
   11.4485  -16.6988   29.1848 C   0  0  0  0  0  0  0  0  0  0  0  0
   12.3038  -16.0413   30.0522 O   0  0  0  0  0  0  0  0  0  0  0  0
    7.5482  -14.9386   27.8163 C   0  0  0  0  0  0  0  0  0  0  0  0
    6.5857  -14.3917   26.9839 C   0  0  0  0  0  0  0  0  0  0  0  0
   11.3455  -17.9509   29.3174 O   0  0  0  0  0  0  0  0  0  0  0  0
  2  1  1  0
  3  2  2  0
  4  3  1  0
  5 11  1  0
  5  4  2  0
  6  5  1  0
  7  6  1  0
  7  8  1  1
  9  7  1  0
  9 10  2  0
 11 12  2  0
 12  2  1  0
 13  9  1  0
 14 13  1  0
 14 15  1  6
 16 15  1  0
 17 14  1  0
 18 17  2  0
 20 30  2  0
 20 19  1  0
 21 20  1  0
 22 23  1  0
 22 21  2  0
 23 29  2  0
 25 24  1  1
 24 23  1  0
 25 26  1  0
 26 17  1  0
 27 28  1  0
 27 25  1  0
 29 30  1  0
 31 27  2  0
M  END
$$$$
