HLA.pdb
     RDKit          3D

 24 24  0  0  1  0  0  0  0  0999 V2000
   10.4238  -14.0606   20.7533 N   0  0  0  0  0  0  0  0  0  0  0  0
    9.1228  -14.2814   21.3355 C   0  0  1  0  0  0  0  0  0  0  0  0
    8.4420  -15.3706   20.5798 C   0  0  0  0  0  0  0  0  0  0  0  0
    8.0730  -14.8539   19.2360 C   0  0  0  0  0  0  0  0  0  0  0  0
    8.3763  -13.6457   18.6441 C   0  0  0  0  0  0  0  0  0  0  0  0
    7.8485  -13.5765   17.4180 N   0  0  0  0  0  0  0  0  0  0  0  0
    7.2038  -14.7357   17.2128 C   0  0  0  0  0  0  0  0  0  0  0  0
    7.3339  -15.5118   18.3034 N   0  0  0  0  0  0  0  0  0  0  0  0
    9.2040  -14.5208   22.7873 C   0  0  0  0  0  0  0  0  0  0  0  0
   10.2709  -14.9286   23.2656 O   0  0  0  0  0  0  0  0  0  0  0  0
    5.5537  -12.4512   26.8733 C   0  0  0  0  0  0  0  0  0  0  0  0
    6.8600  -12.6090   26.0691 C   0  0  1  0  0  0  0  0  0  0  0  0
    7.9061  -11.8081   26.7527 C   0  0  0  0  0  0  0  0  0  0  0  0
    7.0896  -14.0741   25.9506 C   0  0  0  0  0  0  0  0  0  0  0  0
    8.1562  -14.5602   25.0769 C   0  0  2  0  0  0  0  0  0  0  0  0
    8.1374  -14.3167   23.6913 N   0  0  0  0  0  0  0  0  0  0  0  0
    8.3625  -16.0282   25.3562 C   0  0  0  0  0  0  0  0  0  0  0  0
    7.4399  -16.8676   25.1924 O   0  0  0  0  0  0  0  0  0  0  0  0
   11.1141  -18.4142   25.3781 C   0  0  0  0  0  0  0  0  0  0  0  0
    9.8481  -17.9366   26.0729 C   0  0  2  0  0  0  0  0  0  0  0  0
    9.6112  -16.5303   25.8180 N   0  0  0  0  0  0  0  0  0  0  0  0
    9.8642  -18.2466   27.5151 C   0  0  0  0  0  0  0  0  0  0  0  0
    9.9312  -19.5588   27.9511 O   0  0  0  0  0  0  0  0  0  0  0  0
    9.8172  -17.3188   28.3495 O   0  0  0  0  0  0  0  0  0  0  0  0
  2  1  1  6
  3  2  1  0
  4  3  1  0
  5  4  2  0
  6  7  1  0
  6  5  1  0
  7  8  2  0
  8  4  1  0
  9 10  2  0
  9  2  1  0
 12 11  1  1
 12 14  1  0
 12 13  1  0
 15 14  1  6
 15 16  1  0
 16  9  1  0
 17 15  1  0
 18 17  2  0
 20 19  1  1
 20 21  1  0
 21 17  1  0
 22 23  1  0
 22 20  1  0
 24 22  2  0
M  END
$$$$
