HLA.pdb
     RDKit          3D

 24 24  0  0  1  0  0  0  0  0999 V2000
   10.4622  -14.8485   21.4517 N   0  0  0  0  0  0  0  0  0  0  0  0
    9.1725  -14.4696   21.9743 C   0  0  1  0  0  0  0  0  0  0  0  0
    8.1164  -15.1618   21.1827 C   0  0  0  0  0  0  0  0  0  0  0  0
    8.0383  -14.5260   19.8417 C   0  0  0  0  0  0  0  0  0  0  0  0
    8.7845  -13.4939   19.3123 C   0  0  0  0  0  0  0  0  0  0  0  0
    8.3930  -13.2222   18.0635 N   0  0  0  0  0  0  0  0  0  0  0  0
    7.3953  -14.0745   17.7811 C   0  0  0  0  0  0  0  0  0  0  0  0
    7.1748  -14.8641   18.8473 N   0  0  0  0  0  0  0  0  0  0  0  0
    9.0790  -14.6999   23.4268 C   0  0  0  0  0  0  0  0  0  0  0  0
   10.0633  -15.1579   24.0225 O   0  0  0  0  0  0  0  0  0  0  0  0
    5.3686  -11.8700   26.7681 C   0  0  0  0  0  0  0  0  0  0  0  0
    6.7226  -12.2865   26.1588 C   0  0  1  0  0  0  0  0  0  0  0  0
    7.7745  -11.4542   26.7943 C   0  0  0  0  0  0  0  0  0  0  0  0
    6.8141  -13.7602   26.3414 C   0  0  0  0  0  0  0  0  0  0  0  0
    7.8336  -14.5076   25.6071 C   0  0  2  0  0  0  0  0  0  0  0  0
    7.9306  -14.4328   24.2056 N   0  0  0  0  0  0  0  0  0  0  0  0
    7.7827  -15.9454   26.0608 C   0  0  0  0  0  0  0  0  0  0  0  0
    7.7906  -16.2536   27.2805 O   0  0  0  0  0  0  0  0  0  0  0  0
    7.1001  -19.2693   24.3882 C   0  0  0  0  0  0  0  0  0  0  0  0
    7.6089  -18.4057   25.5323 C   0  0  2  0  0  0  0  0  0  0  0  0
    7.7235  -17.0190   25.1289 N   0  0  0  0  0  0  0  0  0  0  0  0
    8.8684  -18.9282   26.0952 C   0  0  0  0  0  0  0  0  0  0  0  0
    8.9053  -20.1737   26.6983 O   0  0  0  0  0  0  0  0  0  0  0  0
    9.9097  -18.2422   26.0274 O   0  0  0  0  0  0  0  0  0  0  0  0
  2  1  1  6
  3  2  1  0
  4  3  1  0
  5  4  2  0
  6  7  1  0
  6  5  1  0
  7  8  2  0
  8  4  1  0
  9 10  2  0
  9  2  1  0
 12 11  1  1
 12 14  1  0
 12 13  1  0
 15 14  1  6
 15 16  1  0
 16  9  1  0
 17 15  1  0
 18 17  2  0
 20 19  1  6
 20 21  1  0
 21 17  1  0
 22 23  1  0
 22 20  1  0
 24 22  2  0
M  END
$$$$
