HLA.pdb
     RDKit          3D

 24 24  0  0  1  0  0  0  0  0999 V2000
    9.7772  -16.1277   20.8094 N   0  0  0  0  0  0  0  0  0  0  0  0
    8.5981  -16.2645   21.6286 C   0  0  1  0  0  0  0  0  0  0  0  0
    8.2808  -17.7140   21.7674 C   0  0  0  0  0  0  0  0  0  0  0  0
    7.5777  -18.1635   20.5377 C   0  0  0  0  0  0  0  0  0  0  0  0
    7.3340  -17.4811   19.3641 C   0  0  0  0  0  0  0  0  0  0  0  0
    6.6653  -18.2524   18.5012 N   0  0  0  0  0  0  0  0  0  0  0  0
    6.4743  -19.4327   19.1112 C   0  0  0  0  0  0  0  0  0  0  0  0
    7.0210  -19.3881   20.3391 N   0  0  0  0  0  0  0  0  0  0  0  0
    8.7367  -15.5566   22.9136 C   0  0  0  0  0  0  0  0  0  0  0  0
    9.8472  -15.5256   23.4606 O   0  0  0  0  0  0  0  0  0  0  0  0
    7.9442  -11.7379   26.6112 C   0  0  0  0  0  0  0  0  0  0  0  0
    6.7832  -12.7524   26.6407 C   0  0  1  0  0  0  0  0  0  0  0  0
    5.5816  -12.0432   27.1468 C   0  0  0  0  0  0  0  0  0  0  0  0
    6.7109  -13.3271   25.2703 C   0  0  0  0  0  0  0  0  0  0  0  0
    7.7484  -14.2595   24.8326 C   0  0  2  0  0  0  0  0  0  0  0  0
    7.6792  -14.8987   23.5812 N   0  0  0  0  0  0  0  0  0  0  0  0
    7.9720  -15.2668   25.9329 C   0  0  0  0  0  0  0  0  0  0  0  0
    8.2531  -14.9113   27.1065 O   0  0  0  0  0  0  0  0  0  0  0  0
    7.2868  -18.9251   26.4355 C   0  0  0  0  0  0  0  0  0  0  0  0
    8.0749  -17.6579   26.7298 C   0  0  2  0  0  0  0  0  0  0  0  0
    7.8751  -16.6660   25.6929 N   0  0  0  0  0  0  0  0  0  0  0  0
    9.5038  -17.9424   26.9609 C   0  0  0  0  0  0  0  0  0  0  0  0
    9.9038  -18.6856   28.0582 O   0  0  0  0  0  0  0  0  0  0  0  0
   10.3597  -17.5098   26.1611 O   0  0  0  0  0  0  0  0  0  0  0  0
  2  1  1  1
  3  2  1  0
  4  3  1  0
  5  4  2  0
  6  7  1  0
  6  5  1  0
  7  8  2  0
  8  4  1  0
  9 10  2  0
  9  2  1  0
 12 11  1  6
 12 14  1  0
 12 13  1  0
 15 14  1  1
 15 16  1  0
 16  9  1  0
 17 15  1  0
 18 17  2  0
 20 19  1  6
 20 21  1  0
 21 17  1  0
 22 23  1  0
 22 20  1  0
 24 22  2  0
M  END
$$$$
