HLA.pdb
     RDKit          3D

 24 24  0  0  1  0  0  0  0  0999 V2000
    9.6035  -15.6775   21.0078 N   0  0  0  0  0  0  0  0  0  0  0  0
    8.4846  -15.8356   21.9040 C   0  0  1  0  0  0  0  0  0  0  0  0
    8.0382  -17.2569   21.8616 C   0  0  0  0  0  0  0  0  0  0  0  0
    7.4728  -17.5344   20.5155 C   0  0  0  0  0  0  0  0  0  0  0  0
    7.4092  -16.7216   19.4030 C   0  0  0  0  0  0  0  0  0  0  0  0
    6.8170  -17.3584   18.3879 N   0  0  0  0  0  0  0  0  0  0  0  0
    6.4963  -18.5815   18.8383 C   0  0  0  0  0  0  0  0  0  0  0  0
    6.8878  -18.6963   20.1198 N   0  0  0  0  0  0  0  0  0  0  0  0
    8.7925  -15.3453   23.2591 C   0  0  0  0  0  0  0  0  0  0  0  0
    9.9756  -15.2987   23.6219 O   0  0  0  0  0  0  0  0  0  0  0  0
    5.4511  -11.8748   26.4102 C   0  0  0  0  0  0  0  0  0  0  0  0
    6.6204  -12.3846   25.5437 C   0  0  1  0  0  0  0  0  0  0  0  0
    7.5824  -11.2653   25.3865 C   0  0  0  0  0  0  0  0  0  0  0  0
    7.1123  -13.6197   26.2115 C   0  0  0  0  0  0  0  0  0  0  0  0
    8.0627  -14.4800   25.5086 C   0  0  2  0  0  0  0  0  0  0  0  0
    7.8225  -14.9167   24.1930 N   0  0  0  0  0  0  0  0  0  0  0  0
    8.3943  -15.6474   26.4046 C   0  0  0  0  0  0  0  0  0  0  0  0
    8.6348  -15.4921   27.6296 O   0  0  0  0  0  0  0  0  0  0  0  0
    8.5137  -19.4227   26.0517 C   0  0  0  0  0  0  0  0  0  0  0  0
    8.8919  -18.1020   26.7046 C   0  0  2  0  0  0  0  0  0  0  0  0
    8.4500  -16.9782   25.9042 N   0  0  0  0  0  0  0  0  0  0  0  0
   10.3333  -18.0352   27.0112 C   0  0  0  0  0  0  0  0  0  0  0  0
   10.8729  -18.8090   28.0243 O   0  0  0  0  0  0  0  0  0  0  0  0
   11.0730  -17.2749   26.3522 O   0  0  0  0  0  0  0  0  0  0  0  0
  2  1  1  6
  3  2  1  0
  4  3  1  0
  5  4  2  0
  6  7  1  0
  6  5  1  0
  7  8  2  0
  8  4  1  0
  9 10  2  0
  9  2  1  0
 12 11  1  1
 12 14  1  0
 12 13  1  0
 15 14  1  1
 15 16  1  0
 16  9  1  0
 17 15  1  0
 18 17  2  0
 20 19  1  6
 20 21  1  0
 21 17  1  0
 22 23  1  0
 22 20  1  0
 24 22  2  0
M  END
$$$$
