HLA.pdb
     RDKit          3D

 24 24  0  0  1  0  0  0  0  0999 V2000
   10.6421  -14.8016   20.7111 N   0  0  0  0  0  0  0  0  0  0  0  0
    9.3157  -14.4325   21.1405 C   0  0  1  0  0  0  0  0  0  0  0  0
    8.3312  -15.3225   20.4625 C   0  0  0  0  0  0  0  0  0  0  0  0
    8.1074  -14.8155   19.0836 C   0  0  0  0  0  0  0  0  0  0  0  0
    8.7239  -13.7774   18.4168 C   0  0  0  0  0  0  0  0  0  0  0  0
    8.2263  -13.6490   17.1828 N   0  0  0  0  0  0  0  0  0  0  0  0
    7.2891  -14.6002   17.0471 C   0  0  0  0  0  0  0  0  0  0  0  0
    7.2107  -15.3081   18.1879 N   0  0  0  0  0  0  0  0  0  0  0  0
    9.1975  -14.4188   22.6093 C   0  0  0  0  0  0  0  0  0  0  0  0
   10.1756  -14.7569   23.2893 O   0  0  0  0  0  0  0  0  0  0  0  0
    7.8975  -12.1143   27.2574 C   0  0  0  0  0  0  0  0  0  0  0  0
    6.7182  -12.9771   26.7646 C   0  0  1  0  0  0  0  0  0  0  0  0
    5.4710  -12.3817   27.3059 C   0  0  0  0  0  0  0  0  0  0  0  0
    6.8561  -13.0463   25.2848 C   0  0  0  0  0  0  0  0  0  0  0  0
    7.9116  -13.8752   24.7051 C   0  0  2  0  0  0  0  0  0  0  0  0
    8.0317  -14.0423   23.3134 N   0  0  0  0  0  0  0  0  0  0  0  0
    7.8973  -15.2129   25.4023 C   0  0  0  0  0  0  0  0  0  0  0  0
    7.9380  -15.3043   26.6563 O   0  0  0  0  0  0  0  0  0  0  0  0
    7.0937  -18.7480   24.3753 C   0  0  0  0  0  0  0  0  0  0  0  0
    7.7224  -17.7276   25.3119 C   0  0  2  0  0  0  0  0  0  0  0  0
    7.8372  -16.4327   24.6723 N   0  0  0  0  0  0  0  0  0  0  0  0
    9.0123  -18.1995   25.8502 C   0  0  0  0  0  0  0  0  0  0  0  0
   10.1758  -17.4886   25.6114 O   0  0  0  0  0  0  0  0  0  0  0  0
    9.0556  -19.2483   26.5266 O   0  0  0  0  0  0  0  0  0  0  0  0
  2  1  1  1
  3  2  1  0
  4  3  1  0
  5  4  2  0
  6  7  1  0
  6  5  1  0
  7  8  2  0
  8  4  1  0
  9 10  2  0
  9  2  1  0
 12 11  1  6
 12 14  1  0
 12 13  1  0
 15 14  1  6
 15 16  1  0
 16  9  1  0
 17 15  1  0
 18 17  2  0
 20 19  1  6
 20 21  1  0
 21 17  1  0
 22 23  1  0
 22 20  1  0
 24 22  2  0
M  END
$$$$
