HLA.pdb
     RDKit          3D

 24 24  0  0  1  0  0  0  0  0999 V2000
   10.0674  -15.4885   20.3268 N   0  0  0  0  0  0  0  0  0  0  0  0
    8.8418  -15.6602   21.0675 C   0  0  1  0  0  0  0  0  0  0  0  0
    8.3502  -17.0514   20.8580 C   0  0  0  0  0  0  0  0  0  0  0  0
    7.9409  -17.1988   19.4369 C   0  0  0  0  0  0  0  0  0  0  0  0
    8.0375  -16.2996   18.3956 C   0  0  0  0  0  0  0  0  0  0  0  0
    7.5504  -16.8296   17.2692 N   0  0  0  0  0  0  0  0  0  0  0  0
    7.1383  -18.0695   17.5766 C   0  0  0  0  0  0  0  0  0  0  0  0
    7.3698  -18.3005   18.8811 N   0  0  0  0  0  0  0  0  0  0  0  0
    8.9996  -15.2884   22.4847 C   0  0  0  0  0  0  0  0  0  0  0  0
   10.1173  -15.3927   23.0076 O   0  0  0  0  0  0  0  0  0  0  0  0
    7.9773  -11.8473   25.5620 C   0  0  0  0  0  0  0  0  0  0  0  0
    7.2282  -12.9146   26.3851 C   0  0  1  0  0  0  0  0  0  0  0  0
    6.0920  -12.2416   27.0627 C   0  0  0  0  0  0  0  0  0  0  0  0
    6.9035  -14.0092   25.4312 C   0  0  0  0  0  0  0  0  0  0  0  0
    7.9885  -14.6682   24.7061 C   0  0  2  0  0  0  0  0  0  0  0  0
    7.9534  -14.8133   23.3071 N   0  0  0  0  0  0  0  0  0  0  0  0
    8.2640  -15.9936   25.3717 C   0  0  0  0  0  0  0  0  0  0  0  0
    7.4432  -16.9451   25.3131 O   0  0  0  0  0  0  0  0  0  0  0  0
   10.8352  -18.2540   25.9556 C   0  0  0  0  0  0  0  0  0  0  0  0
    9.7686  -17.4948   26.7300 C   0  0  2  0  0  0  0  0  0  0  0  0
    9.4658  -16.2275   26.0965 N   0  0  0  0  0  0  0  0  0  0  0  0
   10.1325  -17.3347   28.1507 C   0  0  0  0  0  0  0  0  0  0  0  0
   10.3228  -18.4440   28.9566 O   0  0  0  0  0  0  0  0  0  0  0  0
   10.2701  -16.1901   28.6305 O   0  0  0  0  0  0  0  0  0  0  0  0
  2  1  1  6
  3  2  1  0
  4  3  1  0
  5  4  2  0
  6  7  1  0
  6  5  1  0
  7  8  2  0
  8  4  1  0
  9 10  2  0
  9  2  1  0
 12 11  1  6
 12 14  1  0
 12 13  1  0
 15 14  1  1
 15 16  1  0
 16  9  1  0
 17 15  1  0
 18 17  2  0
 20 19  1  6
 20 21  1  0
 21 17  1  0
 22 23  1  0
 22 20  1  0
 24 22  2  0
M  END
$$$$
