HLA.pdb
     RDKit          3D

 24 24  0  0  1  0  0  0  0  0999 V2000
   10.8338  -15.4349   21.3524 N   0  0  0  0  0  0  0  0  0  0  0  0
    9.6542  -14.8132   21.9021 C   0  0  1  0  0  0  0  0  0  0  0  0
    8.4577  -15.3610   21.2025 C   0  0  0  0  0  0  0  0  0  0  0  0
    8.1420  -14.4811   20.0471 C   0  0  0  0  0  0  0  0  0  0  0  0
    8.8004  -13.3585   19.5902 C   0  0  0  0  0  0  0  0  0  0  0  0
    8.1852  -12.8571   18.5147 N   0  0  0  0  0  0  0  0  0  0  0  0
    7.1301  -13.6506   18.2725 C   0  0  0  0  0  0  0  0  0  0  0  0
    7.0963  -14.6321   19.1913 N   0  0  0  0  0  0  0  0  0  0  0  0
    9.5994  -14.9396   23.3693 C   0  0  0  0  0  0  0  0  0  0  0  0
   10.6413  -15.2032   23.9843 O   0  0  0  0  0  0  0  0  0  0  0  0
    5.5365  -12.4010   26.6317 C   0  0  0  0  0  0  0  0  0  0  0  0
    6.9080  -12.6611   25.9766 C   0  0  1  0  0  0  0  0  0  0  0  0
    7.8622  -11.6652   26.5249 C   0  0  0  0  0  0  0  0  0  0  0  0
    7.2071  -14.0985   26.2172 C   0  0  0  0  0  0  0  0  0  0  0  0
    8.3516  -14.7109   25.5447 C   0  0  2  0  0  0  0  0  0  0  0  0
    8.4269  -14.7799   24.1415 N   0  0  0  0  0  0  0  0  0  0  0  0
    8.5876  -16.0690   26.1575 C   0  0  0  0  0  0  0  0  0  0  0  0
    8.5300  -16.2513   27.4009 O   0  0  0  0  0  0  0  0  0  0  0  0
    8.9408  -19.6050   24.8620 C   0  0  0  0  0  0  0  0  0  0  0  0
    9.1231  -18.5219   25.9144 C   0  0  2  0  0  0  0  0  0  0  0  0
    8.8863  -17.2061   25.3561 N   0  0  0  0  0  0  0  0  0  0  0  0
   10.4375  -18.6176   26.5774 C   0  0  0  0  0  0  0  0  0  0  0  0
   11.3610  -17.5934   26.4580 O   0  0  0  0  0  0  0  0  0  0  0  0
   10.7198  -19.6302   27.2515 O   0  0  0  0  0  0  0  0  0  0  0  0
  2  1  1  6
  3  2  1  0
  4  3  1  0
  5  4  2  0
  6  7  1  0
  6  5  1  0
  7  8  2  0
  8  4  1  0
  9 10  2  0
  9  2  1  0
 12 11  1  1
 12 14  1  0
 12 13  1  0
 15 14  1  6
 15 16  1  0
 16  9  1  0
 17 15  1  0
 18 17  2  0
 20 19  1  6
 20 21  1  0
 21 17  1  0
 22 23  1  0
 22 20  1  0
 24 22  2  0
M  END
$$$$
