HLA.pdb
     RDKit          3D

 24 24  0  0  1  0  0  0  0  0999 V2000
    7.9629  -15.8407   21.5218 N   0  0  0  0  0  0  0  0  0  0  0  0
    9.2762  -15.3525   21.8636 C   0  0  1  0  0  0  0  0  0  0  0  0
    9.5859  -14.1767   21.0018 C   0  0  0  0  0  0  0  0  0  0  0  0
    8.6737  -14.1975   19.8288 C   0  0  0  0  0  0  0  0  0  0  0  0
    7.7409  -15.1427   19.4561 C   0  0  0  0  0  0  0  0  0  0  0  0
    7.1263  -14.7777   18.3265 N   0  0  0  0  0  0  0  0  0  0  0  0
    7.6573  -13.5991   17.9654 C   0  0  0  0  0  0  0  0  0  0  0  0
    8.5909  -13.2418   18.8652 N   0  0  0  0  0  0  0  0  0  0  0  0
    9.4050  -15.0865   23.3073 C   0  0  0  0  0  0  0  0  0  0  0  0
   10.5101  -14.7535   23.7560 O   0  0  0  0  0  0  0  0  0  0  0  0
    5.7898  -12.5331   26.8965 C   0  0  0  0  0  0  0  0  0  0  0  0
    7.0562  -12.8699   26.0837 C   0  0  1  0  0  0  0  0  0  0  0  0
    8.1024  -11.8852   26.4562 C   0  0  0  0  0  0  0  0  0  0  0  0
    7.3418  -14.3050   26.3527 C   0  0  0  0  0  0  0  0  0  0  0  0
    8.4226  -14.9659   25.6229 C   0  0  2  0  0  0  0  0  0  0  0  0
    8.3439  -15.1844   24.2353 N   0  0  0  0  0  0  0  0  0  0  0  0
    8.7654  -16.2454   26.3444 C   0  0  0  0  0  0  0  0  0  0  0  0
    8.6974  -16.3356   27.5974 O   0  0  0  0  0  0  0  0  0  0  0  0
    9.6567  -19.7961   25.3583 C   0  0  0  0  0  0  0  0  0  0  0  0
    9.6518  -18.6067   26.3064 C   0  0  2  0  0  0  0  0  0  0  0  0
    9.1817  -17.4094   25.6398 N   0  0  0  0  0  0  0  0  0  0  0  0
   10.9669  -18.4093   26.9448 C   0  0  0  0  0  0  0  0  0  0  0  0
   11.4575  -19.3390   27.8456 O   0  0  0  0  0  0  0  0  0  0  0  0
   11.6435  -17.3960   26.6710 O   0  0  0  0  0  0  0  0  0  0  0  0
  2  1  1  1
  3  2  1  0
  4  3  1  0
  5  4  2  0
  6  7  1  0
  6  5  1  0
  7  8  2  0
  8  4  1  0
  9 10  2  0
  9  2  1  0
 12 11  1  1
 12 14  1  0
 12 13  1  0
 15 14  1  1
 15 16  1  0
 16  9  1  0
 17 15  1  0
 18 17  2  0
 20 19  1  6
 20 21  1  0
 21 17  1  0
 22 23  1  0
 22 20  1  0
 24 22  2  0
M  END
$$$$
