HLA.pdb
     RDKit          3D

 24 24  0  0  1  0  0  0  0  0999 V2000
   10.9658  -15.7373   21.5435 N   0  0  0  0  0  0  0  0  0  0  0  0
    9.7945  -15.0522   22.0320 C   0  0  1  0  0  0  0  0  0  0  0  0
    8.5967  -15.6026   21.3366 C   0  0  0  0  0  0  0  0  0  0  0  0
    8.2153  -14.6706   20.2437 C   0  0  0  0  0  0  0  0  0  0  0  0
    8.8204  -13.5011   19.8332 C   0  0  0  0  0  0  0  0  0  0  0  0
    8.1551  -12.9620   18.8067 N   0  0  0  0  0  0  0  0  0  0  0  0
    7.1207  -13.7779   18.5501 C   0  0  0  0  0  0  0  0  0  0  0  0
    7.1491  -14.8104   19.4114 N   0  0  0  0  0  0  0  0  0  0  0  0
    9.7055  -15.0961   23.5023 C   0  0  0  0  0  0  0  0  0  0  0  0
   10.6962  -15.4617   24.1490 O   0  0  0  0  0  0  0  0  0  0  0  0
    5.7842  -12.2036   26.7052 C   0  0  0  0  0  0  0  0  0  0  0  0
    7.1275  -12.5648   26.0394 C   0  0  1  0  0  0  0  0  0  0  0  0
    8.1520  -11.6252   26.5597 C   0  0  0  0  0  0  0  0  0  0  0  0
    7.3340  -14.0146   26.3017 C   0  0  0  0  0  0  0  0  0  0  0  0
    8.4416  -14.7072   25.6454 C   0  0  2  0  0  0  0  0  0  0  0  0
    8.5545  -14.7462   24.2436 N   0  0  0  0  0  0  0  0  0  0  0  0
    8.5398  -16.0960   26.2260 C   0  0  0  0  0  0  0  0  0  0  0  0
    8.5647  -16.2921   27.4684 O   0  0  0  0  0  0  0  0  0  0  0  0
    8.2371  -19.6245   24.9291 C   0  0  0  0  0  0  0  0  0  0  0  0
    8.7519  -18.5907   25.9190 C   0  0  2  0  0  0  0  0  0  0  0  0
    8.6089  -17.2481   25.3938 N   0  0  0  0  0  0  0  0  0  0  0  0
   10.1352  -18.8790   26.3427 C   0  0  0  0  0  0  0  0  0  0  0  0
   11.1481  -17.9663   26.1032 O   0  0  0  0  0  0  0  0  0  0  0  0
   10.3952  -19.9543   26.9219 O   0  0  0  0  0  0  0  0  0  0  0  0
  2  1  1  6
  3  2  1  0
  4  3  1  0
  5  4  2  0
  6  7  1  0
  6  5  1  0
  7  8  2  0
  8  4  1  0
  9 10  2  0
  9  2  1  0
 12 11  1  1
 12 14  1  0
 12 13  1  0
 15 14  1  6
 15 16  1  0
 16  9  1  0
 17 15  1  0
 18 17  2  0
 20 19  1  6
 20 21  1  0
 21 17  1  0
 22 23  1  0
 22 20  1  0
 24 22  2  0
M  END
$$$$
