HLA.pdb
     RDKit          3D

 24 24  0  0  1  0  0  0  0  0999 V2000
   10.5459  -15.2667   21.3662 N   0  0  0  0  0  0  0  0  0  0  0  0
    9.2696  -14.7976   21.8469 C   0  0  1  0  0  0  0  0  0  0  0  0
    8.1954  -15.3904   21.0010 C   0  0  0  0  0  0  0  0  0  0  0  0
    7.9882  -14.5148   19.8182 C   0  0  0  0  0  0  0  0  0  0  0  0
    8.6560  -13.3671   19.4452 C   0  0  0  0  0  0  0  0  0  0  0  0
    8.1556  -12.8806   18.3052 N   0  0  0  0  0  0  0  0  0  0  0  0
    7.1655  -13.7090   17.9375 C   0  0  0  0  0  0  0  0  0  0  0  0
    7.0576  -14.6969   18.8437 N   0  0  0  0  0  0  0  0  0  0  0  0
    9.1007  -15.0461   23.2896 C   0  0  0  0  0  0  0  0  0  0  0  0
    9.9012  -15.7969   23.8630 O   0  0  0  0  0  0  0  0  0  0  0  0
    7.4401  -11.8259   25.3077 C   0  0  0  0  0  0  0  0  0  0  0  0
    7.0648  -12.5804   26.5992 C   0  0  1  0  0  0  0  0  0  0  0  0
    5.9396  -11.8495   27.2338 C   0  0  0  0  0  0  0  0  0  0  0  0
    6.8200  -13.9895   26.1898 C   0  0  0  0  0  0  0  0  0  0  0  0
    7.8584  -14.7089   25.4540 C   0  0  2  0  0  0  0  0  0  0  0  0
    8.0760  -14.4824   24.0826 N   0  0  0  0  0  0  0  0  0  0  0  0
    7.6974  -16.1831   25.7307 C   0  0  0  0  0  0  0  0  0  0  0  0
    6.7095  -16.8318   25.2994 O   0  0  0  0  0  0  0  0  0  0  0  0
    9.0660  -19.1476   25.5904 C   0  0  0  0  0  0  0  0  0  0  0  0
    8.5410  -18.3266   26.7583 C   0  0  2  0  0  0  0  0  0  0  0  0
    8.6564  -16.9071   26.4925 N   0  0  0  0  0  0  0  0  0  0  0  0
    9.1834  -18.7095   28.0299 C   0  0  0  0  0  0  0  0  0  0  0  0
    9.0811  -20.0051   28.5067 O   0  0  0  0  0  0  0  0  0  0  0  0
    9.8244  -17.8589   28.6817 O   0  0  0  0  0  0  0  0  0  0  0  0
  2  1  1  6
  3  2  1  0
  4  3  1  0
  5  4  2  0
  6  7  1  0
  6  5  1  0
  7  8  2  0
  8  4  1  0
  9 10  2  0
  9  2  1  0
 12 11  1  6
 12 14  1  0
 12 13  1  0
 15 14  1  6
 15 16  1  0
 16  9  1  0
 17 15  1  0
 18 17  2  0
 20 19  1  6
 20 21  1  0
 21 17  1  0
 22 23  1  0
 22 20  1  0
 24 22  2  0
M  END
$$$$
