HLA.pdb
     RDKit          3D

 24 24  0  0  1  0  0  0  0  0999 V2000
   10.0592  -16.5493   20.9475 N   0  0  0  0  0  0  0  0  0  0  0  0
    9.2329  -16.8674   22.0860 C   0  0  1  0  0  0  0  0  0  0  0  0
    9.6316  -18.2068   22.6038 C   0  0  0  0  0  0  0  0  0  0  0  0
    9.2396  -19.2352   21.6050 C   0  0  0  0  0  0  0  0  0  0  0  0
    8.6870  -19.0784   20.3511 C   0  0  0  0  0  0  0  0  0  0  0  0
    8.4851  -20.2669   19.7737 N   0  0  0  0  0  0  0  0  0  0  0  0
    8.9048  -21.1940   20.6489 C   0  0  0  0  0  0  0  0  0  0  0  0
    9.3611  -20.5811   21.7556 N   0  0  0  0  0  0  0  0  0  0  0  0
    9.2625  -15.8002   23.1018 C   0  0  0  0  0  0  0  0  0  0  0  0
   10.3256  -15.1979   23.3030 O   0  0  0  0  0  0  0  0  0  0  0  0
    7.6189  -11.3843   25.6728 C   0  0  0  0  0  0  0  0  0  0  0  0
    6.8728  -12.6256   26.2025 C   0  0  1  0  0  0  0  0  0  0  0  0
    5.5461  -12.1754   26.6925 C   0  0  0  0  0  0  0  0  0  0  0  0
    6.8912  -13.6152   25.0917 C   0  0  0  0  0  0  0  0  0  0  0  0
    8.1170  -14.3662   24.8261 C   0  0  2  0  0  0  0  0  0  0  0  0
    8.1497  -15.4049   23.8777 N   0  0  0  0  0  0  0  0  0  0  0  0
    8.6797  -14.8328   26.1456 C   0  0  0  0  0  0  0  0  0  0  0  0
    7.9897  -15.5003   26.9587 O   0  0  0  0  0  0  0  0  0  0  0  0
    9.9043  -13.5907   28.7869 C   0  0  0  0  0  0  0  0  0  0  0  0
   10.4916  -14.6724   27.8932 C   0  0  2  0  0  0  0  0  0  0  0  0
   10.0175  -14.5387   26.5308 N   0  0  0  0  0  0  0  0  0  0  0  0
   10.2513  -16.0226   28.4368 C   0  0  0  0  0  0  0  0  0  0  0  0
    9.6060  -16.9820   27.6756 O   0  0  0  0  0  0  0  0  0  0  0  0
   10.6327  -16.3029   29.5924 O   0  0  0  0  0  0  0  0  0  0  0  0
  2  1  1  6
  3  2  1  0
  4  3  1  0
  5  4  2  0
  6  7  1  0
  6  5  1  0
  7  8  2  0
  8  4  1  0
  9 10  2  0
  9  2  1  0
 12 11  1  6
 12 14  1  0
 12 13  1  0
 15 14  1  1
 15 16  1  0
 16  9  1  0
 17 15  1  0
 18 17  2  0
 20 19  1  1
 20 21  1  0
 21 17  1  0
 22 23  1  0
 22 20  1  0
 24 22  2  0
M  END
$$$$
