HLA.pdb
     RDKit          3D

 24 24  0  0  1  0  0  0  0  0999 V2000
   10.4096  -14.7756   20.6161 N   0  0  0  0  0  0  0  0  0  0  0  0
    9.0519  -14.5222   21.0318 C   0  0  1  0  0  0  0  0  0  0  0  0
    8.1399  -15.3868   20.2308 C   0  0  0  0  0  0  0  0  0  0  0  0
    8.0331  -14.8196   18.8613 C   0  0  0  0  0  0  0  0  0  0  0  0
    8.6519  -13.7141   18.3160 C   0  0  0  0  0  0  0  0  0  0  0  0
    8.2813  -13.5475   17.0425 N   0  0  0  0  0  0  0  0  0  0  0  0
    7.4244  -14.5412   16.7601 C   0  0  0  0  0  0  0  0  0  0  0  0
    7.2689  -15.3128   17.8505 N   0  0  0  0  0  0  0  0  0  0  0  0
    8.8873  -14.6673   22.4890 C   0  0  0  0  0  0  0  0  0  0  0  0
    9.6387  -15.4389   23.1001 O   0  0  0  0  0  0  0  0  0  0  0  0
    8.1039  -12.7141   27.3621 C   0  0  0  0  0  0  0  0  0  0  0  0
    6.7433  -13.2122   26.8342 C   0  0  1  0  0  0  0  0  0  0  0  0
    5.6855  -12.4025   27.4887 C   0  0  0  0  0  0  0  0  0  0  0  0
    6.8345  -13.1465   25.3507 C   0  0  0  0  0  0  0  0  0  0  0  0
    7.7761  -14.0219   24.6548 C   0  0  2  0  0  0  0  0  0  0  0  0
    7.9195  -13.9803   23.2558 N   0  0  0  0  0  0  0  0  0  0  0  0
    7.5402  -15.4362   25.1235 C   0  0  0  0  0  0  0  0  0  0  0  0
    6.4211  -15.9963   24.9952 O   0  0  0  0  0  0  0  0  0  0  0  0
    8.5622  -18.5805   25.1489 C   0  0  0  0  0  0  0  0  0  0  0  0
    8.3648  -17.5413   26.2420 C   0  0  2  0  0  0  0  0  0  0  0  0
    8.5738  -16.2013   25.7326 N   0  0  0  0  0  0  0  0  0  0  0  0
    9.2001  -17.8245   27.4245 C   0  0  0  0  0  0  0  0  0  0  0  0
    9.0338  -18.9994   28.1374 O   0  0  0  0  0  0  0  0  0  0  0  0
   10.0641  -16.9984   27.7858 O   0  0  0  0  0  0  0  0  0  0  0  0
  2  1  1  1
  3  2  1  0
  4  3  1  0
  5  4  2  0
  6  7  1  0
  6  5  1  0
  7  8  2  0
  8  4  1  0
  9 10  2  0
  9  2  1  0
 12 11  1  1
 12 14  1  0
 12 13  1  0
 15 14  1  6
 15 16  1  0
 16  9  1  0
 17 15  1  0
 18 17  2  0
 20 19  1  6
 20 21  1  0
 21 17  1  0
 22 23  1  0
 22 20  1  0
 24 22  2  0
M  END
$$$$
