HLA.pdb
     RDKit          3D

 24 24  0  0  1  0  0  0  0  0999 V2000
   10.7920  -15.2001   21.5583 N   0  0  0  0  0  0  0  0  0  0  0  0
    9.5032  -14.7510   22.0245 C   0  0  1  0  0  0  0  0  0  0  0  0
    8.4441  -15.4640   21.2557 C   0  0  0  0  0  0  0  0  0  0  0  0
    8.0934  -14.6466   20.0651 C   0  0  0  0  0  0  0  0  0  0  0  0
    8.6248  -13.4499   19.6317 C   0  0  0  0  0  0  0  0  0  0  0  0
    8.0233  -13.0472   18.5080 N   0  0  0  0  0  0  0  0  0  0  0  0
    7.1036  -13.9786   18.2111 C   0  0  0  0  0  0  0  0  0  0  0  0
    7.1388  -14.9464   19.1443 N   0  0  0  0  0  0  0  0  0  0  0  0
    9.3717  -14.8815   23.4864 C   0  0  0  0  0  0  0  0  0  0  0  0
   10.3663  -15.2083   24.1477 O   0  0  0  0  0  0  0  0  0  0  0  0
    5.3968  -12.1892   26.7168 C   0  0  0  0  0  0  0  0  0  0  0  0
    6.7726  -12.5476   26.1196 C   0  0  1  0  0  0  0  0  0  0  0  0
    7.7880  -11.7009   26.7943 C   0  0  0  0  0  0  0  0  0  0  0  0
    6.9068  -14.0222   26.2650 C   0  0  0  0  0  0  0  0  0  0  0  0
    8.0151  -14.7062   25.6008 C   0  0  2  0  0  0  0  0  0  0  0  0
    8.1750  -14.6578   24.2039 N   0  0  0  0  0  0  0  0  0  0  0  0
    8.0513  -16.1322   26.0914 C   0  0  0  0  0  0  0  0  0  0  0  0
    7.9846  -16.4109   27.3164 O   0  0  0  0  0  0  0  0  0  0  0  0
    7.7064  -19.5193   24.4546 C   0  0  0  0  0  0  0  0  0  0  0  0
    8.0752  -18.6094   25.6163 C   0  0  2  0  0  0  0  0  0  0  0  0
    8.1626  -17.2275   25.1900 N   0  0  0  0  0  0  0  0  0  0  0  0
    9.3032  -19.0610   26.2977 C   0  0  0  0  0  0  0  0  0  0  0  0
    9.3430  -20.2906   26.9323 O   0  0  0  0  0  0  0  0  0  0  0  0
   10.3149  -18.3290   26.3025 O   0  0  0  0  0  0  0  0  0  0  0  0
  2  1  1  6
  3  2  1  0
  4  3  1  0
  5  4  2  0
  6  7  1  0
  6  5  1  0
  7  8  2  0
  8  4  1  0
  9 10  2  0
  9  2  1  0
 12 11  1  1
 12 14  1  0
 12 13  1  0
 15 14  1  6
 15 16  1  0
 16  9  1  0
 17 15  1  0
 18 17  2  0
 20 19  1  6
 20 21  1  0
 21 17  1  0
 22 23  1  0
 22 20  1  0
 24 22  2  0
M  END
$$$$
