YRA.pdb
     RDKit          3D

 29 29  0  0  1  0  0  0  0  0999 V2000
   24.9363  -12.4298  -19.6458 O   0  0  0  0  0  0  0  0  0  0  0  0
   24.6084  -13.6323  -19.0211 C   0  0  0  0  0  0  0  0  0  0  0  0
   25.1836  -14.0182  -17.8299 C   0  0  0  0  0  0  0  0  0  0  0  0
   24.8598  -15.2088  -17.2084 C   0  0  0  0  0  0  0  0  0  0  0  0
   23.9344  -16.0708  -17.7649 C   0  0  0  0  0  0  0  0  0  0  0  0
   23.5660  -17.3709  -17.1194 C   0  0  0  0  0  0  0  0  0  0  0  0
   24.8230  -18.2052  -17.0043 C   0  0  2  0  0  0  0  0  0  0  0  0
   25.2129  -18.6584  -18.3162 N   0  0  0  0  0  0  0  0  0  0  0  0
   24.5685  -19.3503  -16.0773 C   0  0  0  0  0  0  0  0  0  0  0  0
   24.0719  -20.3925  -16.5690 O   0  0  0  0  0  0  0  0  0  0  0  0
   23.3538  -15.6923  -18.9572 C   0  0  0  0  0  0  0  0  0  0  0  0
   23.6805  -14.4910  -19.5838 C   0  0  0  0  0  0  0  0  0  0  0  0
   28.3789  -21.0087   -8.5985 N   0  0  0  0  0  0  0  0  0  0  0  0
   28.5648  -21.3691   -9.9582 C   0  0  0  0  0  0  0  0  0  0  0  0
   29.7660  -21.6762  -10.3503 N   0  0  0  0  0  0  0  0  0  0  0  0
   27.5186  -21.4106  -10.9041 N   0  0  0  0  0  0  0  0  0  0  0  0
   26.1527  -21.4469  -10.4550 C   0  0  0  0  0  0  0  0  0  0  0  0
   25.1641  -21.3949  -11.5919 C   0  0  0  0  0  0  0  0  0  0  0  0
   25.5501  -20.3579  -12.6118 C   0  0  0  0  0  0  0  0  0  0  0  0
   24.5818  -20.3619  -13.7616 C   0  0  2  0  0  0  0  0  0  0  0  0
   24.8578  -19.3057  -14.7118 N   0  0  0  0  0  0  0  0  0  0  0  0
   23.2273  -20.1069  -13.1464 C   0  0  0  0  0  0  0  0  0  0  0  0
   22.8730  -18.9240  -12.9784 O   0  0  0  0  0  0  0  0  0  0  0  0
   29.9905  -21.9108  -11.3274 C   0  0  0  0  0  0  0  0  0  0  0  0
   21.0581  -19.6519  -11.3236 C   0  0  2  0  0  0  0  0  0  0  0  0
   21.0647  -20.9295  -12.1346 N   0  0  0  0  0  0  0  0  0  0  0  0
   22.3572  -21.1497  -12.7580 C   0  0  0  0  0  0  0  0  0  0  0  0
   19.9637  -20.9600  -13.1131 O   0  0  0  0  0  0  0  0  0  0  0  0
   18.7881  -20.8429  -12.7190 O   0  0  0  0  0  0  0  0  0  0  0  0
  2 12  2  0
  2  1  1  0
  3  2  1  0
  4  3  2  0
  5  4  1  0
  5 11  2  0
  6  5  1  0
  7  9  1  0
  7  6  1  0
  7  8  1  6
  9 10  2  0
 11 12  1  0
 14 13  1  0
 15 14  2  0
 16 14  1  0
 17 18  1  0
 17 16  1  0
 18 19  1  0
 20 19  1  1
 21 20  1  0
 21  9  1  0
 22 20  1  0
 23 22  2  0
 25 24  1  1
 25 26  1  0
 26 22  1  0
 27 25  1  0
 27 29  1  0
 28 27  2  0
M  END
$$$$
