YRA.pdb
     RDKit          3D

 29 29  0  0  1  0  0  0  0  0999 V2000
   18.4508  -33.9595   -2.3091 O   0  0  0  0  0  0  0  0  0  0  0  0
   18.1094  -32.6380   -2.5933 C   0  0  0  0  0  0  0  0  0  0  0  0
   18.3744  -32.0608   -3.8161 C   0  0  0  0  0  0  0  0  0  0  0  0
   18.0364  -30.7518   -4.1004 C   0  0  0  0  0  0  0  0  0  0  0  0
   17.4114  -29.9595   -3.1567 C   0  0  0  0  0  0  0  0  0  0  0  0
   17.0373  -28.5358   -3.4316 C   0  0  0  0  0  0  0  0  0  0  0  0
   18.2951  -27.6994   -3.3432 C   0  0  2  0  0  0  0  0  0  0  0  0
   18.6099  -27.4617   -1.9564 N   0  0  0  0  0  0  0  0  0  0  0  0
   18.0874  -26.4207   -4.0896 C   0  0  0  0  0  0  0  0  0  0  0  0
   17.7576  -25.4098   -3.4234 O   0  0  0  0  0  0  0  0  0  0  0  0
   17.1424  -30.5293   -1.9299 C   0  0  0  0  0  0  0  0  0  0  0  0
   17.4833  -31.8499   -1.6434 C   0  0  0  0  0  0  0  0  0  0  0  0
   17.9518  -24.5602  -12.4138 N   0  0  0  0  0  0  0  0  0  0  0  0
   17.9207  -23.2518  -11.8656 C   0  0  0  0  0  0  0  0  0  0  0  0
   17.3310  -22.3165  -12.5499 N   0  0  0  0  0  0  0  0  0  0  0  0
   18.4949  -22.9134  -10.6220 N   0  0  0  0  0  0  0  0  0  0  0  0
   18.9723  -23.9535   -9.7507 C   0  0  0  0  0  0  0  0  0  0  0  0
   18.2955  -23.9413   -8.4036 C   0  0  0  0  0  0  0  0  0  0  0  0
   18.6136  -25.1829   -7.6151 C   0  0  0  0  0  0  0  0  0  0  0  0
   17.9778  -25.1216   -6.2543 C   0  0  2  0  0  0  0  0  0  0  0  0
   18.2446  -26.3102   -5.4728 N   0  0  0  0  0  0  0  0  0  0  0  0
   16.4922  -25.0427   -6.5087 C   0  0  0  0  0  0  0  0  0  0  0  0
   15.8657  -26.1093   -6.6598 O   0  0  0  0  0  0  0  0  0  0  0  0
   17.2850  -21.3381  -12.2322 C   0  0  0  0  0  0  0  0  0  0  0  0
   13.8938  -24.6382   -7.8854 C   0  0  2  0  0  0  0  0  0  0  0  0
   14.3598  -23.7169   -6.7790 N   0  0  0  0  0  0  0  0  0  0  0  0
   15.7947  -23.8164   -6.5817 C   0  0  0  0  0  0  0  0  0  0  0  0
   13.6106  -23.9416   -5.5304 O   0  0  0  0  0  0  0  0  0  0  0  0
   14.2261  -24.2422   -4.4903 O   0  0  0  0  0  0  0  0  0  0  0  0
  2 12  2  0
  2  1  1  0
  3  2  1  0
  4  3  2  0
  5  4  1  0
  5 11  2  0
  6  5  1  0
  7  9  1  0
  7  6  1  0
  7  8  1  1
  9 10  2  0
 11 12  1  0
 14 13  1  0
 15 14  2  0
 16 14  1  0
 17 18  1  0
 17 16  1  0
 18 19  1  0
 20 19  1  6
 21 20  1  0
 21  9  1  0
 22 20  1  0
 23 22  2  0
 25 24  1  6
 25 26  1  0
 26 22  1  0
 27 25  1  0
 27 29  1  0
 28 27  2  0
M  END
$$$$
