YRA.pdb
     RDKit          3D

 29 29  0  0  1  0  0  0  0  0999 V2000
    9.3328   -8.8409   -6.8869 O   0  0  0  0  0  0  0  0  0  0  0  0
   10.4243   -8.2128   -7.4852 C   0  0  0  0  0  0  0  0  0  0  0  0
   11.0786   -8.7581   -8.5683 C   0  0  0  0  0  0  0  0  0  0  0  0
   12.1599   -8.1373   -9.1636 C   0  0  0  0  0  0  0  0  0  0  0  0
   12.6339   -6.9294   -8.6892 C   0  0  0  0  0  0  0  0  0  0  0  0
   13.8068   -6.2339   -9.3082 C   0  0  0  0  0  0  0  0  0  0  0  0
   15.0637   -6.9272   -8.8297 C   0  0  2  0  0  0  0  0  0  0  0  0
   15.2650   -6.6327   -7.4328 N   0  0  0  0  0  0  0  0  0  0  0  0
   16.2205   -6.4749   -9.6620 C   0  0  0  0  0  0  0  0  0  0  0  0
   16.8957   -5.5071   -9.2355 O   0  0  0  0  0  0  0  0  0  0  0  0
   11.9848   -6.3764   -7.6053 C   0  0  0  0  0  0  0  0  0  0  0  0
   10.8940   -7.0027   -7.0051 C   0  0  0  0  0  0  0  0  0  0  0  0
   22.6726  -10.7193  -13.7223 N   0  0  0  0  0  0  0  0  0  0  0  0
   22.5486   -9.5095  -14.4532 C   0  0  0  0  0  0  0  0  0  0  0  0
   23.3428   -9.3233  -15.4658 N   0  0  0  0  0  0  0  0  0  0  0  0
   21.6129   -8.5011  -14.1394 N   0  0  0  0  0  0  0  0  0  0  0  0
   20.4137   -8.8400  -13.4214 C   0  0  0  0  0  0  0  0  0  0  0  0
   19.5904   -7.6303  -13.0584 C   0  0  0  0  0  0  0  0  0  0  0  0
   18.4240   -7.9993  -12.1822 C   0  0  0  0  0  0  0  0  0  0  0  0
   17.7498   -6.7645  -11.6527 C   0  0  2  0  0  0  0  0  0  0  0  0
   16.5722   -7.0776  -10.8717 N   0  0  0  0  0  0  0  0  0  0  0  0
   17.3190   -5.9879  -12.8732 C   0  0  0  0  0  0  0  0  0  0  0  0
   16.2654   -6.3300  -13.4440 O   0  0  0  0  0  0  0  0  0  0  0  0
   23.3958   -8.4304  -15.9758 C   0  0  0  0  0  0  0  0  0  0  0  0
   16.2408   -3.6098  -14.3934 C   0  0  2  0  0  0  0  0  0  0  0  0
   17.6553   -4.1257  -14.5455 N   0  0  0  0  0  0  0  0  0  0  0  0
   18.0599   -4.8999  -13.3860 C   0  0  0  0  0  0  0  0  0  0  0  0
   18.6031   -3.0384  -14.8457 O   0  0  0  0  0  0  0  0  0  0  0  0
   18.4234   -2.3273  -15.8521 O   0  0  0  0  0  0  0  0  0  0  0  0
  2 12  2  0
  2  1  1  0
  3  2  1  0
  4  3  2  0
  5  4  1  0
  5 11  2  0
  6  5  1  0
  7  9  1  0
  7  6  1  0
  7  8  1  1
  9 10  2  0
 11 12  1  0
 14 13  1  0
 15 14  2  0
 16 14  1  0
 17 18  1  0
 17 16  1  0
 18 19  1  0
 20 19  1  6
 21 20  1  0
 21  9  1  0
 22 20  1  0
 23 22  2  0
 25 24  1  6
 25 26  1  0
 26 22  1  0
 27 25  1  0
 27 29  1  0
 28 27  2  0
M  END
$$$$
