YRA.pdb
     RDKit          3D

 29 29  0  0  1  0  0  0  0  0999 V2000
   26.3285  -12.6455  -20.8467 O   0  0  0  0  0  0  0  0  0  0  0  0
   25.7027  -13.7853  -20.3437 C   0  0  0  0  0  0  0  0  0  0  0  0
   25.1025  -14.7135  -21.1664 C   0  0  0  0  0  0  0  0  0  0  0  0
   24.4824  -15.8441  -20.6706 C   0  0  0  0  0  0  0  0  0  0  0  0
   24.4389  -16.0913  -19.3120 C   0  0  0  0  0  0  0  0  0  0  0  0
   23.7699  -17.3040  -18.7426 C   0  0  0  0  0  0  0  0  0  0  0  0
   24.8328  -18.1534  -18.0806 C   0  0  2  0  0  0  0  0  0  0  0  0
   25.7527  -18.6286  -19.0838 N   0  0  0  0  0  0  0  0  0  0  0  0
   24.1758  -19.2830  -17.3540 C   0  0  0  0  0  0  0  0  0  0  0  0
   23.9332  -20.3266  -18.0069 O   0  0  0  0  0  0  0  0  0  0  0  0
   25.0373  -15.1673  -18.4811 C   0  0  0  0  0  0  0  0  0  0  0  0
   25.6629  -14.0269  -18.9816 C   0  0  0  0  0  0  0  0  0  0  0  0
   26.5952  -21.1064   -9.7452 N   0  0  0  0  0  0  0  0  0  0  0  0
   25.2420  -20.9221  -10.1299 C   0  0  0  0  0  0  0  0  0  0  0  0
   24.3686  -20.6825   -9.1969 N   0  0  0  0  0  0  0  0  0  0  0  0
   24.7958  -20.9861  -11.4670 N   0  0  0  0  0  0  0  0  0  0  0  0
   25.7440  -21.2099  -12.5249 C   0  0  0  0  0  0  0  0  0  0  0  0
   25.1173  -21.1366  -13.8942 C   0  0  0  0  0  0  0  0  0  0  0  0
   23.8008  -20.4084  -13.8601 C   0  0  0  0  0  0  0  0  0  0  0  0
   23.2238  -20.2956  -15.2436 C   0  0  2  0  0  0  0  0  0  0  0  0
   23.8299  -19.2225  -16.0023 N   0  0  0  0  0  0  0  0  0  0  0  0
   21.7632  -19.9716  -15.0440 C   0  0  0  0  0  0  0  0  0  0  0  0
   21.4634  -18.8203  -14.6731 O   0  0  0  0  0  0  0  0  0  0  0  0
   23.3669  -20.5471   -9.3926 C   0  0  0  0  0  0  0  0  0  0  0  0
   18.4527  -21.6690  -15.7186 C   0  0  1  0  0  0  0  0  0  0  0  0
   19.3280  -20.6406  -15.0358 N   0  0  0  0  0  0  0  0  0  0  0  0
   20.7357  -20.9168  -15.2594 C   0  0  0  0  0  0  0  0  0  0  0  0
   19.0072  -20.5162  -13.6032 O   0  0  0  0  0  0  0  0  0  0  0  0
   19.6460  -21.1863  -12.7702 O   0  0  0  0  0  0  0  0  0  0  0  0
  2 12  2  0
  2  1  1  0
  3  2  1  0
  4  3  2  0
  5  4  1  0
  5 11  2  0
  6  5  1  0
  7  9  1  0
  7  6  1  0
  7  8  1  6
  9 10  2  0
 11 12  1  0
 14 13  1  0
 15 14  2  0
 16 14  1  0
 17 18  1  0
 17 16  1  0
 18 19  1  0
 20 19  1  1
 21 20  1  0
 21  9  1  0
 22 20  1  0
 23 22  2  0
 25 24  1  6
 25 26  1  0
 26 22  1  0
 27 25  1  0
 27 29  1  0
 28 27  2  0
M  END
$$$$
