YRA.pdb
     RDKit          3D

 29 29  0  0  1  0  0  0  0  0999 V2000
   36.3993   -2.1397    1.2177 O   0  0  0  0  0  0  0  0  0  0  0  0
   36.8128   -2.3243   -0.1009 C   0  0  0  0  0  0  0  0  0  0  0  0
   37.0164   -1.2653   -0.9586 C   0  0  0  0  0  0  0  0  0  0  0  0
   37.4269   -1.4454   -2.2655 C   0  0  0  0  0  0  0  0  0  0  0  0
   37.6518   -2.7117   -2.7702 C   0  0  0  0  0  0  0  0  0  0  0  0
   38.0915   -2.9409   -4.1832 C   0  0  0  0  0  0  0  0  0  0  0  0
   39.5198   -3.4391   -4.1504 C   0  0  2  0  0  0  0  0  0  0  0  0
   40.3669   -2.4138   -3.5939 N   0  0  0  0  0  0  0  0  0  0  0  0
   39.9411   -3.8122   -5.5356 C   0  0  0  0  0  0  0  0  0  0  0  0
   40.6928   -3.0139   -6.1456 O   0  0  0  0  0  0  0  0  0  0  0  0
   37.4505   -3.7775   -1.9184 C   0  0  0  0  0  0  0  0  0  0  0  0
   37.0365   -3.5955   -0.6001 C   0  0  0  0  0  0  0  0  0  0  0  0
   41.1158  -11.7434   -9.5031 N   0  0  0  0  0  0  0  0  0  0  0  0
   41.2366  -10.7389  -10.4979 C   0  0  0  0  0  0  0  0  0  0  0  0
   41.4001  -11.1168  -11.7312 N   0  0  0  0  0  0  0  0  0  0  0  0
   41.1898   -9.3564  -10.2198 N   0  0  0  0  0  0  0  0  0  0  0  0
   40.7284   -8.9029   -8.9353 C   0  0  0  0  0  0  0  0  0  0  0  0
   40.6581   -7.4000   -8.8388 C   0  0  0  0  0  0  0  0  0  0  0  0
   40.1329   -6.9570   -7.5000 C   0  0  0  0  0  0  0  0  0  0  0  0
   40.0090   -5.4597   -7.4505 C   0  0  2  0  0  0  0  0  0  0  0  0
   39.5389   -4.9929   -6.1637 N   0  0  0  0  0  0  0  0  0  0  0  0
   38.9744   -5.1080   -8.4916 C   0  0  0  0  0  0  0  0  0  0  0  0
   37.7906   -5.4310   -8.2741 O   0  0  0  0  0  0  0  0  0  0  0  0
   41.4906  -10.4506  -12.5110 C   0  0  0  0  0  0  0  0  0  0  0  0
   38.9247   -3.1995  -11.7704 C   0  0  1  0  0  0  0  0  0  0  0  0
   38.3216   -4.0972  -10.7118 N   0  0  0  0  0  0  0  0  0  0  0  0
   39.2968   -4.4342   -9.6905 C   0  0  0  0  0  0  0  0  0  0  0  0
   37.6994   -5.2950  -11.3024 O   0  0  0  0  0  0  0  0  0  0  0  0
   38.3617   -6.3448  -11.4035 O   0  0  0  0  0  0  0  0  0  0  0  0
  2 12  2  0
  2  1  1  0
  3  2  1  0
  4  3  2  0
  5  4  1  0
  5 11  2  0
  6  5  1  0
  7  9  1  0
  7  6  1  0
  7  8  1  6
  9 10  2  0
 11 12  1  0
 14 13  1  0
 15 14  2  0
 16 14  1  0
 17 18  1  0
 17 16  1  0
 18 19  1  0
 20 19  1  1
 21 20  1  0
 21  9  1  0
 22 20  1  0
 23 22  2  0
 25 24  1  1
 25 26  1  0
 26 22  1  0
 27 25  1  0
 27 29  1  0
 28 27  2  0
M  END
$$$$
