YRA.pdb
     RDKit          3D

 29 29  0  0  1  0  0  0  0  0999 V2000
   18.8347  -22.2379   -8.7040 O   0  0  0  0  0  0  0  0  0  0  0  0
   19.8653  -21.6581   -9.4425 C   0  0  0  0  0  0  0  0  0  0  0  0
   20.6804  -20.6792   -8.9171 C   0  0  0  0  0  0  0  0  0  0  0  0
   21.7029  -20.1035   -9.6465 C   0  0  0  0  0  0  0  0  0  0  0  0
   21.9509  -20.4920  -10.9490 C   0  0  0  0  0  0  0  0  0  0  0  0
   23.0473  -19.8838  -11.7679 C   0  0  0  0  0  0  0  0  0  0  0  0
   24.2001  -20.8632  -11.8016 C   0  0  2  0  0  0  0  0  0  0  0  0
   24.8887  -20.8286  -10.5354 N   0  0  0  0  0  0  0  0  0  0  0  0
   25.1097  -20.5113  -12.9349 C   0  0  0  0  0  0  0  0  0  0  0  0
   25.9853  -19.6379  -12.7232 O   0  0  0  0  0  0  0  0  0  0  0  0
   21.1398  -21.4713  -11.4828 C   0  0  0  0  0  0  0  0  0  0  0  0
   20.1085  -22.0519  -10.7467 C   0  0  0  0  0  0  0  0  0  0  0  0
   31.2704  -24.1418  -16.1142 N   0  0  0  0  0  0  0  0  0  0  0  0
   30.4256  -24.3265  -17.2391 C   0  0  0  0  0  0  0  0  0  0  0  0
   30.8302  -25.1245  -18.1826 N   0  0  0  0  0  0  0  0  0  0  0  0
   29.1745  -23.6913  -17.3876 N   0  0  0  0  0  0  0  0  0  0  0  0
   28.8415  -22.5687  -16.5523 C   0  0  0  0  0  0  0  0  0  0  0  0
   27.5064  -21.9602  -16.8991 C   0  0  0  0  0  0  0  0  0  0  0  0
   26.4891  -22.2093  -15.8187 C   0  0  0  0  0  0  0  0  0  0  0  0
   25.9607  -20.9088  -15.2808 C   0  0  2  0  0  0  0  0  0  0  0  0
   25.0244  -21.1070  -14.1951 N   0  0  0  0  0  0  0  0  0  0  0  0
   25.2256  -20.2674  -16.4324 C   0  0  0  0  0  0  0  0  0  0  0  0
   24.1136  -20.7319  -16.7497 O   0  0  0  0  0  0  0  0  0  0  0  0
   30.2674  -25.3273  -19.0206 C   0  0  0  0  0  0  0  0  0  0  0  0
   24.5597  -17.1466  -17.8439 C   0  0  1  0  0  0  0  0  0  0  0  0
   25.0472  -18.5210  -18.2479 N   0  0  0  0  0  0  0  0  0  0  0  0
   25.7479  -19.1721  -17.1557 C   0  0  0  0  0  0  0  0  0  0  0  0
   25.8577  -18.4726  -19.4773 O   0  0  0  0  0  0  0  0  0  0  0  0
   27.0865  -18.6642  -19.4110 O   0  0  0  0  0  0  0  0  0  0  0  0
  2 12  2  0
  2  1  1  0
  3  2  1  0
  4  3  2  0
  5  4  1  0
  5 11  2  0
  6  5  1  0
  7  9  1  0
  7  6  1  0
  7  8  1  1
  9 10  2  0
 11 12  1  0
 14 13  1  0
 15 14  2  0
 16 14  1  0
 17 18  1  0
 17 16  1  0
 18 19  1  0
 20 19  1  6
 21 20  1  0
 21  9  1  0
 22 20  1  0
 23 22  2  0
 25 24  1  1
 25 26  1  0
 26 22  1  0
 27 25  1  0
 27 29  1  0
 28 27  2  0
M  END
$$$$
