YRA.pdb
     RDKit          3D

 29 29  0  0  1  0  0  0  0  0999 V2000
   22.2111  -15.0204  -20.1580 O   0  0  0  0  0  0  0  0  0  0  0  0
   22.5016  -15.8532  -19.0782 C   0  0  0  0  0  0  0  0  0  0  0  0
   21.5496  -16.6693  -18.5071 C   0  0  0  0  0  0  0  0  0  0  0  0
   21.8351  -17.4960  -17.4376 C   0  0  0  0  0  0  0  0  0  0  0  0
   23.1035  -17.5368  -16.8914 C   0  0  0  0  0  0  0  0  0  0  0  0
   23.4437  -18.4174  -15.7290 C   0  0  0  0  0  0  0  0  0  0  0  0
   24.2524  -19.5847  -16.2513 C   0  0  2  0  0  0  0  0  0  0  0  0
   23.3762  -20.4966  -16.9434 N   0  0  0  0  0  0  0  0  0  0  0  0
   24.9496  -20.2492  -15.1077 C   0  0  0  0  0  0  0  0  0  0  0  0
   24.3333  -21.1626  -14.5073 O   0  0  0  0  0  0  0  0  0  0  0  0
   24.0626  -16.7231  -17.4571 C   0  0  0  0  0  0  0  0  0  0  0  0
   23.7744  -15.8893  -18.5360 C   0  0  0  0  0  0  0  0  0  0  0  0
   31.9114  -23.0581  -12.6544 N   0  0  0  0  0  0  0  0  0  0  0  0
   31.9841  -22.2577  -11.4850 C   0  0  0  0  0  0  0  0  0  0  0  0
   32.7194  -22.6809  -10.4996 N   0  0  0  0  0  0  0  0  0  0  0  0
   31.3019  -21.0317  -11.3355 N   0  0  0  0  0  0  0  0  0  0  0  0
   30.6033  -20.4634  -12.4569 C   0  0  0  0  0  0  0  0  0  0  0  0
   29.1197  -20.7283  -12.4140 C   0  0  0  0  0  0  0  0  0  0  0  0
   28.4251  -20.1753  -13.6290 C   0  0  0  0  0  0  0  0  0  0  0  0
   26.9623  -20.5208  -13.6040 C   0  0  2  0  0  0  0  0  0  0  0  0
   26.2360  -19.8999  -14.6910 N   0  0  0  0  0  0  0  0  0  0  0  0
   26.4404  -19.9626  -12.3025 C   0  0  0  0  0  0  0  0  0  0  0  0
   26.3566  -18.7246  -12.1871 O   0  0  0  0  0  0  0  0  0  0  0  0
   32.8275  -22.1571   -9.6198 C   0  0  0  0  0  0  0  0  0  0  0  0
   24.1266  -19.5895  -10.2917 C   0  0  2  0  0  0  0  0  0  0  0  0
   25.4430  -20.2781  -10.0039 N   0  0  0  0  0  0  0  0  0  0  0  0
   26.0487  -20.7845  -11.2223 C   0  0  0  0  0  0  0  0  0  0  0  0
   25.2975  -21.3263   -8.9788 O   0  0  0  0  0  0  0  0  0  0  0  0
   25.6161  -22.4993   -9.2501 O   0  0  0  0  0  0  0  0  0  0  0  0
  2 12  2  0
  2  1  1  0
  3  2  1  0
  4  3  2  0
  5  4  1  0
  5 11  2  0
  6  5  1  0
  7  9  1  0
  7  6  1  0
  7  8  1  1
  9 10  2  0
 11 12  1  0
 14 13  1  0
 15 14  2  0
 16 14  1  0
 17 18  1  0
 17 16  1  0
 18 19  1  0
 20 19  1  6
 21 20  1  0
 21  9  1  0
 22 20  1  0
 23 22  2  0
 25 24  1  6
 25 26  1  0
 26 22  1  0
 27 25  1  0
 27 29  1  0
 28 27  2  0
M  END
$$$$
