YRA.pdb
     RDKit          3D

 29 29  0  0  1  0  0  0  0  0999 V2000
   23.3375  -18.9250  -21.9584 O   0  0  0  0  0  0  0  0  0  0  0  0
   22.6046  -19.8766  -21.2506 C   0  0  0  0  0  0  0  0  0  0  0  0
   22.5299  -21.1916  -21.6554 C   0  0  0  0  0  0  0  0  0  0  0  0
   21.8050  -22.1368  -20.9553 C   0  0  0  0  0  0  0  0  0  0  0  0
   21.1171  -21.7954  -19.8068 C   0  0  0  0  0  0  0  0  0  0  0  0
   20.3179  -22.7946  -19.0287 C   0  0  0  0  0  0  0  0  0  0  0  0
   21.1424  -23.2197  -17.8334 C   0  0  2  0  0  0  0  0  0  0  0  0
   22.2618  -24.0077  -18.2856 N   0  0  0  0  0  0  0  0  0  0  0  0
   20.2748  -23.9851  -16.8862 C   0  0  0  0  0  0  0  0  0  0  0  0
   20.2545  -25.2343  -17.0023 O   0  0  0  0  0  0  0  0  0  0  0  0
   21.1865  -20.4812  -19.3944 C   0  0  0  0  0  0  0  0  0  0  0  0
   21.9180  -19.5280  -20.1007 C   0  0  0  0  0  0  0  0  0  0  0  0
   16.8927  -25.9797  -10.3350 N   0  0  0  0  0  0  0  0  0  0  0  0
   18.0126  -25.2576   -9.8473 C   0  0  0  0  0  0  0  0  0  0  0  0
   18.7521  -25.8188   -8.9368 N   0  0  0  0  0  0  0  0  0  0  0  0
   18.3639  -23.9669  -10.2962 N   0  0  0  0  0  0  0  0  0  0  0  0
   17.5970  -23.3421  -11.3403 C   0  0  0  0  0  0  0  0  0  0  0  0
   17.7048  -24.0687  -12.6568 C   0  0  0  0  0  0  0  0  0  0  0  0
   18.5608  -23.3121  -13.6362 C   0  0  0  0  0  0  0  0  0  0  0  0
   18.6772  -24.0684  -14.9301 C   0  0  2  0  0  0  0  0  0  0  0  0
   19.5022  -23.3747  -15.8959 N   0  0  0  0  0  0  0  0  0  0  0  0
   17.2721  -24.1496  -15.4753 C   0  0  0  0  0  0  0  0  0  0  0  0
   16.6927  -23.0847  -15.7637 O   0  0  0  0  0  0  0  0  0  0  0  0
   19.5094  -25.3203   -8.4487 C   0  0  0  0  0  0  0  0  0  0  0  0
   14.9728  -26.8688  -16.7250 C   0  0  1  0  0  0  0  0  0  0  0  0
   15.2487  -25.4792  -16.1932 N   0  0  0  0  0  0  0  0  0  0  0  0
   16.5979  -25.3761  -15.6671 C   0  0  0  0  0  0  0  0  0  0  0  0
   14.2353  -25.0607  -15.2091 O   0  0  0  0  0  0  0  0  0  0  0  0
   14.5168  -25.0692  -13.9960 O   0  0  0  0  0  0  0  0  0  0  0  0
  2 12  2  0
  2  1  1  0
  3  2  1  0
  4  3  2  0
  5  4  1  0
  5 11  2  0
  6  5  1  0
  7  9  1  0
  7  6  1  0
  7  8  1  6
  9 10  2  0
 11 12  1  0
 14 13  1  0
 15 14  2  0
 16 14  1  0
 17 18  1  0
 17 16  1  0
 18 19  1  0
 20 19  1  1
 21 20  1  0
 21  9  1  0
 22 20  1  0
 23 22  2  0
 25 24  1  6
 25 26  1  0
 26 22  1  0
 27 25  1  0
 27 29  1  0
 28 27  2  0
M  END
$$$$
