YRA.pdb
     RDKit          3D

 29 29  0  0  1  0  0  0  0  0999 V2000
   19.2500  -20.4874   -9.3129 O   0  0  0  0  0  0  0  0  0  0  0  0
   20.4395  -20.3598  -10.0290 C   0  0  0  0  0  0  0  0  0  0  0  0
   20.6174  -20.9480  -11.2623 C   0  0  0  0  0  0  0  0  0  0  0  0
   21.7947  -20.8223  -11.9743 C   0  0  0  0  0  0  0  0  0  0  0  0
   22.8541  -20.0925  -11.4703 C   0  0  0  0  0  0  0  0  0  0  0  0
   24.1449  -19.9420  -12.2143 C   0  0  0  0  0  0  0  0  0  0  0  0
   24.9643  -21.1925  -11.9809 C   0  0  2  0  0  0  0  0  0  0  0  0
   25.5291  -21.1486  -10.6552 N   0  0  0  0  0  0  0  0  0  0  0  0
   26.0249  -21.2869  -13.0305 C   0  0  0  0  0  0  0  0  0  0  0  0
   27.0276  -20.5427  -12.9072 O   0  0  0  0  0  0  0  0  0  0  0  0
   22.6845  -19.5003  -10.2363 C   0  0  0  0  0  0  0  0  0  0  0  0
   21.4967  -19.6271   -9.5184 C   0  0  0  0  0  0  0  0  0  0  0  0
   30.5984  -24.8297  -18.4497 N   0  0  0  0  0  0  0  0  0  0  0  0
   30.3420  -25.7860  -17.4334 C   0  0  0  0  0  0  0  0  0  0  0  0
   31.3469  -26.4678  -16.9684 N   0  0  0  0  0  0  0  0  0  0  0  0
   29.0584  -26.0359  -16.9036 N   0  0  0  0  0  0  0  0  0  0  0  0
   27.9340  -25.2683  -17.3674 C   0  0  0  0  0  0  0  0  0  0  0  0
   27.9302  -23.8589  -16.8322 C   0  0  0  0  0  0  0  0  0  0  0  0
   26.7814  -23.6306  -15.8874 C   0  0  0  0  0  0  0  0  0  0  0  0
   26.9840  -22.3623  -15.1063 C   0  0  2  0  0  0  0  0  0  0  0  0
   25.9445  -22.1558  -14.1208 N   0  0  0  0  0  0  0  0  0  0  0  0
   26.9051  -21.2486  -16.1221 C   0  0  0  0  0  0  0  0  0  0  0  0
   25.8259  -21.0768  -16.7210 O   0  0  0  0  0  0  0  0  0  0  0  0
   31.2304  -27.2657  -16.3280 C   0  0  0  0  0  0  0  0  0  0  0  0
   29.0478  -18.2996  -17.0924 C   0  0  1  0  0  0  0  0  0  0  0  0
   27.9290  -19.2878  -17.3405 N   0  0  0  0  0  0  0  0  0  0  0  0
   27.9991  -20.4044  -16.4152 C   0  0  0  0  0  0  0  0  0  0  0  0
   27.8947  -19.7316  -18.7449 O   0  0  0  0  0  0  0  0  0  0  0  0
   28.5360  -20.7435  -19.0852 O   0  0  0  0  0  0  0  0  0  0  0  0
  2 12  2  0
  2  1  1  0
  3  2  1  0
  4  3  2  0
  5  4  1  0
  5 11  2  0
  6  5  1  0
  7  9  1  0
  7  6  1  0
  7  8  1  1
  9 10  2  0
 11 12  1  0
 14 13  1  0
 15 14  2  0
 16 14  1  0
 17 18  1  0
 17 16  1  0
 18 19  1  0
 20 19  1  6
 21 20  1  0
 21  9  1  0
 22 20  1  0
 23 22  2  0
 25 24  1  1
 25 26  1  0
 26 22  1  0
 27 25  1  0
 27 29  1  0
 28 27  2  0
M  END
$$$$
