YRA.pdb
     RDKit          3D

 29 29  0  0  1  0  0  0  0  0999 V2000
   11.0741   -5.5463   -6.4995 O   0  0  0  0  0  0  0  0  0  0  0  0
   12.2392   -6.0783   -7.0503 C   0  0  0  0  0  0  0  0  0  0  0  0
   13.2580   -5.2780   -7.5195 C   0  0  0  0  0  0  0  0  0  0  0  0
   14.4139   -5.8027   -8.0649 C   0  0  0  0  0  0  0  0  0  0  0  0
   14.5955   -7.1688   -8.1629 C   0  0  0  0  0  0  0  0  0  0  0  0
   15.8337   -7.7687   -8.7539 C   0  0  0  0  0  0  0  0  0  0  0  0
   15.5181   -8.1792  -10.1756 C   0  0  2  0  0  0  0  0  0  0  0  0
   14.6343   -9.3181  -10.1552 N   0  0  0  0  0  0  0  0  0  0  0  0
   16.7942   -8.4830  -10.8932 C   0  0  0  0  0  0  0  0  0  0  0  0
   17.1577   -9.6829  -10.9427 O   0  0  0  0  0  0  0  0  0  0  0  0
   13.5806   -7.9773   -7.6956 C   0  0  0  0  0  0  0  0  0  0  0  0
   12.4148   -7.4477   -7.1452 C   0  0  0  0  0  0  0  0  0  0  0  0
   19.6500  -11.6927  -16.9705 N   0  0  0  0  0  0  0  0  0  0  0  0
   18.3049  -11.5146  -16.5554 C   0  0  0  0  0  0  0  0  0  0  0  0
   17.4523  -12.4588  -16.8243 N   0  0  0  0  0  0  0  0  0  0  0  0
   17.8454  -10.3702  -15.8697 N   0  0  0  0  0  0  0  0  0  0  0  0
   18.4950   -9.1044  -16.0803 C   0  0  0  0  0  0  0  0  0  0  0  0
   19.0634   -8.5230  -14.8107 C   0  0  0  0  0  0  0  0  0  0  0  0
   17.9940   -8.3117  -13.7733 C   0  0  0  0  0  0  0  0  0  0  0  0
   18.5848   -7.7409  -12.5144 C   0  0  2  0  0  0  0  0  0  0  0  0
   17.5810   -7.5015  -11.4998 N   0  0  0  0  0  0  0  0  0  0  0  0
   19.1811   -6.4140  -12.9167 C   0  0  0  0  0  0  0  0  0  0  0  0
   18.4038   -5.4994  -13.2517 O   0  0  0  0  0  0  0  0  0  0  0  0
   16.4620  -12.4113  -16.5463 C   0  0  0  0  0  0  0  0  0  0  0  0
   22.6820   -5.0026  -13.3367 C   0  0  1  0  0  0  0  0  0  0  0  0
   21.1711   -4.9179  -13.3399 N   0  0  0  0  0  0  0  0  0  0  0  0
   20.5734   -6.1751  -12.9277 C   0  0  0  0  0  0  0  0  0  0  0  0
   20.6535   -4.4566  -14.6399 O   0  0  0  0  0  0  0  0  0  0  0  0
   20.3444   -5.2927  -15.5097 O   0  0  0  0  0  0  0  0  0  0  0  0
  2 12  2  0
  2  1  1  0
  3  2  1  0
  4  3  2  0
  5  4  1  0
  5 11  2  0
  6  5  1  0
  7  9  1  0
  7  6  1  0
  7  8  1  1
  9 10  2  0
 11 12  1  0
 14 13  1  0
 15 14  2  0
 16 14  1  0
 17 18  1  0
 17 16  1  0
 18 19  1  0
 20 19  1  6
 21 20  1  0
 21  9  1  0
 22 20  1  0
 23 22  2  0
 25 24  1  1
 25 26  1  0
 26 22  1  0
 27 25  1  0
 27 29  1  0
 28 27  2  0
M  END
$$$$
