YRA.pdb
     RDKit          3D

 29 29  0  0  1  0  0  0  0  0999 V2000
   21.2149  -19.4544  -12.8412 O   0  0  0  0  0  0  0  0  0  0  0  0
   20.6485  -18.2577  -13.2783 C   0  0  0  0  0  0  0  0  0  0  0  0
   20.2412  -17.2774  -12.3998 C   0  0  0  0  0  0  0  0  0  0  0  0
   19.6805  -16.0905  -12.8303 C   0  0  0  0  0  0  0  0  0  0  0  0
   19.5033  -15.8369  -14.1769 C   0  0  0  0  0  0  0  0  0  0  0  0
   18.8936  -14.5633  -14.6756 C   0  0  0  0  0  0  0  0  0  0  0  0
   17.3990  -14.6462  -14.4552 C   0  0  2  0  0  0  0  0  0  0  0  0
   16.8499  -15.6697  -15.3092 N   0  0  0  0  0  0  0  0  0  0  0  0
   16.7877  -13.3099  -14.7310 C   0  0  0  0  0  0  0  0  0  0  0  0
   16.6102  -12.9925  -15.9320 O   0  0  0  0  0  0  0  0  0  0  0  0
   19.9083  -16.8128  -15.0633 C   0  0  0  0  0  0  0  0  0  0  0  0
   20.4741  -18.0101  -14.6287 C   0  0  0  0  0  0  0  0  0  0  0  0
   13.1331   -7.9913   -8.9523 N   0  0  0  0  0  0  0  0  0  0  0  0
   14.4265   -7.7871   -9.4989 C   0  0  0  0  0  0  0  0  0  0  0  0
   15.2675   -7.0609   -8.8236 N   0  0  0  0  0  0  0  0  0  0  0  0
   14.8460   -8.3279  -10.7327 N   0  0  0  0  0  0  0  0  0  0  0  0
   13.8667   -8.6939  -11.7204 C   0  0  0  0  0  0  0  0  0  0  0  0
   14.4852   -9.2728  -12.9675 C   0  0  0  0  0  0  0  0  0  0  0  0
   15.2046  -10.5627  -12.6791 C   0  0  0  0  0  0  0  0  0  0  0  0
   15.8212  -11.1154  -13.9337 C   0  0  2  0  0  0  0  0  0  0  0  0
   16.4128  -12.4193  -13.7227 N   0  0  0  0  0  0  0  0  0  0  0  0
   16.9198  -10.1478  -14.3008 C   0  0  0  0  0  0  0  0  0  0  0  0
   17.9398  -10.1199  -13.5854 O   0  0  0  0  0  0  0  0  0  0  0  0
   16.2167   -6.8483   -9.1611 C   0  0  0  0  0  0  0  0  0  0  0  0
   17.6889   -7.8965  -17.2405 C   0  0  1  0  0  0  0  0  0  0  0  0
   17.9048   -8.3939  -15.8277 N   0  0  0  0  0  0  0  0  0  0  0  0
   16.8334   -9.2819  -15.4137 C   0  0  0  0  0  0  0  0  0  0  0  0
   18.1010   -7.2815  -14.8818 O   0  0  0  0  0  0  0  0  0  0  0  0
   17.1139   -6.7746  -14.3164 O   0  0  0  0  0  0  0  0  0  0  0  0
  2 12  2  0
  2  1  1  0
  3  2  1  0
  4  3  2  0
  5  4  1  0
  5 11  2  0
  6  5  1  0
  7  9  1  0
  7  6  1  0
  7  8  1  6
  9 10  2  0
 11 12  1  0
 14 13  1  0
 15 14  2  0
 16 14  1  0
 17 18  1  0
 17 16  1  0
 18 19  1  0
 20 19  1  1
 21 20  1  0
 21  9  1  0
 22 20  1  0
 23 22  2  0
 25 24  1  6
 25 26  1  0
 26 22  1  0
 27 25  1  0
 27 29  1  0
 28 27  2  0
M  END
$$$$
