YRA.pdb
     RDKit          3D

 29 29  0  0  1  0  0  0  0  0999 V2000
   29.9533  -22.2653  -17.0342 O   0  0  0  0  0  0  0  0  0  0  0  0
   29.2882  -23.4898  -16.9908 C   0  0  0  0  0  0  0  0  0  0  0  0
   29.9617  -24.6832  -16.8465 C   0  0  0  0  0  0  0  0  0  0  0  0
   29.3049  -25.8979  -16.8023 C   0  0  0  0  0  0  0  0  0  0  0  0
   27.9285  -25.9642  -16.9030 C   0  0  0  0  0  0  0  0  0  0  0  0
   27.1875  -27.2649  -16.8645 C   0  0  0  0  0  0  0  0  0  0  0  0
   27.5127  -28.0228  -18.1330 C   0  0  2  0  0  0  0  0  0  0  0  0
   27.0427  -27.2696  -19.2689 N   0  0  0  0  0  0  0  0  0  0  0  0
   26.8836  -29.3777  -18.0699 C   0  0  0  0  0  0  0  0  0  0  0  0
   25.8375  -29.5607  -18.7381 O   0  0  0  0  0  0  0  0  0  0  0  0
   27.2465  -24.7743  -17.0477 C   0  0  0  0  0  0  0  0  0  0  0  0
   27.9092  -23.5491  -17.0921 C   0  0  0  0  0  0  0  0  0  0  0  0
   32.3021  -35.4020  -18.8455 N   0  0  0  0  0  0  0  0  0  0  0  0
   32.2358  -33.9853  -18.8023 C   0  0  0  0  0  0  0  0  0  0  0  0
   33.3531  -33.3204  -18.8245 N   0  0  0  0  0  0  0  0  0  0  0  0
   31.0257  -33.2629  -18.7356 N   0  0  0  0  0  0  0  0  0  0  0  0
   29.7738  -33.9704  -18.7078 C   0  0  0  0  0  0  0  0  0  0  0  0
   28.5823  -33.0467  -18.7152 C   0  0  0  0  0  0  0  0  0  0  0  0
   28.0814  -32.7811  -17.3212 C   0  0  0  0  0  0  0  0  0  0  0  0
   26.9442  -31.7983  -17.3470 C   0  0  2  0  0  0  0  0  0  0  0  0
   27.4064  -30.4273  -17.3113 N   0  0  0  0  0  0  0  0  0  0  0  0
   26.1532  -32.0670  -16.0900 C   0  0  0  0  0  0  0  0  0  0  0  0
   26.7175  -31.8902  -14.9931 O   0  0  0  0  0  0  0  0  0  0  0  0
   33.3897  -32.2915  -18.8092 C   0  0  0  0  0  0  0  0  0  0  0  0
   22.5650  -32.9571  -15.2518 C   0  0  1  0  0  0  0  0  0  0  0  0
   24.0283  -32.7654  -14.9174 N   0  0  0  0  0  0  0  0  0  0  0  0
   24.8111  -32.5075  -16.1126 C   0  0  0  0  0  0  0  0  0  0  0  0
   24.5620  -33.8954  -14.1370 O   0  0  0  0  0  0  0  0  0  0  0  0
   25.1481  -34.8246  -14.7235 O   0  0  0  0  0  0  0  0  0  0  0  0
  2 12  2  0
  2  1  1  0
  3  2  1  0
  4  3  2  0
  5  4  1  0
  5 11  2  0
  6  5  1  0
  7  9  1  0
  7  6  1  0
  7  8  1  6
  9 10  2  0
 11 12  1  0
 14 13  1  0
 15 14  2  0
 16 14  1  0
 17 18  1  0
 17 16  1  0
 18 19  1  0
 20 19  1  1
 21 20  1  0
 21  9  1  0
 22 20  1  0
 23 22  2  0
 25 24  1  1
 25 26  1  0
 26 22  1  0
 27 25  1  0
 27 29  1  0
 28 27  2  0
M  END
$$$$
