RCM.pdb
     RDKit          3D

 26 25  0  0  1  0  0  0  0  0999 V2000
   22.5923  -33.2843   -7.7967 N   0  0  0  0  0  0  0  0  0  0  0  0
   21.6488  -33.0151   -8.8203 C   0  0  0  0  0  0  0  0  0  0  0  0
   20.6718  -33.8355   -9.1099 N   0  0  0  0  0  0  0  0  0  0  0  0
   21.6880  -31.8347   -9.6112 N   0  0  0  0  0  0  0  0  0  0  0  0
   22.6716  -30.8005   -9.3665 C   0  0  0  0  0  0  0  0  0  0  0  0
   22.3781  -29.6915  -10.3535 C   0  0  0  0  0  0  0  0  0  0  0  0
   22.1460  -30.2593  -11.6998 C   0  0  0  0  0  0  0  0  0  0  0  0
   21.9700  -29.1589  -12.7173 C   0  0  2  0  0  0  0  0  0  0  0  0
   23.0330  -28.1816  -12.6356 N   0  0  0  0  0  0  0  0  0  0  0  0
   20.6890  -28.4479  -12.3989 C   0  0  0  0  0  0  0  0  0  0  0  0
   19.5876  -29.0715  -12.5861 O   0  0  0  0  0  0  0  0  0  0  0  0
   20.0654  -33.5475   -9.9287 N   0  0  0  0  0  0  0  0  0  0  0  0
   20.6675  -27.1254  -11.9036 C   0  0  1  0  0  0  0  0  0  0  0  0
   19.3827  -26.4989  -11.6589 C   0  0  0  0  0  0  0  0  0  0  0  0
   19.3091  -26.1936  -10.1746 S   0  0  0  0  0  0  0  0  0  0  0  0
   18.7382  -24.5322   -9.8181 C   0  0  0  0  0  0  0  0  0  0  0  0
   19.2161  -25.2674  -12.4771 O   0  0  0  0  0  0  0  0  0  0  0  0
   20.2162  -24.5159  -12.7029 C   0  0  0  0  0  0  0  0  0  0  0  0
   15.3555  -22.4952  -18.6829 S   0  0  0  0  0  0  0  0  0  0  0  0
   15.7491  -23.6942  -17.4104 C   0  0  0  0  0  0  0  0  0  0  0  0
   16.8287  -23.0096  -16.1101 C   0  0  0  0  0  0  0  0  0  0  0  0
   17.0753  -24.1010  -15.1286 C   0  0  1  0  0  0  0  0  0  0  0  0
   17.8468  -23.7047  -13.9058 N   0  0  0  0  0  0  0  0  0  0  0  0
   17.9848  -24.8786  -13.0283 C   0  0  0  0  0  0  0  0  0  0  0  0
   17.2701  -22.6042  -13.1315 O   0  0  0  0  0  0  0  0  0  0  0  0
   17.5648  -21.2690  -13.3714 O   0  0  0  0  0  0  0  0  0  0  0  0
  2  1  1  0
  3  2  2  0
  4  2  1  0
  5  4  1  0
  6  5  1  0
  7  6  1  0
  8  7  1  0
  8  9  1  1
 10  8  1  0
 10 11  2  0
 12 10  1  0
 13 12  1  0
 13 14  1  6
 15 14  1  0
 16 13  1  0
 17 16  2  0
 19 18  1  0
 20 21  1  0
 20 19  1  0
 22 21  1  6
 22 23  1  0
 22 24  1  0
 23 16  1  0
 24 26  2  0
 24 25  1  0
M  END
$$$$
