RCM.pdb
     RDKit          3D

 26 25  0  0  1  0  0  0  0  0999 V2000
   29.5624  -17.0210  -19.5451 N   0  0  0  0  0  0  0  0  0  0  0  0
   28.5615  -17.4287  -18.6275 C   0  0  0  0  0  0  0  0  0  0  0  0
   27.4907  -18.0821  -18.9990 N   0  0  0  0  0  0  0  0  0  0  0  0
   28.6413  -17.1618  -17.2336 N   0  0  0  0  0  0  0  0  0  0  0  0
   27.5927  -17.5834  -16.3283 C   0  0  0  0  0  0  0  0  0  0  0  0
   27.9540  -18.9831  -15.8804 C   0  0  0  0  0  0  0  0  0  0  0  0
   26.9459  -19.4844  -14.9207 C   0  0  0  0  0  0  0  0  0  0  0  0
   27.4047  -20.7791  -14.2960 C   0  0  2  0  0  0  0  0  0  0  0  0
   27.5551  -21.8244  -15.2843 N   0  0  0  0  0  0  0  0  0  0  0  0
   26.3390  -21.2237  -13.3398 C   0  0  0  0  0  0  0  0  0  0  0  0
   25.3840  -21.9461  -13.7905 O   0  0  0  0  0  0  0  0  0  0  0  0
   26.8308  -18.3535  -18.2166 N   0  0  0  0  0  0  0  0  0  0  0  0
   26.3624  -20.8707  -11.9725 C   0  0  2  0  0  0  0  0  0  0  0  0
   25.1565  -21.0572  -11.1888 C   0  0  0  0  0  0  0  0  0  0  0  0
   25.4915  -20.6851   -9.7567 S   0  0  0  0  0  0  0  0  0  0  0  0
   27.1525  -21.1524   -9.2709 C   0  0  0  0  0  0  0  0  0  0  0  0
   24.0348  -20.2348  -11.7170 O   0  0  0  0  0  0  0  0  0  0  0  0
   24.2642  -19.3259  -12.5756 C   0  0  0  0  0  0  0  0  0  0  0  0
   22.3357  -21.5292  -16.7577 S   0  0  0  0  0  0  0  0  0  0  0  0
   20.9836  -22.1351  -15.7494 C   0  0  0  0  0  0  0  0  0  0  0  0
   20.5686  -21.0061  -14.3791 C   0  0  0  0  0  0  0  0  0  0  0  0
   21.6822  -21.0868  -13.3949 C   0  0  1  0  0  0  0  0  0  0  0  0
   21.5629  -20.1740  -12.2117 N   0  0  0  0  0  0  0  0  0  0  0  0
   22.7025  -20.4108  -11.3104 C   0  0  0  0  0  0  0  0  0  0  0  0
   20.3225  -20.3026  -11.4448 O   0  0  0  0  0  0  0  0  0  0  0  0
   19.2164  -19.4880  -11.6451 O   0  0  0  0  0  0  0  0  0  0  0  0
  2  1  1  0
  3  2  2  0
  4  2  1  0
  5  4  1  0
  6  5  1  0
  7  6  1  0
  8  7  1  0
  8  9  1  6
 10  8  1  0
 10 11  2  0
 12 10  1  0
 13 12  1  0
 13 14  1  6
 15 14  1  0
 16 13  1  0
 17 16  2  0
 19 18  1  0
 20 21  1  0
 20 19  1  0
 22 21  1  6
 22 23  1  0
 22 24  1  0
 23 16  1  0
 24 26  2  0
 24 25  1  0
M  END
$$$$
