RCM.pdb
     RDKit          3D

 26 25  0  0  1  0  0  0  0  0999 V2000
   29.8400  -20.4912  -20.0646 N   0  0  0  0  0  0  0  0  0  0  0  0
   28.5886  -19.9386  -19.6918 C   0  0  0  0  0  0  0  0  0  0  0  0
   28.0561  -18.9191  -20.3153 N   0  0  0  0  0  0  0  0  0  0  0  0
   27.8136  -20.4472  -18.6143 N   0  0  0  0  0  0  0  0  0  0  0  0
   26.5659  -19.8222  -18.2276 C   0  0  0  0  0  0  0  0  0  0  0  0
   26.2096  -20.3869  -16.8696 C   0  0  0  0  0  0  0  0  0  0  0  0
   27.3827  -20.3233  -15.9705 C   0  0  0  0  0  0  0  0  0  0  0  0
   27.5293  -21.6104  -15.1965 C   0  0  2  0  0  0  0  0  0  0  0  0
   27.3840  -22.7671  -16.0524 N   0  0  0  0  0  0  0  0  0  0  0  0
   26.4199  -21.6625  -14.1893 C   0  0  0  0  0  0  0  0  0  0  0  0
   25.3076  -22.1884  -14.5402 O   0  0  0  0  0  0  0  0  0  0  0  0
   27.0931  -18.6347  -19.9794 N   0  0  0  0  0  0  0  0  0  0  0  0
   26.5697  -21.1533  -12.8805 C   0  0  2  0  0  0  0  0  0  0  0  0
   25.4461  -21.2478  -11.9683 C   0  0  0  0  0  0  0  0  0  0  0  0
   25.9230  -20.7480  -10.6177 S   0  0  0  0  0  0  0  0  0  0  0  0
   24.6674  -20.8408   -9.3417 C   0  0  0  0  0  0  0  0  0  0  0  0
   24.2821  -20.4622  -12.4598 O   0  0  0  0  0  0  0  0  0  0  0  0
   24.4608  -19.5136  -13.2869 C   0  0  0  0  0  0  0  0  0  0  0  0
   22.1388  -22.2775  -16.7584 S   0  0  0  0  0  0  0  0  0  0  0  0
   21.0804  -20.8313  -16.7489 C   0  0  0  0  0  0  0  0  0  0  0  0
   20.7254  -20.2318  -15.0639 C   0  0  0  0  0  0  0  0  0  0  0  0
   21.8850  -20.6124  -14.2121 C   0  0  1  0  0  0  0  0  0  0  0  0
   21.7953  -20.1899  -12.7765 N   0  0  0  0  0  0  0  0  0  0  0  0
   22.9631  -20.7163  -12.0511 C   0  0  0  0  0  0  0  0  0  0  0  0
   20.5794  -20.6076  -12.0762 O   0  0  0  0  0  0  0  0  0  0  0  0
   19.4355  -19.8244  -12.0051 O   0  0  0  0  0  0  0  0  0  0  0  0
  2  1  1  0
  3  2  2  0
  4  2  1  0
  5  4  1  0
  6  5  1  0
  7  6  1  0
  8  7  1  0
  8  9  1  6
 10  8  1  0
 10 11  2  0
 12 10  1  0
 13 12  1  0
 13 14  1  1
 15 14  1  0
 16 13  1  0
 17 16  2  0
 19 18  1  0
 20 21  1  0
 20 19  1  0
 22 21  1  6
 22 23  1  0
 22 24  1  0
 23 16  1  0
 24 26  2  0
 24 25  1  0
M  END
$$$$
