RCM.pdb
     RDKit          3D

 26 25  0  0  1  0  0  0  0  0999 V2000
   22.3498  -18.0114  -15.9367 N   0  0  0  0  0  0  0  0  0  0  0  0
   22.8209  -18.7957  -17.0199 C   0  0  0  0  0  0  0  0  0  0  0  0
   22.0516  -19.1551  -18.0151 N   0  0  0  0  0  0  0  0  0  0  0  0
   24.1638  -19.2523  -17.1117 N   0  0  0  0  0  0  0  0  0  0  0  0
   25.0958  -19.0652  -16.0193 C   0  0  0  0  0  0  0  0  0  0  0  0
   26.4595  -19.4471  -16.5527 C   0  0  0  0  0  0  0  0  0  0  0  0
   27.4824  -19.2774  -15.4975 C   0  0  0  0  0  0  0  0  0  0  0  0
   27.8925  -20.6162  -14.9349 C   0  0  2  0  0  0  0  0  0  0  0  0
   27.9967  -21.6207  -15.9702 N   0  0  0  0  0  0  0  0  0  0  0  0
   26.8146  -21.0614  -13.9926 C   0  0  0  0  0  0  0  0  0  0  0  0
   26.0011  -21.9665  -14.3875 O   0  0  0  0  0  0  0  0  0  0  0  0
   22.5331  -19.6940  -18.7889 N   0  0  0  0  0  0  0  0  0  0  0  0
   26.6766  -20.5149  -12.6977 C   0  0  2  0  0  0  0  0  0  0  0  0
   25.6261  -21.0267  -11.8388 C   0  0  0  0  0  0  0  0  0  0  0  0
   25.9758  -20.6276  -10.4176 S   0  0  0  0  0  0  0  0  0  0  0  0
   24.7185  -21.0797   -9.2225 C   0  0  0  0  0  0  0  0  0  0  0  0
   24.2937  -20.5000  -12.2403 O   0  0  0  0  0  0  0  0  0  0  0  0
   24.1970  -19.3366  -12.7433 C   0  0  0  0  0  0  0  0  0  0  0  0
   18.3740  -20.8652  -16.7839 S   0  0  0  0  0  0  0  0  0  0  0  0
   19.9726  -21.2383  -16.0648 C   0  0  0  0  0  0  0  0  0  0  0  0
   20.1181  -20.6643  -14.3402 C   0  0  0  0  0  0  0  0  0  0  0  0
   21.4745  -21.0511  -13.8647 C   0  0  1  0  0  0  0  0  0  0  0  0
   21.7873  -20.6855  -12.4449 N   0  0  0  0  0  0  0  0  0  0  0  0
   23.1066  -21.2346  -12.0911 C   0  0  0  0  0  0  0  0  0  0  0  0
   20.8093  -21.1359  -11.4529 O   0  0  0  0  0  0  0  0  0  0  0  0
   20.9252  -22.3328  -10.7593 O   0  0  0  0  0  0  0  0  0  0  0  0
  2  1  1  0
  3  2  2  0
  4  2  1  0
  5  4  1  0
  6  5  1  0
  7  6  1  0
  8  7  1  0
  8  9  1  6
 10  8  1  0
 10 11  2  0
 12 10  1  0
 13 12  1  0
 13 14  1  1
 15 14  1  0
 16 13  1  0
 17 16  2  0
 19 18  1  0
 20 21  1  0
 20 19  1  0
 22 21  1  6
 22 23  1  0
 22 24  1  0
 23 16  1  0
 24 26  2  0
 24 25  1  0
M  END
$$$$
