RCM.pdb
     RDKit          3D

 26 25  0  0  1  0  0  0  0  0999 V2000
   17.5541  -23.0379  -10.1547 N   0  0  0  0  0  0  0  0  0  0  0  0
   18.6162  -23.9347   -9.8753 C   0  0  0  0  0  0  0  0  0  0  0  0
   19.3944  -24.4163  -10.8101 N   0  0  0  0  0  0  0  0  0  0  0  0
   18.9205  -24.3805   -8.5604 N   0  0  0  0  0  0  0  0  0  0  0  0
   18.1200  -23.9703   -7.4255 C   0  0  0  0  0  0  0  0  0  0  0  0
   17.2996  -25.1770   -7.0246 C   0  0  0  0  0  0  0  0  0  0  0  0
   17.9022  -25.8295   -5.8415 C   0  0  0  0  0  0  0  0  0  0  0  0
   17.1432  -27.0832   -5.4819 C   0  0  2  0  0  0  0  0  0  0  0  0
   15.7993  -27.0649   -6.0162 N   0  0  0  0  0  0  0  0  0  0  0  0
   17.0254  -27.1288   -3.9879 C   0  0  0  0  0  0  0  0  0  0  0  0
   16.0105  -26.5717   -3.4433 O   0  0  0  0  0  0  0  0  0  0  0  0
   20.1022  -25.1340  -10.4858 N   0  0  0  0  0  0  0  0  0  0  0  0
   17.9926  -27.7632   -3.1776 C   0  0  2  0  0  0  0  0  0  0  0  0
   17.6903  -27.9729   -1.7748 C   0  0  0  0  0  0  0  0  0  0  0  0
   18.3951  -29.2477   -1.3509 S   0  0  0  0  0  0  0  0  0  0  0  0
   18.1164  -30.6199   -2.4703 C   0  0  0  0  0  0  0  0  0  0  0  0
   18.1202  -26.8125   -0.9488 O   0  0  0  0  0  0  0  0  0  0  0  0
   19.2315  -26.2425   -1.1855 C   0  0  0  0  0  0  0  0  0  0  0  0
   15.1763  -21.0292    3.5719 S   0  0  0  0  0  0  0  0  0  0  0  0
   15.1093  -22.3794    2.3953 C   0  0  0  0  0  0  0  0  0  0  0  0
   16.7160  -23.2184    2.1969 C   0  0  0  0  0  0  0  0  0  0  0  0
   16.5152  -24.3185    1.2146 C   0  0  1  0  0  0  0  0  0  0  0  0
   17.7446  -25.1022    0.8656 N   0  0  0  0  0  0  0  0  0  0  0  0
   17.3474  -26.2979    0.1044 C   0  0  0  0  0  0  0  0  0  0  0  0
   18.5640  -25.5206    2.0044 O   0  0  0  0  0  0  0  0  0  0  0  0
   19.4035  -24.6575    2.6955 O   0  0  0  0  0  0  0  0  0  0  0  0
  2  1  1  0
  3  2  2  0
  4  2  1  0
  5  4  1  0
  6  5  1  0
  7  6  1  0
  8  7  1  0
  8  9  1  6
 10  8  1  0
 10 11  2  0
 12 10  1  0
 13 12  1  0
 13 14  1  6
 15 14  1  0
 16 13  1  0
 17 16  2  0
 19 18  1  0
 20 21  1  0
 20 19  1  0
 22 21  1  6
 22 23  1  0
 22 24  1  0
 23 16  1  0
 24 26  2  0
 24 25  1  0
M  END
$$$$
