RCM.pdb
     RDKit          3D

 26 25  0  0  1  0  0  0  0  0999 V2000
   27.5239  -18.5315  -19.3979 N   0  0  0  0  0  0  0  0  0  0  0  0
   28.8816  -18.4735  -18.9936 C   0  0  0  0  0  0  0  0  0  0  0  0
   29.8682  -18.4051  -19.8500 N   0  0  0  0  0  0  0  0  0  0  0  0
   29.2787  -18.4839  -17.6288 N   0  0  0  0  0  0  0  0  0  0  0  0
   28.3342  -18.7923  -16.5754 C   0  0  0  0  0  0  0  0  0  0  0  0
   27.5595  -17.5193  -16.3118 C   0  0  0  0  0  0  0  0  0  0  0  0
   26.1778  -17.8438  -15.8947 C   0  0  0  0  0  0  0  0  0  0  0  0
   25.5922  -18.9141  -16.7827 C   0  0  2  0  0  0  0  0  0  0  0  0
   24.5693  -18.3822  -17.6559 N   0  0  0  0  0  0  0  0  0  0  0  0
   24.9344  -19.9287  -15.8963 C   0  0  0  0  0  0  0  0  0  0  0  0
   23.6669  -19.8611  -15.7354 O   0  0  0  0  0  0  0  0  0  0  0  0
   30.8380  -18.4001  -19.4250 N   0  0  0  0  0  0  0  0  0  0  0  0
   25.6681  -20.9438  -15.2438 C   0  0  2  0  0  0  0  0  0  0  0  0
   24.9588  -21.8562  -14.3676 C   0  0  0  0  0  0  0  0  0  0  0  0
   25.8599  -23.0567  -14.1475 S   0  0  0  0  0  0  0  0  0  0  0  0
   26.0543  -24.0769  -15.6087 C   0  0  0  0  0  0  0  0  0  0  0  0
   24.5994  -21.2018  -13.0807 O   0  0  0  0  0  0  0  0  0  0  0  0
   25.0501  -20.0443  -12.8102 C   0  0  0  0  0  0  0  0  0  0  0  0
   26.2256  -19.0700   -7.6584 S   0  0  0  0  0  0  0  0  0  0  0  0
   26.8419  -20.0431   -9.0314 C   0  0  0  0  0  0  0  0  0  0  0  0
   25.5914  -21.1921   -9.6953 C   0  0  0  0  0  0  0  0  0  0  0  0
   24.5378  -20.3636  -10.3427 C   0  0  2  0  0  0  0  0  0  0  0  0
   23.3640  -21.1230  -10.8839 N   0  0  0  0  0  0  0  0  0  0  0  0
   23.7689  -21.8061  -12.1234 C   0  0  0  0  0  0  0  0  0  0  0  0
   22.1715  -20.3192  -11.1581 O   0  0  0  0  0  0  0  0  0  0  0  0
   21.1224  -20.1833  -10.2591 O   0  0  0  0  0  0  0  0  0  0  0  0
  2  1  1  0
  3  2  2  0
  4  2  1  0
  5  4  1  0
  6  5  1  0
  7  6  1  0
  8  7  1  0
  8  9  1  6
 10  8  1  0
 10 11  2  0
 12 10  1  0
 13 12  1  0
 13 14  1  6
 15 14  1  0
 16 13  1  0
 17 16  2  0
 19 18  1  0
 20 21  1  0
 20 19  1  0
 22 21  1  1
 22 23  1  0
 22 24  1  0
 23 16  1  0
 24 26  2  0
 24 25  1  0
M  END
$$$$
