RCM.pdb
     RDKit          3D

 26 25  0  0  1  0  0  0  0  0999 V2000
   19.6133  -30.8154   -7.6949 N   0  0  0  0  0  0  0  0  0  0  0  0
   19.2724  -31.8574   -6.7958 C   0  0  0  0  0  0  0  0  0  0  0  0
   19.9707  -32.9595   -6.6991 N   0  0  0  0  0  0  0  0  0  0  0  0
   18.1481  -31.7880   -5.9289 N   0  0  0  0  0  0  0  0  0  0  0  0
   17.4435  -30.5414   -5.7132 C   0  0  0  0  0  0  0  0  0  0  0  0
   18.3773  -29.6569   -4.9158 C   0  0  0  0  0  0  0  0  0  0  0  0
   18.2046  -28.2439   -5.3187 C   0  0  0  0  0  0  0  0  0  0  0  0
   17.7618  -27.4067   -4.1440 C   0  0  2  0  0  0  0  0  0  0  0  0
   17.5254  -26.0323   -4.5272 N   0  0  0  0  0  0  0  0  0  0  0  0
   18.8790  -27.4019   -3.1441 C   0  0  0  0  0  0  0  0  0  0  0  0
   20.0747  -27.2488   -3.5729 O   0  0  0  0  0  0  0  0  0  0  0  0
   19.5692  -33.6954   -6.0523 N   0  0  0  0  0  0  0  0  0  0  0  0
   18.6483  -27.5592   -1.7597 C   0  0  1  0  0  0  0  0  0  0  0  0
   19.7860  -27.5309   -0.8608 C   0  0  0  0  0  0  0  0  0  0  0  0
   20.4428  -26.1718   -1.0129 S   0  0  0  0  0  0  0  0  0  0  0  0
   21.2516  -25.6019    0.4819 C   0  0  0  0  0  0  0  0  0  0  0  0
   19.3711  -27.7808    0.5460 O   0  0  0  0  0  0  0  0  0  0  0  0
   18.2975  -27.2662    0.9915 C   0  0  0  0  0  0  0  0  0  0  0  0
   18.6277  -25.7233    7.2816 S   0  0  0  0  0  0  0  0  0  0  0  0
   19.1470  -25.8182    5.5690 C   0  0  0  0  0  0  0  0  0  0  0  0
   19.0147  -27.5042    4.8874 C   0  0  0  0  0  0  0  0  0  0  0  0
   19.5779  -27.4634    3.5102 C   0  0  1  0  0  0  0  0  0  0  0  0
   19.7125  -28.7927    2.8303 N   0  0  0  0  0  0  0  0  0  0  0  0
   20.1176  -28.5738    1.4320 C   0  0  0  0  0  0  0  0  0  0  0  0
   18.5104  -29.6281    2.8461 O   0  0  0  0  0  0  0  0  0  0  0  0
   18.5359  -30.9932    3.0973 O   0  0  0  0  0  0  0  0  0  0  0  0
  2  1  1  0
  3  2  2  0
  4  2  1  0
  5  4  1  0
  6  5  1  0
  7  6  1  0
  8  7  1  0
  8  9  1  6
 10  8  1  0
 10 11  2  0
 12 10  1  0
 13 12  1  0
 13 14  1  1
 15 14  1  0
 16 13  1  0
 17 16  2  0
 19 18  1  0
 20 21  1  0
 20 19  1  0
 22 21  1  1
 22 23  1  0
 22 24  1  0
 23 16  1  0
 24 26  2  0
 24 25  1  0
M  END
$$$$
