RCM.pdb
     RDKit          3D

 26 25  0  0  1  0  0  0  0  0999 V2000
   27.8083  -19.2712  -19.3485 N   0  0  0  0  0  0  0  0  0  0  0  0
   29.0090  -19.9634  -19.0494 C   0  0  0  0  0  0  0  0  0  0  0  0
   30.1476  -19.6791  -19.6276 N   0  0  0  0  0  0  0  0  0  0  0  0
   29.0721  -21.0184  -18.0990 N   0  0  0  0  0  0  0  0  0  0  0  0
   27.9148  -21.3879  -17.3109 C   0  0  0  0  0  0  0  0  0  0  0  0
   27.8103  -20.3638  -16.2016 C   0  0  0  0  0  0  0  0  0  0  0  0
   26.6065  -20.6249  -15.3823 C   0  0  0  0  0  0  0  0  0  0  0  0
   26.6653  -22.0058  -14.7766 C   0  0  2  0  0  0  0  0  0  0  0  0
   26.4312  -23.0333  -15.7672 N   0  0  0  0  0  0  0  0  0  0  0  0
   25.5620  -22.1049  -13.7663 C   0  0  0  0  0  0  0  0  0  0  0  0
   24.4653  -22.6609  -14.1199 O   0  0  0  0  0  0  0  0  0  0  0  0
   30.9654  -20.2883  -19.3428 N   0  0  0  0  0  0  0  0  0  0  0  0
   25.7008  -21.6076  -12.4518 C   0  0  2  0  0  0  0  0  0  0  0  0
   24.5225  -21.5410  -11.6089 C   0  0  0  0  0  0  0  0  0  0  0  0
   25.0033  -21.4869  -10.1710 S   0  0  0  0  0  0  0  0  0  0  0  0
   25.8477  -19.9597   -9.7609 C   0  0  0  0  0  0  0  0  0  0  0  0
   23.6812  -20.3612  -11.9466 O   0  0  0  0  0  0  0  0  0  0  0  0
   24.1735  -19.4037  -12.6224 C   0  0  0  0  0  0  0  0  0  0  0  0
   22.7912  -19.2429  -16.9161 S   0  0  0  0  0  0  0  0  0  0  0  0
   21.6106  -20.5412  -16.5522 C   0  0  0  0  0  0  0  0  0  0  0  0
   20.7324  -20.2706  -14.9773 C   0  0  0  0  0  0  0  0  0  0  0  0
   21.7465  -20.3598  -13.8914 C   0  0  1  0  0  0  0  0  0  0  0  0
   21.2456  -20.0398  -12.5151 N   0  0  0  0  0  0  0  0  0  0  0  0
   22.3393  -20.2430  -11.5509 C   0  0  0  0  0  0  0  0  0  0  0  0
   20.0827  -20.8137  -12.0769 O   0  0  0  0  0  0  0  0  0  0  0  0
   20.1819  -22.0595  -11.4725 O   0  0  0  0  0  0  0  0  0  0  0  0
  2  1  1  0
  3  2  2  0
  4  2  1  0
  5  4  1  0
  6  5  1  0
  7  6  1  0
  8  7  1  0
  8  9  1  6
 10  8  1  0
 10 11  2  0
 12 10  1  0
 13 12  1  0
 13 14  1  1
 15 14  1  0
 16 13  1  0
 17 16  2  0
 19 18  1  0
 20 21  1  0
 20 19  1  0
 22 21  1  6
 22 23  1  0
 22 24  1  0
 23 16  1  0
 24 26  2  0
 24 25  1  0
M  END
$$$$
