RCM.pdb
     RDKit          3D

 26 25  0  0  1  0  0  0  0  0999 V2000
   27.5575  -26.6087  -16.0448 N   0  0  0  0  0  0  0  0  0  0  0  0
   26.6598  -27.0311  -17.0577 C   0  0  0  0  0  0  0  0  0  0  0  0
   26.3111  -28.2826  -17.2114 N   0  0  0  0  0  0  0  0  0  0  0  0
   26.0673  -26.1308  -17.9844 N   0  0  0  0  0  0  0  0  0  0  0  0
   26.2736  -24.7015  -17.8779 C   0  0  0  0  0  0  0  0  0  0  0  0
   25.1643  -24.1759  -16.9927 C   0  0  0  0  0  0  0  0  0  0  0  0
   25.1140  -22.6992  -17.0659 C   0  0  0  0  0  0  0  0  0  0  0  0
   26.3029  -22.0915  -16.3628 C   0  0  2  0  0  0  0  0  0  0  0  0
   26.7183  -22.8897  -15.2305 N   0  0  0  0  0  0  0  0  0  0  0  0
   25.8806  -20.7547  -15.8314 C   0  0  0  0  0  0  0  0  0  0  0  0
   24.7201  -20.6524  -15.3026 O   0  0  0  0  0  0  0  0  0  0  0  0
   25.6661  -28.4766  -18.0284 N   0  0  0  0  0  0  0  0  0  0  0  0
   26.7202  -19.6210  -15.8980 C   0  0  1  0  0  0  0  0  0  0  0  0
   26.2256  -18.3617  -15.3757 C   0  0  0  0  0  0  0  0  0  0  0  0
   27.4345  -17.4949  -15.0781 S   0  0  0  0  0  0  0  0  0  0  0  0
   27.0068  -15.8451  -14.5226 C   0  0  0  0  0  0  0  0  0  0  0  0
   25.3049  -17.7001  -16.3392 O   0  0  0  0  0  0  0  0  0  0  0  0
   25.5192  -17.7950  -17.5886 C   0  0  0  0  0  0  0  0  0  0  0  0
   18.9458  -18.3927  -16.4842 S   0  0  0  0  0  0  0  0  0  0  0  0
   19.1691  -16.6149  -16.5198 C   0  0  0  0  0  0  0  0  0  0  0  0
   20.7482  -16.1206  -17.2859 C   0  0  0  0  0  0  0  0  0  0  0  0
   21.8365  -16.6028  -16.3923 C   0  0  2  0  0  0  0  0  0  0  0  0
   23.2303  -16.3799  -16.8973 N   0  0  0  0  0  0  0  0  0  0  0  0
   24.1835  -16.9578  -15.9358 C   0  0  0  0  0  0  0  0  0  0  0  0
   23.5930  -14.9819  -17.1364 O   0  0  0  0  0  0  0  0  0  0  0  0
   23.0222  -14.2085  -18.1380 O   0  0  0  0  0  0  0  0  0  0  0  0
  2  1  1  0
  3  2  2  0
  4  2  1  0
  5  4  1  0
  6  5  1  0
  7  6  1  0
  8  7  1  0
  8  9  1  1
 10  8  1  0
 10 11  2  0
 12 10  1  0
 13 12  1  0
 13 14  1  6
 15 14  1  0
 16 13  1  0
 17 16  2  0
 19 18  1  0
 20 21  1  0
 20 19  1  0
 22 21  1  6
 22 23  1  0
 22 24  1  0
 23 16  1  0
 24 26  2  0
 24 25  1  0
M  END
$$$$
