RCM.pdb
     RDKit          3D

 26 25  0  0  1  0  0  0  0  0999 V2000
   13.4513  -12.0530  -13.4721 N   0  0  0  0  0  0  0  0  0  0  0  0
   13.7592  -12.9489  -14.5270 C   0  0  0  0  0  0  0  0  0  0  0  0
   13.8719  -14.2393  -14.3435 N   0  0  0  0  0  0  0  0  0  0  0  0
   13.9687  -12.5183  -15.8653 N   0  0  0  0  0  0  0  0  0  0  0  0
   14.9061  -11.4586  -16.1739 C   0  0  0  0  0  0  0  0  0  0  0  0
   16.1288  -11.7089  -15.3179 C   0  0  0  0  0  0  0  0  0  0  0  0
   17.1652  -10.6929  -15.6050 C   0  0  0  0  0  0  0  0  0  0  0  0
   18.2944  -11.2968  -16.4033 C   0  0  2  0  0  0  0  0  0  0  0  0
   18.6140  -12.6324  -15.9494 N   0  0  0  0  0  0  0  0  0  0  0  0
   19.5112  -10.4499  -16.1794 C   0  0  0  0  0  0  0  0  0  0  0  0
   20.0321  -10.4352  -15.0109 O   0  0  0  0  0  0  0  0  0  0  0  0
   14.1007  -14.8024  -15.2106 N   0  0  0  0  0  0  0  0  0  0  0  0
   20.0896   -9.6790  -17.2118 C   0  0  2  0  0  0  0  0  0  0  0  0
   21.1974   -8.8025  -16.8835 C   0  0  0  0  0  0  0  0  0  0  0  0
   21.7948   -8.3261  -18.1941 S   0  0  0  0  0  0  0  0  0  0  0  0
   23.0986   -7.1143  -17.9821 C   0  0  0  0  0  0  0  0  0  0  0  0
   20.7526   -7.6600  -16.0405 O   0  0  0  0  0  0  0  0  0  0  0  0
   19.6744   -7.0475  -16.3201 C   0  0  0  0  0  0  0  0  0  0  0  0
   19.6997   -5.1764   -8.8217 S   0  0  0  0  0  0  0  0  0  0  0  0
   20.3381   -6.2756  -10.0850 C   0  0  0  0  0  0  0  0  0  0  0  0
   20.4446   -5.4781  -11.7214 C   0  0  0  0  0  0  0  0  0  0  0  0
   20.8008   -6.5400  -12.7017 C   0  0  1  0  0  0  0  0  0  0  0  0
   21.0340   -6.0680  -14.1054 N   0  0  0  0  0  0  0  0  0  0  0  0
   21.4753   -7.2088  -14.9245 C   0  0  0  0  0  0  0  0  0  0  0  0
   22.0068   -4.9832  -14.2472 O   0  0  0  0  0  0  0  0  0  0  0  0
   23.1828   -5.1063  -14.9745 O   0  0  0  0  0  0  0  0  0  0  0  0
  2  1  1  0
  3  2  2  0
  4  2  1  0
  5  4  1  0
  6  5  1  0
  7  6  1  0
  8  7  1  0
  8  9  1  1
 10  8  1  0
 10 11  2  0
 12 10  1  0
 13 12  1  0
 13 14  1  1
 15 14  1  0
 16 13  1  0
 17 16  2  0
 19 18  1  0
 20 21  1  0
 20 19  1  0
 22 21  1  6
 22 23  1  0
 22 24  1  0
 23 16  1  0
 24 26  2  0
 24 25  1  0
M  END
$$$$
