RCM.pdb
     RDKit          3D

 26 25  0  0  1  0  0  0  0  0999 V2000
   15.7423  -23.5991  -14.7167 N   0  0  0  0  0  0  0  0  0  0  0  0
   16.4051  -23.8975  -13.4994 C   0  0  0  0  0  0  0  0  0  0  0  0
   15.7786  -24.3807  -12.4575 N   0  0  0  0  0  0  0  0  0  0  0  0
   17.8000  -23.6972  -13.3141 N   0  0  0  0  0  0  0  0  0  0  0  0
   18.5024  -22.6330  -14.0004 C   0  0  0  0  0  0  0  0  0  0  0  0
   18.9799  -21.6773  -12.9286 C   0  0  0  0  0  0  0  0  0  0  0  0
   20.4439  -21.8005  -12.7552 C   0  0  0  0  0  0  0  0  0  0  0  0
   21.1717  -20.9211  -13.7422 C   0  0  2  0  0  0  0  0  0  0  0  0
   21.2692  -21.5461  -15.0428 N   0  0  0  0  0  0  0  0  0  0  0  0
   22.5701  -20.7321  -13.2356 C   0  0  0  0  0  0  0  0  0  0  0  0
   22.7288  -20.2395  -12.0655 O   0  0  0  0  0  0  0  0  0  0  0  0
   16.3841  -24.5618  -11.6079 N   0  0  0  0  0  0  0  0  0  0  0  0
   23.7012  -21.0799  -14.0064 C   0  0  1  0  0  0  0  0  0  0  0  0
   25.0185  -20.8055  -13.4652 C   0  0  0  0  0  0  0  0  0  0  0  0
   25.1723  -21.6484  -12.2132 S   0  0  0  0  0  0  0  0  0  0  0  0
   26.8511  -22.2141  -11.9391 C   0  0  0  0  0  0  0  0  0  0  0  0
   26.0851  -21.1055  -14.4582 O   0  0  0  0  0  0  0  0  0  0  0  0
   26.0213  -22.1656  -15.1567 C   0  0  0  0  0  0  0  0  0  0  0  0
   30.8996  -23.9362  -14.8804 S   0  0  0  0  0  0  0  0  0  0  0  0
   30.2636  -23.8113  -16.5512 C   0  0  0  0  0  0  0  0  0  0  0  0
   29.5581  -22.1693  -16.9133 C   0  0  0  0  0  0  0  0  0  0  0  0
   28.7636  -21.7636  -15.7219 C   0  0  1  0  0  0  0  0  0  0  0  0
   28.0959  -20.4248  -15.8190 N   0  0  0  0  0  0  0  0  0  0  0  0
   27.1866  -20.2617  -14.6729 C   0  0  0  0  0  0  0  0  0  0  0  0
   27.3443  -20.1886  -17.0528 O   0  0  0  0  0  0  0  0  0  0  0  0
   27.8912  -20.3468  -18.3189 O   0  0  0  0  0  0  0  0  0  0  0  0
  2  1  1  0
  3  2  2  0
  4  2  1  0
  5  4  1  0
  6  5  1  0
  7  6  1  0
  8  7  1  0
  8  9  1  6
 10  8  1  0
 10 11  2  0
 12 10  1  0
 13 12  1  0
 13 14  1  1
 15 14  1  0
 16 13  1  0
 17 16  2  0
 19 18  1  0
 20 21  1  0
 20 19  1  0
 22 21  1  1
 22 23  1  0
 22 24  1  0
 23 16  1  0
 24 26  2  0
 24 25  1  0
M  END
$$$$
