RCM.pdb
     RDKit          3D

 26 25  0  0  1  0  0  0  0  0999 V2000
   21.5383  -17.5423  -20.2587 N   0  0  0  0  0  0  0  0  0  0  0  0
   21.7014  -18.9507  -20.2458 C   0  0  0  0  0  0  0  0  0  0  0  0
   21.5685  -19.6840  -21.3210 N   0  0  0  0  0  0  0  0  0  0  0  0
   22.0225  -19.6769  -19.0669 N   0  0  0  0  0  0  0  0  0  0  0  0
   21.9925  -19.0440  -17.7648 C   0  0  0  0  0  0  0  0  0  0  0  0
   23.4185  -18.6451  -17.4523 C   0  0  0  0  0  0  0  0  0  0  0  0
   24.1049  -19.7399  -16.7319 C   0  0  0  0  0  0  0  0  0  0  0  0
   23.6358  -19.8093  -15.2993 C   0  0  2  0  0  0  0  0  0  0  0  0
   23.4364  -18.4910  -14.7388 N   0  0  0  0  0  0  0  0  0  0  0  0
   24.7174  -20.4717  -14.4998 C   0  0  0  0  0  0  0  0  0  0  0  0
   24.7766  -21.7497  -14.5032 O   0  0  0  0  0  0  0  0  0  0  0  0
   21.6498  -20.7289  -21.1703 N   0  0  0  0  0  0  0  0  0  0  0  0
   25.6602  -19.7307  -13.7537 C   0  0  1  0  0  0  0  0  0  0  0  0
   26.6368  -20.4525  -12.9609 C   0  0  0  0  0  0  0  0  0  0  0  0
   27.9933  -19.8407  -13.2561 S   0  0  0  0  0  0  0  0  0  0  0  0
   28.3183  -19.6444  -15.0080 C   0  0  0  0  0  0  0  0  0  0  0  0
   26.3130  -20.3852  -11.5102 O   0  0  0  0  0  0  0  0  0  0  0  0
   25.9882  -19.2747  -10.9838 C   0  0  0  0  0  0  0  0  0  0  0  0
   29.1035  -18.7534   -6.9456 S   0  0  0  0  0  0  0  0  0  0  0  0
   28.0142  -19.9445   -6.1670 C   0  0  0  0  0  0  0  0  0  0  0  0
   26.4839  -20.2236   -7.1183 C   0  0  0  0  0  0  0  0  0  0  0  0
   26.8910  -20.5732   -8.5066 C   0  0  1  0  0  0  0  0  0  0  0  0
   25.9341  -21.4505   -9.2563 N   0  0  0  0  0  0  0  0  0  0  0  0
   26.3467  -21.5082  -10.6682 C   0  0  0  0  0  0  0  0  0  0  0  0
   24.5297  -21.0416   -9.1934 O   0  0  0  0  0  0  0  0  0  0  0  0
   23.7861  -20.6993  -10.3145 O   0  0  0  0  0  0  0  0  0  0  0  0
  2  1  1  0
  3  2  2  0
  4  2  1  0
  5  4  1  0
  6  5  1  0
  7  6  1  0
  8  7  1  0
  8  9  1  1
 10  8  1  0
 10 11  2  0
 12 10  1  0
 13 12  1  0
 13 14  1  1
 15 14  1  0
 16 13  1  0
 17 16  2  0
 19 18  1  0
 20 21  1  0
 20 19  1  0
 22 21  1  1
 22 23  1  0
 22 24  1  0
 23 16  1  0
 24 26  2  0
 24 25  1  0
M  END
$$$$
