LQA.pdb
     RDKit          3D

 23 22  0  0  1  0  0  0  0  0999 V2000
   13.0236  -12.1731  -15.7528 C   0  0  0  0  0  0  0  0  0  0  0  0
   14.2815  -12.7676  -15.1569 C   0  0  2  0  0  0  0  0  0  0  0  0
   13.8789  -13.8237  -14.1820 C   0  0  0  0  0  0  0  0  0  0  0  0
   15.1775  -11.7007  -14.5761 C   0  0  0  0  0  0  0  0  0  0  0  0
   15.5612  -10.6953  -15.6271 C   0  0  2  0  0  0  0  0  0  0  0  0
   16.3850  -11.3784  -16.6026 N   0  0  0  0  0  0  0  0  0  0  0  0
   16.3219   -9.5945  -15.0484 C   0  0  0  0  0  0  0  0  0  0  0  0
   16.0102   -9.1399  -13.9214 O   0  0  0  0  0  0  0  0  0  0  0  0
   21.5797   -8.5959  -13.7220 N   0  0  0  0  0  0  0  0  0  0  0  0
   21.4339   -7.2172  -13.9932 C   0  0  0  0  0  0  0  0  0  0  0  0
   22.2423   -6.4337  -13.4126 O   0  0  0  0  0  0  0  0  0  0  0  0
   20.3739   -6.7283  -14.9206 C   0  0  0  0  0  0  0  0  0  0  0  0
   19.5985   -7.9362  -15.3876 C   0  0  0  0  0  0  0  0  0  0  0  0
   18.1316   -7.8316  -15.1278 C   0  0  2  0  0  0  0  0  0  0  0  0
   17.4385   -8.9691  -15.6912 N   0  0  0  0  0  0  0  0  0  0  0  0
   17.5062   -6.5969  -15.5799 C   0  0  0  0  0  0  0  0  0  0  0  0
   17.2604   -6.4737  -16.8041 O   0  0  0  0  0  0  0  0  0  0  0  0
   15.4398   -3.7956  -14.2997 C   0  0  0  0  0  0  0  0  0  0  0  0
   16.5302   -4.2985  -15.1917 C   0  0  2  0  0  0  0  0  0  0  0  0
   17.1477   -5.5094  -14.7420 N   0  0  0  0  0  0  0  0  0  0  0  0
   17.5734   -3.2648  -15.3265 C   0  0  0  0  0  0  0  0  0  0  0  0
   17.2911   -1.9924  -15.8065 O   0  0  0  0  0  0  0  0  0  0  0  0
   18.7654   -3.5085  -15.0063 O   0  0  0  0  0  0  0  0  0  0  0  0
  2  1  1  1
  3  2  1  0
  4  2  1  0
  5  4  1  0
  5  6  1  6
  7  5  1  0
  8  7  2  0
  9 10  1  0
 10 12  1  0
 11 10  2  0
 12 13  1  0
 14 13  1  6
 14 16  1  0
 14 15  1  0
 15  7  1  0
 16 17  2  0
 19 18  1  1
 20 19  1  0
 20 16  1  0
 21 19  1  0
 22 21  1  0
 23 21  2  0
M  END
$$$$
