LQA.pdb
     RDKit          3D

 23 22  0  0  1  0  0  0  0  0999 V2000
   27.3072  -20.7459   -6.6595 C   0  0  0  0  0  0  0  0  0  0  0  0
   28.2843  -19.8832   -7.4290 C   0  0  2  0  0  0  0  0  0  0  0  0
   28.3637  -18.5553   -6.7520 C   0  0  0  0  0  0  0  0  0  0  0  0
   27.9243  -19.8090   -8.8931 C   0  0  0  0  0  0  0  0  0  0  0  0
   27.6878  -21.1840   -9.4551 C   0  0  2  0  0  0  0  0  0  0  0  0
   28.9027  -21.5942  -10.1278 N   0  0  0  0  0  0  0  0  0  0  0  0
   26.5906  -21.1777  -10.4151 C   0  0  0  0  0  0  0  0  0  0  0  0
   26.8307  -21.2623  -11.6436 O   0  0  0  0  0  0  0  0  0  0  0  0
   20.6123  -21.9887   -8.8218 N   0  0  0  0  0  0  0  0  0  0  0  0
   20.4937  -22.0843  -10.2263 C   0  0  0  0  0  0  0  0  0  0  0  0
   19.3369  -22.3184  -10.6858 O   0  0  0  0  0  0  0  0  0  0  0  0
   21.6844  -21.9147  -11.1073 C   0  0  0  0  0  0  0  0  0  0  0  0
   22.8652  -21.6300  -10.2110 C   0  0  0  0  0  0  0  0  0  0  0  0
   24.1326  -21.3911  -10.9639 C   0  0  2  0  0  0  0  0  0  0  0  0
   25.2093  -21.0788  -10.0502 N   0  0  0  0  0  0  0  0  0  0  0  0
   24.0559  -20.3755  -12.0045 C   0  0  0  0  0  0  0  0  0  0  0  0
   23.9487  -19.1761  -11.6521 O   0  0  0  0  0  0  0  0  0  0  0  0
   24.8841  -19.8633  -15.5978 C   0  0  0  0  0  0  0  0  0  0  0  0
   23.9930  -19.6319  -14.4189 C   0  0  2  0  0  0  0  0  0  0  0  0
   24.0929  -20.6322  -13.3996 N   0  0  0  0  0  0  0  0  0  0  0  0
   22.5899  -19.5612  -14.8674 C   0  0  0  0  0  0  0  0  0  0  0  0
   22.1196  -18.5155  -15.6514 O   0  0  0  0  0  0  0  0  0  0  0  0
   21.7670  -20.4578  -14.5489 O   0  0  0  0  0  0  0  0  0  0  0  0
  2  1  1  1
  3  2  1  0
  4  2  1  0
  5  4  1  0
  5  6  1  6
  7  5  1  0
  8  7  2  0
  9 10  1  0
 10 12  1  0
 11 10  2  0
 12 13  1  0
 14 13  1  1
 14 16  1  0
 14 15  1  0
 15  7  1  0
 16 17  2  0
 19 18  1  6
 20 19  1  0
 20 16  1  0
 21 19  1  0
 22 21  1  0
 23 21  2  0
M  END
$$$$
