LQA.pdb
     RDKit          3D

 23 22  0  0  1  0  0  0  0  0999 V2000
   27.0336  -12.2746  -15.5915 C   0  0  0  0  0  0  0  0  0  0  0  0
   27.0177  -11.5861  -16.9393 C   0  0  2  0  0  0  0  0  0  0  0  0
   28.3710  -11.0040  -17.1790 C   0  0  0  0  0  0  0  0  0  0  0  0
   25.8900  -10.5875  -17.0382 C   0  0  0  0  0  0  0  0  0  0  0  0
   24.5637  -11.2539  -16.7941 C   0  0  2  0  0  0  0  0  0  0  0  0
   24.3562  -12.2132  -17.8588 N   0  0  0  0  0  0  0  0  0  0  0  0
   23.4768  -10.2825  -16.8096 C   0  0  0  0  0  0  0  0  0  0  0  0
   23.0150   -9.8742  -17.9023 O   0  0  0  0  0  0  0  0  0  0  0  0
   18.4136  -10.1332  -13.6546 N   0  0  0  0  0  0  0  0  0  0  0  0
   18.6694  -10.7544  -14.8974 C   0  0  0  0  0  0  0  0  0  0  0  0
   17.8464  -11.6417  -15.2710 O   0  0  0  0  0  0  0  0  0  0  0  0
   19.8559  -10.3700  -15.7142 C   0  0  0  0  0  0  0  0  0  0  0  0
   20.6001   -9.3050  -14.9458 C   0  0  0  0  0  0  0  0  0  0  0  0
   21.7930   -8.7781  -15.6735 C   0  0  2  0  0  0  0  0  0  0  0  0
   22.8734   -9.7386  -15.6301 N   0  0  0  0  0  0  0  0  0  0  0  0
   22.2692   -7.4765  -15.2272 C   0  0  0  0  0  0  0  0  0  0  0  0
   23.0551   -7.4389  -14.2499 O   0  0  0  0  0  0  0  0  0  0  0  0
   22.0266   -3.8279  -16.3126 C   0  0  0  0  0  0  0  0  0  0  0  0
   22.5078   -4.9735  -15.4798 C   0  0  2  0  0  0  0  0  0  0  0  0
   21.9145   -6.2334  -15.8121 N   0  0  0  0  0  0  0  0  0  0  0  0
   22.2431   -4.6939  -14.0563 C   0  0  0  0  0  0  0  0  0  0  0  0
   23.1187   -3.9482  -13.2774 O   0  0  0  0  0  0  0  0  0  0  0  0
   21.2027   -5.1283  -13.4982 O   0  0  0  0  0  0  0  0  0  0  0  0
  2  1  1  1
  3  2  1  0
  4  2  1  0
  5  4  1  0
  5  6  1  6
  7  5  1  0
  8  7  2  0
  9 10  1  0
 10 12  1  0
 11 10  2  0
 12 13  1  0
 14 13  1  1
 14 16  1  0
 14 15  1  0
 15  7  1  0
 16 17  2  0
 19 18  1  6
 20 19  1  0
 20 16  1  0
 21 19  1  0
 22 21  1  0
 23 21  2  0
M  END
$$$$
