LQA.pdb
     RDKit          3D

 23 22  0  0  1  0  0  0  0  0999 V2000
   26.9895  -32.1742   -8.8121 C   0  0  0  0  0  0  0  0  0  0  0  0
   25.5994  -32.6953   -8.5168 C   0  0  2  0  0  0  0  0  0  0  0  0
   24.6487  -31.5469   -8.5871 C   0  0  0  0  0  0  0  0  0  0  0  0
   25.5571  -33.4527   -7.2118 C   0  0  0  0  0  0  0  0  0  0  0  0
   26.5794  -34.5560   -7.2012 C   0  0  2  0  0  0  0  0  0  0  0  0
   26.1164  -35.5871   -8.1065 N   0  0  0  0  0  0  0  0  0  0  0  0
   26.7256  -35.1243   -5.8667 C   0  0  0  0  0  0  0  0  0  0  0  0
   25.8158  -35.8427   -5.3870 O   0  0  0  0  0  0  0  0  0  0  0  0
   29.7845  -38.3660   -3.5157 N   0  0  0  0  0  0  0  0  0  0  0  0
   29.7907  -37.8022   -2.2204 C   0  0  0  0  0  0  0  0  0  0  0  0
   29.9049  -38.6072   -1.2492 O   0  0  0  0  0  0  0  0  0  0  0  0
   29.6676  -36.3290   -2.0273 C   0  0  0  0  0  0  0  0  0  0  0  0
   29.4490  -35.7175   -3.3899 C   0  0  0  0  0  0  0  0  0  0  0  0
   28.0065  -35.5243   -3.7247 C   0  0  2  0  0  0  0  0  0  0  0  0
   27.8700  -34.9180   -5.0306 N   0  0  0  0  0  0  0  0  0  0  0  0
   27.2362  -34.7706   -2.7457 C   0  0  0  0  0  0  0  0  0  0  0  0
   27.4355  -33.5346   -2.6626 O   0  0  0  0  0  0  0  0  0  0  0  0
   24.0393  -34.9230   -0.9079 C   0  0  0  0  0  0  0  0  0  0  0  0
   25.4936  -34.5733   -0.9262 C   0  0  2  0  0  0  0  0  0  0  0  0
   26.2680  -35.3235   -1.8680 N   0  0  0  0  0  0  0  0  0  0  0  0
   26.0669  -34.7773    0.4171 C   0  0  0  0  0  0  0  0  0  0  0  0
   27.1321  -35.6405    0.6394 O   0  0  0  0  0  0  0  0  0  0  0  0
   25.6018  -34.1673    1.4142 O   0  0  0  0  0  0  0  0  0  0  0  0
  2  1  1  1
  3  2  1  0
  4  2  1  0
  5  4  1  0
  5  6  1  6
  7  5  1  0
  8  7  2  0
  9 10  1  0
 10 12  1  0
 11 10  2  0
 12 13  1  0
 14 13  1  1
 14 16  1  0
 14 15  1  0
 15  7  1  0
 16 17  2  0
 19 18  1  1
 20 19  1  0
 20 16  1  0
 21 19  1  0
 22 21  1  0
 23 21  2  0
M  END
$$$$
