LQA.pdb
     RDKit          3D

 23 22  0  0  1  0  0  0  0  0999 V2000
   17.0365  -14.1820  -13.2153 C   0  0  0  0  0  0  0  0  0  0  0  0
   16.8055  -13.5764  -14.5831 C   0  0  2  0  0  0  0  0  0  0  0  0
   17.7572  -14.2144  -15.5397 C   0  0  0  0  0  0  0  0  0  0  0  0
   16.8878  -12.0697  -14.5431 C   0  0  0  0  0  0  0  0  0  0  0  0
   15.8892  -11.5060  -13.5696 C   0  0  2  0  0  0  0  0  0  0  0  0
   14.5746  -11.6586  -14.1573 N   0  0  0  0  0  0  0  0  0  0  0  0
   16.1385  -10.0914  -13.3209 C   0  0  0  0  0  0  0  0  0  0  0  0
   15.7597   -9.2314  -14.1521 O   0  0  0  0  0  0  0  0  0  0  0  0
   15.6693   -7.0923   -8.1643 N   0  0  0  0  0  0  0  0  0  0  0  0
   16.2960   -6.0640   -8.9029 C   0  0  0  0  0  0  0  0  0  0  0  0
   16.3831   -4.9316   -8.3422 O   0  0  0  0  0  0  0  0  0  0  0  0
   16.8226   -6.3196  -10.2741 C   0  0  0  0  0  0  0  0  0  0  0  0
   16.5829   -7.7784  -10.5789 C   0  0  0  0  0  0  0  0  0  0  0  0
   17.0491   -8.1805  -11.9395 C   0  0  2  0  0  0  0  0  0  0  0  0
   16.8072   -9.5895  -12.1581 N   0  0  0  0  0  0  0  0  0  0  0  0
   18.4382   -7.8640  -12.2399 C   0  0  0  0  0  0  0  0  0  0  0  0
   19.3230   -8.2917  -11.4600 O   0  0  0  0  0  0  0  0  0  0  0  0
   20.4835   -6.3621  -15.0645 C   0  0  0  0  0  0  0  0  0  0  0  0
   20.2487   -6.8186  -13.6595 C   0  0  2  0  0  0  0  0  0  0  0  0
   18.8795   -7.1037  -13.3537 N   0  0  0  0  0  0  0  0  0  0  0  0
   20.7325   -5.7905  -12.7195 C   0  0  0  0  0  0  0  0  0  0  0  0
   22.0792   -5.6529  -12.4083 O   0  0  0  0  0  0  0  0  0  0  0  0
   19.9291   -4.9973  -12.1645 O   0  0  0  0  0  0  0  0  0  0  0  0
  2  1  1  1
  3  2  1  0
  4  2  1  0
  5  4  1  0
  5  6  1  6
  7  5  1  0
  8  7  2  0
  9 10  1  0
 10 12  1  0
 11 10  2  0
 12 13  1  0
 14 13  1  1
 14 16  1  0
 14 15  1  0
 15  7  1  0
 16 17  2  0
 19 18  1  6
 20 19  1  0
 20 16  1  0
 21 19  1  0
 22 21  1  0
 23 21  2  0
M  END
$$$$
