LQA.pdb
     RDKit          3D

 23 22  0  0  1  0  0  0  0  0999 V2000
   25.5686  -13.7682  -15.8511 C   0  0  0  0  0  0  0  0  0  0  0  0
   25.0179  -13.5876  -17.2493 C   0  0  2  0  0  0  0  0  0  0  0  0
   26.1234  -13.8407  -18.2198 C   0  0  0  0  0  0  0  0  0  0  0  0
   24.3491  -12.2441  -17.4123 C   0  0  0  0  0  0  0  0  0  0  0  0
   23.2848  -12.0473  -16.3678 C   0  0  2  0  0  0  0  0  0  0  0  0
   22.2621  -13.0471  -16.5947 N   0  0  0  0  0  0  0  0  0  0  0  0
   22.6863  -10.7219  -16.4706 C   0  0  0  0  0  0  0  0  0  0  0  0
   22.9323   -9.9972  -17.4648 O   0  0  0  0  0  0  0  0  0  0  0  0
   17.1001   -9.2397  -14.6355 N   0  0  0  0  0  0  0  0  0  0  0  0
   17.5161  -10.0236  -15.7347 C   0  0  0  0  0  0  0  0  0  0  0  0
   16.6505  -10.7952  -16.2443 O   0  0  0  0  0  0  0  0  0  0  0  0
   18.9105   -9.9325  -16.2544 C   0  0  0  0  0  0  0  0  0  0  0  0
   19.6794   -9.0371  -15.3133 C   0  0  0  0  0  0  0  0  0  0  0  0
   21.1222   -8.9029  -15.6745 C   0  0  2  0  0  0  0  0  0  0  0  0
   21.8069  -10.1631  -15.4880 N   0  0  0  0  0  0  0  0  0  0  0  0
   21.8406   -7.8420  -14.9827 C   0  0  0  0  0  0  0  0  0  0  0  0
   22.3801   -8.1142  -13.8831 O   0  0  0  0  0  0  0  0  0  0  0  0
   22.8476   -4.2103  -15.5416 C   0  0  0  0  0  0  0  0  0  0  0  0
   22.6361   -5.4557  -14.7405 C   0  0  2  0  0  0  0  0  0  0  0  0
   21.9829   -6.5111  -15.4539 N   0  0  0  0  0  0  0  0  0  0  0  0
   21.8393   -5.1408  -13.5402 C   0  0  0  0  0  0  0  0  0  0  0  0
   22.4030   -4.5498  -12.4167 O   0  0  0  0  0  0  0  0  0  0  0  0
   20.6093   -5.4016  -13.4981 O   0  0  0  0  0  0  0  0  0  0  0  0
  2  1  1  1
  3  2  1  0
  4  2  1  0
  5  4  1  0
  5  6  1  6
  7  5  1  0
  8  7  2  0
  9 10  1  0
 10 12  1  0
 11 10  2  0
 12 13  1  0
 14 13  1  1
 14 16  1  0
 14 15  1  0
 15  7  1  0
 16 17  2  0
 19 18  1  6
 20 19  1  0
 20 16  1  0
 21 19  1  0
 22 21  1  0
 23 21  2  0
M  END
$$$$
