LQA.pdb
     RDKit          3D

 23 22  0  0  1  0  0  0  0  0999 V2000
   33.0357  -35.0623   -6.5601 C   0  0  0  0  0  0  0  0  0  0  0  0
   32.3576  -33.7139   -6.4469 C   0  0  2  0  0  0  0  0  0  0  0  0
   33.3402  -32.6650   -6.8497 C   0  0  0  0  0  0  0  0  0  0  0  0
   31.7610  -33.5069   -5.0759 C   0  0  0  0  0  0  0  0  0  0  0  0
   30.6280  -34.4667   -4.8360 C   0  0  2  0  0  0  0  0  0  0  0  0
   29.4806  -33.9782   -5.5721 N   0  0  0  0  0  0  0  0  0  0  0  0
   30.2902  -34.5376   -3.4196 C   0  0  0  0  0  0  0  0  0  0  0  0
   29.6335  -33.6128   -2.8835 O   0  0  0  0  0  0  0  0  0  0  0  0
   26.9722  -37.9917   -0.5099 N   0  0  0  0  0  0  0  0  0  0  0  0
   27.5284  -37.3985    0.6453 C   0  0  0  0  0  0  0  0  0  0  0  0
   26.9464  -37.6369    1.7447 O   0  0  0  0  0  0  0  0  0  0  0  0
   28.7419  -36.5372    0.5536 C   0  0  0  0  0  0  0  0  0  0  0  0
   29.1653  -36.5163   -0.8951 C   0  0  0  0  0  0  0  0  0  0  0  0
   30.3530  -35.6475   -1.1495 C   0  0  2  0  0  0  0  0  0  0  0  0
   30.6642  -35.6217   -2.5617 N   0  0  0  0  0  0  0  0  0  0  0  0
   31.5457  -35.9848   -0.3856 C   0  0  0  0  0  0  0  0  0  0  0  0
   32.2311  -36.9654   -0.7638 O   0  0  0  0  0  0  0  0  0  0  0  0
   33.5485  -34.5932    2.5456 C   0  0  0  0  0  0  0  0  0  0  0  0
   33.2262  -35.5641    1.4542 C   0  0  2  0  0  0  0  0  0  0  0  0
   32.0025  -35.2893    0.7637 N   0  0  0  0  0  0  0  0  0  0  0  0
   33.1510  -36.9269    2.0127 C   0  0  0  0  0  0  0  0  0  0  0  0
   32.0063  -37.7058    1.9017 O   0  0  0  0  0  0  0  0  0  0  0  0
   34.1345  -37.4307    2.6141 O   0  0  0  0  0  0  0  0  0  0  0  0
  2  1  1  1
  3  2  1  0
  4  2  1  0
  5  4  1  0
  5  6  1  6
  7  5  1  0
  8  7  2  0
  9 10  1  0
 10 12  1  0
 11 10  2  0
 12 13  1  0
 14 13  1  6
 14 16  1  0
 14 15  1  0
 15  7  1  0
 16 17  2  0
 19 18  1  1
 20 19  1  0
 20 16  1  0
 21 19  1  0
 22 21  1  0
 23 21  2  0
M  END
$$$$
