LQA.pdb
     RDKit          3D

 23 22  0  0  1  0  0  0  0  0999 V2000
   26.1666  -12.8727  -15.6219 C   0  0  0  0  0  0  0  0  0  0  0  0
   26.5996  -11.8969  -16.6950 C   0  0  2  0  0  0  0  0  0  0  0  0
   28.0219  -11.5248  -16.4371 C   0  0  0  0  0  0  0  0  0  0  0  0
   25.6599  -10.7190  -16.7848 C   0  0  0  0  0  0  0  0  0  0  0  0
   24.2620  -11.1741  -17.1029 C   0  0  2  0  0  0  0  0  0  0  0  0
   24.2831  -11.7487  -18.4319 N   0  0  0  0  0  0  0  0  0  0  0  0
   23.3276  -10.0553  -17.0824 C   0  0  0  0  0  0  0  0  0  0  0  0
   23.3960   -9.1639  -17.9626 O   0  0  0  0  0  0  0  0  0  0  0  0
   17.7300   -9.9379  -14.4490 N   0  0  0  0  0  0  0  0  0  0  0  0
   17.7174   -8.7155  -15.1570 C   0  0  0  0  0  0  0  0  0  0  0  0
   16.5996   -8.1289  -15.2612 O   0  0  0  0  0  0  0  0  0  0  0  0
   18.9695   -8.1598  -15.7454 C   0  0  0  0  0  0  0  0  0  0  0  0
   20.0412   -9.2109  -15.5870 C   0  0  0  0  0  0  0  0  0  0  0  0
   21.3705   -8.7815  -16.1148 C   0  0  2  0  0  0  0  0  0  0  0  0
   22.2999   -9.8895  -16.0988 N   0  0  0  0  0  0  0  0  0  0  0  0
   21.9617   -7.6295  -15.4489 C   0  0  0  0  0  0  0  0  0  0  0  0
   22.6466   -7.8314  -14.4172 O   0  0  0  0  0  0  0  0  0  0  0  0
   22.3349   -3.8824  -16.0459 C   0  0  0  0  0  0  0  0  0  0  0  0
   22.5377   -5.1726  -15.3166 C   0  0  2  0  0  0  0  0  0  0  0  0
   21.8263   -6.2827  -15.8744 N   0  0  0  0  0  0  0  0  0  0  0  0
   22.1258   -5.0138  -13.9095 C   0  0  0  0  0  0  0  0  0  0  0  0
   22.9380   -4.3907  -12.9706 O   0  0  0  0  0  0  0  0  0  0  0  0
   21.0121   -5.4437  -13.5129 O   0  0  0  0  0  0  0  0  0  0  0  0
  2  1  1  1
  3  2  1  0
  4  2  1  0
  5  4  1  0
  5  6  1  6
  7  5  1  0
  8  7  2  0
  9 10  1  0
 10 12  1  0
 11 10  2  0
 12 13  1  0
 14 13  1  1
 14 16  1  0
 14 15  1  0
 15  7  1  0
 16 17  2  0
 19 18  1  6
 20 19  1  0
 20 16  1  0
 21 19  1  0
 22 21  1  0
 23 21  2  0
M  END
$$$$
