LQA.pdb
     RDKit          3D

 23 22  0  0  1  0  0  0  0  0999 V2000
   29.0994  -23.9076  -16.8806 C   0  0  0  0  0  0  0  0  0  0  0  0
   27.9033  -23.9025  -17.8081 C   0  0  2  0  0  0  0  0  0  0  0  0
   28.2648  -23.1207  -19.0271 C   0  0  0  0  0  0  0  0  0  0  0  0
   26.6600  -23.4121  -17.1065 C   0  0  0  0  0  0  0  0  0  0  0  0
   26.4192  -24.1889  -15.8412 C   0  0  2  0  0  0  0  0  0  0  0  0
   25.9610  -25.5089  -16.2214 N   0  0  0  0  0  0  0  0  0  0  0  0
   25.4000  -23.5497  -15.0179 C   0  0  0  0  0  0  0  0  0  0  0  0
   24.1859  -23.7920  -15.2209 O   0  0  0  0  0  0  0  0  0  0  0  0
   26.2318  -20.7765   -9.5120 N   0  0  0  0  0  0  0  0  0  0  0  0
   24.8325  -20.6402   -9.6498 C   0  0  0  0  0  0  0  0  0  0  0  0
   24.1987  -20.2186   -8.6375 O   0  0  0  0  0  0  0  0  0  0  0  0
   24.1538  -20.9814  -10.9327 C   0  0  0  0  0  0  0  0  0  0  0  0
   25.2064  -21.5403  -11.8590 C   0  0  0  0  0  0  0  0  0  0  0  0
   24.6567  -21.9904  -13.1726 C   0  0  2  0  0  0  0  0  0  0  0  0
   25.6886  -22.6328  -13.9563 N   0  0  0  0  0  0  0  0  0  0  0  0
   24.0072  -20.9544  -13.9630 C   0  0  0  0  0  0  0  0  0  0  0  0
   24.7279  -20.2237  -14.6848 O   0  0  0  0  0  0  0  0  0  0  0  0
   22.2322  -19.8670  -16.2684 C   0  0  0  0  0  0  0  0  0  0  0  0
   21.9725  -19.7135  -14.8033 C   0  0  2  0  0  0  0  0  0  0  0  0
   22.6116  -20.6995  -13.9853 N   0  0  0  0  0  0  0  0  0  0  0  0
   20.5205  -19.7681  -14.5514 C   0  0  0  0  0  0  0  0  0  0  0  0
   19.6385  -18.8643  -15.1301 O   0  0  0  0  0  0  0  0  0  0  0  0
   20.0315  -20.6464  -13.7950 O   0  0  0  0  0  0  0  0  0  0  0  0
  2  1  1  1
  3  2  1  0
  4  2  1  0
  5  4  1  0
  5  6  1  6
  7  5  1  0
  8  7  2  0
  9 10  1  0
 10 12  1  0
 11 10  2  0
 12 13  1  0
 14 13  1  1
 14 16  1  0
 14 15  1  0
 15  7  1  0
 16 17  2  0
 19 18  1  6
 20 19  1  0
 20 16  1  0
 21 19  1  0
 22 21  1  0
 23 21  2  0
M  END
$$$$
