LQA.pdb
     RDKit          3D

 23 22  0  0  1  0  0  0  0  0999 V2000
   23.6279  -14.3246  -14.3660 C   0  0  0  0  0  0  0  0  0  0  0  0
   23.9752  -14.1081  -15.8232 C   0  0  2  0  0  0  0  0  0  0  0  0
   25.4448  -14.3129  -15.9852 C   0  0  0  0  0  0  0  0  0  0  0  0
   23.4801  -12.7708  -16.3182 C   0  0  0  0  0  0  0  0  0  0  0  0
   21.9951  -12.6430  -16.1160 C   0  0  2  0  0  0  0  0  0  0  0  0
   21.3498  -13.5430  -17.0490 N   0  0  0  0  0  0  0  0  0  0  0  0
   21.5442  -11.2817  -16.3781 C   0  0  0  0  0  0  0  0  0  0  0  0
   21.5294  -10.8402  -17.5524 O   0  0  0  0  0  0  0  0  0  0  0  0
   16.5360   -8.9149  -14.6342 N   0  0  0  0  0  0  0  0  0  0  0  0
   17.0392   -7.7723  -15.2952 C   0  0  0  0  0  0  0  0  0  0  0  0
   16.2144   -6.8400  -15.5294 O   0  0  0  0  0  0  0  0  0  0  0  0
   18.4745   -7.6876  -15.6898 C   0  0  0  0  0  0  0  0  0  0  0  0
   19.1169   -9.0025  -15.3199 C   0  0  0  0  0  0  0  0  0  0  0  0
   20.5706   -9.0636  -15.6563 C   0  0  2  0  0  0  0  0  0  0  0  0
   21.1006  -10.3763  -15.3609 N   0  0  0  0  0  0  0  0  0  0  0  0
   21.3978   -8.0427  -15.0288 C   0  0  0  0  0  0  0  0  0  0  0  0
   21.8385   -8.2668  -13.8756 O   0  0  0  0  0  0  0  0  0  0  0  0
   22.9306   -4.6639  -15.9140 C   0  0  0  0  0  0  0  0  0  0  0  0
   22.6495   -5.8475  -15.0437 C   0  0  2  0  0  0  0  0  0  0  0  0
   21.7509   -6.8018  -15.6194 N   0  0  0  0  0  0  0  0  0  0  0  0
   22.0865   -5.3925  -13.7589 C   0  0  0  0  0  0  0  0  0  0  0  0
   22.8921   -4.9449  -12.7196 O   0  0  0  0  0  0  0  0  0  0  0  0
   20.8437   -5.3963  -13.5638 O   0  0  0  0  0  0  0  0  0  0  0  0
  2  1  1  1
  3  2  1  0
  4  2  1  0
  5  4  1  0
  5  6  1  6
  7  5  1  0
  8  7  2  0
  9 10  1  0
 10 12  1  0
 11 10  2  0
 12 13  1  0
 14 13  1  1
 14 16  1  0
 14 15  1  0
 15  7  1  0
 16 17  2  0
 19 18  1  6
 20 19  1  0
 20 16  1  0
 21 19  1  0
 22 21  1  0
 23 21  2  0
M  END
$$$$
