LQA.pdb
     RDKit          3D

 23 22  0  0  1  0  0  0  0  0999 V2000
   22.6390  -13.6448  -19.8101 C   0  0  0  0  0  0  0  0  0  0  0  0
   21.1537  -13.5809  -19.5257 C   0  0  2  0  0  0  0  0  0  0  0  0
   20.4366  -14.2490  -20.6514 C   0  0  0  0  0  0  0  0  0  0  0  0
   20.7010  -12.1659  -19.2587 C   0  0  0  0  0  0  0  0  0  0  0  0
   21.4795  -11.5616  -18.1224 C   0  0  2  0  0  0  0  0  0  0  0  0
   21.3440  -12.4454  -16.9833 N   0  0  0  0  0  0  0  0  0  0  0  0
   20.9588  -10.2464  -17.7694 C   0  0  0  0  0  0  0  0  0  0  0  0
   20.8231   -9.3667  -18.6536 O   0  0  0  0  0  0  0  0  0  0  0  0
   16.4665   -9.1361  -13.9898 N   0  0  0  0  0  0  0  0  0  0  0  0
   16.8365   -7.7913  -14.2139 C   0  0  0  0  0  0  0  0  0  0  0  0
   16.0777   -6.9026  -13.7253 O   0  0  0  0  0  0  0  0  0  0  0  0
   18.0641   -7.4554  -14.9903 C   0  0  0  0  0  0  0  0  0  0  0  0
   18.6963   -8.7599  -15.4111 C   0  0  0  0  0  0  0  0  0  0  0  0
   19.9922   -8.5815  -16.1316 C   0  0  2  0  0  0  0  0  0  0  0  0
   20.5762   -9.8676  -16.4423 N   0  0  0  0  0  0  0  0  0  0  0  0
   20.9711   -7.7440  -15.4531 C   0  0  0  0  0  0  0  0  0  0  0  0
   21.6282   -8.2490  -14.5111 O   0  0  0  0  0  0  0  0  0  0  0  0
   22.4665   -4.2536  -15.7385 C   0  0  0  0  0  0  0  0  0  0  0  0
   22.1595   -5.5492  -15.0570 C   0  0  2  0  0  0  0  0  0  0  0  0
   21.2468   -6.3891  -15.7720 N   0  0  0  0  0  0  0  0  0  0  0  0
   21.5981   -5.2822  -13.7197 C   0  0  0  0  0  0  0  0  0  0  0  0
   22.4034   -4.9645  -12.6334 O   0  0  0  0  0  0  0  0  0  0  0  0
   20.3570   -5.3351  -13.5208 O   0  0  0  0  0  0  0  0  0  0  0  0
  2  1  1  6
  3  2  1  0
  4  2  1  0
  5  4  1  0
  5  6  1  1
  7  5  1  0
  8  7  2  0
  9 10  1  0
 10 12  1  0
 11 10  2  0
 12 13  1  0
 14 13  1  1
 14 16  1  0
 14 15  1  0
 15  7  1  0
 16 17  2  0
 19 18  1  6
 20 19  1  0
 20 16  1  0
 21 19  1  0
 22 21  1  0
 23 21  2  0
M  END
$$$$
