LQA.pdb
     RDKit          3D

 23 22  0  0  1  0  0  0  0  0999 V2000
   22.1588  -10.6239  -13.4713 C   0  0  0  0  0  0  0  0  0  0  0  0
   21.8699   -9.5495  -14.4975 C   0  0  2  0  0  0  0  0  0  0  0  0
   23.0714   -8.6697  -14.5989 C   0  0  0  0  0  0  0  0  0  0  0  0
   20.5903   -8.8129  -14.1834 C   0  0  0  0  0  0  0  0  0  0  0  0
   19.4251   -9.7629  -14.1358 C   0  0  2  0  0  0  0  0  0  0  0  0
   19.2184  -10.2656  -15.4781 N   0  0  0  0  0  0  0  0  0  0  0  0
   18.2135   -9.0867  -13.6886 C   0  0  0  0  0  0  0  0  0  0  0  0
   17.4995   -8.4667  -14.5132 O   0  0  0  0  0  0  0  0  0  0  0  0
   12.8839   -9.4371   -8.8014 N   0  0  0  0  0  0  0  0  0  0  0  0
   13.5744   -9.6898  -10.0076 C   0  0  0  0  0  0  0  0  0  0  0  0
   13.4434  -10.8462  -10.5076 O   0  0  0  0  0  0  0  0  0  0  0  0
   14.4116   -8.6336  -10.6450 C   0  0  0  0  0  0  0  0  0  0  0  0
   15.6647   -9.3043  -11.1532 C   0  0  0  0  0  0  0  0  0  0  0  0
   16.5619   -8.3810  -11.9101 C   0  0  2  0  0  0  0  0  0  0  0  0
   17.7590   -9.0752  -12.3305 N   0  0  0  0  0  0  0  0  0  0  0  0
   16.9199   -7.1528  -11.2149 C   0  0  0  0  0  0  0  0  0  0  0  0
   17.7610   -7.2237  -10.2865 O   0  0  0  0  0  0  0  0  0  0  0  0
   16.2854   -3.4115  -11.4445 C   0  0  0  0  0  0  0  0  0  0  0  0
   16.6698   -4.6810  -10.7530 C   0  0  2  0  0  0  0  0  0  0  0  0
   16.3910   -5.8681  -11.5031 N   0  0  0  0  0  0  0  0  0  0  0  0
   15.9670   -4.7704   -9.4596 C   0  0  0  0  0  0  0  0  0  0  0  0
   16.2163   -3.8798   -8.4233 O   0  0  0  0  0  0  0  0  0  0  0  0
   15.1097   -5.6679   -9.2541 O   0  0  0  0  0  0  0  0  0  0  0  0
  2  1  1  1
  3  2  1  0
  4  2  1  0
  5  4  1  0
  5  6  1  6
  7  5  1  0
  8  7  2  0
  9 10  1  0
 10 12  1  0
 11 10  2  0
 12 13  1  0
 14 13  1  1
 14 16  1  0
 14 15  1  0
 15  7  1  0
 16 17  2  0
 19 18  1  6
 20 19  1  0
 20 16  1  0
 21 19  1  0
 22 21  1  0
 23 21  2  0
M  END
$$$$
