LQA.pdb
     RDKit          3D

 23 22  0  0  1  0  0  0  0  0999 V2000
   23.1492  -13.5006  -15.9997 C   0  0  0  0  0  0  0  0  0  0  0  0
   24.1782  -12.4166  -15.7608 C   0  0  2  0  0  0  0  0  0  0  0  0
   25.3715  -13.0429  -15.1191 C   0  0  0  0  0  0  0  0  0  0  0  0
   23.5954  -11.2606  -14.9845 C   0  0  0  0  0  0  0  0  0  0  0  0
   22.3502  -10.7435  -15.6511 C   0  0  2  0  0  0  0  0  0  0  0  0
   22.7043  -10.3693  -17.0045 N   0  0  0  0  0  0  0  0  0  0  0  0
   21.8282   -9.5740  -14.9546 C   0  0  0  0  0  0  0  0  0  0  0  0
   21.4714   -9.6647  -13.7553 O   0  0  0  0  0  0  0  0  0  0  0  0
   22.9235   -3.8706  -15.6145 N   0  0  0  0  0  0  0  0  0  0  0  0
   22.2781   -3.8076  -14.3595 C   0  0  0  0  0  0  0  0  0  0  0  0
   22.0278   -2.6522  -13.9049 O   0  0  0  0  0  0  0  0  0  0  0  0
   21.9175   -5.0521  -13.6220 C   0  0  0  0  0  0  0  0  0  0  0  0
   22.3332   -6.2183  -14.4854 C   0  0  0  0  0  0  0  0  0  0  0  0
   21.2010   -7.1285  -14.8316 C   0  0  2  0  0  0  0  0  0  0  0  0
   21.6863   -8.2821  -15.5564 N   0  0  0  0  0  0  0  0  0  0  0  0
   20.1058   -6.5084  -15.5639 C   0  0  0  0  0  0  0  0  0  0  0  0
   20.2233   -6.3825  -16.8067 O   0  0  0  0  0  0  0  0  0  0  0  0
   16.6564   -6.1846  -15.9705 C   0  0  0  0  0  0  0  0  0  0  0  0
   17.8649   -5.3476  -15.6942 C   0  0  2  0  0  0  0  0  0  0  0  0
   18.9034   -6.0292  -14.9825 N   0  0  0  0  0  0  0  0  0  0  0  0
   17.4728   -4.1557  -14.9193 C   0  0  0  0  0  0  0  0  0  0  0  0
   16.8841   -3.0493  -15.5182 O   0  0  0  0  0  0  0  0  0  0  0  0
   17.6624   -4.1054  -13.6767 O   0  0  0  0  0  0  0  0  0  0  0  0
  2  1  1  1
  3  2  1  0
  4  2  1  0
  5  4  1  0
  5  6  1  6
  7  5  1  0
  8  7  2  0
  9 10  1  0
 10 12  1  0
 11 10  2  0
 12 13  1  0
 14 13  1  6
 14 16  1  0
 14 15  1  0
 15  7  1  0
 16 17  2  0
 19 18  1  1
 20 19  1  0
 20 16  1  0
 21 19  1  0
 22 21  1  0
 23 21  2  0
M  END
$$$$
