SLQ.pdb
     RDKit          3D

 24 23  0  0  1  0  0  0  0  0999 V2000
   24.9627  -19.3811  -15.9232 O   0  0  0  0  0  0  0  0  0  0  0  0
   26.3354  -19.3808  -15.6791 C   0  0  0  0  0  0  0  0  0  0  0  0
   26.7583  -20.6714  -15.0049 C   0  0  2  0  0  0  0  0  0  0  0  0
   27.0415  -21.7085  -15.9585 N   0  0  0  0  0  0  0  0  0  0  0  0
   25.7173  -21.1488  -14.0739 C   0  0  0  0  0  0  0  0  0  0  0  0
   25.1661  -22.2484  -14.2460 O   0  0  0  0  0  0  0  0  0  0  0  0
   26.2463  -21.9605   -9.7416 C   0  0  0  0  0  0  0  0  0  0  0  0
   26.0018  -20.4967   -9.9696 C   0  0  2  0  0  0  0  0  0  0  0  0
   26.1132  -19.8225   -8.5922 C   0  0  0  0  0  0  0  0  0  0  0  0
   24.6616  -20.2798  -10.5671 C   0  0  0  0  0  0  0  0  0  0  0  0
   24.4217  -20.7658  -11.9523 C   0  0  2  0  0  0  0  0  0  0  0  0
   25.3402  -20.3317  -12.9589 N   0  0  0  0  0  0  0  0  0  0  0  0
   23.0088  -20.6139  -12.3509 C   0  0  0  0  0  0  0  0  0  0  0  0
   22.1147  -20.9746  -11.5554 O   0  0  0  0  0  0  0  0  0  0  0  0
   21.1493  -17.7297  -17.4395 N   0  0  0  0  0  0  0  0  0  0  0  0
   21.5090  -19.0956  -17.6162 C   0  0  0  0  0  0  0  0  0  0  0  0
   21.7921  -19.5580  -18.7382 O   0  0  0  0  0  0  0  0  0  0  0  0
   21.5326  -19.9548  -16.3914 C   0  0  0  0  0  0  0  0  0  0  0  0
   21.1749  -19.0941  -15.2182 C   0  0  0  0  0  0  0  0  0  0  0  0
   21.1950  -19.8803  -13.9558 C   0  0  2  0  0  0  0  0  0  0  0  0
   22.6190  -20.0763  -13.5983 N   0  0  0  0  0  0  0  0  0  0  0  0
   20.6258  -21.2305  -14.1726 C   0  0  0  0  0  0  0  0  0  0  0  0
   21.2834  -22.2673  -14.4112 O   0  0  0  0  0  0  0  0  0  0  0  0
   19.2299  -21.4297  -14.1181 O   0  0  0  0  0  0  0  0  0  0  0  0
  2  1  1  0
  3  4  1  6
  3  2  1  0
  5  3  1  0
  6  5  2  0
  8  7  1  1
  8 10  1  0
  9  8  1  0
 11 10  1  1
 11 12  1  0
 12  5  1  0
 13 11  1  0
 14 13  2  0
 16 15  1  0
 16 18  1  0
 17 16  2  0
 20 19  1  6
 19 18  1  0
 20 21  1  0
 21 13  1  0
 22 24  1  0
 22 20  1  0
 23 22  2  0
M  END
$$$$
