SLQ.pdb
     RDKit          3D

 24 23  0  0  1  0  0  0  0  0999 V2000
   28.0904  -19.1305  -17.4672 O   0  0  0  0  0  0  0  0  0  0  0  0
   27.0678  -19.7634  -16.7618 C   0  0  0  0  0  0  0  0  0  0  0  0
   27.6203  -20.9017  -15.9263 C   0  0  2  0  0  0  0  0  0  0  0  0
   27.9684  -22.0400  -16.7313 N   0  0  0  0  0  0  0  0  0  0  0  0
   26.6503  -21.3226  -14.8965 C   0  0  0  0  0  0  0  0  0  0  0  0
   25.7845  -22.1763  -15.1496 O   0  0  0  0  0  0  0  0  0  0  0  0
   23.9559  -20.3983  -10.1176 C   0  0  0  0  0  0  0  0  0  0  0  0
   25.2378  -21.1793  -10.0812 C   0  0  2  0  0  0  0  0  0  0  0  0
   25.8587  -20.9222   -8.6983 C   0  0  0  0  0  0  0  0  0  0  0  0
   26.1462  -20.7395  -11.1682 C   0  0  0  0  0  0  0  0  0  0  0  0
   25.7384  -21.0002  -12.5747 C   0  0  2  0  0  0  0  0  0  0  0  0
   26.7107  -20.7375  -13.5899 N   0  0  0  0  0  0  0  0  0  0  0  0
   24.4127  -20.4266  -12.8778 C   0  0  0  0  0  0  0  0  0  0  0  0
   24.2931  -19.1842  -12.9445 O   0  0  0  0  0  0  0  0  0  0  0  0
   20.5630  -22.8701  -16.6320 N   0  0  0  0  0  0  0  0  0  0  0  0
   19.6535  -21.8670  -16.1928 C   0  0  0  0  0  0  0  0  0  0  0  0
   18.5347  -21.7209  -16.7218 O   0  0  0  0  0  0  0  0  0  0  0  0
   20.1013  -20.9927  -15.0642 C   0  0  0  0  0  0  0  0  0  0  0  0
   21.4408  -21.4829  -14.6053 C   0  0  0  0  0  0  0  0  0  0  0  0
   21.9699  -20.6336  -13.5049 C   0  0  2  0  0  0  0  0  0  0  0  0
   23.2662  -21.2229  -13.0971 N   0  0  0  0  0  0  0  0  0  0  0  0
   21.0843  -20.7037  -12.3195 C   0  0  0  0  0  0  0  0  0  0  0  0
   20.2610  -19.8278  -11.9739 O   0  0  0  0  0  0  0  0  0  0  0  0
   21.1254  -21.8281  -11.4680 O   0  0  0  0  0  0  0  0  0  0  0  0
  2  1  1  0
  3  4  1  6
  3  2  1  0
  5  3  1  0
  6  5  2  0
  8  7  1  1
  8 10  1  0
  9  8  1  0
 11 10  1  1
 11 12  1  0
 12  5  1  0
 13 11  1  0
 14 13  2  0
 16 15  1  0
 16 18  1  0
 17 16  2  0
 20 19  1  6
 19 18  1  0
 20 21  1  0
 21 13  1  0
 22 24  1  0
 22 20  1  0
 23 22  2  0
M  END
$$$$
