SLQ.pdb
     RDKit          3D

 24 23  0  0  1  0  0  0  0  0999 V2000
   23.7132  -34.6080  -16.3938 O   0  0  0  0  0  0  0  0  0  0  0  0
   24.2987  -35.2582  -15.3083 C   0  0  0  0  0  0  0  0  0  0  0  0
   25.3532  -34.3792  -14.6645 C   0  0  2  0  0  0  0  0  0  0  0  0
   26.6100  -34.4515  -15.3576 N   0  0  0  0  0  0  0  0  0  0  0  0
   25.5638  -34.7521  -13.2521 C   0  0  0  0  0  0  0  0  0  0  0  0
   26.0632  -35.8488  -12.9515 O   0  0  0  0  0  0  0  0  0  0  0  0
   25.1357  -31.9918   -7.6409 C   0  0  0  0  0  0  0  0  0  0  0  0
   25.4917  -33.2084   -8.4456 C   0  0  2  0  0  0  0  0  0  0  0  0
   26.9741  -33.4965   -8.1564 C   0  0  0  0  0  0  0  0  0  0  0  0
   25.2642  -32.9617   -9.8904 C   0  0  0  0  0  0  0  0  0  0  0  0
   25.3762  -34.1119  -10.8269 C   0  0  2  0  0  0  0  0  0  0  0  0
   25.1864  -33.8357  -12.2171 N   0  0  0  0  0  0  0  0  0  0  0  0
   24.6069  -35.2803  -10.3565 C   0  0  0  0  0  0  0  0  0  0  0  0
   23.3736  -35.3118  -10.5567 O   0  0  0  0  0  0  0  0  0  0  0  0
   25.6940  -40.6024  -11.7777 N   0  0  0  0  0  0  0  0  0  0  0  0
   24.7335  -41.0146  -10.8113 C   0  0  0  0  0  0  0  0  0  0  0  0
   24.3059  -42.1844  -10.7711 O   0  0  0  0  0  0  0  0  0  0  0  0
   24.2583  -39.9781   -9.8425 C   0  0  0  0  0  0  0  0  0  0  0  0
   24.9089  -38.6775  -10.2035 C   0  0  0  0  0  0  0  0  0  0  0  0
   24.4346  -37.5812   -9.3173 C   0  0  2  0  0  0  0  0  0  0  0  0
   25.2051  -36.3712   -9.6863 N   0  0  0  0  0  0  0  0  0  0  0  0
   24.7631  -37.8742   -7.9029 C   0  0  0  0  0  0  0  0  0  0  0  0
   25.7379  -37.4100   -7.2714 O   0  0  0  0  0  0  0  0  0  0  0  0
   23.9457  -38.7433   -7.1495 O   0  0  0  0  0  0  0  0  0  0  0  0
  2  1  1  0
  3  4  1  6
  3  2  1  0
  5  3  1  0
  6  5  2  0
  8  7  1  1
  8 10  1  0
  9  8  1  0
 11 10  1  1
 11 12  1  0
 12  5  1  0
 13 11  1  0
 14 13  2  0
 16 15  1  0
 16 18  1  0
 17 16  2  0
 20 19  1  6
 19 18  1  0
 20 21  1  0
 21 13  1  0
 22 24  1  0
 22 20  1  0
 23 22  2  0
M  END
$$$$
