SLQ.pdb
     RDKit          3D

 24 23  0  0  1  0  0  0  0  0999 V2000
   26.6490  -18.9311  -17.0990 O   0  0  0  0  0  0  0  0  0  0  0  0
   27.4401  -18.7333  -15.9680 C   0  0  0  0  0  0  0  0  0  0  0  0
   27.7856  -20.0594  -15.3193 C   0  0  2  0  0  0  0  0  0  0  0  0
   28.2766  -21.0138  -16.2748 N   0  0  0  0  0  0  0  0  0  0  0  0
   26.6139  -20.6330  -14.6289 C   0  0  0  0  0  0  0  0  0  0  0  0
   26.0286  -21.6271  -15.0888 O   0  0  0  0  0  0  0  0  0  0  0  0
   26.1249  -22.0490  -10.2458 C   0  0  0  0  0  0  0  0  0  0  0  0
   26.0489  -20.5553  -10.3786 C   0  0  2  0  0  0  0  0  0  0  0  0
   25.8619  -20.0060   -8.9547 C   0  0  0  0  0  0  0  0  0  0  0  0
   24.9181  -20.1677  -11.2567 C   0  0  0  0  0  0  0  0  0  0  0  0
   25.0015  -20.5071  -12.7025 C   0  0  2  0  0  0  0  0  0  0  0  0
   26.1483  -20.0334  -13.4136 N   0  0  0  0  0  0  0  0  0  0  0  0
   23.7312  -20.2384  -13.4042 C   0  0  0  0  0  0  0  0  0  0  0  0
   23.5344  -19.1006  -13.8827 O   0  0  0  0  0  0  0  0  0  0  0  0
   20.4440  -24.3042  -16.3470 N   0  0  0  0  0  0  0  0  0  0  0  0
   19.5309  -23.2276  -16.5296 C   0  0  0  0  0  0  0  0  0  0  0  0
   18.5303  -23.3355  -17.2645 O   0  0  0  0  0  0  0  0  0  0  0  0
   19.8262  -21.9563  -15.7979 C   0  0  0  0  0  0  0  0  0  0  0  0
   21.0917  -22.1555  -15.0208 C   0  0  0  0  0  0  0  0  0  0  0  0
   21.4541  -20.9241  -14.2694 C   0  0  2  0  0  0  0  0  0  0  0  0
   22.7217  -21.2149  -13.5604 N   0  0  0  0  0  0  0  0  0  0  0  0
   20.4447  -20.6339  -13.2249 C   0  0  0  0  0  0  0  0  0  0  0  0
   20.4847  -21.0389  -12.0422 O   0  0  0  0  0  0  0  0  0  0  0  0
   19.3190  -19.8386  -13.5270 O   0  0  0  0  0  0  0  0  0  0  0  0
  2  1  1  0
  3  4  1  6
  3  2  1  0
  5  3  1  0
  6  5  2  0
  8  7  1  1
  8 10  1  0
  9  8  1  0
 11 10  1  1
 11 12  1  0
 12  5  1  0
 13 11  1  0
 14 13  2  0
 16 15  1  0
 16 18  1  0
 17 16  2  0
 20 19  1  1
 19 18  1  0
 20 21  1  0
 21 13  1  0
 22 24  1  0
 22 20  1  0
 23 22  2  0
M  END
$$$$
