SLQ.pdb
     RDKit          3D

 24 23  0  0  1  0  0  0  0  0999 V2000
   22.7313   -8.4177  -20.4923 O   0  0  0  0  0  0  0  0  0  0  0  0
   21.6159   -9.1358  -20.9216 C   0  0  0  0  0  0  0  0  0  0  0  0
   21.4596  -10.4114  -20.1171 C   0  0  2  0  0  0  0  0  0  0  0  0
   20.2919  -11.1530  -20.5063 N   0  0  0  0  0  0  0  0  0  0  0  0
   21.3821  -10.1205  -18.6722 C   0  0  0  0  0  0  0  0  0  0  0  0
   20.3189   -9.7379  -18.1567 O   0  0  0  0  0  0  0  0  0  0  0  0
   21.7664  -12.3283  -14.7297 C   0  0  0  0  0  0  0  0  0  0  0  0
   23.0764  -12.1570  -15.4433 C   0  0  2  0  0  0  0  0  0  0  0  0
   24.1242  -12.9071  -14.6044 C   0  0  0  0  0  0  0  0  0  0  0  0
   23.4172  -10.7188  -15.5677 C   0  0  0  0  0  0  0  0  0  0  0  0
   22.6017   -9.8793  -16.4857 C   0  0  2  0  0  0  0  0  0  0  0  0
   22.5492  -10.2825  -17.8567 N   0  0  0  0  0  0  0  0  0  0  0  0
   22.8862   -8.4413  -16.3137 C   0  0  0  0  0  0  0  0  0  0  0  0
   23.9047   -7.9583  -16.8538 O   0  0  0  0  0  0  0  0  0  0  0  0
   19.7910   -4.0775  -17.8189 N   0  0  0  0  0  0  0  0  0  0  0  0
   20.6554   -3.2399  -17.0588 C   0  0  0  0  0  0  0  0  0  0  0  0
   20.6050   -1.9977  -17.1444 O   0  0  0  0  0  0  0  0  0  0  0  0
   21.6306   -3.9188  -16.1495 C   0  0  0  0  0  0  0  0  0  0  0  0
   21.4345   -5.3980  -16.2857 C   0  0  0  0  0  0  0  0  0  0  0  0
   22.3639   -6.1423  -15.3943 C   0  0  2  0  0  0  0  0  0  0  0  0
   22.0546   -7.5811  -15.5618 N   0  0  0  0  0  0  0  0  0  0  0  0
   22.0974   -5.8171  -13.9739 C   0  0  0  0  0  0  0  0  0  0  0  0
   21.3453   -6.4606  -13.2092 O   0  0  0  0  0  0  0  0  0  0  0  0
   22.7141   -4.6989  -13.3738 O   0  0  0  0  0  0  0  0  0  0  0  0
  2  1  1  0
  3  4  1  6
  3  2  1  0
  5  3  1  0
  6  5  2  0
  8  7  1  1
  8 10  1  0
  9  8  1  0
 11 10  1  1
 11 12  1  0
 12  5  1  0
 13 11  1  0
 14 13  2  0
 16 15  1  0
 16 18  1  0
 17 16  2  0
 20 19  1  6
 19 18  1  0
 20 21  1  0
 21 13  1  0
 22 24  1  0
 22 20  1  0
 23 22  2  0
M  END
$$$$
