SLQ.pdb
     RDKit          3D

 24 23  0  0  1  0  0  0  0  0999 V2000
   19.2131  -10.1780  -21.2676 O   0  0  0  0  0  0  0  0  0  0  0  0
   19.8714   -9.7647  -20.1101 C   0  0  0  0  0  0  0  0  0  0  0  0
   20.7037  -10.8949  -19.5366 C   0  0  2  0  0  0  0  0  0  0  0  0
   19.9095  -12.0595  -19.2573 N   0  0  0  0  0  0  0  0  0  0  0  0
   21.3874  -10.4740  -18.2981 C   0  0  0  0  0  0  0  0  0  0  0  0
   20.7594  -10.3583  -17.2329 O   0  0  0  0  0  0  0  0  0  0  0  0
   27.0673  -10.0009  -15.8709 C   0  0  0  0  0  0  0  0  0  0  0  0
   25.6535   -9.4950  -15.8714 C   0  0  2  0  0  0  0  0  0  0  0  0
   25.0547   -9.8909  -14.5117 C   0  0  0  0  0  0  0  0  0  0  0  0
   24.8868  -10.0939  -16.9910 C   0  0  0  0  0  0  0  0  0  0  0  0
   23.4956   -9.6216  -17.2231 C   0  0  2  0  0  0  0  0  0  0  0  0
   22.7928  -10.1960  -18.3282 N   0  0  0  0  0  0  0  0  0  0  0  0
   23.3999   -8.1496  -17.1758 C   0  0  0  0  0  0  0  0  0  0  0  0
   23.9835   -7.4779  -18.0536 O   0  0  0  0  0  0  0  0  0  0  0  0
   18.6380   -5.0755  -16.9014 N   0  0  0  0  0  0  0  0  0  0  0  0
   19.4461   -3.9366  -16.6248 C   0  0  0  0  0  0  0  0  0  0  0  0
   18.9688   -2.7858  -16.6004 O   0  0  0  0  0  0  0  0  0  0  0  0
   20.8987   -4.1829  -16.3639 C   0  0  0  0  0  0  0  0  0  0  0  0
   21.1319   -5.6621  -16.4172 C   0  0  0  0  0  0  0  0  0  0  0  0
   22.5624   -5.9844  -16.1685 C   0  0  2  0  0  0  0  0  0  0  0  0
   22.6743   -7.4614  -16.1774 N   0  0  0  0  0  0  0  0  0  0  0  0
   22.9703   -5.5396  -14.8158 C   0  0  0  0  0  0  0  0  0  0  0  0
   22.8146   -6.1896  -13.7586 O   0  0  0  0  0  0  0  0  0  0  0  0
   23.5925   -4.2856  -14.6384 O   0  0  0  0  0  0  0  0  0  0  0  0
  2  1  1  0
  3  4  1  1
  3  2  1  0
  5  3  1  0
  6  5  2  0
  8  7  1  1
  8 10  1  0
  9  8  1  0
 11 10  1  6
 11 12  1  0
 12  5  1  0
 13 11  1  0
 14 13  2  0
 16 15  1  0
 16 18  1  0
 17 16  2  0
 20 19  1  1
 19 18  1  0
 20 21  1  0
 21 13  1  0
 22 24  1  0
 22 20  1  0
 23 22  2  0
M  END
$$$$
