SLQ.pdb
     RDKit          3D

 24 23  0  0  1  0  0  0  0  0999 V2000
   19.5177  -11.5667  -21.1586 O   0  0  0  0  0  0  0  0  0  0  0  0
   19.8895  -10.9266  -19.9771 C   0  0  0  0  0  0  0  0  0  0  0  0
   20.5436  -11.9058  -19.0220 C   0  0  2  0  0  0  0  0  0  0  0  0
   19.5923  -12.8225  -18.4566 N   0  0  0  0  0  0  0  0  0  0  0  0
   21.2341  -11.1971  -17.9270 C   0  0  0  0  0  0  0  0  0  0  0  0
   20.6097  -10.8142  -16.9240 O   0  0  0  0  0  0  0  0  0  0  0  0
   27.0977   -9.8890  -16.1888 C   0  0  0  0  0  0  0  0  0  0  0  0
   25.6251   -9.7085  -15.9578 C   0  0  2  0  0  0  0  0  0  0  0  0
   25.3381  -10.2687  -14.5549 C   0  0  0  0  0  0  0  0  0  0  0  0
   24.8438  -10.4274  -16.9935 C   0  0  0  0  0  0  0  0  0  0  0  0
   23.3725  -10.2138  -17.0396 C   0  0  2  0  0  0  0  0  0  0  0  0
   22.6421  -10.9492  -18.0249 N   0  0  0  0  0  0  0  0  0  0  0  0
   23.0241   -8.7800  -17.0086 C   0  0  0  0  0  0  0  0  0  0  0  0
   23.2870   -8.0728  -18.0051 O   0  0  0  0  0  0  0  0  0  0  0  0
   18.3030   -6.2837  -17.0851 N   0  0  0  0  0  0  0  0  0  0  0  0
   18.7886   -5.1318  -16.4042 C   0  0  0  0  0  0  0  0  0  0  0  0
   18.1979   -4.0364  -16.4677 O   0  0  0  0  0  0  0  0  0  0  0  0
   20.0436   -5.2945  -15.6060 C   0  0  0  0  0  0  0  0  0  0  0  0
   20.5300   -6.6993  -15.7938 C   0  0  0  0  0  0  0  0  0  0  0  0
   22.0125   -6.7383  -15.9076 C   0  0  2  0  0  0  0  0  0  0  0  0
   22.4034   -8.1670  -15.8969 N   0  0  0  0  0  0  0  0  0  0  0  0
   22.6437   -6.1204  -14.7185 C   0  0  0  0  0  0  0  0  0  0  0  0
   23.0523   -4.9407  -14.6424 O   0  0  0  0  0  0  0  0  0  0  0  0
   22.8280   -6.8744  -13.5401 O   0  0  0  0  0  0  0  0  0  0  0  0
  2  1  1  0
  3  4  1  1
  3  2  1  0
  5  3  1  0
  6  5  2  0
  8  7  1  6
  8 10  1  0
  9  8  1  0
 11 10  1  6
 11 12  1  0
 12  5  1  0
 13 11  1  0
 14 13  2  0
 16 15  1  0
 16 18  1  0
 17 16  2  0
 20 19  1  1
 19 18  1  0
 20 21  1  0
 21 13  1  0
 22 24  1  0
 22 20  1  0
 23 22  2  0
M  END
$$$$
