SLQ.pdb
     RDKit          3D

 24 23  0  0  1  0  0  0  0  0999 V2000
   16.8746  -10.6907  -18.6583 O   0  0  0  0  0  0  0  0  0  0  0  0
   18.0221  -11.4700  -18.7993 C   0  0  0  0  0  0  0  0  0  0  0  0
   18.5314  -11.9210  -17.4442 C   0  0  2  0  0  0  0  0  0  0  0  0
   17.5049  -12.5635  -16.6705 N   0  0  0  0  0  0  0  0  0  0  0  0
   19.0688  -10.7823  -16.6742 C   0  0  0  0  0  0  0  0  0  0  0  0
   18.3212  -10.0762  -15.9778 O   0  0  0  0  0  0  0  0  0  0  0  0
   22.2074  -10.2068  -13.3551 C   0  0  0  0  0  0  0  0  0  0  0  0
   22.8157  -10.5103  -14.6938 C   0  0  2  0  0  0  0  0  0  0  0  0
   24.3351  -10.5834  -14.4690 C   0  0  0  0  0  0  0  0  0  0  0  0
   22.4681   -9.4537  -15.6751 C   0  0  0  0  0  0  0  0  0  0  0  0
   21.0514   -9.3394  -16.1137 C   0  0  2  0  0  0  0  0  0  0  0  0
   20.4704  -10.4903  -16.7328 N   0  0  0  0  0  0  0  0  0  0  0  0
   20.8070   -8.0915  -16.8628 C   0  0  0  0  0  0  0  0  0  0  0  0
   21.0758   -8.0569  -18.0830 O   0  0  0  0  0  0  0  0  0  0  0  0
   15.8565   -5.5816  -17.2803 N   0  0  0  0  0  0  0  0  0  0  0  0
   16.4933   -4.4164  -17.7933 C   0  0  0  0  0  0  0  0  0  0  0  0
   15.8457   -3.5057  -18.3448 O   0  0  0  0  0  0  0  0  0  0  0  0
   17.9793   -4.3328  -17.6406 C   0  0  0  0  0  0  0  0  0  0  0  0
   18.4414   -5.5759  -16.9433 C   0  0  0  0  0  0  0  0  0  0  0  0
   19.9167   -5.7303  -17.0527 C   0  0  2  0  0  0  0  0  0  0  0  0
   20.2800   -6.9273  -16.2595 N   0  0  0  0  0  0  0  0  0  0  0  0
   20.6097   -4.5823  -16.4235 C   0  0  0  0  0  0  0  0  0  0  0  0
   21.1001   -4.5705  -15.2729 O   0  0  0  0  0  0  0  0  0  0  0  0
   20.7620   -3.3707  -17.1305 O   0  0  0  0  0  0  0  0  0  0  0  0
  2  1  1  0
  3  4  1  1
  3  2  1  0
  5  3  1  0
  6  5  2  0
  8  7  1  1
  8 10  1  0
  9  8  1  0
 11 10  1  6
 11 12  1  0
 12  5  1  0
 13 11  1  0
 14 13  2  0
 16 15  1  0
 16 18  1  0
 17 16  2  0
 20 19  1  1
 19 18  1  0
 20 21  1  0
 21 13  1  0
 22 24  1  0
 22 20  1  0
 23 22  2  0
M  END
$$$$
