SLQ.pdb
     RDKit          3D

 24 23  0  0  1  0  0  0  0  0999 V2000
   26.3406  -18.9344  -16.4104 O   0  0  0  0  0  0  0  0  0  0  0  0
   27.4338  -18.9519  -15.5451 C   0  0  0  0  0  0  0  0  0  0  0  0
   27.6552  -20.3462  -14.9923 C   0  0  2  0  0  0  0  0  0  0  0  0
   28.0900  -21.2648  -16.0083 N   0  0  0  0  0  0  0  0  0  0  0  0
   26.4248  -20.8705  -14.3682 C   0  0  0  0  0  0  0  0  0  0  0  0
   25.7489  -21.7464  -14.9327 O   0  0  0  0  0  0  0  0  0  0  0  0
   26.3710  -22.1022  -10.1293 C   0  0  0  0  0  0  0  0  0  0  0  0
   25.9248  -20.6690  -10.1676 C   0  0  2  0  0  0  0  0  0  0  0  0
   25.6686  -20.2594   -8.7078 C   0  0  0  0  0  0  0  0  0  0  0  0
   24.6975  -20.5277  -10.9885 C   0  0  0  0  0  0  0  0  0  0  0  0
   24.7981  -20.7721  -12.4523 C   0  0  2  0  0  0  0  0  0  0  0  0
   26.0073  -20.3610  -13.0957 N   0  0  0  0  0  0  0  0  0  0  0  0
   23.5827  -20.3359  -13.1670 C   0  0  0  0  0  0  0  0  0  0  0  0
   23.4753  -19.1357  -13.4992 O   0  0  0  0  0  0  0  0  0  0  0  0
   20.9843  -23.0432  -17.6041 N   0  0  0  0  0  0  0  0  0  0  0  0
   20.4458  -23.6617  -16.4405 C   0  0  0  0  0  0  0  0  0  0  0  0
   19.8859  -24.7739  -16.4901 O   0  0  0  0  0  0  0  0  0  0  0  0
   20.5821  -22.9153  -15.1509 C   0  0  0  0  0  0  0  0  0  0  0  0
   21.2203  -21.5929  -15.4494 C   0  0  0  0  0  0  0  0  0  0  0  0
   21.3215  -20.7615  -14.2203 C   0  0  2  0  0  0  0  0  0  0  0  0
   22.5291  -21.2187  -13.4946 N   0  0  0  0  0  0  0  0  0  0  0  0
   20.1703  -21.0140  -13.3230 C   0  0  0  0  0  0  0  0  0  0  0  0
   19.0077  -20.5855  -13.4932 O   0  0  0  0  0  0  0  0  0  0  0  0
   20.3346  -21.7973  -12.1608 O   0  0  0  0  0  0  0  0  0  0  0  0
  2  1  1  0
  3  4  1  6
  3  2  1  0
  5  3  1  0
  6  5  2  0
  8  7  1  1
  8 10  1  0
  9  8  1  0
 11 10  1  1
 11 12  1  0
 12  5  1  0
 13 11  1  0
 14 13  2  0
 16 15  1  0
 16 18  1  0
 17 16  2  0
 20 19  1  6
 19 18  1  0
 20 21  1  0
 21 13  1  0
 22 24  1  0
 22 20  1  0
 23 22  2  0
M  END
$$$$
