SLQ.pdb
     RDKit          3D

 24 23  0  0  1  0  0  0  0  0999 V2000
   18.2495  -12.0124  -18.8648 O   0  0  0  0  0  0  0  0  0  0  0  0
   18.9296  -11.2109  -17.9489 C   0  0  0  0  0  0  0  0  0  0  0  0
   20.0761  -11.9762  -17.3173 C   0  0  2  0  0  0  0  0  0  0  0  0
   19.6150  -13.1057  -16.5579 N   0  0  0  0  0  0  0  0  0  0  0  0
   20.8756  -11.1020  -16.4370 C   0  0  0  0  0  0  0  0  0  0  0  0
   20.4016  -10.6627  -15.3765 O   0  0  0  0  0  0  0  0  0  0  0  0
   24.8385  -12.0031  -14.6299 C   0  0  0  0  0  0  0  0  0  0  0  0
   25.0378  -11.4742  -16.0210 C   0  0  2  0  0  0  0  0  0  0  0  0
   26.5521  -11.5169  -16.2844 C   0  0  0  0  0  0  0  0  0  0  0  0
   24.5119  -10.0918  -16.1325 C   0  0  0  0  0  0  0  0  0  0  0  0
   23.0417   -9.8882  -16.0350 C   0  0  2  0  0  0  0  0  0  0  0  0
   22.2147  -10.7576  -16.8132 N   0  0  0  0  0  0  0  0  0  0  0  0
   22.6740   -8.4650  -16.1671 C   0  0  0  0  0  0  0  0  0  0  0  0
   22.3833   -8.0187  -17.2978 O   0  0  0  0  0  0  0  0  0  0  0  0
   18.1303   -6.5441  -16.1350 N   0  0  0  0  0  0  0  0  0  0  0  0
   18.5457   -5.2059  -15.8838 C   0  0  0  0  0  0  0  0  0  0  0  0
   17.7428   -4.2535  -15.9200 O   0  0  0  0  0  0  0  0  0  0  0  0
   19.9936   -4.9921  -15.5733 C   0  0  0  0  0  0  0  0  0  0  0  0
   20.6588   -6.3342  -15.5320 C   0  0  0  0  0  0  0  0  0  0  0  0
   22.0997   -6.2035  -15.1874 C   0  0  2  0  0  0  0  0  0  0  0  0
   22.6357   -7.5791  -15.0668 N   0  0  0  0  0  0  0  0  0  0  0  0
   22.2633   -5.5701  -13.8584 C   0  0  0  0  0  0  0  0  0  0  0  0
   22.3967   -6.1789  -12.7740 O   0  0  0  0  0  0  0  0  0  0  0  0
   22.2779   -4.1642  -13.7389 O   0  0  0  0  0  0  0  0  0  0  0  0
  2  1  1  0
  3  4  1  1
  3  2  1  0
  5  3  1  0
  6  5  2  0
  8  7  1  1
  8 10  1  0
  9  8  1  0
 11 10  1  6
 11 12  1  0
 12  5  1  0
 13 11  1  0
 14 13  2  0
 16 15  1  0
 16 18  1  0
 17 16  2  0
 20 19  1  1
 19 18  1  0
 20 21  1  0
 21 13  1  0
 22 24  1  0
 22 20  1  0
 23 22  2  0
M  END
$$$$
