SLQ.pdb
     RDKit          3D

 24 23  0  0  1  0  0  0  0  0999 V2000
   22.5185   -9.9596  -13.8893 O   0  0  0  0  0  0  0  0  0  0  0  0
   21.2149  -10.2513  -13.4898 C   0  0  0  0  0  0  0  0  0  0  0  0
   20.3052  -10.3893  -14.6950 C   0  0  2  0  0  0  0  0  0  0  0  0
   20.8920  -11.2066  -15.7210 N   0  0  0  0  0  0  0  0  0  0  0  0
   19.9768   -9.0682  -15.2651 C   0  0  0  0  0  0  0  0  0  0  0  0
   20.5324   -8.6666  -16.3008 O   0  0  0  0  0  0  0  0  0  0  0  0
   15.4479   -4.8291  -14.8974 C   0  0  0  0  0  0  0  0  0  0  0  0
   16.8047   -5.2066  -15.4180 C   0  0  2  0  0  0  0  0  0  0  0  0
   16.6630   -5.3200  -16.9449 C   0  0  0  0  0  0  0  0  0  0  0  0
   17.2520   -6.4896  -14.8232 C   0  0  0  0  0  0  0  0  0  0  0  0
   18.6431   -6.9426  -15.0919 C   0  0  2  0  0  0  0  0  0  0  0  0
   19.0048   -8.2410  -14.6137 N   0  0  0  0  0  0  0  0  0  0  0  0
   19.6345   -5.9025  -14.7550 C   0  0  0  0  0  0  0  0  0  0  0  0
   20.0175   -5.7944  -13.5702 O   0  0  0  0  0  0  0  0  0  0  0  0
   23.5087   -3.6037  -18.7383 N   0  0  0  0  0  0  0  0  0  0  0  0
   23.7651   -4.8050  -18.0189 C   0  0  0  0  0  0  0  0  0  0  0  0
   24.5824   -5.6517  -18.4289 O   0  0  0  0  0  0  0  0  0  0  0  0
   23.0077   -5.0073  -16.7445 C   0  0  0  0  0  0  0  0  0  0  0  0
   22.0634   -3.8553  -16.5822 C   0  0  0  0  0  0  0  0  0  0  0  0
   21.2179   -4.0270  -15.3707 C   0  0  2  0  0  0  0  0  0  0  0  0
   20.1733   -5.0185  -15.7168 N   0  0  0  0  0  0  0  0  0  0  0  0
   20.5106   -2.7669  -15.0448 C   0  0  0  0  0  0  0  0  0  0  0  0
   20.9861   -1.8150  -14.3875 O   0  0  0  0  0  0  0  0  0  0  0  0
   19.1855   -2.5624  -15.4846 O   0  0  0  0  0  0  0  0  0  0  0  0
  2  1  1  0
  3  4  1  6
  3  2  1  0
  5  3  1  0
  6  5  2  0
  8  7  1  1
  8 10  1  0
  9  8  1  0
 11 10  1  1
 11 12  1  0
 12  5  1  0
 13 11  1  0
 14 13  2  0
 16 15  1  0
 16 18  1  0
 17 16  2  0
 20 19  1  6
 19 18  1  0
 20 21  1  0
 21 13  1  0
 22 24  1  0
 22 20  1  0
 23 22  2  0
M  END
$$$$
