SLQ.pdb
     RDKit          3D

 24 23  0  0  1  0  0  0  0  0999 V2000
   17.3957  -11.1548  -19.6912 O   0  0  0  0  0  0  0  0  0  0  0  0
   18.0810  -10.4861  -18.6776 C   0  0  0  0  0  0  0  0  0  0  0  0
   18.9707  -11.4455  -17.9114 C   0  0  2  0  0  0  0  0  0  0  0  0
   18.2133  -12.4821  -17.2658 N   0  0  0  0  0  0  0  0  0  0  0  0
   19.7680  -10.7318  -16.8949 C   0  0  0  0  0  0  0  0  0  0  0  0
   19.2229  -10.2197  -15.9035 O   0  0  0  0  0  0  0  0  0  0  0  0
   23.2283  -11.9095  -14.0437 C   0  0  0  0  0  0  0  0  0  0  0  0
   23.6199  -11.8012  -15.4891 C   0  0  2  0  0  0  0  0  0  0  0  0
   25.1001  -12.2106  -15.5654 C   0  0  0  0  0  0  0  0  0  0  0  0
   23.4196  -10.4160  -15.9803 C   0  0  0  0  0  0  0  0  0  0  0  0
   22.0262   -9.9208  -16.1403 C   0  0  2  0  0  0  0  0  0  0  0  0
   21.1882  -10.6302  -17.0566 N   0  0  0  0  0  0  0  0  0  0  0  0
   21.9811   -8.4572  -16.3257 C   0  0  0  0  0  0  0  0  0  0  0  0
   22.1846   -7.9862  -17.4654 O   0  0  0  0  0  0  0  0  0  0  0  0
   18.3635   -3.2202  -17.2924 N   0  0  0  0  0  0  0  0  0  0  0  0
   19.5319   -4.0267  -17.1885 C   0  0  0  0  0  0  0  0  0  0  0  0
   20.0725   -4.5282  -18.1931 O   0  0  0  0  0  0  0  0  0  0  0  0
   20.0844   -4.2465  -15.8155 C   0  0  0  0  0  0  0  0  0  0  0  0
   20.2394   -5.7230  -15.6125 C   0  0  0  0  0  0  0  0  0  0  0  0
   21.6734   -6.0936  -15.4757 C   0  0  2  0  0  0  0  0  0  0  0  0
   21.7168   -7.5594  -15.2669 N   0  0  0  0  0  0  0  0  0  0  0  0
   22.2582   -5.4781  -14.2619 C   0  0  0  0  0  0  0  0  0  0  0  0
   22.4928   -6.0718  -13.1863 O   0  0  0  0  0  0  0  0  0  0  0  0
   22.6014   -4.1095  -14.2549 O   0  0  0  0  0  0  0  0  0  0  0  0
  2  1  1  0
  3  4  1  1
  3  2  1  0
  5  3  1  0
  6  5  2  0
  8  7  1  1
  8 10  1  0
  9  8  1  0
 11 10  1  6
 11 12  1  0
 12  5  1  0
 13 11  1  0
 14 13  2  0
 16 15  1  0
 16 18  1  0
 17 16  2  0
 20 19  1  1
 19 18  1  0
 20 21  1  0
 21 13  1  0
 22 24  1  0
 22 20  1  0
 23 22  2  0
M  END
$$$$
