SLQ.pdb
     RDKit          3D

 24 23  0  0  1  0  0  0  0  0999 V2000
   21.9700  -14.8700  -20.2996 O   0  0  0  0  0  0  0  0  0  0  0  0
   22.0193  -13.8126  -19.3921 C   0  0  0  0  0  0  0  0  0  0  0  0
   23.2636  -13.9055  -18.5307 C   0  0  2  0  0  0  0  0  0  0  0  0
   23.3271  -15.1471  -17.8098 N   0  0  0  0  0  0  0  0  0  0  0  0
   23.3258  -12.7892  -17.5672 C   0  0  0  0  0  0  0  0  0  0  0  0
   22.6096  -12.7843  -16.5525 O   0  0  0  0  0  0  0  0  0  0  0  0
   26.9194  -11.1974  -15.3018 C   0  0  0  0  0  0  0  0  0  0  0  0
   26.8720  -10.6593  -16.7028 C   0  0  2  0  0  0  0  0  0  0  0  0
   28.1316   -9.7942  -16.8740 C   0  0  0  0  0  0  0  0  0  0  0  0
   25.6395   -9.8612  -16.9124 C   0  0  0  0  0  0  0  0  0  0  0  0
   24.3343  -10.5743  -16.9319 C   0  0  2  0  0  0  0  0  0  0  0  0
   24.2242  -11.6992  -17.8080 N   0  0  0  0  0  0  0  0  0  0  0  0
   23.1984   -9.6384  -17.0429 C   0  0  0  0  0  0  0  0  0  0  0  0
   22.8038   -9.2996  -18.1794 O   0  0  0  0  0  0  0  0  0  0  0  0
   17.9921  -10.3908  -15.5162 N   0  0  0  0  0  0  0  0  0  0  0  0
   17.7398   -9.0099  -15.7526 C   0  0  0  0  0  0  0  0  0  0  0  0
   16.5802   -8.5601  -15.8284 O   0  0  0  0  0  0  0  0  0  0  0  0
   18.9322   -8.1193  -15.9067 C   0  0  0  0  0  0  0  0  0  0  0  0
   20.1606   -8.9642  -15.7570 C   0  0  0  0  0  0  0  0  0  0  0  0
   21.3874   -8.1761  -16.0502 C   0  0  2  0  0  0  0  0  0  0  0  0
   22.5331   -9.1052  -15.9160 N   0  0  0  0  0  0  0  0  0  0  0  0
   21.5830   -7.1171  -15.0331 C   0  0  0  0  0  0  0  0  0  0  0  0
   22.2516   -7.2324  -13.9823 O   0  0  0  0  0  0  0  0  0  0  0  0
   20.9905   -5.8482  -15.2063 O   0  0  0  0  0  0  0  0  0  0  0  0
  2  1  1  0
  3  4  1  1
  3  2  1  0
  5  3  1  0
  6  5  2  0
  8  7  1  1
  8 10  1  0
  9  8  1  0
 11 10  1  6
 11 12  1  0
 12  5  1  0
 13 11  1  0
 14 13  2  0
 16 15  1  0
 16 18  1  0
 17 16  2  0
 20 19  1  1
 19 18  1  0
 20 21  1  0
 21 13  1  0
 22 24  1  0
 22 20  1  0
 23 22  2  0
M  END
$$$$
