INY.pdb
     RDKit          3D

 29 29  0  0  1  0  0  0  0  0999 V2000
    7.6831  -11.9396   19.4446 C   0  0  0  0  0  0  0  0  0  0  0  0
    7.1817  -12.9433   20.4264 C   0  0  0  0  0  0  0  0  0  0  0  0
    8.1666  -14.0779   20.6839 C   0  0  2  0  0  0  0  0  0  0  0  0
    8.1825  -14.8944   19.3838 C   0  0  0  0  0  0  0  0  0  0  0  0
    7.5686  -14.9584   21.7305 C   0  0  2  0  0  0  0  0  0  0  0  0
    7.2789  -14.3130   22.9743 N   0  0  0  0  0  0  0  0  0  0  0  0
    8.4411  -16.1350   22.0316 C   0  0  0  0  0  0  0  0  0  0  0  0
    8.5410  -17.1217   21.2646 O   0  0  0  0  0  0  0  0  0  0  0  0
   12.2071  -19.1056   23.6571 N   0  0  0  0  0  0  0  0  0  0  0  0
   12.4275  -18.0991   22.7153 C   0  0  0  0  0  0  0  0  0  0  0  0
   13.5645  -18.1064   22.1361 O   0  0  0  0  0  0  0  0  0  0  0  0
   11.4064  -17.0481   22.3756 C   0  0  0  0  0  0  0  0  0  0  0  0
   10.3078  -17.0990   23.3614 C   0  0  2  0  0  0  0  0  0  0  0  0
    9.2225  -16.2210   23.2121 N   0  0  0  0  0  0  0  0  0  0  0  0
   10.8888  -16.9221   24.7169 C   0  0  0  0  0  0  0  0  0  0  0  0
   11.8111  -17.6875   25.0780 O   0  0  0  0  0  0  0  0  0  0  0  0
    5.9187  -11.3969   26.0961 O   0  0  0  0  0  0  0  0  0  0  0  0
    6.4684  -12.6673   26.1783 C   0  0  0  0  0  0  0  0  0  0  0  0
    5.7048  -13.7948   26.0145 C   0  0  0  0  0  0  0  0  0  0  0  0
    6.3057  -15.0288   26.1071 C   0  0  0  0  0  0  0  0  0  0  0  0
    7.6548  -15.1043   26.3613 C   0  0  0  0  0  0  0  0  0  0  0  0
    8.2681  -16.4527   26.4560 C   0  0  0  0  0  0  0  0  0  0  0  0
    9.7209  -16.2722   26.8277 C   0  0  2  0  0  0  0  0  0  0  0  0
   10.4557  -15.9281   25.6339 N   0  0  0  0  0  0  0  0  0  0  0  0
   10.2746  -17.5287   27.4387 C   0  0  0  0  0  0  0  0  0  0  0  0
   10.8904  -18.4865   26.6552 O   0  0  0  0  0  0  0  0  0  0  0  0
    8.4401  -13.9840   26.5291 C   0  0  0  0  0  0  0  0  0  0  0  0
    7.8226  -12.7609   26.4331 C   0  0  0  0  0  0  0  0  0  0  0  0
   10.1993  -17.7516   28.6677 O   0  0  0  0  0  0  0  0  0  0  0  0
  2  1  1  0
  3  2  1  0
  3  4  1  6
  5  3  1  0
  5  6  1  1
  7  8  2  0
  7  5  1  0
  9 10  1  0
 10 11  2  0
 10 12  1  0
 13 12  1  6
 13 14  1  0
 14  7  1  0
 15 24  1  0
 15 13  1  0
 16 15  2  0
 17 18  1  0
 18 28  2  0
 19 20  2  0
 19 18  1  0
 20 21  1  0
 21 22  1  0
 21 27  2  0
 23 22  1  6
 23 25  1  0
 23 24  1  0
 25 26  1  0
 28 27  1  0
 29 25  2  0
M  END
$$$$
