INY.pdb
     RDKit          3D

 29 29  0  0  1  0  0  0  0  0999 V2000
    7.4993  -11.8453   19.1649 C   0  0  0  0  0  0  0  0  0  0  0  0
    7.6397  -13.3268   19.0754 C   0  0  0  0  0  0  0  0  0  0  0  0
    7.9640  -13.9829   20.4125 C   0  0  2  0  0  0  0  0  0  0  0  0
    9.3101  -13.3784   20.8368 C   0  0  0  0  0  0  0  0  0  0  0  0
    8.2133  -15.4310   20.1497 C   0  0  2  0  0  0  0  0  0  0  0  0
    7.0996  -16.1515   19.6130 N   0  0  0  0  0  0  0  0  0  0  0  0
    8.6574  -16.1510   21.3828 C   0  0  0  0  0  0  0  0  0  0  0  0
    7.8558  -16.5790   22.2466 O   0  0  0  0  0  0  0  0  0  0  0  0
   10.7928  -19.6487   21.9122 N   0  0  0  0  0  0  0  0  0  0  0  0
   11.9209  -18.9405   22.3299 C   0  0  0  0  0  0  0  0  0  0  0  0
   13.0398  -19.5439   22.2196 O   0  0  0  0  0  0  0  0  0  0  0  0
   11.8604  -17.5432   22.8838 C   0  0  0  0  0  0  0  0  0  0  0  0
   10.4672  -17.0564   22.8277 C   0  0  2  0  0  0  0  0  0  0  0  0
   10.0240  -16.4033   21.6666 N   0  0  0  0  0  0  0  0  0  0  0  0
   10.2347  -16.1714   23.9977 C   0  0  0  0  0  0  0  0  0  0  0  0
    9.5991  -15.1067   23.8268 O   0  0  0  0  0  0  0  0  0  0  0  0
    6.0285  -11.3542   26.7389 O   0  0  0  0  0  0  0  0  0  0  0  0
    6.5907  -12.6067   26.5443 C   0  0  0  0  0  0  0  0  0  0  0  0
    5.9341  -13.5915   25.8512 C   0  0  0  0  0  0  0  0  0  0  0  0
    6.5419  -14.8149   25.6900 C   0  0  0  0  0  0  0  0  0  0  0  0
    7.7908  -15.0231   26.2260 C   0  0  0  0  0  0  0  0  0  0  0  0
    8.4147  -16.3560   26.0335 C   0  0  0  0  0  0  0  0  0  0  0  0
    9.8583  -16.2553   26.4662 C   0  0  2  0  0  0  0  0  0  0  0  0
   10.6949  -16.4649   25.3087 N   0  0  0  0  0  0  0  0  0  0  0  0
   10.1689  -17.2733   27.5272 C   0  0  0  0  0  0  0  0  0  0  0  0
    9.9638  -16.9892   28.8642 O   0  0  0  0  0  0  0  0  0  0  0  0
    8.4678  -14.0473   26.9257 C   0  0  0  0  0  0  0  0  0  0  0  0
    7.8452  -12.8324   27.0762 C   0  0  0  0  0  0  0  0  0  0  0  0
   10.6202  -18.4050   27.2416 O   0  0  0  0  0  0  0  0  0  0  0  0
  2  1  1  0
  3  2  1  0
  3  4  1  6
  5  3  1  0
  5  6  1  1
  7  8  2  0
  7  5  1  0
  9 10  1  0
 10 11  2  0
 10 12  1  0
 13 12  1  6
 13 14  1  0
 14  7  1  0
 15 24  1  0
 15 13  1  0
 16 15  2  0
 17 18  1  0
 18 28  2  0
 19 20  2  0
 19 18  1  0
 20 21  1  0
 21 22  1  0
 21 27  2  0
 23 22  1  6
 23 25  1  0
 23 24  1  0
 25 26  1  0
 28 27  1  0
 29 25  2  0
M  END
$$$$
