INY.pdb
     RDKit          3D

 29 29  0  0  1  0  0  0  0  0999 V2000
    7.2675  -12.0917   17.8994 C   0  0  0  0  0  0  0  0  0  0  0  0
    8.3460  -12.9249   18.5037 C   0  0  0  0  0  0  0  0  0  0  0  0
    7.8746  -13.7467   19.6978 C   0  0  2  0  0  0  0  0  0  0  0  0
    7.6233  -12.7213   20.8127 C   0  0  0  0  0  0  0  0  0  0  0  0
    9.0260  -14.5852   20.1444 C   0  0  2  0  0  0  0  0  0  0  0  0
    9.6227  -15.3908   19.1234 N   0  0  0  0  0  0  0  0  0  0  0  0
    8.6465  -15.4974   21.2669 C   0  0  0  0  0  0  0  0  0  0  0  0
    7.7956  -15.1905   22.1350 O   0  0  0  0  0  0  0  0  0  0  0  0
   10.9754  -19.2775   20.4414 N   0  0  0  0  0  0  0  0  0  0  0  0
   10.6293  -19.1863   21.7907 C   0  0  0  0  0  0  0  0  0  0  0  0
   11.5971  -19.1651   22.6221 O   0  0  0  0  0  0  0  0  0  0  0  0
    9.2071  -19.1150   22.2755 C   0  0  0  0  0  0  0  0  0  0  0  0
    8.8084  -17.6993   22.4106 C   0  0  2  0  0  0  0  0  0  0  0  0
    9.2244  -16.7821   21.4324 N   0  0  0  0  0  0  0  0  0  0  0  0
    9.2490  -17.2157   23.7441 C   0  0  0  0  0  0  0  0  0  0  0  0
   10.3677  -16.6626   23.8413 O   0  0  0  0  0  0  0  0  0  0  0  0
    6.6755  -11.0876   25.6132 O   0  0  0  0  0  0  0  0  0  0  0  0
    6.9746  -12.3967   25.9590 C   0  0  0  0  0  0  0  0  0  0  0  0
    8.2627  -12.8023   26.1988 C   0  0  0  0  0  0  0  0  0  0  0  0
    8.4986  -14.1143   26.5382 C   0  0  0  0  0  0  0  0  0  0  0  0
    7.4407  -14.9878   26.6292 C   0  0  0  0  0  0  0  0  0  0  0  0
    7.7337  -16.3959   26.9961 C   0  0  0  0  0  0  0  0  0  0  0  0
    8.9339  -16.8402   26.1939 C   0  0  2  0  0  0  0  0  0  0  0  0
    8.4695  -17.3453   24.9240 N   0  0  0  0  0  0  0  0  0  0  0  0
    9.7030  -17.9016   26.9292 C   0  0  0  0  0  0  0  0  0  0  0  0
   10.4573  -17.5869   28.0437 O   0  0  0  0  0  0  0  0  0  0  0  0
    6.1391  -14.6008   26.3923 C   0  0  0  0  0  0  0  0  0  0  0  0
    5.9232  -13.2872   26.0549 C   0  0  0  0  0  0  0  0  0  0  0  0
    9.6885  -19.0980   26.5627 O   0  0  0  0  0  0  0  0  0  0  0  0
  2  1  1  0
  3  2  1  0
  3  4  1  1
  5  3  1  0
  5  6  1  6
  7  8  2  0
  7  5  1  0
  9 10  1  0
 10 11  2  0
 10 12  1  0
 13 12  1  6
 13 14  1  0
 14  7  1  0
 15 24  1  0
 15 13  1  0
 16 15  2  0
 17 18  1  0
 18 28  2  0
 19 20  2  0
 19 18  1  0
 20 21  1  0
 21 22  1  0
 21 27  2  0
 23 22  1  1
 23 25  1  0
 23 24  1  0
 25 26  1  0
 28 27  1  0
 29 25  2  0
M  END
$$$$
