INY.pdb
     RDKit          3D

 29 29  0  0  1  0  0  0  0  0999 V2000
    8.5631  -12.1632   18.9395 C   0  0  0  0  0  0  0  0  0  0  0  0
    7.4030  -13.0865   19.0957 C   0  0  0  0  0  0  0  0  0  0  0  0
    7.6330  -14.1711   20.1418 C   0  0  2  0  0  0  0  0  0  0  0  0
    8.4646  -13.4945   21.2409 C   0  0  0  0  0  0  0  0  0  0  0  0
    8.5109  -15.2080   19.5233 C   0  0  2  0  0  0  0  0  0  0  0  0
    7.9580  -15.8694   18.3812 N   0  0  0  0  0  0  0  0  0  0  0  0
    8.8989  -16.2658   20.5064 C   0  0  0  0  0  0  0  0  0  0  0  0
    8.1531  -17.2308   20.7971 O   0  0  0  0  0  0  0  0  0  0  0  0
   11.8694  -20.0960   22.7690 N   0  0  0  0  0  0  0  0  0  0  0  0
   12.2843  -18.7752   22.9484 C   0  0  0  0  0  0  0  0  0  0  0  0
   12.9132  -18.5224   24.0295 O   0  0  0  0  0  0  0  0  0  0  0  0
   12.0232  -17.6842   21.9462 C   0  0  0  0  0  0  0  0  0  0  0  0
   10.5956  -17.3088   21.9949 C   0  0  2  0  0  0  0  0  0  0  0  0
   10.1443  -16.2546   21.1849 N   0  0  0  0  0  0  0  0  0  0  0  0
   10.2371  -17.0200   23.4071 C   0  0  0  0  0  0  0  0  0  0  0  0
    9.5575  -17.8617   24.0369 O   0  0  0  0  0  0  0  0  0  0  0  0
    5.4382  -11.5193   27.6386 O   0  0  0  0  0  0  0  0  0  0  0  0
    6.2471  -12.2508   26.7822 C   0  0  0  0  0  0  0  0  0  0  0  0
    7.4757  -11.7903   26.3827 C   0  0  0  0  0  0  0  0  0  0  0  0
    8.2340  -12.5602   25.5315 C   0  0  0  0  0  0  0  0  0  0  0  0
    7.7448  -13.7709   25.1010 C   0  0  0  0  0  0  0  0  0  0  0  0
    8.5902  -14.5732   24.1820 C   0  0  0  0  0  0  0  0  0  0  0  0
    9.7232  -15.1581   24.9917 C   0  0  2  0  0  0  0  0  0  0  0  0
   10.6232  -15.8360   24.0895 N   0  0  0  0  0  0  0  0  0  0  0  0
    9.2005  -16.1149   26.0261 C   0  0  0  0  0  0  0  0  0  0  0  0
    9.0958  -15.7383   27.3517 O   0  0  0  0  0  0  0  0  0  0  0  0
    6.5131  -14.2519   25.4903 C   0  0  0  0  0  0  0  0  0  0  0  0
    5.7705  -13.4695   26.3404 C   0  0  0  0  0  0  0  0  0  0  0  0
    8.8442  -17.2767   25.7276 O   0  0  0  0  0  0  0  0  0  0  0  0
  2  1  1  0
  3  2  1  0
  3  4  1  1
  5  3  1  0
  5  6  1  6
  7  8  2  0
  7  5  1  0
  9 10  1  0
 10 11  2  0
 10 12  1  0
 13 12  1  1
 13 14  1  0
 14  7  1  0
 15 24  1  0
 15 13  1  0
 16 15  2  0
 17 18  1  0
 18 28  2  0
 19 20  2  0
 19 18  1  0
 20 21  1  0
 21 22  1  0
 21 27  2  0
 23 22  1  6
 23 25  1  0
 23 24  1  0
 25 26  1  0
 28 27  1  0
 29 25  2  0
M  END
$$$$
