INY.pdb
     RDKit          3D

 29 29  0  0  1  0  0  0  0  0999 V2000
    7.3329  -12.8253   17.6803 C   0  0  0  0  0  0  0  0  0  0  0  0
    7.7061  -12.5741   19.1017 C   0  0  0  0  0  0  0  0  0  0  0  0
    7.7369  -13.8407   19.9492 C   0  0  2  0  0  0  0  0  0  0  0  0
    7.4583  -13.3675   21.3830 C   0  0  0  0  0  0  0  0  0  0  0  0
    9.1393  -14.3518   19.9361 C   0  0  2  0  0  0  0  0  0  0  0  0
    9.6438  -14.7086   18.6455 N   0  0  0  0  0  0  0  0  0  0  0  0
    9.3046  -15.5435   20.8242 C   0  0  0  0  0  0  0  0  0  0  0  0
    8.6199  -15.7206   21.8594 O   0  0  0  0  0  0  0  0  0  0  0  0
   11.4729  -19.1733   18.4614 N   0  0  0  0  0  0  0  0  0  0  0  0
   10.7747  -19.2439   19.6682 C   0  0  0  0  0  0  0  0  0  0  0  0
    9.6061  -19.7535   19.6158 O   0  0  0  0  0  0  0  0  0  0  0  0
   11.3354  -18.7572   20.9764 C   0  0  0  0  0  0  0  0  0  0  0  0
   10.5365  -17.6099   21.4526 C   0  0  2  0  0  0  0  0  0  0  0  0
   10.2525  -16.5648   20.5592 N   0  0  0  0  0  0  0  0  0  0  0  0
   11.1988  -17.0483   22.6576 C   0  0  0  0  0  0  0  0  0  0  0  0
   11.5954  -15.8615   22.6250 O   0  0  0  0  0  0  0  0  0  0  0  0
   10.4577  -14.0461   30.4318 O   0  0  0  0  0  0  0  0  0  0  0  0
   10.3841  -14.6621   29.1916 C   0  0  0  0  0  0  0  0  0  0  0  0
   10.1838  -16.0134   29.0690 C   0  0  0  0  0  0  0  0  0  0  0  0
   10.1195  -16.5687   27.8121 C   0  0  0  0  0  0  0  0  0  0  0  0
   10.2573  -15.7589   26.7095 C   0  0  0  0  0  0  0  0  0  0  0  0
   10.1842  -16.3935   25.3697 C   0  0  0  0  0  0  0  0  0  0  0  0
   11.4818  -17.1312   25.1385 C   0  0  2  0  0  0  0  0  0  0  0  0
   11.4099  -17.7845   23.8534 N   0  0  0  0  0  0  0  0  0  0  0  0
   11.7218  -18.1407   26.2257 C   0  0  0  0  0  0  0  0  0  0  0  0
   11.1420  -19.3941   26.1701 O   0  0  0  0  0  0  0  0  0  0  0  0
   10.4593  -14.3991   26.8106 C   0  0  0  0  0  0  0  0  0  0  0  0
   10.5204  -13.8629   28.0735 C   0  0  0  0  0  0  0  0  0  0  0  0
   12.4488  -17.8858   27.2118 O   0  0  0  0  0  0  0  0  0  0  0  0
  2  1  1  0
  3  2  1  0
  3  4  1  1
  5  3  1  0
  5  6  1  6
  7  8  2  0
  7  5  1  0
  9 10  1  0
 10 11  2  0
 10 12  1  0
 13 12  1  6
 13 14  1  0
 14  7  1  0
 15 24  1  0
 15 13  1  0
 16 15  2  0
 17 18  1  0
 18 28  2  0
 19 20  2  0
 19 18  1  0
 20 21  1  0
 21 22  1  0
 21 27  2  0
 23 22  1  1
 23 25  1  0
 23 24  1  0
 25 26  1  0
 28 27  1  0
 29 25  2  0
M  END
$$$$
