INY.pdb
     RDKit          3D

 29 29  0  0  1  0  0  0  0  0999 V2000
    7.8856  -11.9823   19.1379 C   0  0  0  0  0  0  0  0  0  0  0  0
    7.9826  -13.4661   19.0309 C   0  0  0  0  0  0  0  0  0  0  0  0
    8.1037  -14.1608   20.3823 C   0  0  2  0  0  0  0  0  0  0  0  0
    9.5057  -13.7982   20.8924 C   0  0  0  0  0  0  0  0  0  0  0  0
    8.1120  -15.6317   20.1283 C   0  0  2  0  0  0  0  0  0  0  0  0
    6.9339  -16.1463   19.5000 N   0  0  0  0  0  0  0  0  0  0  0  0
    8.3227  -16.4117   21.3867 C   0  0  0  0  0  0  0  0  0  0  0  0
    7.4438  -16.5219   22.2740 O   0  0  0  0  0  0  0  0  0  0  0  0
   11.5873  -20.4896   24.6224 N   0  0  0  0  0  0  0  0  0  0  0  0
   10.5244  -19.7248   24.1386 C   0  0  0  0  0  0  0  0  0  0  0  0
    9.5187  -19.6006   24.9139 O   0  0  0  0  0  0  0  0  0  0  0  0
   10.5283  -19.0685   22.7850 C   0  0  0  0  0  0  0  0  0  0  0  0
    9.7687  -17.8038   22.8543 C   0  0  2  0  0  0  0  0  0  0  0  0
    9.5377  -17.0865   21.6696 N   0  0  0  0  0  0  0  0  0  0  0  0
   10.4365  -16.9116   23.8362 C   0  0  0  0  0  0  0  0  0  0  0  0
   11.5970  -16.5120   23.5902 O   0  0  0  0  0  0  0  0  0  0  0  0
    5.1282  -12.9445   26.9767 O   0  0  0  0  0  0  0  0  0  0  0  0
    6.4536  -13.2660   26.7259 C   0  0  0  0  0  0  0  0  0  0  0  0
    7.4517  -12.9504   27.6121 C   0  0  0  0  0  0  0  0  0  0  0  0
    8.7486  -13.2948   27.3092 C   0  0  0  0  0  0  0  0  0  0  0  0
    9.0149  -13.9459   26.1279 C   0  0  0  0  0  0  0  0  0  0  0  0
   10.4260  -14.3001   25.8341 C   0  0  0  0  0  0  0  0  0  0  0  0
   10.5846  -15.7849   26.0612 C   0  0  2  0  0  0  0  0  0  0  0  0
    9.8309  -16.4824   25.0468 N   0  0  0  0  0  0  0  0  0  0  0  0
   10.0990  -16.1694   27.4305 C   0  0  0  0  0  0  0  0  0  0  0  0
    9.0895  -17.0998   27.5896 O   0  0  0  0  0  0  0  0  0  0  0  0
    8.0268  -14.2721   25.2237 C   0  0  0  0  0  0  0  0  0  0  0  0
    6.7383  -13.9204   25.5435 C   0  0  0  0  0  0  0  0  0  0  0  0
   10.5866  -15.6659   28.4672 O   0  0  0  0  0  0  0  0  0  0  0  0
  2  1  1  0
  3  2  1  0
  3  4  1  6
  5  3  1  0
  5  6  1  1
  7  8  2  0
  7  5  1  0
  9 10  1  0
 10 11  2  0
 10 12  1  0
 13 12  1  6
 13 14  1  0
 14  7  1  0
 15 24  1  0
 15 13  1  0
 16 15  2  0
 17 18  1  0
 18 28  2  0
 19 20  2  0
 19 18  1  0
 20 21  1  0
 21 22  1  0
 21 27  2  0
 23 22  1  6
 23 25  1  0
 23 24  1  0
 25 26  1  0
 28 27  1  0
 29 25  2  0
M  END
$$$$
