INY.pdb
     RDKit          3D

 29 29  0  0  1  0  0  0  0  0999 V2000
    6.2499  -13.7116   18.9299 C   0  0  0  0  0  0  0  0  0  0  0  0
    7.5106  -14.2477   19.5180 C   0  0  0  0  0  0  0  0  0  0  0  0
    8.2016  -13.2665   20.4579 C   0  0  2  0  0  0  0  0  0  0  0  0
    8.7912  -12.1849   19.5414 C   0  0  0  0  0  0  0  0  0  0  0  0
    9.3601  -13.9790   21.0731 C   0  0  2  0  0  0  0  0  0  0  0  0
   10.2229  -14.6475   20.1478 N   0  0  0  0  0  0  0  0  0  0  0  0
    8.9181  -14.9910   22.0813 C   0  0  0  0  0  0  0  0  0  0  0  0
    7.9554  -14.7989   22.8612 O   0  0  0  0  0  0  0  0  0  0  0  0
   11.6954  -17.4189   22.0188 N   0  0  0  0  0  0  0  0  0  0  0  0
   11.0419  -18.5798   22.4361 C   0  0  0  0  0  0  0  0  0  0  0  0
   11.6648  -19.6774   22.2480 O   0  0  0  0  0  0  0  0  0  0  0  0
    9.6803  -18.5766   23.0754 C   0  0  0  0  0  0  0  0  0  0  0  0
    9.2116  -17.1832   23.2175 C   0  0  2  0  0  0  0  0  0  0  0  0
    9.5588  -16.2477   22.2298 N   0  0  0  0  0  0  0  0  0  0  0  0
    9.6545  -16.6747   24.5409 C   0  0  0  0  0  0  0  0  0  0  0  0
   10.6963  -15.9832   24.5990 O   0  0  0  0  0  0  0  0  0  0  0  0
    6.4394  -11.2919   25.5528 O   0  0  0  0  0  0  0  0  0  0  0  0
    6.8802  -12.4779   26.1199 C   0  0  0  0  0  0  0  0  0  0  0  0
    6.0954  -13.6027   26.1395 C   0  0  0  0  0  0  0  0  0  0  0  0
    6.5865  -14.7509   26.7163 C   0  0  0  0  0  0  0  0  0  0  0  0
    7.8497  -14.7456   27.2592 C   0  0  0  0  0  0  0  0  0  0  0  0
    8.3453  -16.0022   27.8743 C   0  0  0  0  0  0  0  0  0  0  0  0
    9.4896  -16.5086   27.0283 C   0  0  2  0  0  0  0  0  0  0  0  0
    8.9599  -16.9291   25.7531 N   0  0  0  0  0  0  0  0  0  0  0  0
   10.1886  -17.6527   27.7071 C   0  0  0  0  0  0  0  0  0  0  0  0
   10.2335  -18.9040   27.1219 O   0  0  0  0  0  0  0  0  0  0  0  0
    8.6544  -13.6265   27.2500 C   0  0  0  0  0  0  0  0  0  0  0  0
    8.1472  -12.4898   26.6697 C   0  0  0  0  0  0  0  0  0  0  0  0
   10.7505  -17.5156   28.8168 O   0  0  0  0  0  0  0  0  0  0  0  0
  2  1  1  0
  3  2  1  0
  3  4  1  6
  5  3  1  0
  5  6  1  6
  7  8  2  0
  7  5  1  0
  9 10  1  0
 10 11  2  0
 10 12  1  0
 13 12  1  6
 13 14  1  0
 14  7  1  0
 15 24  1  0
 15 13  1  0
 16 15  2  0
 17 18  1  0
 18 28  2  0
 19 20  2  0
 19 18  1  0
 20 21  1  0
 21 22  1  0
 21 27  2  0
 23 22  1  1
 23 25  1  0
 23 24  1  0
 25 26  1  0
 28 27  1  0
 29 25  2  0
M  END
$$$$
