INY.pdb
     RDKit          3D

 29 29  0  0  1  0  0  0  0  0999 V2000
    7.9112  -11.7776   19.3171 C   0  0  0  0  0  0  0  0  0  0  0  0
    7.6680  -13.2462   19.2346 C   0  0  0  0  0  0  0  0  0  0  0  0
    7.9404  -13.9764   20.5446 C   0  0  2  0  0  0  0  0  0  0  0  0
    9.4666  -13.9435   20.7091 C   0  0  0  0  0  0  0  0  0  0  0  0
    7.5662  -15.4074   20.3436 C   0  0  2  0  0  0  0  0  0  0  0  0
    6.1915  -15.6358   20.0185 N   0  0  0  0  0  0  0  0  0  0  0  0
    7.8840  -16.2389   21.5451 C   0  0  0  0  0  0  0  0  0  0  0  0
    7.1172  -16.3278   22.5330 O   0  0  0  0  0  0  0  0  0  0  0  0
    9.6279  -20.9227   24.1763 N   0  0  0  0  0  0  0  0  0  0  0  0
   10.3213  -19.7516   23.8655 C   0  0  0  0  0  0  0  0  0  0  0  0
   11.1089  -19.3057   24.7649 O   0  0  0  0  0  0  0  0  0  0  0  0
   10.1743  -19.0280   22.5549 C   0  0  0  0  0  0  0  0  0  0  0  0
    9.3952  -17.7911   22.7655 C   0  0  2  0  0  0  0  0  0  0  0  0
    9.0816  -16.9908   21.6555 N   0  0  0  0  0  0  0  0  0  0  0  0
   10.1013  -16.9612   23.7749 C   0  0  0  0  0  0  0  0  0  0  0  0
   11.2470  -16.5352   23.5050 O   0  0  0  0  0  0  0  0  0  0  0  0
    4.9260  -13.0374   26.7752 O   0  0  0  0  0  0  0  0  0  0  0  0
    6.2579  -13.3730   26.5849 C   0  0  0  0  0  0  0  0  0  0  0  0
    7.2740  -12.6137   27.1065 C   0  0  0  0  0  0  0  0  0  0  0  0
    8.5766  -12.9962   26.8847 C   0  0  0  0  0  0  0  0  0  0  0  0
    8.8304  -14.1282   26.1468 C   0  0  0  0  0  0  0  0  0  0  0  0
   10.2480  -14.5091   25.9266 C   0  0  0  0  0  0  0  0  0  0  0  0
   10.3493  -16.0092   26.0714 C   0  0  2  0  0  0  0  0  0  0  0  0
    9.5484  -16.6202   25.0377 N   0  0  0  0  0  0  0  0  0  0  0  0
    9.8742  -16.4468   27.4284 C   0  0  0  0  0  0  0  0  0  0  0  0
    8.8977  -17.4161   27.5593 O   0  0  0  0  0  0  0  0  0  0  0  0
    7.8243  -14.9052   25.6137 C   0  0  0  0  0  0  0  0  0  0  0  0
    6.5303  -14.5076   25.8458 C   0  0  0  0  0  0  0  0  0  0  0  0
   10.3412  -15.9542   28.4797 O   0  0  0  0  0  0  0  0  0  0  0  0
  2  1  1  0
  3  2  1  0
  3  4  1  6
  5  3  1  0
  5  6  1  1
  7  8  2  0
  7  5  1  0
  9 10  1  0
 10 11  2  0
 10 12  1  0
 13 12  1  6
 13 14  1  0
 14  7  1  0
 15 24  1  0
 15 13  1  0
 16 15  2  0
 17 18  1  0
 18 28  2  0
 19 20  2  0
 19 18  1  0
 20 21  1  0
 21 22  1  0
 21 27  2  0
 23 22  1  1
 23 25  1  0
 23 24  1  0
 25 26  1  0
 28 27  1  0
 29 25  2  0
M  END
$$$$
