INY.pdb
     RDKit          3D

 29 29  0  0  1  0  0  0  0  0999 V2000
    8.9263  -11.9411   19.5347 C   0  0  0  0  0  0  0  0  0  0  0  0
    9.3931  -13.3172   19.2017 C   0  0  0  0  0  0  0  0  0  0  0  0
    8.3087  -14.1859   18.5748 C   0  0  2  0  0  0  0  0  0  0  0  0
    7.2259  -14.3133   19.6559 C   0  0  0  0  0  0  0  0  0  0  0  0
    8.8836  -15.5507   18.3874 C   0  0  2  0  0  0  0  0  0  0  0  0
    8.0766  -16.4496   17.6204 N   0  0  0  0  0  0  0  0  0  0  0  0
    9.1724  -16.2162   19.6950 C   0  0  0  0  0  0  0  0  0  0  0  0
    8.2777  -16.7211   20.4136 O   0  0  0  0  0  0  0  0  0  0  0  0
   13.3586  -18.7023   19.7324 N   0  0  0  0  0  0  0  0  0  0  0  0
   12.3956  -18.6789   20.7427 C   0  0  0  0  0  0  0  0  0  0  0  0
   11.7013  -19.7398   20.8862 O   0  0  0  0  0  0  0  0  0  0  0  0
   12.1605  -17.4887   21.6321 C   0  0  0  0  0  0  0  0  0  0  0  0
   10.7879  -16.9860   21.4213 C   0  0  2  0  0  0  0  0  0  0  0  0
   10.4855  -16.3252   20.2200 N   0  0  0  0  0  0  0  0  0  0  0  0
   10.4349  -16.1012   22.5609 C   0  0  0  0  0  0  0  0  0  0  0  0
   11.1849  -15.1338   22.8231 O   0  0  0  0  0  0  0  0  0  0  0  0
    6.4523  -11.0991   28.1907 O   0  0  0  0  0  0  0  0  0  0  0  0
    6.7562  -12.0020   27.1831 C   0  0  0  0  0  0  0  0  0  0  0  0
    7.7179  -11.7351   26.2423 C   0  0  0  0  0  0  0  0  0  0  0  0
    7.9760  -12.6692   25.2660 C   0  0  0  0  0  0  0  0  0  0  0  0
    7.2658  -13.8465   25.2548 C   0  0  0  0  0  0  0  0  0  0  0  0
    7.5703  -14.8298   24.1855 C   0  0  0  0  0  0  0  0  0  0  0  0
    8.9580  -15.3700   24.4387 C   0  0  2  0  0  0  0  0  0  0  0  0
    9.2878  -16.2900   23.3765 N   0  0  0  0  0  0  0  0  0  0  0  0
    9.0252  -16.0631   25.7705 C   0  0  0  0  0  0  0  0  0  0  0  0
    9.4175  -15.3802   26.9062 O   0  0  0  0  0  0  0  0  0  0  0  0
    6.2955  -14.1343   26.1905 C   0  0  0  0  0  0  0  0  0  0  0  0
    6.0519  -13.1898   27.1574 C   0  0  0  0  0  0  0  0  0  0  0  0
    8.7309  -17.2726   25.8987 O   0  0  0  0  0  0  0  0  0  0  0  0
  2  1  1  0
  3  2  1  0
  3  4  1  1
  5  3  1  0
  5  6  1  1
  7  8  2  0
  7  5  1  0
  9 10  1  0
 10 11  2  0
 10 12  1  0
 13 12  1  6
 13 14  1  0
 14  7  1  0
 15 24  1  0
 15 13  1  0
 16 15  2  0
 17 18  1  0
 18 28  2  0
 19 20  2  0
 19 18  1  0
 20 21  1  0
 21 22  1  0
 21 27  2  0
 23 22  1  6
 23 25  1  0
 23 24  1  0
 25 26  1  0
 28 27  1  0
 29 25  2  0
M  END
$$$$
