INY.pdb
     RDKit          3D

 29 29  0  0  1  0  0  0  0  0999 V2000
    7.2575  -11.7506   18.9045 C   0  0  0  0  0  0  0  0  0  0  0  0
    7.7883  -13.0475   18.3957 C   0  0  0  0  0  0  0  0  0  0  0  0
    7.8183  -14.1432   19.4550 C   0  0  2  0  0  0  0  0  0  0  0  0
    8.8133  -13.6466   20.5137 C   0  0  0  0  0  0  0  0  0  0  0  0
    8.4322  -15.3515   18.8294 C   0  0  2  0  0  0  0  0  0  0  0  0
    7.6984  -15.9076   17.7341 N   0  0  0  0  0  0  0  0  0  0  0  0
    8.6436  -16.4463   19.8258 C   0  0  0  0  0  0  0  0  0  0  0  0
    7.7271  -17.2197   20.1914 O   0  0  0  0  0  0  0  0  0  0  0  0
   12.3811  -17.2622   19.9580 N   0  0  0  0  0  0  0  0  0  0  0  0
   11.9179  -18.4890   20.4366 C   0  0  0  0  0  0  0  0  0  0  0  0
   12.3560  -19.5294   19.8418 O   0  0  0  0  0  0  0  0  0  0  0  0
   10.9563  -18.6172   21.5863 C   0  0  0  0  0  0  0  0  0  0  0  0
   10.0633  -17.4410   21.6084 C   0  0  2  0  0  0  0  0  0  0  0  0
    9.9020  -16.6907   20.4327 N   0  0  0  0  0  0  0  0  0  0  0  0
   10.5083  -16.5377   22.7002 C   0  0  0  0  0  0  0  0  0  0  0  0
   11.6897  -16.1242   22.6916 O   0  0  0  0  0  0  0  0  0  0  0  0
   11.0873  -14.4254   31.0639 O   0  0  0  0  0  0  0  0  0  0  0  0
   10.5720  -14.7771   29.8256 C   0  0  0  0  0  0  0  0  0  0  0  0
   10.2325  -16.0722   29.5278 C   0  0  0  0  0  0  0  0  0  0  0  0
    9.7257  -16.3613   28.2821 C   0  0  0  0  0  0  0  0  0  0  0  0
    9.5714  -15.3483   27.3653 C   0  0  0  0  0  0  0  0  0  0  0  0
    9.0233  -15.6982   26.0311 C   0  0  0  0  0  0  0  0  0  0  0  0
   10.1878  -15.8535   25.0816 C   0  0  2  0  0  0  0  0  0  0  0  0
    9.6655  -16.1128   23.7612 N   0  0  0  0  0  0  0  0  0  0  0  0
   11.0855  -16.9767   25.5187 C   0  0  0  0  0  0  0  0  0  0  0  0
   12.3462  -16.7211   26.0242 O   0  0  0  0  0  0  0  0  0  0  0  0
    9.9063  -14.0406   27.6442 C   0  0  0  0  0  0  0  0  0  0  0  0
   10.4105  -13.7713   28.8930 C   0  0  0  0  0  0  0  0  0  0  0  0
   10.7277  -18.1733   25.4419 O   0  0  0  0  0  0  0  0  0  0  0  0
  2  1  1  0
  3  2  1  0
  3  4  1  1
  5  3  1  0
  5  6  1  6
  7  8  2  0
  7  5  1  0
  9 10  1  0
 10 11  2  0
 10 12  1  0
 13 12  1  6
 13 14  1  0
 14  7  1  0
 15 24  1  0
 15 13  1  0
 16 15  2  0
 17 18  1  0
 18 28  2  0
 19 20  2  0
 19 18  1  0
 20 21  1  0
 21 22  1  0
 21 27  2  0
 23 22  1  1
 23 25  1  0
 23 24  1  0
 25 26  1  0
 28 27  1  0
 29 25  2  0
M  END
$$$$
