INY.pdb
     RDKit          3D

 29 29  0  0  1  0  0  0  0  0999 V2000
    8.1205  -12.8405   17.9844 C   0  0  0  0  0  0  0  0  0  0  0  0
    7.4192  -12.8073   19.2996 C   0  0  0  0  0  0  0  0  0  0  0  0
    7.4865  -14.1315   20.0516 C   0  0  2  0  0  0  0  0  0  0  0  0
    6.2891  -14.1052   21.0124 C   0  0  0  0  0  0  0  0  0  0  0  0
    8.7131  -14.0996   20.9016 C   0  0  2  0  0  0  0  0  0  0  0  0
    9.9430  -13.9411   20.1875 N   0  0  0  0  0  0  0  0  0  0  0  0
    8.8402  -15.3313   21.7400 C   0  0  0  0  0  0  0  0  0  0  0  0
    7.8795  -15.8210   22.3796 O   0  0  0  0  0  0  0  0  0  0  0  0
   12.3610  -18.1957   20.2196 N   0  0  0  0  0  0  0  0  0  0  0  0
   11.3961  -18.5313   21.1710 C   0  0  0  0  0  0  0  0  0  0  0  0
   10.4779  -19.3299   20.7872 O   0  0  0  0  0  0  0  0  0  0  0  0
   11.4052  -18.0014   22.5788 C   0  0  0  0  0  0  0  0  0  0  0  0
   10.2481  -17.1036   22.7694 C   0  0  2  0  0  0  0  0  0  0  0  0
   10.0624  -16.0384   21.8737 N   0  0  0  0  0  0  0  0  0  0  0  0
   10.2966  -16.5673   24.1537 C   0  0  0  0  0  0  0  0  0  0  0  0
   10.4438  -15.3346   24.3139 O   0  0  0  0  0  0  0  0  0  0  0  0
    6.6385  -11.3903   26.8161 O   0  0  0  0  0  0  0  0  0  0  0  0
    6.9471  -12.7296   26.6324 C   0  0  0  0  0  0  0  0  0  0  0  0
    6.0329  -13.6165   26.1236 C   0  0  0  0  0  0  0  0  0  0  0  0
    6.3962  -14.9336   25.9638 C   0  0  0  0  0  0  0  0  0  0  0  0
    7.6643  -15.3308   26.3168 C   0  0  0  0  0  0  0  0  0  0  0  0
    8.0199  -16.7599   26.1318 C   0  0  0  0  0  0  0  0  0  0  0  0
    9.4790  -16.9208   26.4879 C   0  0  2  0  0  0  0  0  0  0  0  0
   10.1850  -17.3775   25.3146 N   0  0  0  0  0  0  0  0  0  0  0  0
    9.6477  -17.9011   27.6144 C   0  0  0  0  0  0  0  0  0  0  0  0
    9.8336  -17.4646   28.9125 O   0  0  0  0  0  0  0  0  0  0  0  0
    8.5978  -14.4560   26.8297 C   0  0  0  0  0  0  0  0  0  0  0  0
    8.2170  -13.1452   26.9820 C   0  0  0  0  0  0  0  0  0  0  0  0
    9.6259  -19.1371   27.4201 O   0  0  0  0  0  0  0  0  0  0  0  0
  2  1  1  0
  3  2  1  0
  3  4  1  1
  5  3  1  0
  5  6  1  6
  7  8  2  0
  7  5  1  0
  9 10  1  0
 10 11  2  0
 10 12  1  0
 13 12  1  6
 13 14  1  0
 14  7  1  0
 15 24  1  0
 15 13  1  0
 16 15  2  0
 17 18  1  0
 18 28  2  0
 19 20  2  0
 19 18  1  0
 20 21  1  0
 21 22  1  0
 21 27  2  0
 23 22  1  6
 23 25  1  0
 23 24  1  0
 25 26  1  0
 28 27  1  0
 29 25  2  0
M  END
$$$$
