INY.pdb
     RDKit          3D

 29 29  0  0  1  0  0  0  0  0999 V2000
    7.4212  -11.7961   20.5537 C   0  0  0  0  0  0  0  0  0  0  0  0
    7.5553  -13.2247   20.1491 C   0  0  0  0  0  0  0  0  0  0  0  0
    9.0016  -13.6582   19.9398 C   0  0  2  0  0  0  0  0  0  0  0  0
    9.4959  -12.8322   18.7437 C   0  0  0  0  0  0  0  0  0  0  0  0
    8.9800  -15.0820   19.4921 C   0  0  2  0  0  0  0  0  0  0  0  0
    8.1338  -15.3533   18.3705 N   0  0  0  0  0  0  0  0  0  0  0  0
    8.5682  -16.0048   20.5944 C   0  0  0  0  0  0  0  0  0  0  0  0
    7.3836  -16.3802   20.7605 O   0  0  0  0  0  0  0  0  0  0  0  0
    7.9087  -20.0136   21.0379 N   0  0  0  0  0  0  0  0  0  0  0  0
    9.1807  -19.4578   21.1853 C   0  0  0  0  0  0  0  0  0  0  0  0
    9.9433  -19.5131   20.1638 O   0  0  0  0  0  0  0  0  0  0  0  0
    9.6608  -18.8208   22.4607 C   0  0  0  0  0  0  0  0  0  0  0  0
    9.1416  -17.4405   22.5419 C   0  0  2  0  0  0  0  0  0  0  0  0
    9.4919  -16.5249   21.5368 N   0  0  0  0  0  0  0  0  0  0  0  0
    9.5210  -16.8763   23.8624 C   0  0  0  0  0  0  0  0  0  0  0  0
   10.5795  -16.2137   23.9492 O   0  0  0  0  0  0  0  0  0  0  0  0
    6.2271  -11.1760   25.9265 O   0  0  0  0  0  0  0  0  0  0  0  0
    6.6449  -12.4630   26.2292 C   0  0  0  0  0  0  0  0  0  0  0  0
    5.8692  -13.5580   25.9452 C   0  0  0  0  0  0  0  0  0  0  0  0
    6.3363  -14.8107   26.2689 C   0  0  0  0  0  0  0  0  0  0  0  0
    7.5670  -14.9371   26.8686 C   0  0  0  0  0  0  0  0  0  0  0  0
    8.0374  -16.3041   27.2049 C   0  0  0  0  0  0  0  0  0  0  0  0
    9.2298  -16.6089   26.3293 C   0  0  2  0  0  0  0  0  0  0  0  0
    8.7473  -17.0459   25.0410 N   0  0  0  0  0  0  0  0  0  0  0  0
   10.0913  -17.6708   26.9529 C   0  0  0  0  0  0  0  0  0  0  0  0
   10.8383  -17.4038   28.0846 O   0  0  0  0  0  0  0  0  0  0  0  0
    8.3621  -13.8501   27.1627 C   0  0  0  0  0  0  0  0  0  0  0  0
    7.8791  -12.6077   26.8320 C   0  0  0  0  0  0  0  0  0  0  0  0
   10.1629  -18.8249   26.4747 O   0  0  0  0  0  0  0  0  0  0  0  0
  2  1  1  0
  3  2  1  0
  3  4  1  6
  5  3  1  0
  5  6  1  6
  7  8  2  0
  7  5  1  0
  9 10  1  0
 10 11  2  0
 10 12  1  0
 13 12  1  6
 13 14  1  0
 14  7  1  0
 15 24  1  0
 15 13  1  0
 16 15  2  0
 17 18  1  0
 18 28  2  0
 19 20  2  0
 19 18  1  0
 20 21  1  0
 21 22  1  0
 21 27  2  0
 23 22  1  1
 23 25  1  0
 23 24  1  0
 25 26  1  0
 28 27  1  0
 29 25  2  0
M  END
$$$$
