IPY.pdb
     RDKit          3D

 28 29  0  0  1  0  0  0  0  0999 V2000
    6.9265  -17.8022   22.8794 C   0  0  0  0  0  0  0  0  0  0  0  0
    7.6257  -16.5086   22.6263 C   0  0  0  0  0  0  0  0  0  0  0  0
    6.7757  -15.2902   22.5414 C   0  0  2  0  0  0  0  0  0  0  0  0
    5.9006  -15.4710   21.2977 C   0  0  0  0  0  0  0  0  0  0  0  0
    7.6454  -14.0500   22.3806 C   0  0  2  0  0  0  0  0  0  0  0  0
    8.4167  -14.1496   21.2069 N   0  0  0  0  0  0  0  0  0  0  0  0
    8.4802  -13.8186   23.5768 C   0  0  0  0  0  0  0  0  0  0  0  0
    9.7548  -13.8563   23.3295 O   0  0  0  0  0  0  0  0  0  0  0  0
    8.0248  -13.5784   24.8749 N   0  0  0  0  0  0  0  0  0  0  0  0
    6.5673  -13.4127   25.1423 C   0  0  0  0  0  0  0  0  0  0  0  0
    6.4700  -12.6087   26.3992 C   0  0  0  0  0  0  0  0  0  0  0  0
    7.8758  -12.3481   26.8291 C   0  0  0  0  0  0  0  0  0  0  0  0
    8.6940  -13.4294   26.1107 C   0  0  1  0  0  0  0  0  0  0  0  0
    8.8048  -14.6353   26.9481 C   0  0  0  0  0  0  0  0  0  0  0  0
    7.7311  -15.1806   27.3108 O   0  0  0  0  0  0  0  0  0  0  0  0
   15.2258  -15.5147   24.2317 O   0  0  0  0  0  0  0  0  0  0  0  0
   14.1049  -16.0071   24.9046 C   0  0  0  0  0  0  0  0  0  0  0  0
   12.9468  -16.3428   24.2289 C   0  0  0  0  0  0  0  0  0  0  0  0
   11.8307  -16.8313   24.8837 C   0  0  0  0  0  0  0  0  0  0  0  0
   11.8225  -17.0080   26.2597 C   0  0  0  0  0  0  0  0  0  0  0  0
   10.6337  -17.5424   26.9687 C   0  0  0  0  0  0  0  0  0  0  0  0
   10.0216  -16.5972   27.9417 C   0  0  2  0  0  0  0  0  0  0  0  0
   10.0113  -15.2388   27.3843 N   0  0  0  0  0  0  0  0  0  0  0  0
   10.6759  -16.6526   29.2491 C   0  0  0  0  0  0  0  0  0  0  0  0
   11.2135  -15.5187   29.8236 O   0  0  0  0  0  0  0  0  0  0  0  0
   12.9872  -16.6681   26.9227 C   0  0  0  0  0  0  0  0  0  0  0  0
   14.0974  -16.1825   26.2708 C   0  0  0  0  0  0  0  0  0  0  0  0
   10.7572  -17.7353   29.8661 O   0  0  0  0  0  0  0  0  0  0  0  0
  1  2  1  0
  2  3  1  0
  3  4  1  6
  5  3  1  0
  5  6  1  6
  7  9  1  0
  7  5  1  0
  8  7  2  0
  9 10  1  0
 10 11  1  0
 12 11  1  0
 13  9  1  0
 13 12  1  0
 13 14  1  1
 15 14  2  0
 16 17  1  0
 17 18  2  0
 18 19  1  0
 20 19  2  0
 20 21  1  0
 22 21  1  6
 22 24  1  0
 22 23  1  0
 23 14  1  0
 24 25  1  0
 26 20  1  0
 27 17  1  0
 27 26  2  0
 28 24  2  0
M  END
$$$$
