IPY.pdb
     RDKit          3D

 28 29  0  0  1  0  0  0  0  0999 V2000
    7.0056  -12.3761   25.7377 C   0  0  0  0  0  0  0  0  0  0  0  0
    6.7958  -13.6117   24.9280 C   0  0  0  0  0  0  0  0  0  0  0  0
    6.2820  -14.8083   25.6478 C   0  0  2  0  0  0  0  0  0  0  0  0
    7.3769  -15.2064   26.6417 C   0  0  0  0  0  0  0  0  0  0  0  0
    6.0387  -15.9494   24.6685 C   0  0  2  0  0  0  0  0  0  0  0  0
    5.5384  -17.0741   25.3518 N   0  0  0  0  0  0  0  0  0  0  0  0
    7.2569  -16.2647   23.8952 C   0  0  0  0  0  0  0  0  0  0  0  0
    7.8002  -17.3959   24.2304 O   0  0  0  0  0  0  0  0  0  0  0  0
    7.8314  -15.4809   22.8924 N   0  0  0  0  0  0  0  0  0  0  0  0
    7.3794  -14.0754   22.6842 C   0  0  0  0  0  0  0  0  0  0  0  0
    7.7017  -13.7476   21.2615 C   0  0  0  0  0  0  0  0  0  0  0  0
    8.3460  -14.9695   20.6950 C   0  0  0  0  0  0  0  0  0  0  0  0
    8.8307  -15.7436   21.9282 C   0  0  1  0  0  0  0  0  0  0  0  0
   10.2044  -15.3475   22.2800 C   0  0  0  0  0  0  0  0  0  0  0  0
   10.5615  -14.1827   21.9678 O   0  0  0  0  0  0  0  0  0  0  0  0
   11.4273  -14.7337   30.6935 O   0  0  0  0  0  0  0  0  0  0  0  0
   11.1558  -14.9848   29.3463 C   0  0  0  0  0  0  0  0  0  0  0  0
   11.0929  -13.9612   28.4195 C   0  0  0  0  0  0  0  0  0  0  0  0
   10.8251  -14.1970   27.0831 C   0  0  0  0  0  0  0  0  0  0  0  0
   10.6054  -15.4818   26.6082 C   0  0  0  0  0  0  0  0  0  0  0  0
   10.3291  -15.7448   25.1743 C   0  0  0  0  0  0  0  0  0  0  0  0
   11.5460  -15.9007   24.3319 C   0  0  2  0  0  0  0  0  0  0  0  0
   11.1628  -16.1588   22.9382 N   0  0  0  0  0  0  0  0  0  0  0  0
   12.4498  -16.9255   24.8549 C   0  0  0  0  0  0  0  0  0  0  0  0
   12.1692  -18.2677   24.6983 O   0  0  0  0  0  0  0  0  0  0  0  0
   10.6711  -16.4956   27.5459 C   0  0  0  0  0  0  0  0  0  0  0  0
   10.9379  -16.2606   28.8751 C   0  0  0  0  0  0  0  0  0  0  0  0
   13.4945  -16.5958   25.4544 O   0  0  0  0  0  0  0  0  0  0  0  0
  1  2  1  0
  2  3  1  0
  3  4  1  1
  5  3  1  0
  5  6  1  1
  7  9  1  0
  7  5  1  0
  8  7  2  0
  9 10  1  0
 10 11  1  0
 12 11  1  0
 13  9  1  0
 13 12  1  0
 13 14  1  1
 15 14  2  0
 16 17  1  0
 17 18  2  0
 18 19  1  0
 20 19  2  0
 20 21  1  0
 22 21  1  1
 22 24  1  0
 22 23  1  0
 23 14  1  0
 24 25  1  0
 26 20  1  0
 27 17  1  0
 27 26  2  0
 28 24  2  0
M  END
$$$$
