IPY.pdb
     RDKit          3D

 28 29  0  0  1  0  0  0  0  0999 V2000
    6.8873  -19.8617   23.7134 C   0  0  0  0  0  0  0  0  0  0  0  0
    7.2188  -19.3450   22.3534 C   0  0  0  0  0  0  0  0  0  0  0  0
    6.2058  -18.4724   21.7003 C   0  0  2  0  0  0  0  0  0  0  0  0
    5.0168  -19.3791   21.3696 C   0  0  0  0  0  0  0  0  0  0  0  0
    6.7702  -17.8780   20.4164 C   0  0  2  0  0  0  0  0  0  0  0  0
    7.1368  -18.9069   19.5280 N   0  0  0  0  0  0  0  0  0  0  0  0
    7.8918  -16.9586   20.6958 C   0  0  0  0  0  0  0  0  0  0  0  0
    9.0264  -17.3709   20.2165 O   0  0  0  0  0  0  0  0  0  0  0  0
    7.8236  -15.7527   21.3967 N   0  0  0  0  0  0  0  0  0  0  0  0
    6.5072  -15.2197   21.8508 C   0  0  0  0  0  0  0  0  0  0  0  0
    6.6903  -13.7427   21.9938 C   0  0  0  0  0  0  0  0  0  0  0  0
    8.1131  -13.4690   21.6335 C   0  0  0  0  0  0  0  0  0  0  0  0
    8.8101  -14.8257   21.8026 C   0  0  1  0  0  0  0  0  0  0  0  0
    9.3273  -14.9736   23.1731 C   0  0  0  0  0  0  0  0  0  0  0  0
   10.3042  -14.2507   23.4971 O   0  0  0  0  0  0  0  0  0  0  0  0
    6.4315  -10.3855   27.0761 O   0  0  0  0  0  0  0  0  0  0  0  0
    6.9014  -11.6941   26.9414 C   0  0  0  0  0  0  0  0  0  0  0  0
    8.2532  -11.9818   26.9646 C   0  0  0  0  0  0  0  0  0  0  0  0
    8.7309  -13.2732   26.8324 C   0  0  0  0  0  0  0  0  0  0  0  0
    7.8681  -14.3471   26.6690 C   0  0  0  0  0  0  0  0  0  0  0  0
    8.3714  -15.7368   26.5381 C   0  0  0  0  0  0  0  0  0  0  0  0
    9.4244  -15.9145   25.5016 C   0  0  2  0  0  0  0  0  0  0  0  0
    8.8258  -15.8570   24.1621 N   0  0  0  0  0  0  0  0  0  0  0  0
   10.1991  -17.1383   25.7082 C   0  0  0  0  0  0  0  0  0  0  0  0
   10.9953  -17.2957   26.8245 O   0  0  0  0  0  0  0  0  0  0  0  0
    6.5192  -14.0449   26.6475 C   0  0  0  0  0  0  0  0  0  0  0  0
    6.0444  -12.7602   26.7794 C   0  0  0  0  0  0  0  0  0  0  0  0
   10.1496  -18.0627   24.8701 O   0  0  0  0  0  0  0  0  0  0  0  0
  1  2  1  0
  2  3  1  0
  3  4  1  6
  5  3  1  0
  5  6  1  6
  7  9  1  0
  7  5  1  0
  8  7  2  0
  9 10  1  0
 10 11  1  0
 12 11  1  0
 13  9  1  0
 13 12  1  0
 13 14  1  1
 15 14  2  0
 16 17  1  0
 17 18  2  0
 18 19  1  0
 20 19  2  0
 20 21  1  0
 22 21  1  1
 22 24  1  0
 22 23  1  0
 23 14  1  0
 24 25  1  0
 26 20  1  0
 27 17  1  0
 27 26  2  0
 28 24  2  0
M  END
$$$$
