IPY.pdb
     RDKit          3D

 28 29  0  0  1  0  0  0  0  0999 V2000
    8.9325  -12.7507   26.7958 C   0  0  0  0  0  0  0  0  0  0  0  0
    8.1129  -13.9567   26.4795 C   0  0  0  0  0  0  0  0  0  0  0  0
    6.9667  -13.7659   25.5501 C   0  0  2  0  0  0  0  0  0  0  0  0
    5.9431  -12.9171   26.3097 C   0  0  0  0  0  0  0  0  0  0  0  0
    6.3504  -15.1113   25.1889 C   0  0  2  0  0  0  0  0  0  0  0  0
    6.1273  -15.8690   26.3544 N   0  0  0  0  0  0  0  0  0  0  0  0
    7.1785  -15.8363   24.2041 C   0  0  0  0  0  0  0  0  0  0  0  0
    7.3476  -17.0901   24.4982 O   0  0  0  0  0  0  0  0  0  0  0  0
    7.7580  -15.3024   23.0512 N   0  0  0  0  0  0  0  0  0  0  0  0
    7.4685  -13.8973   22.6450 C   0  0  0  0  0  0  0  0  0  0  0  0
    7.7059  -13.8397   21.1700 C   0  0  0  0  0  0  0  0  0  0  0  0
    8.1419  -15.2108   20.7711 C   0  0  0  0  0  0  0  0  0  0  0  0
    8.6304  -15.8446   22.0805 C   0  0  1  0  0  0  0  0  0  0  0  0
   10.0678  -15.5905   22.2729 C   0  0  0  0  0  0  0  0  0  0  0  0
   10.5393  -14.5479   21.7509 O   0  0  0  0  0  0  0  0  0  0  0  0
   11.0163  -14.8733   30.7404 O   0  0  0  0  0  0  0  0  0  0  0  0
   10.7938  -15.1271   29.3847 C   0  0  0  0  0  0  0  0  0  0  0  0
   10.6773  -16.4168   28.9013 C   0  0  0  0  0  0  0  0  0  0  0  0
   10.4568  -16.6810   27.5616 C   0  0  0  0  0  0  0  0  0  0  0  0
   10.3417  -15.6554   26.6345 C   0  0  0  0  0  0  0  0  0  0  0  0
   10.0936  -15.9294   25.1975 C   0  0  0  0  0  0  0  0  0  0  0  0
   11.3266  -16.1127   24.3845 C   0  0  2  0  0  0  0  0  0  0  0  0
   10.9704  -16.4137   22.9923 N   0  0  0  0  0  0  0  0  0  0  0  0
   12.2184  -17.1215   24.9568 C   0  0  0  0  0  0  0  0  0  0  0  0
   13.1500  -16.7839   25.9176 O   0  0  0  0  0  0  0  0  0  0  0  0
   10.4604  -14.3709   27.1318 C   0  0  0  0  0  0  0  0  0  0  0  0
   10.6794  -14.1085   28.4647 C   0  0  0  0  0  0  0  0  0  0  0  0
   12.1474  -18.3099   24.5798 O   0  0  0  0  0  0  0  0  0  0  0  0
  1  2  1  0
  2  3  1  0
  3  4  1  1
  5  3  1  0
  5  6  1  1
  7  9  1  0
  7  5  1  0
  8  7  2  0
  9 10  1  0
 10 11  1  0
 12 11  1  0
 13  9  1  0
 13 12  1  0
 13 14  1  1
 15 14  2  0
 16 17  1  0
 17 18  2  0
 18 19  1  0
 20 19  2  0
 20 21  1  0
 22 21  1  1
 22 24  1  0
 22 23  1  0
 23 14  1  0
 24 25  1  0
 26 20  1  0
 27 17  1  0
 27 26  2  0
 28 24  2  0
M  END
$$$$
