IPY.pdb
     RDKit          3D

 28 29  0  0  1  0  0  0  0  0999 V2000
    6.9027  -11.4951   27.1070 C   0  0  0  0  0  0  0  0  0  0  0  0
    6.2644  -12.7024   26.5059 C   0  0  0  0  0  0  0  0  0  0  0  0
    7.1636  -13.6626   25.8103 C   0  0  2  0  0  0  0  0  0  0  0  0
    7.8164  -12.8790   24.6680 C   0  0  0  0  0  0  0  0  0  0  0  0
    6.3576  -14.8231   25.2412 C   0  0  2  0  0  0  0  0  0  0  0  0
    5.6464  -15.4683   26.2709 N   0  0  0  0  0  0  0  0  0  0  0  0
    7.2177  -15.7586   24.4886 C   0  0  0  0  0  0  0  0  0  0  0  0
    7.2785  -16.9422   25.0202 O   0  0  0  0  0  0  0  0  0  0  0  0
    7.9275  -15.4780   23.3192 N   0  0  0  0  0  0  0  0  0  0  0  0
    7.8849  -14.1122   22.7225 C   0  0  0  0  0  0  0  0  0  0  0  0
    8.1963  -14.2892   21.2709 C   0  0  0  0  0  0  0  0  0  0  0  0
    8.4259  -15.7515   21.0761 C   0  0  0  0  0  0  0  0  0  0  0  0
    8.7461  -16.2715   22.4839 C   0  0  1  0  0  0  0  0  0  0  0  0
   10.1952  -16.2157   22.7382 C   0  0  0  0  0  0  0  0  0  0  0  0
   10.8554  -15.3566   22.0995 O   0  0  0  0  0  0  0  0  0  0  0  0
    9.5201  -15.4524   29.8590 O   0  0  0  0  0  0  0  0  0  0  0  0
   10.1736  -15.4327   28.6244 C   0  0  0  0  0  0  0  0  0  0  0  0
    9.9420  -14.4308   27.7008 C   0  0  0  0  0  0  0  0  0  0  0  0
   10.5828  -14.4003   26.4753 C   0  0  0  0  0  0  0  0  0  0  0  0
   11.4943  -15.3817   26.1144 C   0  0  0  0  0  0  0  0  0  0  0  0
   12.1948  -15.3503   24.8067 C   0  0  0  0  0  0  0  0  0  0  0  0
   12.2537  -16.6635   24.1089 C   0  0  2  0  0  0  0  0  0  0  0  0
   10.9158  -17.0421   23.6369 N   0  0  0  0  0  0  0  0  0  0  0  0
   12.8601  -17.7025   24.9414 C   0  0  0  0  0  0  0  0  0  0  0  0
   12.1318  -18.8018   25.3491 O   0  0  0  0  0  0  0  0  0  0  0  0
   11.7161  -16.3775   27.0475 C   0  0  0  0  0  0  0  0  0  0  0  0
   11.0788  -16.4074   28.2665 C   0  0  0  0  0  0  0  0  0  0  0  0
   14.0534  -17.6067   25.2966 O   0  0  0  0  0  0  0  0  0  0  0  0
  1  2  1  0
  2  3  1  0
  3  4  1  6
  5  3  1  0
  5  6  1  1
  7  9  1  0
  7  5  1  0
  8  7  2  0
  9 10  1  0
 10 11  1  0
 12 11  1  0
 13  9  1  0
 13 12  1  0
 13 14  1  1
 15 14  2  0
 16 17  1  0
 17 18  2  0
 18 19  1  0
 20 19  2  0
 20 21  1  0
 22 21  1  1
 22 24  1  0
 22 23  1  0
 23 14  1  0
 24 25  1  0
 26 20  1  0
 27 17  1  0
 27 26  2  0
 28 24  2  0
M  END
$$$$
