IPY.pdb
     RDKit          3D

 28 29  0  0  1  0  0  0  0  0999 V2000
    7.9845  -12.2230   26.8575 C   0  0  0  0  0  0  0  0  0  0  0  0
    7.4653  -13.5646   26.4615 C   0  0  0  0  0  0  0  0  0  0  0  0
    6.4832  -13.6027   25.3443 C   0  0  2  0  0  0  0  0  0  0  0  0
    5.2251  -12.9005   25.8632 C   0  0  0  0  0  0  0  0  0  0  0  0
    6.1528  -15.0445   24.9808 C   0  0  2  0  0  0  0  0  0  0  0  0
    5.8435  -15.7771   26.1427 N   0  0  0  0  0  0  0  0  0  0  0  0
    7.2435  -15.6679   24.2041 C   0  0  0  0  0  0  0  0  0  0  0  0
    7.6047  -16.8276   24.6643 O   0  0  0  0  0  0  0  0  0  0  0  0
    7.8760  -15.1315   23.0805 N   0  0  0  0  0  0  0  0  0  0  0  0
    7.5305  -13.7613   22.6049 C   0  0  0  0  0  0  0  0  0  0  0  0
    7.8778  -13.7323   21.1510 C   0  0  0  0  0  0  0  0  0  0  0  0
    8.4296  -15.0830   20.8342 C   0  0  0  0  0  0  0  0  0  0  0  0
    8.8538  -15.6439   22.1981 C   0  0  1  0  0  0  0  0  0  0  0  0
   10.2529  -15.2901   22.4898 C   0  0  0  0  0  0  0  0  0  0  0  0
   10.6106  -14.1120   22.2328 O   0  0  0  0  0  0  0  0  0  0  0  0
   11.4684  -15.2651   30.8672 O   0  0  0  0  0  0  0  0  0  0  0  0
   11.2015  -15.4296   29.5058 C   0  0  0  0  0  0  0  0  0  0  0  0
   11.1428  -14.3491   28.6459 C   0  0  0  0  0  0  0  0  0  0  0  0
   10.8796  -14.4989   27.2962 C   0  0  0  0  0  0  0  0  0  0  0  0
   10.6607  -15.7506   26.7397 C   0  0  0  0  0  0  0  0  0  0  0  0
   10.3893  -15.9216   25.2910 C   0  0  0  0  0  0  0  0  0  0  0  0
   11.6077  -16.0843   24.4520 C   0  0  2  0  0  0  0  0  0  0  0  0
   11.2353  -16.1557   23.0335 N   0  0  0  0  0  0  0  0  0  0  0  0
   12.4143  -17.2313   24.8695 C   0  0  0  0  0  0  0  0  0  0  0  0
   11.9913  -18.5229   24.6293 O   0  0  0  0  0  0  0  0  0  0  0  0
   10.7222  -16.8222   27.6111 C   0  0  0  0  0  0  0  0  0  0  0  0
   10.9844  -16.6727   28.9536 C   0  0  0  0  0  0  0  0  0  0  0  0
   13.5039  -17.0545   25.4534 O   0  0  0  0  0  0  0  0  0  0  0  0
  1  2  1  0
  2  3  1  0
  3  4  1  1
  5  3  1  0
  5  6  1  1
  7  9  1  0
  7  5  1  0
  8  7  2  0
  9 10  1  0
 10 11  1  0
 12 11  1  0
 13  9  1  0
 13 12  1  0
 13 14  1  1
 15 14  2  0
 16 17  1  0
 17 18  2  0
 18 19  1  0
 20 19  2  0
 20 21  1  0
 22 21  1  1
 22 24  1  0
 22 23  1  0
 23 14  1  0
 24 25  1  0
 26 20  1  0
 27 17  1  0
 27 26  2  0
 28 24  2  0
M  END
$$$$
