IPY.pdb
     RDKit          3D

 28 29  0  0  1  0  0  0  0  0999 V2000
    8.6711  -12.4453   26.6445 C   0  0  0  0  0  0  0  0  0  0  0  0
    7.9451  -13.7410   26.5011 C   0  0  0  0  0  0  0  0  0  0  0  0
    6.7229  -13.7367   25.6524 C   0  0  2  0  0  0  0  0  0  0  0  0
    5.6827  -12.9095   26.4133 C   0  0  0  0  0  0  0  0  0  0  0  0
    6.2081  -15.1575   25.4611 C   0  0  2  0  0  0  0  0  0  0  0  0
    6.1216  -15.8117   26.7049 N   0  0  0  0  0  0  0  0  0  0  0  0
    7.0382  -15.9059   24.4955 C   0  0  0  0  0  0  0  0  0  0  0  0
    7.0329  -17.1888   24.6988 O   0  0  0  0  0  0  0  0  0  0  0  0
    7.7834  -15.3655   23.4454 N   0  0  0  0  0  0  0  0  0  0  0  0
    7.8132  -13.8913   23.2246 C   0  0  0  0  0  0  0  0  0  0  0  0
    8.1460  -13.6998   21.7796 C   0  0  0  0  0  0  0  0  0  0  0  0
    8.3149  -15.0706   21.2126 C   0  0  0  0  0  0  0  0  0  0  0  0
    8.5830  -15.9531   22.4391 C   0  0  1  0  0  0  0  0  0  0  0  0
   10.0277  -16.0347   22.7111 C   0  0  0  0  0  0  0  0  0  0  0  0
   10.7799  -15.2850   22.0374 O   0  0  0  0  0  0  0  0  0  0  0  0
   10.2184  -15.6008   30.1950 O   0  0  0  0  0  0  0  0  0  0  0  0
   10.6915  -15.5409   28.8819 C   0  0  0  0  0  0  0  0  0  0  0  0
   11.5562  -16.4963   28.3819 C   0  0  0  0  0  0  0  0  0  0  0  0
   12.0314  -16.4482   27.0837 C   0  0  0  0  0  0  0  0  0  0  0  0
   11.6591  -15.4305   26.2176 C   0  0  0  0  0  0  0  0  0  0  0  0
   12.1549  -15.3776   24.8201 C   0  0  0  0  0  0  0  0  0  0  0  0
   12.0410  -16.6626   24.0781 C   0  0  2  0  0  0  0  0  0  0  0  0
   10.6498  -16.8816   23.6628 N   0  0  0  0  0  0  0  0  0  0  0  0
   12.5723  -17.7898   24.8447 C   0  0  0  0  0  0  0  0  0  0  0  0
   11.7818  -18.8803   25.1459 O   0  0  0  0  0  0  0  0  0  0  0  0
   10.7942  -14.4819   26.7310 C   0  0  0  0  0  0  0  0  0  0  0  0
   10.3214  -14.5304   28.0222 C   0  0  0  0  0  0  0  0  0  0  0  0
   13.7570  -17.7789   25.2396 O   0  0  0  0  0  0  0  0  0  0  0  0
  1  2  1  0
  2  3  1  0
  3  4  1  1
  5  3  1  0
  5  6  1  1
  7  9  1  0
  7  5  1  0
  8  7  2  0
  9 10  1  0
 10 11  1  0
 12 11  1  0
 13  9  1  0
 13 12  1  0
 13 14  1  1
 15 14  2  0
 16 17  1  0
 17 18  2  0
 18 19  1  0
 20 19  2  0
 20 21  1  0
 22 21  1  1
 22 24  1  0
 22 23  1  0
 23 14  1  0
 24 25  1  0
 26 20  1  0
 27 17  1  0
 27 26  2  0
 28 24  2  0
M  END
$$$$
