IPY.pdb
     RDKit          3D

 28 29  0  0  1  0  0  0  0  0999 V2000
    5.8455  -11.6268   26.8342 C   0  0  0  0  0  0  0  0  0  0  0  0
    5.4848  -12.8856   26.1187 C   0  0  0  0  0  0  0  0  0  0  0  0
    6.6082  -13.6935   25.5714 C   0  0  2  0  0  0  0  0  0  0  0  0
    7.3481  -12.7791   24.5908 C   0  0  0  0  0  0  0  0  0  0  0  0
    6.0707  -14.9114   24.8311 C   0  0  2  0  0  0  0  0  0  0  0  0
    5.3295  -15.7233   25.7107 N   0  0  0  0  0  0  0  0  0  0  0  0
    7.1562  -15.6595   24.1650 C   0  0  0  0  0  0  0  0  0  0  0  0
    7.5280  -16.7180   24.8196 O   0  0  0  0  0  0  0  0  0  0  0  0
    7.7740  -15.3292   22.9571 N   0  0  0  0  0  0  0  0  0  0  0  0
    7.4442  -14.0484   22.2687 C   0  0  0  0  0  0  0  0  0  0  0  0
    7.7602  -14.2663   20.8237 C   0  0  0  0  0  0  0  0  0  0  0  0
    8.2793  -15.6626   20.7236 C   0  0  0  0  0  0  0  0  0  0  0  0
    8.7225  -16.0011   22.1532 C   0  0  1  0  0  0  0  0  0  0  0  0
   10.1341  -15.6354   22.3568 C   0  0  0  0  0  0  0  0  0  0  0  0
   10.5033  -14.5149   21.9210 O   0  0  0  0  0  0  0  0  0  0  0  0
   11.2591  -14.8375   30.7340 O   0  0  0  0  0  0  0  0  0  0  0  0
   11.0204  -15.1332   29.3897 C   0  0  0  0  0  0  0  0  0  0  0  0
   10.8334  -16.4331   28.9586 C   0  0  0  0  0  0  0  0  0  0  0  0
   10.5962  -16.7386   27.6306 C   0  0  0  0  0  0  0  0  0  0  0  0
   10.5348  -15.7465   26.6629 C   0  0  0  0  0  0  0  0  0  0  0  0
   10.2693  -16.0643   25.2381 C   0  0  0  0  0  0  0  0  0  0  0  0
   11.4912  -16.1903   24.3981 C   0  0  2  0  0  0  0  0  0  0  0  0
   11.1165  -16.4307   22.9988 N   0  0  0  0  0  0  0  0  0  0  0  0
   12.4066  -17.2115   24.9078 C   0  0  0  0  0  0  0  0  0  0  0  0
   13.5233  -16.8633   25.6403 O   0  0  0  0  0  0  0  0  0  0  0  0
   10.7238  -14.4513   27.1081 C   0  0  0  0  0  0  0  0  0  0  0  0
   10.9593  -14.1477   28.4293 C   0  0  0  0  0  0  0  0  0  0  0  0
   12.1874  -18.4204   24.6842 O   0  0  0  0  0  0  0  0  0  0  0  0
  1  2  1  0
  2  3  1  0
  3  4  1  6
  5  3  1  0
  5  6  1  1
  7  9  1  0
  7  5  1  0
  8  7  2  0
  9 10  1  0
 10 11  1  0
 12 11  1  0
 13  9  1  0
 13 12  1  0
 13 14  1  1
 15 14  2  0
 16 17  1  0
 17 18  2  0
 18 19  1  0
 20 19  2  0
 20 21  1  0
 22 21  1  1
 22 24  1  0
 22 23  1  0
 23 14  1  0
 24 25  1  0
 26 20  1  0
 27 17  1  0
 27 26  2  0
 28 24  2  0
M  END
$$$$
