IPY.pdb
     RDKit          3D

 28 29  0  0  1  0  0  0  0  0999 V2000
    6.4067  -11.2544   26.7505 C   0  0  0  0  0  0  0  0  0  0  0  0
    5.9426  -12.5974   26.2952 C   0  0  0  0  0  0  0  0  0  0  0  0
    6.9798  -13.5230   25.7645 C   0  0  2  0  0  0  0  0  0  0  0  0
    7.6504  -12.7850   24.6024 C   0  0  0  0  0  0  0  0  0  0  0  0
    6.3326  -14.8038   25.2535 C   0  0  2  0  0  0  0  0  0  0  0  0
    5.6667  -15.4616   26.3053 N   0  0  0  0  0  0  0  0  0  0  0  0
    7.3195  -15.6775   24.5872 C   0  0  0  0  0  0  0  0  0  0  0  0
    7.5057  -16.8059   25.2029 O   0  0  0  0  0  0  0  0  0  0  0  0
    8.0243  -15.3936   23.4156 N   0  0  0  0  0  0  0  0  0  0  0  0
    7.8914  -14.0600   22.7620 C   0  0  0  0  0  0  0  0  0  0  0  0
    8.2362  -14.2727   21.3228 C   0  0  0  0  0  0  0  0  0  0  0  0
    8.5742  -15.7210   21.1918 C   0  0  0  0  0  0  0  0  0  0  0  0
    8.9105  -16.1584   22.6237 C   0  0  1  0  0  0  0  0  0  0  0  0
   10.3478  -15.9865   22.8925 C   0  0  0  0  0  0  0  0  0  0  0  0
   10.9629  -15.1399   22.1949 O   0  0  0  0  0  0  0  0  0  0  0  0
    8.9516  -14.7305   29.3560 O   0  0  0  0  0  0  0  0  0  0  0  0
    9.8962  -15.1918   28.4358 C   0  0  0  0  0  0  0  0  0  0  0  0
   10.1955  -16.5363   28.3210 C   0  0  0  0  0  0  0  0  0  0  0  0
   11.1285  -17.0054   27.4139 C   0  0  0  0  0  0  0  0  0  0  0  0
   11.8120  -16.1408   26.5714 C   0  0  0  0  0  0  0  0  0  0  0  0
   12.8058  -16.6366   25.5874 C   0  0  0  0  0  0  0  0  0  0  0  0
   12.4874  -16.3058   24.1718 C   0  0  2  0  0  0  0  0  0  0  0  0
   11.1033  -16.6883   23.8655 N   0  0  0  0  0  0  0  0  0  0  0  0
   13.4442  -16.9013   23.2388 C   0  0  0  0  0  0  0  0  0  0  0  0
   13.0445  -17.8504   22.3200 O   0  0  0  0  0  0  0  0  0  0  0  0
   11.5028  -14.7992   26.6971 C   0  0  0  0  0  0  0  0  0  0  0  0
   10.5744  -14.3330   27.5993 C   0  0  0  0  0  0  0  0  0  0  0  0
   14.6440  -16.5558   23.2628 O   0  0  0  0  0  0  0  0  0  0  0  0
  1  2  1  0
  2  3  1  0
  3  4  1  6
  5  3  1  0
  5  6  1  1
  7  9  1  0
  7  5  1  0
  8  7  2  0
  9 10  1  0
 10 11  1  0
 12 11  1  0
 13  9  1  0
 13 12  1  0
 13 14  1  1
 15 14  2  0
 16 17  1  0
 17 18  2  0
 18 19  1  0
 20 19  2  0
 20 21  1  0
 22 21  1  1
 22 24  1  0
 22 23  1  0
 23 14  1  0
 24 25  1  0
 26 20  1  0
 27 17  1  0
 27 26  2  0
 28 24  2  0
M  END
$$$$
