IPY.pdb
     RDKit          3D

 28 29  0  0  1  0  0  0  0  0999 V2000
    5.7284  -11.1530   26.1002 C   0  0  0  0  0  0  0  0  0  0  0  0
    5.3998  -12.5951   25.9038 C   0  0  0  0  0  0  0  0  0  0  0  0
    6.5003  -13.4770   25.4290 C   0  0  2  0  0  0  0  0  0  0  0  0
    7.0405  -12.8284   24.1513 C   0  0  0  0  0  0  0  0  0  0  0  0
    5.9633  -14.8666   25.1112 C   0  0  2  0  0  0  0  0  0  0  0  0
    5.3630  -15.4259   26.2554 N   0  0  0  0  0  0  0  0  0  0  0  0
    7.0183  -15.7376   24.5545 C   0  0  0  0  0  0  0  0  0  0  0  0
    7.1078  -16.8854   25.1559 O   0  0  0  0  0  0  0  0  0  0  0  0
    7.8743  -15.4330   23.4942 N   0  0  0  0  0  0  0  0  0  0  0  0
    7.9484  -14.0419   22.9626 C   0  0  0  0  0  0  0  0  0  0  0  0
    8.4292  -14.1670   21.5524 C   0  0  0  0  0  0  0  0  0  0  0  0
    8.6344  -15.6270   21.3171 C   0  0  0  0  0  0  0  0  0  0  0  0
    8.7633  -16.2193   22.7269 C   0  0  1  0  0  0  0  0  0  0  0  0
   10.1715  -16.2288   23.1567 C   0  0  0  0  0  0  0  0  0  0  0  0
   11.0098  -15.7017   22.3813 O   0  0  0  0  0  0  0  0  0  0  0  0
    8.5611  -13.9065   29.4808 O   0  0  0  0  0  0  0  0  0  0  0  0
    9.4541  -14.6229   28.6803 C   0  0  0  0  0  0  0  0  0  0  0  0
   10.6665  -14.0850   28.2914 C   0  0  0  0  0  0  0  0  0  0  0  0
   11.5591  -14.7843   27.4992 C   0  0  0  0  0  0  0  0  0  0  0  0
   11.2758  -16.0676   27.0551 C   0  0  0  0  0  0  0  0  0  0  0  0
   12.2326  -16.8293   26.2148 C   0  0  0  0  0  0  0  0  0  0  0  0
   12.0766  -16.6087   24.7513 C   0  0  2  0  0  0  0  0  0  0  0  0
   10.6702  -16.7782   24.3647 N   0  0  0  0  0  0  0  0  0  0  0  0
   12.9712  -17.4608   23.9677 C   0  0  0  0  0  0  0  0  0  0  0  0
   12.4700  -18.4211   23.1126 O   0  0  0  0  0  0  0  0  0  0  0  0
   10.0600  -16.5931   27.4513 C   0  0  0  0  0  0  0  0  0  0  0  0
    9.1725  -15.8972   28.2397 C   0  0  0  0  0  0  0  0  0  0  0  0
   14.2093  -17.3289   24.0641 O   0  0  0  0  0  0  0  0  0  0  0  0
  1  2  1  0
  2  3  1  0
  3  4  1  6
  5  3  1  0
  5  6  1  1
  7  9  1  0
  7  5  1  0
  8  7  2  0
  9 10  1  0
 10 11  1  0
 12 11  1  0
 13  9  1  0
 13 12  1  0
 13 14  1  1
 15 14  2  0
 16 17  1  0
 17 18  2  0
 18 19  1  0
 20 19  2  0
 20 21  1  0
 22 21  1  1
 22 24  1  0
 22 23  1  0
 23 14  1  0
 24 25  1  0
 26 20  1  0
 27 17  1  0
 27 26  2  0
 28 24  2  0
M  END
$$$$
