IPY.pdb
     RDKit          3D

 28 29  0  0  1  0  0  0  0  0999 V2000
    6.7168  -11.9584   27.2729 C   0  0  0  0  0  0  0  0  0  0  0  0
    6.1357  -12.9832   26.3573 C   0  0  0  0  0  0  0  0  0  0  0  0
    7.0937  -13.8877   25.6658 C   0  0  2  0  0  0  0  0  0  0  0  0
    7.8722  -13.0079   24.6835 C   0  0  0  0  0  0  0  0  0  0  0  0
    6.3409  -14.9685   24.9007 C   0  0  2  0  0  0  0  0  0  0  0  0
    5.5877  -15.7560   25.7923 N   0  0  0  0  0  0  0  0  0  0  0  0
    7.2572  -15.7830   24.0770 C   0  0  0  0  0  0  0  0  0  0  0  0
    7.4316  -16.9850   24.5375 O   0  0  0  0  0  0  0  0  0  0  0  0
    7.9101  -15.3773   22.9112 N   0  0  0  0  0  0  0  0  0  0  0  0
    7.6025  -14.0533   22.2983 C   0  0  0  0  0  0  0  0  0  0  0  0
    7.9597  -14.1782   20.8519 C   0  0  0  0  0  0  0  0  0  0  0  0
    8.4788  -15.5669   20.6761 C   0  0  0  0  0  0  0  0  0  0  0  0
    8.8801  -15.9991   22.0928 C   0  0  1  0  0  0  0  0  0  0  0  0
   10.2859  -15.6526   22.3601 C   0  0  0  0  0  0  0  0  0  0  0  0
   10.7054  -14.5632   21.8922 O   0  0  0  0  0  0  0  0  0  0  0  0
   11.0366  -14.8478   30.8329 O   0  0  0  0  0  0  0  0  0  0  0  0
   10.8527  -15.1051   29.4721 C   0  0  0  0  0  0  0  0  0  0  0  0
   10.8051  -16.3964   28.9815 C   0  0  0  0  0  0  0  0  0  0  0  0
   10.6234  -16.6641   27.6367 C   0  0  0  0  0  0  0  0  0  0  0  0
   10.4797  -15.6405   26.7115 C   0  0  0  0  0  0  0  0  0  0  0  0
   10.2728  -15.9188   25.2688 C   0  0  0  0  0  0  0  0  0  0  0  0
   11.5281  -16.1182   24.4947 C   0  0  2  0  0  0  0  0  0  0  0  0
   11.2113  -16.4346   23.0963 N   0  0  0  0  0  0  0  0  0  0  0  0
   12.3972  -17.1244   25.1052 C   0  0  0  0  0  0  0  0  0  0  0  0
   12.2521  -18.4642   24.8072 O   0  0  0  0  0  0  0  0  0  0  0  0
   10.5294  -14.3542   27.2159 C   0  0  0  0  0  0  0  0  0  0  0  0
   10.7098  -14.0884   28.5539 C   0  0  0  0  0  0  0  0  0  0  0  0
   13.2879  -16.7808   25.9102 O   0  0  0  0  0  0  0  0  0  0  0  0
  1  2  1  0
  2  3  1  0
  3  4  1  6
  5  3  1  0
  5  6  1  1
  7  9  1  0
  7  5  1  0
  8  7  2  0
  9 10  1  0
 10 11  1  0
 12 11  1  0
 13  9  1  0
 13 12  1  0
 13 14  1  1
 15 14  2  0
 16 17  1  0
 17 18  2  0
 18 19  1  0
 20 19  2  0
 20 21  1  0
 22 21  1  1
 22 24  1  0
 22 23  1  0
 23 14  1  0
 24 25  1  0
 26 20  1  0
 27 17  1  0
 27 26  2  0
 28 24  2  0
M  END
$$$$
