IPY.pdb
     RDKit          3D

 28 29  0  0  1  0  0  0  0  0999 V2000
    6.4891  -11.4795   26.7219 C   0  0  0  0  0  0  0  0  0  0  0  0
    5.9351  -12.7630   26.2002 C   0  0  0  0  0  0  0  0  0  0  0  0
    6.9025  -13.7132   25.5875 C   0  0  2  0  0  0  0  0  0  0  0  0
    7.5676  -12.9552   24.4350 C   0  0  0  0  0  0  0  0  0  0  0  0
    6.1711  -14.9339   25.0440 C   0  0  2  0  0  0  0  0  0  0  0  0
    5.4906  -15.5929   26.0856 N   0  0  0  0  0  0  0  0  0  0  0  0
    7.0911  -15.8362   24.3223 C   0  0  0  0  0  0  0  0  0  0  0  0
    7.1670  -17.0214   24.8485 O   0  0  0  0  0  0  0  0  0  0  0  0
    7.8400  -15.5246   23.1856 N   0  0  0  0  0  0  0  0  0  0  0  0
    7.8445  -14.1350   22.6451 C   0  0  0  0  0  0  0  0  0  0  0  0
    8.1931  -14.2596   21.1966 C   0  0  0  0  0  0  0  0  0  0  0  0
    8.3960  -15.7177   20.9477 C   0  0  0  0  0  0  0  0  0  0  0  0
    8.6643  -16.3020   22.3410 C   0  0  1  0  0  0  0  0  0  0  0  0
   10.1065  -16.2903   22.6373 C   0  0  0  0  0  0  0  0  0  0  0  0
   10.8923  -16.2966   21.6554 O   0  0  0  0  0  0  0  0  0  0  0  0
    9.6257  -16.0285   30.0839 O   0  0  0  0  0  0  0  0  0  0  0  0
   10.2945  -15.7893   28.8809 C   0  0  0  0  0  0  0  0  0  0  0  0
   10.0154  -14.6776   28.1084 C   0  0  0  0  0  0  0  0  0  0  0  0
   10.6707  -14.4296   26.9158 C   0  0  0  0  0  0  0  0  0  0  0  0
   11.6456  -15.2924   26.4366 C   0  0  0  0  0  0  0  0  0  0  0  0
   12.3617  -15.0280   25.1642 C   0  0  0  0  0  0  0  0  0  0  0  0
   12.1318  -16.0485   24.1056 C   0  0  2  0  0  0  0  0  0  0  0  0
   10.6917  -16.2732   23.9285 N   0  0  0  0  0  0  0  0  0  0  0  0
   12.8559  -17.2914   24.3728 C   0  0  0  0  0  0  0  0  0  0  0  0
   12.1818  -18.4826   24.5505 O   0  0  0  0  0  0  0  0  0  0  0  0
   11.9144  -16.4000   27.2191 C   0  0  0  0  0  0  0  0  0  0  0  0
   11.2625  -16.6461   28.4056 C   0  0  0  0  0  0  0  0  0  0  0  0
   14.1026  -17.2898   24.4444 O   0  0  0  0  0  0  0  0  0  0  0  0
  1  2  1  0
  2  3  1  0
  3  4  1  6
  5  3  1  0
  5  6  1  1
  7  9  1  0
  7  5  1  0
  8  7  2  0
  9 10  1  0
 10 11  1  0
 12 11  1  0
 13  9  1  0
 13 12  1  0
 13 14  1  1
 15 14  2  0
 16 17  1  0
 17 18  2  0
 18 19  1  0
 20 19  2  0
 20 21  1  0
 22 21  1  1
 22 24  1  0
 22 23  1  0
 23 14  1  0
 24 25  1  0
 26 20  1  0
 27 17  1  0
 27 26  2  0
 28 24  2  0
M  END
$$$$
