IPY.pdb
     RDKit          3D

 28 29  0  0  1  0  0  0  0  0999 V2000
    5.3169  -18.6515   21.7202 C   0  0  0  0  0  0  0  0  0  0  0  0
    6.7454  -18.3018   21.4684 C   0  0  0  0  0  0  0  0  0  0  0  0
    7.0697  -17.7136   20.1406 C   0  0  2  0  0  0  0  0  0  0  0  0
    6.8259  -18.8245   19.1151 C   0  0  0  0  0  0  0  0  0  0  0  0
    8.5310  -17.2858   20.0955 C   0  0  2  0  0  0  0  0  0  0  0  0
    9.3679  -18.4145   20.1850 N   0  0  0  0  0  0  0  0  0  0  0  0
    8.8321  -16.2858   21.1399 C   0  0  0  0  0  0  0  0  0  0  0  0
    9.7064  -16.6966   22.0083 O   0  0  0  0  0  0  0  0  0  0  0  0
    8.2769  -15.0096   21.2540 N   0  0  0  0  0  0  0  0  0  0  0  0
    7.2812  -14.5300   20.2531 C   0  0  0  0  0  0  0  0  0  0  0  0
    7.3538  -13.0370   20.2857 C   0  0  0  0  0  0  0  0  0  0  0  0
    8.3785  -12.6987   21.3175 C   0  0  0  0  0  0  0  0  0  0  0  0
    8.4702  -13.9624   22.1832 C   0  0  1  0  0  0  0  0  0  0  0  0
    7.5165  -13.8922   23.3027 C   0  0  0  0  0  0  0  0  0  0  0  0
    6.2931  -13.9488   23.0164 O   0  0  0  0  0  0  0  0  0  0  0  0
   11.8888  -15.3657   29.3421 O   0  0  0  0  0  0  0  0  0  0  0  0
   10.6645  -15.2399   28.6812 C   0  0  0  0  0  0  0  0  0  0  0  0
   10.4172  -14.1936   27.8124 C   0  0  0  0  0  0  0  0  0  0  0  0
    9.2094  -14.0582   27.1520 C   0  0  0  0  0  0  0  0  0  0  0  0
    8.1828  -14.9735   27.3330 C   0  0  0  0  0  0  0  0  0  0  0  0
    6.8884  -14.8423   26.6197 C   0  0  0  0  0  0  0  0  0  0  0  0
    6.8068  -13.6722   25.7036 C   0  0  2  0  0  0  0  0  0  0  0  0
    7.8502  -13.7658   24.6748 N   0  0  0  0  0  0  0  0  0  0  0  0
    6.8576  -12.4019   26.4276 C   0  0  0  0  0  0  0  0  0  0  0  0
    5.8081  -11.9969   27.2272 O   0  0  0  0  0  0  0  0  0  0  0  0
    8.4438  -16.0146   28.2045 C   0  0  0  0  0  0  0  0  0  0  0  0
    9.6455  -16.1491   28.8610 C   0  0  0  0  0  0  0  0  0  0  0  0
    7.8589  -11.6621   26.3298 O   0  0  0  0  0  0  0  0  0  0  0  0
  1  2  1  0
  2  3  1  0
  3  4  1  6
  5  3  1  0
  5  6  1  1
  7  9  1  0
  7  5  1  0
  8  7  2  0
  9 10  1  0
 10 11  1  0
 12 11  1  0
 13  9  1  0
 13 12  1  0
 13 14  1  1
 15 14  2  0
 16 17  1  0
 17 18  2  0
 18 19  1  0
 20 19  2  0
 20 21  1  0
 22 21  1  1
 22 24  1  0
 22 23  1  0
 23 14  1  0
 24 25  1  0
 26 20  1  0
 27 17  1  0
 27 26  2  0
 28 24  2  0
M  END
$$$$
