IPY.pdb
     RDKit          3D

 28 29  0  0  1  0  0  0  0  0999 V2000
    8.1824  -11.8386   26.6657 C   0  0  0  0  0  0  0  0  0  0  0  0
    7.5400  -13.1749   26.4988 C   0  0  0  0  0  0  0  0  0  0  0  0
    6.4861  -13.2886   25.4545 C   0  0  2  0  0  0  0  0  0  0  0  0
    5.3308  -12.3982   25.9210 C   0  0  0  0  0  0  0  0  0  0  0  0
    6.0087  -14.7307   25.3411 C   0  0  2  0  0  0  0  0  0  0  0  0
    5.7194  -15.2458   26.6191 N   0  0  0  0  0  0  0  0  0  0  0  0
    6.9852  -15.5658   24.6128 C   0  0  0  0  0  0  0  0  0  0  0  0
    7.1661  -16.7337   25.1518 O   0  0  0  0  0  0  0  0  0  0  0  0
    7.6856  -15.2105   23.4582 N   0  0  0  0  0  0  0  0  0  0  0  0
    7.5449  -13.8417   22.8840 C   0  0  0  0  0  0  0  0  0  0  0  0
    7.8869  -13.9681   21.4340 C   0  0  0  0  0  0  0  0  0  0  0  0
    8.2312  -15.4047   21.2177 C   0  0  0  0  0  0  0  0  0  0  0  0
    8.5733  -15.9235   22.6209 C   0  0  1  0  0  0  0  0  0  0  0  0
   10.0105  -15.7608   22.8959 C   0  0  0  0  0  0  0  0  0  0  0  0
   10.6740  -15.0692   22.0815 O   0  0  0  0  0  0  0  0  0  0  0  0
   10.2438  -17.0614   30.3187 O   0  0  0  0  0  0  0  0  0  0  0  0
   10.7375  -16.5651   29.1098 C   0  0  0  0  0  0  0  0  0  0  0  0
   11.6564  -17.2744   28.3595 C   0  0  0  0  0  0  0  0  0  0  0  0
   12.1525  -16.7938   27.1611 C   0  0  0  0  0  0  0  0  0  0  0  0
   11.7472  -15.5680   26.6535 C   0  0  0  0  0  0  0  0  0  0  0  0
   12.2654  -15.0502   25.3632 C   0  0  0  0  0  0  0  0  0  0  0  0
   12.1320  -15.9968   24.2225 C   0  0  2  0  0  0  0  0  0  0  0  0
   10.7162  -16.3126   23.9946 N   0  0  0  0  0  0  0  0  0  0  0  0
   12.9432  -17.2001   24.4081 C   0  0  0  0  0  0  0  0  0  0  0  0
   12.3550  -18.4435   24.5213 O   0  0  0  0  0  0  0  0  0  0  0  0
   10.8281  -14.8694   27.4142 C   0  0  0  0  0  0  0  0  0  0  0  0
   10.3346  -15.3480   28.6061 C   0  0  0  0  0  0  0  0  0  0  0  0
   14.1878  -17.1164   24.4672 O   0  0  0  0  0  0  0  0  0  0  0  0
  1  2  1  0
  2  3  1  0
  3  4  1  1
  5  3  1  0
  5  6  1  1
  7  9  1  0
  7  5  1  0
  8  7  2  0
  9 10  1  0
 10 11  1  0
 12 11  1  0
 13  9  1  0
 13 12  1  0
 13 14  1  1
 15 14  2  0
 16 17  1  0
 17 18  2  0
 18 19  1  0
 20 19  2  0
 20 21  1  0
 22 21  1  1
 22 24  1  0
 22 23  1  0
 23 14  1  0
 24 25  1  0
 26 20  1  0
 27 17  1  0
 27 26  2  0
 28 24  2  0
M  END
$$$$
