IPY.pdb
     RDKit          3D

 28 29  0  0  1  0  0  0  0  0999 V2000
    6.4412  -19.5528   23.5201 C   0  0  0  0  0  0  0  0  0  0  0  0
    6.9091  -19.0868   22.1822 C   0  0  0  0  0  0  0  0  0  0  0  0
    6.0283  -18.1316   21.4569 C   0  0  2  0  0  0  0  0  0  0  0  0
    4.8008  -18.9364   21.0203 C   0  0  0  0  0  0  0  0  0  0  0  0
    6.7438  -17.5813   20.2299 C   0  0  2  0  0  0  0  0  0  0  0  0
    7.0612  -18.6294   19.3450 N   0  0  0  0  0  0  0  0  0  0  0  0
    7.9341  -16.7932   20.6085 C   0  0  0  0  0  0  0  0  0  0  0  0
    9.0511  -17.3290   20.2179 O   0  0  0  0  0  0  0  0  0  0  0  0
    7.9437  -15.5883   21.3143 N   0  0  0  0  0  0  0  0  0  0  0  0
    6.6620  -14.9469   21.7254 C   0  0  0  0  0  0  0  0  0  0  0  0
    6.9644  -13.4913   21.8842 C   0  0  0  0  0  0  0  0  0  0  0  0
    8.4172  -13.3383   21.5757 C   0  0  0  0  0  0  0  0  0  0  0  0
    8.9902  -14.7499   21.7605 C   0  0  1  0  0  0  0  0  0  0  0  0
    9.4441  -14.9459   23.1473 C   0  0  0  0  0  0  0  0  0  0  0  0
   10.4402  -14.2764   23.5233 O   0  0  0  0  0  0  0  0  0  0  0  0
    5.9280  -10.6289   26.6509 O   0  0  0  0  0  0  0  0  0  0  0  0
    6.5172  -11.8949   26.6088 C   0  0  0  0  0  0  0  0  0  0  0  0
    5.8146  -13.0043   26.1772 C   0  0  0  0  0  0  0  0  0  0  0  0
    6.3868  -14.2627   26.1309 C   0  0  0  0  0  0  0  0  0  0  0  0
    7.7024  -14.4706   26.5187 C   0  0  0  0  0  0  0  0  0  0  0  0
    8.3276  -15.8151   26.4611 C   0  0  0  0  0  0  0  0  0  0  0  0
    9.4148  -15.9450   25.4532 C   0  0  2  0  0  0  0  0  0  0  0  0
    8.8619  -15.8210   24.0987 N   0  0  0  0  0  0  0  0  0  0  0  0
   10.1809  -17.1795   25.6260 C   0  0  0  0  0  0  0  0  0  0  0  0
   10.1109  -18.1957   24.6948 O   0  0  0  0  0  0  0  0  0  0  0  0
    8.3930  -13.3526   26.9482 C   0  0  0  0  0  0  0  0  0  0  0  0
    7.8236  -12.1009   26.9938 C   0  0  0  0  0  0  0  0  0  0  0  0
   10.9130  -17.3303   26.6264 O   0  0  0  0  0  0  0  0  0  0  0  0
  1  2  1  0
  2  3  1  0
  3  4  1  6
  5  3  1  0
  5  6  1  6
  7  9  1  0
  7  5  1  0
  8  7  2  0
  9 10  1  0
 10 11  1  0
 12 11  1  0
 13  9  1  0
 13 12  1  0
 13 14  1  1
 15 14  2  0
 16 17  1  0
 17 18  2  0
 18 19  1  0
 20 19  2  0
 20 21  1  0
 22 21  1  1
 22 24  1  0
 22 23  1  0
 23 14  1  0
 24 25  1  0
 26 20  1  0
 27 17  1  0
 27 26  2  0
 28 24  2  0
M  END
$$$$
