KCL.pdb
     RDKit          3D

 24 23  0  0  1  0  0  0  0  0999 V2000
   19.1723  -25.6519   -9.9122 N   0  0  0  0  0  0  0  0  0  0  0  0
   18.5003  -24.4451   -9.4019 C   0  0  1  0  0  0  0  0  0  0  0  0
   17.8651  -23.7835  -10.5595 C   0  0  0  0  0  0  0  0  0  0  0  0
   18.4970  -23.8634  -11.8769 C   0  0  0  0  0  0  0  0  0  0  0  0
   19.7821  -23.2355  -12.1855 C   0  0  0  0  0  0  0  0  0  0  0  0
   20.3200  -23.2625  -13.5652 C   0  0  0  0  0  0  0  0  0  0  0  0
   21.5655  -22.4614  -13.5468 N   0  0  0  0  0  0  0  0  0  0  0  0
   17.4166  -25.0044   -8.4716 C   0  0  0  0  0  0  0  0  0  0  0  0
   16.2077  -24.8608   -8.6936 O   0  0  0  0  0  0  0  0  0  0  0  0
   17.8247  -25.7106   -7.3170 N   0  0  0  0  0  0  0  0  0  0  0  0
   16.8637  -26.2967   -6.3597 C   0  0  1  0  0  0  0  0  0  0  0  0
   17.1492  -27.7972   -6.4478 C   0  0  0  0  0  0  0  0  0  0  0  0
   16.8482  -28.6251   -4.8800 S   0  0  0  0  0  0  0  0  0  0  0  0
   17.0727  -25.7435   -5.0229 C   0  0  0  0  0  0  0  0  0  0  0  0
   18.2425  -25.5194   -4.6284 O   0  0  0  0  0  0  0  0  0  0  0  0
   13.1669  -24.5590   -2.1661 C   0  0  0  0  0  0  0  0  0  0  0  0
   14.0098  -23.6964   -3.0683 C   0  0  1  0  0  0  0  0  0  0  0  0
   13.4293  -22.2756   -3.1014 C   0  0  0  0  0  0  0  0  0  0  0  0
   15.4445  -23.6187   -2.7059 C   0  0  0  0  0  0  0  0  0  0  0  0
   16.2526  -24.8568   -2.8722 C   0  0  2  0  0  0  0  0  0  0  0  0
   15.9961  -25.4551   -4.1697 N   0  0  0  0  0  0  0  0  0  0  0  0
   16.1022  -25.8743   -1.8280 C   0  0  0  0  0  0  0  0  0  0  0  0
   16.3806  -25.6604   -0.6174 O   0  0  0  0  0  0  0  0  0  0  0  0
   15.6330  -27.1719   -2.1127 O   0  0  0  0  0  0  0  0  0  0  0  0
  2  1  1  6
  3  4  1  0
  3  2  1  0
  5  6  1  0
  5  4  1  0
  7  6  1  0
  8  2  1  0
  8  9  2  0
 10  8  1  0
 11 10  1  0
 11 12  1  1
 13 12  1  0
 14 11  1  0
 15 14  2  0
 17 16  1  1
 17 18  1  0
 20 19  1  1
 19 17  1  0
 20 21  1  0
 21 14  1  0
 22 20  1  0
 23 22  2  0
 24 22  1  0
M  END
$$$$
