KCL.pdb
     RDKit          3D

 24 23  0  0  1  0  0  0  0  0999 V2000
   24.0611  -32.2686   -7.7123 N   0  0  0  0  0  0  0  0  0  0  0  0
   25.1403  -33.2696   -7.7483 C   0  0  1  0  0  0  0  0  0  0  0  0
   25.9844  -32.9514   -8.9178 C   0  0  0  0  0  0  0  0  0  0  0  0
   25.8905  -33.7735  -10.1248 C   0  0  0  0  0  0  0  0  0  0  0  0
   26.7036  -33.5359  -11.3179 C   0  0  0  0  0  0  0  0  0  0  0  0
   26.6313  -34.4599  -12.4731 C   0  0  0  0  0  0  0  0  0  0  0  0
   27.5796  -33.9419  -13.4859 N   0  0  0  0  0  0  0  0  0  0  0  0
   25.9254  -32.9971   -6.4590 C   0  0  0  0  0  0  0  0  0  0  0  0
   26.2791  -31.8605   -6.1210 O   0  0  0  0  0  0  0  0  0  0  0  0
   26.2534  -34.0944   -5.6304 N   0  0  0  0  0  0  0  0  0  0  0  0
   26.9766  -33.9394   -4.3512 C   0  0  1  0  0  0  0  0  0  0  0  0
   25.9273  -34.3192   -3.3047 C   0  0  0  0  0  0  0  0  0  0  0  0
   26.4465  -33.8610   -1.6450 S   0  0  0  0  0  0  0  0  0  0  0  0
   28.1593  -34.7981   -4.3260 C   0  0  0  0  0  0  0  0  0  0  0  0
   28.1210  -35.9111   -4.9039 O   0  0  0  0  0  0  0  0  0  0  0  0
   33.1560  -33.2573   -5.6197 C   0  0  0  0  0  0  0  0  0  0  0  0
   31.9267  -34.0935   -5.3786 C   0  0  1  0  0  0  0  0  0  0  0  0
   31.9686  -35.3323   -6.2845 C   0  0  0  0  0  0  0  0  0  0  0  0
   31.7278  -34.5322   -3.9773 C   0  0  0  0  0  0  0  0  0  0  0  0
   30.4864  -35.2953   -3.6768 C   0  0  2  0  0  0  0  0  0  0  0  0
   29.3381  -34.4073   -3.6718 N   0  0  0  0  0  0  0  0  0  0  0  0
   30.4950  -36.0878   -2.4438 C   0  0  0  0  0  0  0  0  0  0  0  0
   31.3654  -36.9663   -2.1997 O   0  0  0  0  0  0  0  0  0  0  0  0
   29.5199  -35.9183   -1.4411 O   0  0  0  0  0  0  0  0  0  0  0  0
  2  1  1  1
  3  4  1  0
  3  2  1  0
  5  6  1  0
  5  4  1  0
  7  6  1  0
  8  2  1  0
  8  9  2  0
 10  8  1  0
 11 10  1  0
 11 12  1  1
 13 12  1  0
 14 11  1  0
 15 14  2  0
 17 16  1  1
 17 18  1  0
 20 19  1  1
 19 17  1  0
 20 21  1  0
 21 14  1  0
 22 20  1  0
 23 22  2  0
 24 22  1  0
M  END
$$$$
