KCL.pdb
     RDKit          3D

 24 23  0  0  1  0  0  0  0  0999 V2000
   28.2361  -22.0467  -16.0726 N   0  0  0  0  0  0  0  0  0  0  0  0
   28.0367  -20.9713  -15.0868 C   0  0  1  0  0  0  0  0  0  0  0  0
   27.6851  -19.7527  -15.8436 C   0  0  0  0  0  0  0  0  0  0  0  0
   27.4240  -19.8418  -17.2807 C   0  0  0  0  0  0  0  0  0  0  0  0
   28.4839  -19.8035  -18.2887 C   0  0  0  0  0  0  0  0  0  0  0  0
   28.1486  -19.7440  -19.7301 C   0  0  0  0  0  0  0  0  0  0  0  0
   29.4363  -19.7457  -20.4617 N   0  0  0  0  0  0  0  0  0  0  0  0
   26.8203  -21.4444  -14.2811 C   0  0  0  0  0  0  0  0  0  0  0  0
   25.9416  -22.1699  -14.7637 O   0  0  0  0  0  0  0  0  0  0  0  0
   26.7070  -21.0300  -12.9343 N   0  0  0  0  0  0  0  0  0  0  0  0
   25.5435  -21.3720  -12.0900 C   0  0  1  0  0  0  0  0  0  0  0  0
   25.9472  -20.8555  -10.7077 C   0  0  0  0  0  0  0  0  0  0  0  0
   24.6209  -21.0543   -9.5097 S   0  0  0  0  0  0  0  0  0  0  0  0
   24.3311  -20.7448  -12.6130 C   0  0  0  0  0  0  0  0  0  0  0  0
   24.3584  -19.5326  -12.9354 O   0  0  0  0  0  0  0  0  0  0  0  0
   20.9178  -19.1900  -16.0838 C   0  0  0  0  0  0  0  0  0  0  0  0
   20.6579  -20.5380  -15.4642 C   0  0  1  0  0  0  0  0  0  0  0  0
   20.1826  -21.5137  -16.5500 C   0  0  0  0  0  0  0  0  0  0  0  0
   21.8114  -21.1380  -14.7536 C   0  0  0  0  0  0  0  0  0  0  0  0
   21.9664  -20.8044  -13.3120 C   0  0  2  0  0  0  0  0  0  0  0  0
   23.1367  -21.4663  -12.7649 N   0  0  0  0  0  0  0  0  0  0  0  0
   20.8081  -21.0754  -12.4557 C   0  0  0  0  0  0  0  0  0  0  0  0
   20.6812  -22.1387  -11.7908 O   0  0  0  0  0  0  0  0  0  0  0  0
   19.7494  -20.1559  -12.3196 O   0  0  0  0  0  0  0  0  0  0  0  0
  2  1  1  6
  3  4  1  0
  3  2  1  0
  5  6  1  0
  5  4  1  0
  7  6  1  0
  8  2  1  0
  8  9  2  0
 10  8  1  0
 11 10  1  0
 11 12  1  1
 13 12  1  0
 14 11  1  0
 15 14  2  0
 17 16  1  6
 17 18  1  0
 20 19  1  6
 19 17  1  0
 20 21  1  0
 21 14  1  0
 22 20  1  0
 23 22  2  0
 24 22  1  0
M  END
$$$$
