KCL.pdb
     RDKit          3D

 24 23  0  0  1  0  0  0  0  0999 V2000
   23.3845  -21.7715  -14.6555 N   0  0  0  0  0  0  0  0  0  0  0  0
   21.9707  -21.3653  -14.7227 C   0  0  1  0  0  0  0  0  0  0  0  0
   21.3512  -22.1398  -15.8170 C   0  0  0  0  0  0  0  0  0  0  0  0
   21.3698  -21.6100  -17.1810 C   0  0  0  0  0  0  0  0  0  0  0  0
   21.0303  -20.2238  -17.5038 C   0  0  0  0  0  0  0  0  0  0  0  0
   20.9262  -19.7843  -18.9143 C   0  0  0  0  0  0  0  0  0  0  0  0
   20.6143  -18.3368  -18.8818 N   0  0  0  0  0  0  0  0  0  0  0  0
   21.3997  -21.8303  -13.3771 C   0  0  0  0  0  0  0  0  0  0  0  0
   21.5687  -22.9760  -12.9409 O   0  0  0  0  0  0  0  0  0  0  0  0
   20.6519  -20.9064  -12.6120 N   0  0  0  0  0  0  0  0  0  0  0  0
   20.1024  -21.2343  -11.2801 C   0  0  1  0  0  0  0  0  0  0  0  0
   20.1612  -19.8988  -10.5360 C   0  0  0  0  0  0  0  0  0  0  0  0
   21.8304  -19.5157   -9.9874 S   0  0  0  0  0  0  0  0  0  0  0  0
   18.7483  -21.7706  -11.4042 C   0  0  0  0  0  0  0  0  0  0  0  0
   18.0265  -21.3973  -12.3602 O   0  0  0  0  0  0  0  0  0  0  0  0
   17.6828  -26.9392   -9.7890 C   0  0  0  0  0  0  0  0  0  0  0  0
   17.6926  -25.6530  -10.5726 C   0  0  1  0  0  0  0  0  0  0  0  0
   17.3101  -25.9428  -12.0309 C   0  0  0  0  0  0  0  0  0  0  0  0
   16.8053  -24.5885  -10.0479 C   0  0  0  0  0  0  0  0  0  0  0  0
   16.9087  -23.2471  -10.6831 C   0  0  2  0  0  0  0  0  0  0  0  0
   18.2358  -22.6949  -10.4804 N   0  0  0  0  0  0  0  0  0  0  0  0
   15.9031  -22.2598  -10.2802 C   0  0  0  0  0  0  0  0  0  0  0  0
   16.1677  -21.2753   -9.5387 O   0  0  0  0  0  0  0  0  0  0  0  0
   14.5608  -22.3483  -10.6989 O   0  0  0  0  0  0  0  0  0  0  0  0
  2  1  1  1
  3  4  1  0
  3  2  1  0
  5  6  1  0
  5  4  1  0
  7  6  1  0
  8  2  1  0
  8  9  2  0
 10  8  1  0
 11 10  1  0
 11 12  1  1
 13 12  1  0
 14 11  1  0
 15 14  2  0
 17 16  1  1
 17 18  1  0
 20 19  1  1
 19 17  1  0
 20 21  1  0
 21 14  1  0
 22 20  1  0
 23 22  2  0
 24 22  1  0
M  END
$$$$
