KCL.pdb
     RDKit          3D

 24 23  0  0  1  0  0  0  0  0999 V2000
   23.6456  -20.1174  -13.9076 N   0  0  0  0  0  0  0  0  0  0  0  0
   23.3313  -19.4044  -12.6582 C   0  0  1  0  0  0  0  0  0  0  0  0
   21.8595  -19.3233  -12.5668 C   0  0  0  0  0  0  0  0  0  0  0  0
   21.0345  -19.8860  -13.6364 C   0  0  0  0  0  0  0  0  0  0  0  0
   20.6028  -21.2838  -13.6605 C   0  0  0  0  0  0  0  0  0  0  0  0
   19.6647  -21.7631  -14.7016 C   0  0  0  0  0  0  0  0  0  0  0  0
   19.5691  -23.2319  -14.5375 N   0  0  0  0  0  0  0  0  0  0  0  0
   23.8628  -20.3420  -11.5668 C   0  0  0  0  0  0  0  0  0  0  0  0
   23.1200  -21.0532  -10.8785 O   0  0  0  0  0  0  0  0  0  0  0  0
   25.2583  -20.3888  -11.3457 N   0  0  0  0  0  0  0  0  0  0  0  0
   25.8791  -21.2962  -10.3585 C   0  0  1  0  0  0  0  0  0  0  0  0
   26.8165  -22.1549  -11.2097 C   0  0  0  0  0  0  0  0  0  0  0  0
   26.9403  -21.5361  -12.8936 S   0  0  0  0  0  0  0  0  0  0  0  0
   26.5724  -20.5292   -9.3251 C   0  0  0  0  0  0  0  0  0  0  0  0
   26.5773  -19.2763   -9.3914 O   0  0  0  0  0  0  0  0  0  0  0  0
   27.5866  -19.1139   -4.2430 C   0  0  0  0  0  0  0  0  0  0  0  0
   27.5309  -18.4813   -5.6088 C   0  0  1  0  0  0  0  0  0  0  0  0
   28.9359  -18.0088   -6.0082 C   0  0  0  0  0  0  0  0  0  0  0  0
   26.9944  -19.3487   -6.6837 C   0  0  0  0  0  0  0  0  0  0  0  0
   27.9219  -20.3548   -7.2678 C   0  0  2  0  0  0  0  0  0  0  0  0
   27.2318  -21.1603   -8.2588 N   0  0  0  0  0  0  0  0  0  0  0  0
   28.6073  -21.2340   -6.3163 C   0  0  0  0  0  0  0  0  0  0  0  0
   29.8080  -21.0669   -5.9709 O   0  0  0  0  0  0  0  0  0  0  0  0
   27.9623  -22.3358   -5.7204 O   0  0  0  0  0  0  0  0  0  0  0  0
  2  1  1  6
  3  4  1  0
  3  2  1  0
  5  6  1  0
  5  4  1  0
  7  6  1  0
  8  2  1  0
  8  9  2  0
 10  8  1  0
 11 10  1  0
 11 12  1  6
 13 12  1  0
 14 11  1  0
 15 14  2  0
 17 16  1  1
 17 18  1  0
 20 19  1  1
 19 17  1  0
 20 21  1  0
 21 14  1  0
 22 20  1  0
 23 22  2  0
 24 22  1  0
M  END
$$$$
