KCL.pdb
     RDKit          3D

 24 23  0  0  1  0  0  0  0  0999 V2000
   26.9235  -29.3719  -18.2975 N   0  0  0  0  0  0  0  0  0  0  0  0
   26.6318  -30.7040  -17.7420 C   0  0  1  0  0  0  0  0  0  0  0  0
   27.7920  -31.0886  -16.9129 C   0  0  0  0  0  0  0  0  0  0  0  0
   29.0293  -31.5302  -17.5575 C   0  0  0  0  0  0  0  0  0  0  0  0
   30.1653  -30.6403  -17.7993 C   0  0  0  0  0  0  0  0  0  0  0  0
   31.3873  -31.1455  -18.4663 C   0  0  0  0  0  0  0  0  0  0  0  0
   32.3157  -29.9962  -18.5696 N   0  0  0  0  0  0  0  0  0  0  0  0
   25.4154  -30.4582  -16.8406 C   0  0  0  0  0  0  0  0  0  0  0  0
   25.0658  -29.3252  -16.4862 O   0  0  0  0  0  0  0  0  0  0  0  0
   24.6700  -31.5765  -16.4022 N   0  0  0  0  0  0  0  0  0  0  0  0
   23.4567  -31.4489  -15.5686 C   0  0  1  0  0  0  0  0  0  0  0  0
   22.3265  -31.8138  -16.5330 C   0  0  0  0  0  0  0  0  0  0  0  0
   22.3461  -33.5630  -16.9498 S   0  0  0  0  0  0  0  0  0  0  0  0
   23.5388  -32.3345  -14.4086 C   0  0  0  0  0  0  0  0  0  0  0  0
   24.0307  -33.4805  -14.5460 O   0  0  0  0  0  0  0  0  0  0  0  0
   24.9626  -33.9449   -9.4423 C   0  0  0  0  0  0  0  0  0  0  0  0
   23.8395  -32.9517   -9.5863 C   0  0  1  0  0  0  0  0  0  0  0  0
   23.8929  -31.9513   -8.4230 C   0  0  0  0  0  0  0  0  0  0  0  0
   23.8227  -32.2001  -10.8632 C   0  0  0  0  0  0  0  0  0  0  0  0
   23.1680  -32.8568  -12.0265 C   0  0  2  0  0  0  0  0  0  0  0  0
   23.0818  -31.9335  -13.1434 N   0  0  0  0  0  0  0  0  0  0  0  0
   21.8496  -33.4479  -11.7800 C   0  0  0  0  0  0  0  0  0  0  0  0
   21.6736  -34.6845  -11.6106 O   0  0  0  0  0  0  0  0  0  0  0  0
   20.6805  -32.6642  -11.7168 O   0  0  0  0  0  0  0  0  0  0  0  0
  2  1  1  1
  3  4  1  0
  3  2  1  0
  5  6  1  0
  5  4  1  0
  7  6  1  0
  8  2  1  0
  8  9  2  0
 10  8  1  0
 11 10  1  0
 11 12  1  6
 13 12  1  0
 14 11  1  0
 15 14  2  0
 17 16  1  6
 17 18  1  0
 20 19  1  1
 19 17  1  0
 20 21  1  0
 21 14  1  0
 22 20  1  0
 23 22  2  0
 24 22  1  0
M  END
$$$$
