KCL.pdb
     RDKit          3D

 24 23  0  0  1  0  0  0  0  0999 V2000
   33.3290  -25.0719  -15.0734 N   0  0  0  0  0  0  0  0  0  0  0  0
   32.6800  -25.0739  -16.3951 C   0  0  1  0  0  0  0  0  0  0  0  0
   33.1850  -26.2565  -17.1215 C   0  0  0  0  0  0  0  0  0  0  0  0
   34.4324  -26.1628  -17.8808 C   0  0  0  0  0  0  0  0  0  0  0  0
   35.6726  -25.6293  -17.3165 C   0  0  0  0  0  0  0  0  0  0  0  0
   36.9154  -25.6049  -18.1217 C   0  0  0  0  0  0  0  0  0  0  0  0
   37.9697  -25.0363  -17.2507 N   0  0  0  0  0  0  0  0  0  0  0  0
   31.1949  -25.2695  -16.0650 C   0  0  0  0  0  0  0  0  0  0  0  0
   30.8097  -25.8558  -15.0455 O   0  0  0  0  0  0  0  0  0  0  0  0
   30.2353  -24.7562  -16.9672 N   0  0  0  0  0  0  0  0  0  0  0  0
   28.7894  -24.7302  -16.6638 C   0  0  1  0  0  0  0  0  0  0  0  0
   28.4138  -23.2606  -16.8630 C   0  0  0  0  0  0  0  0  0  0  0  0
   26.7132  -22.9365  -16.3763 S   0  0  0  0  0  0  0  0  0  0  0  0
   28.0652  -25.6398  -17.5497 C   0  0  0  0  0  0  0  0  0  0  0  0
   28.4595  -25.7875  -18.7316 O   0  0  0  0  0  0  0  0  0  0  0  0
   26.3144  -30.7247  -16.4249 C   0  0  0  0  0  0  0  0  0  0  0  0
   26.8063  -29.4850  -17.1246 C   0  0  1  0  0  0  0  0  0  0  0  0
   27.4470  -29.8769  -18.4635 C   0  0  0  0  0  0  0  0  0  0  0  0
   25.7751  -28.4501  -17.3725 C   0  0  0  0  0  0  0  0  0  0  0  0
   26.2193  -27.1994  -18.0446 C   0  0  2  0  0  0  0  0  0  0  0  0
   26.9396  -26.3539  -17.1099 N   0  0  0  0  0  0  0  0  0  0  0  0
   25.1749  -26.4135  -18.7077 C   0  0  0  0  0  0  0  0  0  0  0  0
   24.4916  -25.5389  -18.1100 O   0  0  0  0  0  0  0  0  0  0  0  0
   24.8624  -26.5870  -20.0705 O   0  0  0  0  0  0  0  0  0  0  0  0
  2  1  1  1
  3  4  1  0
  3  2  1  0
  5  6  1  0
  5  4  1  0
  7  6  1  0
  8  2  1  0
  8  9  2  0
 10  8  1  0
 11 10  1  0
 11 12  1  6
 13 12  1  0
 14 11  1  0
 15 14  2  0
 17 16  1  6
 17 18  1  0
 20 19  1  1
 19 17  1  0
 20 21  1  0
 21 14  1  0
 22 20  1  0
 23 22  2  0
 24 22  1  0
M  END
$$$$
