KCL.pdb
     RDKit          3D

 24 23  0  0  1  0  0  0  0  0999 V2000
   23.1097  -20.0081  -17.4171 N   0  0  0  0  0  0  0  0  0  0  0  0
   22.5790  -18.6405  -17.2898 C   0  0  1  0  0  0  0  0  0  0  0  0
   22.5493  -18.3222  -15.8479 C   0  0  0  0  0  0  0  0  0  0  0  0
   21.5291  -18.9292  -14.9922 C   0  0  0  0  0  0  0  0  0  0  0  0
   20.1227  -19.0383  -15.3808 C   0  0  0  0  0  0  0  0  0  0  0  0
   19.1353  -19.6547  -14.4650 C   0  0  0  0  0  0  0  0  0  0  0  0
   19.9125  -20.3081  -13.3868 N   0  0  0  0  0  0  0  0  0  0  0  0
   23.6403  -17.7779  -17.9844 C   0  0  0  0  0  0  0  0  0  0  0  0
   24.8533  -17.9980  -17.8774 O   0  0  0  0  0  0  0  0  0  0  0  0
   23.2058  -16.6904  -18.7760 N   0  0  0  0  0  0  0  0  0  0  0  0
   24.1293  -15.8890  -19.6056 C   0  0  1  0  0  0  0  0  0  0  0  0
   23.3458  -15.6789  -20.9028 C   0  0  0  0  0  0  0  0  0  0  0  0
   24.2143  -14.5847  -22.0351 S   0  0  0  0  0  0  0  0  0  0  0  0
   24.4734  -14.6411  -18.9266 C   0  0  0  0  0  0  0  0  0  0  0  0
   23.6100  -14.0714  -18.2165 O   0  0  0  0  0  0  0  0  0  0  0  0
   29.0042  -13.6241  -16.1973 C   0  0  0  0  0  0  0  0  0  0  0  0
   27.5835  -13.5894  -16.6962 C   0  0  1  0  0  0  0  0  0  0  0  0
   26.6527  -13.1646  -15.5516 C   0  0  0  0  0  0  0  0  0  0  0  0
   27.3456  -12.7035  -17.8599 C   0  0  0  0  0  0  0  0  0  0  0  0
   25.9950  -12.7512  -18.4819 C   0  0  2  0  0  0  0  0  0  0  0  0
   25.7475  -14.0647  -19.0484 N   0  0  0  0  0  0  0  0  0  0  0  0
   25.7078  -11.7246  -19.4878 C   0  0  0  0  0  0  0  0  0  0  0  0
   25.7403  -11.9515  -20.7274 O   0  0  0  0  0  0  0  0  0  0  0  0
   25.3744  -10.4031  -19.1311 O   0  0  0  0  0  0  0  0  0  0  0  0
  2  1  1  1
  3  4  1  0
  3  2  1  0
  5  6  1  0
  5  4  1  0
  7  6  1  0
  8  2  1  0
  8  9  2  0
 10  8  1  0
 11 10  1  0
 11 12  1  6
 13 12  1  0
 14 11  1  0
 15 14  2  0
 17 16  1  1
 17 18  1  0
 20 19  1  6
 19 17  1  0
 20 21  1  0
 21 14  1  0
 22 20  1  0
 23 22  2  0
 24 22  1  0
M  END
$$$$
