KCL.pdb
     RDKit          3D

 24 23  0  0  1  0  0  0  0  0999 V2000
   15.4926  -13.7005  -17.7299 N   0  0  0  0  0  0  0  0  0  0  0  0
   15.4606  -12.8117  -16.5564 C   0  0  1  0  0  0  0  0  0  0  0  0
   15.9235  -13.6065  -15.4009 C   0  0  0  0  0  0  0  0  0  0  0  0
   15.0218  -14.5786  -14.7818 C   0  0  0  0  0  0  0  0  0  0  0  0
   13.7818  -14.1989  -14.1042 C   0  0  0  0  0  0  0  0  0  0  0  0
   12.8648  -15.2359  -13.5777 C   0  0  0  0  0  0  0  0  0  0  0  0
   11.7096  -14.5177  -12.9920 N   0  0  0  0  0  0  0  0  0  0  0  0
   16.5032  -11.7376  -16.8917 C   0  0  0  0  0  0  0  0  0  0  0  0
   17.5267  -11.9817  -17.5430 O   0  0  0  0  0  0  0  0  0  0  0  0
   16.2772  -10.4194  -16.4341 N   0  0  0  0  0  0  0  0  0  0  0  0
   17.1845   -9.2978  -16.7539 C   0  0  1  0  0  0  0  0  0  0  0  0
   16.2576   -8.0807  -16.7439 C   0  0  0  0  0  0  0  0  0  0  0  0
   17.1819   -6.5397  -16.8144 S   0  0  0  0  0  0  0  0  0  0  0  0
   18.2616   -9.2155  -15.7690 C   0  0  0  0  0  0  0  0  0  0  0  0
   18.0388   -9.5695  -14.5861 O   0  0  0  0  0  0  0  0  0  0  0  0
   22.4241  -10.0413  -12.9004 C   0  0  0  0  0  0  0  0  0  0  0  0
   22.7391   -9.6804  -14.3283 C   0  0  1  0  0  0  0  0  0  0  0  0
   23.8231  -10.6260  -14.8647 C   0  0  0  0  0  0  0  0  0  0  0  0
   21.5825   -9.7044  -15.2543 C   0  0  0  0  0  0  0  0  0  0  0  0
   20.5606   -8.6360  -15.0885 C   0  0  2  0  0  0  0  0  0  0  0  0
   19.5404   -8.7513  -16.1147 N   0  0  0  0  0  0  0  0  0  0  0  0
   21.0620   -7.2592  -15.0522 C   0  0  0  0  0  0  0  0  0  0  0  0
   21.0491   -6.4983  -16.0571 O   0  0  0  0  0  0  0  0  0  0  0  0
   21.5979   -6.6909  -13.8797 O   0  0  0  0  0  0  0  0  0  0  0  0
  2  1  1  6
  3  4  1  0
  3  2  1  0
  5  6  1  0
  5  4  1  0
  7  6  1  0
  8  2  1  0
  8  9  2  0
 10  8  1  0
 11 10  1  0
 11 12  1  1
 13 12  1  0
 14 11  1  0
 15 14  2  0
 17 16  1  1
 17 18  1  0
 20 19  1  6
 19 17  1  0
 20 21  1  0
 21 14  1  0
 22 20  1  0
 23 22  2  0
 24 22  1  0
M  END
$$$$
