KCL.pdb
     RDKit          3D

 24 23  0  0  1  0  0  0  0  0999 V2000
   29.8415  -25.6253  -15.8460 N   0  0  0  0  0  0  0  0  0  0  0  0
   30.0947  -24.5887  -16.8606 C   0  0  1  0  0  0  0  0  0  0  0  0
   30.0411  -23.2854  -16.1680 C   0  0  0  0  0  0  0  0  0  0  0  0
   28.7666  -22.7965  -15.6406 C   0  0  0  0  0  0  0  0  0  0  0  0
   27.5329  -22.7741  -16.4270 C   0  0  0  0  0  0  0  0  0  0  0  0
   26.3168  -22.1139  -15.8992 C   0  0  0  0  0  0  0  0  0  0  0  0
   25.2913  -22.2085  -16.9636 N   0  0  0  0  0  0  0  0  0  0  0  0
   31.5333  -24.8719  -17.3114 C   0  0  0  0  0  0  0  0  0  0  0  0
   32.1920  -24.0687  -17.9840 O   0  0  0  0  0  0  0  0  0  0  0  0
   32.1216  -26.1021  -16.9390 N   0  0  0  0  0  0  0  0  0  0  0  0
   33.4884  -26.4881  -17.3467 C   0  0  1  0  0  0  0  0  0  0  0  0
   34.1425  -26.9118  -16.0302 C   0  0  0  0  0  0  0  0  0  0  0  0
   35.7381  -27.6955  -16.3020 S   0  0  0  0  0  0  0  0  0  0  0  0
   33.4415  -27.5573  -18.3423 C   0  0  0  0  0  0  0  0  0  0  0  0
   32.6583  -28.5222  -18.1691 O   0  0  0  0  0  0  0  0  0  0  0  0
   32.1392  -27.0093  -23.3700 C   0  0  0  0  0  0  0  0  0  0  0  0
   32.4189  -27.6064  -22.0159 C   0  0  1  0  0  0  0  0  0  0  0  0
   31.4723  -28.7912  -21.7769 C   0  0  0  0  0  0  0  0  0  0  0  0
   33.8139  -28.0580  -21.8021 C   0  0  0  0  0  0  0  0  0  0  0  0
   34.1502  -28.6049  -20.4600 C   0  0  2  0  0  0  0  0  0  0  0  0
   34.2505  -27.5305  -19.4891 N   0  0  0  0  0  0  0  0  0  0  0  0
   35.3492  -29.4444  -20.3838 C   0  0  0  0  0  0  0  0  0  0  0  0
   35.4045  -30.6064  -20.8690 O   0  0  0  0  0  0  0  0  0  0  0  0
   36.5304  -29.0029  -19.7553 O   0  0  0  0  0  0  0  0  0  0  0  0
  2  1  1  1
  3  4  1  0
  3  2  1  0
  5  6  1  0
  5  4  1  0
  7  6  1  0
  8  2  1  0
  8  9  2  0
 10  8  1  0
 11 10  1  0
 11 12  1  1
 13 12  1  0
 14 11  1  0
 15 14  2  0
 17 16  1  6
 17 18  1  0
 20 19  1  6
 19 17  1  0
 20 21  1  0
 21 14  1  0
 22 20  1  0
 23 22  2  0
 24 22  1  0
M  END
$$$$
