KCL.pdb
     RDKit          3D

 24 23  0  0  1  0  0  0  0  0999 V2000
   25.2021  -23.2714  -16.3714 N   0  0  0  0  0  0  0  0  0  0  0  0
   24.7308  -23.3470  -14.9785 C   0  0  1  0  0  0  0  0  0  0  0  0
   24.6689  -24.7788  -14.6215 C   0  0  0  0  0  0  0  0  0  0  0  0
   23.9377  -25.7096  -15.4820 C   0  0  0  0  0  0  0  0  0  0  0  0
   24.5719  -26.4623  -16.5647 C   0  0  0  0  0  0  0  0  0  0  0  0
   23.7777  -27.3944  -17.3978 C   0  0  0  0  0  0  0  0  0  0  0  0
   23.0462  -28.2773  -16.4603 N   0  0  0  0  0  0  0  0  0  0  0  0
   25.8525  -22.6674  -14.1830 C   0  0  0  0  0  0  0  0  0  0  0  0
   27.0510  -22.8880  -14.3983 O   0  0  0  0  0  0  0  0  0  0  0  0
   25.4931  -21.7544  -13.1655 N   0  0  0  0  0  0  0  0  0  0  0  0
   26.4936  -21.0231  -12.3606 C   0  0  1  0  0  0  0  0  0  0  0  0
   26.3537  -19.5805  -12.8503 C   0  0  0  0  0  0  0  0  0  0  0  0
   27.5109  -18.4813  -12.0217 S   0  0  0  0  0  0  0  0  0  0  0  0
   26.2161  -21.1816  -10.9342 C   0  0  0  0  0  0  0  0  0  0  0  0
   25.1099  -21.6510  -10.5735 O   0  0  0  0  0  0  0  0  0  0  0  0
   28.1065  -21.2369   -5.4779 C   0  0  0  0  0  0  0  0  0  0  0  0
   27.5458  -20.0850   -6.2699 C   0  0  1  0  0  0  0  0  0  0  0  0
   28.1170  -18.7679   -5.7260 C   0  0  0  0  0  0  0  0  0  0  0  0
   27.7905  -20.1458   -7.7301 C   0  0  0  0  0  0  0  0  0  0  0  0
   26.7877  -20.8723   -8.5547 C   0  0  2  0  0  0  0  0  0  0  0  0
   27.1581  -20.8226   -9.9574 N   0  0  0  0  0  0  0  0  0  0  0  0
   25.3933  -20.4469   -8.4035 C   0  0  0  0  0  0  0  0  0  0  0  0
   24.9331  -19.4030   -8.9397 O   0  0  0  0  0  0  0  0  0  0  0  0
   24.4670  -21.1841   -7.6398 O   0  0  0  0  0  0  0  0  0  0  0  0
  2  1  1  6
  3  4  1  0
  3  2  1  0
  5  6  1  0
  5  4  1  0
  7  6  1  0
  8  2  1  0
  8  9  2  0
 10  8  1  0
 11 10  1  0
 11 12  1  6
 13 12  1  0
 14 11  1  0
 15 14  2  0
 17 16  1  1
 17 18  1  0
 20 19  1  1
 19 17  1  0
 20 21  1  0
 21 14  1  0
 22 20  1  0
 23 22  2  0
 24 22  1  0
M  END
$$$$
