YIN.pdb
     RDKit          3D

 29 29  0  0  1  0  0  0  0  0999 V2000
    5.5346  -23.2287   29.1356 O   0  0  0  0  0  0  0  0  0  0  0  0
    5.9286  -22.2812   28.1927 C   0  0  0  0  0  0  0  0  0  0  0  0
    6.0709  -22.6977   26.8840 C   0  0  0  0  0  0  0  0  0  0  0  0
    6.4633  -21.7685   25.9285 C   0  0  0  0  0  0  0  0  0  0  0  0
    6.7031  -20.4681   26.2777 C   0  0  0  0  0  0  0  0  0  0  0  0
    7.1208  -19.4979   25.2333 C   0  0  0  0  0  0  0  0  0  0  0  0
    5.9557  -18.6618   24.7871 C   0  0  2  0  0  0  0  0  0  0  0  0
    5.0697  -19.3438   23.8882 N   0  0  0  0  0  0  0  0  0  0  0  0
    6.4869  -17.3912   24.2279 C   0  0  0  0  0  0  0  0  0  0  0  0
    6.7100  -17.3179   23.0048 O   0  0  0  0  0  0  0  0  0  0  0  0
    6.5561  -20.0698   27.5872 C   0  0  0  0  0  0  0  0  0  0  0  0
    6.1658  -20.9793   28.5584 C   0  0  0  0  0  0  0  0  0  0  0  0
    5.7955  -12.5639   26.5437 C   0  0  0  0  0  0  0  0  0  0  0  0
    6.1598  -13.4867   25.4347 C   0  0  0  0  0  0  0  0  0  0  0  0
    7.5722  -14.0879   25.5939 C   0  0  2  0  0  0  0  0  0  0  0  0
    8.5928  -12.9974   25.3596 C   0  0  0  0  0  0  0  0  0  0  0  0
    7.7483  -15.2284   24.6540 C   0  0  2  0  0  0  0  0  0  0  0  0
    6.7466  -16.2692   25.0318 N   0  0  0  0  0  0  0  0  0  0  0  0
    9.0697  -15.8374   24.5697 C   0  0  0  0  0  0  0  0  0  0  0  0
    9.4592  -16.5614   25.5696 O   0  0  0  0  0  0  0  0  0  0  0  0
   10.6115  -16.4459   20.0476 N   0  0  0  0  0  0  0  0  0  0  0  0
   11.0166  -17.1671   21.2334 C   0  0  0  0  0  0  0  0  0  0  0  0
   10.5686  -18.3264   21.3482 O   0  0  0  0  0  0  0  0  0  0  0  0
   11.9009  -16.5084   22.1952 C   0  0  0  0  0  0  0  0  0  0  0  0
   11.2895  -16.5054   23.5690 C   0  0  2  0  0  0  0  0  0  0  0  0
   10.0162  -15.7667   23.5441 N   0  0  0  0  0  0  0  0  0  0  0  0
   12.1481  -15.7522   24.4881 C   0  0  0  0  0  0  0  0  0  0  0  0
   11.9981  -14.5354   24.6805 O   0  0  0  0  0  0  0  0  0  0  0  0
   13.1622  -16.3767   25.1774 O   0  0  0  0  0  0  0  0  0  0  0  0
  2  1  1  0
  3  2  2  0
  4  3  1  0
  5  4  2  0
  5 11  1  0
  6  5  1  0
  7  6  1  0
  7  9  1  0
  7  8  1  6
  9 10  2  0
 11 12  2  0
 12  2  1  0
 13 14  1  0
 15 14  1  0
 15 17  1  0
 15 16  1  6
 17 18  1  1
 18  9  1  0
 19 17  1  0
 19 20  2  0
 21 22  1  0
 22 24  1  0
 23 22  2  0
 25 24  1  6
 25 26  1  0
 25 27  1  0
 26 19  1  0
 27 29  1  0
 28 27  2  0
M  END
$$$$
