YIN.pdb
     RDKit          3D

 29 29  0  0  1  0  0  0  0  0999 V2000
    7.0802  -13.9702   15.3728 O   0  0  0  0  0  0  0  0  0  0  0  0
    7.2809  -14.1977   16.7328 C   0  0  0  0  0  0  0  0  0  0  0  0
    7.2072  -15.5005   17.1842 C   0  0  0  0  0  0  0  0  0  0  0  0
    7.4040  -15.7486   18.5370 C   0  0  0  0  0  0  0  0  0  0  0  0
    7.6655  -14.7231   19.4032 C   0  0  0  0  0  0  0  0  0  0  0  0
    7.8719  -15.0202   20.8438 C   0  0  0  0  0  0  0  0  0  0  0  0
    9.0236  -14.2268   21.3912 C   0  0  2  0  0  0  0  0  0  0  0  0
   10.2447  -14.4071   20.6600 N   0  0  0  0  0  0  0  0  0  0  0  0
    9.1586  -14.5466   22.8366 C   0  0  0  0  0  0  0  0  0  0  0  0
   10.1576  -15.1825   23.2224 O   0  0  0  0  0  0  0  0  0  0  0  0
    7.7358  -13.4300   18.9361 C   0  0  0  0  0  0  0  0  0  0  0  0
    7.5427  -13.1579   17.5903 C   0  0  0  0  0  0  0  0  0  0  0  0
    6.2636  -11.3490   26.1131 C   0  0  0  0  0  0  0  0  0  0  0  0
    7.3924  -12.1535   25.5717 C   0  0  0  0  0  0  0  0  0  0  0  0
    7.3002  -13.6469   25.9493 C   0  0  2  0  0  0  0  0  0  0  0  0
    7.4100  -13.7751   27.4517 C   0  0  0  0  0  0  0  0  0  0  0  0
    8.3618  -14.4161   25.2445 C   0  0  2  0  0  0  0  0  0  0  0  0
    8.1975  -14.1563   23.7834 N   0  0  0  0  0  0  0  0  0  0  0  0
    8.4220  -15.8537   25.4762 C   0  0  0  0  0  0  0  0  0  0  0  0
    8.0357  -16.6307   24.5155 O   0  0  0  0  0  0  0  0  0  0  0  0
    9.8864  -19.3703   24.3563 N   0  0  0  0  0  0  0  0  0  0  0  0
   10.9565  -18.4244   24.5815 C   0  0  0  0  0  0  0  0  0  0  0  0
   11.8719  -18.4222   23.7331 O   0  0  0  0  0  0  0  0  0  0  0  0
   10.8977  -17.5557   25.7574 C   0  0  0  0  0  0  0  0  0  0  0  0
    9.6352  -17.7968   26.5379 C   0  0  2  0  0  0  0  0  0  0  0  0
    8.8494  -16.5537   26.6074 N   0  0  0  0  0  0  0  0  0  0  0  0
    9.9700  -18.1132   27.9297 C   0  0  0  0  0  0  0  0  0  0  0  0
   10.1306  -17.2286   28.7853 O   0  0  0  0  0  0  0  0  0  0  0  0
   10.1193  -19.4181   28.3400 O   0  0  0  0  0  0  0  0  0  0  0  0
  2  1  1  0
  3  2  2  0
  4  3  1  0
  5  4  2  0
  5 11  1  0
  6  5  1  0
  7  6  1  0
  7  9  1  0
  7  8  1  6
  9 10  2  0
 11 12  2  0
 12  2  1  0
 13 14  1  0
 15 14  1  0
 15 17  1  0
 15 16  1  1
 17 18  1  6
 18  9  1  0
 19 17  1  0
 19 20  2  0
 21 22  1  0
 22 24  1  0
 23 22  2  0
 25 24  1  6
 25 26  1  0
 25 27  1  0
 26 19  1  0
 27 29  1  0
 28 27  2  0
M  END
$$$$
