YIN.pdb
     RDKit          3D

 29 29  0  0  1  0  0  0  0  0999 V2000
    6.2780  -14.8459   15.7160 O   0  0  0  0  0  0  0  0  0  0  0  0
    6.5884  -14.9471   17.0707 C   0  0  0  0  0  0  0  0  0  0  0  0
    7.1731  -16.1181   17.5104 C   0  0  0  0  0  0  0  0  0  0  0  0
    7.4902  -16.2390   18.8576 C   0  0  0  0  0  0  0  0  0  0  0  0
    7.2285  -15.2187   19.7299 C   0  0  0  0  0  0  0  0  0  0  0  0
    7.5795  -15.3778   21.1644 C   0  0  0  0  0  0  0  0  0  0  0  0
    8.4383  -14.2377   21.6317 C   0  0  2  0  0  0  0  0  0  0  0  0
    9.5493  -13.9629   20.7667 N   0  0  0  0  0  0  0  0  0  0  0  0
    8.8471  -14.5128   23.0341 C   0  0  0  0  0  0  0  0  0  0  0  0
    9.9975  -14.9360   23.2545 O   0  0  0  0  0  0  0  0  0  0  0  0
    6.6453  -14.0578   19.2745 C   0  0  0  0  0  0  0  0  0  0  0  0
    6.3197  -13.9141   17.9343 C   0  0  0  0  0  0  0  0  0  0  0  0
    6.1180  -11.4184   26.3655 C   0  0  0  0  0  0  0  0  0  0  0  0
    7.2175  -12.1731   25.7052 C   0  0  0  0  0  0  0  0  0  0  0  0
    7.4578  -13.5598   26.3382 C   0  0  2  0  0  0  0  0  0  0  0  0
    7.9077  -13.3687   27.7688 C   0  0  0  0  0  0  0  0  0  0  0  0
    8.4556  -14.3190   25.5360 C   0  0  2  0  0  0  0  0  0  0  0  0
    7.9801  -14.3119   24.1206 N   0  0  0  0  0  0  0  0  0  0  0  0
    8.7481  -15.6881   25.9409 C   0  0  0  0  0  0  0  0  0  0  0  0
    7.7546  -16.5145   26.0162 O   0  0  0  0  0  0  0  0  0  0  0  0
   12.7946  -17.4001   24.3810 N   0  0  0  0  0  0  0  0  0  0  0  0
   11.6854  -18.1605   24.9121 C   0  0  0  0  0  0  0  0  0  0  0  0
   10.9746  -18.7500   24.0724 O   0  0  0  0  0  0  0  0  0  0  0  0
   11.4745  -18.1879   26.3597 C   0  0  0  0  0  0  0  0  0  0  0  0
   10.1061  -17.6727   26.7107 C   0  0  2  0  0  0  0  0  0  0  0  0
    9.9734  -16.2747   26.2681 N   0  0  0  0  0  0  0  0  0  0  0  0
    9.9569  -17.6257   28.1683 C   0  0  0  0  0  0  0  0  0  0  0  0
    9.8537  -16.5537   28.7850 O   0  0  0  0  0  0  0  0  0  0  0  0
    9.9257  -18.7833   28.9117 O   0  0  0  0  0  0  0  0  0  0  0  0
  2  1  1  0
  3  2  2  0
  4  3  1  0
  5  4  2  0
  5 11  1  0
  6  5  1  0
  7  6  1  0
  7  9  1  0
  7  8  1  6
  9 10  2  0
 11 12  2  0
 12  2  1  0
 13 14  1  0
 15 14  1  0
 15 17  1  0
 15 16  1  1
 17 18  1  6
 18  9  1  0
 19 17  1  0
 19 20  2  0
 21 22  1  0
 22 24  1  0
 23 22  2  0
 25 24  1  1
 25 26  1  0
 25 27  1  0
 26 19  1  0
 27 29  1  0
 28 27  2  0
M  END
$$$$
