YIN.pdb
     RDKit          3D

 29 29  0  0  1  0  0  0  0  0999 V2000
    2.9701  -22.2431   21.8115 O   0  0  0  0  0  0  0  0  0  0  0  0
    3.8854  -21.3094   22.2935 C   0  0  0  0  0  0  0  0  0  0  0  0
    5.1787  -21.3706   21.8139 C   0  0  0  0  0  0  0  0  0  0  0  0
    6.1068  -20.4488   22.2821 C   0  0  0  0  0  0  0  0  0  0  0  0
    5.7461  -19.5003   23.1989 C   0  0  0  0  0  0  0  0  0  0  0  0
    6.7609  -18.5282   23.6801 C   0  0  0  0  0  0  0  0  0  0  0  0
    6.5742  -17.1928   23.0186 C   0  0  2  0  0  0  0  0  0  0  0  0
    6.6895  -17.2384   21.5893 N   0  0  0  0  0  0  0  0  0  0  0  0
    7.5164  -16.2305   23.6478 C   0  0  0  0  0  0  0  0  0  0  0  0
    8.6351  -16.0557   23.1289 O   0  0  0  0  0  0  0  0  0  0  0  0
    4.4520  -19.4534   23.6664 C   0  0  0  0  0  0  0  0  0  0  0  0
    3.5084  -20.3630   23.2139 C   0  0  0  0  0  0  0  0  0  0  0  0
    5.8710  -12.0319   26.4896 C   0  0  0  0  0  0  0  0  0  0  0  0
    6.8553  -12.8413   25.7213 C   0  0  0  0  0  0  0  0  0  0  0  0
    7.5368  -13.9289   26.5782 C   0  0  2  0  0  0  0  0  0  0  0  0
    8.4924  -13.2604   27.5403 C   0  0  0  0  0  0  0  0  0  0  0  0
    8.2269  -14.9112   25.6983 C   0  0  2  0  0  0  0  0  0  0  0  0
    7.1886  -15.5110   24.8085 N   0  0  0  0  0  0  0  0  0  0  0  0
    8.9874  -15.9762   26.3399 C   0  0  0  0  0  0  0  0  0  0  0  0
    8.3206  -16.9488   26.8738 O   0  0  0  0  0  0  0  0  0  0  0  0
   12.1061  -20.0761   26.8027 N   0  0  0  0  0  0  0  0  0  0  0  0
   12.8506  -18.9100   26.3826 C   0  0  0  0  0  0  0  0  0  0  0  0
   14.0937  -19.0042   26.4423 O   0  0  0  0  0  0  0  0  0  0  0  0
   12.1177  -17.7281   25.9278 C   0  0  0  0  0  0  0  0  0  0  0  0
   11.0116  -17.3830   26.8862 C   0  0  2  0  0  0  0  0  0  0  0  0
   10.3706  -16.1240   26.4721 N   0  0  0  0  0  0  0  0  0  0  0  0
   11.5766  -17.1045   28.2100 C   0  0  0  0  0  0  0  0  0  0  0  0
   11.5627  -15.9665   28.7052 O   0  0  0  0  0  0  0  0  0  0  0  0
   12.1487  -18.1078   28.9580 O   0  0  0  0  0  0  0  0  0  0  0  0
  2  1  1  0
  3  2  2  0
  4  3  1  0
  5  4  2  0
  5 11  1  0
  6  5  1  0
  7  6  1  0
  7  9  1  0
  7  8  1  6
  9 10  2  0
 11 12  2  0
 12  2  1  0
 13 14  1  0
 15 14  1  0
 15 17  1  0
 15 16  1  1
 17 18  1  1
 18  9  1  0
 19 17  1  0
 19 20  2  0
 21 22  1  0
 22 24  1  0
 23 22  2  0
 25 24  1  6
 25 26  1  0
 25 27  1  0
 26 19  1  0
 27 29  1  0
 28 27  2  0
M  END
$$$$
