YIN.pdb
     RDKit          3D

 29 29  0  0  1  0  0  0  0  0999 V2000
    2.2364  -23.3090   24.9478 O   0  0  0  0  0  0  0  0  0  0  0  0
    3.2267  -22.3365   24.8230 C   0  0  0  0  0  0  0  0  0  0  0  0
    2.8922  -21.1563   24.1892 C   0  0  0  0  0  0  0  0  0  0  0  0
    3.8654  -20.1740   24.0544 C   0  0  0  0  0  0  0  0  0  0  0  0
    5.1285  -20.3725   24.5398 C   0  0  0  0  0  0  0  0  0  0  0  0
    6.1471  -19.3031   24.3808 C   0  0  0  0  0  0  0  0  0  0  0  0
    5.5540  -18.0992   23.7065 C   0  0  2  0  0  0  0  0  0  0  0  0
    5.0693  -18.3628   22.3822 N   0  0  0  0  0  0  0  0  0  0  0  0
    6.5581  -17.0041   23.7512 C   0  0  0  0  0  0  0  0  0  0  0  0
    7.3473  -16.8707   22.7969 O   0  0  0  0  0  0  0  0  0  0  0  0
    5.4448  -21.5552   25.1693 C   0  0  0  0  0  0  0  0  0  0  0  0
    4.4903  -22.5503   25.3155 C   0  0  0  0  0  0  0  0  0  0  0  0
    5.5529  -12.5963   26.6731 C   0  0  0  0  0  0  0  0  0  0  0  0
    6.2305  -13.3274   25.5682 C   0  0  0  0  0  0  0  0  0  0  0  0
    7.4090  -14.1954   26.0573 C   0  0  2  0  0  0  0  0  0  0  0  0
    8.5566  -13.2868   26.4352 C   0  0  0  0  0  0  0  0  0  0  0  0
    7.7941  -15.1713   25.0015 C   0  0  2  0  0  0  0  0  0  0  0  0
    6.6480  -16.1135   24.8334 N   0  0  0  0  0  0  0  0  0  0  0  0
    9.0209  -15.9328   25.1997 C   0  0  0  0  0  0  0  0  0  0  0  0
    8.9879  -16.9092   26.0490 O   0  0  0  0  0  0  0  0  0  0  0  0
   12.7136  -19.2759   22.7553 N   0  0  0  0  0  0  0  0  0  0  0  0
   12.9390  -17.8824   23.0680 C   0  0  0  0  0  0  0  0  0  0  0  0
   14.1254  -17.5530   23.2731 O   0  0  0  0  0  0  0  0  0  0  0  0
   11.7928  -16.9746   23.1225 C   0  0  0  0  0  0  0  0  0  0  0  0
   11.2757  -16.8500   24.5290 C   0  0  2  0  0  0  0  0  0  0  0  0
   10.2708  -15.7759   24.5951 N   0  0  0  0  0  0  0  0  0  0  0  0
   12.3589  -16.4121   25.4145 C   0  0  0  0  0  0  0  0  0  0  0  0
   13.2131  -17.2007   25.8489 O   0  0  0  0  0  0  0  0  0  0  0  0
   12.4668  -15.0953   25.7990 O   0  0  0  0  0  0  0  0  0  0  0  0
  2  1  1  0
  3  2  2  0
  4  3  1  0
  5  4  2  0
  5 11  1  0
  6  5  1  0
  7  6  1  0
  7  9  1  0
  7  8  1  6
  9 10  2  0
 11 12  2  0
 12  2  1  0
 13 14  1  0
 15 14  1  0
 15 17  1  0
 15 16  1  6
 17 18  1  1
 18  9  1  0
 19 17  1  0
 19 20  2  0
 21 22  1  0
 22 24  1  0
 23 22  2  0
 25 24  1  6
 25 26  1  0
 25 27  1  0
 26 19  1  0
 27 29  1  0
 28 27  2  0
M  END
$$$$
