YIN.pdb
     RDKit          3D

 29 29  0  0  1  0  0  0  0  0999 V2000
    7.4503  -14.2594   15.6409 O   0  0  0  0  0  0  0  0  0  0  0  0
    7.7517  -14.1137   16.9936 C   0  0  0  0  0  0  0  0  0  0  0  0
    8.4113  -15.1521   17.6205 C   0  0  0  0  0  0  0  0  0  0  0  0
    8.7209  -15.0267   18.9691 C   0  0  0  0  0  0  0  0  0  0  0  0
    8.3791  -13.8974   19.6608 C   0  0  0  0  0  0  0  0  0  0  0  0
    8.7242  -13.7927   21.1018 C   0  0  0  0  0  0  0  0  0  0  0  0
    8.4069  -15.0733   21.8195 C   0  0  2  0  0  0  0  0  0  0  0  0
    7.0721  -15.5457   21.5889 N   0  0  0  0  0  0  0  0  0  0  0  0
    8.7158  -14.8830   23.2610 C   0  0  0  0  0  0  0  0  0  0  0  0
    9.8512  -14.4884   23.5870 O   0  0  0  0  0  0  0  0  0  0  0  0
    7.7219  -12.8715   19.0201 C   0  0  0  0  0  0  0  0  0  0  0  0
    7.4022  -12.9740   17.6748 C   0  0  0  0  0  0  0  0  0  0  0  0
    6.4742  -11.5575   25.9671 C   0  0  0  0  0  0  0  0  0  0  0  0
    7.4408  -12.6139   25.5619 C   0  0  0  0  0  0  0  0  0  0  0  0
    7.1970  -13.9577   26.2805 C   0  0  2  0  0  0  0  0  0  0  0  0
    7.4115  -13.7605   27.7639 C   0  0  0  0  0  0  0  0  0  0  0  0
    8.0958  -15.0039   25.7208 C   0  0  2  0  0  0  0  0  0  0  0  0
    7.7707  -15.1333   24.2693 N   0  0  0  0  0  0  0  0  0  0  0  0
    8.0678  -16.3221   26.3419 C   0  0  0  0  0  0  0  0  0  0  0  0
    7.0465  -17.0779   26.0945 O   0  0  0  0  0  0  0  0  0  0  0  0
   12.1861  -19.6496   25.0269 N   0  0  0  0  0  0  0  0  0  0  0  0
   10.7674  -19.6200   25.3044 C   0  0  0  0  0  0  0  0  0  0  0  0
   10.1894  -20.7262   25.3168 O   0  0  0  0  0  0  0  0  0  0  0  0
   10.1200  -18.3302   25.5456 C   0  0  0  0  0  0  0  0  0  0  0  0
    9.5685  -18.2616   26.9429 C   0  0  2  0  0  0  0  0  0  0  0  0
    9.0021  -16.9249   27.1881 N   0  0  0  0  0  0  0  0  0  0  0  0
   10.6618  -18.3946   27.9105 C   0  0  0  0  0  0  0  0  0  0  0  0
   11.6756  -17.6805   27.8601 O   0  0  0  0  0  0  0  0  0  0  0  0
   10.6003  -19.3273   28.9203 O   0  0  0  0  0  0  0  0  0  0  0  0
  2  1  1  0
  3  2  2  0
  4  3  1  0
  5  4  2  0
  5 11  1  0
  6  5  1  0
  7  6  1  0
  7  9  1  0
  7  8  1  1
  9 10  2  0
 11 12  2  0
 12  2  1  0
 13 14  1  0
 15 14  1  0
 15 17  1  0
 15 16  1  1
 17 18  1  6
 18  9  1  0
 19 17  1  0
 19 20  2  0
 21 22  1  0
 22 24  1  0
 23 22  2  0
 25 24  1  6
 25 26  1  0
 25 27  1  0
 26 19  1  0
 27 29  1  0
 28 27  2  0
M  END
$$$$
