YIN.pdb
     RDKit          3D

 29 29  0  0  1  0  0  0  0  0999 V2000
   11.5969  -16.7041   32.6750 O   0  0  0  0  0  0  0  0  0  0  0  0
   11.1419  -16.8433   31.3652 C   0  0  0  0  0  0  0  0  0  0  0  0
   11.1627  -18.1066   30.8085 C   0  0  0  0  0  0  0  0  0  0  0  0
   10.7135  -18.2667   29.5036 C   0  0  0  0  0  0  0  0  0  0  0  0
   10.2600  -17.1945   28.7858 C   0  0  0  0  0  0  0  0  0  0  0  0
    9.7857  -17.3976   27.3929 C   0  0  0  0  0  0  0  0  0  0  0  0
    8.2853  -17.4419   27.3427 C   0  0  2  0  0  0  0  0  0  0  0  0
    7.7429  -18.7578   27.5226 N   0  0  0  0  0  0  0  0  0  0  0  0
    7.8470  -16.8002   26.0755 C   0  0  0  0  0  0  0  0  0  0  0  0
    7.6266  -17.5177   25.0816 O   0  0  0  0  0  0  0  0  0  0  0  0
   10.2459  -15.9417   29.3565 C   0  0  0  0  0  0  0  0  0  0  0  0
   10.6895  -15.7574   30.6572 C   0  0  0  0  0  0  0  0  0  0  0  0
    5.9698  -11.9348   26.6533 C   0  0  0  0  0  0  0  0  0  0  0  0
    5.9624  -13.1775   25.8348 C   0  0  0  0  0  0  0  0  0  0  0  0
    7.1997  -13.3013   24.9209 C   0  0  2  0  0  0  0  0  0  0  0  0
    6.9471  -12.5166   23.6536 C   0  0  0  0  0  0  0  0  0  0  0  0
    7.4844  -14.7354   24.6420 C   0  0  2  0  0  0  0  0  0  0  0  0
    7.6727  -15.4115   25.9599 N   0  0  0  0  0  0  0  0  0  0  0  0
    8.6140  -15.0442   23.7744 C   0  0  0  0  0  0  0  0  0  0  0  0
    9.7977  -14.7461   24.2053 O   0  0  0  0  0  0  0  0  0  0  0  0
   12.5204  -17.9115   21.6638 N   0  0  0  0  0  0  0  0  0  0  0  0
   11.1809  -17.9710   21.1229 C   0  0  0  0  0  0  0  0  0  0  0  0
   11.0797  -18.4144   19.9605 O   0  0  0  0  0  0  0  0  0  0  0  0
   10.0623  -17.5194   21.9509 C   0  0  0  0  0  0  0  0  0  0  0  0
    9.8620  -16.0352   21.8160 C   0  0  2  0  0  0  0  0  0  0  0  0
    8.6257  -15.6360   22.5087 N   0  0  0  0  0  0  0  0  0  0  0  0
    9.6356  -15.6952   20.4080 C   0  0  0  0  0  0  0  0  0  0  0  0
    8.5152  -15.7836   19.8817 O   0  0  0  0  0  0  0  0  0  0  0  0
   10.6708  -15.2610   19.6121 O   0  0  0  0  0  0  0  0  0  0  0  0
  2  1  1  0
  3  2  2  0
  4  3  1  0
  5  4  2  0
  5 11  1  0
  6  5  1  0
  7  6  1  0
  7  9  1  0
  7  8  1  6
  9 10  2  0
 11 12  2  0
 12  2  1  0
 13 14  1  0
 15 14  1  0
 15 17  1  0
 15 16  1  6
 17 18  1  1
 18  9  1  0
 19 17  1  0
 19 20  2  0
 21 22  1  0
 22 24  1  0
 23 22  2  0
 25 24  1  6
 25 26  1  0
 25 27  1  0
 26 19  1  0
 27 29  1  0
 28 27  2  0
M  END
$$$$
