YIN.pdb
     RDKit          3D

 29 29  0  0  1  0  0  0  0  0999 V2000
   11.9505  -18.6547   32.5105 O   0  0  0  0  0  0  0  0  0  0  0  0
   11.0151  -18.2992   31.5408 C   0  0  0  0  0  0  0  0  0  0  0  0
   10.2747  -19.3101   30.9609 C   0  0  0  0  0  0  0  0  0  0  0  0
    9.3368  -18.9767   29.9917 C   0  0  0  0  0  0  0  0  0  0  0  0
    9.1510  -17.6736   29.6202 C   0  0  0  0  0  0  0  0  0  0  0  0
    8.1403  -17.3486   28.5814 C   0  0  0  0  0  0  0  0  0  0  0  0
    8.6620  -17.6738   27.2111 C   0  0  2  0  0  0  0  0  0  0  0  0
   10.0814  -17.5095   27.0827 N   0  0  0  0  0  0  0  0  0  0  0  0
    7.8921  -16.8741   26.2225 C   0  0  0  0  0  0  0  0  0  0  0  0
    6.6669  -17.0693   26.1127 O   0  0  0  0  0  0  0  0  0  0  0  0
    9.8977  -16.6781   30.2089 C   0  0  0  0  0  0  0  0  0  0  0  0
   10.8398  -16.9866   31.1783 C   0  0  0  0  0  0  0  0  0  0  0  0
    7.0648  -12.2695   26.5964 C   0  0  0  0  0  0  0  0  0  0  0  0
    6.8090  -13.5604   25.9017 C   0  0  0  0  0  0  0  0  0  0  0  0
    7.7089  -13.7646   24.6648 C   0  0  2  0  0  0  0  0  0  0  0  0
    7.1727  -12.9216   23.5302 C   0  0  0  0  0  0  0  0  0  0  0  0
    7.7643  -15.2089   24.3092 C   0  0  2  0  0  0  0  0  0  0  0  0
    8.4989  -15.9050   25.4070 N   0  0  0  0  0  0  0  0  0  0  0  0
    8.3578  -15.5673   23.0273 C   0  0  0  0  0  0  0  0  0  0  0  0
    9.6371  -15.4181   22.8982 O   0  0  0  0  0  0  0  0  0  0  0  0
    7.6855  -17.5608   17.2852 N   0  0  0  0  0  0  0  0  0  0  0  0
    8.2703  -17.7646   18.5917 C   0  0  0  0  0  0  0  0  0  0  0  0
    9.3689  -18.3567   18.6127 O   0  0  0  0  0  0  0  0  0  0  0  0
    7.5551  -17.2770   19.7714 C   0  0  0  0  0  0  0  0  0  0  0  0
    8.5006  -16.6116   20.7329 C   0  0  2  0  0  0  0  0  0  0  0  0
    7.7467  -16.0688   21.8750 N   0  0  0  0  0  0  0  0  0  0  0  0
    9.1131  -15.4440   20.0921 C   0  0  0  0  0  0  0  0  0  0  0  0
    8.4467  -14.4518   19.7578 O   0  0  0  0  0  0  0  0  0  0  0  0
   10.4647  -15.4077   19.8364 O   0  0  0  0  0  0  0  0  0  0  0  0
  2  1  1  0
  3  2  2  0
  4  3  1  0
  5  4  2  0
  5 11  1  0
  6  5  1  0
  7  6  1  0
  7  9  1  0
  7  8  1  1
  9 10  2  0
 11 12  2  0
 12  2  1  0
 13 14  1  0
 15 14  1  0
 15 17  1  0
 15 16  1  6
 17 18  1  1
 18  9  1  0
 19 17  1  0
 19 20  2  0
 21 22  1  0
 22 24  1  0
 23 22  2  0
 25 24  1  6
 25 26  1  0
 25 27  1  0
 26 19  1  0
 27 29  1  0
 28 27  2  0
M  END
$$$$
