YIN.pdb
     RDKit          3D

 29 29  0  0  1  0  0  0  0  0999 V2000
   12.2060  -17.7260   32.4376 O   0  0  0  0  0  0  0  0  0  0  0  0
   11.6823  -17.4413   31.1780 C   0  0  0  0  0  0  0  0  0  0  0  0
   11.7081  -18.4444   30.2295 C   0  0  0  0  0  0  0  0  0  0  0  0
   11.1910  -18.1807   28.9672 C   0  0  0  0  0  0  0  0  0  0  0  0
   10.6672  -16.9526   28.6709 C   0  0  0  0  0  0  0  0  0  0  0  0
   10.1214  -16.7012   27.3125 C   0  0  0  0  0  0  0  0  0  0  0  0
    8.6482  -16.9904   27.2690 C   0  0  2  0  0  0  0  0  0  0  0  0
    8.3326  -18.3848   27.3878 N   0  0  0  0  0  0  0  0  0  0  0  0
    8.0928  -16.3711   26.0371 C   0  0  0  0  0  0  0  0  0  0  0  0
    7.6254  -17.1094   25.1496 O   0  0  0  0  0  0  0  0  0  0  0  0
   10.6492  -15.9638   29.6286 C   0  0  0  0  0  0  0  0  0  0  0  0
   11.1598  -16.2035   30.8953 C   0  0  0  0  0  0  0  0  0  0  0  0
    6.2164  -11.5886   26.8171 C   0  0  0  0  0  0  0  0  0  0  0  0
    6.1719  -12.8712   26.0639 C   0  0  0  0  0  0  0  0  0  0  0  0
    7.2140  -12.9361   24.9276 C   0  0  2  0  0  0  0  0  0  0  0  0
    6.6754  -12.1840   23.7318 C   0  0  0  0  0  0  0  0  0  0  0  0
    7.5230  -14.3551   24.6015 C   0  0  2  0  0  0  0  0  0  0  0  0
    8.0768  -14.9809   25.8389 N   0  0  0  0  0  0  0  0  0  0  0  0
    8.4243  -14.6115   23.4852 C   0  0  0  0  0  0  0  0  0  0  0  0
    9.4438  -13.8259   23.3473 O   0  0  0  0  0  0  0  0  0  0  0  0
   12.5979  -16.1417   21.1183 N   0  0  0  0  0  0  0  0  0  0  0  0
   11.6306  -17.1322   21.5350 C   0  0  0  0  0  0  0  0  0  0  0  0
   11.8171  -18.2911   21.1105 O   0  0  0  0  0  0  0  0  0  0  0  0
   10.5263  -16.7222   22.4029 C   0  0  0  0  0  0  0  0  0  0  0  0
    9.4982  -15.9444   21.6290 C   0  0  2  0  0  0  0  0  0  0  0  0
    8.3655  -15.6079   22.5073 N   0  0  0  0  0  0  0  0  0  0  0  0
    8.9263  -16.7933   20.5795 C   0  0  0  0  0  0  0  0  0  0  0  0
    9.5302  -17.0276   19.5209 O   0  0  0  0  0  0  0  0  0  0  0  0
    7.6849  -17.3665   20.7344 O   0  0  0  0  0  0  0  0  0  0  0  0
  2  1  1  0
  3  2  2  0
  4  3  1  0
  5  4  2  0
  5 11  1  0
  6  5  1  0
  7  6  1  0
  7  9  1  0
  7  8  1  6
  9 10  2  0
 11 12  2  0
 12  2  1  0
 13 14  1  0
 15 14  1  0
 15 17  1  0
 15 16  1  6
 17 18  1  1
 18  9  1  0
 19 17  1  0
 19 20  2  0
 21 22  1  0
 22 24  1  0
 23 22  2  0
 25 24  1  1
 25 26  1  0
 25 27  1  0
 26 19  1  0
 27 29  1  0
 28 27  2  0
M  END
$$$$
