YIN.pdb
     RDKit          3D

 29 29  0  0  1  0  0  0  0  0999 V2000
    7.3183  -14.0884   15.4182 O   0  0  0  0  0  0  0  0  0  0  0  0
    7.4499  -13.9743   16.8008 C   0  0  0  0  0  0  0  0  0  0  0  0
    7.7340  -15.1206   17.5161 C   0  0  0  0  0  0  0  0  0  0  0  0
    7.8689  -15.0283   18.8958 C   0  0  0  0  0  0  0  0  0  0  0  0
    7.7234  -13.8263   19.5317 C   0  0  0  0  0  0  0  0  0  0  0  0
    7.8740  -13.7595   21.0079 C   0  0  0  0  0  0  0  0  0  0  0  0
    8.1411  -15.1231   21.5779 C   0  0  2  0  0  0  0  0  0  0  0  0
    6.9949  -15.9859   21.5650 N   0  0  0  0  0  0  0  0  0  0  0  0
    8.7238  -14.9502   22.9343 C   0  0  0  0  0  0  0  0  0  0  0  0
    9.9286  -14.6523   23.0392 O   0  0  0  0  0  0  0  0  0  0  0  0
    7.4405  -12.6931   18.8030 C   0  0  0  0  0  0  0  0  0  0  0  0
    7.3011  -12.7606   17.4251 C   0  0  0  0  0  0  0  0  0  0  0  0
    6.2315  -11.9259   26.1212 C   0  0  0  0  0  0  0  0  0  0  0  0
    7.3362  -12.7220   25.5210 C   0  0  0  0  0  0  0  0  0  0  0  0
    7.5529  -14.0762   26.2286 C   0  0  2  0  0  0  0  0  0  0  0  0
    8.0122  -13.8154   27.6451 C   0  0  0  0  0  0  0  0  0  0  0  0
    8.5329  -14.8972   25.4663 C   0  0  2  0  0  0  0  0  0  0  0  0
    7.9622  -15.1114   24.1033 N   0  0  0  0  0  0  0  0  0  0  0  0
    8.9254  -16.1811   26.0333 C   0  0  0  0  0  0  0  0  0  0  0  0
    8.0181  -17.1007   26.1155 O   0  0  0  0  0  0  0  0  0  0  0  0
   13.2646  -20.1181   27.0593 N   0  0  0  0  0  0  0  0  0  0  0  0
   11.9440  -19.8792   26.5212 C   0  0  0  0  0  0  0  0  0  0  0  0
   11.1894  -20.8717   26.4632 O   0  0  0  0  0  0  0  0  0  0  0  0
   11.5888  -18.5264   26.0914 C   0  0  0  0  0  0  0  0  0  0  0  0
   10.4574  -17.9821   26.9189 C   0  0  2  0  0  0  0  0  0  0  0  0
   10.1695  -16.5957   26.5156 N   0  0  0  0  0  0  0  0  0  0  0  0
   10.8732  -17.8913   28.3218 C   0  0  0  0  0  0  0  0  0  0  0  0
   11.2865  -16.8317   28.8183 O   0  0  0  0  0  0  0  0  0  0  0  0
   10.8186  -18.9917   29.1462 O   0  0  0  0  0  0  0  0  0  0  0  0
  2  1  1  0
  3  2  2  0
  4  3  1  0
  5  4  2  0
  5 11  1  0
  6  5  1  0
  7  6  1  0
  7  9  1  0
  7  8  1  1
  9 10  2  0
 11 12  2  0
 12  2  1  0
 13 14  1  0
 15 14  1  0
 15 17  1  0
 15 16  1  1
 17 18  1  6
 18  9  1  0
 19 17  1  0
 19 20  2  0
 21 22  1  0
 22 24  1  0
 23 22  2  0
 25 24  1  6
 25 26  1  0
 25 27  1  0
 26 19  1  0
 27 29  1  0
 28 27  2  0
M  END
$$$$
