YIN.pdb
     RDKit          3D

 29 29  0  0  1  0  0  0  0  0999 V2000
   11.7179  -16.5088   32.5720 O   0  0  0  0  0  0  0  0  0  0  0  0
   11.2940  -16.6347   31.2505 C   0  0  0  0  0  0  0  0  0  0  0  0
   10.7004  -15.5375   30.6588 C   0  0  0  0  0  0  0  0  0  0  0  0
   10.2705  -15.6424   29.3418 C   0  0  0  0  0  0  0  0  0  0  0  0
   10.4325  -16.8088   28.6463 C   0  0  0  0  0  0  0  0  0  0  0  0
    9.9629  -16.8899   27.2394 C   0  0  0  0  0  0  0  0  0  0  0  0
    8.5004  -17.2273   27.1850 C   0  0  2  0  0  0  0  0  0  0  0  0
    8.2266  -18.6253   27.3543 N   0  0  0  0  0  0  0  0  0  0  0  0
    7.9462  -16.6748   25.9213 C   0  0  0  0  0  0  0  0  0  0  0  0
    7.1701  -17.3768   25.2459 O   0  0  0  0  0  0  0  0  0  0  0  0
   11.0267  -17.8930   29.2516 C   0  0  0  0  0  0  0  0  0  0  0  0
   11.4635  -17.8121   30.5651 C   0  0  0  0  0  0  0  0  0  0  0  0
    7.1131  -11.5616   26.3626 C   0  0  0  0  0  0  0  0  0  0  0  0
    6.7394  -12.8795   25.7813 C   0  0  0  0  0  0  0  0  0  0  0  0
    7.6039  -13.2644   24.5623 C   0  0  2  0  0  0  0  0  0  0  0  0
    7.1236  -12.4827   23.3607 C   0  0  0  0  0  0  0  0  0  0  0  0
    7.5373  -14.7339   24.3353 C   0  0  2  0  0  0  0  0  0  0  0  0
    8.2676  -15.3872   25.4618 N   0  0  0  0  0  0  0  0  0  0  0  0
    8.0445  -15.2461   23.0686 C   0  0  0  0  0  0  0  0  0  0  0  0
    7.5480  -14.7496   21.9811 O   0  0  0  0  0  0  0  0  0  0  0  0
   11.2475  -14.3296   19.3011 N   0  0  0  0  0  0  0  0  0  0  0  0
   11.5528  -14.4896   20.7053 C   0  0  0  0  0  0  0  0  0  0  0  0
   12.7644  -14.4876   21.0051 O   0  0  0  0  0  0  0  0  0  0  0  0
   10.4514  -14.6396   21.6567 C   0  0  0  0  0  0  0  0  0  0  0  0
   10.0572  -16.0841   21.7950 C   0  0  2  0  0  0  0  0  0  0  0  0
    9.0192  -16.2185   22.8305 N   0  0  0  0  0  0  0  0  0  0  0  0
   11.1963  -16.8592   22.2957 C   0  0  0  0  0  0  0  0  0  0  0  0
   11.8162  -16.5313   23.3196 O   0  0  0  0  0  0  0  0  0  0  0  0
   11.6222  -17.9911   21.6393 O   0  0  0  0  0  0  0  0  0  0  0  0
  2  1  1  0
  3  2  2  0
  4  3  1  0
  5  4  2  0
  5 11  1  0
  6  5  1  0
  7  6  1  0
  7  9  1  0
  7  8  1  6
  9 10  2  0
 11 12  2  0
 12  2  1  0
 13 14  1  0
 15 14  1  0
 15 17  1  0
 15 16  1  6
 17 18  1  1
 18  9  1  0
 19 17  1  0
 19 20  2  0
 21 22  1  0
 22 24  1  0
 23 22  2  0
 25 24  1  1
 25 26  1  0
 25 27  1  0
 26 19  1  0
 27 29  1  0
 28 27  2  0
M  END
$$$$
