GNA.pdb
     RDKit          3D

 18 17  0  0  1  0  0  0  0  0999 V2000
    7.3547  -19.4468   19.7237 N   0  0  0  0  0  0  0  0  0  0  0  0
    6.6007  -18.3351   20.2385 C   0  0  0  0  0  0  0  0  0  0  0  0
    7.5188  -17.2064   20.6241 C   0  0  0  0  0  0  0  0  0  0  0  0
    8.7268  -17.4166   20.8746 O   0  0  0  0  0  0  0  0  0  0  0  0
    7.2096  -12.4316   18.3221 N   0  0  0  0  0  0  0  0  0  0  0  0
    7.8665  -13.2387   19.2705 C   0  0  0  0  0  0  0  0  0  0  0  0
    8.9278  -13.8440   18.8905 O   0  0  0  0  0  0  0  0  0  0  0  0
    7.4733  -13.4694   20.6624 C   0  0  0  0  0  0  0  0  0  0  0  0
    7.9010  -14.7797   21.2450 C   0  0  2  0  0  0  0  0  0  0  0  0
    7.0500  -15.8702   20.7171 N   0  0  0  0  0  0  0  0  0  0  0  0
    7.7016  -14.8617   22.7227 C   0  0  0  0  0  0  0  0  0  0  0  0
    6.5384  -14.9986   23.1552 O   0  0  0  0  0  0  0  0  0  0  0  0
    7.1335  -14.7116   25.4936 C   0  0  0  0  0  0  0  0  0  0  0  0
    8.5869  -14.8970   25.0974 C   0  0  2  0  0  0  0  0  0  0  0  0
    8.7573  -14.7932   23.6658 N   0  0  0  0  0  0  0  0  0  0  0  0
    9.0351  -16.2379   25.5863 C   0  0  0  0  0  0  0  0  0  0  0  0
    9.4207  -17.2294   24.7122 O   0  0  0  0  0  0  0  0  0  0  0  0
    9.0772  -16.5123   26.8165 O   0  0  0  0  0  0  0  0  0  0  0  0
  2  1  1  0
  3  2  1  0
  4  3  2  0
  5  6  1  0
  6  8  1  0
  6  7  2  0
  9  8  1  6
  9 10  1  0
 10  3  1  0
 11  9  1  0
 11 12  2  0
 14 13  1  6
 14 15  1  0
 15 11  1  0
 16 14  1  0
 17 16  1  0
 18 16  2  0
M  END
$$$$
