GNA.pdb
     RDKit          3D

 18 17  0  0  1  0  0  0  0  0999 V2000
   13.0927  -13.8889   18.6495 N   0  0  0  0  0  0  0  0  0  0  0  0
   13.0258  -15.1752   19.2901 C   0  0  0  0  0  0  0  0  0  0  0  0
   11.6080  -15.5008   19.6763 C   0  0  0  0  0  0  0  0  0  0  0  0
   10.6661  -14.7351   19.3717 O   0  0  0  0  0  0  0  0  0  0  0  0
   10.2250  -19.2404   17.9434 N   0  0  0  0  0  0  0  0  0  0  0  0
    9.3919  -18.5370   18.8343 C   0  0  0  0  0  0  0  0  0  0  0  0
    8.3681  -17.9501   18.3399 O   0  0  0  0  0  0  0  0  0  0  0  0
    9.5606  -18.3971   20.2824 C   0  0  0  0  0  0  0  0  0  0  0  0
    9.8959  -17.0202   20.7629 C   0  0  2  0  0  0  0  0  0  0  0  0
   11.2898  -16.6817   20.3963 N   0  0  0  0  0  0  0  0  0  0  0  0
    9.8832  -16.8951   22.2510 C   0  0  0  0  0  0  0  0  0  0  0  0
    8.8454  -17.2234   22.8627 O   0  0  0  0  0  0  0  0  0  0  0  0
    9.8054  -15.4570   24.9261 C   0  0  0  0  0  0  0  0  0  0  0  0
   10.9848  -16.2859   24.4509 C   0  0  2  0  0  0  0  0  0  0  0  0
   10.9823  -16.4246   23.0122 N   0  0  0  0  0  0  0  0  0  0  0  0
   10.9073  -17.6264   25.1104 C   0  0  0  0  0  0  0  0  0  0  0  0
   10.7108  -18.7766   24.3794 O   0  0  0  0  0  0  0  0  0  0  0  0
   11.0186  -17.7553   26.3600 O   0  0  0  0  0  0  0  0  0  0  0  0
  2  1  1  0
  3  2  1  0
  4  3  2  0
  5  6  1  0
  6  8  1  0
  6  7  2  0
  9  8  1  1
  9 10  1  0
 10  3  1  0
 11  9  1  0
 11 12  2  0
 14 13  1  6
 14 15  1  0
 15 11  1  0
 16 14  1  0
 17 16  1  0
 18 16  2  0
M  END
$$$$
