GNA.pdb
     RDKit          3D

 18 17  0  0  1  0  0  0  0  0999 V2000
    8.0348  -19.1317   22.9240 N   0  0  0  0  0  0  0  0  0  0  0  0
    7.4801  -18.3033   23.9609 C   0  0  0  0  0  0  0  0  0  0  0  0
    8.0107  -16.8986   23.8565 C   0  0  0  0  0  0  0  0  0  0  0  0
    8.8221  -16.5824   22.9577 O   0  0  0  0  0  0  0  0  0  0  0  0
    5.6429  -12.6489   26.8325 N   0  0  0  0  0  0  0  0  0  0  0  0
    6.1329  -13.6908   26.0220 C   0  0  0  0  0  0  0  0  0  0  0  0
    5.9106  -14.8895   26.4102 O   0  0  0  0  0  0  0  0  0  0  0  0
    6.8770  -13.5624   24.7670 C   0  0  0  0  0  0  0  0  0  0  0  0
    8.0483  -14.4810   24.6145 C   0  0  2  0  0  0  0  0  0  0  0  0
    7.6120  -15.8874   24.7690 N   0  0  0  0  0  0  0  0  0  0  0  0
    9.0748  -14.3114   25.6858 C   0  0  0  0  0  0  0  0  0  0  0  0
    9.6923  -13.2278   25.7462 O   0  0  0  0  0  0  0  0  0  0  0  0
    9.9695  -14.0104   28.6307 C   0  0  0  0  0  0  0  0  0  0  0  0
   10.3541  -15.1512   27.7063 C   0  0  2  0  0  0  0  0  0  0  0  0
    9.3905  -15.3100   26.6407 N   0  0  0  0  0  0  0  0  0  0  0  0
   10.4480  -16.4008   28.5233 C   0  0  0  0  0  0  0  0  0  0  0  0
   11.3137  -16.4989   29.5895 O   0  0  0  0  0  0  0  0  0  0  0  0
    9.7388  -17.4119   28.2680 O   0  0  0  0  0  0  0  0  0  0  0  0
  2  1  1  0
  3  2  1  0
  4  3  2  0
  5  6  1  0
  6  8  1  0
  6  7  2  0
  9  8  1  1
  9 10  1  0
 10  3  1  0
 11  9  1  0
 11 12  2  0
 14 13  1  1
 14 15  1  0
 15 11  1  0
 16 14  1  0
 17 16  1  0
 18 16  2  0
M  END
$$$$
