GNA.pdb
     RDKit          3D

 18 17  0  0  1  0  0  0  0  0999 V2000
    3.0708  -24.2151   18.4562 N   0  0  0  0  0  0  0  0  0  0  0  0
    2.5051  -23.8964   19.7398 C   0  0  0  0  0  0  0  0  0  0  0  0
    2.8094  -22.4703   20.1127 C   0  0  0  0  0  0  0  0  0  0  0  0
    3.4164  -21.7139   19.3217 O   0  0  0  0  0  0  0  0  0  0  0  0
    0.4222  -19.7131   20.0970 N   0  0  0  0  0  0  0  0  0  0  0  0
    0.4774  -19.5091   21.4890 C   0  0  0  0  0  0  0  0  0  0  0  0
   -0.5166  -18.9162   22.0344 O   0  0  0  0  0  0  0  0  0  0  0  0
    1.5540  -19.9029   22.4006 C   0  0  0  0  0  0  0  0  0  0  0  0
    2.7433  -20.5428   21.7562 C   0  0  2  0  0  0  0  0  0  0  0  0
    2.4210  -21.9348   21.3683 N   0  0  0  0  0  0  0  0  0  0  0  0
    3.9052  -20.6955   22.6818 C   0  0  0  0  0  0  0  0  0  0  0  0
    3.7479  -21.3687   23.7215 O   0  0  0  0  0  0  0  0  0  0  0  0
    7.6248  -20.1122   22.5156 C   0  0  0  0  0  0  0  0  0  0  0  0
    6.3371  -20.3223   23.2911 C   0  0  2  0  0  0  0  0  0  0  0  0
    5.1794  -20.1200   22.4495 N   0  0  0  0  0  0  0  0  0  0  0  0
    6.3260  -19.3671   24.4423 C   0  0  0  0  0  0  0  0  0  0  0  0
    7.1128  -19.5718   25.5536 O   0  0  0  0  0  0  0  0  0  0  0  0
    5.5965  -18.3383   24.4401 O   0  0  0  0  0  0  0  0  0  0  0  0
  2  1  1  0
  3  2  1  0
  4  3  2  0
  5  6  1  0
  6  8  1  0
  6  7  2  0
  9  8  1  1
  9 10  1  0
 10  3  1  0
 11  9  1  0
 11 12  2  0
 14 13  1  6
 14 15  1  0
 15 11  1  0
 16 14  1  0
 17 16  1  0
 18 16  2  0
M  END
$$$$
