GNA.pdb
     RDKit          3D

 18 17  0  0  1  0  0  0  0  0999 V2000
    8.4016  -27.4896   31.0513 N   0  0  0  0  0  0  0  0  0  0  0  0
    8.5386  -26.1644   31.5938 C   0  0  0  0  0  0  0  0  0  0  0  0
    9.8552  -25.5595   31.1864 C   0  0  0  0  0  0  0  0  0  0  0  0
   10.9381  -26.0696   31.5513 O   0  0  0  0  0  0  0  0  0  0  0  0
   11.5276  -25.6679   27.7892 N   0  0  0  0  0  0  0  0  0  0  0  0
   11.3378  -24.2869   27.5913 C   0  0  0  0  0  0  0  0  0  0  0  0
   11.3060  -23.8667   26.3832 O   0  0  0  0  0  0  0  0  0  0  0  0
   11.1682  -23.2590   28.6208 C   0  0  0  0  0  0  0  0  0  0  0  0
   11.2031  -23.7495   30.0341 C   0  0  2  0  0  0  0  0  0  0  0  0
    9.9156  -24.3946   30.3779 N   0  0  0  0  0  0  0  0  0  0  0  0
   11.3248  -22.6501   31.0374 C   0  0  0  0  0  0  0  0  0  0  0  0
   10.2947  -22.0160   31.3470 O   0  0  0  0  0  0  0  0  0  0  0  0
   14.0113  -21.2793   33.3410 C   0  0  0  0  0  0  0  0  0  0  0  0
   12.6891  -21.1941   32.6005 C   0  0  2  0  0  0  0  0  0  0  0  0
   12.5435  -22.2827   31.6608 N   0  0  0  0  0  0  0  0  0  0  0  0
   12.6353  -19.8765   31.8942 C   0  0  0  0  0  0  0  0  0  0  0  0
   12.4302  -18.7009   32.5810 O   0  0  0  0  0  0  0  0  0  0  0  0
   12.7756  -19.7910   30.6438 O   0  0  0  0  0  0  0  0  0  0  0  0
  2  1  1  0
  3  2  1  0
  4  3  2  0
  5  6  1  0
  6  8  1  0
  6  7  2  0
  9  8  1  6
  9 10  1  0
 10  3  1  0
 11  9  1  0
 11 12  2  0
 14 13  1  6
 14 15  1  0
 15 11  1  0
 16 14  1  0
 17 16  1  0
 18 16  2  0
M  END
$$$$
