GNA.pdb
     RDKit          3D

 18 17  0  0  1  0  0  0  0  0999 V2000
    6.2402  -19.3048   24.7090 N   0  0  0  0  0  0  0  0  0  0  0  0
    5.7211  -18.0088   24.3626 C   0  0  0  0  0  0  0  0  0  0  0  0
    6.7822  -17.1748   23.6962 C   0  0  0  0  0  0  0  0  0  0  0  0
    7.9676  -17.5711   23.6343 O   0  0  0  0  0  0  0  0  0  0  0  0
    9.2012  -13.3903   20.6902 N   0  0  0  0  0  0  0  0  0  0  0  0
    7.8320  -13.6083   20.4448 C   0  0  0  0  0  0  0  0  0  0  0  0
    7.3229  -13.0403   19.4175 O   0  0  0  0  0  0  0  0  0  0  0  0
    6.9079  -14.4222   21.2378 C   0  0  0  0  0  0  0  0  0  0  0  0
    7.5072  -15.1050   22.4268 C   0  0  2  0  0  0  0  0  0  0  0  0
    6.4781  -15.9153   23.1171 N   0  0  0  0  0  0  0  0  0  0  0  0
    7.9723  -14.1549   23.4808 C   0  0  0  0  0  0  0  0  0  0  0  0
    8.9774  -13.4536   23.2422 O   0  0  0  0  0  0  0  0  0  0  0  0
    6.6172  -12.3631   26.4065 C   0  0  0  0  0  0  0  0  0  0  0  0
    7.7851  -13.1015   25.7786 C   0  0  2  0  0  0  0  0  0  0  0  0
    7.3387  -14.0014   24.7393 N   0  0  0  0  0  0  0  0  0  0  0  0
    8.4950  -13.8540   26.8592 C   0  0  0  0  0  0  0  0  0  0  0  0
    9.1175  -13.2014   27.8996 O   0  0  0  0  0  0  0  0  0  0  0  0
    8.5511  -15.1139   26.8595 O   0  0  0  0  0  0  0  0  0  0  0  0
  2  1  1  0
  3  2  1  0
  4  3  2  0
  5  6  1  0
  6  8  1  0
  6  7  2  0
  9  8  1  6
  9 10  1  0
 10  3  1  0
 11  9  1  0
 11 12  2  0
 14 13  1  1
 14 15  1  0
 15 11  1  0
 16 14  1  0
 17 16  1  0
 18 16  2  0
M  END
$$$$
