GNA.pdb
     RDKit          3D

 18 17  0  0  1  0  0  0  0  0999 V2000
   14.9733  -20.0281   16.8755 N   0  0  0  0  0  0  0  0  0  0  0  0
   15.3657  -20.2195   18.2460 C   0  0  0  0  0  0  0  0  0  0  0  0
   14.4368  -19.4794   19.1706 C   0  0  0  0  0  0  0  0  0  0  0  0
   14.1352  -18.2836   18.9578 O   0  0  0  0  0  0  0  0  0  0  0  0
   10.6621  -22.1288   20.5536 N   0  0  0  0  0  0  0  0  0  0  0  0
   10.8803  -20.8377   21.0711 C   0  0  0  0  0  0  0  0  0  0  0  0
    9.9928  -19.9497   20.8245 O   0  0  0  0  0  0  0  0  0  0  0  0
   12.0197  -20.3847   21.8720 C   0  0  0  0  0  0  0  0  0  0  0  0
   12.9271  -19.3999   21.2041 C   0  0  2  0  0  0  0  0  0  0  0  0
   13.8725  -20.1076   20.3112 N   0  0  0  0  0  0  0  0  0  0  0  0
   13.8190  -18.6772   22.1591 C   0  0  0  0  0  0  0  0  0  0  0  0
   14.8646  -19.2456   22.5366 O   0  0  0  0  0  0  0  0  0  0  0  0
   13.9257  -15.2188   23.7445 C   0  0  0  0  0  0  0  0  0  0  0  0
   14.4447  -16.6256   23.5097 C   0  0  2  0  0  0  0  0  0  0  0  0
   13.5483  -17.3808   22.6639 N   0  0  0  0  0  0  0  0  0  0  0  0
   14.6017  -17.2918   24.8399 C   0  0  0  0  0  0  0  0  0  0  0  0
   13.7188  -18.2576   25.2685 O   0  0  0  0  0  0  0  0  0  0  0  0
   15.5475  -16.9954   25.6197 O   0  0  0  0  0  0  0  0  0  0  0  0
  2  1  1  0
  3  2  1  0
  4  3  2  0
  5  6  1  0
  6  8  1  0
  6  7  2  0
  9  8  1  1
  9 10  1  0
 10  3  1  0
 11  9  1  0
 11 12  2  0
 14 13  1  1
 14 15  1  0
 15 11  1  0
 16 14  1  0
 17 16  1  0
 18 16  2  0
M  END
$$$$
