GNA.pdb
     RDKit          3D

 18 17  0  0  1  0  0  0  0  0999 V2000
   -0.8396  -26.6994   30.0105 N   0  0  0  0  0  0  0  0  0  0  0  0
   -2.1737  -26.9291   29.5242 C   0  0  0  0  0  0  0  0  0  0  0  0
   -3.0863  -25.8036   29.9314 C   0  0  0  0  0  0  0  0  0  0  0  0
   -3.1323  -25.4099   31.1185 O   0  0  0  0  0  0  0  0  0  0  0  0
   -6.3381  -21.5239   29.7842 N   0  0  0  0  0  0  0  0  0  0  0  0
   -5.7859  -21.8957   28.5436 C   0  0  0  0  0  0  0  0  0  0  0  0
   -5.9495  -21.0893   27.5638 O   0  0  0  0  0  0  0  0  0  0  0  0
   -5.0334  -23.1145   28.2379 C   0  0  0  0  0  0  0  0  0  0  0  0
   -4.8384  -24.0569   29.3838 C   0  0  2  0  0  0  0  0  0  0  0  0
   -3.9232  -25.1516   28.9888 N   0  0  0  0  0  0  0  0  0  0  0  0
   -6.0890  -24.7699   29.7809 C   0  0  0  0  0  0  0  0  0  0  0  0
   -6.1102  -26.0156   29.6995 O   0  0  0  0  0  0  0  0  0  0  0  0
   -8.0082  -25.4925   32.1223 C   0  0  0  0  0  0  0  0  0  0  0  0
   -8.3934  -24.7841   30.8364 C   0  0  2  0  0  0  0  0  0  0  0  0
   -7.2565  -24.1146   30.2460 N   0  0  0  0  0  0  0  0  0  0  0  0
   -9.4778  -23.8033   31.1523 C   0  0  0  0  0  0  0  0  0  0  0  0
  -10.7694  -24.2137   31.3956 O   0  0  0  0  0  0  0  0  0  0  0  0
   -9.2518  -22.5638   31.2081 O   0  0  0  0  0  0  0  0  0  0  0  0
  2  1  1  0
  3  2  1  0
  4  3  2  0
  5  6  1  0
  6  8  1  0
  6  7  2  0
  9  8  1  6
  9 10  1  0
 10  3  1  0
 11  9  1  0
 11 12  2  0
 14 13  1  1
 14 15  1  0
 15 11  1  0
 16 14  1  0
 17 16  1  0
 18 16  2  0
M  END
$$$$
