GNA.pdb
     RDKit          3D

 18 17  0  0  1  0  0  0  0  0999 V2000
    8.7511  -17.5724   17.0309 N   0  0  0  0  0  0  0  0  0  0  0  0
    9.2553  -17.9525   18.3234 C   0  0  0  0  0  0  0  0  0  0  0  0
    8.2553  -17.6234   19.3991 C   0  0  0  0  0  0  0  0  0  0  0  0
    7.3130  -16.8294   19.1805 O   0  0  0  0  0  0  0  0  0  0  0  0
    5.4496  -20.0070   24.2872 N   0  0  0  0  0  0  0  0  0  0  0  0
    5.6995  -19.0983   23.2411 C   0  0  0  0  0  0  0  0  0  0  0  0
    4.9758  -18.0442   23.1950 O   0  0  0  0  0  0  0  0  0  0  0  0
    6.7066  -19.2182   22.1844 C   0  0  0  0  0  0  0  0  0  0  0  0
    7.3286  -17.9329   21.7370 C   0  0  2  0  0  0  0  0  0  0  0  0
    8.3445  -18.1986   20.6934 N   0  0  0  0  0  0  0  0  0  0  0  0
    8.1017  -17.2452   22.8138 C   0  0  0  0  0  0  0  0  0  0  0  0
    9.2159  -17.7111   23.1307 O   0  0  0  0  0  0  0  0  0  0  0  0
    7.6874  -14.1271   24.9558 C   0  0  0  0  0  0  0  0  0  0  0  0
    8.3749  -15.4175   24.5485 C   0  0  2  0  0  0  0  0  0  0  0  0
    7.6446  -16.0920   23.4992 N   0  0  0  0  0  0  0  0  0  0  0  0
    8.4840  -16.2889   25.7595 C   0  0  0  0  0  0  0  0  0  0  0  0
    9.4648  -16.0864   26.7045 O   0  0  0  0  0  0  0  0  0  0  0  0
    7.6831  -17.2418   25.9621 O   0  0  0  0  0  0  0  0  0  0  0  0
  2  1  1  0
  3  2  1  0
  4  3  2  0
  5  6  1  0
  6  8  1  0
  6  7  2  0
  9  8  1  1
  9 10  1  0
 10  3  1  0
 11  9  1  0
 11 12  2  0
 14 13  1  1
 14 15  1  0
 15 11  1  0
 16 14  1  0
 17 16  1  0
 18 16  2  0
M  END
$$$$
