GNA.pdb
     RDKit          3D

 18 17  0  0  1  0  0  0  0  0999 V2000
    8.1834  -19.3602   19.1473 N   0  0  0  0  0  0  0  0  0  0  0  0
    8.1590  -20.3490   20.1916 C   0  0  0  0  0  0  0  0  0  0  0  0
    7.4006  -19.8375   21.3869 C   0  0  0  0  0  0  0  0  0  0  0  0
    7.0159  -18.6481   21.4441 O   0  0  0  0  0  0  0  0  0  0  0  0
    4.4003  -22.9809   22.3766 N   0  0  0  0  0  0  0  0  0  0  0  0
    4.3819  -21.7709   23.0964 C   0  0  0  0  0  0  0  0  0  0  0  0
    3.4053  -20.9737   22.8778 O   0  0  0  0  0  0  0  0  0  0  0  0
    5.3628  -21.3108   24.0819 C   0  0  0  0  0  0  0  0  0  0  0  0
    6.2718  -20.2139   23.6240 C   0  0  2  0  0  0  0  0  0  0  0  0
    7.0962  -20.6814   22.4866 N   0  0  0  0  0  0  0  0  0  0  0  0
    7.2811  -19.8168   24.6505 C   0  0  0  0  0  0  0  0  0  0  0  0
    8.2917  -20.5358   24.7945 O   0  0  0  0  0  0  0  0  0  0  0  0
    7.8393  -16.8587   26.9714 C   0  0  0  0  0  0  0  0  0  0  0  0
    8.1404  -18.2518   26.4495 C   0  0  2  0  0  0  0  0  0  0  0  0
    7.1598  -18.6691   25.4731 N   0  0  0  0  0  0  0  0  0  0  0  0
    8.1587  -19.1909   27.6138 C   0  0  0  0  0  0  0  0  0  0  0  0
    9.2196  -19.2279   28.4907 O   0  0  0  0  0  0  0  0  0  0  0  0
    7.2044  -19.9846   27.8374 O   0  0  0  0  0  0  0  0  0  0  0  0
  2  1  1  0
  3  2  1  0
  4  3  2  0
  5  6  1  0
  6  8  1  0
  6  7  2  0
  9  8  1  1
  9 10  1  0
 10  3  1  0
 11  9  1  0
 11 12  2  0
 14 13  1  1
 14 15  1  0
 15 11  1  0
 16 14  1  0
 17 16  1  0
 18 16  2  0
M  END
$$$$
