GNA.pdb
     RDKit          3D

 18 17  0  0  1  0  0  0  0  0999 V2000
    1.3080  -20.3972   21.5611 N   0  0  0  0  0  0  0  0  0  0  0  0
    1.8051  -19.1027   21.9438 C   0  0  0  0  0  0  0  0  0  0  0  0
    3.3100  -19.0860   21.9209 C   0  0  0  0  0  0  0  0  0  0  0  0
    3.9590  -20.0880   21.5456 O   0  0  0  0  0  0  0  0  0  0  0  0
    8.0705  -15.4076   20.9382 N   0  0  0  0  0  0  0  0  0  0  0  0
    7.3213  -16.5981   21.0004 C   0  0  0  0  0  0  0  0  0  0  0  0
    7.9448  -17.6948   20.7873 O   0  0  0  0  0  0  0  0  0  0  0  0
    5.8910  -16.7314   21.2861 C   0  0  0  0  0  0  0  0  0  0  0  0
    5.5158  -17.8672   22.1851 C   0  0  2  0  0  0  0  0  0  0  0  0
    4.0433  -17.9391   22.3221 N   0  0  0  0  0  0  0  0  0  0  0  0
    5.9916  -17.6903   23.5895 C   0  0  0  0  0  0  0  0  0  0  0  0
    5.4576  -16.8030   24.2870 O   0  0  0  0  0  0  0  0  0  0  0  0
    6.7530  -19.1694   26.5092 C   0  0  0  0  0  0  0  0  0  0  0  0
    7.5106  -18.2959   25.5261 C   0  0  2  0  0  0  0  0  0  0  0  0
    7.0162  -18.4721   24.1793 N   0  0  0  0  0  0  0  0  0  0  0  0
    8.9608  -18.6542   25.6069 C   0  0  0  0  0  0  0  0  0  0  0  0
    9.6656  -19.0530   24.4933 O   0  0  0  0  0  0  0  0  0  0  0  0
    9.5937  -18.6051   26.6966 O   0  0  0  0  0  0  0  0  0  0  0  0
  2  1  1  0
  3  2  1  0
  4  3  2  0
  5  6  1  0
  6  8  1  0
  6  7  2  0
  9  8  1  6
  9 10  1  0
 10  3  1  0
 11  9  1  0
 11 12  2  0
 14 13  1  1
 14 15  1  0
 15 11  1  0
 16 14  1  0
 17 16  1  0
 18 16  2  0
M  END
$$$$
