GNA.pdb
     RDKit          3D

 18 17  0  0  1  0  0  0  0  0999 V2000
   10.1083  -18.8899   17.4215 N   0  0  0  0  0  0  0  0  0  0  0  0
    9.0975  -18.3657   18.3006 C   0  0  0  0  0  0  0  0  0  0  0  0
    9.5573  -17.0762   18.9260 C   0  0  0  0  0  0  0  0  0  0  0  0
   10.7238  -16.6573   18.7532 O   0  0  0  0  0  0  0  0  0  0  0  0
    7.7286  -11.8782   19.2389 N   0  0  0  0  0  0  0  0  0  0  0  0
    7.7709  -13.2825   19.3311 C   0  0  0  0  0  0  0  0  0  0  0  0
    7.5620  -13.9469   18.2578 O   0  0  0  0  0  0  0  0  0  0  0  0
    8.0312  -14.0847   20.5285 C   0  0  0  0  0  0  0  0  0  0  0  0
    9.1550  -15.0663   20.4157 C   0  0  2  0  0  0  0  0  0  0  0  0
    8.6889  -16.2928   19.7299 N   0  0  0  0  0  0  0  0  0  0  0  0
    9.6383  -15.5645   21.7380 C   0  0  0  0  0  0  0  0  0  0  0  0
    8.7896  -15.9283   22.5784 O   0  0  0  0  0  0  0  0  0  0  0  0
   10.9968  -17.6397   23.5185 C   0  0  0  0  0  0  0  0  0  0  0  0
   11.4983  -16.2195   23.3304 C   0  0  2  0  0  0  0  0  0  0  0  0
   11.0069  -15.6492   22.0964 N   0  0  0  0  0  0  0  0  0  0  0  0
   12.9939  -16.2492   23.3392 C   0  0  0  0  0  0  0  0  0  0  0  0
   13.6993  -16.5921   24.4709 O   0  0  0  0  0  0  0  0  0  0  0  0
   13.6664  -15.9616   22.3117 O   0  0  0  0  0  0  0  0  0  0  0  0
  2  1  1  0
  3  2  1  0
  4  3  2  0
  5  6  1  0
  6  8  1  0
  6  7  2  0
  9  8  1  1
  9 10  1  0
 10  3  1  0
 11  9  1  0
 11 12  2  0
 14 13  1  6
 14 15  1  0
 15 11  1  0
 16 14  1  0
 17 16  1  0
 18 16  2  0
M  END
$$$$
