GNA.pdb
     RDKit          3D

 18 17  0  0  1  0  0  0  0  0999 V2000
   10.5386  -17.6680   20.4578 N   0  0  0  0  0  0  0  0  0  0  0  0
   10.6834  -18.1834   21.7929 C   0  0  0  0  0  0  0  0  0  0  0  0
    9.6983  -17.5275   22.7229 C   0  0  0  0  0  0  0  0  0  0  0  0
    8.9087  -16.6494   22.3086 O   0  0  0  0  0  0  0  0  0  0  0  0
    5.8720  -18.8959   24.3048 N   0  0  0  0  0  0  0  0  0  0  0  0
    7.0466  -19.2682   24.9861 C   0  0  0  0  0  0  0  0  0  0  0  0
    7.3946  -20.4979   24.9255 O   0  0  0  0  0  0  0  0  0  0  0  0
    7.9315  -18.4003   25.7664 C   0  0  0  0  0  0  0  0  0  0  0  0
    8.6047  -17.3070   24.9980 C   0  0  2  0  0  0  0  0  0  0  0  0
    9.6298  -17.8794   24.0961 N   0  0  0  0  0  0  0  0  0  0  0  0
    9.3812  -16.3695   25.8631 C   0  0  0  0  0  0  0  0  0  0  0  0
   10.5521  -16.6785   26.1670 O   0  0  0  0  0  0  0  0  0  0  0  0
    8.7907  -12.9925   27.5181 C   0  0  0  0  0  0  0  0  0  0  0  0
    9.5611  -14.2794   27.2855 C   0  0  2  0  0  0  0  0  0  0  0  0
    8.8664  -15.1465   26.3610 N   0  0  0  0  0  0  0  0  0  0  0  0
    9.7459  -14.9563   28.6067 C   0  0  0  0  0  0  0  0  0  0  0  0
    9.2373  -16.2130   28.8475 O   0  0  0  0  0  0  0  0  0  0  0  0
   10.3738  -14.4033   29.5503 O   0  0  0  0  0  0  0  0  0  0  0  0
  2  1  1  0
  3  2  1  0
  4  3  2  0
  5  6  1  0
  6  8  1  0
  6  7  2  0
  9  8  1  1
  9 10  1  0
 10  3  1  0
 11  9  1  0
 11 12  2  0
 14 13  1  1
 14 15  1  0
 15 11  1  0
 16 14  1  0
 17 16  1  0
 18 16  2  0
M  END
$$$$
