KSF.pdb
     RDKit          3D

 27 27  0  0  1  0  0  0  0  0999 V2000
    8.5646  -17.0194   18.1408 N   0  0  0  0  0  0  0  0  0  0  0  0
    9.3930  -16.5606   19.1982 C   0  0  1  0  0  0  0  0  0  0  0  0
   10.2620  -15.4277   18.8182 C   0  0  0  0  0  0  0  0  0  0  0  0
   11.6273  -15.5237   19.4123 C   0  0  0  0  0  0  0  0  0  0  0  0
   12.5629  -14.4004   19.1838 C   0  0  0  0  0  0  0  0  0  0  0  0
   13.8296  -14.5447   20.0426 C   0  0  0  0  0  0  0  0  0  0  0  0
   14.7126  -13.4154   19.8283 N   0  0  0  0  0  0  0  0  0  0  0  0
    8.6461  -16.3266   20.4656 C   0  0  0  0  0  0  0  0  0  0  0  0
    7.4825  -15.8777   20.3769 O   0  0  0  0  0  0  0  0  0  0  0  0
    7.8499  -18.6597   23.4440 O   0  0  0  0  0  0  0  0  0  0  0  0
    7.3145  -17.3870   23.1596 C   0  0  0  0  0  0  0  0  0  0  0  0
    8.4021  -16.3739   22.9334 C   0  0  2  0  0  0  0  0  0  0  0  0
    9.1576  -16.5748   21.7463 N   0  0  0  0  0  0  0  0  0  0  0  0
    9.2622  -16.3889   24.1644 C   0  0  0  0  0  0  0  0  0  0  0  0
   10.1828  -17.2391   24.3234 O   0  0  0  0  0  0  0  0  0  0  0  0
    9.0831  -15.4475   25.2107 N   0  0  0  0  0  0  0  0  0  0  0  0
    9.8870  -15.4224   26.4235 C   0  0  1  0  0  0  0  0  0  0  0  0
    9.9325  -13.9591   26.8440 C   0  0  0  0  0  0  0  0  0  0  0  0
    8.6615  -13.2560   26.6897 C   0  0  0  0  0  0  0  0  0  0  0  0
    7.7814  -13.0877   27.7352 C   0  0  0  0  0  0  0  0  0  0  0  0
    6.5743  -12.4056   27.5605 C   0  0  0  0  0  0  0  0  0  0  0  0
    6.2420  -11.8897   26.3428 C   0  0  0  0  0  0  0  0  0  0  0  0
    7.1233  -12.0552   25.2852 C   0  0  0  0  0  0  0  0  0  0  0  0
    8.3131  -12.7295   25.4648 C   0  0  0  0  0  0  0  0  0  0  0  0
    9.3289  -16.2768   27.4778 C   0  0  0  0  0  0  0  0  0  0  0  0
   10.0192  -16.4723   28.6583 O   0  0  0  0  0  0  0  0  0  0  0  0
    8.2243  -16.8407   27.3279 O   0  0  0  0  0  0  0  0  0  0  0  0
  2  1  1  6
  3  4  1  0
  3  2  1  0
  4  5  1  0
  5  6  1  0
  7  6  1  0
  8  9  2  0
  8  2  1  0
 10 11  1  0
 12 11  1  1
 12 13  1  0
 12 14  1  0
 13  8  1  0
 14 16  1  0
 15 14  2  0
 16 17  1  0
 17 25  1  0
 17 18  1  1
 19 18  1  0
 20 19  2  0
 21 20  1  0
 22 21  2  0
 22 23  1  0
 23 24  2  0
 24 19  1  0
 25 27  2  0
 25 26  1  0
M  END
$$$$
