KSF.pdb
     RDKit          3D

 27 27  0  0  1  0  0  0  0  0999 V2000
    9.3699  -19.9379   19.8276 N   0  0  0  0  0  0  0  0  0  0  0  0
   10.1381  -18.7472   19.9105 C   0  0  1  0  0  0  0  0  0  0  0  0
   10.4712  -18.1667   18.5933 C   0  0  0  0  0  0  0  0  0  0  0  0
    9.7210  -18.8081   17.4742 C   0  0  0  0  0  0  0  0  0  0  0  0
    9.0268  -17.9259   16.5103 C   0  0  0  0  0  0  0  0  0  0  0  0
    7.6949  -18.5400   16.0499 C   0  0  0  0  0  0  0  0  0  0  0  0
    7.0136  -17.6382   15.1425 N   0  0  0  0  0  0  0  0  0  0  0  0
    9.5715  -17.7519   20.8630 C   0  0  0  0  0  0  0  0  0  0  0  0
   10.1792  -16.6673   20.9958 O   0  0  0  0  0  0  0  0  0  0  0  0
    6.5203  -18.5423   23.7665 O   0  0  0  0  0  0  0  0  0  0  0  0
    6.5617  -17.2962   23.1085 C   0  0  0  0  0  0  0  0  0  0  0  0
    7.9359  -17.0062   22.5719 C   0  0  2  0  0  0  0  0  0  0  0  0
    8.4074  -17.9484   21.6179 N   0  0  0  0  0  0  0  0  0  0  0  0
    8.8450  -16.8985   23.7623 C   0  0  0  0  0  0  0  0  0  0  0  0
    9.6958  -17.7919   24.0336 O   0  0  0  0  0  0  0  0  0  0  0  0
    8.7932  -15.7865   24.6420 N   0  0  0  0  0  0  0  0  0  0  0  0
    9.7066  -15.5942   25.7584 C   0  0  1  0  0  0  0  0  0  0  0  0
    9.7712  -14.0870   25.9686 C   0  0  0  0  0  0  0  0  0  0  0  0
    8.4749  -13.4669   26.2313 C   0  0  0  0  0  0  0  0  0  0  0  0
    8.0646  -13.1280   27.5012 C   0  0  0  0  0  0  0  0  0  0  0  0
    6.8210  -12.5305   27.7229 C   0  0  0  0  0  0  0  0  0  0  0  0
    5.9837  -12.2695   26.6789 C   0  0  0  0  0  0  0  0  0  0  0  0
    6.3900  -12.6079   25.3972 C   0  0  0  0  0  0  0  0  0  0  0  0
    7.6189  -13.1974   25.1855 C   0  0  0  0  0  0  0  0  0  0  0  0
    9.2614  -16.2959   26.9677 C   0  0  0  0  0  0  0  0  0  0  0  0
    8.0470  -16.9541   26.9876 O   0  0  0  0  0  0  0  0  0  0  0  0
    9.9692  -16.3110   27.9971 O   0  0  0  0  0  0  0  0  0  0  0  0
  2  1  1  6
  3  4  1  0
  3  2  1  0
  4  5  1  0
  5  6  1  0
  7  6  1  0
  8  9  2  0
  8  2  1  0
 10 11  1  0
 12 11  1  1
 12 13  1  0
 12 14  1  0
 13  8  1  0
 14 16  1  0
 15 14  2  0
 16 17  1  0
 17 25  1  0
 17 18  1  1
 19 18  1  0
 20 19  2  0
 21 20  1  0
 22 21  2  0
 22 23  1  0
 23 24  2  0
 24 19  1  0
 25 27  2  0
 25 26  1  0
M  END
$$$$
