KSF.pdb
     RDKit          3D

 27 27  0  0  1  0  0  0  0  0999 V2000
    6.1938  -16.7647   21.1806 N   0  0  0  0  0  0  0  0  0  0  0  0
    7.4914  -16.2903   21.5063 C   0  0  1  0  0  0  0  0  0  0  0  0
    7.6802  -14.8511   21.2305 C   0  0  0  0  0  0  0  0  0  0  0  0
    7.7478  -14.5477   19.7711 C   0  0  0  0  0  0  0  0  0  0  0  0
    8.0857  -13.1654   19.3658 C   0  0  0  0  0  0  0  0  0  0  0  0
    8.0793  -13.0143   17.8361 C   0  0  0  0  0  0  0  0  0  0  0  0
    8.4938  -11.6767   17.4621 N   0  0  0  0  0  0  0  0  0  0  0  0
    7.9324  -16.6878   22.8725 C   0  0  0  0  0  0  0  0  0  0  0  0
    7.0680  -16.7114   23.7754 O   0  0  0  0  0  0  0  0  0  0  0  0
   11.8678  -17.9556   23.8064 O   0  0  0  0  0  0  0  0  0  0  0  0
   10.7669  -18.4446   24.5387 C   0  0  0  0  0  0  0  0  0  0  0  0
    9.6182  -17.4750   24.5126 C   0  0  2  0  0  0  0  0  0  0  0  0
    9.2464  -17.0360   23.2129 N   0  0  0  0  0  0  0  0  0  0  0  0
   10.0023  -16.3339   25.4102 C   0  0  0  0  0  0  0  0  0  0  0  0
   10.7123  -15.3732   24.9994 O   0  0  0  0  0  0  0  0  0  0  0  0
    9.5862  -16.2784   26.7655 N   0  0  0  0  0  0  0  0  0  0  0  0
   10.1058  -15.3241   27.7335 C   0  0  1  0  0  0  0  0  0  0  0  0
    8.8786  -14.6333   28.3138 C   0  0  0  0  0  0  0  0  0  0  0  0
    8.1782  -13.7699   27.3664 C   0  0  0  0  0  0  0  0  0  0  0  0
    6.9148  -14.0591   26.9015 C   0  0  0  0  0  0  0  0  0  0  0  0
    6.2657  -13.2121   25.9993 C   0  0  0  0  0  0  0  0  0  0  0  0
    6.8750  -12.0746   25.5585 C   0  0  0  0  0  0  0  0  0  0  0  0
    8.1473  -11.7767   26.0222 C   0  0  0  0  0  0  0  0  0  0  0  0
    8.7821  -12.6172   26.9127 C   0  0  0  0  0  0  0  0  0  0  0  0
   10.9118  -15.9718   28.7746 C   0  0  0  0  0  0  0  0  0  0  0  0
   11.1135  -17.3383   28.7543 O   0  0  0  0  0  0  0  0  0  0  0  0
   11.4280  -15.3025   29.6945 O   0  0  0  0  0  0  0  0  0  0  0  0
  2  1  1  1
  3  4  1  0
  3  2  1  0
  4  5  1  0
  5  6  1  0
  7  6  1  0
  8  9  2  0
  8  2  1  0
 10 11  1  0
 12 11  1  6
 12 13  1  0
 12 14  1  0
 13  8  1  0
 14 16  1  0
 15 14  2  0
 16 17  1  0
 17 25  1  0
 17 18  1  1
 19 18  1  0
 20 19  2  0
 21 20  1  0
 22 21  2  0
 22 23  1  0
 23 24  2  0
 24 19  1  0
 25 27  2  0
 25 26  1  0
M  END
$$$$
