KSF.pdb
     RDKit          3D

 27 27  0  0  1  0  0  0  0  0999 V2000
    4.7514  -18.0578   19.7629 N   0  0  0  0  0  0  0  0  0  0  0  0
    5.0181  -17.7670   21.1264 C   0  0  1  0  0  0  0  0  0  0  0  0
    4.3519  -18.6903   22.0681 C   0  0  0  0  0  0  0  0  0  0  0  0
    3.2176  -19.4316   21.4435 C   0  0  0  0  0  0  0  0  0  0  0  0
    2.3409  -20.2302   22.3284 C   0  0  0  0  0  0  0  0  0  0  0  0
    1.1984  -20.8874   21.5375 C   0  0  0  0  0  0  0  0  0  0  0  0
   -0.0829  -20.5157   22.1042 N   0  0  0  0  0  0  0  0  0  0  0  0
    6.4687  -17.5850   21.4118 C   0  0  0  0  0  0  0  0  0  0  0  0
    7.2563  -18.4565   20.9833 O   0  0  0  0  0  0  0  0  0  0  0  0
    8.3942  -14.3185   20.9824 O   0  0  0  0  0  0  0  0  0  0  0  0
    9.0799  -15.5248   21.2314 C   0  0  0  0  0  0  0  0  0  0  0  0
    8.4058  -16.3243   22.3116 C   0  0  2  0  0  0  0  0  0  0  0  0
    7.0086  -16.5068   22.1256 N   0  0  0  0  0  0  0  0  0  0  0  0
    8.7220  -15.6392   23.6101 C   0  0  0  0  0  0  0  0  0  0  0  0
    8.5020  -14.4076   23.7842 O   0  0  0  0  0  0  0  0  0  0  0  0
    9.2842  -16.3424   24.7067 N   0  0  0  0  0  0  0  0  0  0  0  0
    9.2985  -15.8366   26.0711 C   0  0  1  0  0  0  0  0  0  0  0  0
    7.8335  -15.6567   26.4474 C   0  0  0  0  0  0  0  0  0  0  0  0
    7.3804  -14.2682   26.4280 C   0  0  0  0  0  0  0  0  0  0  0  0
    6.1460  -13.9032   25.9395 C   0  0  0  0  0  0  0  0  0  0  0  0
    5.7359  -12.5672   25.9383 C   0  0  0  0  0  0  0  0  0  0  0  0
    6.5560  -11.5922   26.4241 C   0  0  0  0  0  0  0  0  0  0  0  0
    7.8007  -11.9522   26.9177 C   0  0  0  0  0  0  0  0  0  0  0  0
    8.1990  -13.2727   26.9159 C   0  0  0  0  0  0  0  0  0  0  0  0
    9.9919  -16.7437   26.9927 C   0  0  0  0  0  0  0  0  0  0  0  0
   10.2908  -16.3396   28.2794 O   0  0  0  0  0  0  0  0  0  0  0  0
   10.3233  -17.8931   26.6323 O   0  0  0  0  0  0  0  0  0  0  0  0
  2  1  1  6
  3  4  1  0
  3  2  1  0
  4  5  1  0
  5  6  1  0
  7  6  1  0
  8  9  2  0
  8  2  1  0
 10 11  1  0
 12 11  1  6
 12 13  1  0
 12 14  1  0
 13  8  1  0
 14 16  1  0
 15 14  2  0
 16 17  1  0
 17 25  1  0
 17 18  1  1
 19 18  1  0
 20 19  2  0
 21 20  1  0
 22 21  2  0
 22 23  1  0
 23 24  2  0
 24 19  1  0
 25 27  2  0
 25 26  1  0
M  END
$$$$
