KSF.pdb
     RDKit          3D

 27 27  0  0  1  0  0  0  0  0999 V2000
   10.9904  -18.2905   18.9007 N   0  0  0  0  0  0  0  0  0  0  0  0
    9.8548  -18.2447   19.7511 C   0  0  1  0  0  0  0  0  0  0  0  0
    9.7238  -19.4286   20.6253 C   0  0  0  0  0  0  0  0  0  0  0  0
    9.8375  -20.7140   19.8760 C   0  0  0  0  0  0  0  0  0  0  0  0
    8.6285  -21.5594   19.7631 C   0  0  0  0  0  0  0  0  0  0  0  0
    8.9351  -22.8787   19.0363 C   0  0  0  0  0  0  0  0  0  0  0  0
    7.7492  -23.7105   18.9844 N   0  0  0  0  0  0  0  0  0  0  0  0
    9.7282  -16.9560   20.4873 C   0  0  0  0  0  0  0  0  0  0  0  0
   10.7827  -16.3958   20.8584 O   0  0  0  0  0  0  0  0  0  0  0  0
    6.0070  -15.3842   21.6419 O   0  0  0  0  0  0  0  0  0  0  0  0
    7.1008  -14.4950   21.6238 C   0  0  0  0  0  0  0  0  0  0  0  0
    8.4082  -15.2345   21.6896 C   0  0  2  0  0  0  0  0  0  0  0  0
    8.5114  -16.3310   20.7912 N   0  0  0  0  0  0  0  0  0  0  0  0
    8.5906  -15.6524   23.1205 C   0  0  0  0  0  0  0  0  0  0  0  0
    8.1436  -16.7508   23.5557 O   0  0  0  0  0  0  0  0  0  0  0  0
    9.2749  -14.8332   24.0552 N   0  0  0  0  0  0  0  0  0  0  0  0
    9.3261  -15.1041   25.4841 C   0  0  1  0  0  0  0  0  0  0  0  0
    7.8803  -15.0320   25.9579 C   0  0  0  0  0  0  0  0  0  0  0  0
    7.4022  -13.6740   26.2046 C   0  0  0  0  0  0  0  0  0  0  0  0
    8.2496  -12.5893   26.2359 C   0  0  0  0  0  0  0  0  0  0  0  0
    7.7640  -11.2998   26.4687 C   0  0  0  0  0  0  0  0  0  0  0  0
    6.4321  -11.0890   26.6710 C   0  0  0  0  0  0  0  0  0  0  0  0
    5.5725  -12.1766   26.6410 C   0  0  0  0  0  0  0  0  0  0  0  0
    6.0587  -13.4466   26.4106 C   0  0  0  0  0  0  0  0  0  0  0  0
    9.9342  -16.4061   25.7812 C   0  0  0  0  0  0  0  0  0  0  0  0
   10.4388  -17.1913   24.7628 O   0  0  0  0  0  0  0  0  0  0  0  0
   10.0065  -16.8265   26.9554 O   0  0  0  0  0  0  0  0  0  0  0  0
  2  1  1  1
  3  4  1  0
  3  2  1  0
  4  5  1  0
  5  6  1  0
  7  6  1  0
  8  9  2  0
  8  2  1  0
 10 11  1  0
 12 11  1  1
 12 13  1  0
 12 14  1  0
 13  8  1  0
 14 16  1  0
 15 14  2  0
 16 17  1  0
 17 25  1  0
 17 18  1  6
 19 18  1  0
 20 19  2  0
 21 20  1  0
 22 21  2  0
 22 23  1  0
 23 24  2  0
 24 19  1  0
 25 27  2  0
 25 26  1  0
M  END
$$$$
