KSF.pdb
     RDKit          3D

 27 27  0  0  1  0  0  0  0  0999 V2000
    9.7632  -15.0902   19.0484 N   0  0  0  0  0  0  0  0  0  0  0  0
    8.8693  -14.4100   19.9162 C   0  0  1  0  0  0  0  0  0  0  0  0
    7.6860  -13.8545   19.2274 C   0  0  0  0  0  0  0  0  0  0  0  0
    8.0099  -13.3017   17.8799 C   0  0  0  0  0  0  0  0  0  0  0  0
    7.4716  -14.0053   16.6948 C   0  0  0  0  0  0  0  0  0  0  0  0
    7.8584  -13.2843   15.3935 C   0  0  0  0  0  0  0  0  0  0  0  0
    7.3424  -14.0062   14.2473 N   0  0  0  0  0  0  0  0  0  0  0  0
    8.5233  -15.1977   21.1322 C   0  0  0  0  0  0  0  0  0  0  0  0
    7.3457  -15.1335   21.5473 O   0  0  0  0  0  0  0  0  0  0  0  0
    9.3015  -18.8469   21.6952 O   0  0  0  0  0  0  0  0  0  0  0  0
    9.5868  -18.2084   22.9192 C   0  0  0  0  0  0  0  0  0  0  0  0
    9.0402  -16.8080   22.9463 C   0  0  2  0  0  0  0  0  0  0  0  0
    9.4254  -16.0031   21.8401 N   0  0  0  0  0  0  0  0  0  0  0  0
    9.4613  -16.2108   24.2583 C   0  0  0  0  0  0  0  0  0  0  0  0
   10.5429  -15.5702   24.3820 O   0  0  0  0  0  0  0  0  0  0  0  0
    8.6639  -16.3368   25.4252 N   0  0  0  0  0  0  0  0  0  0  0  0
    9.1052  -15.9402   26.7539 C   0  0  1  0  0  0  0  0  0  0  0  0
    7.8832  -15.3121   27.4114 C   0  0  0  0  0  0  0  0  0  0  0  0
    7.5230  -14.0039   26.8703 C   0  0  0  0  0  0  0  0  0  0  0  0
    8.2719  -12.8745   27.1145 C   0  0  0  0  0  0  0  0  0  0  0  0
    7.9069  -11.6363   26.5793 C   0  0  0  0  0  0  0  0  0  0  0  0
    6.7944  -11.5214   25.7994 C   0  0  0  0  0  0  0  0  0  0  0  0
    6.0352  -12.6544   25.5491 C   0  0  0  0  0  0  0  0  0  0  0  0
    6.4013  -13.8734   26.0805 C   0  0  0  0  0  0  0  0  0  0  0  0
    9.6207  -17.0741   27.5296 C   0  0  0  0  0  0  0  0  0  0  0  0
    9.5617  -18.3560   27.0182 O   0  0  0  0  0  0  0  0  0  0  0  0
   10.1202  -16.9019   28.6616 O   0  0  0  0  0  0  0  0  0  0  0  0
  2  1  1  6
  3  4  1  0
  3  2  1  0
  4  5  1  0
  5  6  1  0
  7  6  1  0
  8  9  2  0
  8  2  1  0
 10 11  1  0
 12 11  1  6
 12 13  1  0
 12 14  1  0
 13  8  1  0
 14 16  1  0
 15 14  2  0
 16 17  1  0
 17 25  1  0
 17 18  1  1
 19 18  1  0
 20 19  2  0
 21 20  1  0
 22 21  2  0
 22 23  1  0
 23 24  2  0
 24 19  1  0
 25 27  2  0
 25 26  1  0
M  END
$$$$
