KSF.pdb
     RDKit          3D

 27 27  0  0  1  0  0  0  0  0999 V2000
   10.1676  -19.3688   20.0288 N   0  0  0  0  0  0  0  0  0  0  0  0
    9.5001  -18.1305   19.8394 C   0  0  1  0  0  0  0  0  0  0  0  0
    9.0474  -17.9104   18.4502 C   0  0  0  0  0  0  0  0  0  0  0  0
    9.4914  -18.9902   17.5212 C   0  0  0  0  0  0  0  0  0  0  0  0
   10.6749  -18.7303   16.6720 C   0  0  0  0  0  0  0  0  0  0  0  0
   10.9423  -19.9012   15.7127 C   0  0  0  0  0  0  0  0  0  0  0  0
   12.1964  -19.7012   15.0139 N   0  0  0  0  0  0  0  0  0  0  0  0
    8.4339  -17.8814   20.8494 C   0  0  0  0  0  0  0  0  0  0  0  0
    7.2914  -18.3274   20.6064 O   0  0  0  0  0  0  0  0  0  0  0  0
    6.0784  -15.3785   23.2001 O   0  0  0  0  0  0  0  0  0  0  0  0
    6.7718  -15.5651   21.9871 C   0  0  0  0  0  0  0  0  0  0  0  0
    8.2325  -15.8287   22.2268 C   0  0  2  0  0  0  0  0  0  0  0  0
    8.6241  -17.1834   22.0494 N   0  0  0  0  0  0  0  0  0  0  0  0
    8.5359  -15.3251   23.6087 C   0  0  0  0  0  0  0  0  0  0  0  0
    8.2337  -14.1536   23.9720 O   0  0  0  0  0  0  0  0  0  0  0  0
    9.1777  -16.1414   24.5757 N   0  0  0  0  0  0  0  0  0  0  0  0
    9.5367  -15.6854   25.9101 C   0  0  1  0  0  0  0  0  0  0  0  0
    8.2119  -15.4699   26.6301 C   0  0  0  0  0  0  0  0  0  0  0  0
    7.6419  -14.1383   26.4414 C   0  0  0  0  0  0  0  0  0  0  0  0
    8.2707  -12.9980   26.8888 C   0  0  0  0  0  0  0  0  0  0  0  0
    7.7051  -11.7358   26.6896 C   0  0  0  0  0  0  0  0  0  0  0  0
    6.5110  -11.6078   26.0438 C   0  0  0  0  0  0  0  0  0  0  0  0
    5.8718  -12.7516   25.5903 C   0  0  0  0  0  0  0  0  0  0  0  0
    6.4359  -13.9943   25.7903 C   0  0  0  0  0  0  0  0  0  0  0  0
   10.3914  -16.6477   26.6148 C   0  0  0  0  0  0  0  0  0  0  0  0
   10.9113  -16.3425   27.8577 O   0  0  0  0  0  0  0  0  0  0  0  0
   10.6634  -17.7558   26.1060 O   0  0  0  0  0  0  0  0  0  0  0  0
  2  1  1  6
  3  4  1  0
  3  2  1  0
  4  5  1  0
  5  6  1  0
  7  6  1  0
  8  9  2  0
  8  2  1  0
 10 11  1  0
 12 11  1  1
 12 13  1  0
 12 14  1  0
 13  8  1  0
 14 16  1  0
 15 14  2  0
 16 17  1  0
 17 25  1  0
 17 18  1  1
 19 18  1  0
 20 19  2  0
 21 20  1  0
 22 21  2  0
 22 23  1  0
 23 24  2  0
 24 19  1  0
 25 27  2  0
 25 26  1  0
M  END
$$$$
