KSF.pdb
     RDKit          3D

 27 27  0  0  1  0  0  0  0  0999 V2000
   10.8522  -18.0232   18.0299 N   0  0  0  0  0  0  0  0  0  0  0  0
    9.5452  -17.9644   18.5804 C   0  0  1  0  0  0  0  0  0  0  0  0
    9.0307  -19.2774   19.0212 C   0  0  0  0  0  0  0  0  0  0  0  0
    9.1080  -20.3154   17.9522 C   0  0  0  0  0  0  0  0  0  0  0  0
   10.2464  -21.2600   17.9848 C   0  0  0  0  0  0  0  0  0  0  0  0
   10.1460  -22.2954   16.8531 C   0  0  0  0  0  0  0  0  0  0  0  0
   11.2200  -23.2627   16.9610 N   0  0  0  0  0  0  0  0  0  0  0  0
    9.3930  -16.8995   19.6108 C   0  0  0  0  0  0  0  0  0  0  0  0
   10.4027  -16.2174   19.8911 O   0  0  0  0  0  0  0  0  0  0  0  0
    5.8536  -16.2737   21.8288 O   0  0  0  0  0  0  0  0  0  0  0  0
    6.6855  -15.1639   21.5766 C   0  0  0  0  0  0  0  0  0  0  0  0
    8.0935  -15.5937   21.2714 C   0  0  2  0  0  0  0  0  0  0  0  0
    8.1988  -16.6114   20.2849 N   0  0  0  0  0  0  0  0  0  0  0  0
    8.7077  -16.0035   22.5792 C   0  0  0  0  0  0  0  0  0  0  0  0
    8.8237  -17.2172   22.9092 O   0  0  0  0  0  0  0  0  0  0  0  0
    9.1886  -15.0463   23.5096 N   0  0  0  0  0  0  0  0  0  0  0  0
    9.5358  -15.3602   24.8875 C   0  0  1  0  0  0  0  0  0  0  0  0
    9.6482  -14.0130   25.5894 C   0  0  0  0  0  0  0  0  0  0  0  0
    9.9782  -14.1077   27.0092 C   0  0  0  0  0  0  0  0  0  0  0  0
    9.2136  -13.5079   27.9845 C   0  0  0  0  0  0  0  0  0  0  0  0
    9.5497  -13.6195   29.3363 C   0  0  0  0  0  0  0  0  0  0  0  0
   10.6491  -14.3296   29.7187 C   0  0  0  0  0  0  0  0  0  0  0  0
   11.4241  -14.9366   28.7421 C   0  0  0  0  0  0  0  0  0  0  0  0
   11.0864  -14.8223   27.4097 C   0  0  0  0  0  0  0  0  0  0  0  0
    8.5408  -16.2283   25.5273 C   0  0  0  0  0  0  0  0  0  0  0  0
    7.1917  -15.9626   25.3941 O   0  0  0  0  0  0  0  0  0  0  0  0
    8.8937  -17.2193   26.2012 O   0  0  0  0  0  0  0  0  0  0  0  0
  2  1  1  1
  3  4  1  0
  3  2  1  0
  4  5  1  0
  5  6  1  0
  7  6  1  0
  8  9  2  0
  8  2  1  0
 10 11  1  0
 12 11  1  1
 12 13  1  0
 12 14  1  0
 13  8  1  0
 14 16  1  0
 15 14  2  0
 16 17  1  0
 17 25  1  0
 17 18  1  1
 19 18  1  0
 20 19  2  0
 21 20  1  0
 22 21  2  0
 22 23  1  0
 23 24  2  0
 24 19  1  0
 25 27  2  0
 25 26  1  0
M  END
$$$$
