KSF.pdb
     RDKit          3D

 27 27  0  0  1  0  0  0  0  0999 V2000
    6.0910  -16.2039   20.8866 N   0  0  0  0  0  0  0  0  0  0  0  0
    7.2394  -15.6009   21.4633 C   0  0  1  0  0  0  0  0  0  0  0  0
    7.1642  -14.1265   21.5244 C   0  0  0  0  0  0  0  0  0  0  0  0
    7.1685  -13.4925   20.1737 C   0  0  0  0  0  0  0  0  0  0  0  0
    8.4632  -13.3767   19.4669 C   0  0  0  0  0  0  0  0  0  0  0  0
    8.2945  -12.6936   18.1002 C   0  0  0  0  0  0  0  0  0  0  0  0
    9.5634  -12.6501   17.4009 N   0  0  0  0  0  0  0  0  0  0  0  0
    7.6368  -16.2214   22.7578 C   0  0  0  0  0  0  0  0  0  0  0  0
    6.7279  -16.4929   23.5723 O   0  0  0  0  0  0  0  0  0  0  0  0
   11.4036  -17.8963   23.4858 O   0  0  0  0  0  0  0  0  0  0  0  0
   10.2764  -18.2662   24.2473 C   0  0  0  0  0  0  0  0  0  0  0  0
    9.2964  -17.1316   24.3606 C   0  0  2  0  0  0  0  0  0  0  0  0
    8.9561  -16.5204   23.1234 N   0  0  0  0  0  0  0  0  0  0  0  0
    9.8870  -16.1532   25.3349 C   0  0  0  0  0  0  0  0  0  0  0  0
   10.7824  -15.3306   24.9927 O   0  0  0  0  0  0  0  0  0  0  0  0
    9.4677  -16.1044   26.6895 N   0  0  0  0  0  0  0  0  0  0  0  0
   10.0931  -15.2655   27.7008 C   0  0  1  0  0  0  0  0  0  0  0  0
    8.9424  -14.5456   28.3921 C   0  0  0  0  0  0  0  0  0  0  0  0
    8.1488  -13.7013   27.5027 C   0  0  0  0  0  0  0  0  0  0  0  0
    8.6941  -12.6423   26.8121 C   0  0  0  0  0  0  0  0  0  0  0  0
    7.9123  -11.8542   25.9632 C   0  0  0  0  0  0  0  0  0  0  0  0
    6.5848  -12.1204   25.8010 C   0  0  0  0  0  0  0  0  0  0  0  0
    6.0285  -13.1853   26.4932 C   0  0  0  0  0  0  0  0  0  0  0  0
    6.8062  -13.9590   27.3294 C   0  0  0  0  0  0  0  0  0  0  0  0
   10.8983  -16.0443   28.6484 C   0  0  0  0  0  0  0  0  0  0  0  0
   11.6759  -15.4062   29.5953 O   0  0  0  0  0  0  0  0  0  0  0  0
   10.8957  -17.2932   28.6165 O   0  0  0  0  0  0  0  0  0  0  0  0
  2  1  1  1
  3  4  1  0
  3  2  1  0
  4  5  1  0
  5  6  1  0
  7  6  1  0
  8  9  2  0
  8  2  1  0
 10 11  1  0
 12 11  1  6
 12 13  1  0
 12 14  1  0
 13  8  1  0
 14 16  1  0
 15 14  2  0
 16 17  1  0
 17 25  1  0
 17 18  1  1
 19 18  1  0
 20 19  2  0
 21 20  1  0
 22 21  2  0
 22 23  1  0
 23 24  2  0
 24 19  1  0
 25 27  2  0
 25 26  1  0
M  END
$$$$
