KSF.pdb
     RDKit          3D

 27 27  0  0  1  0  0  0  0  0999 V2000
    6.4845  -16.4990   20.6991 N   0  0  0  0  0  0  0  0  0  0  0  0
    7.6634  -15.9544   21.2724 C   0  0  1  0  0  0  0  0  0  0  0  0
    7.7635  -14.4868   21.1337 C   0  0  0  0  0  0  0  0  0  0  0  0
    7.8130  -14.0442   19.7096 C   0  0  0  0  0  0  0  0  0  0  0  0
    7.8724  -12.5910   19.4375 C   0  0  0  0  0  0  0  0  0  0  0  0
    7.8919  -12.3058   17.9271 C   0  0  0  0  0  0  0  0  0  0  0  0
    8.9160  -13.1012   17.2794 N   0  0  0  0  0  0  0  0  0  0  0  0
    7.9102  -16.4297   22.6623 C   0  0  0  0  0  0  0  0  0  0  0  0
    6.9421  -16.4315   23.4535 O   0  0  0  0  0  0  0  0  0  0  0  0
   11.5062  -18.2297   23.9059 O   0  0  0  0  0  0  0  0  0  0  0  0
   10.3047  -18.4866   24.5970 C   0  0  0  0  0  0  0  0  0  0  0  0
    9.3445  -17.3366   24.4711 C   0  0  2  0  0  0  0  0  0  0  0  0
    9.1499  -16.8736   23.1415 N   0  0  0  0  0  0  0  0  0  0  0  0
    9.8518  -16.2553   25.3815 C   0  0  0  0  0  0  0  0  0  0  0  0
   10.6448  -15.3601   24.9749 O   0  0  0  0  0  0  0  0  0  0  0  0
    9.4649  -16.1857   26.7448 N   0  0  0  0  0  0  0  0  0  0  0  0
   10.1218  -15.3406   27.7306 C   0  0  1  0  0  0  0  0  0  0  0  0
    9.0070  -14.5100   28.3531 C   0  0  0  0  0  0  0  0  0  0  0  0
    8.2949  -13.6614   27.4010 C   0  0  0  0  0  0  0  0  0  0  0  0
    7.0291  -13.9619   26.9502 C   0  0  0  0  0  0  0  0  0  0  0  0
    6.3687  -13.1288   26.0432 C   0  0  0  0  0  0  0  0  0  0  0  0
    6.9691  -11.9941   25.5836 C   0  0  0  0  0  0  0  0  0  0  0  0
    8.2438  -11.6848   26.0331 C   0  0  0  0  0  0  0  0  0  0  0  0
    8.8897  -12.5116   26.9285 C   0  0  0  0  0  0  0  0  0  0  0  0
   10.8478  -16.1229   28.7376 C   0  0  0  0  0  0  0  0  0  0  0  0
   11.6114  -15.4893   29.6987 O   0  0  0  0  0  0  0  0  0  0  0  0
   10.7890  -17.3708   28.7443 O   0  0  0  0  0  0  0  0  0  0  0  0
  2  1  1  1
  3  4  1  0
  3  2  1  0
  4  5  1  0
  5  6  1  0
  7  6  1  0
  8  9  2  0
  8  2  1  0
 10 11  1  0
 12 11  1  6
 12 13  1  0
 12 14  1  0
 13  8  1  0
 14 16  1  0
 15 14  2  0
 16 17  1  0
 17 25  1  0
 17 18  1  1
 19 18  1  0
 20 19  2  0
 21 20  1  0
 22 21  2  0
 22 23  1  0
 23 24  2  0
 24 19  1  0
 25 27  2  0
 25 26  1  0
M  END
$$$$
