KSF.pdb
     RDKit          3D

 27 27  0  0  1  0  0  0  0  0999 V2000
    5.2853  -18.9777   21.2855 N   0  0  0  0  0  0  0  0  0  0  0  0
    6.2611  -19.1086   22.3081 C   0  0  1  0  0  0  0  0  0  0  0  0
    6.7356  -20.4950   22.4973 C   0  0  0  0  0  0  0  0  0  0  0  0
    6.1608  -21.4426   21.4983 C   0  0  0  0  0  0  0  0  0  0  0  0
    6.4787  -22.8802   21.6443 C   0  0  0  0  0  0  0  0  0  0  0  0
    5.7593  -23.7226   20.5786 C   0  0  0  0  0  0  0  0  0  0  0  0
    6.2136  -25.0979   20.6352 N   0  0  0  0  0  0  0  0  0  0  0  0
    7.3699  -18.1212   22.1869 C   0  0  0  0  0  0  0  0  0  0  0  0
    8.5370  -18.5660   22.1315 O   0  0  0  0  0  0  0  0  0  0  0  0
    6.7166  -14.2639   21.1240 O   0  0  0  0  0  0  0  0  0  0  0  0
    8.0737  -14.6420   21.1765 C   0  0  0  0  0  0  0  0  0  0  0  0
    8.2796  -15.8158   22.0931 C   0  0  2  0  0  0  0  0  0  0  0  0
    7.1938  -16.7322   22.1309 N   0  0  0  0  0  0  0  0  0  0  0  0
    8.5931  -15.2493   23.4482 C   0  0  0  0  0  0  0  0  0  0  0  0
    8.2834  -14.0659   23.7633 O   0  0  0  0  0  0  0  0  0  0  0  0
    9.2534  -16.0163   24.4425 N   0  0  0  0  0  0  0  0  0  0  0  0
    9.3591  -15.6148   25.8372 C   0  0  1  0  0  0  0  0  0  0  0  0
    7.9395  -15.6890   26.3844 C   0  0  0  0  0  0  0  0  0  0  0  0
    7.2062  -14.4279   26.3091 C   0  0  0  0  0  0  0  0  0  0  0  0
    5.9190  -14.3523   25.8263 C   0  0  0  0  0  0  0  0  0  0  0  0
    5.2389  -13.1328   25.7708 C   0  0  0  0  0  0  0  0  0  0  0  0
    5.8409  -11.9858   26.1967 C   0  0  0  0  0  0  0  0  0  0  0  0
    7.1371  -12.0541   26.6843 C   0  0  0  0  0  0  0  0  0  0  0  0
    7.8024  -13.2612   26.7363 C   0  0  0  0  0  0  0  0  0  0  0  0
   10.2814  -16.4696   26.5932 C   0  0  0  0  0  0  0  0  0  0  0  0
   10.6303  -16.1469   27.8903 O   0  0  0  0  0  0  0  0  0  0  0  0
   10.7660  -17.5004   26.0800 O   0  0  0  0  0  0  0  0  0  0  0  0
  2  1  1  6
  3  4  1  0
  3  2  1  0
  4  5  1  0
  5  6  1  0
  7  6  1  0
  8  9  2  0
  8  2  1  0
 10 11  1  0
 12 11  1  6
 12 13  1  0
 12 14  1  0
 13  8  1  0
 14 16  1  0
 15 14  2  0
 16 17  1  0
 17 25  1  0
 17 18  1  1
 19 18  1  0
 20 19  2  0
 21 20  1  0
 22 21  2  0
 22 23  1  0
 23 24  2  0
 24 19  1  0
 25 27  2  0
 25 26  1  0
M  END
$$$$
