KSF.pdb
     RDKit          3D

 27 27  0  0  1  0  0  0  0  0999 V2000
    8.6245  -16.1123   20.0501 N   0  0  0  0  0  0  0  0  0  0  0  0
    8.3876  -15.1533   21.0694 C   0  0  1  0  0  0  0  0  0  0  0  0
    7.2135  -14.2944   20.8105 C   0  0  0  0  0  0  0  0  0  0  0  0
    7.0932  -13.8993   19.3767 C   0  0  0  0  0  0  0  0  0  0  0  0
    8.3046  -13.3952   18.6930 C   0  0  0  0  0  0  0  0  0  0  0  0
    7.9966  -12.9775   17.2461 C   0  0  0  0  0  0  0  0  0  0  0  0
    9.2012  -12.5048   16.5929 N   0  0  0  0  0  0  0  0  0  0  0  0
    8.3924  -15.7421   22.4377 C   0  0  0  0  0  0  0  0  0  0  0  0
    7.6168  -15.2461   23.2836 O   0  0  0  0  0  0  0  0  0  0  0  0
   11.1548  -18.6362   23.6878 O   0  0  0  0  0  0  0  0  0  0  0  0
    9.8829  -18.6755   24.2946 C   0  0  0  0  0  0  0  0  0  0  0  0
    9.1665  -17.3617   24.1492 C   0  0  2  0  0  0  0  0  0  0  0  0
    9.2048  -16.8109   22.8395 N   0  0  0  0  0  0  0  0  0  0  0  0
    9.7594  -16.4366   25.1729 C   0  0  0  0  0  0  0  0  0  0  0  0
   10.7082  -15.6518   24.8912 O   0  0  0  0  0  0  0  0  0  0  0  0
    9.2824  -16.3985   26.5086 N   0  0  0  0  0  0  0  0  0  0  0  0
    9.9236  -15.6453   27.5760 C   0  0  1  0  0  0  0  0  0  0  0  0
    8.8347  -14.7411   28.1387 C   0  0  0  0  0  0  0  0  0  0  0  0
    8.3493  -13.7367   27.1957 C   0  0  0  0  0  0  0  0  0  0  0  0
    9.0814  -12.6167   26.8712 C   0  0  0  0  0  0  0  0  0  0  0  0
    8.5948  -11.6744   25.9612 C   0  0  0  0  0  0  0  0  0  0  0  0
    7.3769  -11.8468   25.3727 C   0  0  0  0  0  0  0  0  0  0  0  0
    6.6338  -12.9724   25.6945 C   0  0  0  0  0  0  0  0  0  0  0  0
    7.1203  -13.8984   26.5936 C   0  0  0  0  0  0  0  0  0  0  0  0
   10.4950  -16.5193   28.6069 C   0  0  0  0  0  0  0  0  0  0  0  0
   11.2768  -15.9920   29.6164 O   0  0  0  0  0  0  0  0  0  0  0  0
   10.2858  -17.7508   28.5908 O   0  0  0  0  0  0  0  0  0  0  0  0
  2  1  1  6
  3  4  1  0
  3  2  1  0
  4  5  1  0
  5  6  1  0
  7  6  1  0
  8  9  2  0
  8  2  1  0
 10 11  1  0
 12 11  1  6
 12 13  1  0
 12 14  1  0
 13  8  1  0
 14 16  1  0
 15 14  2  0
 16 17  1  0
 17 25  1  0
 17 18  1  1
 19 18  1  0
 20 19  2  0
 21 20  1  0
 22 21  2  0
 22 23  1  0
 23 24  2  0
 24 19  1  0
 25 27  2  0
 25 26  1  0
M  END
$$$$
