KSF.pdb
     RDKit          3D

 27 27  0  0  1  0  0  0  0  0999 V2000
    9.2797  -15.7603   19.9603 N   0  0  0  0  0  0  0  0  0  0  0  0
    8.6420  -14.8921   20.8847 C   0  0  1  0  0  0  0  0  0  0  0  0
    7.3728  -14.3257   20.3834 C   0  0  0  0  0  0  0  0  0  0  0  0
    7.3773  -14.1193   18.9057 C   0  0  0  0  0  0  0  0  0  0  0  0
    8.2663  -13.0726   18.3550 C   0  0  0  0  0  0  0  0  0  0  0  0
    8.0245  -12.8688   16.8507 C   0  0  0  0  0  0  0  0  0  0  0  0
    8.5360  -14.0000   16.1024 N   0  0  0  0  0  0  0  0  0  0  0  0
    8.5240  -15.4772   22.2494 C   0  0  0  0  0  0  0  0  0  0  0  0
    7.7167  -14.9423   23.0402 O   0  0  0  0  0  0  0  0  0  0  0  0
   11.0198  -18.5461   23.7043 O   0  0  0  0  0  0  0  0  0  0  0  0
    9.6972  -18.4949   24.1894 C   0  0  0  0  0  0  0  0  0  0  0  0
    9.1011  -17.1263   24.0098 C   0  0  2  0  0  0  0  0  0  0  0  0
    9.2541  -16.5829   22.7054 N   0  0  0  0  0  0  0  0  0  0  0  0
    9.7141  -16.2519   25.0657 C   0  0  0  0  0  0  0  0  0  0  0  0
   10.7075  -15.5105   24.8224 O   0  0  0  0  0  0  0  0  0  0  0  0
    9.2070  -16.2152   26.3903 N   0  0  0  0  0  0  0  0  0  0  0  0
    9.8196  -15.4574   27.4711 C   0  0  1  0  0  0  0  0  0  0  0  0
    8.6802  -14.6693   28.1042 C   0  0  0  0  0  0  0  0  0  0  0  0
    8.0951  -13.6597   27.2256 C   0  0  0  0  0  0  0  0  0  0  0  0
    8.7685  -12.5122   26.8715 C   0  0  0  0  0  0  0  0  0  0  0  0
    8.1865  -11.5654   26.0244 C   0  0  0  0  0  0  0  0  0  0  0  0
    6.9314  -11.7607   25.5285 C   0  0  0  0  0  0  0  0  0  0  0  0
    6.2469  -12.9139   25.8806 C   0  0  0  0  0  0  0  0  0  0  0  0
    6.8276  -13.8443   26.7172 C   0  0  0  0  0  0  0  0  0  0  0  0
   10.4922  -16.3240   28.4456 C   0  0  0  0  0  0  0  0  0  0  0  0
   11.3089  -15.7808   29.4183 O   0  0  0  0  0  0  0  0  0  0  0  0
   10.3393  -17.5635   28.4137 O   0  0  0  0  0  0  0  0  0  0  0  0
  2  1  1  6
  3  4  1  0
  3  2  1  0
  4  5  1  0
  5  6  1  0
  7  6  1  0
  8  9  2  0
  8  2  1  0
 10 11  1  0
 12 11  1  6
 12 13  1  0
 12 14  1  0
 13  8  1  0
 14 16  1  0
 15 14  2  0
 16 17  1  0
 17 25  1  0
 17 18  1  1
 19 18  1  0
 20 19  2  0
 21 20  1  0
 22 21  2  0
 22 23  1  0
 23 24  2  0
 24 19  1  0
 25 27  2  0
 25 26  1  0
M  END
$$$$
