KSF.pdb
     RDKit          3D

 27 27  0  0  1  0  0  0  0  0999 V2000
    9.6304  -16.4623   18.9240 N   0  0  0  0  0  0  0  0  0  0  0  0
    9.1491  -15.4293   19.7702 C   0  0  1  0  0  0  0  0  0  0  0  0
    8.2490  -14.4776   19.0866 C   0  0  0  0  0  0  0  0  0  0  0  0
    8.4862  -14.4152   17.6148 C   0  0  0  0  0  0  0  0  0  0  0  0
    7.6310  -13.5126   16.8129 C   0  0  0  0  0  0  0  0  0  0  0  0
    8.0501  -13.5136   15.3339 C   0  0  0  0  0  0  0  0  0  0  0  0
    7.1695  -12.6591   14.5622 N   0  0  0  0  0  0  0  0  0  0  0  0
    8.5960  -15.9382   21.0563 C   0  0  0  0  0  0  0  0  0  0  0  0
    7.3833  -15.7369   21.2844 O   0  0  0  0  0  0  0  0  0  0  0  0
   10.2999  -19.0323   23.1338 O   0  0  0  0  0  0  0  0  0  0  0  0
    8.9531  -18.6693   23.3377 C   0  0  0  0  0  0  0  0  0  0  0  0
    8.7586  -17.1854   23.1939 C   0  0  2  0  0  0  0  0  0  0  0  0
    9.3406  -16.6248   22.0246 N   0  0  0  0  0  0  0  0  0  0  0  0
    9.2934  -16.5611   24.4507 C   0  0  0  0  0  0  0  0  0  0  0  0
   10.4200  -15.9907   24.4839 O   0  0  0  0  0  0  0  0  0  0  0  0
    8.5587  -16.5811   25.6644 N   0  0  0  0  0  0  0  0  0  0  0  0
    9.0823  -16.1043   26.9357 C   0  0  1  0  0  0  0  0  0  0  0  0
    7.9259  -15.3614   27.5922 C   0  0  0  0  0  0  0  0  0  0  0  0
    7.5791  -14.1027   26.9373 C   0  0  0  0  0  0  0  0  0  0  0  0
    6.5489  -14.0046   26.0291 C   0  0  0  0  0  0  0  0  0  0  0  0
    6.2352  -12.7859   25.4215 C   0  0  0  0  0  0  0  0  0  0  0  0
    6.9482  -11.6621   25.7182 C   0  0  0  0  0  0  0  0  0  0  0  0
    7.9871  -11.7530   26.6320 C   0  0  0  0  0  0  0  0  0  0  0  0
    8.2912  -12.9592   27.2279 C   0  0  0  0  0  0  0  0  0  0  0  0
    9.5773  -17.1988   27.7783 C   0  0  0  0  0  0  0  0  0  0  0  0
   10.3395  -16.9296   28.8985 O   0  0  0  0  0  0  0  0  0  0  0  0
    9.3197  -18.3890   27.4994 O   0  0  0  0  0  0  0  0  0  0  0  0
  2  1  1  6
  3  4  1  0
  3  2  1  0
  4  5  1  0
  5  6  1  0
  7  6  1  0
  8  9  2  0
  8  2  1  0
 10 11  1  0
 12 11  1  1
 12 13  1  0
 12 14  1  0
 13  8  1  0
 14 16  1  0
 15 14  2  0
 16 17  1  0
 17 25  1  0
 17 18  1  1
 19 18  1  0
 20 19  2  0
 21 20  1  0
 22 21  2  0
 22 23  1  0
 23 24  2  0
 24 19  1  0
 25 27  2  0
 25 26  1  0
M  END
$$$$
