LGK.pdb
     RDKit          3D

 22 21  0  0  1  0  0  0  0  0999 V2000
   17.6684  -19.1885  -17.8912 C   0  0  0  0  0  0  0  0  0  0  0  0
   16.4297  -19.4028  -17.0498 C   0  0  2  0  0  0  0  0  0  0  0  0
   15.4303  -20.2976  -17.7671 C   0  0  0  0  0  0  0  0  0  0  0  0
   15.8189  -18.0554  -16.7402 C   0  0  0  0  0  0  0  0  0  0  0  0
   16.7355  -17.1834  -15.9391 C   0  0  2  0  0  0  0  0  0  0  0  0
   17.1215  -17.8353  -14.7357 N   0  0  0  0  0  0  0  0  0  0  0  0
   16.2019  -15.8137  -15.7710 C   0  0  0  0  0  0  0  0  0  0  0  0
   14.9839  -15.7181  -15.4908 O   0  0  0  0  0  0  0  0  0  0  0  0
   16.9791  -14.6317  -15.9073 N   0  0  0  0  0  0  0  0  0  0  0  0
   16.4492  -13.3018  -15.8193 C   0  0  0  0  0  0  0  0  0  0  0  0
   17.4016  -12.2185  -16.0536 C   0  0  0  0  0  0  0  0  0  0  0  0
   18.6523  -12.4747  -16.1938 O   0  0  0  0  0  0  0  0  0  0  0  0
   17.0484  -10.8754  -16.1384 N   0  0  0  0  0  0  0  0  0  0  0  0
   18.0980   -9.8050  -16.4384 C   0  0  1  0  0  0  0  0  0  0  0  0
   17.2218   -8.6341  -16.7488 C   0  0  0  0  0  0  0  0  0  0  0  0
   17.7259   -7.2864  -16.9264 C   0  0  0  0  0  0  0  0  0  0  0  0
   17.5968   -6.6306  -18.2418 C   0  0  0  0  0  0  0  0  0  0  0  0
   18.1341   -5.1843  -18.1986 C   0  0  0  0  0  0  0  0  0  0  0  0
   17.9636   -4.5300  -19.4584 N   0  0  0  0  0  0  0  0  0  0  0  0
   18.8489   -9.7560  -15.1745 C   0  0  0  0  0  0  0  0  0  0  0  0
   20.2281   -9.4324  -15.1257 O   0  0  0  0  0  0  0  0  0  0  0  0
   18.3393   -9.9908  -14.0761 O   0  0  0  0  0  0  0  0  0  0  0  0
  2  1  1  6
  3  2  1  0
  4  5  1  0
  4  2  1  0
  5  6  1  1
  7  5  1  0
  7  8  2  0
  9  7  1  0
 10  9  1  0
 10 11  1  0
 11 13  1  0
 12 11  2  0
 13 14  1  0
 14 15  1  1
 14 20  1  0
 16 15  1  0
 17 16  1  0
 18 17  1  0
 19 18  1  0
 20 22  2  0
 20 21  1  0
M  END
$$$$
