LGK.pdb
     RDKit          3D

 22 21  0  0  1  0  0  0  0  0999 V2000
   22.6104  -17.1317  -20.6425 C   0  0  0  0  0  0  0  0  0  0  0  0
   22.8874  -18.4145  -19.8903 C   0  0  2  0  0  0  0  0  0  0  0  0
   23.0798  -19.5793  -20.8496 C   0  0  0  0  0  0  0  0  0  0  0  0
   21.7353  -18.6788  -18.9483 C   0  0  0  0  0  0  0  0  0  0  0  0
   22.0627  -18.3216  -17.5315 C   0  0  2  0  0  0  0  0  0  0  0  0
   23.4674  -18.1776  -17.3634 N   0  0  0  0  0  0  0  0  0  0  0  0
   21.4000  -19.2190  -16.5594 C   0  0  0  0  0  0  0  0  0  0  0  0
   20.5598  -20.0247  -17.0243 O   0  0  0  0  0  0  0  0  0  0  0  0
   21.6604  -19.2144  -15.1624 N   0  0  0  0  0  0  0  0  0  0  0  0
   22.2445  -20.3112  -14.4459 C   0  0  0  0  0  0  0  0  0  0  0  0
   23.6372  -20.1379  -14.0384 C   0  0  0  0  0  0  0  0  0  0  0  0
   24.4172  -19.3686  -14.7087 O   0  0  0  0  0  0  0  0  0  0  0  0
   24.2110  -20.7674  -12.9383 N   0  0  0  0  0  0  0  0  0  0  0  0
   25.6922  -20.5787  -12.6100 C   0  0  1  0  0  0  0  0  0  0  0  0
   25.7164  -21.0012  -11.1762 C   0  0  0  0  0  0  0  0  0  0  0  0
   26.2134  -20.1594  -10.1055 C   0  0  0  0  0  0  0  0  0  0  0  0
   26.1488  -20.6425   -8.7129 C   0  0  0  0  0  0  0  0  0  0  0  0
   26.6360  -19.5614   -7.7248 C   0  0  0  0  0  0  0  0  0  0  0  0
   26.4729  -19.9863   -6.3694 N   0  0  0  0  0  0  0  0  0  0  0  0
   26.3335  -21.4805  -13.5790 C   0  0  0  0  0  0  0  0  0  0  0  0
   25.6227  -22.5183  -14.2325 O   0  0  0  0  0  0  0  0  0  0  0  0
   27.5243  -21.4011  -13.8906 O   0  0  0  0  0  0  0  0  0  0  0  0
  2  1  1  6
  3  2  1  0
  4  5  1  0
  4  2  1  0
  5  6  1  6
  7  5  1  0
  7  8  2  0
  9  7  1  0
 10  9  1  0
 10 11  1  0
 11 13  1  0
 12 11  2  0
 13 14  1  0
 14 15  1  1
 14 20  1  0
 16 15  1  0
 17 16  1  0
 18 17  1  0
 19 18  1  0
 20 22  2  0
 20 21  1  0
M  END
$$$$
