LGK.pdb
     RDKit          3D

 22 21  0  0  1  0  0  0  0  0999 V2000
   29.7841  -20.5880  -18.7436 C   0  0  0  0  0  0  0  0  0  0  0  0
   28.3161  -20.9519  -18.7127 C   0  0  2  0  0  0  0  0  0  0  0  0
   27.6234  -20.5368  -20.0018 C   0  0  0  0  0  0  0  0  0  0  0  0
   27.6782  -20.2790  -17.5191 C   0  0  0  0  0  0  0  0  0  0  0  0
   28.2477  -20.7601  -16.2205 C   0  0  2  0  0  0  0  0  0  0  0  0
   28.3881  -22.1752  -16.2292 N   0  0  0  0  0  0  0  0  0  0  0  0
   27.5284  -20.2050  -15.0527 C   0  0  0  0  0  0  0  0  0  0  0  0
   27.1588  -19.0104  -15.1393 O   0  0  0  0  0  0  0  0  0  0  0  0
   27.2423  -20.9376  -13.8690 N   0  0  0  0  0  0  0  0  0  0  0  0
   26.5561  -20.3980  -12.7310 C   0  0  0  0  0  0  0  0  0  0  0  0
   25.1028  -20.3000  -12.8495 C   0  0  0  0  0  0  0  0  0  0  0  0
   24.3963  -19.9104  -11.8502 O   0  0  0  0  0  0  0  0  0  0  0  0
   24.3928  -20.6100  -14.0052 N   0  0  0  0  0  0  0  0  0  0  0  0
   22.8788  -20.4091  -14.0741 C   0  0  1  0  0  0  0  0  0  0  0  0
   22.7491  -19.7139  -15.3912 C   0  0  0  0  0  0  0  0  0  0  0  0
   22.8224  -18.2738  -15.5429 C   0  0  0  0  0  0  0  0  0  0  0  0
   22.6840  -17.6775  -16.8853 C   0  0  0  0  0  0  0  0  0  0  0  0
   22.8361  -16.1424  -16.8316 C   0  0  0  0  0  0  0  0  0  0  0  0
   22.7853  -15.5702  -18.1409 N   0  0  0  0  0  0  0  0  0  0  0  0
   22.3870  -21.7935  -14.0026 C   0  0  0  0  0  0  0  0  0  0  0  0
   21.0268  -22.1014  -13.7490 O   0  0  0  0  0  0  0  0  0  0  0  0
   23.1143  -22.7778  -14.1562 O   0  0  0  0  0  0  0  0  0  0  0  0
  2  1  1  6
  3  2  1  0
  4  5  1  0
  4  2  1  0
  5  6  1  6
  7  5  1  0
  7  8  2  0
  9  7  1  0
 10  9  1  0
 10 11  1  0
 11 13  1  0
 12 11  2  0
 13 14  1  0
 14 15  1  6
 14 20  1  0
 16 15  1  0
 17 16  1  0
 18 17  1  0
 19 18  1  0
 20 22  2  0
 20 21  1  0
M  END
$$$$
