LGK.pdb
     RDKit          3D

 22 21  0  0  1  0  0  0  0  0999 V2000
   35.6013  -24.6373  -17.0249 C   0  0  0  0  0  0  0  0  0  0  0  0
   34.9381  -25.6028  -17.9822 C   0  0  2  0  0  0  0  0  0  0  0  0
   35.8152  -25.8539  -19.1994 C   0  0  0  0  0  0  0  0  0  0  0  0
   33.6002  -25.0315  -18.3925 C   0  0  0  0  0  0  0  0  0  0  0  0
   32.7517  -24.6625  -17.2152 C   0  0  2  0  0  0  0  0  0  0  0  0
   32.4899  -25.8045  -16.4093 N   0  0  0  0  0  0  0  0  0  0  0  0
   31.5584  -23.8803  -17.6071 C   0  0  0  0  0  0  0  0  0  0  0  0
   31.7672  -22.7303  -18.0599 O   0  0  0  0  0  0  0  0  0  0  0  0
   30.2228  -24.3535  -17.4993 N   0  0  0  0  0  0  0  0  0  0  0  0
   29.0809  -23.6818  -18.0490 C   0  0  0  0  0  0  0  0  0  0  0  0
   28.0689  -23.2518  -17.0865 C   0  0  0  0  0  0  0  0  0  0  0  0
   27.8927  -23.9066  -15.9957 O   0  0  0  0  0  0  0  0  0  0  0  0
   27.2446  -22.1452  -17.2648 N   0  0  0  0  0  0  0  0  0  0  0  0
   26.1304  -21.8273  -16.2674 C   0  0  1  0  0  0  0  0  0  0  0  0
   25.7322  -20.4594  -16.7204 C   0  0  0  0  0  0  0  0  0  0  0  0
   24.6137  -19.7277  -16.1584 C   0  0  0  0  0  0  0  0  0  0  0  0
   24.2446  -18.4172  -16.7267 C   0  0  0  0  0  0  0  0  0  0  0  0
   22.9890  -17.8437  -16.0357 C   0  0  0  0  0  0  0  0  0  0  0  0
   22.6942  -16.5263  -16.5065 N   0  0  0  0  0  0  0  0  0  0  0  0
   25.1755  -22.9161  -16.5243 C   0  0  0  0  0  0  0  0  0  0  0  0
   25.0766  -23.5542  -17.7862 O   0  0  0  0  0  0  0  0  0  0  0  0
   24.3986  -23.3493  -15.6698 O   0  0  0  0  0  0  0  0  0  0  0  0
  2  1  1  1
  3  2  1  0
  4  5  1  0
  4  2  1  0
  5  6  1  6
  7  5  1  0
  7  8  2  0
  9  7  1  0
 10  9  1  0
 10 11  1  0
 11 13  1  0
 12 11  2  0
 13 14  1  0
 14 15  1  6
 14 20  1  0
 16 15  1  0
 17 16  1  0
 18 17  1  0
 19 18  1  0
 20 22  2  0
 20 21  1  0
M  END
$$$$
