LGK.pdb
     RDKit          3D

 22 21  0  0  1  0  0  0  0  0999 V2000
   13.2230  -24.3369   -5.8890 C   0  0  0  0  0  0  0  0  0  0  0  0
   13.3701  -25.2394   -4.6840 C   0  0  2  0  0  0  0  0  0  0  0  0
   12.2970  -26.3175   -4.6750 C   0  0  0  0  0  0  0  0  0  0  0  0
   13.2908  -24.3919   -3.4350 C   0  0  0  0  0  0  0  0  0  0  0  0
   14.3973  -23.3860   -3.3564 C   0  0  2  0  0  0  0  0  0  0  0  0
   15.6633  -24.0335   -3.3552 N   0  0  0  0  0  0  0  0  0  0  0  0
   14.1888  -22.4069   -2.2668 C   0  0  0  0  0  0  0  0  0  0  0  0
   13.0066  -22.0475   -2.0562 O   0  0  0  0  0  0  0  0  0  0  0  0
   15.2327  -21.8673   -1.4677 N   0  0  0  0  0  0  0  0  0  0  0  0
   15.0221  -21.0538   -0.3053 C   0  0  0  0  0  0  0  0  0  0  0  0
   14.6101  -21.7633    0.9040 C   0  0  0  0  0  0  0  0  0  0  0  0
   14.3066  -23.0101    0.8518 O   0  0  0  0  0  0  0  0  0  0  0  0
   14.5139  -21.1717    2.1597 N   0  0  0  0  0  0  0  0  0  0  0  0
   14.1501  -22.0001    3.3921 C   0  0  1  0  0  0  0  0  0  0  0  0
   15.2666  -21.6317    4.3155 C   0  0  0  0  0  0  0  0  0  0  0  0
   15.3546  -22.0981    5.6855 C   0  0  0  0  0  0  0  0  0  0  0  0
   16.5159  -21.7131    6.5101 C   0  0  0  0  0  0  0  0  0  0  0  0
   16.3553  -22.2064    7.9639 C   0  0  0  0  0  0  0  0  0  0  0  0
   17.3887  -21.6875    8.8047 N   0  0  0  0  0  0  0  0  0  0  0  0
   12.8151  -21.4788    3.7230 C   0  0  0  0  0  0  0  0  0  0  0  0
   11.9472  -22.1402    4.6277 O   0  0  0  0  0  0  0  0  0  0  0  0
   12.3574  -20.4391    3.2424 O   0  0  0  0  0  0  0  0  0  0  0  0
  2  1  1  6
  3  2  1  0
  4  5  1  0
  4  2  1  0
  5  6  1  1
  7  5  1  0
  7  8  2  0
  9  7  1  0
 10  9  1  0
 10 11  1  0
 11 13  1  0
 12 11  2  0
 13 14  1  0
 14 15  1  1
 14 20  1  0
 16 15  1  0
 17 16  1  0
 18 17  1  0
 19 18  1  0
 20 22  2  0
 20 21  1  0
M  END
$$$$
