LGK.pdb
     RDKit          3D

 22 21  0  0  1  0  0  0  0  0999 V2000
   24.7346  -13.7773  -18.4985 C   0  0  0  0  0  0  0  0  0  0  0  0
   25.2597  -13.6710  -17.0839 C   0  0  2  0  0  0  0  0  0  0  0  0
   25.4433  -15.0482  -16.4646 C   0  0  0  0  0  0  0  0  0  0  0  0
   24.2918  -12.8413  -16.2719 C   0  0  0  0  0  0  0  0  0  0  0  0
   24.1505  -11.4478  -16.8014 C   0  0  2  0  0  0  0  0  0  0  0  0
   25.4132  -10.7945  -16.8343 N   0  0  0  0  0  0  0  0  0  0  0  0
   23.0698  -10.6975  -16.1243 C   0  0  0  0  0  0  0  0  0  0  0  0
   21.9270  -11.2115  -16.1560 O   0  0  0  0  0  0  0  0  0  0  0  0
   23.2561   -9.4565  -15.4573 N   0  0  0  0  0  0  0  0  0  0  0  0
   22.2301   -8.7696  -14.7275 C   0  0  0  0  0  0  0  0  0  0  0  0
   21.3603   -7.8989  -15.5155 C   0  0  0  0  0  0  0  0  0  0  0  0
   21.5531   -7.7618  -16.7779 O   0  0  0  0  0  0  0  0  0  0  0  0
   20.2972   -7.1742  -14.9860 N   0  0  0  0  0  0  0  0  0  0  0  0
   19.3792   -6.3524  -15.8911 C   0  0  1  0  0  0  0  0  0  0  0  0
   18.0371   -6.7961  -15.4043 C   0  0  0  0  0  0  0  0  0  0  0  0
   17.2806   -7.8689  -16.0199 C   0  0  0  0  0  0  0  0  0  0  0  0
   15.9690   -8.2465  -15.4595 C   0  0  0  0  0  0  0  0  0  0  0  0
   15.4370   -9.5413  -16.1098 C   0  0  0  0  0  0  0  0  0  0  0  0
   14.2404   -9.9898  -15.4687 N   0  0  0  0  0  0  0  0  0  0  0  0
   19.7834   -4.9769  -15.5622 C   0  0  0  0  0  0  0  0  0  0  0  0
   19.5717   -3.8929  -16.4507 O   0  0  0  0  0  0  0  0  0  0  0  0
   20.3309   -4.6689  -14.5007 O   0  0  0  0  0  0  0  0  0  0  0  0
  2  1  1  6
  3  2  1  0
  4  5  1  0
  4  2  1  0
  5  6  1  1
  7  5  1  0
  7  8  2  0
  9  7  1  0
 10  9  1  0
 10 11  1  0
 11 13  1  0
 12 11  2  0
 13 14  1  0
 14 15  1  1
 14 20  1  0
 16 15  1  0
 17 16  1  0
 18 17  1  0
 19 18  1  0
 20 22  2  0
 20 21  1  0
M  END
$$$$
