LGK.pdb
     RDKit          3D

 22 21  0  0  1  0  0  0  0  0999 V2000
   20.4846  -13.4983  -17.7364 C   0  0  0  0  0  0  0  0  0  0  0  0
   19.8561  -12.2159  -17.2378 C   0  0  2  0  0  0  0  0  0  0  0  0
   18.4569  -12.0362  -17.8070 C   0  0  0  0  0  0  0  0  0  0  0  0
   20.7476  -11.0593  -17.6279 C   0  0  0  0  0  0  0  0  0  0  0  0
   21.6260  -10.6102  -16.5014 C   0  0  2  0  0  0  0  0  0  0  0  0
   21.2201  -11.2131  -15.2792 N   0  0  0  0  0  0  0  0  0  0  0  0
   21.7758   -9.1388  -16.4594 C   0  0  0  0  0  0  0  0  0  0  0  0
   22.2137   -8.5911  -17.4984 O   0  0  0  0  0  0  0  0  0  0  0  0
   21.4570   -8.3356  -15.3312 N   0  0  0  0  0  0  0  0  0  0  0  0
   21.6271   -6.9124  -15.2787 C   0  0  0  0  0  0  0  0  0  0  0  0
   20.5521   -6.1190  -15.8707 C   0  0  0  0  0  0  0  0  0  0  0  0
   19.9303   -6.5446  -16.9108 O   0  0  0  0  0  0  0  0  0  0  0  0
   20.1317   -4.8871  -15.3794 N   0  0  0  0  0  0  0  0  0  0  0  0
   18.9658   -4.1398  -16.0272 C   0  0  1  0  0  0  0  0  0  0  0  0
   17.8410   -4.5461  -15.1302 C   0  0  0  0  0  0  0  0  0  0  0  0
   16.5153   -3.9631  -15.2002 C   0  0  0  0  0  0  0  0  0  0  0  0
   15.4479   -4.4800  -14.3225 C   0  0  0  0  0  0  0  0  0  0  0  0
   14.0779   -3.8744  -14.6952 C   0  0  0  0  0  0  0  0  0  0  0  0
   13.0146   -4.5307  -14.0003 N   0  0  0  0  0  0  0  0  0  0  0  0
   19.4156   -2.7423  -15.9371 C   0  0  0  0  0  0  0  0  0  0  0  0
   18.7246   -1.6821  -16.5757 O   0  0  0  0  0  0  0  0  0  0  0  0
   20.4166   -2.3938  -15.3062 O   0  0  0  0  0  0  0  0  0  0  0  0
  2  1  1  6
  3  2  1  0
  4  5  1  0
  4  2  1  0
  5  6  1  1
  7  5  1  0
  7  8  2  0
  9  7  1  0
 10  9  1  0
 10 11  1  0
 11 13  1  0
 12 11  2  0
 13 14  1  0
 14 15  1  1
 14 20  1  0
 16 15  1  0
 17 16  1  0
 18 17  1  0
 19 18  1  0
 20 22  2  0
 20 21  1  0
M  END
$$$$
