LGK.pdb
     RDKit          3D

 22 21  0  0  1  0  0  0  0  0999 V2000
   26.8568  -15.2441  -14.8483 C   0  0  0  0  0  0  0  0  0  0  0  0
   26.6606  -15.5958  -16.3064 C   0  0  2  0  0  0  0  0  0  0  0  0
   26.6225  -14.3439  -17.1697 C   0  0  0  0  0  0  0  0  0  0  0  0
   25.3773  -16.3824  -16.4436 C   0  0  0  0  0  0  0  0  0  0  0  0
   25.4456  -17.7108  -15.7559 C   0  0  2  0  0  0  0  0  0  0  0  0
   26.5937  -18.4352  -16.1792 N   0  0  0  0  0  0  0  0  0  0  0  0
   24.1672  -18.4512  -15.8380 C   0  0  0  0  0  0  0  0  0  0  0  0
   23.3608  -18.0789  -16.7225 O   0  0  0  0  0  0  0  0  0  0  0  0
   23.8158  -19.5344  -14.9878 N   0  0  0  0  0  0  0  0  0  0  0  0
   22.5359  -20.1819  -14.9913 C   0  0  0  0  0  0  0  0  0  0  0  0
   21.3910  -19.3341  -14.6655 C   0  0  0  0  0  0  0  0  0  0  0  0
   21.2921  -18.7981  -13.5026 O   0  0  0  0  0  0  0  0  0  0  0  0
   20.3548  -19.0509  -15.5498 N   0  0  0  0  0  0  0  0  0  0  0  0
   19.1144  -18.2866  -15.0867 C   0  0  1  0  0  0  0  0  0  0  0  0
   18.9524  -17.3115  -16.2083 C   0  0  0  0  0  0  0  0  0  0  0  0
   18.1007  -16.1408  -16.1299 C   0  0  0  0  0  0  0  0  0  0  0  0
   17.9541  -15.2696  -17.3116 C   0  0  0  0  0  0  0  0  0  0  0  0
   17.0973  -14.0277  -16.9855 C   0  0  0  0  0  0  0  0  0  0  0  0
   16.8194  -13.2658  -18.1629 N   0  0  0  0  0  0  0  0  0  0  0  0
   18.1152  -19.3618  -14.9920 C   0  0  0  0  0  0  0  0  0  0  0  0
   16.9130  -19.2151  -14.2554 O   0  0  0  0  0  0  0  0  0  0  0  0
   18.2486  -20.4586  -15.5404 O   0  0  0  0  0  0  0  0  0  0  0  0
  2  1  1  1
  3  2  1  0
  4  5  1  0
  4  2  1  0
  5  6  1  6
  7  5  1  0
  7  8  2  0
  9  7  1  0
 10  9  1  0
 10 11  1  0
 11 13  1  0
 12 11  2  0
 13 14  1  0
 14 15  1  6
 14 20  1  0
 16 15  1  0
 17 16  1  0
 18 17  1  0
 19 18  1  0
 20 22  2  0
 20 21  1  0
M  END
$$$$
