LGK.pdb
     RDKit          3D

 22 21  0  0  1  0  0  0  0  0999 V2000
   25.8973  -14.4892  -19.5730 C   0  0  0  0  0  0  0  0  0  0  0  0
   25.3499  -13.0841  -19.6922 C   0  0  2  0  0  0  0  0  0  0  0  0
   25.8651  -12.4023  -20.9507 C   0  0  0  0  0  0  0  0  0  0  0  0
   25.7471  -12.3063  -18.4587 C   0  0  0  0  0  0  0  0  0  0  0  0
   25.0252  -12.7727  -17.2325 C   0  0  2  0  0  0  0  0  0  0  0  0
   23.9409  -13.6233  -17.5832 N   0  0  0  0  0  0  0  0  0  0  0  0
   24.6824  -11.6558  -16.3246 C   0  0  0  0  0  0  0  0  0  0  0  0
   25.6309  -10.9255  -15.9530 O   0  0  0  0  0  0  0  0  0  0  0  0
   23.3673  -11.3758  -15.8643 N   0  0  0  0  0  0  0  0  0  0  0  0
   23.0237  -10.2610  -15.0299 C   0  0  0  0  0  0  0  0  0  0  0  0
   22.6273   -9.0398  -15.7277 C   0  0  0  0  0  0  0  0  0  0  0  0
   23.3978   -8.5216  -16.6150 O   0  0  0  0  0  0  0  0  0  0  0  0
   21.4335   -8.3634  -15.4971 N   0  0  0  0  0  0  0  0  0  0  0  0
   21.0654   -7.1213  -16.3090 C   0  0  1  0  0  0  0  0  0  0  0  0
   19.6714   -7.4637  -16.7266 C   0  0  0  0  0  0  0  0  0  0  0  0
   19.3205   -7.8743  -18.0721 C   0  0  0  0  0  0  0  0  0  0  0  0
   17.9154   -8.1922  -18.3908 C   0  0  0  0  0  0  0  0  0  0  0  0
   17.7723   -8.6879  -19.8456 C   0  0  0  0  0  0  0  0  0  0  0  0
   16.4061   -8.9578  -20.1694 N   0  0  0  0  0  0  0  0  0  0  0  0
   21.2157   -6.0522  -15.3101 C   0  0  0  0  0  0  0  0  0  0  0  0
   21.4729   -4.7067  -15.6744 O   0  0  0  0  0  0  0  0  0  0  0  0
   21.1303   -6.2458  -14.0949 O   0  0  0  0  0  0  0  0  0  0  0  0
  2  1  1  1
  3  2  1  0
  4  5  1  0
  4  2  1  0
  5  6  1  6
  7  5  1  0
  7  8  2  0
  9  7  1  0
 10  9  1  0
 10 11  1  0
 11 13  1  0
 12 11  2  0
 13 14  1  0
 14 15  1  1
 14 20  1  0
 16 15  1  0
 17 16  1  0
 18 17  1  0
 19 18  1  0
 20 22  2  0
 20 21  1  0
M  END
$$$$
