LGK.pdb
     RDKit          3D

 22 21  0  0  1  0  0  0  0  0999 V2000
   23.1256  -19.1667  -20.3459 C   0  0  0  0  0  0  0  0  0  0  0  0
   24.3391  -18.6060  -19.6378 C   0  0  2  0  0  0  0  0  0  0  0  0
   25.6244  -19.1434  -20.2486 C   0  0  0  0  0  0  0  0  0  0  0  0
   24.2498  -18.9644  -18.1722 C   0  0  0  0  0  0  0  0  0  0  0  0
   22.9127  -18.6345  -17.5842 C   0  0  2  0  0  0  0  0  0  0  0  0
   22.7017  -17.2282  -17.5782 N   0  0  0  0  0  0  0  0  0  0  0  0
   22.6877  -19.3114  -16.2878 C   0  0  0  0  0  0  0  0  0  0  0  0
   22.9021  -20.5460  -16.2566 O   0  0  0  0  0  0  0  0  0  0  0  0
   22.2526  -18.6509  -15.1072 N   0  0  0  0  0  0  0  0  0  0  0  0
   22.0361  -19.3045  -13.8489 C   0  0  0  0  0  0  0  0  0  0  0  0
   20.8094  -20.0914  -13.7412 C   0  0  0  0  0  0  0  0  0  0  0  0
   20.0548  -20.2583  -14.7670 O   0  0  0  0  0  0  0  0  0  0  0  0
   20.3734  -20.6977  -12.5673 N   0  0  0  0  0  0  0  0  0  0  0  0
   19.0731  -21.5012  -12.5347 C   0  0  1  0  0  0  0  0  0  0  0  0
   19.3166  -22.3782  -11.3487 C   0  0  0  0  0  0  0  0  0  0  0  0
   18.4610  -23.4934  -10.9931 C   0  0  0  0  0  0  0  0  0  0  0  0
   18.7777  -24.2989   -9.7983 C   0  0  0  0  0  0  0  0  0  0  0  0
   17.7719  -25.4568   -9.6241 C   0  0  0  0  0  0  0  0  0  0  0  0
   18.0211  -26.1830   -8.4179 N   0  0  0  0  0  0  0  0  0  0  0  0
   18.0663  -20.4400  -12.3805 C   0  0  0  0  0  0  0  0  0  0  0  0
   16.7109  -20.6228  -12.7530 O   0  0  0  0  0  0  0  0  0  0  0  0
   18.3247  -19.3249  -11.9210 O   0  0  0  0  0  0  0  0  0  0  0  0
  2  1  1  6
  3  2  1  0
  4  5  1  0
  4  2  1  0
  5  6  1  1
  7  5  1  0
  7  8  2  0
  9  7  1  0
 10  9  1  0
 10 11  1  0
 11 13  1  0
 12 11  2  0
 13 14  1  0
 14 15  1  1
 14 20  1  0
 16 15  1  0
 17 16  1  0
 18 17  1  0
 19 18  1  0
 20 22  2  0
 20 21  1  0
M  END
$$$$
