LGK.pdb
     RDKit          3D

 22 21  0  0  1  0  0  0  0  0999 V2000
   21.1666  -20.2648  -16.8480 C   0  0  0  0  0  0  0  0  0  0  0  0
   20.4067  -19.5845  -15.7308 C   0  0  2  0  0  0  0  0  0  0  0  0
   19.6305  -18.3839  -16.2505 C   0  0  0  0  0  0  0  0  0  0  0  0
   21.3917  -19.1664  -14.6633 C   0  0  0  0  0  0  0  0  0  0  0  0
   21.9856  -20.3379  -13.9441 C   0  0  2  0  0  0  0  0  0  0  0  0
   21.9449  -21.5005  -14.7620 N   0  0  0  0  0  0  0  0  0  0  0  0
   21.4263  -20.5037  -12.5844 C   0  0  0  0  0  0  0  0  0  0  0  0
   21.3379  -19.4669  -11.8855 O   0  0  0  0  0  0  0  0  0  0  0  0
   20.9953  -21.7454  -12.0443 N   0  0  0  0  0  0  0  0  0  0  0  0
   20.3497  -21.8925  -10.7719 C   0  0  0  0  0  0  0  0  0  0  0  0
   19.2344  -22.8357  -10.7273 C   0  0  0  0  0  0  0  0  0  0  0  0
   18.8882  -23.4797  -11.7833 O   0  0  0  0  0  0  0  0  0  0  0  0
   18.4844  -23.1018   -9.5861 N   0  0  0  0  0  0  0  0  0  0  0  0
   17.3905  -24.1699   -9.5969 C   0  0  1  0  0  0  0  0  0  0  0  0
   17.1331  -24.3207   -8.1320 C   0  0  0  0  0  0  0  0  0  0  0  0
   17.7908  -25.3137   -7.3053 C   0  0  0  0  0  0  0  0  0  0  0  0
   17.4659  -25.3922   -5.8682 C   0  0  0  0  0  0  0  0  0  0  0  0
   18.2909  -26.4940   -5.1697 C   0  0  0  0  0  0  0  0  0  0  0  0
   18.0765  -26.4848   -3.7561 N   0  0  0  0  0  0  0  0  0  0  0  0
   16.3392  -23.5173  -10.3922 C   0  0  0  0  0  0  0  0  0  0  0  0
   16.2457  -22.1079  -10.5120 O   0  0  0  0  0  0  0  0  0  0  0  0
   15.4708  -24.1416  -11.0065 O   0  0  0  0  0  0  0  0  0  0  0  0
  2  1  1  6
  3  2  1  0
  4  5  1  0
  4  2  1  0
  5  6  1  6
  7  5  1  0
  7  8  2  0
  9  7  1  0
 10  9  1  0
 10 11  1  0
 11 13  1  0
 12 11  2  0
 13 14  1  0
 14 15  1  1
 14 20  1  0
 16 15  1  0
 17 16  1  0
 18 17  1  0
 19 18  1  0
 20 22  2  0
 20 21  1  0
M  END
$$$$
