LGK.pdb
     RDKit          3D

 22 21  0  0  1  0  0  0  0  0999 V2000
   18.1687  -15.4468  -18.8236 C   0  0  0  0  0  0  0  0  0  0  0  0
   19.2592  -15.8569  -17.8587 C   0  0  2  0  0  0  0  0  0  0  0  0
   18.9987  -17.2473  -17.2992 C   0  0  0  0  0  0  0  0  0  0  0  0
   19.3284  -14.8348  -16.7475 C   0  0  0  0  0  0  0  0  0  0  0  0
   19.6132  -13.4558  -17.2570 C   0  0  2  0  0  0  0  0  0  0  0  0
   20.9843  -13.3263  -17.6112 N   0  0  0  0  0  0  0  0  0  0  0  0
   19.0934  -12.4056  -16.3536 C   0  0  0  0  0  0  0  0  0  0  0  0
   17.8650  -12.4380  -16.1064 O   0  0  0  0  0  0  0  0  0  0  0  0
   19.8944  -11.3888  -15.7671 N   0  0  0  0  0  0  0  0  0  0  0  0
   19.3986  -10.3885  -14.8666 C   0  0  0  0  0  0  0  0  0  0  0  0
   18.7526   -9.2343  -15.4879 C   0  0  0  0  0  0  0  0  0  0  0  0
   18.6961   -9.1345  -16.7672 O   0  0  0  0  0  0  0  0  0  0  0  0
   18.1715   -8.1898  -14.7757 N   0  0  0  0  0  0  0  0  0  0  0  0
   17.4624   -7.0450  -15.4995 C   0  0  1  0  0  0  0  0  0  0  0  0
   16.2190   -6.9234  -14.6784 C   0  0  0  0  0  0  0  0  0  0  0  0
   15.3019   -5.8052  -14.7817 C   0  0  0  0  0  0  0  0  0  0  0  0
   14.1016   -5.7694  -13.9244 C   0  0  0  0  0  0  0  0  0  0  0  0
   13.2768   -4.4887  -14.1735 C   0  0  0  0  0  0  0  0  0  0  0  0
   12.0152   -4.5458  -13.5031 N   0  0  0  0  0  0  0  0  0  0  0  0
   18.4457   -5.9576  -15.3807 C   0  0  0  0  0  0  0  0  0  0  0  0
   18.4083   -4.8093  -16.2110 O   0  0  0  0  0  0  0  0  0  0  0  0
   19.3654   -5.9649  -14.5589 O   0  0  0  0  0  0  0  0  0  0  0  0
  2  1  1  6
  3  2  1  0
  4  5  1  0
  4  2  1  0
  5  6  1  1
  7  5  1  0
  7  8  2  0
  9  7  1  0
 10  9  1  0
 10 11  1  0
 11 13  1  0
 12 11  2  0
 13 14  1  0
 14 15  1  1
 14 20  1  0
 16 15  1  0
 17 16  1  0
 18 17  1  0
 19 18  1  0
 20 22  2  0
 20 21  1  0
M  END
$$$$
