KIM.pdb
     RDKit          3D

 26 25  0  0  1  0  0  0  0  0999 V2000
    7.6790  -14.3079   20.6054 N   0  0  0  0  0  0  0  0  0  0  0  0
    7.7757  -15.5219   21.3773 C   0  0  1  0  0  0  0  0  0  0  0  0
    8.6137  -16.5759   20.6326 C   0  0  0  0  0  0  0  0  0  0  0  0
    7.8166  -17.2142   19.5504 C   0  0  0  0  0  0  0  0  0  0  0  0
    7.8809  -18.6899   19.4514 C   0  0  0  0  0  0  0  0  0  0  0  0
    6.6725  -19.3949   18.9555 C   0  0  0  0  0  0  0  0  0  0  0  0
    6.4126  -19.3031   17.5558 N   0  0  0  0  0  0  0  0  0  0  0  0
    8.3999  -15.2022   22.6857 C   0  0  0  0  0  0  0  0  0  0  0  0
    9.6386  -15.3290   22.8644 O   0  0  0  0  0  0  0  0  0  0  0  0
    5.9442  -11.4962   25.9678 C   0  0  0  0  0  0  0  0  0  0  0  0
    7.0094  -12.2648   25.1977 C   0  0  0  0  0  0  0  0  0  0  0  0
    7.3824  -13.5422   25.9014 C   0  0  2  0  0  0  0  0  0  0  0  0
    7.9527  -13.2590   27.2760 C   0  0  0  0  0  0  0  0  0  0  0  0
    8.2331  -14.4674   25.1066 C   0  0  2  0  0  0  0  0  0  0  0  0
    7.6467  -14.7405   23.7983 N   0  0  0  0  0  0  0  0  0  0  0  0
    8.6241  -15.7291   25.7358 C   0  0  0  0  0  0  0  0  0  0  0  0
    7.7591  -16.6515   25.8356 O   0  0  0  0  0  0  0  0  0  0  0  0
   13.5404  -19.7458   24.1609 C   0  0  0  0  0  0  0  0  0  0  0  0
   13.8472  -19.2650   25.9001 S   0  0  0  0  0  0  0  0  0  0  0  0
   12.2729  -18.9053   26.6704 C   0  0  0  0  0  0  0  0  0  0  0  0
   11.5611  -17.6979   26.2107 C   0  0  0  0  0  0  0  0  0  0  0  0
   10.2303  -17.3692   26.8154 C   0  0  2  0  0  0  0  0  0  0  0  0
    9.9013  -16.0254   26.2463 N   0  0  0  0  0  0  0  0  0  0  0  0
   10.2427  -17.2311   28.2628 C   0  0  0  0  0  0  0  0  0  0  0  0
   10.2334  -18.2932   29.1695 O   0  0  0  0  0  0  0  0  0  0  0  0
   10.2575  -16.0506   28.7648 O   0  0  0  0  0  0  0  0  0  0  0  0
  2  1  1  6
  3  2  1  0
  4  5  1  0
  4  3  1  0
  6  7  1  0
  6  5  1  0
  8 15  1  0
  8  2  1  0
  9  8  2  0
 10 11  1  0
 12 11  1  0
 12 14  1  0
 12 13  1  1
 14 15  1  6
 16 14  1  0
 16 23  1  0
 17 16  2  0
 18 19  1  0
 19 20  1  0
 20 21  1  0
 22 21  1  6
 22 23  1  0
 22 24  1  0
 24 26  2  0
 24 25  1  0
M  END
$$$$
