KIM.pdb
     RDKit          3D

 26 25  0  0  1  0  0  0  0  0999 V2000
    8.6723  -19.2092   18.7517 N   0  0  0  0  0  0  0  0  0  0  0  0
    7.6680  -18.6108   19.5956 C   0  0  1  0  0  0  0  0  0  0  0  0
    7.0403  -19.6633   20.5261 C   0  0  0  0  0  0  0  0  0  0  0  0
    8.0081  -20.7561   20.8141 C   0  0  0  0  0  0  0  0  0  0  0  0
    7.5515  -21.8351   21.7191 C   0  0  0  0  0  0  0  0  0  0  0  0
    8.5269  -22.9012   22.0582 C   0  0  0  0  0  0  0  0  0  0  0  0
    9.4443  -22.6117   23.1117 N   0  0  0  0  0  0  0  0  0  0  0  0
    8.3029  -17.5333   20.3954 C   0  0  0  0  0  0  0  0  0  0  0  0
    9.5382  -17.5403   20.6326 O   0  0  0  0  0  0  0  0  0  0  0  0
    7.0974  -12.5003   19.2052 C   0  0  0  0  0  0  0  0  0  0  0  0
    7.8369  -13.7532   19.6541 C   0  0  0  0  0  0  0  0  0  0  0  0
    7.6287  -14.0186   21.1212 C   0  0  2  0  0  0  0  0  0  0  0  0
    8.0778  -12.8372   21.9564 C   0  0  0  0  0  0  0  0  0  0  0  0
    8.1845  -15.3094   21.6073 C   0  0  2  0  0  0  0  0  0  0  0  0
    7.5642  -16.4453   20.9329 N   0  0  0  0  0  0  0  0  0  0  0  0
    8.1808  -15.5417   23.0519 C   0  0  0  0  0  0  0  0  0  0  0  0
    7.0964  -15.8950   23.6071 O   0  0  0  0  0  0  0  0  0  0  0  0
    7.4289  -10.5473   26.1895 C   0  0  0  0  0  0  0  0  0  0  0  0
    6.4979  -12.0728   26.5851 S   0  0  0  0  0  0  0  0  0  0  0  0
    7.6528  -13.4383   26.6403 C   0  0  0  0  0  0  0  0  0  0  0  0
    8.1621  -13.9390   25.3498 C   0  0  0  0  0  0  0  0  0  0  0  0
    9.1451  -15.0697   25.3502 C   0  0  2  0  0  0  0  0  0  0  0  0
    9.2945  -15.4140   23.9021 N   0  0  0  0  0  0  0  0  0  0  0  0
    8.6850  -16.2691   26.0314 C   0  0  0  0  0  0  0  0  0  0  0  0
    8.4480  -17.4998   25.4155 O   0  0  0  0  0  0  0  0  0  0  0  0
    8.4690  -16.2107   27.2947 O   0  0  0  0  0  0  0  0  0  0  0  0
  2  1  1  1
  3  2  1  0
  4  5  1  0
  4  3  1  0
  6  7  1  0
  6  5  1  0
  8 15  1  0
  8  2  1  0
  9  8  2  0
 10 11  1  0
 12 11  1  0
 12 14  1  0
 12 13  1  1
 14 15  1  6
 16 14  1  0
 16 23  1  0
 17 16  2  0
 18 19  1  0
 19 20  1  0
 20 21  1  0
 22 21  1  6
 22 23  1  0
 22 24  1  0
 24 26  2  0
 24 25  1  0
M  END
$$$$
