KIM.pdb
     RDKit          3D

 26 25  0  0  1  0  0  0  0  0999 V2000
    9.5236  -18.5213   18.5125 N   0  0  0  0  0  0  0  0  0  0  0  0
    8.7823  -18.5033   19.7490 C   0  0  1  0  0  0  0  0  0  0  0  0
    9.0854  -19.7593   20.5846 C   0  0  0  0  0  0  0  0  0  0  0  0
   10.1693  -20.5615   19.9557 C   0  0  0  0  0  0  0  0  0  0  0  0
   10.5612  -21.8136   20.6416 C   0  0  0  0  0  0  0  0  0  0  0  0
   11.6213  -22.6370   20.0080 C   0  0  0  0  0  0  0  0  0  0  0  0
   12.1167  -23.7340   20.7737 N   0  0  0  0  0  0  0  0  0  0  0  0
    9.1548  -17.2820   20.5063 C   0  0  0  0  0  0  0  0  0  0  0  0
   10.3390  -16.8577   20.5158 O   0  0  0  0  0  0  0  0  0  0  0  0
    6.8951  -12.8935   19.3362 C   0  0  0  0  0  0  0  0  0  0  0  0
    7.8986  -13.9086   19.8660 C   0  0  0  0  0  0  0  0  0  0  0  0
    7.7121  -14.1480   21.3404 C   0  0  2  0  0  0  0  0  0  0  0  0
    7.8641  -12.8603   22.1238 C   0  0  0  0  0  0  0  0  0  0  0  0
    8.5258  -15.2597   21.9003 C   0  0  2  0  0  0  0  0  0  0  0  0
    8.2100  -16.5299   21.2547 N   0  0  0  0  0  0  0  0  0  0  0  0
    8.5129  -15.4373   23.3526 C   0  0  0  0  0  0  0  0  0  0  0  0
    7.4660  -15.9015   23.8981 O   0  0  0  0  0  0  0  0  0  0  0  0
    6.6054  -11.2054   25.3497 C   0  0  0  0  0  0  0  0  0  0  0  0
    7.2290  -11.8127   26.9599 S   0  0  0  0  0  0  0  0  0  0  0  0
    8.6013  -12.9184   26.6508 C   0  0  0  0  0  0  0  0  0  0  0  0
    8.3007  -14.1820   25.9518 C   0  0  0  0  0  0  0  0  0  0  0  0
    9.4132  -15.1552   25.7073 C   0  0  2  0  0  0  0  0  0  0  0  0
    9.5798  -15.1416   24.2207 N   0  0  0  0  0  0  0  0  0  0  0  0
    9.1129  -16.5246   26.0931 C   0  0  0  0  0  0  0  0  0  0  0  0
    8.4743  -17.4644   25.2812 O   0  0  0  0  0  0  0  0  0  0  0  0
    9.4472  -16.9168   27.2679 O   0  0  0  0  0  0  0  0  0  0  0  0
  2  1  1  6
  3  2  1  0
  4  5  1  0
  4  3  1  0
  6  7  1  0
  6  5  1  0
  8 15  1  0
  8  2  1  0
  9  8  2  0
 10 11  1  0
 12 11  1  0
 12 14  1  0
 12 13  1  1
 14 15  1  6
 16 14  1  0
 16 23  1  0
 17 16  2  0
 18 19  1  0
 19 20  1  0
 20 21  1  0
 22 21  1  6
 22 23  1  0
 22 24  1  0
 24 26  2  0
 24 25  1  0
M  END
$$$$
