KIM.pdb
     RDKit          3D

 26 25  0  0  1  0  0  0  0  0999 V2000
    8.1965  -16.6278   20.1907 N   0  0  0  0  0  0  0  0  0  0  0  0
    7.6947  -16.8145   21.5295 C   0  0  1  0  0  0  0  0  0  0  0  0
    7.9662  -18.2481   22.0183 C   0  0  0  0  0  0  0  0  0  0  0  0
    8.4973  -19.0900   20.9124 C   0  0  0  0  0  0  0  0  0  0  0  0
    7.5407  -20.0014   20.2445 C   0  0  0  0  0  0  0  0  0  0  0  0
    8.1001  -21.0313   19.3337 C   0  0  0  0  0  0  0  0  0  0  0  0
    9.1580  -21.8338   19.8551 N   0  0  0  0  0  0  0  0  0  0  0  0
    8.3586  -15.8338   22.4247 C   0  0  0  0  0  0  0  0  0  0  0  0
    9.4955  -15.3694   22.1524 O   0  0  0  0  0  0  0  0  0  0  0  0
    5.3461  -12.4774   25.7184 C   0  0  0  0  0  0  0  0  0  0  0  0
    6.3866  -13.0124   24.7441 C   0  0  0  0  0  0  0  0  0  0  0  0
    7.4580  -13.7928   25.4576 C   0  0  2  0  0  0  0  0  0  0  0  0
    8.1320  -12.9465   26.5181 C   0  0  0  0  0  0  0  0  0  0  0  0
    8.4311  -14.4770   24.5653 C   0  0  2  0  0  0  0  0  0  0  0  0
    7.7583  -15.3675   23.6249 N   0  0  0  0  0  0  0  0  0  0  0  0
    9.5396  -15.1902   25.2004 C   0  0  0  0  0  0  0  0  0  0  0  0
   10.6996  -14.6796   25.1479 O   0  0  0  0  0  0  0  0  0  0  0  0
   11.7885  -13.4363   28.4181 C   0  0  0  0  0  0  0  0  0  0  0  0
   11.1711  -14.8196   29.4455 S   0  0  0  0  0  0  0  0  0  0  0  0
   10.0279  -15.7836   28.4630 C   0  0  0  0  0  0  0  0  0  0  0  0
   10.5394  -17.0356   27.8742 C   0  0  0  0  0  0  0  0  0  0  0  0
   10.6447  -17.1432   26.3836 C   0  0  2  0  0  0  0  0  0  0  0  0
    9.4366  -16.4143   25.8863 N   0  0  0  0  0  0  0  0  0  0  0  0
   10.5684  -18.5012   25.8697 C   0  0  0  0  0  0  0  0  0  0  0  0
   11.5782  -19.4593   25.9834 O   0  0  0  0  0  0  0  0  0  0  0  0
    9.5018  -18.8645   25.2564 O   0  0  0  0  0  0  0  0  0  0  0  0
  2  1  1  6
  3  2  1  0
  4  5  1  0
  4  3  1  0
  6  7  1  0
  6  5  1  0
  8 15  1  0
  8  2  1  0
  9  8  2  0
 10 11  1  0
 12 11  1  0
 12 14  1  0
 12 13  1  1
 14 15  1  1
 16 14  1  0
 16 23  1  0
 17 16  2  0
 18 19  1  0
 19 20  1  0
 20 21  1  0
 22 21  1  1
 22 23  1  0
 22 24  1  0
 24 26  2  0
 24 25  1  0
M  END
$$$$
