KIM.pdb
     RDKit          3D

 26 25  0  0  1  0  0  0  0  0999 V2000
    5.2171  -16.9587   21.4811 N   0  0  0  0  0  0  0  0  0  0  0  0
    6.0077  -17.4017   22.6025 C   0  0  1  0  0  0  0  0  0  0  0  0
    6.6833  -18.7494   22.2945 C   0  0  0  0  0  0  0  0  0  0  0  0
    6.0789  -19.3784   21.0891 C   0  0  0  0  0  0  0  0  0  0  0  0
    6.6149  -20.6965   20.6803 C   0  0  0  0  0  0  0  0  0  0  0  0
    6.0612  -21.3064   19.4455 C   0  0  0  0  0  0  0  0  0  0  0  0
    6.6794  -20.9273   18.2170 N   0  0  0  0  0  0  0  0  0  0  0  0
    7.0336  -16.3695   22.8954 C   0  0  0  0  0  0  0  0  0  0  0  0
    7.9335  -16.0910   22.0617 O   0  0  0  0  0  0  0  0  0  0  0  0
    5.4766  -12.4923   26.3100 C   0  0  0  0  0  0  0  0  0  0  0  0
    6.2090  -12.9818   25.0682 C   0  0  0  0  0  0  0  0  0  0  0  0
    7.5145  -13.6413   25.4241 C   0  0  2  0  0  0  0  0  0  0  0  0
    8.5471  -12.6137   25.8401 C   0  0  0  0  0  0  0  0  0  0  0  0
    8.0310  -14.5939   24.4056 C   0  0  2  0  0  0  0  0  0  0  0  0
    7.0602  -15.6447   24.1170 N   0  0  0  0  0  0  0  0  0  0  0  0
    9.3406  -15.1978   24.6527 C   0  0  0  0  0  0  0  0  0  0  0  0
   10.3806  -14.5332   24.3601 O   0  0  0  0  0  0  0  0  0  0  0  0
   10.1903  -13.4075   29.2698 C   0  0  0  0  0  0  0  0  0  0  0  0
   10.8917  -14.9723   29.9098 S   0  0  0  0  0  0  0  0  0  0  0  0
   11.2670  -16.0317   28.5176 C   0  0  0  0  0  0  0  0  0  0  0  0
   10.4232  -15.8857   27.3166 C   0  0  0  0  0  0  0  0  0  0  0  0
   10.7073  -16.7473   26.1244 C   0  0  2  0  0  0  0  0  0  0  0  0
    9.5603  -16.4735   25.2039 N   0  0  0  0  0  0  0  0  0  0  0  0
   10.7068  -18.1754   26.3981 C   0  0  0  0  0  0  0  0  0  0  0  0
    9.6713  -19.0538   26.0715 O   0  0  0  0  0  0  0  0  0  0  0  0
   11.7245  -18.6856   26.9895 O   0  0  0  0  0  0  0  0  0  0  0  0
  2  1  1  6
  3  2  1  0
  4  5  1  0
  4  3  1  0
  6  7  1  0
  6  5  1  0
  8 15  1  0
  8  2  1  0
  9  8  2  0
 10 11  1  0
 12 11  1  0
 12 14  1  0
 12 13  1  6
 14 15  1  1
 16 14  1  0
 16 23  1  0
 17 16  2  0
 18 19  1  0
 19 20  1  0
 20 21  1  0
 22 21  1  1
 22 23  1  0
 22 24  1  0
 24 26  2  0
 24 25  1  0
M  END
$$$$
