KIM.pdb
     RDKit          3D

 26 25  0  0  1  0  0  0  0  0999 V2000
    7.8161  -16.2986   20.2791 N   0  0  0  0  0  0  0  0  0  0  0  0
    7.6236  -16.6491   21.6645 C   0  0  1  0  0  0  0  0  0  0  0  0
    8.0962  -18.0886   21.9332 C   0  0  0  0  0  0  0  0  0  0  0  0
    7.4552  -19.0392   20.9849 C   0  0  0  0  0  0  0  0  0  0  0  0
    6.3561  -19.8772   21.5155 C   0  0  0  0  0  0  0  0  0  0  0  0
    5.7854  -20.9079   20.6128 C   0  0  0  0  0  0  0  0  0  0  0  0
    6.3588  -22.2116   20.6938 N   0  0  0  0  0  0  0  0  0  0  0  0
    8.3882  -15.6936   22.5049 C   0  0  0  0  0  0  0  0  0  0  0  0
    9.4469  -15.1597   22.0848 O   0  0  0  0  0  0  0  0  0  0  0  0
    5.5064  -12.2826   25.6648 C   0  0  0  0  0  0  0  0  0  0  0  0
    6.5717  -12.8166   24.7169 C   0  0  0  0  0  0  0  0  0  0  0  0
    7.6436  -13.5670   25.4611 C   0  0  2  0  0  0  0  0  0  0  0  0
    8.3123  -12.6804   26.4917 C   0  0  0  0  0  0  0  0  0  0  0  0
    8.6212  -14.2802   24.5968 C   0  0  2  0  0  0  0  0  0  0  0  0
    7.9759  -15.3300   23.8149 N   0  0  0  0  0  0  0  0  0  0  0  0
    9.8185  -14.8214   25.2407 C   0  0  0  0  0  0  0  0  0  0  0  0
   10.6626  -14.0115   25.7314 O   0  0  0  0  0  0  0  0  0  0  0  0
   11.4826  -15.2525   31.8161 C   0  0  0  0  0  0  0  0  0  0  0  0
   10.8535  -14.6550   30.2045 S   0  0  0  0  0  0  0  0  0  0  0  0
   11.0326  -15.9725   29.0072 C   0  0  0  0  0  0  0  0  0  0  0  0
   10.6501  -15.6706   27.6150 C   0  0  0  0  0  0  0  0  0  0  0  0
   10.8698  -16.7141   26.5626 C   0  0  2  0  0  0  0  0  0  0  0  0
   10.1256  -16.1877   25.3764 N   0  0  0  0  0  0  0  0  0  0  0  0
   10.3077  -18.0174   26.8783 C   0  0  0  0  0  0  0  0  0  0  0  0
    9.1183  -18.5262   26.3522 O   0  0  0  0  0  0  0  0  0  0  0  0
   10.9350  -18.7701   27.7063 O   0  0  0  0  0  0  0  0  0  0  0  0
  2  1  1  6
  3  2  1  0
  4  5  1  0
  4  3  1  0
  6  7  1  0
  6  5  1  0
  8 15  1  0
  8  2  1  0
  9  8  2  0
 10 11  1  0
 12 11  1  0
 12 14  1  0
 12 13  1  6
 14 15  1  1
 16 14  1  0
 16 23  1  0
 17 16  2  0
 18 19  1  0
 19 20  1  0
 20 21  1  0
 22 21  1  1
 22 23  1  0
 22 24  1  0
 24 26  2  0
 24 25  1  0
M  END
$$$$
