KIM.pdb
     RDKit          3D

 26 25  0  0  1  0  0  0  0  0999 V2000
    8.1633  -15.4913   19.6787 N   0  0  0  0  0  0  0  0  0  0  0  0
    7.6536  -16.1250   20.8693 C   0  0  1  0  0  0  0  0  0  0  0  0
    7.8625  -17.6482   20.8080 C   0  0  0  0  0  0  0  0  0  0  0  0
    7.3420  -18.2003   19.5281 C   0  0  0  0  0  0  0  0  0  0  0  0
    6.3176  -19.2648   19.6243 C   0  0  0  0  0  0  0  0  0  0  0  0
    5.8786  -19.9071   18.3602 C   0  0  0  0  0  0  0  0  0  0  0  0
    6.6481  -21.0221   17.9132 N   0  0  0  0  0  0  0  0  0  0  0  0
    8.3592  -15.5581   22.0460 C   0  0  0  0  0  0  0  0  0  0  0  0
    9.5684  -15.2180   21.9785 O   0  0  0  0  0  0  0  0  0  0  0  0
    5.5818  -12.4822   25.6053 C   0  0  0  0  0  0  0  0  0  0  0  0
    6.6698  -13.0273   24.6901 C   0  0  0  0  0  0  0  0  0  0  0  0
    7.4686  -14.1078   25.3686 C   0  0  2  0  0  0  0  0  0  0  0  0
    8.1431  -13.5815   26.6189 C   0  0  0  0  0  0  0  0  0  0  0  0
    8.4047  -14.8446   24.4786 C   0  0  2  0  0  0  0  0  0  0  0  0
    7.7204  -15.3683   23.3007 N   0  0  0  0  0  0  0  0  0  0  0  0
    9.2121  -15.9052   25.0821 C   0  0  0  0  0  0  0  0  0  0  0  0
    8.6182  -16.8825   25.6310 O   0  0  0  0  0  0  0  0  0  0  0  0
   10.7132  -13.0079   29.2648 C   0  0  0  0  0  0  0  0  0  0  0  0
   10.9243  -14.6507   30.0437 S   0  0  0  0  0  0  0  0  0  0  0  0
   11.3967  -15.8190   28.7736 C   0  0  0  0  0  0  0  0  0  0  0  0
   10.9890  -15.5081   27.3906 C   0  0  0  0  0  0  0  0  0  0  0  0
   11.3718  -16.4546   26.2941 C   0  0  2  0  0  0  0  0  0  0  0  0
   10.6182  -15.9479   25.1053 N   0  0  0  0  0  0  0  0  0  0  0  0
   10.9554  -17.8306   26.5118 C   0  0  0  0  0  0  0  0  0  0  0  0
   10.0278  -18.5209   25.7286 O   0  0  0  0  0  0  0  0  0  0  0  0
   11.4636  -18.4751   27.4978 O   0  0  0  0  0  0  0  0  0  0  0  0
  2  1  1  6
  3  2  1  0
  4  5  1  0
  4  3  1  0
  6  7  1  0
  6  5  1  0
  8 15  1  0
  8  2  1  0
  9  8  2  0
 10 11  1  0
 12 11  1  0
 12 14  1  0
 12 13  1  1
 14 15  1  6
 16 14  1  0
 16 23  1  0
 17 16  2  0
 18 19  1  0
 19 20  1  0
 20 21  1  0
 22 21  1  1
 22 23  1  0
 22 24  1  0
 24 26  2  0
 24 25  1  0
M  END
$$$$
