KIM.pdb
     RDKit          3D

 26 25  0  0  1  0  0  0  0  0999 V2000
    7.6441  -19.5317   19.5723 N   0  0  0  0  0  0  0  0  0  0  0  0
    6.9315  -18.7858   20.5797 C   0  0  1  0  0  0  0  0  0  0  0  0
    6.6298  -19.6709   21.8017 C   0  0  0  0  0  0  0  0  0  0  0  0
    5.7652  -20.8199   21.4194 C   0  0  0  0  0  0  0  0  0  0  0  0
    5.3572  -21.7420   22.5034 C   0  0  0  0  0  0  0  0  0  0  0  0
    4.5877  -22.9515   22.1185 C   0  0  0  0  0  0  0  0  0  0  0  0
    4.1642  -23.8010   23.1834 N   0  0  0  0  0  0  0  0  0  0  0  0
    7.7611  -17.6223   20.9822 C   0  0  0  0  0  0  0  0  0  0  0  0
    9.0128  -17.7134   21.0669 O   0  0  0  0  0  0  0  0  0  0  0  0
    6.9375  -12.6480   19.1372 C   0  0  0  0  0  0  0  0  0  0  0  0
    7.6337  -13.8844   19.6891 C   0  0  0  0  0  0  0  0  0  0  0  0
    7.5377  -13.9455   21.1901 C   0  0  2  0  0  0  0  0  0  0  0  0
    8.1999  -12.7408   21.8268 C   0  0  0  0  0  0  0  0  0  0  0  0
    7.9828  -15.2302   21.7926 C   0  0  2  0  0  0  0  0  0  0  0  0
    7.1991  -16.3546   21.2912 N   0  0  0  0  0  0  0  0  0  0  0  0
    8.0523  -15.2999   23.2524 C   0  0  0  0  0  0  0  0  0  0  0  0
    6.9775  -15.4717   23.9038 O   0  0  0  0  0  0  0  0  0  0  0  0
    7.1932  -10.5839   26.4748 C   0  0  0  0  0  0  0  0  0  0  0  0
    6.4039  -12.1469   27.0080 S   0  0  0  0  0  0  0  0  0  0  0  0
    7.6274  -13.4501   26.9303 C   0  0  0  0  0  0  0  0  0  0  0  0
    8.0642  -13.8814   25.5891 C   0  0  0  0  0  0  0  0  0  0  0  0
    9.1910  -14.8624   25.4766 C   0  0  2  0  0  0  0  0  0  0  0  0
    9.2275  -15.1992   24.0195 N   0  0  0  0  0  0  0  0  0  0  0  0
    8.9826  -16.1064   26.1998 C   0  0  0  0  0  0  0  0  0  0  0  0
    9.1082  -16.2609   27.5820 O   0  0  0  0  0  0  0  0  0  0  0  0
    8.6638  -17.1555   25.5337 O   0  0  0  0  0  0  0  0  0  0  0  0
  2  1  1  6
  3  2  1  0
  4  5  1  0
  4  3  1  0
  6  7  1  0
  6  5  1  0
  8 15  1  0
  8  2  1  0
  9  8  2  0
 10 11  1  0
 12 11  1  0
 12 14  1  0
 12 13  1  1
 14 15  1  1
 16 14  1  0
 16 23  1  0
 17 16  2  0
 18 19  1  0
 19 20  1  0
 20 21  1  0
 22 21  1  6
 22 23  1  0
 22 24  1  0
 24 26  2  0
 24 25  1  0
M  END
$$$$
