KIM.pdb
     RDKit          3D

 26 25  0  0  1  0  0  0  0  0999 V2000
    6.8474  -16.7962   21.4189 N   0  0  0  0  0  0  0  0  0  0  0  0
    6.3614  -16.7156   22.7740 C   0  0  1  0  0  0  0  0  0  0  0  0
    6.0156  -18.1147   23.3131 C   0  0  0  0  0  0  0  0  0  0  0  0
    6.3049  -19.1586   22.2931 C   0  0  0  0  0  0  0  0  0  0  0  0
    6.9859  -20.3859   22.7642 C   0  0  0  0  0  0  0  0  0  0  0  0
    7.2059  -21.4687   21.7730 C   0  0  0  0  0  0  0  0  0  0  0  0
    8.1758  -21.2141   20.7583 N   0  0  0  0  0  0  0  0  0  0  0  0
    7.4100  -16.0869   23.6161 C   0  0  0  0  0  0  0  0  0  0  0  0
    8.6263  -16.1590   23.3032 O   0  0  0  0  0  0  0  0  0  0  0  0
    6.2072  -11.5503   26.2401 C   0  0  0  0  0  0  0  0  0  0  0  0
    7.0640  -12.5454   25.4695 C   0  0  0  0  0  0  0  0  0  0  0  0
    7.6410  -13.5955   26.3808 C   0  0  2  0  0  0  0  0  0  0  0  0
    8.6765  -12.9983   27.3115 C   0  0  0  0  0  0  0  0  0  0  0  0
    8.1268  -14.8210   25.6926 C   0  0  2  0  0  0  0  0  0  0  0  0
    7.1071  -15.3763   24.8084 N   0  0  0  0  0  0  0  0  0  0  0  0
    8.6775  -15.8881   26.5285 C   0  0  0  0  0  0  0  0  0  0  0  0
    7.9328  -16.4137   27.4108 O   0  0  0  0  0  0  0  0  0  0  0  0
   14.3936  -17.8932   24.8348 C   0  0  0  0  0  0  0  0  0  0  0  0
   13.0981  -19.1576   24.5638 S   0  0  0  0  0  0  0  0  0  0  0  0
   11.5880  -18.5908   25.3381 C   0  0  0  0  0  0  0  0  0  0  0  0
   11.7060  -17.9934   26.6816 C   0  0  0  0  0  0  0  0  0  0  0  0
   10.4702  -17.4808   27.3558 C   0  0  2  0  0  0  0  0  0  0  0  0
    9.9836  -16.4034   26.4392 N   0  0  0  0  0  0  0  0  0  0  0  0
   10.7011  -16.8681   28.6541 C   0  0  0  0  0  0  0  0  0  0  0  0
   10.9607  -15.5123   28.8659 O   0  0  0  0  0  0  0  0  0  0  0  0
   10.6740  -17.6150   29.6968 O   0  0  0  0  0  0  0  0  0  0  0  0
  2  1  1  6
  3  2  1  0
  4  5  1  0
  4  3  1  0
  6  7  1  0
  6  5  1  0
  8 15  1  0
  8  2  1  0
  9  8  2  0
 10 11  1  0
 12 11  1  0
 12 14  1  0
 12 13  1  6
 14 15  1  1
 16 14  1  0
 16 23  1  0
 17 16  2  0
 18 19  1  0
 19 20  1  0
 20 21  1  0
 22 21  1  6
 22 23  1  0
 22 24  1  0
 24 26  2  0
 24 25  1  0
M  END
$$$$
