KIM.pdb
     RDKit          3D

 26 25  0  0  1  0  0  0  0  0999 V2000
    5.4670  -18.6411   22.7677 N   0  0  0  0  0  0  0  0  0  0  0  0
    5.9732  -18.2956   24.0729 C   0  0  1  0  0  0  0  0  0  0  0  0
    6.7388  -19.4784   24.6911 C   0  0  0  0  0  0  0  0  0  0  0  0
    5.8596  -20.6734   24.8050 C   0  0  0  0  0  0  0  0  0  0  0  0
    6.4095  -21.9594   24.3196 C   0  0  0  0  0  0  0  0  0  0  0  0
    5.5994  -23.1809   24.5533 C   0  0  0  0  0  0  0  0  0  0  0  0
    6.2340  -24.4276   24.2738 N   0  0  0  0  0  0  0  0  0  0  0  0
    6.8696  -17.1201   23.9367 C   0  0  0  0  0  0  0  0  0  0  0  0
    7.6421  -17.0011   22.9511 O   0  0  0  0  0  0  0  0  0  0  0  0
    5.2107  -12.5613   26.4477 C   0  0  0  0  0  0  0  0  0  0  0  0
    5.7911  -13.3918   25.3113 C   0  0  0  0  0  0  0  0  0  0  0  0
    7.2273  -13.7575   25.5754 C   0  0  2  0  0  0  0  0  0  0  0  0
    8.1196  -12.5347   25.5148 C   0  0  0  0  0  0  0  0  0  0  0  0
    7.7447  -14.8866   24.7576 C   0  0  2  0  0  0  0  0  0  0  0  0
    6.9081  -16.0742   24.8974 N   0  0  0  0  0  0  0  0  0  0  0  0
    9.1485  -15.2583   24.9363 C   0  0  0  0  0  0  0  0  0  0  0  0
   10.0369  -14.3656   24.7854 O   0  0  0  0  0  0  0  0  0  0  0  0
   10.1403  -14.6298   30.4447 C   0  0  0  0  0  0  0  0  0  0  0  0
   10.5640  -13.8520   28.8429 S   0  0  0  0  0  0  0  0  0  0  0  0
   11.4307  -15.0571   27.8441 C   0  0  0  0  0  0  0  0  0  0  0  0
   10.6536  -16.2160   27.3658 C   0  0  0  0  0  0  0  0  0  0  0  0
   10.9158  -16.7433   25.9882 C   0  0  2  0  0  0  0  0  0  0  0  0
    9.6165  -16.5413   25.2748 N   0  0  0  0  0  0  0  0  0  0  0  0
   11.2191  -18.1643   25.9335 C   0  0  0  0  0  0  0  0  0  0  0  0
   10.3654  -19.1474   25.4286 O   0  0  0  0  0  0  0  0  0  0  0  0
   12.3509  -18.5663   26.3844 O   0  0  0  0  0  0  0  0  0  0  0  0
  2  1  1  6
  3  2  1  0
  4  5  1  0
  4  3  1  0
  6  7  1  0
  6  5  1  0
  8 15  1  0
  8  2  1  0
  9  8  2  0
 10 11  1  0
 12 11  1  0
 12 14  1  0
 12 13  1  6
 14 15  1  1
 16 14  1  0
 16 23  1  0
 17 16  2  0
 18 19  1  0
 19 20  1  0
 20 21  1  0
 22 21  1  1
 22 23  1  0
 22 24  1  0
 24 26  2  0
 24 25  1  0
M  END
$$$$
