LGL.pdb
     RDKit          3D

 21 20  0  0  1  0  0  0  0  0999 V2000
    9.4704  -12.7018   19.0063 C   0  0  0  0  0  0  0  0  0  0  0  0
    8.2418  -13.4158   18.4667 C   0  0  2  0  0  0  0  0  0  0  0  0
    7.3822  -12.4285   17.7122 C   0  0  0  0  0  0  0  0  0  0  0  0
    7.4825  -14.1087   19.5707 C   0  0  0  0  0  0  0  0  0  0  0  0
    8.4337  -14.8955   20.4040 C   0  0  2  0  0  0  0  0  0  0  0  0
    8.8099  -16.1496   19.7872 N   0  0  0  0  0  0  0  0  0  0  0  0
    7.8633  -15.2361   21.7459 C   0  0  0  0  0  0  0  0  0  0  0  0
    7.4017  -14.3690   22.5316 O   0  0  0  0  0  0  0  0  0  0  0  0
    7.8254  -16.5923   22.1849 N   0  0  0  0  0  0  0  0  0  0  0  0
    7.2694  -16.9902   23.4492 C   0  0  0  0  0  0  0  0  0  0  0  0
    8.1048  -16.4108   24.5469 C   0  0  0  0  0  0  0  0  0  0  0  0
    9.3499  -16.3863   24.4185 O   0  0  0  0  0  0  0  0  0  0  0  0
    5.9009  -12.4418   27.5053 C   0  0  0  0  0  0  0  0  0  0  0  0
    6.9764  -13.1565   26.7370 C   0  0  1  0  0  0  0  0  0  0  0  0
    7.9880  -12.1731   26.1756 C   0  0  0  0  0  0  0  0  0  0  0  0
    7.5655  -14.2903   27.4397 C   0  0  0  0  0  0  0  0  0  0  0  0
    8.4007  -15.3055   26.7904 C   0  0  2  0  0  0  0  0  0  0  0  0
    7.5338  -15.8883   25.7284 N   0  0  0  0  0  0  0  0  0  0  0  0
    9.0405  -16.3519   27.5567 C   0  0  0  0  0  0  0  0  0  0  0  0
   10.1375  -15.9576   28.3713 O   0  0  0  0  0  0  0  0  0  0  0  0
    8.7860  -17.5637   27.6230 O   0  0  0  0  0  0  0  0  0  0  0  0
  2  1  1  1
  3  2  1  0
  4  2  1  0
  5  4  1  0
  5  6  1  6
  7  5  1  0
  7  8  2  0
  9  7  1  0
 10  9  1  0
 10 11  1  0
 11 18  1  0
 12 11  2  0
 14 15  1  1
 14 13  1  0
 16 14  1  0
 17 16  1  1
 18 17  1  0
 19 20  1  0
 19 17  1  0
 21 19  2  0
M  END
$$$$
