LGL.pdb
     RDKit          3D

 21 20  0  0  1  0  0  0  0  0999 V2000
    6.9668  -13.3304   19.1165 C   0  0  0  0  0  0  0  0  0  0  0  0
    7.4374  -13.8672   20.4585 C   0  0  2  0  0  0  0  0  0  0  0  0
    7.4306  -12.7481   21.4735 C   0  0  0  0  0  0  0  0  0  0  0  0
    8.7899  -14.5249   20.3411 C   0  0  0  0  0  0  0  0  0  0  0  0
    8.8662  -15.6673   21.2936 C   0  0  2  0  0  0  0  0  0  0  0  0
    8.0402  -15.4721   22.4659 N   0  0  0  0  0  0  0  0  0  0  0  0
   10.2599  -15.8991   21.7894 C   0  0  0  0  0  0  0  0  0  0  0  0
   11.2520  -15.9874   21.0211 O   0  0  0  0  0  0  0  0  0  0  0  0
   10.5106  -16.0302   23.1870 N   0  0  0  0  0  0  0  0  0  0  0  0
   11.8235  -16.2493   23.7293 C   0  0  0  0  0  0  0  0  0  0  0  0
   11.7219  -16.3302   25.2200 C   0  0  0  0  0  0  0  0  0  0  0  0
   12.7616  -16.5091   25.8940 O   0  0  0  0  0  0  0  0  0  0  0  0
   11.1330  -13.6529   27.8089 C   0  0  0  0  0  0  0  0  0  0  0  0
    9.7689  -14.1046   28.2482 C   0  0  1  0  0  0  0  0  0  0  0  0
    8.7162  -13.0649   27.9074 C   0  0  0  0  0  0  0  0  0  0  0  0
    9.4259  -15.4631   27.8441 C   0  0  0  0  0  0  0  0  0  0  0  0
   10.4069  -16.4418   27.3649 C   0  0  2  0  0  0  0  0  0  0  0  0
   10.4872  -16.2110   25.8954 N   0  0  0  0  0  0  0  0  0  0  0  0
   10.2607  -17.8518   27.6516 C   0  0  0  0  0  0  0  0  0  0  0  0
    9.9869  -18.6970   26.5410 O   0  0  0  0  0  0  0  0  0  0  0  0
   10.3359  -18.4604   28.7293 O   0  0  0  0  0  0  0  0  0  0  0  0
  2  1  1  6
  3  2  1  0
  4  2  1  0
  5  4  1  0
  5  6  1  1
  7  5  1  0
  7  8  2  0
  9  7  1  0
 10  9  1  0
 10 11  1  0
 11 18  1  0
 12 11  2  0
 14 15  1  6
 14 13  1  0
 16 14  1  0
 17 16  1  6
 18 17  1  0
 19 20  1  0
 19 17  1  0
 21 19  2  0
M  END
$$$$
