LGL.pdb
     RDKit          3D

 21 20  0  0  1  0  0  0  0  0999 V2000
    9.5630  -12.5179   19.6770 C   0  0  0  0  0  0  0  0  0  0  0  0
    8.2632  -13.2337   19.3474 C   0  0  2  0  0  0  0  0  0  0  0  0
    7.1922  -12.2107   19.0488 C   0  0  0  0  0  0  0  0  0  0  0  0
    7.8614  -14.1760   20.4547 C   0  0  0  0  0  0  0  0  0  0  0  0
    9.0809  -14.8101   21.0286 C   0  0  2  0  0  0  0  0  0  0  0  0
    9.5749  -15.9029   20.2184 N   0  0  0  0  0  0  0  0  0  0  0  0
    8.8379  -15.3704   22.3957 C   0  0  0  0  0  0  0  0  0  0  0  0
    8.3756  -14.6836   23.3427 O   0  0  0  0  0  0  0  0  0  0  0  0
    9.1319  -16.7381   22.6720 N   0  0  0  0  0  0  0  0  0  0  0  0
    8.8681  -17.3537   23.9437 C   0  0  0  0  0  0  0  0  0  0  0  0
    9.9444  -16.9563   24.9041 C   0  0  0  0  0  0  0  0  0  0  0  0
   11.1136  -16.8056   24.4826 O   0  0  0  0  0  0  0  0  0  0  0  0
    9.0829  -13.3439   28.7753 C   0  0  0  0  0  0  0  0  0  0  0  0
    9.6812  -14.1765   27.6768 C   0  0  1  0  0  0  0  0  0  0  0  0
   10.5908  -13.3399   26.7947 C   0  0  0  0  0  0  0  0  0  0  0  0
   10.2685  -15.4332   28.1263 C   0  0  0  0  0  0  0  0  0  0  0  0
   10.8017  -16.4533   27.2181 C   0  0  2  0  0  0  0  0  0  0  0  0
    9.6849  -16.7445   26.2762 N   0  0  0  0  0  0  0  0  0  0  0  0
   11.3748  -17.6812   27.7234 C   0  0  0  0  0  0  0  0  0  0  0  0
   10.5191  -18.8169   27.7418 O   0  0  0  0  0  0  0  0  0  0  0  0
   12.5144  -17.9138   28.1534 O   0  0  0  0  0  0  0  0  0  0  0  0
  2  1  1  1
  3  2  1  0
  4  2  1  0
  5  4  1  0
  5  6  1  6
  7  5  1  0
  7  8  2  0
  9  7  1  0
 10  9  1  0
 10 11  1  0
 11 18  1  0
 12 11  2  0
 14 15  1  1
 14 13  1  0
 16 14  1  0
 17 16  1  1
 18 17  1  0
 19 20  1  0
 19 17  1  0
 21 19  2  0
M  END
$$$$
