LGL.pdb
     RDKit          3D

 21 20  0  0  1  0  0  0  0  0999 V2000
    6.0142  -13.2776   26.5384 C   0  0  0  0  0  0  0  0  0  0  0  0
    6.9256  -13.0579   25.3420 C   0  0  2  0  0  0  0  0  0  0  0  0
    7.3460  -11.6074   25.2949 C   0  0  0  0  0  0  0  0  0  0  0  0
    6.2649  -13.5039   24.0614 C   0  0  0  0  0  0  0  0  0  0  0  0
    6.6112  -14.9285   23.7988 C   0  0  2  0  0  0  0  0  0  0  0  0
    6.4381  -15.7685   24.9646 N   0  0  0  0  0  0  0  0  0  0  0  0
    8.0341  -15.0943   23.3630 C   0  0  0  0  0  0  0  0  0  0  0  0
    8.4777  -14.6206   22.2854 O   0  0  0  0  0  0  0  0  0  0  0  0
    8.9544  -15.8146   24.1801 N   0  0  0  0  0  0  0  0  0  0  0  0
   10.3275  -16.0265   23.8123 C   0  0  0  0  0  0  0  0  0  0  0  0
   11.0548  -16.6122   24.9814 C   0  0  0  0  0  0  0  0  0  0  0  0
   12.2730  -16.8790   24.8714 O   0  0  0  0  0  0  0  0  0  0  0  0
    9.1266  -14.2730   28.8874 C   0  0  0  0  0  0  0  0  0  0  0  0
   10.2823  -14.7945   28.0810 C   0  0  1  0  0  0  0  0  0  0  0  0
   11.4203  -13.7898   28.0496 C   0  0  0  0  0  0  0  0  0  0  0  0
   10.6883  -16.1532   28.4206 C   0  0  0  0  0  0  0  0  0  0  0  0
   11.2102  -17.1147   27.4443 C   0  0  2  0  0  0  0  0  0  0  0  0
   10.4105  -16.8754   26.2105 N   0  0  0  0  0  0  0  0  0  0  0  0
   11.2732  -18.5281   27.7441 C   0  0  0  0  0  0  0  0  0  0  0  0
   12.1244  -18.9086   28.8181 O   0  0  0  0  0  0  0  0  0  0  0  0
   10.6955  -19.4854   27.2082 O   0  0  0  0  0  0  0  0  0  0  0  0
  2  1  1  1
  3  2  1  0
  4  2  1  0
  5  4  1  0
  5  6  1  1
  7  5  1  0
  7  8  2  0
  9  7  1  0
 10  9  1  0
 10 11  1  0
 11 18  1  0
 12 11  2  0
 14 15  1  1
 14 13  1  0
 16 14  1  0
 17 16  1  1
 18 17  1  0
 19 20  1  0
 19 17  1  0
 21 19  2  0
M  END
$$$$
