LGL.pdb
     RDKit          3D

 21 20  0  0  1  0  0  0  0  0999 V2000
    3.8896  -19.9855   20.5789 C   0  0  0  0  0  0  0  0  0  0  0  0
    3.6350  -18.6627   21.2829 C   0  0  2  0  0  0  0  0  0  0  0  0
    2.2403  -18.1832   20.9548 C   0  0  0  0  0  0  0  0  0  0  0  0
    4.6886  -17.6427   20.9291 C   0  0  0  0  0  0  0  0  0  0  0  0
    6.0275  -18.1592   21.3277 C   0  0  2  0  0  0  0  0  0  0  0  0
    6.0581  -18.6327   22.6951 N   0  0  0  0  0  0  0  0  0  0  0  0
    7.0939  -17.1141   21.2158 C   0  0  0  0  0  0  0  0  0  0  0  0
    7.2378  -16.3920   20.1960 O   0  0  0  0  0  0  0  0  0  0  0  0
    8.0037  -16.9007   22.2930 N   0  0  0  0  0  0  0  0  0  0  0  0
    9.0093  -15.8740   22.2761 C   0  0  0  0  0  0  0  0  0  0  0  0
    9.1743  -15.3381   23.6633 C   0  0  0  0  0  0  0  0  0  0  0  0
   10.1618  -14.6144   23.9248 O   0  0  0  0  0  0  0  0  0  0  0  0
    5.5284  -12.8619   26.3775 C   0  0  0  0  0  0  0  0  0  0  0  0
    6.9158  -13.2703   25.9697 C   0  0  1  0  0  0  0  0  0  0  0  0
    7.8881  -12.1135   26.1169 C   0  0  0  0  0  0  0  0  0  0  0  0
    7.3738  -14.5207   26.5638 C   0  0  0  0  0  0  0  0  0  0  0  0
    8.5560  -15.2556   26.1033 C   0  0  2  0  0  0  0  0  0  0  0  0
    8.2496  -15.6225   24.6924 N   0  0  0  0  0  0  0  0  0  0  0  0
    9.0567  -16.4013   26.8300 C   0  0  0  0  0  0  0  0  0  0  0  0
    9.7930  -16.1252   28.0150 O   0  0  0  0  0  0  0  0  0  0  0  0
    8.9485  -17.6123   26.5862 O   0  0  0  0  0  0  0  0  0  0  0  0
  2  1  1  6
  3  2  1  0
  4  2  1  0
  5  4  1  0
  5  6  1  1
  7  5  1  0
  7  8  2  0
  9  7  1  0
 10  9  1  0
 10 11  1  0
 11 18  1  0
 12 11  2  0
 14 15  1  1
 14 13  1  0
 16 14  1  0
 17 16  1  1
 18 17  1  0
 19 20  1  0
 19 17  1  0
 21 19  2  0
M  END
$$$$
