LGL.pdb
     RDKit          3D

 21 20  0  0  1  0  0  0  0  0999 V2000
    9.5834  -13.0033   18.9533 C   0  0  0  0  0  0  0  0  0  0  0  0
    8.2557  -13.5094   18.4133 C   0  0  2  0  0  0  0  0  0  0  0  0
    7.5323  -12.3754   17.7251 C   0  0  0  0  0  0  0  0  0  0  0  0
    7.4256  -14.1393   19.5040 C   0  0  0  0  0  0  0  0  0  0  0  0
    8.2800  -15.0613   20.3029 C   0  0  2  0  0  0  0  0  0  0  0  0
    8.4919  -16.3340   19.6471 N   0  0  0  0  0  0  0  0  0  0  0  0
    7.6848  -15.3671   21.6423 C   0  0  0  0  0  0  0  0  0  0  0  0
    7.4393  -14.4794   22.4991 O   0  0  0  0  0  0  0  0  0  0  0  0
    7.3696  -16.7121   21.9960 N   0  0  0  0  0  0  0  0  0  0  0  0
    6.7027  -17.0636   23.2197 C   0  0  0  0  0  0  0  0  0  0  0  0
    7.5506  -16.6279   24.3730 C   0  0  0  0  0  0  0  0  0  0  0  0
    8.7958  -16.6147   24.2446 O   0  0  0  0  0  0  0  0  0  0  0  0
    5.8423  -12.5661   27.2198 C   0  0  0  0  0  0  0  0  0  0  0  0
    6.9091  -13.4217   26.5969 C   0  0  1  0  0  0  0  0  0  0  0  0
    8.1366  -12.5963   26.2544 C   0  0  0  0  0  0  0  0  0  0  0  0
    7.1953  -14.6519   27.3256 C   0  0  0  0  0  0  0  0  0  0  0  0
    7.8716  -15.8102   26.7333 C   0  0  2  0  0  0  0  0  0  0  0  0
    6.9910  -16.2293   25.6071 N   0  0  0  0  0  0  0  0  0  0  0  0
    8.2470  -16.9516   27.5381 C   0  0  0  0  0  0  0  0  0  0  0  0
    9.4128  -16.8037   28.3390 O   0  0  0  0  0  0  0  0  0  0  0  0
    7.7091  -18.0634   27.6485 O   0  0  0  0  0  0  0  0  0  0  0  0
  2  1  1  1
  3  2  1  0
  4  2  1  0
  5  4  1  0
  5  6  1  6
  7  5  1  0
  7  8  2  0
  9  7  1  0
 10  9  1  0
 10 11  1  0
 11 18  1  0
 12 11  2  0
 14 15  1  1
 14 13  1  0
 16 14  1  0
 17 16  1  1
 18 17  1  0
 19 20  1  0
 19 17  1  0
 21 19  2  0
M  END
$$$$
