LGL.pdb
     RDKit          3D

 21 20  0  0  1  0  0  0  0  0999 V2000
    3.2935  -20.7663   21.4340 C   0  0  0  0  0  0  0  0  0  0  0  0
    2.7833  -19.3350   21.3940 C   0  0  2  0  0  0  0  0  0  0  0  0
    1.6414  -19.2398   20.4091 C   0  0  0  0  0  0  0  0  0  0  0  0
    3.8951  -18.3663   21.0763 C   0  0  0  0  0  0  0  0  0  0  0  0
    4.9734  -18.5030   22.0946 C   0  0  2  0  0  0  0  0  0  0  0  0
    4.5422  -18.1109   23.4194 N   0  0  0  0  0  0  0  0  0  0  0  0
    6.1687  -17.6616   21.7702 C   0  0  0  0  0  0  0  0  0  0  0  0
    7.1168  -18.0706   21.0518 O   0  0  0  0  0  0  0  0  0  0  0  0
    6.2701  -16.3340   22.2807 N   0  0  0  0  0  0  0  0  0  0  0  0
    7.3589  -15.4528   21.9584 C   0  0  0  0  0  0  0  0  0  0  0  0
    8.1076  -15.1326   23.2136 C   0  0  0  0  0  0  0  0  0  0  0  0
    9.3097  -14.7914   23.1373 O   0  0  0  0  0  0  0  0  0  0  0  0
    5.4676  -12.5200   26.8601 C   0  0  0  0  0  0  0  0  0  0  0  0
    6.7315  -12.8597   26.1219 C   0  0  1  0  0  0  0  0  0  0  0  0
    7.6687  -11.6661   26.0712 C   0  0  0  0  0  0  0  0  0  0  0  0
    7.3627  -14.1025   26.5499 C   0  0  0  0  0  0  0  0  0  0  0  0
    8.2835  -14.8781   25.7130 C   0  0  2  0  0  0  0  0  0  0  0  0
    7.5013  -15.2025   24.4874 N   0  0  0  0  0  0  0  0  0  0  0  0
    8.9454  -16.0590   26.2220 C   0  0  0  0  0  0  0  0  0  0  0  0
    9.9060  -15.8510   27.2498 O   0  0  0  0  0  0  0  0  0  0  0  0
    8.8116  -17.2500   25.9039 O   0  0  0  0  0  0  0  0  0  0  0  0
  2  1  1  6
  3  2  1  0
  4  2  1  0
  5  4  1  0
  5  6  1  1
  7  5  1  0
  7  8  2  0
  9  7  1  0
 10  9  1  0
 10 11  1  0
 11 18  1  0
 12 11  2  0
 14 15  1  1
 14 13  1  0
 16 14  1  0
 17 16  1  1
 18 17  1  0
 19 20  1  0
 19 17  1  0
 21 19  2  0
M  END
$$$$
