LGL.pdb
     RDKit          3D

 21 20  0  0  1  0  0  0  0  0999 V2000
    9.3802  -13.2931   18.7579 C   0  0  0  0  0  0  0  0  0  0  0  0
    7.9183  -13.6207   18.5008 C   0  0  2  0  0  0  0  0  0  0  0  0
    7.2447  -12.4285   17.8623 C   0  0  0  0  0  0  0  0  0  0  0  0
    7.2250  -14.0595   19.7667 C   0  0  0  0  0  0  0  0  0  0  0  0
    8.0390  -15.1133   20.4340 C   0  0  2  0  0  0  0  0  0  0  0  0
    7.9583  -16.3911   19.7591 N   0  0  0  0  0  0  0  0  0  0  0  0
    7.6076  -15.3515   21.8479 C   0  0  0  0  0  0  0  0  0  0  0  0
    7.5003  -14.4267   22.6939 O   0  0  0  0  0  0  0  0  0  0  0  0
    7.2970  -16.6713   22.2895 N   0  0  0  0  0  0  0  0  0  0  0  0
    6.8252  -16.9619   23.6157 C   0  0  0  0  0  0  0  0  0  0  0  0
    7.8471  -16.4950   24.6039 C   0  0  0  0  0  0  0  0  0  0  0  0
    9.0619  -16.5885   24.3163 O   0  0  0  0  0  0  0  0  0  0  0  0
    6.4492  -13.3112   25.7008 C   0  0  0  0  0  0  0  0  0  0  0  0
    7.4397  -13.0861   26.8081 C   0  0  1  0  0  0  0  0  0  0  0  0
    6.9621  -11.9962   27.7512 C   0  0  0  0  0  0  0  0  0  0  0  0
    7.8855  -14.3046   27.4735 C   0  0  0  0  0  0  0  0  0  0  0  0
    8.5305  -15.4225   26.7777 C   0  0  2  0  0  0  0  0  0  0  0  0
    7.4859  -15.9498   25.8559 N   0  0  0  0  0  0  0  0  0  0  0  0
    9.1547  -16.5018   27.5106 C   0  0  0  0  0  0  0  0  0  0  0  0
    8.4360  -17.7280   27.5632 O   0  0  0  0  0  0  0  0  0  0  0  0
   10.2369  -16.5368   28.1148 O   0  0  0  0  0  0  0  0  0  0  0  0
  2  1  1  1
  3  2  1  0
  4  2  1  0
  5  4  1  0
  5  6  1  6
  7  5  1  0
  7  8  2  0
  9  7  1  0
 10  9  1  0
 10 11  1  0
 11 18  1  0
 12 11  2  0
 14 15  1  1
 14 13  1  0
 16 14  1  0
 17 16  1  1
 18 17  1  0
 19 20  1  0
 19 17  1  0
 21 19  2  0
M  END
$$$$
