LGL.pdb
     RDKit          3D

 21 20  0  0  1  0  0  0  0  0999 V2000
    9.3290  -13.0180   19.1621 C   0  0  0  0  0  0  0  0  0  0  0  0
    8.4848  -13.8202   18.1853 C   0  0  2  0  0  0  0  0  0  0  0  0
    7.7329  -12.8723   17.2803 C   0  0  0  0  0  0  0  0  0  0  0  0
    7.5642  -14.7706   18.9097 C   0  0  0  0  0  0  0  0  0  0  0  0
    8.2790  -15.3528   20.0796 C   0  0  2  0  0  0  0  0  0  0  0  0
    8.7365  -16.7044   19.8372 N   0  0  0  0  0  0  0  0  0  0  0  0
    7.4145  -15.4092   21.3007 C   0  0  0  0  0  0  0  0  0  0  0  0
    6.9255  -14.3829   21.8391 O   0  0  0  0  0  0  0  0  0  0  0  0
    7.1115  -16.6640   21.9066 N   0  0  0  0  0  0  0  0  0  0  0  0
    6.3529  -16.7834   23.1216 C   0  0  0  0  0  0  0  0  0  0  0  0
    6.8320  -15.7505   24.0923 C   0  0  0  0  0  0  0  0  0  0  0  0
    6.5183  -14.5518   23.9128 O   0  0  0  0  0  0  0  0  0  0  0  0
    6.0686  -12.2578   27.6296 C   0  0  0  0  0  0  0  0  0  0  0  0
    7.3486  -12.9575   27.2689 C   0  0  1  0  0  0  0  0  0  0  0  0
    8.2231  -13.1565   28.4940 C   0  0  0  0  0  0  0  0  0  0  0  0
    7.1711  -14.1546   26.4554 C   0  0  0  0  0  0  0  0  0  0  0  0
    8.2766  -15.0134   26.0190 C   0  0  2  0  0  0  0  0  0  0  0  0
    7.6297  -16.0834   25.2094 N   0  0  0  0  0  0  0  0  0  0  0  0
    9.2028  -15.5851   26.9713 C   0  0  0  0  0  0  0  0  0  0  0  0
   10.4608  -14.9339   27.0979 O   0  0  0  0  0  0  0  0  0  0  0  0
    9.0798  -16.5713   27.7128 O   0  0  0  0  0  0  0  0  0  0  0  0
  2  1  1  1
  3  2  1  0
  4  2  1  0
  5  4  1  0
  5  6  1  6
  7  5  1  0
  7  8  2  0
  9  7  1  0
 10  9  1  0
 10 11  1  0
 11 18  1  0
 12 11  2  0
 14 15  1  1
 14 13  1  0
 16 14  1  0
 17 16  1  1
 18 17  1  0
 19 20  1  0
 19 17  1  0
 21 19  2  0
M  END
$$$$
