LGL.pdb
     RDKit          3D

 21 20  0  0  1  0  0  0  0  0999 V2000
  -30.4235  -62.4358   56.7748 C   0  0  0  0  0  0  0  0  0  0  0  0
  -30.1222  -61.8574   55.4019 C   0  0  2  0  0  0  0  0  0  0  0  0
  -31.1160  -62.4016   54.4023 C   0  0  0  0  0  0  0  0  0  0  0  0
  -28.6951  -62.1280   54.9951 C   0  0  0  0  0  0  0  0  0  0  0  0
  -27.7804  -61.2934   55.8229 C   0  0  2  0  0  0  0  0  0  0  0  0
  -26.4488  -61.8523   55.9184 N   0  0  0  0  0  0  0  0  0  0  0  0
  -28.2756  -61.1326   57.2268 C   0  0  0  0  0  0  0  0  0  0  0  0
  -28.3523  -60.0155   57.8000 O   0  0  0  0  0  0  0  0  0  0  0  0
  -28.6864  -62.2739   57.9767 N   0  0  0  0  0  0  0  0  0  0  0  0
  -28.6482  -62.3218   59.4127 C   0  0  0  0  0  0  0  0  0  0  0  0
  -27.2652  -62.6942   59.8458 C   0  0  0  0  0  0  0  0  0  0  0  0
  -27.1029  -63.2584   60.9516 O   0  0  0  0  0  0  0  0  0  0  0  0
  -24.9458  -62.1538   56.3678 C   0  0  0  0  0  0  0  0  0  0  0  0
  -24.8470  -60.9304   57.2348 C   0  0  1  0  0  0  0  0  0  0  0  0
  -26.1755  -60.1976   57.2940 C   0  0  0  0  0  0  0  0  0  0  0  0
  -24.2295  -61.1629   58.5351 C   0  0  0  0  0  0  0  0  0  0  0  0
  -24.9061  -61.8349   59.6489 C   0  0  2  0  0  0  0  0  0  0  0  0
  -26.1316  -62.4295   59.0458 N   0  0  0  0  0  0  0  0  0  0  0  0
  -25.2306  -61.1256   60.8667 C   0  0  0  0  0  0  0  0  0  0  0  0
  -25.6963  -61.9163   61.9532 O   0  0  0  0  0  0  0  0  0  0  0  0
  -25.1690  -59.9148   61.1271 O   0  0  0  0  0  0  0  0  0  0  0  0
  2  1  1  1
  3  2  1  0
  4  2  1  0
  5  4  1  0
  5  6  1  1
  7  5  1  0
  7  8  2  0
  9  7  1  0
 10  9  1  0
 10 11  1  0
 11 18  1  0
 12 11  2  0
 14 15  1  1
 14 13  1  0
 16 14  1  0
 17 16  1  6
 18 17  1  0
 19 20  1  0
 19 17  1  0
 21 19  2  0
M  END
$$$$
