LGL.pdb
     RDKit          3D

 21 20  0  0  1  0  0  0  0  0999 V2000
    6.9816  -22.7669   20.8697 C   0  0  0  0  0  0  0  0  0  0  0  0
    6.7472  -21.7495   21.9743 C   0  0  2  0  0  0  0  0  0  0  0  0
    5.5067  -22.1304   22.7483 C   0  0  0  0  0  0  0  0  0  0  0  0
    6.6682  -20.3486   21.4204 C   0  0  0  0  0  0  0  0  0  0  0  0
    6.9113  -19.3709   22.5174 C   0  0  2  0  0  0  0  0  0  0  0  0
    5.6918  -18.9646   23.1826 N   0  0  0  0  0  0  0  0  0  0  0  0
    7.5644  -18.1171   22.0240 C   0  0  0  0  0  0  0  0  0  0  0  0
    8.6816  -18.1112   21.4460 O   0  0  0  0  0  0  0  0  0  0  0  0
    6.9206  -16.8569   22.2000 N   0  0  0  0  0  0  0  0  0  0  0  0
    7.4524  -15.6272   21.6798 C   0  0  0  0  0  0  0  0  0  0  0  0
    8.2262  -14.9411   22.7611 C   0  0  0  0  0  0  0  0  0  0  0  0
    8.6734  -13.7900   22.5556 O   0  0  0  0  0  0  0  0  0  0  0  0
    7.9709  -11.8589   26.4947 C   0  0  0  0  0  0  0  0  0  0  0  0
    7.0419  -13.0365   26.4049 C   0  0  1  0  0  0  0  0  0  0  0  0
    5.5916  -12.5890   26.4455 C   0  0  0  0  0  0  0  0  0  0  0  0
    7.3541  -13.9683   25.3275 C   0  0  0  0  0  0  0  0  0  0  0  0
    8.6096  -14.7206   25.2404 C   0  0  2  0  0  0  0  0  0  0  0  0
    8.4704  -15.5510   24.0115 N   0  0  0  0  0  0  0  0  0  0  0  0
    9.0805  -15.5239   26.3470 C   0  0  0  0  0  0  0  0  0  0  0  0
   10.3489  -15.1739   26.8867 O   0  0  0  0  0  0  0  0  0  0  0  0
    8.5502  -16.4894   26.9165 O   0  0  0  0  0  0  0  0  0  0  0  0
  2  1  1  6
  3  2  1  0
  4  2  1  0
  5  4  1  0
  5  6  1  6
  7  5  1  0
  7  8  2  0
  9  7  1  0
 10  9  1  0
 10 11  1  0
 11 18  1  0
 12 11  2  0
 14 15  1  6
 14 13  1  0
 16 14  1  0
 17 16  1  1
 18 17  1  0
 19 20  1  0
 19 17  1  0
 21 19  2  0
M  END
$$$$
