HVC.pdb
     RDKit          3D

 24 24  0  0  1  0  0  0  0  0999 V2000
   28.1641  -23.2542  -17.8833 N   0  0  0  0  0  0  0  0  0  0  0  0
   27.1671  -23.5354  -16.8860 C   0  0  1  0  0  0  0  0  0  0  0  0
   27.7890  -24.4248  -15.8359 C   0  0  0  0  0  0  0  0  0  0  0  0
   27.7284  -25.8193  -16.3387 C   0  0  0  0  0  0  0  0  0  0  0  0
   27.1047  -26.2719  -17.5045 C   0  0  0  0  0  0  0  0  0  0  0  0
   27.2705  -27.5943  -17.6106 N   0  0  0  0  0  0  0  0  0  0  0  0
   27.9774  -28.0172  -16.5594 C   0  0  0  0  0  0  0  0  0  0  0  0
   28.2527  -26.9277  -15.7882 N   0  0  0  0  0  0  0  0  0  0  0  0
   26.5900  -22.2963  -16.3031 C   0  0  0  0  0  0  0  0  0  0  0  0
   27.2927  -21.2563  -16.2265 O   0  0  0  0  0  0  0  0  0  0  0  0
   23.8796  -20.3142  -17.6873 C   0  0  0  0  0  0  0  0  0  0  0  0
   24.6713  -19.9278  -16.4813 C   0  0  2  0  0  0  0  0  0  0  0  0
   26.0883  -19.5447  -16.8082 C   0  0  0  0  0  0  0  0  0  0  0  0
   24.6346  -20.9780  -15.3916 C   0  0  2  0  0  0  0  0  0  0  0  0
   25.2568  -22.2126  -15.8137 N   0  0  0  0  0  0  0  0  0  0  0  0
   23.2558  -21.1991  -14.8870 C   0  0  0  0  0  0  0  0  0  0  0  0
   22.4493  -21.9782  -15.4546 O   0  0  0  0  0  0  0  0  0  0  0  0
   22.7529  -20.5389  -13.7193 N   0  0  0  0  0  0  0  0  0  0  0  0
   21.3969  -20.7145  -13.2372 C   0  0  1  0  0  0  0  0  0  0  0  0
   21.2428  -20.3611  -11.7877 C   0  0  0  0  0  0  0  0  0  0  0  0
   19.5400  -20.8032  -11.3067 S   0  0  0  0  0  0  0  0  0  0  0  0
   20.4128  -20.0237  -14.1088 C   0  0  0  0  0  0  0  0  0  0  0  0
   19.2527  -20.6768  -14.4749 O   0  0  0  0  0  0  0  0  0  0  0  0
   20.5886  -18.8535  -14.5362 O   0  0  0  0  0  0  0  0  0  0  0  0
  2  1  1  6
  3  2  1  0
  4  3  1  0
  5  4  2  0
  6  7  1  0
  6  5  1  0
  7  8  2  0
  8  4  1  0
  9  2  1  0
  9 10  2  0
 12 11  1  6
 12 13  1  0
 12 14  1  0
 14 15  1  6
 14 16  1  0
 15  9  1  0
 16 17  2  0
 16 18  1  0
 18 19  1  0
 19 22  1  0
 19 20  1  1
 20 21  1  0
 22 24  2  0
 22 23  1  0
M  END
$$$$
