HVC.pdb
     RDKit          3D

 24 24  0  0  1  0  0  0  0  0999 V2000
   16.8955  -13.4030    4.7075 N   0  0  0  0  0  0  0  0  0  0  0  0
   17.2182  -13.1408    6.0840 C   0  0  1  0  0  0  0  0  0  0  0  0
   16.3352  -14.0089    6.9484 C   0  0  0  0  0  0  0  0  0  0  0  0
   14.9438  -13.5147    6.8036 C   0  0  0  0  0  0  0  0  0  0  0  0
   14.3374  -12.4743    7.5126 C   0  0  0  0  0  0  0  0  0  0  0  0
   13.0752  -12.3311    7.0957 N   0  0  0  0  0  0  0  0  0  0  0  0
   12.8391  -13.2378    6.1440 C   0  0  0  0  0  0  0  0  0  0  0  0
   13.9846  -13.9560    5.9719 N   0  0  0  0  0  0  0  0  0  0  0  0
   18.6617  -13.3452    6.3716 C   0  0  0  0  0  0  0  0  0  0  0  0
   19.3304  -14.1478    5.6715 O   0  0  0  0  0  0  0  0  0  0  0  0
   20.8388  -10.7715    9.1246 C   0  0  0  0  0  0  0  0  0  0  0  0
   21.4190  -11.4596    7.9327 C   0  0  2  0  0  0  0  0  0  0  0  0
   21.4194  -10.5974    6.7006 C   0  0  0  0  0  0  0  0  0  0  0  0
   20.7717  -12.7991    7.6531 C   0  0  2  0  0  0  0  0  0  0  0  0
   19.3513  -12.6710    7.4175 N   0  0  0  0  0  0  0  0  0  0  0  0
   21.0672  -13.7866    8.7219 C   0  0  0  0  0  0  0  0  0  0  0  0
   20.2602  -14.0294    9.6543 O   0  0  0  0  0  0  0  0  0  0  0  0
   22.2921  -14.5285    8.7612 N   0  0  0  0  0  0  0  0  0  0  0  0
   22.6043  -15.4790    9.8105 C   0  0  1  0  0  0  0  0  0  0  0  0
   23.2466  -16.7310    9.2912 C   0  0  0  0  0  0  0  0  0  0  0  0
   22.1379  -17.4111    8.0127 S   0  0  0  0  0  0  0  0  0  0  0  0
   23.3761  -14.8460   10.9100 C   0  0  0  0  0  0  0  0  0  0  0  0
   23.6032  -15.5514   12.0750 O   0  0  0  0  0  0  0  0  0  0  0  0
   23.8402  -13.6794   10.8292 O   0  0  0  0  0  0  0  0  0  0  0  0
  2  1  1  6
  3  2  1  0
  4  3  1  0
  5  4  2  0
  6  7  1  0
  6  5  1  0
  7  8  2  0
  8  4  1  0
  9  2  1  0
  9 10  2  0
 12 11  1  1
 12 13  1  0
 12 14  1  0
 14 15  1  1
 14 16  1  0
 15  9  1  0
 16 17  2  0
 16 18  1  0
 18 19  1  0
 19 22  1  0
 19 20  1  6
 20 21  1  0
 22 24  2  0
 22 23  1  0
M  END
$$$$
