HVC.pdb
     RDKit          3D

 24 24  0  0  1  0  0  0  0  0999 V2000
   18.9446  -12.2302  -18.5954 N   0  0  0  0  0  0  0  0  0  0  0  0
   20.0310  -11.2891  -18.6370 C   0  0  1  0  0  0  0  0  0  0  0  0
   19.7699  -10.3178  -19.7635 C   0  0  0  0  0  0  0  0  0  0  0  0
   19.9243  -11.0607  -21.0385 C   0  0  0  0  0  0  0  0  0  0  0  0
   19.0305  -11.0933  -22.1122 C   0  0  0  0  0  0  0  0  0  0  0  0
   19.5260  -11.8748  -23.0772 N   0  0  0  0  0  0  0  0  0  0  0  0
   20.7062  -12.3503  -22.6716 C   0  0  0  0  0  0  0  0  0  0  0  0
   20.9418  -11.8486  -21.4264 N   0  0  0  0  0  0  0  0  0  0  0  0
   20.2279  -10.6000  -17.3352 C   0  0  0  0  0  0  0  0  0  0  0  0
   19.2301  -10.1940  -16.6864 O   0  0  0  0  0  0  0  0  0  0  0  0
   22.8914   -9.8625  -13.2773 C   0  0  0  0  0  0  0  0  0  0  0  0
   22.6751  -10.4988  -14.6112 C   0  0  2  0  0  0  0  0  0  0  0  0
   23.9588  -10.7724  -15.3453 C   0  0  0  0  0  0  0  0  0  0  0  0
   21.7099   -9.7246  -15.4833 C   0  0  2  0  0  0  0  0  0  0  0  0
   21.5093  -10.3656  -16.7633 N   0  0  0  0  0  0  0  0  0  0  0  0
   22.1219   -8.3062  -15.6348 C   0  0  0  0  0  0  0  0  0  0  0  0
   23.0640   -7.9569  -16.3898 O   0  0  0  0  0  0  0  0  0  0  0  0
   21.4727   -7.2410  -14.9302 N   0  0  0  0  0  0  0  0  0  0  0  0
   21.9300   -5.8663  -14.9849 C   0  0  1  0  0  0  0  0  0  0  0  0
   21.0932   -5.0087  -15.8871 C   0  0  0  0  0  0  0  0  0  0  0  0
   19.5880   -5.9589  -16.2845 S   0  0  0  0  0  0  0  0  0  0  0  0
   22.0929   -5.2896  -13.6261 C   0  0  0  0  0  0  0  0  0  0  0  0
   22.7020   -4.0594  -13.4782 O   0  0  0  0  0  0  0  0  0  0  0  0
   21.6961   -5.8779  -12.5872 O   0  0  0  0  0  0  0  0  0  0  0  0
  2  1  1  1
  3  2  1  0
  4  3  1  0
  5  4  2  0
  6  7  1  0
  6  5  1  0
  7  8  2  0
  8  4  1  0
  9  2  1  0
  9 10  2  0
 12 11  1  1
 12 13  1  0
 12 14  1  0
 14 15  1  6
 14 16  1  0
 15  9  1  0
 16 17  2  0
 16 18  1  0
 18 19  1  0
 19 22  1  0
 19 20  1  6
 20 21  1  0
 22 24  2  0
 22 23  1  0
M  END
$$$$
