HVC.pdb
     RDKit          3D

 24 24  0  0  1  0  0  0  0  0999 V2000
   18.7099  -12.6266  -16.8860 N   0  0  0  0  0  0  0  0  0  0  0  0
   19.0646  -11.2761  -17.2296 C   0  0  1  0  0  0  0  0  0  0  0  0
   17.8182  -10.5681  -17.7047 C   0  0  0  0  0  0  0  0  0  0  0  0
   17.4552  -11.1403  -19.0247 C   0  0  0  0  0  0  0  0  0  0  0  0
   18.2365  -11.9743  -19.8289 C   0  0  0  0  0  0  0  0  0  0  0  0
   17.5600  -12.2771  -20.9416 N   0  0  0  0  0  0  0  0  0  0  0  0
   16.3705  -11.6721  -20.8907 C   0  0  0  0  0  0  0  0  0  0  0  0
   16.3147  -10.9804  -19.7176 N   0  0  0  0  0  0  0  0  0  0  0  0
   19.7208  -10.5634  -16.1028 C   0  0  0  0  0  0  0  0  0  0  0  0
   19.2225  -10.6253  -14.9499 O   0  0  0  0  0  0  0  0  0  0  0  0
   23.8841   -9.4126  -15.9765 C   0  0  0  0  0  0  0  0  0  0  0  0
   22.9155   -9.6095  -14.8569 C   0  0  2  0  0  0  0  0  0  0  0  0
   22.8397  -11.0375  -14.3915 C   0  0  0  0  0  0  0  0  0  0  0  0
   21.5359   -9.0708  -15.1702 C   0  0  2  0  0  0  0  0  0  0  0  0
   20.9089   -9.7954  -16.2525 N   0  0  0  0  0  0  0  0  0  0  0  0
   21.5617   -7.6085  -15.4269 C   0  0  0  0  0  0  0  0  0  0  0  0
   21.8672   -7.1281  -16.5474 O   0  0  0  0  0  0  0  0  0  0  0  0
   21.2401   -6.6478  -14.4140 N   0  0  0  0  0  0  0  0  0  0  0  0
   21.2840   -5.2168  -14.6428 C   0  0  1  0  0  0  0  0  0  0  0  0
   19.9387   -4.5650  -14.5206 C   0  0  0  0  0  0  0  0  0  0  0  0
   20.2049   -2.7637  -14.6257 S   0  0  0  0  0  0  0  0  0  0  0  0
   22.3226   -4.5611  -13.8081 C   0  0  0  0  0  0  0  0  0  0  0  0
   23.0019   -3.4661  -14.3040 O   0  0  0  0  0  0  0  0  0  0  0  0
   22.6175   -4.9621  -12.6527 O   0  0  0  0  0  0  0  0  0  0  0  0
  2  1  1  1
  3  2  1  0
  4  3  1  0
  5  4  2  0
  6  7  1  0
  6  5  1  0
  7  8  2  0
  8  4  1  0
  9  2  1  0
  9 10  2  0
 12 11  1  6
 12 13  1  0
 12 14  1  0
 14 15  1  6
 14 16  1  0
 15  9  1  0
 16 17  2  0
 16 18  1  0
 18 19  1  0
 19 22  1  0
 19 20  1  1
 20 21  1  0
 22 24  2  0
 22 23  1  0
M  END
$$$$
