HVC.pdb
     RDKit          3D

 24 24  0  0  1  0  0  0  0  0999 V2000
   25.6777  -22.1756  -12.2163 N   0  0  0  0  0  0  0  0  0  0  0  0
   24.9526  -20.9365  -12.2983 C   0  0  1  0  0  0  0  0  0  0  0  0
   25.2482  -20.1345  -11.0534 C   0  0  0  0  0  0  0  0  0  0  0  0
   24.4954  -20.7531   -9.9344 C   0  0  0  0  0  0  0  0  0  0  0  0
   24.9992  -21.1485   -8.6923 C   0  0  0  0  0  0  0  0  0  0  0  0
   24.0087  -21.6631   -7.9563 N   0  0  0  0  0  0  0  0  0  0  0  0
   22.8823  -21.6169   -8.6723 C   0  0  0  0  0  0  0  0  0  0  0  0
   23.1881  -21.0602   -9.8781 N   0  0  0  0  0  0  0  0  0  0  0  0
   25.2664  -20.1828  -13.5400 C   0  0  0  0  0  0  0  0  0  0  0  0
   26.4289  -20.2228  -14.0178 O   0  0  0  0  0  0  0  0  0  0  0  0
   22.2447  -19.2678  -16.4101 C   0  0  0  0  0  0  0  0  0  0  0  0
   23.7114  -19.4598  -16.6162 C   0  0  2  0  0  0  0  0  0  0  0  0
   24.0947  -20.9033  -16.7922 C   0  0  0  0  0  0  0  0  0  0  0  0
   24.5481  -18.8077  -15.5363 C   0  0  2  0  0  0  0  0  0  0  0  0
   24.3073  -19.3986  -14.2393 N   0  0  0  0  0  0  0  0  0  0  0  0
   24.3660  -17.3342  -15.5140 C   0  0  0  0  0  0  0  0  0  0  0  0
   23.3886  -16.7864  -14.9445 O   0  0  0  0  0  0  0  0  0  0  0  0
   25.2925  -16.4388  -16.1402 N   0  0  0  0  0  0  0  0  0  0  0  0
   25.1734  -14.9963  -16.0566 C   0  0  1  0  0  0  0  0  0  0  0  0
   26.4535  -14.3279  -15.6512 C   0  0  0  0  0  0  0  0  0  0  0  0
   27.7577  -14.9485  -16.7650 S   0  0  0  0  0  0  0  0  0  0  0  0
   24.5885  -14.4231  -17.2954 C   0  0  0  0  0  0  0  0  0  0  0  0
   24.1637  -13.1093  -17.3018 O   0  0  0  0  0  0  0  0  0  0  0  0
   24.4596  -15.0878  -18.3557 O   0  0  0  0  0  0  0  0  0  0  0  0
  2  1  1  1
  3  2  1  0
  4  3  1  0
  5  4  2  0
  6  7  1  0
  6  5  1  0
  7  8  2  0
  8  4  1  0
  9  2  1  0
  9 10  2  0
 12 11  1  1
 12 13  1  0
 12 14  1  0
 14 15  1  1
 14 16  1  0
 15  9  1  0
 16 17  2  0
 16 18  1  0
 18 19  1  0
 19 22  1  0
 19 20  1  6
 20 21  1  0
 22 24  2  0
 22 23  1  0
M  END
$$$$
