HVC.pdb
     RDKit          3D

 24 24  0  0  1  0  0  0  0  0999 V2000
   21.5659  -12.6727  -18.1587 N   0  0  0  0  0  0  0  0  0  0  0  0
   20.7546  -11.7224  -17.4471 C   0  0  1  0  0  0  0  0  0  0  0  0
   20.1268  -12.4281  -16.2688 C   0  0  0  0  0  0  0  0  0  0  0  0
   19.1274  -13.3860  -16.8025 C   0  0  0  0  0  0  0  0  0  0  0  0
   17.8683  -13.0884  -17.3307 C   0  0  0  0  0  0  0  0  0  0  0  0
   17.2662  -14.2218  -17.7056 N   0  0  0  0  0  0  0  0  0  0  0  0
   18.0855  -15.2428  -17.4413 C   0  0  0  0  0  0  0  0  0  0  0  0
   19.2190  -14.7240  -16.8904 N   0  0  0  0  0  0  0  0  0  0  0  0
   21.5263  -10.5207  -17.0365 C   0  0  0  0  0  0  0  0  0  0  0  0
   22.5202  -10.6464  -16.2764 O   0  0  0  0  0  0  0  0  0  0  0  0
   21.3216   -6.7726  -19.1783 C   0  0  0  0  0  0  0  0  0  0  0  0
   22.4488   -7.2860  -18.3438 C   0  0  2  0  0  0  0  0  0  0  0  0
   23.4316   -8.1101  -19.1291 C   0  0  0  0  0  0  0  0  0  0  0  0
   21.9784   -8.0344  -17.1149 C   0  0  2  0  0  0  0  0  0  0  0  0
   21.2010   -9.2026  -17.4617 N   0  0  0  0  0  0  0  0  0  0  0  0
   21.2497   -7.1454  -16.1750 C   0  0  0  0  0  0  0  0  0  0  0  0
   19.9945   -7.0965  -16.1328 O   0  0  0  0  0  0  0  0  0  0  0  0
   21.9290   -6.2842  -15.2535 N   0  0  0  0  0  0  0  0  0  0  0  0
   21.2312   -5.4179  -14.3236 C   0  0  1  0  0  0  0  0  0  0  0  0
   20.3317   -6.1701  -13.3883 C   0  0  0  0  0  0  0  0  0  0  0  0
   21.4047   -7.1479  -12.2841 S   0  0  0  0  0  0  0  0  0  0  0  0
   22.1671   -4.5061  -13.6181 C   0  0  0  0  0  0  0  0  0  0  0  0
   21.6641   -3.5324  -12.7782 O   0  0  0  0  0  0  0  0  0  0  0  0
   23.4160   -4.5797  -13.7512 O   0  0  0  0  0  0  0  0  0  0  0  0
  2  1  1  1
  3  2  1  0
  4  3  1  0
  5  4  2  0
  6  7  1  0
  6  5  1  0
  7  8  2  0
  8  4  1  0
  9  2  1  0
  9 10  2  0
 12 11  1  6
 12 13  1  0
 12 14  1  0
 14 15  1  6
 14 16  1  0
 15  9  1  0
 16 17  2  0
 16 18  1  0
 18 19  1  0
 19 22  1  0
 19 20  1  1
 20 21  1  0
 22 24  2  0
 22 23  1  0
M  END
$$$$
