HVC.pdb
     RDKit          3D

 24 24  0  0  1  0  0  0  0  0999 V2000
   23.2352  -14.4990  -17.8596 N   0  0  0  0  0  0  0  0  0  0  0  0
   22.6992  -13.1795  -18.0574 C   0  0  1  0  0  0  0  0  0  0  0  0
   21.2381  -13.3133  -18.4150 C   0  0  0  0  0  0  0  0  0  0  0  0
   21.1617  -13.9718  -19.7423 C   0  0  0  0  0  0  0  0  0  0  0  0
   21.4353  -13.3996  -20.9876 C   0  0  0  0  0  0  0  0  0  0  0  0
   21.2525  -14.3147  -21.9451 N   0  0  0  0  0  0  0  0  0  0  0  0
   20.8710  -15.4579  -21.3698 C   0  0  0  0  0  0  0  0  0  0  0  0
   20.8181  -15.2400  -20.0254 N   0  0  0  0  0  0  0  0  0  0  0  0
   22.9106  -12.3040  -16.8755 C   0  0  0  0  0  0  0  0  0  0  0  0
   22.4949  -12.6685  -15.7460 O   0  0  0  0  0  0  0  0  0  0  0  0
   25.9820   -9.2824  -16.5596 C   0  0  0  0  0  0  0  0  0  0  0  0
   25.2344   -9.9966  -15.4818 C   0  0  2  0  0  0  0  0  0  0  0  0
   25.8660  -11.3068  -15.0996 C   0  0  0  0  0  0  0  0  0  0  0  0
   23.7669  -10.1796  -15.8050 C   0  0  2  0  0  0  0  0  0  0  0  0
   23.5716  -11.0461  -16.9453 N   0  0  0  0  0  0  0  0  0  0  0  0
   23.0749   -8.8771  -15.9765 C   0  0  0  0  0  0  0  0  0  0  0  0
   23.0207   -8.2856  -17.0842 O   0  0  0  0  0  0  0  0  0  0  0  0
   22.4230   -8.2078  -14.8906 N   0  0  0  0  0  0  0  0  0  0  0  0
   21.7690   -6.9220  -15.0361 C   0  0  1  0  0  0  0  0  0  0  0  0
   20.3141   -7.0432  -15.3801 C   0  0  0  0  0  0  0  0  0  0  0  0
   19.5260   -8.0025  -14.0440 S   0  0  0  0  0  0  0  0  0  0  0  0
   22.0148   -6.0474  -13.8614 C   0  0  0  0  0  0  0  0  0  0  0  0
   21.5996   -4.7310  -13.8952 O   0  0  0  0  0  0  0  0  0  0  0  0
   22.5924   -6.4551  -12.8207 O   0  0  0  0  0  0  0  0  0  0  0  0
  2  1  1  1
  3  2  1  0
  4  3  1  0
  5  4  2  0
  6  7  1  0
  6  5  1  0
  7  8  2  0
  8  4  1  0
  9  2  1  0
  9 10  2  0
 12 11  1  6
 12 13  1  0
 12 14  1  0
 14 15  1  6
 14 16  1  0
 15  9  1  0
 16 17  2  0
 16 18  1  0
 18 19  1  0
 19 22  1  0
 19 20  1  1
 20 21  1  0
 22 24  2  0
 22 23  1  0
M  END
$$$$
