HVC.pdb
     RDKit          3D

 24 24  0  0  1  0  0  0  0  0999 V2000
   18.7174  -13.8609  -17.8188 N   0  0  0  0  0  0  0  0  0  0  0  0
   19.1912  -12.5782  -18.2634 C   0  0  1  0  0  0  0  0  0  0  0  0
   18.1435  -11.9774  -19.1700 C   0  0  0  0  0  0  0  0  0  0  0  0
   18.0819  -12.8115  -20.3955 C   0  0  0  0  0  0  0  0  0  0  0  0
   16.9363  -13.2964  -21.0321 C   0  0  0  0  0  0  0  0  0  0  0  0
   17.2942  -14.0081  -22.1059 N   0  0  0  0  0  0  0  0  0  0  0  0
   18.6269  -14.0038  -22.1907 C   0  0  0  0  0  0  0  0  0  0  0  0
   19.0998  -13.2713  -21.1431 N   0  0  0  0  0  0  0  0  0  0  0  0
   19.5338  -11.6815  -17.1290 C   0  0  0  0  0  0  0  0  0  0  0  0
   18.7031  -11.5019  -16.2022 O   0  0  0  0  0  0  0  0  0  0  0  0
   22.4617  -11.7026  -14.7147 C   0  0  0  0  0  0  0  0  0  0  0  0
   22.4055  -10.3368  -15.3163 C   0  0  2  0  0  0  0  0  0  0  0  0
   22.7684   -9.2512  -14.3409 C   0  0  0  0  0  0  0  0  0  0  0  0
   21.0790  -10.0411  -15.9829 C   0  0  2  0  0  0  0  0  0  0  0  0
   20.7761  -10.9962  -17.0247 N   0  0  0  0  0  0  0  0  0  0  0  0
   21.0123   -8.6432  -16.4792 C   0  0  0  0  0  0  0  0  0  0  0  0
   21.8144   -8.1957  -17.3370 O   0  0  0  0  0  0  0  0  0  0  0  0
   20.0290   -7.7115  -16.0131 N   0  0  0  0  0  0  0  0  0  0  0  0
   19.9329   -6.3528  -16.5098 C   0  0  1  0  0  0  0  0  0  0  0  0
   18.5172   -5.8684  -16.6136 C   0  0  0  0  0  0  0  0  0  0  0  0
   17.6238   -7.0496  -17.6781 S   0  0  0  0  0  0  0  0  0  0  0  0
   20.8062   -5.4275  -15.7440 C   0  0  0  0  0  0  0  0  0  0  0  0
   21.0646   -4.1666  -16.2437 O   0  0  0  0  0  0  0  0  0  0  0  0
   21.3300   -5.7427  -14.6443 O   0  0  0  0  0  0  0  0  0  0  0  0
  2  1  1  1
  3  2  1  0
  4  3  1  0
  5  4  2  0
  6  7  1  0
  6  5  1  0
  7  8  2  0
  8  4  1  0
  9  2  1  0
  9 10  2  0
 12 11  1  1
 12 13  1  0
 12 14  1  0
 14 15  1  6
 14 16  1  0
 15  9  1  0
 16 17  2  0
 16 18  1  0
 18 19  1  0
 19 22  1  0
 19 20  1  1
 20 21  1  0
 22 24  2  0
 22 23  1  0
M  END
$$$$
