HVC.pdb
     RDKit          3D

 24 24  0  0  1  0  0  0  0  0999 V2000
   22.5797  -23.5851  -16.0605 N   0  0  0  0  0  0  0  0  0  0  0  0
   21.6336  -23.4018  -14.9932 C   0  0  1  0  0  0  0  0  0  0  0  0
   20.3672  -22.8256  -15.5802 C   0  0  0  0  0  0  0  0  0  0  0  0
   20.6876  -21.4693  -16.0892 C   0  0  0  0  0  0  0  0  0  0  0  0
   21.6394  -20.5792  -15.5843 C   0  0  0  0  0  0  0  0  0  0  0  0
   21.6298  -19.4594  -16.3147 N   0  0  0  0  0  0  0  0  0  0  0  0
   20.7091  -19.5882  -17.2735 C   0  0  0  0  0  0  0  0  0  0  0  0
   20.1389  -20.8176  -17.1287 N   0  0  0  0  0  0  0  0  0  0  0  0
   21.3834  -24.6592  -14.2418 C   0  0  0  0  0  0  0  0  0  0  0  0
   20.9568  -25.6747  -14.8484 O   0  0  0  0  0  0  0  0  0  0  0  0
   23.3808  -26.9644  -13.3115 C   0  0  0  0  0  0  0  0  0  0  0  0
   22.6696  -26.8295  -12.0050 C   0  0  2  0  0  0  0  0  0  0  0  0
   22.4066  -28.1530  -11.3413 C   0  0  0  0  0  0  0  0  0  0  0  0
   21.3971  -26.0161  -12.1085 C   0  0  2  0  0  0  0  0  0  0  0  0
   21.6025  -24.7876  -12.8420 N   0  0  0  0  0  0  0  0  0  0  0  0
   20.7927  -25.7684  -10.7751 C   0  0  0  0  0  0  0  0  0  0  0  0
   21.0942  -24.7685  -10.0758 O   0  0  0  0  0  0  0  0  0  0  0  0
   19.8254  -26.6529  -10.1968 N   0  0  0  0  0  0  0  0  0  0  0  0
   19.0013  -26.2859   -9.0619 C   0  0  1  0  0  0  0  0  0  0  0  0
   18.2437  -25.0098   -9.2794 C   0  0  0  0  0  0  0  0  0  0  0  0
   17.3740  -24.6312   -7.7216 S   0  0  0  0  0  0  0  0  0  0  0  0
   18.1306  -27.4096   -8.6322 C   0  0  0  0  0  0  0  0  0  0  0  0
   18.1408  -27.8109   -7.3112 O   0  0  0  0  0  0  0  0  0  0  0  0
   17.3722  -28.0228   -9.4271 O   0  0  0  0  0  0  0  0  0  0  0  0
  2  1  1  6
  3  2  1  0
  4  3  1  0
  5  4  2  0
  6  7  1  0
  6  5  1  0
  7  8  2  0
  8  4  1  0
  9  2  1  0
  9 10  2  0
 12 11  1  6
 12 13  1  0
 12 14  1  0
 14 15  1  1
 14 16  1  0
 15  9  1  0
 16 17  2  0
 16 18  1  0
 18 19  1  0
 19 22  1  0
 19 20  1  6
 20 21  1  0
 22 24  2  0
 22 23  1  0
M  END
$$$$
