HVC.pdb
     RDKit          3D

 24 24  0  0  1  0  0  0  0  0999 V2000
   24.1542  -19.9336  -15.5658 N   0  0  0  0  0  0  0  0  0  0  0  0
   23.3677  -18.9588  -16.2721 C   0  0  1  0  0  0  0  0  0  0  0  0
   21.9453  -19.4614  -16.3406 C   0  0  0  0  0  0  0  0  0  0  0  0
   21.9136  -20.5811  -17.3136 C   0  0  0  0  0  0  0  0  0  0  0  0
   21.6984  -21.9343  -17.0393 C   0  0  0  0  0  0  0  0  0  0  0  0
   21.7442  -22.6301  -18.1801 N   0  0  0  0  0  0  0  0  0  0  0  0
   21.9806  -21.7811  -19.1836 C   0  0  0  0  0  0  0  0  0  0  0  0
   22.0827  -20.5328  -18.6461 N   0  0  0  0  0  0  0  0  0  0  0  0
   23.4580  -17.6099  -15.6552 C   0  0  0  0  0  0  0  0  0  0  0  0
   23.3156  -17.4808  -14.4125 O   0  0  0  0  0  0  0  0  0  0  0  0
   26.0329  -14.5562  -16.8309 C   0  0  0  0  0  0  0  0  0  0  0  0
   25.2545  -14.7227  -15.5672 C   0  0  2  0  0  0  0  0  0  0  0  0
   25.9072  -15.6683  -14.5969 C   0  0  0  0  0  0  0  0  0  0  0  0
   23.8119  -15.1114  -15.8110 C   0  0  2  0  0  0  0  0  0  0  0  0
   23.7020  -16.4251  -16.4039 N   0  0  0  0  0  0  0  0  0  0  0  0
   23.0927  -14.0847  -16.6069 C   0  0  0  0  0  0  0  0  0  0  0  0
   23.1946  -14.0106  -17.8574 O   0  0  0  0  0  0  0  0  0  0  0  0
   22.2345  -13.1099  -16.0020 N   0  0  0  0  0  0  0  0  0  0  0  0
   21.4492  -12.1653  -16.7721 C   0  0  1  0  0  0  0  0  0  0  0  0
   20.0800  -11.9432  -16.2014 C   0  0  0  0  0  0  0  0  0  0  0  0
   20.2971  -11.4997  -14.4456 S   0  0  0  0  0  0  0  0  0  0  0  0
   22.1908  -10.9001  -17.0059 C   0  0  0  0  0  0  0  0  0  0  0  0
   21.6699   -9.9564  -17.8688 O   0  0  0  0  0  0  0  0  0  0  0  0
   23.2880  -10.6433  -16.4466 O   0  0  0  0  0  0  0  0  0  0  0  0
  2  1  1  1
  3  2  1  0
  4  3  1  0
  5  4  2  0
  6  7  1  0
  6  5  1  0
  7  8  2  0
  8  4  1  0
  9  2  1  0
  9 10  2  0
 12 11  1  6
 12 13  1  0
 12 14  1  0
 14 15  1  6
 14 16  1  0
 15  9  1  0
 16 17  2  0
 16 18  1  0
 18 19  1  0
 19 22  1  0
 19 20  1  1
 20 21  1  0
 22 24  2  0
 22 23  1  0
M  END
$$$$
