HVC.pdb
     RDKit          3D

 24 24  0  0  1  0  0  0  0  0999 V2000
   18.2492  -13.1694  -18.6624 N   0  0  0  0  0  0  0  0  0  0  0  0
   18.6327  -12.3720  -17.5289 C   0  0  1  0  0  0  0  0  0  0  0  0
   19.8842  -12.9714  -16.9331 C   0  0  0  0  0  0  0  0  0  0  0  0
   19.5373  -14.3248  -16.4339 C   0  0  0  0  0  0  0  0  0  0  0  0
   18.7875  -14.6410  -15.2978 C   0  0  0  0  0  0  0  0  0  0  0  0
   18.6942  -15.9699  -15.1846 N   0  0  0  0  0  0  0  0  0  0  0  0
   19.3540  -16.5281  -16.2028 C   0  0  0  0  0  0  0  0  0  0  0  0
   19.8654  -15.5172  -16.9604 N   0  0  0  0  0  0  0  0  0  0  0  0
   18.8093  -10.9397  -17.8832 C   0  0  0  0  0  0  0  0  0  0  0  0
   19.4854  -10.6258  -18.8959 O   0  0  0  0  0  0  0  0  0  0  0  0
   17.1471   -6.4225  -18.1843 C   0  0  0  0  0  0  0  0  0  0  0  0
   17.1200   -7.9113  -18.0695 C   0  0  2  0  0  0  0  0  0  0  0  0
   15.9118   -8.4206  -17.3329 C   0  0  0  0  0  0  0  0  0  0  0  0
   18.3918   -8.4795  -17.4768 C   0  0  2  0  0  0  0  0  0  0  0  0
   18.2456   -9.8744  -17.1273 N   0  0  0  0  0  0  0  0  0  0  0  0
   18.8728   -7.6702  -16.3285 C   0  0  0  0  0  0  0  0  0  0  0  0
   18.2847   -7.6635  -15.2178 O   0  0  0  0  0  0  0  0  0  0  0  0
   20.0397   -6.8431  -16.4104 N   0  0  0  0  0  0  0  0  0  0  0  0
   20.5328   -6.0633  -15.2921 C   0  0  1  0  0  0  0  0  0  0  0  0
   22.0107   -6.2122  -15.0838 C   0  0  0  0  0  0  0  0  0  0  0  0
   22.3040   -7.9261  -14.5335 S   0  0  0  0  0  0  0  0  0  0  0  0
   20.1012   -4.6452  -15.3816 C   0  0  0  0  0  0  0  0  0  0  0  0
   19.8835   -3.9264  -14.2230 O   0  0  0  0  0  0  0  0  0  0  0  0
   19.9216   -4.0585  -16.4800 O   0  0  0  0  0  0  0  0  0  0  0  0
  2  1  1  6
  3  2  1  0
  4  3  1  0
  5  4  2  0
  6  7  1  0
  6  5  1  0
  7  8  2  0
  8  4  1  0
  9  2  1  0
  9 10  2  0
 12 11  1  1
 12 13  1  0
 12 14  1  0
 14 15  1  1
 14 16  1  0
 15  9  1  0
 16 17  2  0
 16 18  1  0
 18 19  1  0
 19 22  1  0
 19 20  1  6
 20 21  1  0
 22 24  2  0
 22 23  1  0
M  END
$$$$
