HVC.pdb
     RDKit          3D

 24 24  0  0  1  0  0  0  0  0999 V2000
   38.0424   -6.5269   -9.9817 N   0  0  0  0  0  0  0  0  0  0  0  0
   39.3588   -6.4528   -9.4078 C   0  0  1  0  0  0  0  0  0  0  0  0
   39.5114   -5.1009   -8.7523 C   0  0  0  0  0  0  0  0  0  0  0  0
   39.6835   -4.0979   -9.8320 C   0  0  0  0  0  0  0  0  0  0  0  0
   39.7640   -4.3394  -11.2061 C   0  0  0  0  0  0  0  0  0  0  0  0
   39.9181   -3.1786  -11.8514 N   0  0  0  0  0  0  0  0  0  0  0  0
   39.9408   -2.1937  -10.9497 C   0  0  0  0  0  0  0  0  0  0  0  0
   39.7970   -2.7633   -9.7199 N   0  0  0  0  0  0  0  0  0  0  0  0
   39.6236   -7.5687   -8.4629 C   0  0  0  0  0  0  0  0  0  0  0  0
   38.9124   -7.6976   -7.4339 O   0  0  0  0  0  0  0  0  0  0  0  0
   41.7162  -11.3069   -9.3765 C   0  0  0  0  0  0  0  0  0  0  0  0
   40.7142  -10.9531   -8.3270 C   0  0  2  0  0  0  0  0  0  0  0  0
   39.2941  -11.0860   -8.8038 C   0  0  0  0  0  0  0  0  0  0  0  0
   40.9537   -9.5868   -7.7210 C   0  0  2  0  0  0  0  0  0  0  0  0
   40.6592   -8.5247   -8.6563 N   0  0  0  0  0  0  0  0  0  0  0  0
   42.3239   -9.4656   -7.1618 C   0  0  0  0  0  0  0  0  0  0  0  0
   43.3303   -9.2633   -7.8869 O   0  0  0  0  0  0  0  0  0  0  0  0
   42.5898   -9.5713   -5.7580 N   0  0  0  0  0  0  0  0  0  0  0  0
   43.9258   -9.4891   -5.2007 C   0  0  1  0  0  0  0  0  0  0  0  0
   44.2102   -8.1629   -4.5606 C   0  0  0  0  0  0  0  0  0  0  0  0
   45.1893   -7.1913   -5.7538 S   0  0  0  0  0  0  0  0  0  0  0  0
   44.2165  -10.6378   -4.3056 C   0  0  0  0  0  0  0  0  0  0  0  0
   43.1824  -11.2452   -3.6214 O   0  0  0  0  0  0  0  0  0  0  0  0
   45.3783  -11.0909   -4.1384 O   0  0  0  0  0  0  0  0  0  0  0  0
  2  1  1  1
  3  2  1  0
  4  3  1  0
  5  4  2  0
  6  7  1  0
  6  5  1  0
  7  8  2  0
  8  4  1  0
  9  2  1  0
  9 10  2  0
 12 11  1  6
 12 13  1  0
 12 14  1  0
 14 15  1  6
 14 16  1  0
 15  9  1  0
 16 17  2  0
 16 18  1  0
 18 19  1  0
 19 22  1  0
 19 20  1  1
 20 21  1  0
 22 24  2  0
 22 23  1  0
M  END
$$$$
