WKE.pdb
     RDKit          3D

 33 34  0  0  1  0  0  0  0  0999 V2000
    6.6161  -17.7348   25.3120 N   0  0  0  0  0  0  0  0  0  0  0  0
    7.0336  -16.4549   24.8360 C   0  0  1  0  0  0  0  0  0  0  0  0
    8.1819  -15.8681   25.6466 C   0  0  0  0  0  0  0  0  0  0  0  0
    7.6467  -14.9428   26.6979 C   0  0  0  0  0  0  0  0  0  0  0  0
    7.3117  -15.2737   27.9805 C   0  0  0  0  0  0  0  0  0  0  0  0
    6.8681  -14.1454   28.5964 N   0  0  0  0  0  0  0  0  0  0  0  0
    6.9149  -13.1178   27.7391 C   0  0  0  0  0  0  0  0  0  0  0  0
    6.5929  -11.7847   27.8294 C   0  0  0  0  0  0  0  0  0  0  0  0
    6.7477  -10.9251   26.7467 C   0  0  0  0  0  0  0  0  0  0  0  0
    7.2329  -11.4257   25.5655 C   0  0  0  0  0  0  0  0  0  0  0  0
    7.5612  -12.7776   25.4688 C   0  0  0  0  0  0  0  0  0  0  0  0
    7.3975  -13.6026   26.5556 C   0  0  0  0  0  0  0  0  0  0  0  0
    7.4416  -16.5653   23.4198 C   0  0  0  0  0  0  0  0  0  0  0  0
    8.1077  -17.5608   23.0078 O   0  0  0  0  0  0  0  0  0  0  0  0
    7.1159  -15.5777   22.4564 N   0  0  0  0  0  0  0  0  0  0  0  0
    8.0079  -15.3329   21.3226 C   0  0  1  0  0  0  0  0  0  0  0  0
    7.7459  -13.9537   20.7820 C   0  0  0  0  0  0  0  0  0  0  0  0
    8.6337  -13.6712   19.5977 C   0  0  0  0  0  0  0  0  0  0  0  0
    7.8628  -13.7318   18.3015 C   0  0  0  0  0  0  0  0  0  0  0  0
    8.7277  -13.5209   17.0878 C   0  0  0  0  0  0  0  0  0  0  0  0
    7.8548  -13.7221   15.9212 N   0  0  0  0  0  0  0  0  0  0  0  0
    9.4245  -15.4155   21.7694 C   0  0  0  0  0  0  0  0  0  0  0  0
    9.7910  -14.7343   22.7705 O   0  0  0  0  0  0  0  0  0  0  0  0
   10.4045  -16.2114   21.1486 N   0  0  0  0  0  0  0  0  0  0  0  0
   11.8405  -16.1167   21.4701 C   0  0  1  0  0  0  0  0  0  0  0  0
   12.3094  -17.4831   21.8770 C   0  0  0  0  0  0  0  0  0  0  0  0
   11.9786  -17.8044   23.3013 C   0  0  0  0  0  0  0  0  0  0  0  0
   12.5329  -19.1012   23.7334 C   0  0  0  0  0  0  0  0  0  0  0  0
   13.6837  -19.2456   24.1929 O   0  0  0  0  0  0  0  0  0  0  0  0
   12.5421  -15.5882   20.2751 C   0  0  0  0  0  0  0  0  0  0  0  0
   11.8772  -15.5544   19.0670 O   0  0  0  0  0  0  0  0  0  0  0  0
   11.7502  -20.2439   23.6339 O   0  0  0  0  0  0  0  0  0  0  0  0
   13.7136  -15.1673   20.3002 O   0  0  0  0  0  0  0  0  0  0  0  0
  2  1  1  1
  3  2  1  0
  4  5  2  0
  4  3  1  0
  6  5  1  0
  7 12  2  0
  7  6  1  0
  8  7  1  0
  9 10  1  0
  9  8  2  0
 10 11  2  0
 11 12  1  0
 12  4  1  0
 13 14  2  0
 13  2  1  0
 15 13  1  0
 16 15  1  0
 16 17  1  1
 18 17  1  0
 19 18  1  0
 20 19  1  0
 20 21  1  0
 22 16  1  0
 23 22  2  0
 24 22  1  0
 25 30  1  0
 25 24  1  0
 25 26  1  6
 27 26  1  0
 28 27  1  0
 29 28  2  0
 30 31  1  0
 32 28  1  0
 33 30  2  0
M  END
$$$$
