WKE.pdb
     RDKit          3D

 33 34  0  0  1  0  0  0  0  0999 V2000
    6.4151  -17.2616   24.9507 N   0  0  0  0  0  0  0  0  0  0  0  0
    7.0588  -16.0274   24.6315 C   0  0  1  0  0  0  0  0  0  0  0  0
    8.2941  -15.7670   25.4836 C   0  0  0  0  0  0  0  0  0  0  0  0
    7.9516  -14.8436   26.6140 C   0  0  0  0  0  0  0  0  0  0  0  0
    8.0661  -15.1122   27.9488 C   0  0  0  0  0  0  0  0  0  0  0  0
    7.6494  -14.0113   28.6295 N   0  0  0  0  0  0  0  0  0  0  0  0
    7.2772  -13.0612   27.7623 C   0  0  0  0  0  0  0  0  0  0  0  0
    6.7877  -11.7841   27.8984 C   0  0  0  0  0  0  0  0  0  0  0  0
    6.4779  -11.0030   26.7899 C   0  0  0  0  0  0  0  0  0  0  0  0
    6.6674  -11.5251   25.5358 C   0  0  0  0  0  0  0  0  0  0  0  0
    7.1640  -12.8204   25.3924 C   0  0  0  0  0  0  0  0  0  0  0  0
    7.4611  -13.5683   26.5062 C   0  0  0  0  0  0  0  0  0  0  0  0
    7.4407  -16.0261   23.2038 C   0  0  0  0  0  0  0  0  0  0  0  0
    7.7562  -17.1003   22.6112 O   0  0  0  0  0  0  0  0  0  0  0  0
    7.4759  -14.8401   22.4282 N   0  0  0  0  0  0  0  0  0  0  0  0
    7.9925  -14.8707   21.0594 C   0  0  1  0  0  0  0  0  0  0  0  0
    7.9315  -13.4831   20.4816 C   0  0  0  0  0  0  0  0  0  0  0  0
    8.6825  -13.4188   19.1769 C   0  0  0  0  0  0  0  0  0  0  0  0
    7.8879  -14.0336   18.0505 C   0  0  0  0  0  0  0  0  0  0  0  0
    8.6191  -14.0216   16.7349 C   0  0  0  0  0  0  0  0  0  0  0  0
    7.6971  -14.6025   15.7470 N   0  0  0  0  0  0  0  0  0  0  0  0
    9.4077  -15.3295   21.0655 C   0  0  0  0  0  0  0  0  0  0  0  0
   10.2136  -14.8167   21.8952 O   0  0  0  0  0  0  0  0  0  0  0  0
    9.9247  -16.3110   20.2003 N   0  0  0  0  0  0  0  0  0  0  0  0
   11.2926  -16.8486   20.3188 C   0  0  1  0  0  0  0  0  0  0  0  0
   11.2889  -18.2383   19.7521 C   0  0  0  0  0  0  0  0  0  0  0  0
   12.6440  -18.8742   19.7786 C   0  0  0  0  0  0  0  0  0  0  0  0
   12.6422  -20.2366   19.2136 C   0  0  0  0  0  0  0  0  0  0  0  0
   13.6643  -20.8145   18.7920 O   0  0  0  0  0  0  0  0  0  0  0  0
   12.2090  -15.9270   19.6046 C   0  0  0  0  0  0  0  0  0  0  0  0
   13.5126  -15.8067   20.0393 O   0  0  0  0  0  0  0  0  0  0  0  0
   11.4473  -20.9397   19.1342 O   0  0  0  0  0  0  0  0  0  0  0  0
   11.8643  -15.2457   18.6210 O   0  0  0  0  0  0  0  0  0  0  0  0
  2  1  1  1
  3  2  1  0
  4  5  2  0
  4  3  1  0
  6  5  1  0
  7 12  2  0
  7  6  1  0
  8  7  1  0
  9 10  1  0
  9  8  2  0
 10 11  2  0
 11 12  1  0
 12  4  1  0
 13 14  2  0
 13  2  1  0
 15 13  1  0
 16 15  1  0
 16 17  1  1
 18 17  1  0
 19 18  1  0
 20 19  1  0
 20 21  1  0
 22 16  1  0
 23 22  2  0
 24 22  1  0
 25 30  1  0
 25 24  1  0
 25 26  1  6
 27 26  1  0
 28 27  1  0
 29 28  2  0
 30 31  1  0
 32 28  1  0
 33 30  2  0
M  END
$$$$
