WKE.pdb
     RDKit          3D

 33 34  0  0  1  0  0  0  0  0999 V2000
    9.5169  -16.1092   23.0507 N   0  0  0  0  0  0  0  0  0  0  0  0
    9.0069  -16.2002   24.3814 C   0  0  1  0  0  0  0  0  0  0  0  0
    7.5002  -15.9890   24.4531 C   0  0  0  0  0  0  0  0  0  0  0  0
    7.1622  -14.5771   24.0786 C   0  0  0  0  0  0  0  0  0  0  0  0
    7.0350  -14.0779   22.8132 C   0  0  0  0  0  0  0  0  0  0  0  0
    6.7245  -12.7582   22.9183 N   0  0  0  0  0  0  0  0  0  0  0  0
    6.6533  -12.4152   24.2108 C   0  0  0  0  0  0  0  0  0  0  0  0
    6.3819  -11.2417   24.8727 C   0  0  0  0  0  0  0  0  0  0  0  0
    6.3773  -11.1758   26.2623 C   0  0  0  0  0  0  0  0  0  0  0  0
    6.6507  -12.3111   26.9817 C   0  0  0  0  0  0  0  0  0  0  0  0
    6.9265  -13.5044   26.3147 C   0  0  0  0  0  0  0  0  0  0  0  0
    6.9238  -13.5387   24.9409 C   0  0  0  0  0  0  0  0  0  0  0  0
    9.3423  -17.5234   24.9479 C   0  0  0  0  0  0  0  0  0  0  0  0
    8.9557  -17.8543   26.1078 O   0  0  0  0  0  0  0  0  0  0  0  0
   10.1052  -18.4829   24.2359 N   0  0  0  0  0  0  0  0  0  0  0  0
   10.5205  -19.7248   24.8890 C   0  0  1  0  0  0  0  0  0  0  0  0
   10.7741  -20.7702   23.8375 C   0  0  0  0  0  0  0  0  0  0  0  0
    9.5298  -21.0167   23.0242 C   0  0  0  0  0  0  0  0  0  0  0  0
    9.7764  -22.0237   21.9273 C   0  0  0  0  0  0  0  0  0  0  0  0
    8.5867  -22.2213   21.0266 C   0  0  0  0  0  0  0  0  0  0  0  0
    8.5389  -21.0451   20.1449 N   0  0  0  0  0  0  0  0  0  0  0  0
   11.7752  -19.4957   25.6549 C   0  0  0  0  0  0  0  0  0  0  0  0
   12.8794  -19.5050   25.0373 O   0  0  0  0  0  0  0  0  0  0  0  0
   11.8243  -19.2645   27.0418 N   0  0  0  0  0  0  0  0  0  0  0  0
   12.8851  -19.8061   27.9110 C   0  0  1  0  0  0  0  0  0  0  0  0
   12.3231  -20.9968   28.6314 C   0  0  0  0  0  0  0  0  0  0  0  0
   11.0908  -20.6665   29.4147 C   0  0  0  0  0  0  0  0  0  0  0  0
   11.2104  -21.0292   30.8394 C   0  0  0  0  0  0  0  0  0  0  0  0
   10.3540  -20.7472   31.7016 O   0  0  0  0  0  0  0  0  0  0  0  0
   14.0519  -20.1350   27.0568 C   0  0  0  0  0  0  0  0  0  0  0  0
   15.2973  -19.6582   27.4095 O   0  0  0  0  0  0  0  0  0  0  0  0
   12.3309  -21.7250   31.2736 O   0  0  0  0  0  0  0  0  0  0  0  0
   13.9707  -20.8268   26.0247 O   0  0  0  0  0  0  0  0  0  0  0  0
  2  1  1  6
  3  2  1  0
  4  5  2  0
  4  3  1  0
  6  5  1  0
  7 12  2  0
  7  6  1  0
  8  7  1  0
  9 10  1  0
  9  8  2  0
 10 11  2  0
 11 12  1  0
 12  4  1  0
 13 14  2  0
 13  2  1  0
 15 13  1  0
 16 15  1  0
 16 17  1  6
 18 17  1  0
 19 18  1  0
 20 19  1  0
 20 21  1  0
 22 16  1  0
 23 22  2  0
 24 22  1  0
 25 30  1  0
 25 24  1  0
 25 26  1  6
 27 26  1  0
 28 27  1  0
 29 28  2  0
 30 31  1  0
 32 28  1  0
 33 30  2  0
M  END
$$$$
