WKE.pdb
     RDKit          3D

 33 34  0  0  1  0  0  0  0  0999 V2000
    6.8879  -18.4298   25.2719 N   0  0  0  0  0  0  0  0  0  0  0  0
    6.9827  -17.0487   24.9213 C   0  0  1  0  0  0  0  0  0  0  0  0
    7.6990  -16.2180   25.9781 C   0  0  0  0  0  0  0  0  0  0  0  0
    6.8422  -15.0567   26.3845 C   0  0  0  0  0  0  0  0  0  0  0  0
    5.5088  -15.0922   26.6806 C   0  0  0  0  0  0  0  0  0  0  0  0
    5.1216  -13.8277   26.9971 N   0  0  0  0  0  0  0  0  0  0  0  0
    6.1714  -13.0010   26.9084 C   0  0  0  0  0  0  0  0  0  0  0  0
    6.3440  -11.6529   27.1126 C   0  0  0  0  0  0  0  0  0  0  0  0
    7.5833  -11.0450   26.9409 C   0  0  0  0  0  0  0  0  0  0  0  0
    8.6529  -11.8140   26.5589 C   0  0  0  0  0  0  0  0  0  0  0  0
    8.4830  -13.1825   26.3507 C   0  0  0  0  0  0  0  0  0  0  0  0
    7.2464  -13.7550   26.5282 C   0  0  0  0  0  0  0  0  0  0  0  0
    7.6922  -16.9158   23.6316 C   0  0  0  0  0  0  0  0  0  0  0  0
    8.5690  -17.7590   23.2786 O   0  0  0  0  0  0  0  0  0  0  0  0
    7.4358  -15.8523   22.7300 N   0  0  0  0  0  0  0  0  0  0  0  0
    8.2841  -15.6649   21.5524 C   0  0  1  0  0  0  0  0  0  0  0  0
    7.8836  -14.3921   20.8577 C   0  0  0  0  0  0  0  0  0  0  0  0
    8.7524  -14.1514   19.6503 C   0  0  0  0  0  0  0  0  0  0  0  0
    7.9398  -13.6786   18.4696 C   0  0  0  0  0  0  0  0  0  0  0  0
    8.7683  -13.4516   17.2336 C   0  0  0  0  0  0  0  0  0  0  0  0
    7.8955  -12.7556   16.2759 N   0  0  0  0  0  0  0  0  0  0  0  0
    9.7083  -15.5601   21.9694 C   0  0  0  0  0  0  0  0  0  0  0  0
   10.0027  -14.8379   22.9656 O   0  0  0  0  0  0  0  0  0  0  0  0
   10.7716  -16.2184   21.3250 N   0  0  0  0  0  0  0  0  0  0  0  0
   12.1672  -16.1447   21.7951 C   0  0  1  0  0  0  0  0  0  0  0  0
   12.5393  -17.4936   22.3377 C   0  0  0  0  0  0  0  0  0  0  0  0
   13.9858  -17.5838   22.7129 C   0  0  0  0  0  0  0  0  0  0  0  0
   14.3659  -18.9279   23.1867 C   0  0  0  0  0  0  0  0  0  0  0  0
   13.8778  -19.9853   22.7394 O   0  0  0  0  0  0  0  0  0  0  0  0
   13.0120  -15.7191   20.6528 C   0  0  0  0  0  0  0  0  0  0  0  0
   14.2205  -15.1038   20.9049 O   0  0  0  0  0  0  0  0  0  0  0  0
   15.3198  -19.0528   24.1880 O   0  0  0  0  0  0  0  0  0  0  0  0
   12.6883  -15.8878   19.4625 O   0  0  0  0  0  0  0  0  0  0  0  0
  2  1  1  1
  3  2  1  0
  4  5  2  0
  4  3  1  0
  6  5  1  0
  7 12  2  0
  7  6  1  0
  8  7  1  0
  9 10  1  0
  9  8  2  0
 10 11  2  0
 11 12  1  0
 12  4  1  0
 13 14  2  0
 13  2  1  0
 15 13  1  0
 16 15  1  0
 16 17  1  1
 18 17  1  0
 19 18  1  0
 20 19  1  0
 20 21  1  0
 22 16  1  0
 23 22  2  0
 24 22  1  0
 25 30  1  0
 25 24  1  0
 25 26  1  6
 27 26  1  0
 28 27  1  0
 29 28  2  0
 30 31  1  0
 32 28  1  0
 33 30  2  0
M  END
$$$$
