WKE.pdb
     RDKit          3D

 33 34  0  0  1  0  0  0  0  0999 V2000
    6.2086  -17.1352   24.9068 N   0  0  0  0  0  0  0  0  0  0  0  0
    6.9884  -16.0097   24.5014 C   0  0  1  0  0  0  0  0  0  0  0  0
    8.2586  -15.8427   25.3251 C   0  0  0  0  0  0  0  0  0  0  0  0
    8.0033  -14.9206   26.4795 C   0  0  0  0  0  0  0  0  0  0  0  0
    8.1959  -15.1994   27.8031 C   0  0  0  0  0  0  0  0  0  0  0  0
    7.8416  -14.0958   28.5141 N   0  0  0  0  0  0  0  0  0  0  0  0
    7.4329  -13.1341   27.6767 C   0  0  0  0  0  0  0  0  0  0  0  0
    6.9752  -11.8497   27.8496 C   0  0  0  0  0  0  0  0  0  0  0  0
    6.6106  -11.0565   26.7665 C   0  0  0  0  0  0  0  0  0  0  0  0
    6.7125  -11.5740   25.5004 C   0  0  0  0  0  0  0  0  0  0  0  0
    7.1766  -12.8767   25.3197 C   0  0  0  0  0  0  0  0  0  0  0  0
    7.5294  -13.6364   26.4090 C   0  0  0  0  0  0  0  0  0  0  0  0
    7.3462  -16.1471   23.0740 C   0  0  0  0  0  0  0  0  0  0  0  0
    7.3667  -17.2821   22.5121 O   0  0  0  0  0  0  0  0  0  0  0  0
    7.6824  -15.0328   22.2648 N   0  0  0  0  0  0  0  0  0  0  0  0
    8.0556  -15.2267   20.8632 C   0  0  1  0  0  0  0  0  0  0  0  0
    8.0817  -13.8900   20.1737 C   0  0  0  0  0  0  0  0  0  0  0  0
    8.6510  -14.0211   18.7847 C   0  0  0  0  0  0  0  0  0  0  0  0
    7.6232  -13.6852   17.7317 C   0  0  0  0  0  0  0  0  0  0  0  0
    8.1367  -13.8564   16.3272 C   0  0  0  0  0  0  0  0  0  0  0  0
    6.9685  -13.7234   15.4434 N   0  0  0  0  0  0  0  0  0  0  0  0
    9.4094  -15.8383   20.7825 C   0  0  0  0  0  0  0  0  0  0  0  0
    9.8048  -16.3053   19.6751 O   0  0  0  0  0  0  0  0  0  0  0  0
   10.2989  -15.9365   21.8680 N   0  0  0  0  0  0  0  0  0  0  0  0
   11.5785  -16.6656   21.7966 C   0  0  1  0  0  0  0  0  0  0  0  0
   12.6694  -15.6564   21.5875 C   0  0  0  0  0  0  0  0  0  0  0  0
   12.7757  -15.2109   20.1621 C   0  0  0  0  0  0  0  0  0  0  0  0
   14.1459  -14.8069   19.7950 C   0  0  0  0  0  0  0  0  0  0  0  0
   14.9133  -14.1840   20.5562 O   0  0  0  0  0  0  0  0  0  0  0  0
   11.7318  -17.4428   23.0504 C   0  0  0  0  0  0  0  0  0  0  0  0
   11.2784  -16.9011   24.2352 O   0  0  0  0  0  0  0  0  0  0  0  0
   14.6356  -15.1252   18.5352 O   0  0  0  0  0  0  0  0  0  0  0  0
   12.2537  -18.5723   23.0955 O   0  0  0  0  0  0  0  0  0  0  0  0
  2  1  1  1
  3  2  1  0
  4  5  2  0
  4  3  1  0
  6  5  1  0
  7 12  2  0
  7  6  1  0
  8  7  1  0
  9 10  1  0
  9  8  2  0
 10 11  2  0
 11 12  1  0
 12  4  1  0
 13 14  2  0
 13  2  1  0
 15 13  1  0
 16 15  1  0
 16 17  1  6
 18 17  1  0
 19 18  1  0
 20 19  1  0
 20 21  1  0
 22 16  1  0
 23 22  2  0
 24 22  1  0
 25 30  1  0
 25 24  1  0
 25 26  1  1
 27 26  1  0
 28 27  1  0
 29 28  2  0
 30 31  1  0
 32 28  1  0
 33 30  2  0
M  END
$$$$
