WKE.pdb
     RDKit          3D

 33 34  0  0  1  0  0  0  0  0999 V2000
    5.9609  -17.7568   24.0677 N   0  0  0  0  0  0  0  0  0  0  0  0
    6.6257  -16.5014   23.9223 C   0  0  1  0  0  0  0  0  0  0  0  0
    7.5722  -16.1961   25.0759 C   0  0  0  0  0  0  0  0  0  0  0  0
    6.9722  -15.1515   25.9684 C   0  0  0  0  0  0  0  0  0  0  0  0
    5.9779  -15.3378   26.8868 C   0  0  0  0  0  0  0  0  0  0  0  0
    5.7299  -14.1382   27.4771 N   0  0  0  0  0  0  0  0  0  0  0  0
    6.5382  -13.2060   26.9567 C   0  0  0  0  0  0  0  0  0  0  0  0
    6.7095  -11.8604   27.1785 C   0  0  0  0  0  0  0  0  0  0  0  0
    7.6518  -11.1217   26.4703 C   0  0  0  0  0  0  0  0  0  0  0  0
    8.4237  -11.7565   25.5310 C   0  0  0  0  0  0  0  0  0  0  0  0
    8.2538  -13.1217   25.3024 C   0  0  0  0  0  0  0  0  0  0  0  0
    7.3148  -13.8253   26.0177 C   0  0  0  0  0  0  0  0  0  0  0  0
    7.3825  -16.4891   22.6529 C   0  0  0  0  0  0  0  0  0  0  0  0
    7.5851  -17.5574   22.0030 O   0  0  0  0  0  0  0  0  0  0  0  0
    7.9173  -15.2988   22.0990 N   0  0  0  0  0  0  0  0  0  0  0  0
    8.6765  -15.3449   20.8490 C   0  0  1  0  0  0  0  0  0  0  0  0
    8.8583  -13.9431   20.3342 C   0  0  0  0  0  0  0  0  0  0  0  0
    7.8315  -13.6295   19.2769 C   0  0  0  0  0  0  0  0  0  0  0  0
    8.3549  -13.9256   17.8925 C   0  0  0  0  0  0  0  0  0  0  0  0
    7.3821  -13.5650   16.8021 C   0  0  0  0  0  0  0  0  0  0  0  0
    8.0783  -13.8152   15.5309 N   0  0  0  0  0  0  0  0  0  0  0  0
   10.0148  -15.9467   21.0945 C   0  0  0  0  0  0  0  0  0  0  0  0
   10.7047  -16.3287   20.1051 O   0  0  0  0  0  0  0  0  0  0  0  0
   10.5800  -16.1245   22.3704 N   0  0  0  0  0  0  0  0  0  0  0  0
   11.8708  -16.8021   22.5917 C   0  0  1  0  0  0  0  0  0  0  0  0
   12.9573  -15.7780   22.4398 C   0  0  0  0  0  0  0  0  0  0  0  0
   14.2757  -16.3874   22.0769 C   0  0  0  0  0  0  0  0  0  0  0  0
   15.3566  -15.3879   21.9860 C   0  0  0  0  0  0  0  0  0  0  0  0
   15.7456  -14.8819   20.9140 O   0  0  0  0  0  0  0  0  0  0  0  0
   11.8354  -17.4237   23.9378 C   0  0  0  0  0  0  0  0  0  0  0  0
   12.8298  -18.3111   24.2932 O   0  0  0  0  0  0  0  0  0  0  0  0
   15.9955  -14.9680   23.1451 O   0  0  0  0  0  0  0  0  0  0  0  0
   10.9470  -17.1871   24.7774 O   0  0  0  0  0  0  0  0  0  0  0  0
  2  1  1  1
  3  2  1  0
  4  5  2  0
  4  3  1  0
  6  5  1  0
  7 12  2  0
  7  6  1  0
  8  7  1  0
  9 10  1  0
  9  8  2  0
 10 11  2  0
 11 12  1  0
 12  4  1  0
 13 14  2  0
 13  2  1  0
 15 13  1  0
 16 15  1  0
 16 17  1  1
 18 17  1  0
 19 18  1  0
 20 19  1  0
 20 21  1  0
 22 16  1  0
 23 22  2  0
 24 22  1  0
 25 30  1  0
 25 24  1  0
 25 26  1  1
 27 26  1  0
 28 27  1  0
 29 28  2  0
 30 31  1  0
 32 28  1  0
 33 30  2  0
M  END
$$$$
