CMT.pdb
     RDKit          3D

 22 21  0  0  1  0  0  0  0  0999 V2000
    7.9354  -13.9879   18.9744 N   0  0  0  0  0  0  0  0  0  0  0  0
    7.3333  -14.7226   20.0530 C   0  0  1  0  0  0  0  0  0  0  0  0
    7.3273  -16.2101   19.7013 C   0  0  0  0  0  0  0  0  0  0  0  0
    6.5793  -17.1328   21.0475 S   0  0  0  0  0  0  0  0  0  0  0  0
    8.0881  -14.5385   21.3429 C   0  0  0  0  0  0  0  0  0  0  0  0
    9.3345  -14.5405   21.2822 O   0  0  0  0  0  0  0  0  0  0  0  0
    6.3194  -10.7868   26.6289 C   0  0  0  0  0  0  0  0  0  0  0  0
    6.4764  -12.4937   27.2645 S   0  0  0  0  0  0  0  0  0  0  0  0
    7.6862  -13.3426   26.2105 C   0  0  0  0  0  0  0  0  0  0  0  0
    7.0496  -13.5304   24.8583 C   0  0  0  0  0  0  0  0  0  0  0  0
    7.9818  -14.2035   23.8576 C   0  0  2  0  0  0  0  0  0  0  0  0
    7.3846  -14.3728   22.5548 N   0  0  0  0  0  0  0  0  0  0  0  0
    8.4441  -15.4613   24.4344 C   0  0  0  0  0  0  0  0  0  0  0  0
    7.5798  -16.3984   24.5268 O   0  0  0  0  0  0  0  0  0  0  0  0
   11.7764  -18.8439   25.4083 C   0  0  0  0  0  0  0  0  0  0  0  0
   11.4257  -17.5070   24.8055 C   0  0  1  0  0  0  0  0  0  0  0  0
   11.3361  -17.5866   23.4363 O   0  0  0  0  0  0  0  0  0  0  0  0
   10.0906  -17.0508   25.3538 C   0  0  2  0  0  0  0  0  0  0  0  0
    9.7334  -15.7344   24.8914 N   0  0  0  0  0  0  0  0  0  0  0  0
   10.0878  -17.0443   26.8480 C   0  0  0  0  0  0  0  0  0  0  0  0
    9.8965  -18.2234   27.5615 O   0  0  0  0  0  0  0  0  0  0  0  0
   10.2572  -15.9813   27.4894 O   0  0  0  0  0  0  0  0  0  0  0  0
  2  1  1  6
  2  5  1  0
  3  2  1  0
  3  4  1  0
  5  6  2  0
  8  7  1  0
  8  9  1  0
  9 10  1  0
 11 10  1  1
 11 13  1  0
 12  5  1  0
 12 11  1  0
 13 14  2  0
 13 19  1  0
 16 15  1  1
 16 17  1  0
 18 16  1  0
 18 20  1  0
 18 19  1  6
 20 21  1  0
 22 20  2  0
M  END
$$$$
