CMT.pdb
     RDKit          3D

 22 21  0  0  1  0  0  0  0  0999 V2000
    9.1568  -16.1944   19.2262 N   0  0  0  0  0  0  0  0  0  0  0  0
    8.1957  -16.2842   20.2912 C   0  0  1  0  0  0  0  0  0  0  0  0
    7.7388  -17.7363   20.4296 C   0  0  0  0  0  0  0  0  0  0  0  0
    7.3605  -18.3945   18.8026 S   0  0  0  0  0  0  0  0  0  0  0  0
    8.7774  -15.8377   21.6064 C   0  0  0  0  0  0  0  0  0  0  0  0
   10.0154  -15.9174   21.7414 O   0  0  0  0  0  0  0  0  0  0  0  0
    7.0773  -11.8116   28.2299 C   0  0  0  0  0  0  0  0  0  0  0  0
    6.4931  -12.4174   26.6069 S   0  0  0  0  0  0  0  0  0  0  0  0
    7.7586  -13.5577   25.9798 C   0  0  0  0  0  0  0  0  0  0  0  0
    7.3502  -13.9592   24.5866 C   0  0  0  0  0  0  0  0  0  0  0  0
    8.3541  -14.8972   23.9266 C   0  0  2  0  0  0  0  0  0  0  0  0
    7.9295  -15.3536   22.6251 N   0  0  0  0  0  0  0  0  0  0  0  0
    8.6312  -15.9948   24.8470 C   0  0  0  0  0  0  0  0  0  0  0  0
    7.6648  -16.7965   25.0864 O   0  0  0  0  0  0  0  0  0  0  0  0
   10.6970  -18.7993   24.2859 C   0  0  0  0  0  0  0  0  0  0  0  0
   11.1284  -18.3318   25.6530 C   0  0  1  0  0  0  0  0  0  0  0  0
   12.2924  -17.6041   25.5857 O   0  0  0  0  0  0  0  0  0  0  0  0
   10.0426  -17.4578   26.2435 C   0  0  2  0  0  0  0  0  0  0  0  0
    9.8448  -16.2490   25.4858 N   0  0  0  0  0  0  0  0  0  0  0  0
   10.3509  -17.0848   27.6572 C   0  0  0  0  0  0  0  0  0  0  0  0
   10.4652  -18.0636   28.6395 O   0  0  0  0  0  0  0  0  0  0  0  0
   10.5127  -15.8873   27.9884 O   0  0  0  0  0  0  0  0  0  0  0  0
  2  1  1  6
  2  5  1  0
  3  2  1  0
  3  4  1  0
  5  6  2  0
  8  7  1  0
  8  9  1  0
  9 10  1  0
 11 10  1  1
 11 13  1  0
 12  5  1  0
 12 11  1  0
 13 14  2  0
 13 19  1  0
 16 15  1  6
 16 17  1  0
 18 16  1  0
 18 20  1  0
 18 19  1  6
 20 21  1  0
 22 20  2  0
M  END
$$$$
