CMT.pdb
     RDKit          3D

 22 21  0  0  1  0  0  0  0  0999 V2000
    8.2509  -13.4722   18.7670 N   0  0  0  0  0  0  0  0  0  0  0  0
    7.3723  -13.6522   19.8901 C   0  0  1  0  0  0  0  0  0  0  0  0
    6.5086  -14.8910   19.6543 C   0  0  0  0  0  0  0  0  0  0  0  0
    7.5518  -16.3519   19.6765 S   0  0  0  0  0  0  0  0  0  0  0  0
    8.1384  -13.8394   21.1729 C   0  0  0  0  0  0  0  0  0  0  0  0
    9.3470  -14.1355   21.0800 O   0  0  0  0  0  0  0  0  0  0  0  0
    5.4542  -12.2882   27.2268 C   0  0  0  0  0  0  0  0  0  0  0  0
    7.1837  -11.6998   27.1564 S   0  0  0  0  0  0  0  0  0  0  0  0
    8.0910  -12.8480   26.0823 C   0  0  0  0  0  0  0  0  0  0  0  0
    7.3881  -12.8667   24.7503 C   0  0  0  0  0  0  0  0  0  0  0  0
    8.1245  -13.7006   23.7082 C   0  0  2  0  0  0  0  0  0  0  0  0
    7.4864  -13.6793   22.4140 N   0  0  0  0  0  0  0  0  0  0  0  0
    8.2898  -15.0514   24.2339 C   0  0  0  0  0  0  0  0  0  0  0  0
    7.2522  -15.7979   24.2254 O   0  0  0  0  0  0  0  0  0  0  0  0
   10.1178  -17.7029   22.7577 C   0  0  0  0  0  0  0  0  0  0  0  0
   10.5804  -17.7155   24.1928 C   0  0  1  0  0  0  0  0  0  0  0  0
   11.7899  -17.0777   24.3314 O   0  0  0  0  0  0  0  0  0  0  0  0
    9.5554  -17.0045   25.0503 C   0  0  2  0  0  0  0  0  0  0  0  0
    9.4673  -15.6005   24.7416 N   0  0  0  0  0  0  0  0  0  0  0  0
    9.8649  -17.1506   26.5047 C   0  0  0  0  0  0  0  0  0  0  0  0
    9.8936  -18.4078   27.1004 O   0  0  0  0  0  0  0  0  0  0  0  0
   10.1046  -16.1486   27.2177 O   0  0  0  0  0  0  0  0  0  0  0  0
  2  1  1  6
  2  5  1  0
  3  2  1  0
  3  4  1  0
  5  6  2  0
  8  7  1  0
  8  9  1  0
  9 10  1  0
 11 10  1  1
 11 13  1  0
 12  5  1  0
 12 11  1  0
 13 14  2  0
 13 19  1  0
 16 15  1  6
 16 17  1  0
 18 16  1  0
 18 20  1  0
 18 19  1  6
 20 21  1  0
 22 20  2  0
M  END
$$$$
