CMT.pdb
     RDKit          3D

 22 21  0  0  1  0  0  0  0  0999 V2000
    7.5979  -16.6407   20.3696 N   0  0  0  0  0  0  0  0  0  0  0  0
    8.8553  -15.9607   20.5187 C   0  0  1  0  0  0  0  0  0  0  0  0
    8.8851  -14.7554   19.5792 C   0  0  0  0  0  0  0  0  0  0  0  0
    7.4473  -13.7267   19.8918 S   0  0  0  0  0  0  0  0  0  0  0  0
    9.0626  -15.4743   21.9286 C   0  0  0  0  0  0  0  0  0  0  0  0
   10.1645  -14.9547   22.1988 O   0  0  0  0  0  0  0  0  0  0  0  0
    6.6513  -11.4045   26.3771 C   0  0  0  0  0  0  0  0  0  0  0  0
    7.8562  -12.7789   26.4142 S   0  0  0  0  0  0  0  0  0  0  0  0
    6.9063  -14.3203   26.2839 C   0  0  0  0  0  0  0  0  0  0  0  0
    6.8178  -14.6707   24.8217 C   0  0  0  0  0  0  0  0  0  0  0  0
    8.1190  -15.2463   24.2748 C   0  0  2  0  0  0  0  0  0  0  0  0
    8.0323  -15.6152   22.8824 N   0  0  0  0  0  0  0  0  0  0  0  0
    8.5246  -16.3574   25.1289 C   0  0  0  0  0  0  0  0  0  0  0  0
    7.6293  -17.2307   25.3928 O   0  0  0  0  0  0  0  0  0  0  0  0
   10.9757  -18.8193   24.2315 C   0  0  0  0  0  0  0  0  0  0  0  0
   11.3299  -18.4625   25.6531 C   0  0  1  0  0  0  0  0  0  0  0  0
   12.3947  -17.5946   25.6978 O   0  0  0  0  0  0  0  0  0  0  0  0
   10.1370  -17.8021   26.3104 C   0  0  2  0  0  0  0  0  0  0  0  0
    9.7906  -16.5539   25.6807 N   0  0  0  0  0  0  0  0  0  0  0  0
   10.3854  -17.5470   27.7615 C   0  0  0  0  0  0  0  0  0  0  0  0
   10.6147  -18.6033   28.6377 O   0  0  0  0  0  0  0  0  0  0  0  0
   10.3929  -16.3809   28.2201 O   0  0  0  0  0  0  0  0  0  0  0  0
  2  1  1  1
  2  5  1  0
  3  2  1  0
  3  4  1  0
  5  6  2  0
  8  7  1  0
  8  9  1  0
  9 10  1  0
 11 10  1  1
 11 13  1  0
 12  5  1  0
 12 11  1  0
 13 14  2  0
 13 19  1  0
 16 15  1  6
 16 17  1  0
 18 16  1  0
 18 20  1  0
 18 19  1  6
 20 21  1  0
 22 20  2  0
M  END
$$$$
