CMT.pdb
     RDKit          3D

 22 21  0  0  1  0  0  0  0  0999 V2000
    8.1201  -13.5846   19.6002 N   0  0  0  0  0  0  0  0  0  0  0  0
    7.5719  -14.5819   20.4781 C   0  0  1  0  0  0  0  0  0  0  0  0
    7.7715  -15.9618   19.8519 C   0  0  0  0  0  0  0  0  0  0  0  0
    6.4222  -16.2961   18.7156 S   0  0  0  0  0  0  0  0  0  0  0  0
    8.2414  -14.5664   21.8268 C   0  0  0  0  0  0  0  0  0  0  0  0
    9.4804  -14.4192   21.8492 O   0  0  0  0  0  0  0  0  0  0  0  0
    6.6415  -10.4340   26.8682 C   0  0  0  0  0  0  0  0  0  0  0  0
    7.0465  -12.2151   26.9476 S   0  0  0  0  0  0  0  0  0  0  0  0
    6.5334  -12.9463   25.3674 C   0  0  0  0  0  0  0  0  0  0  0  0
    6.9319  -14.3986   25.3945 C   0  0  0  0  0  0  0  0  0  0  0  0
    7.9855  -14.7393   24.3470 C   0  0  2  0  0  0  0  0  0  0  0  0
    7.4705  -14.7151   22.9992 N   0  0  0  0  0  0  0  0  0  0  0  0
    8.5855  -16.0217   24.6990 C   0  0  0  0  0  0  0  0  0  0  0  0
    7.8539  -17.0574   24.5379 O   0  0  0  0  0  0  0  0  0  0  0  0
   12.2692  -19.1134   25.0385 C   0  0  0  0  0  0  0  0  0  0  0  0
   11.7919  -17.7017   24.8080 C   0  0  1  0  0  0  0  0  0  0  0  0
   11.7549  -17.4017   23.4672 O   0  0  0  0  0  0  0  0  0  0  0  0
   10.3979  -17.5503   25.3782 C   0  0  2  0  0  0  0  0  0  0  0  0
    9.8751  -16.2213   25.1919 N   0  0  0  0  0  0  0  0  0  0  0  0
   10.3675  -17.8704   26.8374 C   0  0  0  0  0  0  0  0  0  0  0  0
   10.4929  -19.1844   27.2775 O   0  0  0  0  0  0  0  0  0  0  0  0
   10.2291  -16.9664   27.6940 O   0  0  0  0  0  0  0  0  0  0  0  0
  2  1  1  6
  2  5  1  0
  3  2  1  0
  3  4  1  0
  5  6  2  0
  8  7  1  0
  8  9  1  0
  9 10  1  0
 11 10  1  1
 11 13  1  0
 12  5  1  0
 12 11  1  0
 13 14  2  0
 13 19  1  0
 16 15  1  6
 16 17  1  0
 18 16  1  0
 18 20  1  0
 18 19  1  1
 20 21  1  0
 22 20  2  0
M  END
$$$$
