CMT.pdb
     RDKit          3D

 22 21  0  0  1  0  0  0  0  0999 V2000
    7.5576  -14.9623   19.8059 N   0  0  0  0  0  0  0  0  0  0  0  0
    6.9837  -15.5861   20.9666 C   0  0  1  0  0  0  0  0  0  0  0  0
    6.8238  -17.0828   20.7010 C   0  0  0  0  0  0  0  0  0  0  0  0
    5.2377  -17.3772   19.9131 S   0  0  0  0  0  0  0  0  0  0  0  0
    7.8521  -15.4057   22.1835 C   0  0  0  0  0  0  0  0  0  0  0  0
    9.0880  -15.4509   22.0166 O   0  0  0  0  0  0  0  0  0  0  0  0
    6.3231  -10.1924   26.5150 C   0  0  0  0  0  0  0  0  0  0  0  0
    6.2586  -11.9941   26.8187 S   0  0  0  0  0  0  0  0  0  0  0  0
    7.1072  -12.7966   25.4291 C   0  0  0  0  0  0  0  0  0  0  0  0
    7.1870  -14.2680   25.7413 C   0  0  0  0  0  0  0  0  0  0  0  0
    7.9723  -15.0498   24.6947 C   0  0  2  0  0  0  0  0  0  0  0  0
    7.2611  -15.1956   23.4474 N   0  0  0  0  0  0  0  0  0  0  0  0
    8.3626  -16.3302   25.2749 C   0  0  0  0  0  0  0  0  0  0  0  0
    7.4321  -17.1920   25.4341 O   0  0  0  0  0  0  0  0  0  0  0  0
   10.2527  -19.0040   23.8861 C   0  0  0  0  0  0  0  0  0  0  0  0
   10.9049  -18.7571   25.2230 C   0  0  1  0  0  0  0  0  0  0  0  0
   12.0344  -17.9852   25.0906 O   0  0  0  0  0  0  0  0  0  0  0  0
    9.9271  -18.0363   26.1261 C   0  0  2  0  0  0  0  0  0  0  0  0
    9.6487  -16.6990   25.6695 N   0  0  0  0  0  0  0  0  0  0  0  0
   10.4341  -17.9611   27.5296 C   0  0  0  0  0  0  0  0  0  0  0  0
   10.6473  -19.1202   28.2692 O   0  0  0  0  0  0  0  0  0  0  0  0
   10.6776  -16.8571   28.0699 O   0  0  0  0  0  0  0  0  0  0  0  0
  2  1  1  6
  2  5  1  0
  3  2  1  0
  3  4  1  0
  5  6  2  0
  8  7  1  0
  8  9  1  0
  9 10  1  0
 11 10  1  1
 11 13  1  0
 12  5  1  0
 12 11  1  0
 13 14  2  0
 13 19  1  0
 16 15  1  6
 16 17  1  0
 18 16  1  0
 18 20  1  0
 18 19  1  6
 20 21  1  0
 22 20  2  0
M  END
$$$$
