CMT.pdb
     RDKit          3D

 22 21  0  0  1  0  0  0  0  0999 V2000
    8.3385  -16.6765   21.0812 N   0  0  0  0  0  0  0  0  0  0  0  0
    8.5996  -15.3306   20.6499 C   0  0  1  0  0  0  0  0  0  0  0  0
    7.5243  -14.9102   19.6482 C   0  0  0  0  0  0  0  0  0  0  0  0
    6.5285  -16.3400   19.2153 S   0  0  0  0  0  0  0  0  0  0  0  0
    8.5847  -14.3625   21.8032 C   0  0  0  0  0  0  0  0  0  0  0  0
    7.9123  -13.3202   21.6670 O   0  0  0  0  0  0  0  0  0  0  0  0
    6.9995  -11.7941   27.9010 C   0  0  0  0  0  0  0  0  0  0  0  0
    7.7033  -12.2715   26.2826 S   0  0  0  0  0  0  0  0  0  0  0  0
    6.8907  -13.8170   25.7863 C   0  0  0  0  0  0  0  0  0  0  0  0
    7.3435  -14.1320   24.3847 C   0  0  0  0  0  0  0  0  0  0  0  0
    8.7984  -14.5826   24.3237 C   0  0  2  0  0  0  0  0  0  0  0  0
    9.3123  -14.6519   22.9770 N   0  0  0  0  0  0  0  0  0  0  0  0
    8.9177  -15.8484   25.0392 C   0  0  0  0  0  0  0  0  0  0  0  0
    7.8734  -16.5845   25.0747 O   0  0  0  0  0  0  0  0  0  0  0  0
   10.7962  -18.6370   24.0302 C   0  0  0  0  0  0  0  0  0  0  0  0
   11.1615  -18.5081   25.4875 C   0  0  1  0  0  0  0  0  0  0  0  0
   12.3839  -17.8993   25.6421 O   0  0  0  0  0  0  0  0  0  0  0  0
   10.1113  -17.6744   26.1899 C   0  0  2  0  0  0  0  0  0  0  0  0
   10.0583  -16.3269   25.6841 N   0  0  0  0  0  0  0  0  0  0  0  0
   10.3552  -17.6175   27.6629 C   0  0  0  0  0  0  0  0  0  0  0  0
   10.3573  -18.7808   28.4264 O   0  0  0  0  0  0  0  0  0  0  0  0
   10.5625  -16.5256   28.2414 O   0  0  0  0  0  0  0  0  0  0  0  0
  2  1  1  1
  2  5  1  0
  3  2  1  0
  3  4  1  0
  5  6  2  0
  8  7  1  0
  8  9  1  0
  9 10  1  0
 11 10  1  6
 11 13  1  0
 12  5  1  0
 12 11  1  0
 13 14  2  0
 13 19  1  0
 16 15  1  6
 16 17  1  0
 18 16  1  0
 18 20  1  0
 18 19  1  6
 20 21  1  0
 22 20  2  0
M  END
$$$$
