CMT.pdb
     RDKit          3D

 22 21  0  0  1  0  0  0  0  0999 V2000
    8.6956  -15.9513   18.8154 N   0  0  0  0  0  0  0  0  0  0  0  0
    7.8318  -16.1606   19.9449 C   0  0  1  0  0  0  0  0  0  0  0  0
    7.5053  -17.6498   20.0540 C   0  0  0  0  0  0  0  0  0  0  0  0
    6.4438  -18.1239   18.6858 S   0  0  0  0  0  0  0  0  0  0  0  0
    8.4776  -15.7164   21.2307 C   0  0  0  0  0  0  0  0  0  0  0  0
    9.7047  -15.9084   21.3511 O   0  0  0  0  0  0  0  0  0  0  0  0
    7.0395  -11.8074   28.0119 C   0  0  0  0  0  0  0  0  0  0  0  0
    6.3829  -12.3806   26.4048 S   0  0  0  0  0  0  0  0  0  0  0  0
    7.6409  -13.4670   25.6753 C   0  0  0  0  0  0  0  0  0  0  0  0
    7.1538  -13.8612   24.3056 C   0  0  0  0  0  0  0  0  0  0  0  0
    8.1821  -14.6730   23.5265 C   0  0  2  0  0  0  0  0  0  0  0  0
    7.6986  -15.1107   22.2392 N   0  0  0  0  0  0  0  0  0  0  0  0
    8.6277  -15.7786   24.3678 C   0  0  0  0  0  0  0  0  0  0  0  0
    7.8105  -16.7507   24.5126 O   0  0  0  0  0  0  0  0  0  0  0  0
   12.0704  -18.7734   25.9134 C   0  0  0  0  0  0  0  0  0  0  0  0
   11.6695  -17.5137   25.1881 C   0  0  1  0  0  0  0  0  0  0  0  0
   11.6651  -17.7033   23.8268 O   0  0  0  0  0  0  0  0  0  0  0  0
   10.2780  -17.1105   25.6268 C   0  0  2  0  0  0  0  0  0  0  0  0
    9.8548  -15.8726   25.0245 N   0  0  0  0  0  0  0  0  0  0  0  0
   10.1942  -16.9671   27.1117 C   0  0  0  0  0  0  0  0  0  0  0  0
   10.0699  -18.0884   27.9262 O   0  0  0  0  0  0  0  0  0  0  0  0
   10.2338  -15.8385   27.6547 O   0  0  0  0  0  0  0  0  0  0  0  0
  2  1  1  6
  2  5  1  0
  3  2  1  0
  3  4  1  0
  5  6  2  0
  8  7  1  0
  8  9  1  0
  9 10  1  0
 11 10  1  1
 11 13  1  0
 12  5  1  0
 12 11  1  0
 13 14  2  0
 13 19  1  0
 16 15  1  1
 16 17  1  0
 18 16  1  0
 18 20  1  0
 18 19  1  6
 20 21  1  0
 22 20  2  0
M  END
$$$$
