CMT.pdb
     RDKit          3D

 22 21  0  0  1  0  0  0  0  0999 V2000
    8.0789  -14.7434   18.9527 N   0  0  0  0  0  0  0  0  0  0  0  0
    7.4373  -15.3327   20.0959 C   0  0  1  0  0  0  0  0  0  0  0  0
    7.4208  -16.8522   19.9305 C   0  0  0  0  0  0  0  0  0  0  0  0
    5.8285  -17.3580   19.2733 S   0  0  0  0  0  0  0  0  0  0  0  0
    8.1586  -14.9978   21.3745 C   0  0  0  0  0  0  0  0  0  0  0  0
    9.4053  -14.9590   21.3353 O   0  0  0  0  0  0  0  0  0  0  0  0
    6.3729  -10.8565   26.4512 C   0  0  0  0  0  0  0  0  0  0  0  0
    6.3904  -12.5639   27.1045 S   0  0  0  0  0  0  0  0  0  0  0  0
    7.6239  -13.4864   26.1440 C   0  0  0  0  0  0  0  0  0  0  0  0
    7.0298  -13.7489   24.7850 C   0  0  0  0  0  0  0  0  0  0  0  0
    7.9896  -14.4819   23.8549 C   0  0  2  0  0  0  0  0  0  0  0  0
    7.4251  -14.7433   22.5528 N   0  0  0  0  0  0  0  0  0  0  0  0
    8.4443  -15.6945   24.5268 C   0  0  0  0  0  0  0  0  0  0  0  0
    7.5716  -16.6122   24.7003 O   0  0  0  0  0  0  0  0  0  0  0  0
   11.0158  -17.9888   23.3403 C   0  0  0  0  0  0  0  0  0  0  0  0
   11.3222  -17.8031   24.8050 C   0  0  1  0  0  0  0  0  0  0  0  0
   12.3712  -16.9340   24.9877 O   0  0  0  0  0  0  0  0  0  0  0  0
   10.1000  -17.2420   25.4998 C   0  0  2  0  0  0  0  0  0  0  0  0
    9.7346  -15.9438   24.9944 N   0  0  0  0  0  0  0  0  0  0  0  0
   10.3127  -17.1328   26.9747 C   0  0  0  0  0  0  0  0  0  0  0  0
   10.5392  -18.2697   27.7442 O   0  0  0  0  0  0  0  0  0  0  0  0
   10.2922  -16.0196   27.5494 O   0  0  0  0  0  0  0  0  0  0  0  0
  2  1  1  6
  2  5  1  0
  3  2  1  0
  3  4  1  0
  5  6  2  0
  8  7  1  0
  8  9  1  0
  9 10  1  0
 11 10  1  1
 11 13  1  0
 12  5  1  0
 12 11  1  0
 13 14  2  0
 13 19  1  0
 16 15  1  6
 16 17  1  0
 18 16  1  0
 18 20  1  0
 18 19  1  6
 20 21  1  0
 22 20  2  0
M  END
$$$$
