CMT.pdb
     RDKit          3D

 22 21  0  0  1  0  0  0  0  0999 V2000
    8.9274  -15.5683   19.1094 N   0  0  0  0  0  0  0  0  0  0  0  0
    8.1502  -16.0689   20.2099 C   0  0  1  0  0  0  0  0  0  0  0  0
    8.1205  -17.5958   20.1459 C   0  0  0  0  0  0  0  0  0  0  0  0
    6.4734  -18.1359   19.6784 S   0  0  0  0  0  0  0  0  0  0  0  0
    8.7313  -15.6562   21.5363 C   0  0  0  0  0  0  0  0  0  0  0  0
    9.9663  -15.7641   21.6787 O   0  0  0  0  0  0  0  0  0  0  0  0
    7.0469  -11.0299   26.9061 C   0  0  0  0  0  0  0  0  0  0  0  0
    6.3498  -12.7176   26.8163 S   0  0  0  0  0  0  0  0  0  0  0  0
    7.6307  -13.7825   26.0950 C   0  0  0  0  0  0  0  0  0  0  0  0
    7.2174  -14.0851   24.6785 C   0  0  0  0  0  0  0  0  0  0  0  0
    8.2988  -14.8192   23.8942 C   0  0  2  0  0  0  0  0  0  0  0  0
    7.8862  -15.1709   22.5568 N   0  0  0  0  0  0  0  0  0  0  0  0
    8.7281  -15.9747   24.6747 C   0  0  0  0  0  0  0  0  0  0  0  0
    7.9287  -16.9716   24.7051 O   0  0  0  0  0  0  0  0  0  0  0  0
   12.1005  -19.0677   26.0999 C   0  0  0  0  0  0  0  0  0  0  0  0
   11.6970  -17.7834   25.4207 C   0  0  1  0  0  0  0  0  0  0  0  0
   11.6263  -17.9425   24.0573 O   0  0  0  0  0  0  0  0  0  0  0  0
   10.3368  -17.3587   25.9314 C   0  0  2  0  0  0  0  0  0  0  0  0
    9.9221  -16.0917   25.3862 N   0  0  0  0  0  0  0  0  0  0  0  0
   10.3199  -17.2606   27.4222 C   0  0  0  0  0  0  0  0  0  0  0  0
   10.3804  -18.4068   28.2086 O   0  0  0  0  0  0  0  0  0  0  0  0
   10.2512  -16.1485   27.9953 O   0  0  0  0  0  0  0  0  0  0  0  0
  2  1  1  6
  2  5  1  0
  3  2  1  0
  3  4  1  0
  5  6  2  0
  8  7  1  0
  8  9  1  0
  9 10  1  0
 11 10  1  1
 11 13  1  0
 12  5  1  0
 12 11  1  0
 13 14  2  0
 13 19  1  0
 16 15  1  1
 16 17  1  0
 18 16  1  0
 18 20  1  0
 18 19  1  6
 20 21  1  0
 22 20  2  0
M  END
$$$$
