CMT.pdb
     RDKit          3D

 22 21  0  0  1  0  0  0  0  0999 V2000
    8.8374  -14.8755   18.9776 N   0  0  0  0  0  0  0  0  0  0  0  0
    7.9902  -15.3548   20.0352 C   0  0  1  0  0  0  0  0  0  0  0  0
    7.8733  -16.8752   19.9305 C   0  0  0  0  0  0  0  0  0  0  0  0
    7.1469  -17.3044   18.3457 S   0  0  0  0  0  0  0  0  0  0  0  0
    8.5431  -15.0092   21.3925 C   0  0  0  0  0  0  0  0  0  0  0  0
    9.7768  -14.8457   21.4835 O   0  0  0  0  0  0  0  0  0  0  0  0
    6.8517  -11.4455   28.1556 C   0  0  0  0  0  0  0  0  0  0  0  0
    6.2014  -12.1253   26.5880 S   0  0  0  0  0  0  0  0  0  0  0  0
    7.4658  -13.2515   25.9337 C   0  0  0  0  0  0  0  0  0  0  0  0
    7.0284  -13.6635   24.5524 C   0  0  0  0  0  0  0  0  0  0  0  0
    8.0660  -14.5219   23.8383 C   0  0  2  0  0  0  0  0  0  0  0  0
    7.6742  -14.8827   22.4971 N   0  0  0  0  0  0  0  0  0  0  0  0
    8.3552  -15.6828   24.6734 C   0  0  0  0  0  0  0  0  0  0  0  0
    7.4029  -16.5195   24.8369 O   0  0  0  0  0  0  0  0  0  0  0  0
   10.6771  -18.2877   23.8901 C   0  0  0  0  0  0  0  0  0  0  0  0
   10.9765  -17.9687   25.3331 C   0  0  1  0  0  0  0  0  0  0  0  0
   12.0914  -17.1729   25.4459 O   0  0  0  0  0  0  0  0  0  0  0  0
    9.7952  -17.2379   25.9347 C   0  0  2  0  0  0  0  0  0  0  0  0
    9.5666  -15.9625   25.3058 N   0  0  0  0  0  0  0  0  0  0  0  0
    9.9797  -17.0162   27.4007 C   0  0  0  0  0  0  0  0  0  0  0  0
   10.0763  -18.0951   28.2741 O   0  0  0  0  0  0  0  0  0  0  0  0
   10.0514  -15.8585   27.8747 O   0  0  0  0  0  0  0  0  0  0  0  0
  2  1  1  6
  2  5  1  0
  3  2  1  0
  3  4  1  0
  5  6  2  0
  8  7  1  0
  8  9  1  0
  9 10  1  0
 11 10  1  1
 11 13  1  0
 12  5  1  0
 12 11  1  0
 13 14  2  0
 13 19  1  0
 16 15  1  6
 16 17  1  0
 18 16  1  0
 18 20  1  0
 18 19  1  6
 20 21  1  0
 22 20  2  0
M  END
$$$$
