CMT.pdb
     RDKit          3D

 22 21  0  0  1  0  0  0  0  0999 V2000
    6.2752  -16.2131   20.5851 N   0  0  0  0  0  0  0  0  0  0  0  0
    7.6588  -15.9430   20.3047 C   0  0  1  0  0  0  0  0  0  0  0  0
    7.7479  -14.9236   19.1692 C   0  0  0  0  0  0  0  0  0  0  0  0
    6.3663  -13.7833   19.2888 S   0  0  0  0  0  0  0  0  0  0  0  0
    8.3727  -15.3842   21.5070 C   0  0  0  0  0  0  0  0  0  0  0  0
    9.6000  -15.1844   21.4023 O   0  0  0  0  0  0  0  0  0  0  0  0
    5.8267  -12.4599   27.7440 C   0  0  0  0  0  0  0  0  0  0  0  0
    6.8722  -11.6876   26.4582 S   0  0  0  0  0  0  0  0  0  0  0  0
    7.9825  -12.9797   25.8313 C   0  0  0  0  0  0  0  0  0  0  0  0
    7.3495  -13.5518   24.5899 C   0  0  0  0  0  0  0  0  0  0  0  0
    8.2189  -14.6095   23.9201 C   0  0  2  0  0  0  0  0  0  0  0  0
    7.6540  -15.1086   22.6896 N   0  0  0  0  0  0  0  0  0  0  0  0
    8.4841  -15.6673   24.8893 C   0  0  0  0  0  0  0  0  0  0  0  0
    7.4818  -16.3721   25.2533 O   0  0  0  0  0  0  0  0  0  0  0  0
   10.2763  -18.5566   24.1336 C   0  0  0  0  0  0  0  0  0  0  0  0
   10.8801  -18.1403   25.4511 C   0  0  1  0  0  0  0  0  0  0  0  0
   12.0724  -17.4821   25.2662 O   0  0  0  0  0  0  0  0  0  0  0  0
    9.9197  -17.2140   26.1659 C   0  0  2  0  0  0  0  0  0  0  0  0
    9.7219  -15.9789   25.4520 N   0  0  0  0  0  0  0  0  0  0  0  0
   10.3964  -16.8923   27.5449 C   0  0  0  0  0  0  0  0  0  0  0  0
   10.4714  -17.8838   28.5182 O   0  0  0  0  0  0  0  0  0  0  0  0
   10.7379  -15.7272   27.8547 O   0  0  0  0  0  0  0  0  0  0  0  0
  2  1  1  1
  2  5  1  0
  3  2  1  0
  3  4  1  0
  5  6  2  0
  8  7  1  0
  8  9  1  0
  9 10  1  0
 11 10  1  1
 11 13  1  0
 12  5  1  0
 12 11  1  0
 13 14  2  0
 13 19  1  0
 16 15  1  6
 16 17  1  0
 18 16  1  0
 18 20  1  0
 18 19  1  6
 20 21  1  0
 22 20  2  0
M  END
$$$$
