CMT.pdb
     RDKit          3D

 22 21  0  0  1  0  0  0  0  0999 V2000
    8.0653  -13.7275   19.0330 N   0  0  0  0  0  0  0  0  0  0  0  0
    7.3547  -14.4270   20.0682 C   0  0  1  0  0  0  0  0  0  0  0  0
    7.1910  -15.8906   19.6593 C   0  0  0  0  0  0  0  0  0  0  0  0
    6.2913  -16.7658   20.9430 S   0  0  0  0  0  0  0  0  0  0  0  0
    8.0896  -14.3758   21.3815 C   0  0  0  0  0  0  0  0  0  0  0  0
    9.3367  -14.3859   21.3404 O   0  0  0  0  0  0  0  0  0  0  0  0
    6.1905  -10.7937   26.5705 C   0  0  0  0  0  0  0  0  0  0  0  0
    6.4511  -12.4479   27.3041 S   0  0  0  0  0  0  0  0  0  0  0  0
    7.6561  -13.3093   26.2547 C   0  0  0  0  0  0  0  0  0  0  0  0
    7.0344  -13.4641   24.8915 C   0  0  0  0  0  0  0  0  0  0  0  0
    7.9432  -14.1947   23.9099 C   0  0  2  0  0  0  0  0  0  0  0  0
    7.3676  -14.3192   22.5925 N   0  0  0  0  0  0  0  0  0  0  0  0
    8.3063  -15.4827   24.4912 C   0  0  0  0  0  0  0  0  0  0  0  0
    7.3664  -16.3408   24.6092 O   0  0  0  0  0  0  0  0  0  0  0  0
   10.4379  -17.9879   23.0891 C   0  0  0  0  0  0  0  0  0  0  0  0
   10.9175  -17.8726   24.5140 C   0  0  1  0  0  0  0  0  0  0  0  0
   12.0616  -17.1152   24.5942 O   0  0  0  0  0  0  0  0  0  0  0  0
    9.8396  -17.2141   25.3481 C   0  0  2  0  0  0  0  0  0  0  0  0
    9.5758  -15.8621   24.9275 N   0  0  0  0  0  0  0  0  0  0  0  0
   10.2053  -17.1960   26.7967 C   0  0  0  0  0  0  0  0  0  0  0  0
   10.3641  -18.3845   27.5025 O   0  0  0  0  0  0  0  0  0  0  0  0
   10.3766  -16.1145   27.4060 O   0  0  0  0  0  0  0  0  0  0  0  0
  2  1  1  6
  2  5  1  0
  3  2  1  0
  3  4  1  0
  5  6  2  0
  8  7  1  0
  8  9  1  0
  9 10  1  0
 11 10  1  1
 11 13  1  0
 12  5  1  0
 12 11  1  0
 13 14  2  0
 13 19  1  0
 16 15  1  6
 16 17  1  0
 18 16  1  0
 18 20  1  0
 18 19  1  6
 20 21  1  0
 22 20  2  0
M  END
$$$$
