CMT.pdb
     RDKit          3D

 22 21  0  0  1  0  0  0  0  0999 V2000
    6.3620  -15.2779   19.6068 N   0  0  0  0  0  0  0  0  0  0  0  0
    6.1301  -15.9067   20.8783 C   0  0  1  0  0  0  0  0  0  0  0  0
    6.1725  -17.4241   20.6994 C   0  0  0  0  0  0  0  0  0  0  0  0
    4.5087  -18.0313   20.4054 S   0  0  0  0  0  0  0  0  0  0  0  0
    7.1718  -15.5147   21.8925 C   0  0  0  0  0  0  0  0  0  0  0  0
    8.3611  -15.4992   21.5150 O   0  0  0  0  0  0  0  0  0  0  0  0
    6.1784  -11.0870   26.4124 C   0  0  0  0  0  0  0  0  0  0  0  0
    7.0180  -12.3124   27.4782 S   0  0  0  0  0  0  0  0  0  0  0  0
    7.9461  -13.4216   26.3810 C   0  0  0  0  0  0  0  0  0  0  0  0
    6.9996  -13.8821   25.3035 C   0  0  0  0  0  0  0  0  0  0  0  0
    7.6758  -14.7732   24.2681 C   0  0  2  0  0  0  0  0  0  0  0  0
    6.7859  -15.1837   23.2088 N   0  0  0  0  0  0  0  0  0  0  0  0
    8.2860  -15.9023   24.9619 C   0  0  0  0  0  0  0  0  0  0  0  0
    7.4859  -16.7463   25.4921 O   0  0  0  0  0  0  0  0  0  0  0  0
   10.9126  -18.2028   23.4442 C   0  0  0  0  0  0  0  0  0  0  0  0
   11.3249  -17.9232   24.8674 C   0  0  1  0  0  0  0  0  0  0  0  0
   12.3327  -16.9901   24.9193 O   0  0  0  0  0  0  0  0  0  0  0  0
   10.1322  -17.3932   25.6341 C   0  0  2  0  0  0  0  0  0  0  0  0
    9.6528  -16.1446   25.0995 N   0  0  0  0  0  0  0  0  0  0  0  0
   10.4563  -17.1957   27.0792 C   0  0  0  0  0  0  0  0  0  0  0  0
   10.7522  -18.2839   27.8943 O   0  0  0  0  0  0  0  0  0  0  0  0
   10.4690  -16.0505   27.5875 O   0  0  0  0  0  0  0  0  0  0  0  0
  2  1  1  6
  2  5  1  0
  3  2  1  0
  3  4  1  0
  5  6  2  0
  8  7  1  0
  8  9  1  0
  9 10  1  0
 11 10  1  1
 11 13  1  0
 12  5  1  0
 12 11  1  0
 13 14  2  0
 13 19  1  0
 16 15  1  6
 16 17  1  0
 18 16  1  0
 18 20  1  0
 18 19  1  6
 20 21  1  0
 22 20  2  0
M  END
$$$$
