SIA.pdb
     RDKit          3D

 20 19  0  0  1  0  0  0  0  0999 V2000
   20.6116   -8.5564  -20.4886 O   0  0  0  0  0  0  0  0  0  0  0  0
   21.9163   -8.8806  -20.8458 C   0  0  0  0  0  0  0  0  0  0  0  0
   22.3243  -10.1914  -20.1583 C   0  0  2  0  0  0  0  0  0  0  0  0
   21.3368  -11.1774  -20.5488 N   0  0  0  0  0  0  0  0  0  0  0  0
   22.3382   -9.9850  -18.6807 C   0  0  0  0  0  0  0  0  0  0  0  0
   21.3510  -10.4579  -18.0344 O   0  0  0  0  0  0  0  0  0  0  0  0
   26.3175  -11.4041  -15.8168 C   0  0  0  0  0  0  0  0  0  0  0  0
   24.9476  -10.9935  -16.2463 C   0  0  0  0  0  0  0  0  0  0  0  0
   24.7312   -9.4808  -16.0113 C   0  0  2  0  0  0  0  0  0  0  0  0
   24.7226   -9.3035  -14.5125 C   0  0  0  0  0  0  0  0  0  0  0  0
   23.3566   -9.1363  -16.5499 C   0  0  2  0  0  0  0  0  0  0  0  0
   23.3737   -9.3078  -18.0111 N   0  0  0  0  0  0  0  0  0  0  0  0
   22.9799   -7.7554  -16.2163 C   0  0  0  0  0  0  0  0  0  0  0  0
   23.7499   -6.8301  -16.6762 O   0  0  0  0  0  0  0  0  0  0  0  0
   20.1160   -5.7543  -15.1249 C   0  0  0  0  0  0  0  0  0  0  0  0
   21.6150   -5.8977  -15.2534 C   0  0  2  0  0  0  0  0  0  0  0  0
   21.8919   -7.3048  -15.4665 N   0  0  0  0  0  0  0  0  0  0  0  0
   22.3339   -5.3543  -14.0850 C   0  0  0  0  0  0  0  0  0  0  0  0
   22.5973   -6.1138  -13.1302 O   0  0  0  0  0  0  0  0  0  0  0  0
   22.7233   -4.0362  -14.0150 O   0  0  0  0  0  0  0  0  0  0  0  0
  2  1  1  0
  2  3  1  0
  3  4  1  1
  5  6  2  0
  5  3  1  0
  8  7  1  0
  8  9  1  0
  9 11  1  0
  9 10  1  1
 11 12  1  6
 11 13  1  0
 12  5  1  0
 13 17  1  0
 14 13  2  0
 16 15  1  1
 16 18  1  0
 17 16  1  0
 18 19  2  0
 18 20  1  0
M  END
$$$$
