SIA.pdb
     RDKit          3D

 20 19  0  0  1  0  0  0  0  0999 V2000
   20.2905  -12.8371  -21.5775 O   0  0  0  0  0  0  0  0  0  0  0  0
   20.1540  -12.3328  -20.2883 C   0  0  0  0  0  0  0  0  0  0  0  0
   20.7636  -13.3220  -19.2847 C   0  0  2  0  0  0  0  0  0  0  0  0
   19.8177  -14.4134  -19.1669 N   0  0  0  0  0  0  0  0  0  0  0  0
   20.9677  -12.6301  -17.9785 C   0  0  0  0  0  0  0  0  0  0  0  0
   19.9733  -12.6124  -17.1867 O   0  0  0  0  0  0  0  0  0  0  0  0
   25.4900  -13.3279  -15.4179 C   0  0  0  0  0  0  0  0  0  0  0  0
   24.0459  -13.0584  -15.6852 C   0  0  0  0  0  0  0  0  0  0  0  0
   23.7978  -11.5439  -15.8729 C   0  0  2  0  0  0  0  0  0  0  0  0
   23.9679  -10.9353  -14.5023 C   0  0  0  0  0  0  0  0  0  0  0  0
   22.3539  -11.3768  -16.3037 C   0  0  2  0  0  0  0  0  0  0  0  0
   22.1828  -12.0213  -17.6152 N   0  0  0  0  0  0  0  0  0  0  0  0
   21.9817   -9.9579  -16.3952 C   0  0  0  0  0  0  0  0  0  0  0  0
   22.6694   -9.2427  -17.2174 O   0  0  0  0  0  0  0  0  0  0  0  0
   19.2361   -7.6815  -16.0471 C   0  0  0  0  0  0  0  0  0  0  0  0
   20.7289   -7.8566  -15.8893 C   0  0  2  0  0  0  0  0  0  0  0  0
   20.9753   -9.2741  -15.7107 N   0  0  0  0  0  0  0  0  0  0  0  0
   21.2761   -7.0475  -14.7833 C   0  0  0  0  0  0  0  0  0  0  0  0
   21.5652   -7.6106  -13.7077 O   0  0  0  0  0  0  0  0  0  0  0  0
   21.4779   -5.6912  -14.9007 O   0  0  0  0  0  0  0  0  0  0  0  0
  2  1  1  0
  2  3  1  0
  3  4  1  1
  5  6  2  0
  5  3  1  0
  8  7  1  0
  8  9  1  0
  9 11  1  0
  9 10  1  1
 11 12  1  6
 11 13  1  0
 12  5  1  0
 13 17  1  0
 14 13  2  0
 16 15  1  1
 16 18  1  0
 17 16  1  0
 18 19  2  0
 18 20  1  0
M  END
$$$$
