SIA.pdb
     RDKit          3D

 20 19  0  0  1  0  0  0  0  0999 V2000
   18.8362  -11.2976  -20.9285 O   0  0  0  0  0  0  0  0  0  0  0  0
   18.6490  -10.6960  -19.6883 C   0  0  0  0  0  0  0  0  0  0  0  0
   19.6214  -11.3086  -18.6703 C   0  0  2  0  0  0  0  0  0  0  0  0
   19.1492  -12.6554  -18.4195 N   0  0  0  0  0  0  0  0  0  0  0  0
   19.6116  -10.4838  -17.4270 C   0  0  0  0  0  0  0  0  0  0  0  0
   18.6962  -10.7430  -16.5838 O   0  0  0  0  0  0  0  0  0  0  0  0
   23.4013  -10.1418  -14.0646 C   0  0  0  0  0  0  0  0  0  0  0  0
   22.0826  -10.0615  -14.7605 C   0  0  0  0  0  0  0  0  0  0  0  0
   21.8321   -8.6322  -15.2941 C   0  0  2  0  0  0  0  0  0  0  0  0
   21.7680   -7.7512  -14.0705 C   0  0  0  0  0  0  0  0  0  0  0  0
   20.4714   -8.6361  -15.9626 C   0  0  2  0  0  0  0  0  0  0  0  0
   20.5511   -9.4678  -17.1738 N   0  0  0  0  0  0  0  0  0  0  0  0
   20.0456   -7.2759  -16.3214 C   0  0  0  0  0  0  0  0  0  0  0  0
   20.8817   -6.5841  -17.0162 O   0  0  0  0  0  0  0  0  0  0  0  0
   17.0764   -5.1359  -16.5707 C   0  0  0  0  0  0  0  0  0  0  0  0
   18.5739   -5.2591  -16.4081 C   0  0  2  0  0  0  0  0  0  0  0  0
   18.8488   -6.6266  -16.0130 N   0  0  0  0  0  0  0  0  0  0  0  0
   19.1180   -4.2773  -15.4503 C   0  0  0  0  0  0  0  0  0  0  0  0
   19.3178   -4.6307  -14.2700 O   0  0  0  0  0  0  0  0  0  0  0  0
   19.4124   -2.9841  -15.8175 O   0  0  0  0  0  0  0  0  0  0  0  0
  2  1  1  0
  2  3  1  0
  3  4  1  1
  5  6  2  0
  5  3  1  0
  8  7  1  0
  8  9  1  0
  9 11  1  0
  9 10  1  1
 11 12  1  6
 11 13  1  0
 12  5  1  0
 13 17  1  0
 14 13  2  0
 16 15  1  1
 16 18  1  0
 17 16  1  0
 18 19  2  0
 18 20  1  0
M  END
$$$$
