SIA.pdb
     RDKit          3D

 20 19  0  0  1  0  0  0  0  0999 V2000
   17.5495  -12.4494  -19.7398 O   0  0  0  0  0  0  0  0  0  0  0  0
   17.6629  -11.6718  -18.5920 C   0  0  0  0  0  0  0  0  0  0  0  0
   18.7077  -12.2932  -17.6541 C   0  0  2  0  0  0  0  0  0  0  0  0
   18.1073  -13.5001  -17.1226 N   0  0  0  0  0  0  0  0  0  0  0  0
   19.0329  -11.3199  -16.5710 C   0  0  0  0  0  0  0  0  0  0  0  0
   18.3223  -11.3863  -15.5190 O   0  0  0  0  0  0  0  0  0  0  0  0
   23.7501  -10.8002  -14.6383 C   0  0  0  0  0  0  0  0  0  0  0  0
   22.2733  -10.7530  -14.8537 C   0  0  0  0  0  0  0  0  0  0  0  0
   21.8407   -9.3630  -15.3741 C   0  0  2  0  0  0  0  0  0  0  0  0
   22.1319   -8.4026  -14.2469 C   0  0  0  0  0  0  0  0  0  0  0  0
   20.3417   -9.4141  -15.5947 C   0  0  2  0  0  0  0  0  0  0  0  0
   20.0639  -10.3689  -16.6793 N   0  0  0  0  0  0  0  0  0  0  0  0
   19.8054   -8.0920  -15.9474 C   0  0  0  0  0  0  0  0  0  0  0  0
   20.3615   -7.5028  -16.9495 O   0  0  0  0  0  0  0  0  0  0  0  0
   16.8976   -5.9050  -15.3680 C   0  0  0  0  0  0  0  0  0  0  0  0
   18.3337   -6.0783  -15.8055 C   0  0  2  0  0  0  0  0  0  0  0  0
   18.7658   -7.3826  -15.3432 N   0  0  0  0  0  0  0  0  0  0  0  0
   19.2051   -4.9921  -15.3175 C   0  0  0  0  0  0  0  0  0  0  0  0
   19.1031   -3.8586  -15.8300 O   0  0  0  0  0  0  0  0  0  0  0  0
   20.1267   -5.1895  -14.3147 O   0  0  0  0  0  0  0  0  0  0  0  0
  2  1  1  0
  2  3  1  0
  3  4  1  1
  5  6  2  0
  5  3  1  0
  8  7  1  0
  8  9  1  0
  9 11  1  0
  9 10  1  1
 11 12  1  6
 11 13  1  0
 12  5  1  0
 13 17  1  0
 14 13  2  0
 16 15  1  1
 16 18  1  0
 17 16  1  0
 18 19  2  0
 18 20  1  0
M  END
$$$$
