SIA.pdb
     RDKit          3D

 20 19  0  0  1  0  0  0  0  0999 V2000
   19.0696  -10.2089  -14.3878 O   0  0  0  0  0  0  0  0  0  0  0  0
   18.1000   -9.2910  -13.9975 C   0  0  0  0  0  0  0  0  0  0  0  0
   17.0824   -9.9813  -13.0781 C   0  0  2  0  0  0  0  0  0  0  0  0
   16.3449  -10.9072  -13.9139 N   0  0  0  0  0  0  0  0  0  0  0  0
   16.1858   -8.9498  -12.4794 C   0  0  0  0  0  0  0  0  0  0  0  0
   15.1364   -8.6625  -13.1369 O   0  0  0  0  0  0  0  0  0  0  0  0
   13.9338   -9.1290   -7.8068 C   0  0  0  0  0  0  0  0  0  0  0  0
   14.1930   -8.6889   -9.2099 C   0  0  0  0  0  0  0  0  0  0  0  0
   15.2987   -7.6090   -9.2488 C   0  0  2  0  0  0  0  0  0  0  0  0
   14.6984   -6.3941   -8.5844 C   0  0  0  0  0  0  0  0  0  0  0  0
   15.5589   -7.2872  -10.7073 C   0  0  2  0  0  0  0  0  0  0  0  0
   16.4604   -8.3126  -11.2557 N   0  0  0  0  0  0  0  0  0  0  0  0
   16.1654   -5.9576  -10.8638 C   0  0  0  0  0  0  0  0  0  0  0  0
   17.3582   -5.8192  -10.3963 O   0  0  0  0  0  0  0  0  0  0  0  0
   16.3620   -3.2257  -13.0696 C   0  0  0  0  0  0  0  0  0  0  0  0
   16.3657   -3.5788  -11.6001 C   0  0  2  0  0  0  0  0  0  0  0  0
   15.6235   -4.8159  -11.4571 N   0  0  0  0  0  0  0  0  0  0  0  0
   15.8196   -2.4955  -10.7602 C   0  0  0  0  0  0  0  0  0  0  0  0
   14.6591   -2.6033  -10.3136 O   0  0  0  0  0  0  0  0  0  0  0  0
   16.5497   -1.3699  -10.4536 O   0  0  0  0  0  0  0  0  0  0  0  0
  2  1  1  0
  2  3  1  0
  3  4  1  6
  5  6  2  0
  5  3  1  0
  8  7  1  0
  8  9  1  0
  9 11  1  0
  9 10  1  1
 11 12  1  1
 11 13  1  0
 12  5  1  0
 13 17  1  0
 14 13  2  0
 16 15  1  6
 16 18  1  0
 17 16  1  0
 18 19  2  0
 18 20  1  0
M  END
$$$$
