SIA.pdb
     RDKit          3D

 20 19  0  0  1  0  0  0  0  0999 V2000
   25.0029  -12.6420  -15.2373 O   0  0  0  0  0  0  0  0  0  0  0  0
   24.4930  -11.4282  -15.6864 C   0  0  0  0  0  0  0  0  0  0  0  0
   23.2582  -11.6845  -16.5621 C   0  0  2  0  0  0  0  0  0  0  0  0
   23.7487  -12.2794  -17.7891 N   0  0  0  0  0  0  0  0  0  0  0  0
   22.5643  -10.3891  -16.8203 C   0  0  0  0  0  0  0  0  0  0  0  0
   22.9587   -9.7282  -17.8321 O   0  0  0  0  0  0  0  0  0  0  0  0
   17.4514  -10.1785  -16.7747 C   0  0  0  0  0  0  0  0  0  0  0  0
   18.7794   -9.6194  -17.1664 C   0  0  0  0  0  0  0  0  0  0  0  0
   19.3791   -8.7776  -16.0166 C   0  0  2  0  0  0  0  0  0  0  0  0
   18.7203   -7.4239  -16.1228 C   0  0  0  0  0  0  0  0  0  0  0  0
   20.8600   -8.6218  -16.3010 C   0  0  2  0  0  0  0  0  0  0  0  0
   21.5268   -9.8997  -16.0059 N   0  0  0  0  0  0  0  0  0  0  0  0
   21.4535   -7.5520  -15.4865 C   0  0  0  0  0  0  0  0  0  0  0  0
   21.4819   -7.7565  -14.2146 O   0  0  0  0  0  0  0  0  0  0  0  0
   23.6305   -4.6044  -15.8117 C   0  0  0  0  0  0  0  0  0  0  0  0
   22.6490   -5.4140  -14.9960 C   0  0  2  0  0  0  0  0  0  0  0  0
   21.9980   -6.3367  -15.9053 N   0  0  0  0  0  0  0  0  0  0  0  0
   21.6843   -4.5643  -14.2717 C   0  0  0  0  0  0  0  0  0  0  0  0
   20.5649   -4.3512  -14.7809 O   0  0  0  0  0  0  0  0  0  0  0  0
   21.9801   -3.9993  -13.0522 O   0  0  0  0  0  0  0  0  0  0  0  0
  2  1  1  0
  2  3  1  0
  3  4  1  6
  5  6  2  0
  5  3  1  0
  8  7  1  0
  8  9  1  0
  9 11  1  0
  9 10  1  6
 11 12  1  1
 11 13  1  0
 12  5  1  0
 13 17  1  0
 14 13  2  0
 16 15  1  6
 16 18  1  0
 17 16  1  0
 18 19  2  0
 18 20  1  0
M  END
$$$$
