SIA.pdb
     RDKit          3D

 20 19  0  0  1  0  0  0  0  0999 V2000
   20.1668  -11.3676  -20.6390 O   0  0  0  0  0  0  0  0  0  0  0  0
   20.3567  -10.9154  -19.3372 C   0  0  0  0  0  0  0  0  0  0  0  0
   21.5100  -11.6939  -18.6883 C   0  0  2  0  0  0  0  0  0  0  0  0
   20.9813  -13.0028  -18.3614 N   0  0  0  0  0  0  0  0  0  0  0  0
   21.9655  -10.9662  -17.4678 C   0  0  0  0  0  0  0  0  0  0  0  0
   21.3168  -11.1943  -16.3986 O   0  0  0  0  0  0  0  0  0  0  0  0
   26.8503  -11.2253  -15.9942 C   0  0  0  0  0  0  0  0  0  0  0  0
   25.3706  -11.0277  -16.0254 C   0  0  0  0  0  0  0  0  0  0  0  0
   25.0221   -9.5283  -16.1697 C   0  0  2  0  0  0  0  0  0  0  0  0
   25.5013   -8.8791  -14.8943 C   0  0  0  0  0  0  0  0  0  0  0  0
   23.5110   -9.4238  -16.2308 C   0  0  2  0  0  0  0  0  0  0  0  0
   23.0502  -10.0705  -17.4695 N   0  0  0  0  0  0  0  0  0  0  0  0
   23.0683   -8.0226  -16.2077 C   0  0  0  0  0  0  0  0  0  0  0  0
   23.4954   -7.2765  -17.1676 O   0  0  0  0  0  0  0  0  0  0  0  0
   20.3459   -5.9482  -15.1223 C   0  0  0  0  0  0  0  0  0  0  0  0
   21.8260   -6.0022  -15.4230 C   0  0  2  0  0  0  0  0  0  0  0  0
   22.2393   -7.3847  -15.2831 N   0  0  0  0  0  0  0  0  0  0  0  0
   22.6078   -5.0922  -14.5640 C   0  0  0  0  0  0  0  0  0  0  0  0
   23.1642   -5.5514  -13.5454 O   0  0  0  0  0  0  0  0  0  0  0  0
   22.7429   -3.7530  -14.8505 O   0  0  0  0  0  0  0  0  0  0  0  0
  2  1  1  0
  2  3  1  0
  3  4  1  1
  5  6  2  0
  5  3  1  0
  8  7  1  0
  8  9  1  0
  9 11  1  0
  9 10  1  1
 11 12  1  6
 11 13  1  0
 12  5  1  0
 13 17  1  0
 14 13  2  0
 16 15  1  1
 16 18  1  0
 17 16  1  0
 18 19  2  0
 18 20  1  0
M  END
$$$$
