SIA.pdb
     RDKit          3D

 20 19  0  0  1  0  0  0  0  0999 V2000
   18.4619   -8.1675  -18.8506 O   0  0  0  0  0  0  0  0  0  0  0  0
   19.0585   -9.2609  -19.4699 C   0  0  0  0  0  0  0  0  0  0  0  0
   19.0918  -10.4462  -18.4946 C   0  0  2  0  0  0  0  0  0  0  0  0
   17.7094  -10.7826  -18.2193 N   0  0  0  0  0  0  0  0  0  0  0  0
   19.8142  -10.0389  -17.2543 C   0  0  0  0  0  0  0  0  0  0  0  0
   19.1089   -9.9151  -16.2039 O   0  0  0  0  0  0  0  0  0  0  0  0
   24.3272  -12.3843  -16.0390 C   0  0  0  0  0  0  0  0  0  0  0  0
   23.0267  -11.6557  -15.9536 C   0  0  0  0  0  0  0  0  0  0  0  0
   23.2540  -10.1266  -15.9760 C   0  0  2  0  0  0  0  0  0  0  0  0
   23.9609   -9.8058  -14.6817 C   0  0  0  0  0  0  0  0  0  0  0  0
   21.8875   -9.4705  -15.9595 C   0  0  2  0  0  0  0  0  0  0  0  0
   21.1997   -9.7978  -17.2184 N   0  0  0  0  0  0  0  0  0  0  0  0
   21.9940   -8.0116  -15.8164 C   0  0  0  0  0  0  0  0  0  0  0  0
   22.7921   -7.4178  -16.6355 O   0  0  0  0  0  0  0  0  0  0  0  0
   20.2434   -5.0623  -15.0063 C   0  0  0  0  0  0  0  0  0  0  0  0
   21.5821   -5.7457  -14.8486 C   0  0  2  0  0  0  0  0  0  0  0  0
   21.3414   -7.1740  -14.9101 N   0  0  0  0  0  0  0  0  0  0  0  0
   22.2750   -5.3454  -13.6089 C   0  0  0  0  0  0  0  0  0  0  0  0
   22.8188   -4.2232  -13.5555 O   0  0  0  0  0  0  0  0  0  0  0  0
   22.3405   -6.1706  -12.5095 O   0  0  0  0  0  0  0  0  0  0  0  0
  2  1  1  0
  2  3  1  0
  3  4  1  1
  5  6  2  0
  5  3  1  0
  8  7  1  0
  8  9  1  0
  9 11  1  0
  9 10  1  1
 11 12  1  6
 11 13  1  0
 12  5  1  0
 13 17  1  0
 14 13  2  0
 16 15  1  1
 16 18  1  0
 17 16  1  0
 18 19  2  0
 18 20  1  0
M  END
$$$$
