SIA.pdb
     RDKit          3D

 20 19  0  0  1  0  0  0  0  0999 V2000
   24.9125   -7.8440  -21.3460 O   0  0  0  0  0  0  0  0  0  0  0  0
   23.9080   -7.5783  -20.4210 C   0  0  0  0  0  0  0  0  0  0  0  0
   23.5375   -8.8722  -19.6822 C   0  0  2  0  0  0  0  0  0  0  0  0
   22.8359   -9.6998  -20.6426 N   0  0  0  0  0  0  0  0  0  0  0  0
   22.6736   -8.5373  -18.5127 C   0  0  0  0  0  0  0  0  0  0  0  0
   21.4180   -8.6039  -18.6998 O   0  0  0  0  0  0  0  0  0  0  0  0
   23.3417  -11.0845  -14.3143 C   0  0  0  0  0  0  0  0  0  0  0  0
   22.7295  -10.2106  -15.3590 C   0  0  0  0  0  0  0  0  0  0  0  0
   22.7930   -8.7252  -14.9353 C   0  0  2  0  0  0  0  0  0  0  0  0
   21.8020   -8.5861  -13.8055 C   0  0  0  0  0  0  0  0  0  0  0  0
   22.3072   -7.9027  -16.1125 C   0  0  2  0  0  0  0  0  0  0  0  0
   23.1915   -8.1647  -17.2589 N   0  0  0  0  0  0  0  0  0  0  0  0
   22.3097   -6.4663  -15.8014 C   0  0  0  0  0  0  0  0  0  0  0  0
   23.4267   -5.9779  -15.3840 O   0  0  0  0  0  0  0  0  0  0  0  0
   20.2111   -3.4330  -16.1985 C   0  0  0  0  0  0  0  0  0  0  0  0
   21.4293   -4.1337  -15.6428 C   0  0  2  0  0  0  0  0  0  0  0  0
   21.2606   -5.5505  -15.9001 N   0  0  0  0  0  0  0  0  0  0  0  0
   21.6408   -3.8438  -14.2115 C   0  0  0  0  0  0  0  0  0  0  0  0
   22.1542   -2.7541  -13.8848 O   0  0  0  0  0  0  0  0  0  0  0  0
   21.2895   -4.7372  -13.2254 O   0  0  0  0  0  0  0  0  0  0  0  0
  2  1  1  0
  2  3  1  0
  3  4  1  6
  5  6  2  0
  5  3  1  0
  8  7  1  0
  8  9  1  0
  9 11  1  0
  9 10  1  1
 11 12  1  6
 11 13  1  0
 12  5  1  0
 13 17  1  0
 14 13  2  0
 16 15  1  1
 16 18  1  0
 17 16  1  0
 18 19  2  0
 18 20  1  0
M  END
$$$$
