SIA.pdb
     RDKit          3D

 20 19  0  0  1  0  0  0  0  0999 V2000
   18.4346   -8.2255  -20.5848 O   0  0  0  0  0  0  0  0  0  0  0  0
   18.4685   -7.9992  -19.2127 C   0  0  0  0  0  0  0  0  0  0  0  0
   18.7925   -9.3120  -18.4854 C   0  0  2  0  0  0  0  0  0  0  0  0
   17.5648  -10.0818  -18.4741 N   0  0  0  0  0  0  0  0  0  0  0  0
   19.2582   -9.0026  -17.1021 C   0  0  0  0  0  0  0  0  0  0  0  0
   18.3624   -8.9549  -16.2013 O   0  0  0  0  0  0  0  0  0  0  0  0
   23.0912  -11.5489  -14.8603 C   0  0  0  0  0  0  0  0  0  0  0  0
   21.8911  -10.6950  -15.1061 C   0  0  0  0  0  0  0  0  0  0  0  0
   22.2693   -9.1964  -15.0690 C   0  0  2  0  0  0  0  0  0  0  0  0
   22.6389   -8.9100  -13.6341 C   0  0  0  0  0  0  0  0  0  0  0  0
   21.0201   -8.4107  -15.4159 C   0  0  2  0  0  0  0  0  0  0  0  0
   20.6084   -8.7716  -16.7816 N   0  0  0  0  0  0  0  0  0  0  0  0
   21.2569   -6.9625  -15.3348 C   0  0  0  0  0  0  0  0  0  0  0  0
   22.2088   -6.5010  -16.0705 O   0  0  0  0  0  0  0  0  0  0  0  0
   19.6656   -3.8428  -14.2026 C   0  0  0  0  0  0  0  0  0  0  0  0
   20.9110   -4.5982  -14.6058 C   0  0  2  0  0  0  0  0  0  0  0  0
   20.5845   -6.0102  -14.5667 N   0  0  0  0  0  0  0  0  0  0  0  0
   22.0702   -4.2657  -13.7555 C   0  0  0  0  0  0  0  0  0  0  0  0
   22.3244   -4.9884  -12.7701 O   0  0  0  0  0  0  0  0  0  0  0  0
   22.8801   -3.1837  -14.0149 O   0  0  0  0  0  0  0  0  0  0  0  0
  2  1  1  0
  2  3  1  0
  3  4  1  1
  5  6  2  0
  5  3  1  0
  8  7  1  0
  8  9  1  0
  9 11  1  0
  9 10  1  1
 11 12  1  6
 11 13  1  0
 12  5  1  0
 13 17  1  0
 14 13  2  0
 16 15  1  1
 16 18  1  0
 17 16  1  0
 18 19  2  0
 18 20  1  0
M  END
$$$$
