YGF.pdb
     RDKit          3D

 28 29  0  0  1  0  0  0  0  0999 V2000
    7.9700  -13.1724   16.1490 O   0  0  0  0  0  0  0  0  0  0  0  0
    7.7419  -13.6183   17.4415 C   0  0  0  0  0  0  0  0  0  0  0  0
    7.0686  -14.7744   17.6925 C   0  0  0  0  0  0  0  0  0  0  0  0
    6.8492  -15.2058   18.9909 C   0  0  0  0  0  0  0  0  0  0  0  0
    7.3130  -14.4654   20.0619 C   0  0  0  0  0  0  0  0  0  0  0  0
    7.0923  -14.9041   21.4753 C   0  0  0  0  0  0  0  0  0  0  0  0
    8.4590  -15.1926   22.0533 C   0  0  2  0  0  0  0  0  0  0  0  0
    9.2135  -15.8999   21.0346 N   0  0  0  0  0  0  0  0  0  0  0  0
    8.4123  -15.9148   23.3259 C   0  0  0  0  0  0  0  0  0  0  0  0
    7.6346  -15.5194   24.2258 O   0  0  0  0  0  0  0  0  0  0  0  0
    7.9955  -13.2918   19.7713 C   0  0  0  0  0  0  0  0  0  0  0  0
    8.2132  -12.8640   18.4855 C   0  0  0  0  0  0  0  0  0  0  0  0
    9.2203  -17.0518   23.5774 N   0  0  0  0  0  0  0  0  0  0  0  0
    9.2009  -17.7574   24.8431 C   0  0  0  0  0  0  0  0  0  0  0  0
    9.9322  -16.9630   25.8546 C   0  0  0  0  0  0  0  0  0  0  0  0
   11.1557  -16.7176   25.6741 O   0  0  0  0  0  0  0  0  0  0  0  0
    9.3473  -16.4514   27.0277 N   0  0  0  0  0  0  0  0  0  0  0  0
   10.1428  -15.6964   27.9726 C   0  0  1  0  0  0  0  0  0  0  0  0
    9.2194  -14.6721   28.5879 C   0  0  0  0  0  0  0  0  0  0  0  0
    8.4953  -13.8550   27.6111 C   0  0  0  0  0  0  0  0  0  0  0  0
    7.1850  -14.1462   27.3273 C   0  0  0  0  0  0  0  0  0  0  0  0
    6.4808  -13.4021   26.4227 C   0  0  0  0  0  0  0  0  0  0  0  0
    7.1241  -12.3426   25.7966 C   0  0  0  0  0  0  0  0  0  0  0  0
    8.4347  -12.0446   26.0747 C   0  0  0  0  0  0  0  0  0  0  0  0
    9.1137  -12.8039   26.9820 C   0  0  0  0  0  0  0  0  0  0  0  0
   10.8102  -16.5629   28.9581 C   0  0  0  0  0  0  0  0  0  0  0  0
   11.5909  -16.0827   29.8152 O   0  0  0  0  0  0  0  0  0  0  0  0
   10.6004  -17.9292   28.9726 O   0  0  0  0  0  0  0  0  0  0  0  0
  2  3  2  0
  2  1  1  0
  4  3  1  0
  5  4  2  0
  6  5  1  0
  7  6  1  0
  7  8  1  6
  9 10  2  0
  9  7  1  0
 11  5  1  0
 11 12  2  0
 12  2  1  0
 13  9  1  0
 14 15  1  0
 14 13  1  0
 15 16  2  0
 17 15  1  0
 17 18  1  0
 18 19  1  1
 19 20  1  0
 20 21  2  0
 21 22  1  0
 23 22  2  0
 24 23  1  0
 25 24  2  0
 25 20  1  0
 26 28  1  0
 26 18  1  0
 27 26  2  0
M  END
$$$$
