YGF.pdb
     RDKit          3D

 28 29  0  0  1  0  0  0  0  0999 V2000
    9.2045  -13.1117   17.2840 O   0  0  0  0  0  0  0  0  0  0  0  0
    8.4309  -13.7259   18.2565 C   0  0  0  0  0  0  0  0  0  0  0  0
    7.8621  -13.0197   19.2717 C   0  0  0  0  0  0  0  0  0  0  0  0
    7.0915  -13.6496   20.2358 C   0  0  0  0  0  0  0  0  0  0  0  0
    6.8849  -15.0152   20.1840 C   0  0  0  0  0  0  0  0  0  0  0  0
    6.0581  -15.7246   21.2096 C   0  0  0  0  0  0  0  0  0  0  0  0
    6.6303  -15.3483   22.5572 C   0  0  2  0  0  0  0  0  0  0  0  0
    6.9595  -13.9356   22.5026 N   0  0  0  0  0  0  0  0  0  0  0  0
    7.7670  -16.1786   22.9594 C   0  0  0  0  0  0  0  0  0  0  0  0
    7.5735  -17.3830   23.2476 O   0  0  0  0  0  0  0  0  0  0  0  0
    7.4789  -15.7055   19.1360 C   0  0  0  0  0  0  0  0  0  0  0  0
    8.2423  -15.0823   18.1808 C   0  0  0  0  0  0  0  0  0  0  0  0
    9.0861  -15.6654   23.0348 N   0  0  0  0  0  0  0  0  0  0  0  0
   10.2005  -16.4493   23.5282 C   0  0  0  0  0  0  0  0  0  0  0  0
   10.4599  -16.0921   24.9404 C   0  0  0  0  0  0  0  0  0  0  0  0
   11.5177  -15.4707   25.2312 O   0  0  0  0  0  0  0  0  0  0  0  0
    9.5921  -16.4029   26.0035 N   0  0  0  0  0  0  0  0  0  0  0  0
    9.9603  -16.0817   27.3662 C   0  0  1  0  0  0  0  0  0  0  0  0
    8.7076  -15.5749   28.0404 C   0  0  0  0  0  0  0  0  0  0  0  0
    8.1207  -14.3935   27.4034 C   0  0  0  0  0  0  0  0  0  0  0  0
    6.9426  -14.5156   26.7111 C   0  0  0  0  0  0  0  0  0  0  0  0
    6.3679  -13.4324   26.1072 C   0  0  0  0  0  0  0  0  0  0  0  0
    7.0059  -12.2034   26.2114 C   0  0  0  0  0  0  0  0  0  0  0  0
    8.1847  -12.0726   26.9021 C   0  0  0  0  0  0  0  0  0  0  0  0
    8.7361  -13.1703   27.4951 C   0  0  0  0  0  0  0  0  0  0  0  0
   10.5884  -17.2197   28.0576 C   0  0  0  0  0  0  0  0  0  0  0  0
   11.0430  -17.0965   29.2207 O   0  0  0  0  0  0  0  0  0  0  0  0
   10.6983  -18.4571   27.4514 O   0  0  0  0  0  0  0  0  0  0  0  0
  2  3  2  0
  2  1  1  0
  4  3  1  0
  5  4  2  0
  6  5  1  0
  7  6  1  0
  7  8  1  6
  9 10  2  0
  9  7  1  0
 11  5  1  0
 11 12  2  0
 12  2  1  0
 13  9  1  0
 14 15  1  0
 14 13  1  0
 15 16  2  0
 17 15  1  0
 17 18  1  0
 18 19  1  1
 19 20  1  0
 20 21  2  0
 21 22  1  0
 23 22  2  0
 24 23  1  0
 25 24  2  0
 25 20  1  0
 26 28  1  0
 26 18  1  0
 27 26  2  0
M  END
$$$$
