YGF.pdb
     RDKit          3D

 28 29  0  0  1  0  0  0  0  0999 V2000
    8.1666  -13.1632   15.6275 O   0  0  0  0  0  0  0  0  0  0  0  0
    7.8966  -13.5883   16.9189 C   0  0  0  0  0  0  0  0  0  0  0  0
    8.3028  -12.8783   18.0069 C   0  0  0  0  0  0  0  0  0  0  0  0
    8.0244  -13.3176   19.2913 C   0  0  0  0  0  0  0  0  0  0  0  0
    7.3246  -14.4924   19.4925 C   0  0  0  0  0  0  0  0  0  0  0  0
    7.0083  -14.9934   20.8664 C   0  0  0  0  0  0  0  0  0  0  0  0
    8.2772  -15.6205   21.3971 C   0  0  2  0  0  0  0  0  0  0  0  0
    8.6713  -16.6516   20.4544 N   0  0  0  0  0  0  0  0  0  0  0  0
    8.1494  -16.1244   22.7657 C   0  0  0  0  0  0  0  0  0  0  0  0
    7.8546  -15.3268   23.6865 O   0  0  0  0  0  0  0  0  0  0  0  0
    6.9249  -15.1922   18.3619 C   0  0  0  0  0  0  0  0  0  0  0  0
    7.2004  -14.7576   17.0896 C   0  0  0  0  0  0  0  0  0  0  0  0
    8.3486  -17.4903   23.0877 N   0  0  0  0  0  0  0  0  0  0  0  0
    8.3291  -17.9806   24.4512 C   0  0  0  0  0  0  0  0  0  0  0  0
    9.4625  -17.3906   25.1971 C   0  0  0  0  0  0  0  0  0  0  0  0
   10.5971  -17.3405   24.6495 O   0  0  0  0  0  0  0  0  0  0  0  0
    9.3621  -16.8707   26.5008 N   0  0  0  0  0  0  0  0  0  0  0  0
   10.5303  -16.3346   27.1667 C   0  0  1  0  0  0  0  0  0  0  0  0
   10.5521  -14.8544   26.8686 C   0  0  0  0  0  0  0  0  0  0  0  0
    9.3335  -14.1453   27.2665 C   0  0  0  0  0  0  0  0  0  0  0  0
    9.3620  -13.3158   28.3589 C   0  0  0  0  0  0  0  0  0  0  0  0
    8.2430  -12.6382   28.7549 C   0  0  0  0  0  0  0  0  0  0  0  0
    7.0747  -12.8098   28.0242 C   0  0  0  0  0  0  0  0  0  0  0  0
    7.0376  -13.6377   26.9302 C   0  0  0  0  0  0  0  0  0  0  0  0
    8.1692  -14.3018   26.5571 C   0  0  0  0  0  0  0  0  0  0  0  0
   10.5479  -16.6517   28.6043 C   0  0  0  0  0  0  0  0  0  0  0  0
   11.4782  -16.2468   29.3427 O   0  0  0  0  0  0  0  0  0  0  0  0
    9.5445  -17.4031   29.1868 O   0  0  0  0  0  0  0  0  0  0  0  0
  2  3  2  0
  2  1  1  0
  4  3  1  0
  5  4  2  0
  6  5  1  0
  7  6  1  0
  7  8  1  6
  9 10  2  0
  9  7  1  0
 11  5  1  0
 11 12  2  0
 12  2  1  0
 13  9  1  0
 14 15  1  0
 14 13  1  0
 15 16  2  0
 17 15  1  0
 17 18  1  0
 18 19  1  1
 19 20  1  0
 20 21  2  0
 21 22  1  0
 23 22  2  0
 24 23  1  0
 25 24  2  0
 25 20  1  0
 26 28  1  0
 26 18  1  0
 27 26  2  0
M  END
$$$$
