YGF.pdb
     RDKit          3D

 28 29  0  0  1  0  0  0  0  0999 V2000
    8.0675  -12.2344   16.4951 O   0  0  0  0  0  0  0  0  0  0  0  0
    7.7740  -12.9659   17.6354 C   0  0  0  0  0  0  0  0  0  0  0  0
    7.0374  -14.1093   17.5837 C   0  0  0  0  0  0  0  0  0  0  0  0
    6.7531  -14.8285   18.7335 C   0  0  0  0  0  0  0  0  0  0  0  0
    7.2154  -14.3953   19.9619 C   0  0  0  0  0  0  0  0  0  0  0  0
    6.9256  -15.1494   21.2214 C   0  0  0  0  0  0  0  0  0  0  0  0
    8.0049  -16.1999   21.3504 C   0  0  2  0  0  0  0  0  0  0  0  0
    7.8629  -17.0999   20.2204 N   0  0  0  0  0  0  0  0  0  0  0  0
    7.9858  -16.8993   22.6363 C   0  0  0  0  0  0  0  0  0  0  0  0
    7.2599  -17.9122   22.7714 O   0  0  0  0  0  0  0  0  0  0  0  0
    7.9635  -13.2258   19.9796 C   0  0  0  0  0  0  0  0  0  0  0  0
    8.2454  -12.5130   18.8412 C   0  0  0  0  0  0  0  0  0  0  0  0
    8.7638  -16.4689   23.7402 N   0  0  0  0  0  0  0  0  0  0  0  0
    8.8883  -17.2466   24.9566 C   0  0  0  0  0  0  0  0  0  0  0  0
    9.6718  -16.4773   25.9483 C   0  0  0  0  0  0  0  0  0  0  0  0
   10.9075  -16.3130   25.7593 O   0  0  0  0  0  0  0  0  0  0  0  0
    9.1245  -15.9043   27.1111 N   0  0  0  0  0  0  0  0  0  0  0  0
    9.9691  -15.1791   28.0366 C   0  0  1  0  0  0  0  0  0  0  0  0
    9.1387  -14.0354   28.5685 C   0  0  0  0  0  0  0  0  0  0  0  0
    8.3979  -13.3033   27.5383 C   0  0  0  0  0  0  0  0  0  0  0  0
    7.0413  -13.4774   27.4308 C   0  0  0  0  0  0  0  0  0  0  0  0
    6.3207  -12.8077   26.4820 C   0  0  0  0  0  0  0  0  0  0  0  0
    6.9956  -11.9454   25.6279 C   0  0  0  0  0  0  0  0  0  0  0  0
    8.3525  -11.7654   25.7286 C   0  0  0  0  0  0  0  0  0  0  0  0
    9.0469  -12.4466   26.6849 C   0  0  0  0  0  0  0  0  0  0  0  0
   10.5230  -16.0499   29.0865 C   0  0  0  0  0  0  0  0  0  0  0  0
   11.3071  -15.5953   29.9543 O   0  0  0  0  0  0  0  0  0  0  0  0
   10.1995  -17.3923   29.1515 O   0  0  0  0  0  0  0  0  0  0  0  0
  2  3  2  0
  2  1  1  0
  4  3  1  0
  5  4  2  0
  6  5  1  0
  7  6  1  0
  7  8  1  6
  9 10  2  0
  9  7  1  0
 11  5  1  0
 11 12  2  0
 12  2  1  0
 13  9  1  0
 14 15  1  0
 14 13  1  0
 15 16  2  0
 17 15  1  0
 17 18  1  0
 18 19  1  1
 19 20  1  0
 20 21  2  0
 21 22  1  0
 23 22  2  0
 24 23  1  0
 25 24  2  0
 25 20  1  0
 26 28  1  0
 26 18  1  0
 27 26  2  0
M  END
$$$$
