YGF.pdb
     RDKit          3D

 28 29  0  0  1  0  0  0  0  0999 V2000
    7.1683  -13.2904   16.1699 O   0  0  0  0  0  0  0  0  0  0  0  0
    7.5455  -13.5474   17.4787 C   0  0  0  0  0  0  0  0  0  0  0  0
    8.8394  -13.4362   17.8867 C   0  0  0  0  0  0  0  0  0  0  0  0
    9.1994  -13.6969   19.1992 C   0  0  0  0  0  0  0  0  0  0  0  0
    8.2453  -14.0770   20.1240 C   0  0  0  0  0  0  0  0  0  0  0  0
    8.6020  -14.3654   21.5482 C   0  0  0  0  0  0  0  0  0  0  0  0
    9.2566  -15.7279   21.5591 C   0  0  2  0  0  0  0  0  0  0  0  0
    8.2443  -16.6918   21.1674 N   0  0  0  0  0  0  0  0  0  0  0  0
    9.8890  -16.0598   22.8370 C   0  0  0  0  0  0  0  0  0  0  0  0
   10.8616  -15.3763   23.2343 O   0  0  0  0  0  0  0  0  0  0  0  0
    6.9355  -14.1809   19.6753 C   0  0  0  0  0  0  0  0  0  0  0  0
    6.5782  -13.9229   18.3756 C   0  0  0  0  0  0  0  0  0  0  0  0
    9.4375  -17.1331   23.6453 N   0  0  0  0  0  0  0  0  0  0  0  0
   10.2323  -17.6844   24.7243 C   0  0  0  0  0  0  0  0  0  0  0  0
   10.3647  -16.6740   25.7969 C   0  0  0  0  0  0  0  0  0  0  0  0
   11.1691  -15.7157   25.6405 O   0  0  0  0  0  0  0  0  0  0  0  0
    9.6421  -16.7072   27.0038 N   0  0  0  0  0  0  0  0  0  0  0  0
   10.0450  -15.8793   28.1209 C   0  0  1  0  0  0  0  0  0  0  0  0
    8.8454  -15.0373   28.4849 C   0  0  0  0  0  0  0  0  0  0  0  0
    8.3480  -14.1991   27.3913 C   0  0  0  0  0  0  0  0  0  0  0  0
    7.4032  -14.7012   26.5326 C   0  0  0  0  0  0  0  0  0  0  0  0
    6.9169  -13.9443   25.5036 C   0  0  0  0  0  0  0  0  0  0  0  0
    7.4028  -12.6528   25.3479 C   0  0  0  0  0  0  0  0  0  0  0  0
    8.3479  -12.1427   26.2025 C   0  0  0  0  0  0  0  0  0  0  0  0
    8.8157  -12.9202   27.2210 C   0  0  0  0  0  0  0  0  0  0  0  0
   10.5758  -16.6734   29.2412 C   0  0  0  0  0  0  0  0  0  0  0  0
   10.4836  -17.9248   29.2454 O   0  0  0  0  0  0  0  0  0  0  0  0
   11.1910  -16.0698   30.3220 O   0  0  0  0  0  0  0  0  0  0  0  0
  2  3  2  0
  2  1  1  0
  4  3  1  0
  5  4  2  0
  6  5  1  0
  7  6  1  0
  7  8  1  1
  9 10  2  0
  9  7  1  0
 11  5  1  0
 11 12  2  0
 12  2  1  0
 13  9  1  0
 14 15  1  0
 14 13  1  0
 15 16  2  0
 17 15  1  0
 17 18  1  0
 18 19  1  1
 19 20  1  0
 20 21  2  0
 21 22  1  0
 23 22  2  0
 24 23  1  0
 25 24  2  0
 25 20  1  0
 26 28  1  0
 26 18  1  0
 27 26  2  0
M  END
$$$$
