YGF.pdb
     RDKit          3D

 28 29  0  0  1  0  0  0  0  0999 V2000
    5.5819  -25.3369   24.5875 O   0  0  0  0  0  0  0  0  0  0  0  0
    5.7709  -23.9641   24.6238 C   0  0  0  0  0  0  0  0  0  0  0  0
    4.7234  -23.0954   24.5943 C   0  0  0  0  0  0  0  0  0  0  0  0
    4.9301  -21.7257   24.6314 C   0  0  0  0  0  0  0  0  0  0  0  0
    6.2119  -21.2132   24.6993 C   0  0  0  0  0  0  0  0  0  0  0  0
    6.4681  -19.7396   24.7407 C   0  0  0  0  0  0  0  0  0  0  0  0
    6.0633  -19.1957   23.3897 C   0  0  2  0  0  0  0  0  0  0  0  0
    6.7560  -19.9836   22.3865 N   0  0  0  0  0  0  0  0  0  0  0  0
    6.3031  -17.7588   23.2450 C   0  0  0  0  0  0  0  0  0  0  0  0
    5.7904  -16.9665   24.0700 O   0  0  0  0  0  0  0  0  0  0  0  0
    7.2575  -22.1262   24.7278 C   0  0  0  0  0  0  0  0  0  0  0  0
    7.0535  -23.4829   24.6912 C   0  0  0  0  0  0  0  0  0  0  0  0
    7.0991  -17.2290   22.1987 N   0  0  0  0  0  0  0  0  0  0  0  0
    7.2757  -15.8047   21.9981 C   0  0  0  0  0  0  0  0  0  0  0  0
    8.2400  -15.2885   22.9944 C   0  0  0  0  0  0  0  0  0  0  0  0
    9.2309  -14.6172   22.5979 O   0  0  0  0  0  0  0  0  0  0  0  0
    8.1276  -15.4979   24.3813 N   0  0  0  0  0  0  0  0  0  0  0  0
    9.1855  -15.0732   25.2735 C   0  0  1  0  0  0  0  0  0  0  0  0
    8.5137  -14.6032   26.5416 C   0  0  0  0  0  0  0  0  0  0  0  0
    7.7005  -13.3959   26.3766 C   0  0  0  0  0  0  0  0  0  0  0  0
    6.3346  -13.5063   26.3115 C   0  0  0  0  0  0  0  0  0  0  0  0
    5.5474  -12.3993   26.1601 C   0  0  0  0  0  0  0  0  0  0  0  0
    6.1641  -11.1581   26.0735 C   0  0  0  0  0  0  0  0  0  0  0  0
    7.5299  -11.0388   26.1378 C   0  0  0  0  0  0  0  0  0  0  0  0
    8.2914  -12.1604   26.2892 C   0  0  0  0  0  0  0  0  0  0  0  0
   10.1906  -16.1272   25.4889 C   0  0  0  0  0  0  0  0  0  0  0  0
   10.0394  -17.2725   24.9990 O   0  0  0  0  0  0  0  0  0  0  0  0
   11.3302  -15.8917   26.2351 O   0  0  0  0  0  0  0  0  0  0  0  0
  2  3  2  0
  2  1  1  0
  4  3  1  0
  5  4  2  0
  6  5  1  0
  7  6  1  0
  7  8  1  6
  9 10  2  0
  9  7  1  0
 11  5  1  0
 11 12  2  0
 12  2  1  0
 13  9  1  0
 14 15  1  0
 14 13  1  0
 15 16  2  0
 17 15  1  0
 17 18  1  0
 18 19  1  1
 19 20  1  0
 20 21  2  0
 21 22  1  0
 23 22  2  0
 24 23  1  0
 25 24  2  0
 25 20  1  0
 26 28  1  0
 26 18  1  0
 27 26  2  0
M  END
$$$$
