YGF.pdb
     RDKit          3D

 28 29  0  0  1  0  0  0  0  0999 V2000
   14.5007  -25.0695   20.8870 O   0  0  0  0  0  0  0  0  0  0  0  0
   13.9081  -23.8653   21.2334 C   0  0  0  0  0  0  0  0  0  0  0  0
   14.4659  -23.0299   22.1520 C   0  0  0  0  0  0  0  0  0  0  0  0
   13.8601  -21.8295   22.4867 C   0  0  0  0  0  0  0  0  0  0  0  0
   12.6706  -21.4559   21.8902 C   0  0  0  0  0  0  0  0  0  0  0  0
   11.9918  -20.1665   22.2300 C   0  0  0  0  0  0  0  0  0  0  0  0
   10.9520  -19.9335   21.1578 C   0  0  2  0  0  0  0  0  0  0  0  0
   11.6626  -19.7537   19.9049 N   0  0  0  0  0  0  0  0  0  0  0  0
   10.0449  -18.8242   21.4577 C   0  0  0  0  0  0  0  0  0  0  0  0
    9.3432  -18.8708   22.4952 O   0  0  0  0  0  0  0  0  0  0  0  0
   12.1285  -22.3303   20.9579 C   0  0  0  0  0  0  0  0  0  0  0  0
   12.7280  -23.5194   20.6259 C   0  0  0  0  0  0  0  0  0  0  0  0
    9.9318  -17.6931   20.6111 N   0  0  0  0  0  0  0  0  0  0  0  0
    9.0228  -16.5992   20.8890 C   0  0  0  0  0  0  0  0  0  0  0  0
    9.3018  -16.0657   22.2405 C   0  0  0  0  0  0  0  0  0  0  0  0
   10.4306  -15.5566   22.4777 O   0  0  0  0  0  0  0  0  0  0  0  0
    8.3779  -16.0865   23.3016 N   0  0  0  0  0  0  0  0  0  0  0  0
    8.4466  -15.0918   24.3512 C   0  0  1  0  0  0  0  0  0  0  0  0
    7.1772  -14.2794   24.2553 C   0  0  0  0  0  0  0  0  0  0  0  0
    7.0821  -13.1986   25.2396 C   0  0  0  0  0  0  0  0  0  0  0  0
    8.0125  -12.1904   25.2264 C   0  0  0  0  0  0  0  0  0  0  0  0
    7.9506  -11.1664   26.1296 C   0  0  0  0  0  0  0  0  0  0  0  0
    6.9219  -11.1708   27.0624 C   0  0  0  0  0  0  0  0  0  0  0  0
    5.9870  -12.1755   27.0825 C   0  0  0  0  0  0  0  0  0  0  0  0
    6.0728  -13.1852   26.1693 C   0  0  0  0  0  0  0  0  0  0  0  0
    8.6686  -15.6932   25.6765 C   0  0  0  0  0  0  0  0  0  0  0  0
    8.1096  -16.7697   25.9981 O   0  0  0  0  0  0  0  0  0  0  0  0
    9.4970  -15.0950   26.6075 O   0  0  0  0  0  0  0  0  0  0  0  0
  2  3  2  0
  2  1  1  0
  4  3  1  0
  5  4  2  0
  6  5  1  0
  7  6  1  0
  7  8  1  6
  9 10  2  0
  9  7  1  0
 11  5  1  0
 11 12  2  0
 12  2  1  0
 13  9  1  0
 14 15  1  0
 14 13  1  0
 15 16  2  0
 17 15  1  0
 17 18  1  0
 18 19  1  1
 19 20  1  0
 20 21  2  0
 21 22  1  0
 23 22  2  0
 24 23  1  0
 25 24  2  0
 25 20  1  0
 26 28  1  0
 26 18  1  0
 27 26  2  0
M  END
$$$$
