YGF.pdb
     RDKit          3D

 28 29  0  0  1  0  0  0  0  0999 V2000
    7.3274  -13.2102   15.7062 O   0  0  0  0  0  0  0  0  0  0  0  0
    7.6542  -13.5460   17.0108 C   0  0  0  0  0  0  0  0  0  0  0  0
    6.7960  -13.3256   18.0440 C   0  0  0  0  0  0  0  0  0  0  0  0
    7.1385  -13.6673   19.3425 C   0  0  0  0  0  0  0  0  0  0  0  0
    8.3658  -14.2419   19.6140 C   0  0  0  0  0  0  0  0  0  0  0  0
    8.7653  -14.6222   21.0050 C   0  0  0  0  0  0  0  0  0  0  0  0
    8.5636  -16.1162   21.1159 C   0  0  2  0  0  0  0  0  0  0  0  0
    7.2092  -16.3307   21.5919 N   0  0  0  0  0  0  0  0  0  0  0  0
    9.5677  -16.7789   21.9502 C   0  0  0  0  0  0  0  0  0  0  0  0
   10.2548  -17.7060   21.4608 O   0  0  0  0  0  0  0  0  0  0  0  0
    9.2174  -14.4530   18.5380 C   0  0  0  0  0  0  0  0  0  0  0  0
    8.8787  -14.1148   17.2517 C   0  0  0  0  0  0  0  0  0  0  0  0
    9.7914  -16.4067   23.2994 N   0  0  0  0  0  0  0  0  0  0  0  0
   10.7457  -17.0907   24.1488 C   0  0  0  0  0  0  0  0  0  0  0  0
   10.7105  -16.4920   25.5013 C   0  0  0  0  0  0  0  0  0  0  0  0
   11.5743  -15.6276   25.8118 O   0  0  0  0  0  0  0  0  0  0  0  0
    9.7621  -16.8255   26.4858 N   0  0  0  0  0  0  0  0  0  0  0  0
    9.8236  -16.2158   27.7974 C   0  0  1  0  0  0  0  0  0  0  0  0
    8.4359  -15.7004   28.0958 C   0  0  0  0  0  0  0  0  0  0  0  0
    8.0409  -14.5424   27.2901 C   0  0  0  0  0  0  0  0  0  0  0  0
    7.1419  -14.7076   26.2671 C   0  0  0  0  0  0  0  0  0  0  0  0
    6.7511  -13.6473   25.4982 C   0  0  0  0  0  0  0  0  0  0  0  0
    7.2866  -12.3969   25.7777 C   0  0  0  0  0  0  0  0  0  0  0  0
    8.1865  -12.2230   26.7993 C   0  0  0  0  0  0  0  0  0  0  0  0
    8.5590  -13.2987   27.5508 C   0  0  0  0  0  0  0  0  0  0  0  0
   10.3471  -17.1388   28.8179 C   0  0  0  0  0  0  0  0  0  0  0  0
   10.4034  -18.3738   28.6025 O   0  0  0  0  0  0  0  0  0  0  0  0
   10.7923  -16.6782   30.0429 O   0  0  0  0  0  0  0  0  0  0  0  0
  2  3  2  0
  2  1  1  0
  4  3  1  0
  5  4  2  0
  6  5  1  0
  7  6  1  0
  7  8  1  1
  9 10  2  0
  9  7  1  0
 11  5  1  0
 11 12  2  0
 12  2  1  0
 13  9  1  0
 14 15  1  0
 14 13  1  0
 15 16  2  0
 17 15  1  0
 17 18  1  0
 18 19  1  1
 19 20  1  0
 20 21  2  0
 21 22  1  0
 23 22  2  0
 24 23  1  0
 25 24  2  0
 25 20  1  0
 26 28  1  0
 26 18  1  0
 27 26  2  0
M  END
$$$$
