YGF.pdb
     RDKit          3D

 28 29  0  0  1  0  0  0  0  0999 V2000
    9.0693  -12.5488   17.1749 O   0  0  0  0  0  0  0  0  0  0  0  0
    8.5200  -13.1033   18.3204 C   0  0  0  0  0  0  0  0  0  0  0  0
    7.1793  -13.0825   18.5548 C   0  0  0  0  0  0  0  0  0  0  0  0
    6.6466  -13.6416   19.7053 C   0  0  0  0  0  0  0  0  0  0  0  0
    7.4720  -14.2345   20.6420 C   0  0  0  0  0  0  0  0  0  0  0  0
    6.9277  -14.8468   21.8941 C   0  0  0  0  0  0  0  0  0  0  0  0
    7.0691  -16.3435   21.7363 C   0  0  2  0  0  0  0  0  0  0  0  0
    6.1434  -16.7532   20.6959 N   0  0  0  0  0  0  0  0  0  0  0  0
    6.8778  -17.0814   22.9861 C   0  0  0  0  0  0  0  0  0  0  0  0
    5.7232  -17.4449   23.3116 O   0  0  0  0  0  0  0  0  0  0  0  0
    8.8340  -14.2387   20.3724 C   0  0  0  0  0  0  0  0  0  0  0  0
    9.3623  -13.6852   19.2331 C   0  0  0  0  0  0  0  0  0  0  0  0
    7.9584  -17.4010   23.8458 N   0  0  0  0  0  0  0  0  0  0  0  0
    7.7964  -17.5540   25.2777 C   0  0  0  0  0  0  0  0  0  0  0  0
    8.8380  -16.7657   25.9726 C   0  0  0  0  0  0  0  0  0  0  0  0
    9.8199  -16.3303   25.3122 O   0  0  0  0  0  0  0  0  0  0  0  0
    8.8102  -16.4612   27.3460 N   0  0  0  0  0  0  0  0  0  0  0  0
    9.9110  -15.7494   27.9601 C   0  0  1  0  0  0  0  0  0  0  0  0
    9.3144  -14.5374   28.6351 C   0  0  0  0  0  0  0  0  0  0  0  0
    8.5491  -13.6683   27.7379 C   0  0  0  0  0  0  0  0  0  0  0  0
    7.2221  -13.9330   27.5119 C   0  0  0  0  0  0  0  0  0  0  0  0
    6.4797  -13.1402   26.6822 C   0  0  0  0  0  0  0  0  0  0  0  0
    7.1016  -12.0587   26.0724 C   0  0  0  0  0  0  0  0  0  0  0  0
    8.4286  -11.7868   26.2931 C   0  0  0  0  0  0  0  0  0  0  0  0
    9.1458  -12.5946   27.1260 C   0  0  0  0  0  0  0  0  0  0  0  0
   10.6953  -16.6071   28.8639 C   0  0  0  0  0  0  0  0  0  0  0  0
   10.2789  -17.7426   29.1984 O   0  0  0  0  0  0  0  0  0  0  0  0
   11.9120  -16.1923   29.3725 O   0  0  0  0  0  0  0  0  0  0  0  0
  2  3  2  0
  2  1  1  0
  4  3  1  0
  5  4  2  0
  6  5  1  0
  7  6  1  0
  7  8  1  6
  9 10  2  0
  9  7  1  0
 11  5  1  0
 11 12  2  0
 12  2  1  0
 13  9  1  0
 14 15  1  0
 14 13  1  0
 15 16  2  0
 17 15  1  0
 17 18  1  0
 18 19  1  1
 19 20  1  0
 20 21  2  0
 21 22  1  0
 23 22  2  0
 24 23  1  0
 25 24  2  0
 25 20  1  0
 26 28  1  0
 26 18  1  0
 27 26  2  0
M  END
$$$$
