YGF.pdb
     RDKit          3D

 28 29  0  0  1  0  0  0  0  0999 V2000
    8.9016  -12.0815   19.0822 O   0  0  0  0  0  0  0  0  0  0  0  0
    8.2672  -13.2173   19.5606 C   0  0  0  0  0  0  0  0  0  0  0  0
    8.7157  -14.4676   19.2637 C   0  0  0  0  0  0  0  0  0  0  0  0
    8.0695  -15.5927   19.7504 C   0  0  0  0  0  0  0  0  0  0  0  0
    6.9504  -15.4650   20.5513 C   0  0  0  0  0  0  0  0  0  0  0  0
    6.2304  -16.6599   21.0923 C   0  0  0  0  0  0  0  0  0  0  0  0
    6.6973  -16.8322   22.5196 C   0  0  2  0  0  0  0  0  0  0  0  0
    6.1313  -15.7396   23.2896 N   0  0  0  0  0  0  0  0  0  0  0  0
    8.1528  -16.9209   22.6494 C   0  0  0  0  0  0  0  0  0  0  0  0
    8.7485  -17.9229   22.1886 O   0  0  0  0  0  0  0  0  0  0  0  0
    6.5192  -14.1761   20.8350 C   0  0  0  0  0  0  0  0  0  0  0  0
    7.1588  -13.0614   20.3533 C   0  0  0  0  0  0  0  0  0  0  0  0
    8.9164  -15.9077   23.2814 N   0  0  0  0  0  0  0  0  0  0  0  0
   10.3526  -16.0038   23.4486 C   0  0  0  0  0  0  0  0  0  0  0  0
   10.6782  -15.9714   24.8915 C   0  0  0  0  0  0  0  0  0  0  0  0
   11.8709  -15.7685   25.2465 O   0  0  0  0  0  0  0  0  0  0  0  0
    9.7319  -16.1547   25.9167 N   0  0  0  0  0  0  0  0  0  0  0  0
   10.0952  -15.9198   27.2982 C   0  0  1  0  0  0  0  0  0  0  0  0
    8.8398  -15.4576   27.9987 C   0  0  0  0  0  0  0  0  0  0  0  0
    8.2263  -14.2671   27.4050 C   0  0  0  0  0  0  0  0  0  0  0  0
    7.0215  -14.3802   26.7587 C   0  0  0  0  0  0  0  0  0  0  0  0
    6.4216  -13.2885   26.1961 C   0  0  0  0  0  0  0  0  0  0  0  0
    7.0618  -12.0602   26.2944 C   0  0  0  0  0  0  0  0  0  0  0  0
    8.2672  -11.9383   26.9392 C   0  0  0  0  0  0  0  0  0  0  0  0
    8.8434  -13.0444   27.4917 C   0  0  0  0  0  0  0  0  0  0  0  0
   10.7223  -17.0984   27.9186 C   0  0  0  0  0  0  0  0  0  0  0  0
   11.1599  -17.0527   29.0937 O   0  0  0  0  0  0  0  0  0  0  0  0
   10.8497  -18.2905   27.2303 O   0  0  0  0  0  0  0  0  0  0  0  0
  2  3  2  0
  2  1  1  0
  4  3  1  0
  5  4  2  0
  6  5  1  0
  7  6  1  0
  7  8  1  1
  9 10  2  0
  9  7  1  0
 11  5  1  0
 11 12  2  0
 12  2  1  0
 13  9  1  0
 14 15  1  0
 14 13  1  0
 15 16  2  0
 17 15  1  0
 17 18  1  0
 18 19  1  1
 19 20  1  0
 20 21  2  0
 21 22  1  0
 23 22  2  0
 24 23  1  0
 25 24  2  0
 25 20  1  0
 26 28  1  0
 26 18  1  0
 27 26  2  0
M  END
$$$$
