YGF.pdb
     RDKit          3D

 28 29  0  0  1  0  0  0  0  0999 V2000
    6.6936  -12.9330   17.1155 O   0  0  0  0  0  0  0  0  0  0  0  0
    7.1292  -13.2997   18.3793 C   0  0  0  0  0  0  0  0  0  0  0  0
    8.2409  -12.7511   18.9414 C   0  0  0  0  0  0  0  0  0  0  0  0
    8.6627  -13.1291   20.2060 C   0  0  0  0  0  0  0  0  0  0  0  0
    7.9578  -14.0763   20.9244 C   0  0  0  0  0  0  0  0  0  0  0  0
    8.3873  -14.5057   22.2920 C   0  0  0  0  0  0  0  0  0  0  0  0
    9.4533  -15.5593   22.0958 C   0  0  2  0  0  0  0  0  0  0  0  0
    8.7754  -16.7924   21.7395 N   0  0  0  0  0  0  0  0  0  0  0  0
   10.3386  -15.7141   23.2514 C   0  0  0  0  0  0  0  0  0  0  0  0
   11.0353  -14.7408   23.6235 O   0  0  0  0  0  0  0  0  0  0  0  0
    6.8291  -14.6160   20.3225 C   0  0  0  0  0  0  0  0  0  0  0  0
    6.4108  -14.2420   19.0700 C   0  0  0  0  0  0  0  0  0  0  0  0
   10.4360  -16.9330   23.9684 N   0  0  0  0  0  0  0  0  0  0  0  0
   11.6230  -17.3084   24.7100 C   0  0  0  0  0  0  0  0  0  0  0  0
   11.5023  -16.8204   26.1016 C   0  0  0  0  0  0  0  0  0  0  0  0
   12.5351  -16.4159   26.7012 O   0  0  0  0  0  0  0  0  0  0  0  0
   10.2921  -16.7749   26.8181 N   0  0  0  0  0  0  0  0  0  0  0  0
   10.2968  -16.5537   28.2487 C   0  0  1  0  0  0  0  0  0  0  0  0
    9.0093  -15.8352   28.5754 C   0  0  0  0  0  0  0  0  0  0  0  0
    8.7685  -14.6391   27.7645 C   0  0  0  0  0  0  0  0  0  0  0  0
    7.9094  -14.7095   26.6972 C   0  0  0  0  0  0  0  0  0  0  0  0
    7.6615  -13.6113   25.9222 C   0  0  0  0  0  0  0  0  0  0  0  0
    8.3010  -12.4207   26.2413 C   0  0  0  0  0  0  0  0  0  0  0  0
    9.1619  -12.3417   27.3073 C   0  0  0  0  0  0  0  0  0  0  0  0
    9.3910  -13.4533   28.0640 C   0  0  0  0  0  0  0  0  0  0  0  0
   10.4895  -17.8015   29.0058 C   0  0  0  0  0  0  0  0  0  0  0  0
   10.3386  -18.9194   28.4560 O   0  0  0  0  0  0  0  0  0  0  0  0
   10.8419  -17.7841   30.3424 O   0  0  0  0  0  0  0  0  0  0  0  0
  2  3  2  0
  2  1  1  0
  4  3  1  0
  5  4  2  0
  6  5  1  0
  7  6  1  0
  7  8  1  1
  9 10  2  0
  9  7  1  0
 11  5  1  0
 11 12  2  0
 12  2  1  0
 13  9  1  0
 14 15  1  0
 14 13  1  0
 15 16  2  0
 17 15  1  0
 17 18  1  0
 18 19  1  1
 19 20  1  0
 20 21  2  0
 21 22  1  0
 23 22  2  0
 24 23  1  0
 25 24  2  0
 25 20  1  0
 26 28  1  0
 26 18  1  0
 27 26  2  0
M  END
$$$$
