NQF.pdb
     RDKit          3D

 29 29  0  0  1  0  0  0  0  0999 V2000
   26.3165  -10.0342  -21.0498 N   0  0  0  0  0  0  0  0  0  0  0  0
   25.4546   -9.1958  -20.3023 C   0  0  0  0  0  0  0  0  0  0  0  0
   25.5883   -7.9583  -20.3926 O   0  0  0  0  0  0  0  0  0  0  0  0
   24.4114   -9.7611  -19.4269 C   0  0  0  0  0  0  0  0  0  0  0  0
   24.4704  -11.2556  -19.5065 C   0  0  2  0  0  0  0  0  0  0  0  0
   23.8876  -11.7953  -20.6918 N   0  0  0  0  0  0  0  0  0  0  0  0
   23.8501  -11.9105  -18.3185 C   0  0  0  0  0  0  0  0  0  0  0  0
   24.1452  -11.5477  -17.1423 O   0  0  0  0  0  0  0  0  0  0  0  0
   18.1495  -13.9136  -17.9579 N   0  0  0  0  0  0  0  0  0  0  0  0
   18.6351  -12.5839  -17.9337 C   0  0  0  0  0  0  0  0  0  0  0  0
   17.8579  -11.6093  -18.0302 O   0  0  0  0  0  0  0  0  0  0  0  0
   20.1196  -12.3674  -17.7880 C   0  0  0  0  0  0  0  0  0  0  0  0
   20.7858  -13.7035  -17.6089 C   0  0  0  0  0  0  0  0  0  0  0  0
   22.2525  -13.6342  -17.3818 C   0  0  2  0  0  0  0  0  0  0  0  0
   22.9266  -12.9428  -18.4940 N   0  0  0  0  0  0  0  0  0  0  0  0
   22.8935  -14.9345  -17.1590 C   0  0  0  0  0  0  0  0  0  0  0  0
   23.4534  -15.5476  -18.1183 O   0  0  0  0  0  0  0  0  0  0  0  0
   22.8798  -15.4966  -15.8614 N   0  0  0  0  0  0  0  0  0  0  0  0
   23.4580  -16.7951  -15.6359 C   0  0  1  0  0  0  0  0  0  0  0  0
   24.6115  -16.5567  -14.6684 C   0  0  0  0  0  0  0  0  0  0  0  0
   25.8052  -16.0448  -15.3292 C   0  0  0  0  0  0  0  0  0  0  0  0
   26.6042  -16.8811  -16.0577 C   0  0  0  0  0  0  0  0  0  0  0  0
   27.7525  -16.4187  -16.7106 C   0  0  0  0  0  0  0  0  0  0  0  0
   28.0874  -15.0838  -16.6164 C   0  0  0  0  0  0  0  0  0  0  0  0
   27.2800  -14.2265  -15.8769 C   0  0  0  0  0  0  0  0  0  0  0  0
   26.1362  -14.7139  -15.2333 C   0  0  0  0  0  0  0  0  0  0  0  0
   22.4246  -17.6506  -15.0089 C   0  0  0  0  0  0  0  0  0  0  0  0
   21.1641  -17.1986  -14.6334 O   0  0  0  0  0  0  0  0  0  0  0  0
   22.6375  -18.8865  -14.7692 O   0  0  0  0  0  0  0  0  0  0  0  0
  2  1  1  0
  2  3  2  0
  4  2  1  0
  4  5  1  0
  5  6  1  6
  5  7  1  0
  7  8  2  0
  9 10  1  0
 10 11  2  0
 10 12  1  0
 12 13  1  0
 14 13  1  6
 15  7  1  0
 15 14  1  0
 16 17  2  0
 16 14  1  0
 18 16  1  0
 19 18  1  0
 19 20  1  1
 21 22  2  0
 21 20  1  0
 23 22  1  0
 24 23  2  0
 25 24  1  0
 25 26  2  0
 26 21  1  0
 27 28  1  0
 27 19  1  0
 29 27  2  0
M  END
$$$$
