NQF.pdb
     RDKit          3D

 29 29  0  0  1  0  0  0  0  0999 V2000
   19.2476  -18.8734  -17.8731 N   0  0  0  0  0  0  0  0  0  0  0  0
   19.6560  -17.7443  -17.1228 C   0  0  0  0  0  0  0  0  0  0  0  0
   19.9980  -16.7083  -17.7287 O   0  0  0  0  0  0  0  0  0  0  0  0
   19.6820  -17.7770  -15.6489 C   0  0  0  0  0  0  0  0  0  0  0  0
   19.3337  -19.1593  -15.1892 C   0  0  2  0  0  0  0  0  0  0  0  0
   18.1524  -19.2233  -14.3914 N   0  0  0  0  0  0  0  0  0  0  0  0
   20.4547  -19.8093  -14.4503 C   0  0  0  0  0  0  0  0  0  0  0  0
   20.6953  -19.5224  -13.2412 O   0  0  0  0  0  0  0  0  0  0  0  0
   22.2357  -25.4889  -15.4868 N   0  0  0  0  0  0  0  0  0  0  0  0
   23.3540  -25.1419  -14.6907 C   0  0  0  0  0  0  0  0  0  0  0  0
   24.1998  -25.9990  -14.3544 O   0  0  0  0  0  0  0  0  0  0  0  0
   23.5034  -23.7069  -14.2545 C   0  0  0  0  0  0  0  0  0  0  0  0
   22.3559  -22.9119  -14.8132 C   0  0  0  0  0  0  0  0  0  0  0  0
   22.3577  -21.4763  -14.4300 C   0  0  2  0  0  0  0  0  0  0  0  0
   21.2596  -20.7520  -15.0926 N   0  0  0  0  0  0  0  0  0  0  0  0
   23.6231  -20.7813  -14.6887 C   0  0  0  0  0  0  0  0  0  0  0  0
   23.8785  -20.3199  -15.8426 O   0  0  0  0  0  0  0  0  0  0  0  0
   24.5554  -20.6319  -13.6359 N   0  0  0  0  0  0  0  0  0  0  0  0
   25.8184  -19.9874  -13.8821 C   0  0  1  0  0  0  0  0  0  0  0  0
   26.0620  -19.1058  -12.6628 C   0  0  0  0  0  0  0  0  0  0  0  0
   25.8372  -19.8076  -11.4055 C   0  0  0  0  0  0  0  0  0  0  0  0
   24.5833  -19.8729  -10.8652 C   0  0  0  0  0  0  0  0  0  0  0  0
   24.3334  -20.5459   -9.6638 C   0  0  0  0  0  0  0  0  0  0  0  0
   25.3800  -21.1594   -9.0072 C   0  0  0  0  0  0  0  0  0  0  0  0
   26.6587  -21.0974   -9.5500 C   0  0  0  0  0  0  0  0  0  0  0  0
   26.8824  -20.4179  -10.7535 C   0  0  0  0  0  0  0  0  0  0  0  0
   26.8557  -21.0400  -13.9756 C   0  0  0  0  0  0  0  0  0  0  0  0
   28.1792  -20.7983  -14.3277 O   0  0  0  0  0  0  0  0  0  0  0  0
   26.5873  -22.2644  -13.7325 O   0  0  0  0  0  0  0  0  0  0  0  0
  2  1  1  0
  2  3  2  0
  4  2  1  0
  4  5  1  0
  5  6  1  1
  5  7  1  0
  7  8  2  0
  9 10  1  0
 10 11  2  0
 10 12  1  0
 12 13  1  0
 14 13  1  6
 15  7  1  0
 15 14  1  0
 16 17  2  0
 16 14  1  0
 18 16  1  0
 19 18  1  0
 19 20  1  1
 21 22  2  0
 21 20  1  0
 23 22  1  0
 24 23  2  0
 25 24  1  0
 25 26  2  0
 26 21  1  0
 27 28  1  0
 27 19  1  0
 29 27  2  0
M  END
$$$$
