NQF.pdb
     RDKit          3D

 29 29  0  0  1  0  0  0  0  0999 V2000
   28.6296  -23.2736  -18.3343 N   0  0  0  0  0  0  0  0  0  0  0  0
   28.6888  -22.7487  -17.0206 C   0  0  0  0  0  0  0  0  0  0  0  0
   29.6731  -22.0558  -16.6911 O   0  0  0  0  0  0  0  0  0  0  0  0
   27.6126  -23.0081  -16.0467 C   0  0  0  0  0  0  0  0  0  0  0  0
   26.7327  -21.7988  -15.9641 C   0  0  2  0  0  0  0  0  0  0  0  0
   27.4221  -20.6059  -15.5932 N   0  0  0  0  0  0  0  0  0  0  0  0
   25.5789  -22.0004  -15.0405 C   0  0  0  0  0  0  0  0  0  0  0  0
   24.7581  -22.9480  -15.2152 O   0  0  0  0  0  0  0  0  0  0  0  0
   24.6224  -20.4349   -9.0375 N   0  0  0  0  0  0  0  0  0  0  0  0
   25.8045  -20.9964   -9.5779 C   0  0  0  0  0  0  0  0  0  0  0  0
   26.7555  -21.3356   -8.8405 O   0  0  0  0  0  0  0  0  0  0  0  0
   25.8919  -21.1776  -11.0716 C   0  0  0  0  0  0  0  0  0  0  0  0
   24.6352  -20.6381  -11.6965 C   0  0  0  0  0  0  0  0  0  0  0  0
   24.2810  -21.2576  -12.9998 C   0  0  2  0  0  0  0  0  0  0  0  0
   25.3904  -21.1355  -13.9609 N   0  0  0  0  0  0  0  0  0  0  0  0
   23.0531  -20.7330  -13.6067 C   0  0  0  0  0  0  0  0  0  0  0  0
   23.0081  -19.5404  -14.0373 O   0  0  0  0  0  0  0  0  0  0  0  0
   21.9198  -21.5729  -13.7060 N   0  0  0  0  0  0  0  0  0  0  0  0
   20.7079  -21.0752  -14.3016 C   0  0  1  0  0  0  0  0  0  0  0  0
   20.6405  -21.7287  -15.6770 C   0  0  0  0  0  0  0  0  0  0  0  0
   19.4219  -21.3926  -16.4020 C   0  0  0  0  0  0  0  0  0  0  0  0
   18.3809  -22.2770  -16.4512 C   0  0  0  0  0  0  0  0  0  0  0  0
   17.1946  -21.9807  -17.1322 C   0  0  0  0  0  0  0  0  0  0  0  0
   17.0725  -20.7642  -17.7709 C   0  0  0  0  0  0  0  0  0  0  0  0
   18.1271  -19.8589  -17.7259 C   0  0  0  0  0  0  0  0  0  0  0  0
   19.3034  -20.1794  -17.0377 C   0  0  0  0  0  0  0  0  0  0  0  0
   19.5723  -21.5191  -13.4613 C   0  0  0  0  0  0  0  0  0  0  0  0
   18.4224  -20.7667  -13.2478 O   0  0  0  0  0  0  0  0  0  0  0  0
   19.5841  -22.6490  -12.8667 O   0  0  0  0  0  0  0  0  0  0  0  0
  2  1  1  0
  2  3  2  0
  4  2  1  0
  4  5  1  0
  5  6  1  1
  5  7  1  0
  7  8  2  0
  9 10  1  0
 10 11  2  0
 10 12  1  0
 12 13  1  0
 14 13  1  1
 15  7  1  0
 15 14  1  0
 16 17  2  0
 16 14  1  0
 18 16  1  0
 19 18  1  0
 19 20  1  6
 21 22  2  0
 21 20  1  0
 23 22  1  0
 24 23  2  0
 25 24  1  0
 25 26  2  0
 26 21  1  0
 27 28  1  0
 27 19  1  0
 29 27  2  0
M  END
$$$$
