NQF.pdb
     RDKit          3D

 29 29  0  0  1  0  0  0  0  0999 V2000
   30.5094  -27.2666  -21.1474 N   0  0  0  0  0  0  0  0  0  0  0  0
   29.3666  -27.3967  -20.3218 C   0  0  0  0  0  0  0  0  0  0  0  0
   28.7240  -26.3720  -20.0143 O   0  0  0  0  0  0  0  0  0  0  0  0
   28.9305  -28.7150  -19.8257 C   0  0  0  0  0  0  0  0  0  0  0  0
   29.9046  -29.7536  -20.2904 C   0  0  2  0  0  0  0  0  0  0  0  0
   29.7227  -30.1508  -21.6487 N   0  0  0  0  0  0  0  0  0  0  0  0
   29.8941  -30.9675  -19.4237 C   0  0  0  0  0  0  0  0  0  0  0  0
   28.9462  -31.8043  -19.4805 O   0  0  0  0  0  0  0  0  0  0  0  0
   35.0107  -32.6771  -17.3720 N   0  0  0  0  0  0  0  0  0  0  0  0
   34.4466  -33.4080  -18.4454 C   0  0  0  0  0  0  0  0  0  0  0  0
   35.1698  -33.9637  -19.3006 O   0  0  0  0  0  0  0  0  0  0  0  0
   32.9450  -33.5022  -18.5351 C   0  0  0  0  0  0  0  0  0  0  0  0
   32.3467  -32.8002  -17.3476 C   0  0  0  0  0  0  0  0  0  0  0  0
   30.9625  -32.3033  -17.5596 C   0  0  2  0  0  0  0  0  0  0  0  0
   30.9424  -31.1957  -18.5303 N   0  0  0  0  0  0  0  0  0  0  0  0
   30.2735  -31.8867  -16.3336 C   0  0  0  0  0  0  0  0  0  0  0  0
   30.5781  -30.7941  -15.7651 O   0  0  0  0  0  0  0  0  0  0  0  0
   29.2654  -32.7180  -15.7928 N   0  0  0  0  0  0  0  0  0  0  0  0
   28.5282  -32.2902  -14.6332 C   0  0  1  0  0  0  0  0  0  0  0  0
   27.7992  -31.0239  -15.0674 C   0  0  0  0  0  0  0  0  0  0  0  0
   26.6610  -31.2980  -15.9353 C   0  0  0  0  0  0  0  0  0  0  0  0
   25.4559  -31.6595  -15.4010 C   0  0  0  0  0  0  0  0  0  0  0  0
   24.3421  -31.9214  -16.2070 C   0  0  0  0  0  0  0  0  0  0  0  0
   24.4634  -31.8122  -17.5767 C   0  0  0  0  0  0  0  0  0  0  0  0
   25.6860  -31.4451  -18.1282 C   0  0  0  0  0  0  0  0  0  0  0  0
   26.7852  -31.1884  -17.3001 C   0  0  0  0  0  0  0  0  0  0  0  0
   27.5577  -33.3554  -14.2926 C   0  0  0  0  0  0  0  0  0  0  0  0
   26.7120  -33.3129  -13.1894 O   0  0  0  0  0  0  0  0  0  0  0  0
   27.4387  -34.4041  -15.0113 O   0  0  0  0  0  0  0  0  0  0  0  0
  2  1  1  0
  2  3  2  0
  4  2  1  0
  4  5  1  0
  5  6  1  6
  5  7  1  0
  7  8  2  0
  9 10  1  0
 10 11  2  0
 10 12  1  0
 12 13  1  0
 14 13  1  1
 15  7  1  0
 15 14  1  0
 16 17  2  0
 16 14  1  0
 18 16  1  0
 19 18  1  0
 19 20  1  6
 21 22  2  0
 21 20  1  0
 23 22  1  0
 24 23  2  0
 25 24  1  0
 25 26  2  0
 26 21  1  0
 27 28  1  0
 27 19  1  0
 29 27  2  0
M  END
$$$$
