NQF.pdb
     RDKit          3D

 29 29  0  0  1  0  0  0  0  0999 V2000
   10.7451  -11.4822  -10.8246 N   0  0  0  0  0  0  0  0  0  0  0  0
   11.5352  -11.2150   -9.6805 C   0  0  0  0  0  0  0  0  0  0  0  0
   10.9850  -11.1832   -8.5608 O   0  0  0  0  0  0  0  0  0  0  0  0
   12.9857  -10.9762   -9.7945 C   0  0  0  0  0  0  0  0  0  0  0  0
   13.3678  -10.9993  -11.2427 C   0  0  2  0  0  0  0  0  0  0  0  0
   13.3669  -12.3040  -11.8204 N   0  0  0  0  0  0  0  0  0  0  0  0
   14.6927  -10.3600  -11.4887 C   0  0  0  0  0  0  0  0  0  0  0  0
   15.7719  -10.9726  -11.2389 O   0  0  0  0  0  0  0  0  0  0  0  0
   15.0013   -7.2299  -16.1385 N   0  0  0  0  0  0  0  0  0  0  0  0
   15.5462   -8.5359  -16.0904 C   0  0  0  0  0  0  0  0  0  0  0  0
   15.5686   -9.2655  -17.1054 O   0  0  0  0  0  0  0  0  0  0  0  0
   16.1023   -9.0307  -14.7798 C   0  0  0  0  0  0  0  0  0  0  0  0
   15.9998   -7.9256  -13.7653 C   0  0  0  0  0  0  0  0  0  0  0  0
   16.0162   -8.3842  -12.3521 C   0  0  2  0  0  0  0  0  0  0  0  0
   14.7569   -9.0637  -12.0032 N   0  0  0  0  0  0  0  0  0  0  0  0
   16.2829   -7.3243  -11.3739 C   0  0  0  0  0  0  0  0  0  0  0  0
   15.3256   -6.6747  -10.8532 O   0  0  0  0  0  0  0  0  0  0  0  0
   17.6208   -7.0353  -11.0180 N   0  0  0  0  0  0  0  0  0  0  0  0
   17.9051   -5.9484  -10.1186 C   0  0  1  0  0  0  0  0  0  0  0  0
   19.3728   -6.1144   -9.7421 C   0  0  0  0  0  0  0  0  0  0  0  0
   20.2520   -6.1547  -10.9036 C   0  0  0  0  0  0  0  0  0  0  0  0
   20.7320   -7.3481  -11.3659 C   0  0  0  0  0  0  0  0  0  0  0  0
   21.5714   -7.4209  -12.4834 C   0  0  0  0  0  0  0  0  0  0  0  0
   21.9241   -6.2577  -13.1356 C   0  0  0  0  0  0  0  0  0  0  0  0
   21.4402   -5.0394  -12.6715 C   0  0  0  0  0  0  0  0  0  0  0  0
   20.6017   -4.9936  -11.5513 C   0  0  0  0  0  0  0  0  0  0  0  0
   17.7001   -4.6813  -10.8571 C   0  0  0  0  0  0  0  0  0  0  0  0
   17.4818   -4.6073  -12.2285 O   0  0  0  0  0  0  0  0  0  0  0  0
   17.7134   -3.5523  -10.2610 O   0  0  0  0  0  0  0  0  0  0  0  0
  2  1  1  0
  2  3  2  0
  4  2  1  0
  4  5  1  0
  5  6  1  1
  5  7  1  0
  7  8  2  0
  9 10  1  0
 10 11  2  0
 10 12  1  0
 12 13  1  0
 14 13  1  6
 15  7  1  0
 15 14  1  0
 16 17  2  0
 16 14  1  0
 18 16  1  0
 19 18  1  0
 19 20  1  6
 21 22  2  0
 21 20  1  0
 23 22  1  0
 24 23  2  0
 25 24  1  0
 25 26  2  0
 26 21  1  0
 27 28  1  0
 27 19  1  0
 29 27  2  0
M  END
$$$$
