NQF.pdb
     RDKit          3D

 29 29  0  0  1  0  0  0  0  0999 V2000
   28.3391  -19.6970  -17.1134 N   0  0  0  0  0  0  0  0  0  0  0  0
   28.5899  -18.4209  -16.5535 C   0  0  0  0  0  0  0  0  0  0  0  0
   29.4456  -17.6854  -17.0867 O   0  0  0  0  0  0  0  0  0  0  0  0
   27.8600  -17.9550  -15.3602 C   0  0  0  0  0  0  0  0  0  0  0  0
   26.9992  -19.0709  -14.8529 C   0  0  2  0  0  0  0  0  0  0  0  0
   25.9469  -19.4403  -15.7429 N   0  0  0  0  0  0  0  0  0  0  0  0
   26.4188  -18.7732  -13.5115 C   0  0  0  0  0  0  0  0  0  0  0  0
   25.7776  -17.7029  -13.2984 O   0  0  0  0  0  0  0  0  0  0  0  0
   21.6980  -19.9006  -11.8538 N   0  0  0  0  0  0  0  0  0  0  0  0
   22.3983  -21.0930  -12.1576 C   0  0  0  0  0  0  0  0  0  0  0  0
   21.7951  -22.1160  -12.5487 O   0  0  0  0  0  0  0  0  0  0  0  0
   23.8971  -21.1023  -11.9983 C   0  0  0  0  0  0  0  0  0  0  0  0
   24.3375  -19.7510  -11.5076 C   0  0  0  0  0  0  0  0  0  0  0  0
   25.7915  -19.6444  -11.2206 C   0  0  2  0  0  0  0  0  0  0  0  0
   26.5790  -19.6829  -12.4647 N   0  0  0  0  0  0  0  0  0  0  0  0
   26.3020  -20.6580  -10.2915 C   0  0  0  0  0  0  0  0  0  0  0  0
   26.3477  -21.8787  -10.6340 O   0  0  0  0  0  0  0  0  0  0  0  0
   26.7428  -20.2578   -9.0087 N   0  0  0  0  0  0  0  0  0  0  0  0
   27.1122  -21.2509   -8.0349 C   0  0  1  0  0  0  0  0  0  0  0  0
   28.5174  -20.8674   -7.5857 C   0  0  0  0  0  0  0  0  0  0  0  0
   28.5277  -20.1487   -6.3180 C   0  0  0  0  0  0  0  0  0  0  0  0
   28.7903  -20.8100   -5.1509 C   0  0  0  0  0  0  0  0  0  0  0  0
   28.8155  -20.1470   -3.9186 C   0  0  0  0  0  0  0  0  0  0  0  0
   28.5685  -18.7903   -3.8804 C   0  0  0  0  0  0  0  0  0  0  0  0
   28.3003  -18.1102   -5.0633 C   0  0  0  0  0  0  0  0  0  0  0  0
   28.2811  -18.7967   -6.2833 C   0  0  0  0  0  0  0  0  0  0  0  0
   26.1623  -21.1537   -6.9031 C   0  0  0  0  0  0  0  0  0  0  0  0
   26.1253  -22.0495   -5.8399 O   0  0  0  0  0  0  0  0  0  0  0  0
   25.2975  -20.2166   -6.8367 O   0  0  0  0  0  0  0  0  0  0  0  0
  2  1  1  0
  2  3  2  0
  4  2  1  0
  4  5  1  0
  5  6  1  6
  5  7  1  0
  7  8  2  0
  9 10  1  0
 10 11  2  0
 10 12  1  0
 12 13  1  0
 14 13  1  6
 15  7  1  0
 15 14  1  0
 16 17  2  0
 16 14  1  0
 18 16  1  0
 19 18  1  0
 19 20  1  1
 21 22  2  0
 21 20  1  0
 23 22  1  0
 24 23  2  0
 25 24  1  0
 25 26  2  0
 26 21  1  0
 27 28  1  0
 27 19  1  0
 29 27  2  0
M  END
$$$$
