NQF.pdb
     RDKit          3D

 29 29  0  0  1  0  0  0  0  0999 V2000
   28.6336  -16.2533  -18.5845 N   0  0  0  0  0  0  0  0  0  0  0  0
   28.6496  -17.3903  -17.7409 C   0  0  0  0  0  0  0  0  0  0  0  0
   29.7258  -17.9977  -17.5667 O   0  0  0  0  0  0  0  0  0  0  0  0
   27.4226  -17.8610  -17.0722 C   0  0  0  0  0  0  0  0  0  0  0  0
   27.3638  -19.3548  -17.1644 C   0  0  2  0  0  0  0  0  0  0  0  0
   27.1480  -19.8448  -18.4870 N   0  0  0  0  0  0  0  0  0  0  0  0
   26.3339  -19.9377  -16.2563 C   0  0  0  0  0  0  0  0  0  0  0  0
   25.1145  -19.6131  -16.3554 O   0  0  0  0  0  0  0  0  0  0  0  0
   24.9194  -25.4154  -15.3608 N   0  0  0  0  0  0  0  0  0  0  0  0
   25.8080  -24.7755  -16.2583 C   0  0  0  0  0  0  0  0  0  0  0  0
   26.3300  -25.3998  -17.2075 O   0  0  0  0  0  0  0  0  0  0  0  0
   26.1132  -23.3152  -16.0429 C   0  0  0  0  0  0  0  0  0  0  0  0
   25.3567  -22.8385  -14.8340 C   0  0  0  0  0  0  0  0  0  0  0  0
   25.7602  -21.4943  -14.3462 C   0  0  2  0  0  0  0  0  0  0  0  0
   26.7090  -20.8584  -15.2762 N   0  0  0  0  0  0  0  0  0  0  0  0
   26.3268  -21.4852  -12.9933 C   0  0  0  0  0  0  0  0  0  0  0  0
   27.5379  -21.8108  -12.8017 O   0  0  0  0  0  0  0  0  0  0  0  0
   25.5062  -21.1089  -11.9048 N   0  0  0  0  0  0  0  0  0  0  0  0
   25.9769  -21.2868  -10.5565 C   0  0  1  0  0  0  0  0  0  0  0  0
   27.1585  -20.3342  -10.4162 C   0  0  0  0  0  0  0  0  0  0  0  0
   27.5683  -20.1440   -9.0307 C   0  0  0  0  0  0  0  0  0  0  0  0
   28.6182  -20.8528   -8.5172 C   0  0  0  0  0  0  0  0  0  0  0  0
   29.0410  -20.6871   -7.1933 C   0  0  0  0  0  0  0  0  0  0  0  0
   28.3808  -19.7850   -6.3851 C   0  0  0  0  0  0  0  0  0  0  0  0
   27.3115  -19.0602   -6.8998 C   0  0  0  0  0  0  0  0  0  0  0  0
   26.9081  -19.2443   -8.2278 C   0  0  0  0  0  0  0  0  0  0  0  0
   24.8838  -20.8948   -9.6376 C   0  0  0  0  0  0  0  0  0  0  0  0
   24.7510  -21.3731   -8.3385 O   0  0  0  0  0  0  0  0  0  0  0  0
   23.9743  -20.0730   -9.9952 O   0  0  0  0  0  0  0  0  0  0  0  0
  2  1  1  0
  2  3  2  0
  4  2  1  0
  4  5  1  0
  5  6  1  6
  5  7  1  0
  7  8  2  0
  9 10  1  0
 10 11  2  0
 10 12  1  0
 12 13  1  0
 14 13  1  6
 15  7  1  0
 15 14  1  0
 16 17  2  0
 16 14  1  0
 18 16  1  0
 19 18  1  0
 19 20  1  1
 21 22  2  0
 21 20  1  0
 23 22  1  0
 24 23  2  0
 25 24  1  0
 25 26  2  0
 26 21  1  0
 27 28  1  0
 27 19  1  0
 29 27  2  0
M  END
$$$$
