NQF.pdb
     RDKit          3D

 29 29  0  0  1  0  0  0  0  0999 V2000
   28.7158  -19.0107  -19.2299 N   0  0  0  0  0  0  0  0  0  0  0  0
   27.3381  -18.7950  -18.9850 C   0  0  0  0  0  0  0  0  0  0  0  0
   26.5244  -18.9744  -19.9141 O   0  0  0  0  0  0  0  0  0  0  0  0
   26.8575  -18.3652  -17.6590 C   0  0  0  0  0  0  0  0  0  0  0  0
   26.6169  -19.5788  -16.8146 C   0  0  2  0  0  0  0  0  0  0  0  0
   25.5866  -20.4329  -17.3095 N   0  0  0  0  0  0  0  0  0  0  0  0
   26.3194  -19.2307  -15.3950 C   0  0  0  0  0  0  0  0  0  0  0  0
   27.0245  -18.3887  -14.7658 O   0  0  0  0  0  0  0  0  0  0  0  0
   20.7782  -18.7665  -13.2645 N   0  0  0  0  0  0  0  0  0  0  0  0
   21.1002  -20.1220  -13.5168 C   0  0  0  0  0  0  0  0  0  0  0  0
   20.2057  -20.9803  -13.6787 O   0  0  0  0  0  0  0  0  0  0  0  0
   22.5550  -20.5102  -13.5865 C   0  0  0  0  0  0  0  0  0  0  0  0
   23.3911  -19.3071  -13.2486 C   0  0  0  0  0  0  0  0  0  0  0  0
   24.8569  -19.5276  -13.3521 C   0  0  2  0  0  0  0  0  0  0  0  0
   25.2473  -19.8374  -14.7381 N   0  0  0  0  0  0  0  0  0  0  0  0
   25.3783  -20.5663  -12.4573 C   0  0  0  0  0  0  0  0  0  0  0  0
   25.5013  -21.7618  -12.8636 O   0  0  0  0  0  0  0  0  0  0  0  0
   25.7424  -20.2186  -11.1358 N   0  0  0  0  0  0  0  0  0  0  0  0
   26.0903  -21.2486  -10.1929 C   0  0  1  0  0  0  0  0  0  0  0  0
   27.5412  -20.9724   -9.8160 C   0  0  0  0  0  0  0  0  0  0  0  0
   27.6687  -20.2430   -8.5608 C   0  0  0  0  0  0  0  0  0  0  0  0
   27.2058  -18.9611   -8.4565 C   0  0  0  0  0  0  0  0  0  0  0  0
   27.3061  -18.2370   -7.2630 C   0  0  0  0  0  0  0  0  0  0  0  0
   27.8877  -18.8322   -6.1629 C   0  0  0  0  0  0  0  0  0  0  0  0
   28.3614  -20.1359   -6.2608 C   0  0  0  0  0  0  0  0  0  0  0  0
   28.2490  -20.8390   -7.4663 C   0  0  0  0  0  0  0  0  0  0  0  0
   25.2109  -21.0994   -9.0109 C   0  0  0  0  0  0  0  0  0  0  0  0
   24.2795  -20.0779   -8.8588 O   0  0  0  0  0  0  0  0  0  0  0  0
   25.2590  -21.9220   -8.0356 O   0  0  0  0  0  0  0  0  0  0  0  0
  2  1  1  0
  2  3  2  0
  4  2  1  0
  4  5  1  0
  5  6  1  6
  5  7  1  0
  7  8  2  0
  9 10  1  0
 10 11  2  0
 10 12  1  0
 12 13  1  0
 14 13  1  6
 15  7  1  0
 15 14  1  0
 16 17  2  0
 16 14  1  0
 18 16  1  0
 19 18  1  0
 19 20  1  1
 21 22  2  0
 21 20  1  0
 23 22  1  0
 24 23  2  0
 25 24  1  0
 25 26  2  0
 26 21  1  0
 27 28  1  0
 27 19  1  0
 29 27  2  0
M  END
$$$$
