NQF.pdb
     RDKit          3D

 29 29  0  0  1  0  0  0  0  0999 V2000
   24.1264  -16.4093  -22.2193 N   0  0  0  0  0  0  0  0  0  0  0  0
   23.2424  -16.9258  -21.2413 C   0  0  0  0  0  0  0  0  0  0  0  0
   22.1607  -16.3387  -21.0350 O   0  0  0  0  0  0  0  0  0  0  0  0
   23.5807  -18.1368  -20.4712 C   0  0  0  0  0  0  0  0  0  0  0  0
   24.0124  -17.7308  -19.0956 C   0  0  2  0  0  0  0  0  0  0  0  0
   25.3204  -17.1630  -19.0438 N   0  0  0  0  0  0  0  0  0  0  0  0
   23.9331  -18.8579  -18.1218 C   0  0  0  0  0  0  0  0  0  0  0  0
   22.9441  -19.6477  -18.1135 O   0  0  0  0  0  0  0  0  0  0  0  0
   28.7285  -22.0048  -15.8072 N   0  0  0  0  0  0  0  0  0  0  0  0
   28.2744  -21.9860  -17.1482 C   0  0  0  0  0  0  0  0  0  0  0  0
   28.9176  -22.5545  -18.0572 O   0  0  0  0  0  0  0  0  0  0  0  0
   26.9899  -21.2608  -17.4580 C   0  0  0  0  0  0  0  0  0  0  0  0
   26.4216  -20.7189  -16.1757 C   0  0  0  0  0  0  0  0  0  0  0  0
   25.0301  -20.2097  -16.2860 C   0  0  2  0  0  0  0  0  0  0  0  0
   24.9615  -19.0554  -17.1984 N   0  0  0  0  0  0  0  0  0  0  0  0
   24.4117  -19.8530  -15.0048 C   0  0  0  0  0  0  0  0  0  0  0  0
   24.6309  -18.7194  -14.4791 O   0  0  0  0  0  0  0  0  0  0  0  0
   23.5678  -20.7885  -14.3624 N   0  0  0  0  0  0  0  0  0  0  0  0
   23.0797  -20.5214  -13.0352 C   0  0  1  0  0  0  0  0  0  0  0  0
   21.5622  -20.4723  -13.1695 C   0  0  0  0  0  0  0  0  0  0  0  0
   20.8865  -20.3371  -11.8854 C   0  0  0  0  0  0  0  0  0  0  0  0
   20.2007  -21.3918  -11.3510 C   0  0  0  0  0  0  0  0  0  0  0  0
   19.5483  -21.2962  -10.1165 C   0  0  0  0  0  0  0  0  0  0  0  0
   19.5983  -20.1062   -9.4205 C   0  0  0  0  0  0  0  0  0  0  0  0
   20.2937  -19.0283   -9.9574 C   0  0  0  0  0  0  0  0  0  0  0  0
   20.9381  -19.1497  -11.1944 C   0  0  0  0  0  0  0  0  0  0  0  0
   23.4863  -21.6489  -12.1655 C   0  0  0  0  0  0  0  0  0  0  0  0
   23.7015  -21.5361  -10.7962 O   0  0  0  0  0  0  0  0  0  0  0  0
   23.6691  -22.8218  -12.6357 O   0  0  0  0  0  0  0  0  0  0  0  0
  2  1  1  0
  2  3  2  0
  4  2  1  0
  4  5  1  0
  5  6  1  6
  5  7  1  0
  7  8  2  0
  9 10  1  0
 10 11  2  0
 10 12  1  0
 12 13  1  0
 14 13  1  1
 15  7  1  0
 15 14  1  0
 16 17  2  0
 16 14  1  0
 18 16  1  0
 19 18  1  0
 19 20  1  6
 21 22  2  0
 21 20  1  0
 23 22  1  0
 24 23  2  0
 25 24  1  0
 25 26  2  0
 26 21  1  0
 27 28  1  0
 27 19  1  0
 29 27  2  0
M  END
$$$$
