NQF.pdb
     RDKit          3D

 29 29  0  0  1  0  0  0  0  0999 V2000
   22.3461  -13.5897  -20.9856 N   0  0  0  0  0  0  0  0  0  0  0  0
   22.9704  -12.4976  -20.3358 C   0  0  0  0  0  0  0  0  0  0  0  0
   24.2042  -12.5300  -20.1514 O   0  0  0  0  0  0  0  0  0  0  0  0
   22.1885  -11.3341  -19.8787 C   0  0  0  0  0  0  0  0  0  0  0  0
   22.0827  -11.3785  -18.3852 C   0  0  2  0  0  0  0  0  0  0  0  0
   21.4685  -12.5647  -17.8838 N   0  0  0  0  0  0  0  0  0  0  0  0
   21.3689  -10.1910  -17.8329 C   0  0  0  0  0  0  0  0  0  0  0  0
   21.6815   -9.0164  -18.1860 O   0  0  0  0  0  0  0  0  0  0  0  0
   15.6568  -10.4679  -15.6238 N   0  0  0  0  0  0  0  0  0  0  0  0
   15.9394   -9.1573  -15.1688 C   0  0  0  0  0  0  0  0  0  0  0  0
   15.0515   -8.4476  -14.6481 O   0  0  0  0  0  0  0  0  0  0  0  0
   17.3436   -8.6328  -15.3270 C   0  0  0  0  0  0  0  0  0  0  0  0
   18.1670   -9.6689  -16.0406 C   0  0  0  0  0  0  0  0  0  0  0  0
   19.5647   -9.2539  -16.3271 C   0  0  2  0  0  0  0  0  0  0  0  0
   20.3362  -10.3651  -16.9096 N   0  0  0  0  0  0  0  0  0  0  0  0
   20.2868   -8.7161  -15.1692 C   0  0  0  0  0  0  0  0  0  0  0  0
   20.8805   -9.4959  -14.3635 O   0  0  0  0  0  0  0  0  0  0  0  0
   20.3133   -7.3175  -14.9619 N   0  0  0  0  0  0  0  0  0  0  0  0
   20.9617   -6.7772  -13.7963 C   0  0  1  0  0  0  0  0  0  0  0  0
   22.3677   -6.4088  -14.2553 C   0  0  0  0  0  0  0  0  0  0  0  0
   22.4332   -5.0879  -14.8675 C   0  0  0  0  0  0  0  0  0  0  0  0
   22.6684   -4.9584  -16.2077 C   0  0  0  0  0  0  0  0  0  0  0  0
   22.7291   -3.7046  -16.8268 C   0  0  0  0  0  0  0  0  0  0  0  0
   22.5470   -2.5695  -16.0644 C   0  0  0  0  0  0  0  0  0  0  0  0
   22.3075   -2.6926  -14.7002 C   0  0  0  0  0  0  0  0  0  0  0  0
   22.2514   -3.9585  -14.1049 C   0  0  0  0  0  0  0  0  0  0  0  0
   20.2179   -5.5653  -13.3826 C   0  0  0  0  0  0  0  0  0  0  0  0
   20.3600   -4.9511  -12.1430 O   0  0  0  0  0  0  0  0  0  0  0  0
   19.3791   -4.9993  -14.1613 O   0  0  0  0  0  0  0  0  0  0  0  0
  2  1  1  0
  2  3  2  0
  4  2  1  0
  4  5  1  0
  5  6  1  6
  5  7  1  0
  7  8  2  0
  9 10  1  0
 10 11  2  0
 10 12  1  0
 12 13  1  0
 14 13  1  1
 15  7  1  0
 15 14  1  0
 16 17  2  0
 16 14  1  0
 18 16  1  0
 19 18  1  0
 19 20  1  6
 21 22  2  0
 21 20  1  0
 23 22  1  0
 24 23  2  0
 25 24  1  0
 25 26  2  0
 26 21  1  0
 27 28  1  0
 27 19  1  0
 29 27  2  0
M  END
$$$$
