NQF.pdb
     RDKit          3D

 29 29  0  0  1  0  0  0  0  0999 V2000
   26.0407  -12.3229  -20.6714 N   0  0  0  0  0  0  0  0  0  0  0  0
   24.7127  -12.4058  -20.1878 C   0  0  0  0  0  0  0  0  0  0  0  0
   24.0808  -13.4715  -20.3382 O   0  0  0  0  0  0  0  0  0  0  0  0
   24.0731  -11.2600  -19.5153 C   0  0  0  0  0  0  0  0  0  0  0  0
   22.5860  -11.4078  -19.6164 C   0  0  2  0  0  0  0  0  0  0  0  0
   22.0813  -11.2831  -20.9451 N   0  0  0  0  0  0  0  0  0  0  0  0
   21.8607  -10.4527  -18.7296 C   0  0  0  0  0  0  0  0  0  0  0  0
   21.8869   -9.2064  -18.9492 O   0  0  0  0  0  0  0  0  0  0  0  0
   17.1940  -12.1124  -15.0660 N   0  0  0  0  0  0  0  0  0  0  0  0
   17.3046  -10.7742  -14.6168 C   0  0  0  0  0  0  0  0  0  0  0  0
   16.4651  -10.2841  -13.8306 O   0  0  0  0  0  0  0  0  0  0  0  0
   18.4645   -9.9479  -15.1106 C   0  0  0  0  0  0  0  0  0  0  0  0
   19.2595  -10.7692  -16.0875 C   0  0  0  0  0  0  0  0  0  0  0  0
   20.4177  -10.0590  -16.6891 C   0  0  2  0  0  0  0  0  0  0  0  0
   21.1368  -10.9293  -17.6351 N   0  0  0  0  0  0  0  0  0  0  0  0
   21.3674   -9.5132  -15.7137 C   0  0  0  0  0  0  0  0  0  0  0  0
   22.3540  -10.2069  -15.3200 O   0  0  0  0  0  0  0  0  0  0  0  0
   21.1698   -8.2038  -15.2173 N   0  0  0  0  0  0  0  0  0  0  0  0
   22.1356   -7.6224  -14.3227 C   0  0  1  0  0  0  0  0  0  0  0  0
   23.2237   -7.0519  -15.2249 C   0  0  0  0  0  0  0  0  0  0  0  0
   22.7601   -5.9252  -16.0245 C   0  0  0  0  0  0  0  0  0  0  0  0
   22.2513   -6.1294  -17.2766 C   0  0  0  0  0  0  0  0  0  0  0  0
   21.7905   -5.0695  -18.0659 C   0  0  0  0  0  0  0  0  0  0  0  0
   21.8516   -3.7846  -17.5675 C   0  0  0  0  0  0  0  0  0  0  0  0
   22.3681   -3.5684  -16.2947 C   0  0  0  0  0  0  0  0  0  0  0  0
   22.8225   -4.6459  -15.5249 C   0  0  0  0  0  0  0  0  0  0  0  0
   21.4643   -6.5371  -13.5714 C   0  0  0  0  0  0  0  0  0  0  0  0
   20.1252   -6.1961  -13.7281 O   0  0  0  0  0  0  0  0  0  0  0  0
   22.0938   -5.8316  -12.7134 O   0  0  0  0  0  0  0  0  0  0  0  0
  2  1  1  0
  2  3  2  0
  4  2  1  0
  4  5  1  0
  5  6  1  6
  5  7  1  0
  7  8  2  0
  9 10  1  0
 10 11  2  0
 10 12  1  0
 12 13  1  0
 14 13  1  1
 15  7  1  0
 15 14  1  0
 16 17  2  0
 16 14  1  0
 18 16  1  0
 19 18  1  0
 19 20  1  6
 21 22  2  0
 21 20  1  0
 23 22  1  0
 24 23  2  0
 25 24  1  0
 25 26  2  0
 26 21  1  0
 27 28  1  0
 27 19  1  0
 29 27  2  0
M  END
$$$$
