NQF.pdb
     RDKit          3D

 29 29  0  0  1  0  0  0  0  0999 V2000
   21.9349  -18.4374  -15.6291 N   0  0  0  0  0  0  0  0  0  0  0  0
   22.8473  -18.9776  -16.5673 C   0  0  0  0  0  0  0  0  0  0  0  0
   22.6379  -18.7995  -17.7846 O   0  0  0  0  0  0  0  0  0  0  0  0
   24.0301  -19.7407  -16.1283 C   0  0  0  0  0  0  0  0  0  0  0  0
   23.9598  -19.9311  -14.6443 C   0  0  2  0  0  0  0  0  0  0  0  0
   24.0075  -18.7136  -13.9018 N   0  0  0  0  0  0  0  0  0  0  0  0
   25.0221  -20.8492  -14.1405 C   0  0  0  0  0  0  0  0  0  0  0  0
   25.0110  -22.0823  -14.4259 O   0  0  0  0  0  0  0  0  0  0  0  0
   28.3255  -20.1138  -15.9184 N   0  0  0  0  0  0  0  0  0  0  0  0
   28.4302  -18.9830  -15.0729 C   0  0  0  0  0  0  0  0  0  0  0  0
   28.4502  -17.8241  -15.5417 O   0  0  0  0  0  0  0  0  0  0  0  0
   28.5179  -19.2083  -13.5852 C   0  0  0  0  0  0  0  0  0  0  0  0
   28.4666  -20.6872  -13.3183 C   0  0  0  0  0  0  0  0  0  0  0  0
   27.1553  -21.1776  -12.8206 C   0  0  2  0  0  0  0  0  0  0  0  0
   26.0516  -20.3517  -13.3395 N   0  0  0  0  0  0  0  0  0  0  0  0
   27.0539  -21.2607  -11.3597 C   0  0  0  0  0  0  0  0  0  0  0  0
   27.8553  -21.9907  -10.7006 O   0  0  0  0  0  0  0  0  0  0  0  0
   26.0515  -20.5171  -10.6948 N   0  0  0  0  0  0  0  0  0  0  0  0
   25.5790  -20.9438   -9.4042 C   0  0  1  0  0  0  0  0  0  0  0  0
   25.7627  -19.7367   -8.4917 C   0  0  0  0  0  0  0  0  0  0  0  0
   26.9806  -19.8121   -7.6951 C   0  0  0  0  0  0  0  0  0  0  0  0
   27.5944  -18.6703   -7.2614 C   0  0  0  0  0  0  0  0  0  0  0  0
   28.7603  -18.7094   -6.4882 C   0  0  0  0  0  0  0  0  0  0  0  0
   29.3049  -19.9322   -6.1550 C   0  0  0  0  0  0  0  0  0  0  0  0
   28.6868  -21.0985   -6.5925 C   0  0  0  0  0  0  0  0  0  0  0  0
   27.5209  -21.0324   -7.3649 C   0  0  0  0  0  0  0  0  0  0  0  0
   24.1429  -21.2808   -9.5342 C   0  0  0  0  0  0  0  0  0  0  0  0
   23.4245  -21.1786  -10.7205 O   0  0  0  0  0  0  0  0  0  0  0  0
   23.4620  -21.6951   -8.5366 O   0  0  0  0  0  0  0  0  0  0  0  0
  2  1  1  0
  2  3  2  0
  4  2  1  0
  4  5  1  0
  5  6  1  1
  5  7  1  0
  7  8  2  0
  9 10  1  0
 10 11  2  0
 10 12  1  0
 12 13  1  0
 14 13  1  1
 15  7  1  0
 15 14  1  0
 16 17  2  0
 16 14  1  0
 18 16  1  0
 19 18  1  0
 19 20  1  1
 21 22  2  0
 21 20  1  0
 23 22  1  0
 24 23  2  0
 25 24  1  0
 25 26  2  0
 26 21  1  0
 27 28  1  0
 27 19  1  0
 29 27  2  0
M  END
$$$$
