NQF.pdb
     RDKit          3D

 29 29  0  0  1  0  0  0  0  0999 V2000
   27.2166  -18.3200  -16.2133 N   0  0  0  0  0  0  0  0  0  0  0  0
   27.7373  -19.0095  -17.3349 C   0  0  0  0  0  0  0  0  0  0  0  0
   28.9670  -18.9783  -17.5454 O   0  0  0  0  0  0  0  0  0  0  0  0
   26.8533  -19.7566  -18.2484 C   0  0  0  0  0  0  0  0  0  0  0  0
   25.4575  -19.7238  -17.7058 C   0  0  2  0  0  0  0  0  0  0  0  0
   25.3563  -19.1487  -16.4039 N   0  0  0  0  0  0  0  0  0  0  0  0
   24.8241  -21.0742  -17.6911 C   0  0  0  0  0  0  0  0  0  0  0  0
   24.7319  -21.7657  -18.7472 O   0  0  0  0  0  0  0  0  0  0  0  0
   25.7968  -26.2292  -17.5793 N   0  0  0  0  0  0  0  0  0  0  0  0
   26.1395  -25.7607  -16.2879 C   0  0  0  0  0  0  0  0  0  0  0  0
   26.9793  -26.3619  -15.5832 O   0  0  0  0  0  0  0  0  0  0  0  0
   25.4651  -24.5130  -15.7777 C   0  0  0  0  0  0  0  0  0  0  0  0
   24.5339  -23.9999  -16.8409 C   0  0  0  0  0  0  0  0  0  0  0  0
   23.6410  -22.8982  -16.3974 C   0  0  2  0  0  0  0  0  0  0  0  0
   24.3205  -21.5953  -16.4978 N   0  0  0  0  0  0  0  0  0  0  0  0
   23.1031  -23.0619  -15.0427 C   0  0  0  0  0  0  0  0  0  0  0  0
   23.8494  -23.4655  -14.0995 O   0  0  0  0  0  0  0  0  0  0  0  0
   21.7419  -22.7643  -14.8008 N   0  0  0  0  0  0  0  0  0  0  0  0
   21.3523  -22.1446  -13.5617 C   0  0  1  0  0  0  0  0  0  0  0  0
   22.1056  -20.8201  -13.5227 C   0  0  0  0  0  0  0  0  0  0  0  0
   21.6071  -19.9180  -12.4924 C   0  0  0  0  0  0  0  0  0  0  0  0
   21.9721  -20.0914  -11.1866 C   0  0  0  0  0  0  0  0  0  0  0  0
   21.5170  -19.2376  -10.1753 C   0  0  0  0  0  0  0  0  0  0  0  0
   20.6778  -18.1935  -10.5047 C   0  0  0  0  0  0  0  0  0  0  0  0
   20.3016  -18.0103  -11.8308 C   0  0  0  0  0  0  0  0  0  0  0  0
   20.7708  -18.8784  -12.8239 C   0  0  0  0  0  0  0  0  0  0  0  0
   19.8913  -21.9081  -13.6110 C   0  0  0  0  0  0  0  0  0  0  0  0
   19.0707  -21.8754  -12.4887 O   0  0  0  0  0  0  0  0  0  0  0  0
   19.2836  -21.7163  -14.7175 O   0  0  0  0  0  0  0  0  0  0  0  0
  2  1  1  0
  2  3  2  0
  4  2  1  0
  4  5  1  0
  5  6  1  1
  5  7  1  0
  7  8  2  0
  9 10  1  0
 10 11  2  0
 10 12  1  0
 12 13  1  0
 14 13  1  1
 15  7  1  0
 15 14  1  0
 16 17  2  0
 16 14  1  0
 18 16  1  0
 19 18  1  0
 19 20  1  6
 21 22  2  0
 21 20  1  0
 23 22  1  0
 24 23  2  0
 25 24  1  0
 25 26  2  0
 26 21  1  0
 27 28  1  0
 27 19  1  0
 29 27  2  0
M  END
$$$$
