NQF.pdb
     RDKit          3D

 29 29  0  0  1  0  0  0  0  0999 V2000
   27.7892  -25.2438  -16.3587 N   0  0  0  0  0  0  0  0  0  0  0  0
   26.5228  -25.8724  -16.4329 C   0  0  0  0  0  0  0  0  0  0  0  0
   25.5265  -25.2797  -15.9706 O   0  0  0  0  0  0  0  0  0  0  0  0
   26.3678  -27.2054  -17.0437 C   0  0  0  0  0  0  0  0  0  0  0  0
   27.7219  -27.7296  -17.4116 C   0  0  2  0  0  0  0  0  0  0  0  0
   28.2742  -27.1330  -18.5842 N   0  0  0  0  0  0  0  0  0  0  0  0
   27.7305  -29.2127  -17.5710 C   0  0  0  0  0  0  0  0  0  0  0  0
   27.4041  -29.7554  -18.6669 O   0  0  0  0  0  0  0  0  0  0  0  0
   32.0104  -33.0006  -15.8871 N   0  0  0  0  0  0  0  0  0  0  0  0
   31.9057  -32.2531  -17.0850 C   0  0  0  0  0  0  0  0  0  0  0  0
   32.8921  -32.0933  -17.8364 O   0  0  0  0  0  0  0  0  0  0  0  0
   30.5699  -31.6500  -17.4370 C   0  0  0  0  0  0  0  0  0  0  0  0
   29.6013  -31.9429  -16.3248 C   0  0  0  0  0  0  0  0  0  0  0  0
   28.2094  -31.4936  -16.5867 C   0  0  2  0  0  0  0  0  0  0  0  0
   28.1033  -30.0271  -16.5000 N   0  0  0  0  0  0  0  0  0  0  0  0
   27.2007  -32.1056  -15.7154 C   0  0  0  0  0  0  0  0  0  0  0  0
   27.1696  -31.8311  -14.4772 O   0  0  0  0  0  0  0  0  0  0  0  0
   26.2630  -33.0057  -16.2726 N   0  0  0  0  0  0  0  0  0  0  0  0
   25.2968  -33.6516  -15.4239 C   0  0  1  0  0  0  0  0  0  0  0  0
   23.9493  -33.0729  -15.8394 C   0  0  0  0  0  0  0  0  0  0  0  0
   22.8270  -33.7244  -15.1760 C   0  0  0  0  0  0  0  0  0  0  0  0
   22.0584  -34.6321  -15.8496 C   0  0  0  0  0  0  0  0  0  0  0  0
   20.9792  -35.2805  -15.2384 C   0  0  0  0  0  0  0  0  0  0  0  0
   20.6829  -34.9960  -13.9215 C   0  0  0  0  0  0  0  0  0  0  0  0
   21.4598  -34.0736  -13.2293 C   0  0  0  0  0  0  0  0  0  0  0  0
   22.5343  -33.4386  -13.8635 C   0  0  0  0  0  0  0  0  0  0  0  0
   25.3447  -35.1049  -15.7039 C   0  0  0  0  0  0  0  0  0  0  0  0
   25.0419  -36.0876  -14.7676 O   0  0  0  0  0  0  0  0  0  0  0  0
   25.6772  -35.5522  -16.8527 O   0  0  0  0  0  0  0  0  0  0  0  0
  2  1  1  0
  2  3  2  0
  4  2  1  0
  4  5  1  0
  5  6  1  6
  5  7  1  0
  7  8  2  0
  9 10  1  0
 10 11  2  0
 10 12  1  0
 12 13  1  0
 14 13  1  1
 15  7  1  0
 15 14  1  0
 16 17  2  0
 16 14  1  0
 18 16  1  0
 19 18  1  0
 19 20  1  6
 21 22  2  0
 21 20  1  0
 23 22  1  0
 24 23  2  0
 25 24  1  0
 25 26  2  0
 26 21  1  0
 27 28  1  0
 27 19  1  0
 29 27  2  0
M  END
$$$$
