NQF.pdb
     RDKit          3D

 29 29  0  0  1  0  0  0  0  0999 V2000
   30.2711  -22.2310  -17.2198 N   0  0  0  0  0  0  0  0  0  0  0  0
   28.9926  -22.6844  -17.6253 C   0  0  0  0  0  0  0  0  0  0  0  0
   28.8913  -23.8094  -18.1560 O   0  0  0  0  0  0  0  0  0  0  0  0
   27.7912  -21.8522  -17.4301 C   0  0  0  0  0  0  0  0  0  0  0  0
   26.8402  -22.5788  -16.5293 C   0  0  2  0  0  0  0  0  0  0  0  0
   26.3049  -23.7737  -17.0963 N   0  0  0  0  0  0  0  0  0  0  0  0
   25.7156  -21.7104  -16.0751 C   0  0  0  0  0  0  0  0  0  0  0  0
   25.9273  -20.5453  -15.6282 O   0  0  0  0  0  0  0  0  0  0  0  0
   21.7965  -23.2539  -18.8067 N   0  0  0  0  0  0  0  0  0  0  0  0
   22.3392  -22.0252  -19.2544 C   0  0  0  0  0  0  0  0  0  0  0  0
   22.5530  -21.8163  -20.4684 O   0  0  0  0  0  0  0  0  0  0  0  0
   22.6557  -20.9674  -18.2284 C   0  0  0  0  0  0  0  0  0  0  0  0
   22.1968  -21.4511  -16.8807 C   0  0  0  0  0  0  0  0  0  0  0  0
   23.2241  -21.3588  -15.8113 C   0  0  2  0  0  0  0  0  0  0  0  0
   24.4023  -22.1797  -16.1391 N   0  0  0  0  0  0  0  0  0  0  0  0
   22.7405  -21.7165  -14.4735 C   0  0  0  0  0  0  0  0  0  0  0  0
   22.7941  -22.9184  -14.0711 O   0  0  0  0  0  0  0  0  0  0  0  0
   22.2136  -20.7047  -13.6376 N   0  0  0  0  0  0  0  0  0  0  0  0
   21.7983  -21.0254  -12.2976 C   0  0  1  0  0  0  0  0  0  0  0  0
   22.4415  -19.9627  -11.4143 C   0  0  0  0  0  0  0  0  0  0  0  0
   23.7491  -20.3636  -10.9110 C   0  0  0  0  0  0  0  0  0  0  0  0
   24.8133  -20.4727  -11.7618 C   0  0  0  0  0  0  0  0  0  0  0  0
   26.0832  -20.8476  -11.3082 C   0  0  0  0  0  0  0  0  0  0  0  0
   26.2658  -21.1143   -9.9671 C   0  0  0  0  0  0  0  0  0  0  0  0
   25.1882  -21.0059   -9.0950 C   0  0  0  0  0  0  0  0  0  0  0  0
   23.9278  -20.6289   -9.5739 C   0  0  0  0  0  0  0  0  0  0  0  0
   20.3221  -20.9212  -12.2415 C   0  0  0  0  0  0  0  0  0  0  0  0
   19.5385  -21.5050  -11.2521 O   0  0  0  0  0  0  0  0  0  0  0  0
   19.6654  -20.2721  -13.1234 O   0  0  0  0  0  0  0  0  0  0  0  0
  2  1  1  0
  2  3  2  0
  4  2  1  0
  4  5  1  0
  5  6  1  6
  5  7  1  0
  7  8  2  0
  9 10  1  0
 10 11  2  0
 10 12  1  0
 12 13  1  0
 14 13  1  6
 15  7  1  0
 15 14  1  0
 16 17  2  0
 16 14  1  0
 18 16  1  0
 19 18  1  0
 19 20  1  1
 21 22  2  0
 21 20  1  0
 23 22  1  0
 24 23  2  0
 25 24  1  0
 25 26  2  0
 26 21  1  0
 27 28  1  0
 27 19  1  0
 29 27  2  0
M  END
$$$$
