ANL.pdb
     RDKit          3D

 22 21  0  0  1  0  0  0  0  0999 V2000
   26.9549  -20.0788  -14.9404 C   0  0  0  0  0  0  0  0  0  0  0  0
   27.2447  -20.9806  -13.7542 C   0  0  2  0  0  0  0  0  0  0  0  0
   26.5658  -22.2460  -14.0100 N   0  0  0  0  0  0  0  0  0  0  0  0
   26.6436  -20.3070  -12.5573 C   0  0  0  0  0  0  0  0  0  0  0  0
   26.9448  -19.1360  -12.3020 O   0  0  0  0  0  0  0  0  0  0  0  0
   23.4325  -19.3483  -12.3142 N   0  0  0  0  0  0  0  0  0  0  0  0
   22.8489  -20.2757  -11.4229 C   0  0  0  0  0  0  0  0  0  0  0  0
   21.6166  -20.5643  -11.5267 O   0  0  0  0  0  0  0  0  0  0  0  0
   23.7289  -20.8750  -10.3908 C   0  0  0  0  0  0  0  0  0  0  0  0
   25.1613  -20.4392  -10.5102 C   0  0  2  0  0  0  0  0  0  0  0  0
   25.7246  -21.0093  -11.7092 N   0  0  0  0  0  0  0  0  0  0  0  0
   25.9476  -20.8664   -9.2971 C   0  0  0  0  0  0  0  0  0  0  0  0
   26.2419  -22.0739   -9.1248 O   0  0  0  0  0  0  0  0  0  0  0  0
   28.7203  -18.4569   -4.2618 C   0  0  0  0  0  0  0  0  0  0  0  0
   28.3912  -19.6526   -5.1599 C   0  0  2  0  0  0  0  0  0  0  0  0
   29.6283  -20.4538   -5.4574 C   0  0  0  0  0  0  0  0  0  0  0  0
   27.7276  -19.2038   -6.4286 C   0  0  0  0  0  0  0  0  0  0  0  0
   27.0599  -20.3444   -7.1034 C   0  0  2  0  0  0  0  0  0  0  0  0
   26.3746  -19.9306   -8.3242 N   0  0  0  0  0  0  0  0  0  0  0  0
   26.1900  -21.0933   -6.2133 C   0  0  0  0  0  0  0  0  0  0  0  0
   26.5601  -22.0644   -5.3063 O   0  0  0  0  0  0  0  0  0  0  0  0
   24.9302  -20.8442   -6.2588 O   0  0  0  0  0  0  0  0  0  0  0  0
  2  1  1  6
  2  4  1  0
  2  3  1  0
  4 11  1  0
  5  4  2  0
  7  8  2  0
  7  6  1  0
  9  7  1  0
 10  9  1  1
 10 12  1  0
 11 10  1  0
 12 13  2  0
 12 19  1  0
 15 14  1  1
 15 16  1  0
 18 17  1  1
 17 15  1  0
 18 20  1  0
 19 18  1  0
 20 22  2  0
 20 21  1  0
M  END
$$$$
