ANL.pdb
     RDKit          3D

 22 21  0  0  1  0  0  0  0  0999 V2000
   14.4794  -11.4983  -16.4023 C   0  0  0  0  0  0  0  0  0  0  0  0
   15.8254  -11.4114  -17.0987 C   0  0  2  0  0  0  0  0  0  0  0  0
   16.4943  -12.6900  -16.8858 N   0  0  0  0  0  0  0  0  0  0  0  0
   16.5831  -10.3140  -16.4135 C   0  0  0  0  0  0  0  0  0  0  0  0
   16.1869   -9.8893  -15.3227 O   0  0  0  0  0  0  0  0  0  0  0  0
   21.4464  -10.7772  -17.2802 N   0  0  0  0  0  0  0  0  0  0  0  0
   20.6285  -10.0764  -16.3663 C   0  0  0  0  0  0  0  0  0  0  0  0
   20.4838  -10.5127  -15.1825 O   0  0  0  0  0  0  0  0  0  0  0  0
   19.9685   -8.8405  -16.8519 C   0  0  0  0  0  0  0  0  0  0  0  0
   18.5433   -8.7133  -16.3954 C   0  0  2  0  0  0  0  0  0  0  0  0
   17.7604   -9.7554  -17.0126 N   0  0  0  0  0  0  0  0  0  0  0  0
   17.9937   -7.3547  -16.7479 C   0  0  0  0  0  0  0  0  0  0  0  0
   17.4645   -7.1555  -17.8681 O   0  0  0  0  0  0  0  0  0  0  0  0
   13.8990   -3.6148  -15.8857 C   0  0  0  0  0  0  0  0  0  0  0  0
   15.3747   -3.6710  -16.2905 C   0  0  2  0  0  0  0  0  0  0  0  0
   15.5386   -3.3739  -17.7553 C   0  0  0  0  0  0  0  0  0  0  0  0
   15.9753   -5.0019  -15.9449 C   0  0  0  0  0  0  0  0  0  0  0  0
   17.4470   -4.9784  -16.1341 C   0  0  2  0  0  0  0  0  0  0  0  0
   18.0557   -6.2718  -15.8378 N   0  0  0  0  0  0  0  0  0  0  0  0
   18.0892   -3.8925  -15.4143 C   0  0  0  0  0  0  0  0  0  0  0  0
   18.2660   -2.5943  -15.8457 O   0  0  0  0  0  0  0  0  0  0  0  0
   18.5559   -4.1443  -14.2438 O   0  0  0  0  0  0  0  0  0  0  0  0
  2  1  1  1
  2  4  1  0
  2  3  1  0
  4 11  1  0
  5  4  2  0
  7  8  2  0
  7  6  1  0
  9  7  1  0
 10  9  1  6
 10 12  1  0
 11 10  1  0
 12 13  2  0
 12 19  1  0
 15 14  1  6
 15 16  1  0
 18 17  1  1
 17 15  1  0
 18 20  1  0
 19 18  1  0
 20 22  2  0
 20 21  1  0
M  END
$$$$
