ANL.pdb
     RDKit          3D

 22 21  0  0  1  0  0  0  0  0999 V2000
   21.7158  -23.8902  -13.6015 C   0  0  0  0  0  0  0  0  0  0  0  0
   23.1670  -23.7348  -14.0187 C   0  0  2  0  0  0  0  0  0  0  0  0
   23.9291  -24.7320  -13.2754 N   0  0  0  0  0  0  0  0  0  0  0  0
   23.5792  -22.3554  -13.6002 C   0  0  0  0  0  0  0  0  0  0  0  0
   22.9866  -21.3753  -14.0645 O   0  0  0  0  0  0  0  0  0  0  0  0
   23.0218  -20.7006  -10.5979 N   0  0  0  0  0  0  0  0  0  0  0  0
   24.2768  -20.8094   -9.9589 C   0  0  0  0  0  0  0  0  0  0  0  0
   24.3408  -20.8454   -8.6911 O   0  0  0  0  0  0  0  0  0  0  0  0
   25.4785  -20.8773  -10.8250 C   0  0  0  0  0  0  0  0  0  0  0  0
   25.1517  -20.8660  -12.2909 C   0  0  2  0  0  0  0  0  0  0  0  0
   24.6527  -22.1654  -12.6682 N   0  0  0  0  0  0  0  0  0  0  0  0
   26.3703  -20.5073  -13.1024 C   0  0  0  0  0  0  0  0  0  0  0  0
   27.5200  -20.6754  -12.6286 O   0  0  0  0  0  0  0  0  0  0  0  0
   29.2930  -21.7570  -16.5413 C   0  0  0  0  0  0  0  0  0  0  0  0
   27.9440  -22.4720  -16.6579 C   0  0  2  0  0  0  0  0  0  0  0  0
   27.3798  -22.3255  -18.0439 C   0  0  0  0  0  0  0  0  0  0  0  0
   26.9763  -21.9623  -15.6307 C   0  0  0  0  0  0  0  0  0  0  0  0
   27.0577  -20.4846  -15.5209 C   0  0  2  0  0  0  0  0  0  0  0  0
   26.2593  -19.9755  -14.4099 N   0  0  0  0  0  0  0  0  0  0  0  0
   26.7515  -19.8102  -16.7704 C   0  0  0  0  0  0  0  0  0  0  0  0
   27.6160  -19.0788  -17.5580 O   0  0  0  0  0  0  0  0  0  0  0  0
   25.5469  -19.8857  -17.2112 O   0  0  0  0  0  0  0  0  0  0  0  0
  2  1  1  1
  2  4  1  0
  2  3  1  0
  4 11  1  0
  5  4  2  0
  7  8  2  0
  7  6  1  0
  9  7  1  0
 10  9  1  1
 10 12  1  0
 11 10  1  0
 12 13  2  0
 12 19  1  0
 15 14  1  6
 15 16  1  0
 18 17  1  6
 17 15  1  0
 18 20  1  0
 19 18  1  0
 20 22  2  0
 20 21  1  0
M  END
$$$$
