ANL.pdb
     RDKit          3D

 22 21  0  0  1  0  0  0  0  0999 V2000
   23.4829  -12.0551  -19.5565 C   0  0  0  0  0  0  0  0  0  0  0  0
   22.2751  -12.5145  -18.7599 C   0  0  2  0  0  0  0  0  0  0  0  0
   21.4793  -13.3555  -19.6469 N   0  0  0  0  0  0  0  0  0  0  0  0
   21.5107  -11.2751  -18.4032 C   0  0  0  0  0  0  0  0  0  0  0  0
   21.4414  -10.3469  -19.2161 O   0  0  0  0  0  0  0  0  0  0  0  0
   18.0762   -8.2318  -16.3738 N   0  0  0  0  0  0  0  0  0  0  0  0
   18.0042   -9.3918  -15.5710 C   0  0  0  0  0  0  0  0  0  0  0  0
   17.0262   -9.5526  -14.7771 O   0  0  0  0  0  0  0  0  0  0  0  0
   19.1011  -10.3808  -15.7032 C   0  0  0  0  0  0  0  0  0  0  0  0
   20.1365   -9.9829  -16.7159 C   0  0  2  0  0  0  0  0  0  0  0  0
   20.8613  -11.1590  -17.1296 N   0  0  0  0  0  0  0  0  0  0  0  0
   21.0751   -8.9549  -16.1376 C   0  0  0  0  0  0  0  0  0  0  0  0
   21.9462   -9.2914  -15.2995 O   0  0  0  0  0  0  0  0  0  0  0  0
   24.0393   -3.9069  -17.6426 C   0  0  0  0  0  0  0  0  0  0  0  0
   23.6308   -4.8978  -16.5490 C   0  0  2  0  0  0  0  0  0  0  0  0
   24.8424   -5.5156  -15.9080 C   0  0  0  0  0  0  0  0  0  0  0  0
   22.7188   -5.9555  -17.0974 C   0  0  0  0  0  0  0  0  0  0  0  0
   21.9469   -6.6002  -16.0061 C   0  0  2  0  0  0  0  0  0  0  0  0
   21.0055   -7.5924  -16.5163 N   0  0  0  0  0  0  0  0  0  0  0  0
   21.3063   -5.6381  -15.1264 C   0  0  0  0  0  0  0  0  0  0  0  0
   21.8616   -5.0089  -14.0317 O   0  0  0  0  0  0  0  0  0  0  0  0
   20.0849   -5.3237  -15.3721 O   0  0  0  0  0  0  0  0  0  0  0  0
  2  1  1  6
  2  4  1  0
  2  3  1  0
  4 11  1  0
  5  4  2  0
  7  8  2  0
  7  6  1  0
  9  7  1  0
 10  9  1  1
 10 12  1  0
 11 10  1  0
 12 13  2  0
 12 19  1  0
 15 14  1  6
 15 16  1  0
 18 17  1  6
 17 15  1  0
 18 20  1  0
 19 18  1  0
 20 22  2  0
 20 21  1  0
M  END
$$$$
