ANL.pdb
     RDKit          3D

 22 21  0  0  1  0  0  0  0  0999 V2000
   32.4589  -36.6822   -2.1846 C   0  0  0  0  0  0  0  0  0  0  0  0
   31.7730  -36.1641   -3.4357 C   0  0  2  0  0  0  0  0  0  0  0  0
   32.8121  -35.5778   -4.2748 N   0  0  0  0  0  0  0  0  0  0  0  0
   30.8177  -35.1014   -2.9819 C   0  0  0  0  0  0  0  0  0  0  0  0
   31.2576  -34.0230   -2.5686 O   0  0  0  0  0  0  0  0  0  0  0  0
   26.0301  -32.2922   -4.1109 N   0  0  0  0  0  0  0  0  0  0  0  0
   26.1992  -33.4223   -3.2805 C   0  0  0  0  0  0  0  0  0  0  0  0
   25.4294  -33.5981   -2.2859 O   0  0  0  0  0  0  0  0  0  0  0  0
   27.2926  -34.3629   -3.6247 C   0  0  0  0  0  0  0  0  0  0  0  0
   28.4313  -34.3289   -2.6459 C   0  0  2  0  0  0  0  0  0  0  0  0
   29.4019  -35.3264   -3.0237 N   0  0  0  0  0  0  0  0  0  0  0  0
   27.9326  -34.5748   -1.2448 C   0  0  0  0  0  0  0  0  0  0  0  0
   27.7403  -35.7455   -0.8362 O   0  0  0  0  0  0  0  0  0  0  0  0
   26.7038  -31.6349    4.0694 C   0  0  0  0  0  0  0  0  0  0  0  0
   27.0338  -32.9208    3.3064 C   0  0  2  0  0  0  0  0  0  0  0  0
   28.0706  -33.7260    4.0397 C   0  0  0  0  0  0  0  0  0  0  0  0
   27.4858  -32.6142    1.9089 C   0  0  0  0  0  0  0  0  0  0  0  0
   27.1527  -33.7327    0.9923 C   0  0  2  0  0  0  0  0  0  0  0  0
   27.6680  -33.5061   -0.3546 N   0  0  0  0  0  0  0  0  0  0  0  0
   25.7365  -34.0554    0.9905 C   0  0  0  0  0  0  0  0  0  0  0  0
   25.1081  -35.0597    1.6969 O   0  0  0  0  0  0  0  0  0  0  0  0
   24.9615  -33.3422    0.2542 O   0  0  0  0  0  0  0  0  0  0  0  0
  2  1  1  1
  2  4  1  0
  2  3  1  0
  4 11  1  0
  5  4  2  0
  7  8  2  0
  7  6  1  0
  9  7  1  0
 10  9  1  6
 10 12  1  0
 11 10  1  0
 12 13  2  0
 12 19  1  0
 15 14  1  1
 15 16  1  0
 18 17  1  1
 17 15  1  0
 18 20  1  0
 19 18  1  0
 20 22  2  0
 20 21  1  0
M  END
$$$$
