ANL.pdb
     RDKit          3D

 22 21  0  0  1  0  0  0  0  0999 V2000
   20.6851  -14.7758  -16.4712 C   0  0  0  0  0  0  0  0  0  0  0  0
   20.5386  -13.4592  -17.2125 C   0  0  2  0  0  0  0  0  0  0  0  0
   21.1310  -13.6494  -18.5318 N   0  0  0  0  0  0  0  0  0  0  0  0
   21.3277  -12.4490  -16.4349 C   0  0  0  0  0  0  0  0  0  0  0  0
   21.0662  -12.2586  -15.2423 O   0  0  0  0  0  0  0  0  0  0  0  0
   25.9216  -11.7530  -15.1662 N   0  0  0  0  0  0  0  0  0  0  0  0
   25.2838  -11.8353  -16.4238 C   0  0  0  0  0  0  0  0  0  0  0  0
   25.3771  -12.8979  -17.1127 O   0  0  0  0  0  0  0  0  0  0  0  0
   24.5224  -10.6475  -16.8804 C   0  0  0  0  0  0  0  0  0  0  0  0
   23.0977  -10.6404  -16.4050 C   0  0  2  0  0  0  0  0  0  0  0  0
   22.3804  -11.7044  -17.0630 N   0  0  0  0  0  0  0  0  0  0  0  0
   22.4518   -9.3080  -16.6879 C   0  0  0  0  0  0  0  0  0  0  0  0
   22.2653   -8.9318  -17.8703 O   0  0  0  0  0  0  0  0  0  0  0  0
   17.6014   -6.8607  -17.0608 C   0  0  0  0  0  0  0  0  0  0  0  0
   19.0704   -6.4817  -16.8527 C   0  0  2  0  0  0  0  0  0  0  0  0
   19.6153   -5.7717  -18.0609 C   0  0  0  0  0  0  0  0  0  0  0  0
   19.8954   -7.6918  -16.5269 C   0  0  0  0  0  0  0  0  0  0  0  0
   21.1734   -7.2979  -15.8836 C   0  0  2  0  0  0  0  0  0  0  0  0
   22.0394   -8.4479  -15.6416 N   0  0  0  0  0  0  0  0  0  0  0  0
   20.9774   -6.4978  -14.6872 C   0  0  0  0  0  0  0  0  0  0  0  0
   20.6267   -5.1653  -14.6221 O   0  0  0  0  0  0  0  0  0  0  0  0
   21.1466   -7.0712  -13.5498 O   0  0  0  0  0  0  0  0  0  0  0  0
  2  1  1  1
  2  4  1  0
  2  3  1  0
  4 11  1  0
  5  4  2  0
  7  8  2  0
  7  6  1  0
  9  7  1  0
 10  9  1  6
 10 12  1  0
 11 10  1  0
 12 13  2  0
 12 19  1  0
 15 14  1  6
 15 16  1  0
 18 17  1  1
 17 15  1  0
 18 20  1  0
 19 18  1  0
 20 22  2  0
 20 21  1  0
M  END
$$$$
