ANL.pdb
     RDKit          3D

 22 21  0  0  1  0  0  0  0  0999 V2000
   18.7577  -14.6085  -20.0074 C   0  0  0  0  0  0  0  0  0  0  0  0
   19.8127  -14.3709  -18.9421 C   0  0  2  0  0  0  0  0  0  0  0  0
   19.2419  -14.8163  -17.6759 N   0  0  0  0  0  0  0  0  0  0  0  0
   20.0492  -12.8908  -18.9075 C   0  0  0  0  0  0  0  0  0  0  0  0
   20.6199  -12.3427  -19.8568 O   0  0  0  0  0  0  0  0  0  0  0  0
   18.1992   -7.6547  -17.7939 N   0  0  0  0  0  0  0  0  0  0  0  0
   18.7584   -8.5892  -16.8943 C   0  0  0  0  0  0  0  0  0  0  0  0
   19.3813   -8.1826  -15.8651 O   0  0  0  0  0  0  0  0  0  0  0  0
   18.5825  -10.0274  -17.2094 C   0  0  0  0  0  0  0  0  0  0  0  0
   19.8476  -10.6890  -17.6761 C   0  0  2  0  0  0  0  0  0  0  0  0
   19.6195  -12.1089  -17.7846 N   0  0  0  0  0  0  0  0  0  0  0  0
   20.9782  -10.4027  -16.7211 C   0  0  0  0  0  0  0  0  0  0  0  0
   21.0728  -11.0356  -15.6418 O   0  0  0  0  0  0  0  0  0  0  0  0
   26.7785   -9.5570  -16.3857 C   0  0  0  0  0  0  0  0  0  0  0  0
   25.4522   -9.6085  -15.6221 C   0  0  2  0  0  0  0  0  0  0  0  0
   25.5104  -10.6281  -14.5185 C   0  0  0  0  0  0  0  0  0  0  0  0
   24.3090   -9.8920  -16.5515 C   0  0  0  0  0  0  0  0  0  0  0  0
   23.0863   -9.1742  -16.1135 C   0  0  2  0  0  0  0  0  0  0  0  0
   21.9587   -9.4221  -17.0070 N   0  0  0  0  0  0  0  0  0  0  0  0
   23.3136   -7.7558  -15.8982 C   0  0  0  0  0  0  0  0  0  0  0  0
   23.7111   -7.1421  -14.7286 O   0  0  0  0  0  0  0  0  0  0  0  0
   23.1276   -6.9626  -16.8919 O   0  0  0  0  0  0  0  0  0  0  0  0
  2  1  1  6
  2  4  1  0
  2  3  1  0
  4 11  1  0
  5  4  2  0
  7  8  2  0
  7  6  1  0
  9  7  1  0
 10  9  1  1
 10 12  1  0
 11 10  1  0
 12 13  2  0
 12 19  1  0
 15 14  1  6
 15 16  1  0
 18 17  1  6
 17 15  1  0
 18 20  1  0
 19 18  1  0
 20 22  2  0
 20 21  1  0
M  END
$$$$
