ANL.pdb
     RDKit          3D

 22 21  0  0  1  0  0  0  0  0999 V2000
   13.0445  -11.8155  -14.0650 C   0  0  0  0  0  0  0  0  0  0  0  0
   14.4951  -12.0452  -14.4489 C   0  0  2  0  0  0  0  0  0  0  0  0
   14.7098  -13.4879  -14.4440 N   0  0  0  0  0  0  0  0  0  0  0  0
   15.3208  -11.3985  -13.3775 C   0  0  0  0  0  0  0  0  0  0  0  0
   15.4474  -11.9597  -12.2839 O   0  0  0  0  0  0  0  0  0  0  0  0
   19.9393   -8.5881  -11.9210 N   0  0  0  0  0  0  0  0  0  0  0  0
   18.7568   -7.9783  -12.3954 C   0  0  0  0  0  0  0  0  0  0  0  0
   18.4611   -6.7993  -12.0279 O   0  0  0  0  0  0  0  0  0  0  0  0
   17.9062   -8.7680  -13.3183 C   0  0  0  0  0  0  0  0  0  0  0  0
   16.7721   -9.4667  -12.6245 C   0  0  2  0  0  0  0  0  0  0  0  0
   15.9628  -10.1375  -13.6119 N   0  0  0  0  0  0  0  0  0  0  0  0
   15.9452   -8.4818  -11.8380 C   0  0  0  0  0  0  0  0  0  0  0  0
   15.1231   -7.7350  -12.4217 O   0  0  0  0  0  0  0  0  0  0  0  0
   12.7049   -6.7244   -8.7247 C   0  0  0  0  0  0  0  0  0  0  0  0
   13.7752   -7.1545   -7.7177 C   0  0  2  0  0  0  0  0  0  0  0  0
   14.4161   -5.9560   -7.0746 C   0  0  0  0  0  0  0  0  0  0  0  0
   14.8072   -8.0258   -8.3714 C   0  0  0  0  0  0  0  0  0  0  0  0
   15.2520   -7.4367   -9.6587 C   0  0  2  0  0  0  0  0  0  0  0  0
   16.0675   -8.3684  -10.4321 N   0  0  0  0  0  0  0  0  0  0  0  0
   15.9005   -6.1476   -9.4930 C   0  0  0  0  0  0  0  0  0  0  0  0
   15.3220   -4.9008   -9.6099 O   0  0  0  0  0  0  0  0  0  0  0  0
   17.1536   -6.1406   -9.2084 O   0  0  0  0  0  0  0  0  0  0  0  0
  2  1  1  1
  2  4  1  0
  2  3  1  0
  4 11  1  0
  5  4  2  0
  7  8  2  0
  7  6  1  0
  9  7  1  0
 10  9  1  6
 10 12  1  0
 11 10  1  0
 12 13  2  0
 12 19  1  0
 15 14  1  6
 15 16  1  0
 18 17  1  1
 17 15  1  0
 18 20  1  0
 19 18  1  0
 20 22  2  0
 20 21  1  0
M  END
$$$$
