ANL.pdb
     RDKit          3D

 22 21  0  0  1  0  0  0  0  0999 V2000
   20.2113  -12.6522  -16.7862 C   0  0  0  0  0  0  0  0  0  0  0  0
   18.7688  -12.6479  -16.3134 C   0  0  2  0  0  0  0  0  0  0  0  0
   18.0084  -13.4439  -17.2704 N   0  0  0  0  0  0  0  0  0  0  0  0
   18.3162  -11.2193  -16.3579 C   0  0  0  0  0  0  0  0  0  0  0  0
   18.7311  -10.4764  -17.2541 O   0  0  0  0  0  0  0  0  0  0  0  0
   13.5921  -10.6955  -14.7687 N   0  0  0  0  0  0  0  0  0  0  0  0
   14.5438   -9.9212  -15.4688 C   0  0  0  0  0  0  0  0  0  0  0  0
   14.4562   -9.7985  -16.7297 O   0  0  0  0  0  0  0  0  0  0  0  0
   15.6180   -9.2796  -14.6731 C   0  0  0  0  0  0  0  0  0  0  0  0
   16.9627   -9.3389  -15.3395 C   0  0  2  0  0  0  0  0  0  0  0  0
   17.4082  -10.7101  -15.3713 N   0  0  0  0  0  0  0  0  0  0  0  0
   17.9556   -8.4732  -14.6066 C   0  0  0  0  0  0  0  0  0  0  0  0
   18.7676   -8.9844  -13.7981 O   0  0  0  0  0  0  0  0  0  0  0  0
   22.8016   -6.1431  -15.1651 C   0  0  0  0  0  0  0  0  0  0  0  0
   21.5425   -5.8884  -14.3317 C   0  0  2  0  0  0  0  0  0  0  0  0
   21.8338   -6.0386  -12.8642 C   0  0  0  0  0  0  0  0  0  0  0  0
   20.4280   -6.8012  -14.7512 C   0  0  0  0  0  0  0  0  0  0  0  0
   19.1159   -6.2616  -14.3161 C   0  0  2  0  0  0  0  0  0  0  0  0
   18.0040   -7.0720  -14.8039 N   0  0  0  0  0  0  0  0  0  0  0  0
   18.9517   -4.8548  -14.6384 C   0  0  0  0  0  0  0  0  0  0  0  0
   19.3580   -3.7728  -13.8854 O   0  0  0  0  0  0  0  0  0  0  0  0
   18.3623   -4.5586  -15.7412 O   0  0  0  0  0  0  0  0  0  0  0  0
  2  1  1  6
  2  4  1  0
  2  3  1  0
  4 11  1  0
  5  4  2  0
  7  8  2  0
  7  6  1  0
  9  7  1  0
 10  9  1  1
 10 12  1  0
 11 10  1  0
 12 13  2  0
 12 19  1  0
 15 14  1  6
 15 16  1  0
 18 17  1  6
 17 15  1  0
 18 20  1  0
 19 18  1  0
 20 22  2  0
 20 21  1  0
M  END
$$$$
