ANL.pdb
     RDKit          3D

 22 21  0  0  1  0  0  0  0  0999 V2000
   27.9976  -12.2555  -15.7470 C   0  0  0  0  0  0  0  0  0  0  0  0
   27.6008  -11.7916  -17.1369 C   0  0  2  0  0  0  0  0  0  0  0  0
   26.9809  -12.9322  -17.8018 N   0  0  0  0  0  0  0  0  0  0  0  0
   28.8742  -11.4188  -17.8350 C   0  0  0  0  0  0  0  0  0  0  0  0
   29.4802  -12.2713  -18.4931 O   0  0  0  0  0  0  0  0  0  0  0  0
   31.7205   -9.0900  -21.5068 N   0  0  0  0  0  0  0  0  0  0  0  0
   31.2824   -8.2949  -20.4247 C   0  0  0  0  0  0  0  0  0  0  0  0
   31.8629   -7.1941  -20.1720 O   0  0  0  0  0  0  0  0  0  0  0  0
   30.1415   -8.8022  -19.6248 C   0  0  0  0  0  0  0  0  0  0  0  0
   30.5673   -9.6430  -18.4553 C   0  0  2  0  0  0  0  0  0  0  0  0
   29.3924  -10.0844  -17.7451 N   0  0  0  0  0  0  0  0  0  0  0  0
   31.4777   -8.8601  -17.5440 C   0  0  0  0  0  0  0  0  0  0  0  0
   31.0026   -8.1906  -16.5951 O   0  0  0  0  0  0  0  0  0  0  0  0
   34.5718   -8.6184  -14.0951 C   0  0  0  0  0  0  0  0  0  0  0  0
   34.8728   -9.5746  -15.2526 C   0  0  2  0  0  0  0  0  0  0  0  0
   36.1046  -10.3882  -14.9669 C   0  0  0  0  0  0  0  0  0  0  0  0
   35.0157   -8.8247  -16.5443 C   0  0  0  0  0  0  0  0  0  0  0  0
   33.7698   -8.0837  -16.8614 C   0  0  2  0  0  0  0  0  0  0  0  0
   32.8818   -8.8546  -17.7265 N   0  0  0  0  0  0  0  0  0  0  0  0
   34.0248   -6.7527  -17.3841 C   0  0  0  0  0  0  0  0  0  0  0  0
   34.4889   -5.6566  -16.6869 O   0  0  0  0  0  0  0  0  0  0  0  0
   33.7976   -6.5464  -18.6320 O   0  0  0  0  0  0  0  0  0  0  0  0
  2  1  1  1
  2  4  1  0
  2  3  1  0
  4 11  1  0
  5  4  2  0
  7  8  2  0
  7  6  1  0
  9  7  1  0
 10  9  1  6
 10 12  1  0
 11 10  1  0
 12 13  2  0
 12 19  1  0
 15 14  1  1
 15 16  1  0
 18 17  1  6
 17 15  1  0
 18 20  1  0
 19 18  1  0
 20 22  2  0
 20 21  1  0
M  END
$$$$
