ANL.pdb
     RDKit          3D

 22 21  0  0  1  0  0  0  0  0999 V2000
   13.6006   -9.2540  -14.5571 C   0  0  0  0  0  0  0  0  0  0  0  0
   13.6788   -9.4924  -16.0542 C   0  0  2  0  0  0  0  0  0  0  0  0
   12.7740  -10.5965  -16.3538 N   0  0  0  0  0  0  0  0  0  0  0  0
   15.0941   -9.8943  -16.3424 C   0  0  0  0  0  0  0  0  0  0  0  0
   15.5459  -10.9318  -15.8458 O   0  0  0  0  0  0  0  0  0  0  0  0
   19.2239  -10.3355  -20.0915 N   0  0  0  0  0  0  0  0  0  0  0  0
   19.0055   -9.1876  -19.2979 C   0  0  0  0  0  0  0  0  0  0  0  0
   19.9845   -8.4471  -18.9726 O   0  0  0  0  0  0  0  0  0  0  0  0
   17.6116   -8.9045  -18.8788 C   0  0  0  0  0  0  0  0  0  0  0  0
   17.2916   -9.4196  -17.5047 C   0  0  2  0  0  0  0  0  0  0  0  0
   15.9248   -9.0862  -17.1874 N   0  0  0  0  0  0  0  0  0  0  0  0
   18.2336   -8.8307  -16.4858 C   0  0  0  0  0  0  0  0  0  0  0  0
   17.9687   -7.7345  -15.9358 O   0  0  0  0  0  0  0  0  0  0  0  0
   23.7548   -9.9892  -13.8708 C   0  0  0  0  0  0  0  0  0  0  0  0
   22.4466   -9.1936  -13.8878 C   0  0  2  0  0  0  0  0  0  0  0  0
   21.9181   -9.0045  -12.4929 C   0  0  0  0  0  0  0  0  0  0  0  0
   21.4245   -9.8607  -14.7604 C   0  0  0  0  0  0  0  0  0  0  0  0
   20.3889   -8.8895  -15.1922 C   0  0  2  0  0  0  0  0  0  0  0  0
   19.4337   -9.4872  -16.1203 N   0  0  0  0  0  0  0  0  0  0  0  0
   20.9556   -7.6554  -15.7078 C   0  0  0  0  0  0  0  0  0  0  0  0
   21.3820   -7.4067  -16.9958 O   0  0  0  0  0  0  0  0  0  0  0  0
   21.0879   -6.6713  -14.8922 O   0  0  0  0  0  0  0  0  0  0  0  0
  2  1  1  1
  2  4  1  0
  2  3  1  0
  4 11  1  0
  5  4  2  0
  7  8  2  0
  7  6  1  0
  9  7  1  0
 10  9  1  6
 10 12  1  0
 11 10  1  0
 12 13  2  0
 12 19  1  0
 15 14  1  1
 15 16  1  0
 18 17  1  6
 17 15  1  0
 18 20  1  0
 19 18  1  0
 20 22  2  0
 20 21  1  0
M  END
$$$$
