ANL.pdb
     RDKit          3D

 22 21  0  0  1  0  0  0  0  0999 V2000
   12.8698  -10.8407  -12.2182 C   0  0  0  0  0  0  0  0  0  0  0  0
   14.3724  -11.0523  -12.2587 C   0  0  2  0  0  0  0  0  0  0  0  0
   14.6156  -12.4323  -11.8538 N   0  0  0  0  0  0  0  0  0  0  0  0
   14.9570  -10.1096  -11.2499 C   0  0  0  0  0  0  0  0  0  0  0  0
   14.5654  -10.1514  -10.0786 O   0  0  0  0  0  0  0  0  0  0  0  0
   19.2591   -7.0715   -9.3782 N   0  0  0  0  0  0  0  0  0  0  0  0
   18.4794   -6.6558  -10.4802 C   0  0  0  0  0  0  0  0  0  0  0  0
   18.3482   -5.4180  -10.7321 O   0  0  0  0  0  0  0  0  0  0  0  0
   17.8421   -7.7134  -11.3013 C   0  0  0  0  0  0  0  0  0  0  0  0
   16.5581   -8.2246  -10.7132 C   0  0  2  0  0  0  0  0  0  0  0  0
   15.9640   -9.1630  -11.6331 N   0  0  0  0  0  0  0  0  0  0  0  0
   15.6135   -7.0841  -10.4317 C   0  0  0  0  0  0  0  0  0  0  0  0
   14.9452   -6.5697  -11.3608 O   0  0  0  0  0  0  0  0  0  0  0  0
   12.8245   -4.1433   -5.7556 C   0  0  0  0  0  0  0  0  0  0  0  0
   12.9515   -4.4734   -7.2454 C   0  0  2  0  0  0  0  0  0  0  0  0
   11.6194   -4.8673   -7.8208 C   0  0  0  0  0  0  0  0  0  0  0  0
   13.9705   -5.5513   -7.4709 C   0  0  0  0  0  0  0  0  0  0  0  0
   14.5322   -5.4639   -8.8417 C   0  0  2  0  0  0  0  0  0  0  0  0
   15.4513   -6.5621   -9.1256 N   0  0  0  0  0  0  0  0  0  0  0  0
   15.1226   -4.1676   -9.1258 C   0  0  0  0  0  0  0  0  0  0  0  0
   14.5048   -3.0770   -9.7017 O   0  0  0  0  0  0  0  0  0  0  0  0
   16.3580   -3.9927   -8.8187 O   0  0  0  0  0  0  0  0  0  0  0  0
  2  1  1  1
  2  4  1  0
  2  3  1  0
  4 11  1  0
  5  4  2  0
  7  8  2  0
  7  6  1  0
  9  7  1  0
 10  9  1  6
 10 12  1  0
 11 10  1  0
 12 13  2  0
 12 19  1  0
 15 14  1  1
 15 16  1  0
 18 17  1  1
 17 15  1  0
 18 20  1  0
 19 18  1  0
 20 22  2  0
 20 21  1  0
M  END
$$$$
