ANL.pdb
     RDKit          3D

 22 21  0  0  1  0  0  0  0  0999 V2000
   16.3359  -12.9191  -14.1487 C   0  0  0  0  0  0  0  0  0  0  0  0
   15.7961  -12.5733  -15.5246 C   0  0  2  0  0  0  0  0  0  0  0  0
   15.6641  -13.8293  -16.2544 N   0  0  0  0  0  0  0  0  0  0  0  0
   16.8309  -11.7059  -16.1763 C   0  0  0  0  0  0  0  0  0  0  0  0
   17.9175  -12.1951  -16.5034 O   0  0  0  0  0  0  0  0  0  0  0  0
   17.7256   -7.3577  -19.7984 N   0  0  0  0  0  0  0  0  0  0  0  0
   17.6756   -7.3388  -18.3869 C   0  0  0  0  0  0  0  0  0  0  0  0
   18.3813   -6.5049  -17.7394 O   0  0  0  0  0  0  0  0  0  0  0  0
   16.7802   -8.3173  -17.7239 C   0  0  0  0  0  0  0  0  0  0  0  0
   17.5231   -9.4313  -17.0433 C   0  0  2  0  0  0  0  0  0  0  0  0
   16.5698  -10.3172  -16.4220 N   0  0  0  0  0  0  0  0  0  0  0  0
   18.4831   -8.8799  -16.0203 C   0  0  0  0  0  0  0  0  0  0  0  0
   18.0841   -8.5923  -14.8660 O   0  0  0  0  0  0  0  0  0  0  0  0
   21.8563   -9.6771  -13.1239 C   0  0  0  0  0  0  0  0  0  0  0  0
   22.2323  -10.0451  -14.5619 C   0  0  2  0  0  0  0  0  0  0  0  0
   23.6128  -10.6383  -14.6181 C   0  0  0  0  0  0  0  0  0  0  0  0
   22.1265   -8.8522  -15.4659 C   0  0  0  0  0  0  0  0  0  0  0  0
   20.8010   -8.2006  -15.3217 C   0  0  2  0  0  0  0  0  0  0  0  0
   19.8500   -8.6709  -16.3245 N   0  0  0  0  0  0  0  0  0  0  0  0
   20.8880   -6.7511  -15.2859 C   0  0  0  0  0  0  0  0  0  0  0  0
   21.1583   -5.9577  -14.1903 O   0  0  0  0  0  0  0  0  0  0  0  0
   20.6921   -6.1128  -16.3838 O   0  0  0  0  0  0  0  0  0  0  0  0
  2  1  1  1
  2  4  1  0
  2  3  1  0
  4 11  1  0
  5  4  2  0
  7  8  2  0
  7  6  1  0
  9  7  1  0
 10  9  1  1
 10 12  1  0
 11 10  1  0
 12 13  2  0
 12 19  1  0
 15 14  1  1
 15 16  1  0
 18 17  1  6
 17 15  1  0
 18 20  1  0
 19 18  1  0
 20 22  2  0
 20 21  1  0
M  END
$$$$
