ANL.pdb
     RDKit          3D

 22 21  0  0  1  0  0  0  0  0999 V2000
   29.0561  -21.5570  -15.1474 C   0  0  0  0  0  0  0  0  0  0  0  0
   27.5823  -21.5749  -15.5107 C   0  0  2  0  0  0  0  0  0  0  0  0
   27.4545  -20.8867  -16.7904 N   0  0  0  0  0  0  0  0  0  0  0  0
   26.8756  -20.8017  -14.4379 C   0  0  0  0  0  0  0  0  0  0  0  0
   27.1233  -19.6002  -14.2894 O   0  0  0  0  0  0  0  0  0  0  0  0
   21.7865  -21.1059  -11.1966 N   0  0  0  0  0  0  0  0  0  0  0  0
   22.8500  -20.3593  -11.7505 C   0  0  0  0  0  0  0  0  0  0  0  0
   23.0371  -19.1574  -11.3858 O   0  0  0  0  0  0  0  0  0  0  0  0
   23.7093  -21.0370  -12.7511 C   0  0  0  0  0  0  0  0  0  0  0  0
   25.1714  -20.7465  -12.5678 C   0  0  2  0  0  0  0  0  0  0  0  0
   25.9175  -21.4442  -13.5857 N   0  0  0  0  0  0  0  0  0  0  0  0
   25.6262  -21.1653  -11.1930 C   0  0  0  0  0  0  0  0  0  0  0  0
   25.7065  -22.3813  -10.8944 O   0  0  0  0  0  0  0  0  0  0  0  0
   27.6046  -18.7640   -5.8232 C   0  0  0  0  0  0  0  0  0  0  0  0
   27.4783  -19.9642   -6.7658 C   0  0  2  0  0  0  0  0  0  0  0  0
   28.7582  -20.7524   -6.8015 C   0  0  0  0  0  0  0  0  0  0  0  0
   27.0834  -19.5239   -8.1447 C   0  0  0  0  0  0  0  0  0  0  0  0
   26.3548  -20.6057   -8.8524 C   0  0  2  0  0  0  0  0  0  0  0  0
   25.9734  -20.2119  -10.2054 N   0  0  0  0  0  0  0  0  0  0  0  0
   25.2274  -21.1155   -8.0915 C   0  0  0  0  0  0  0  0  0  0  0  0
   25.2341  -22.1539   -7.1836 O   0  0  0  0  0  0  0  0  0  0  0  0
   24.0844  -20.5555   -8.2680 O   0  0  0  0  0  0  0  0  0  0  0  0
  2  1  1  1
  2  4  1  0
  2  3  1  0
  4 11  1  0
  5  4  2  0
  7  8  2  0
  7  6  1  0
  9  7  1  0
 10  9  1  1
 10 12  1  0
 11 10  1  0
 12 13  2  0
 12 19  1  0
 15 14  1  1
 15 16  1  0
 18 17  1  1
 17 15  1  0
 18 20  1  0
 19 18  1  0
 20 22  2  0
 20 21  1  0
M  END
$$$$
