ANL.pdb
     RDKit          3D

 22 21  0  0  1  0  0  0  0  0999 V2000
   27.7642  -17.0696  -16.7901 C   0  0  0  0  0  0  0  0  0  0  0  0
   28.1629  -18.2298  -15.8961 C   0  0  2  0  0  0  0  0  0  0  0  0
   27.9123  -19.4514  -16.6528 N   0  0  0  0  0  0  0  0  0  0  0  0
   27.2589  -18.1699  -14.7015 C   0  0  0  0  0  0  0  0  0  0  0  0
   27.1487  -17.1114  -14.0735 O   0  0  0  0  0  0  0  0  0  0  0  0
   23.8074  -17.6692  -14.5576 N   0  0  0  0  0  0  0  0  0  0  0  0
   23.3855  -19.0129  -14.4487 C   0  0  0  0  0  0  0  0  0  0  0  0
   22.2801  -19.3728  -14.9597 O   0  0  0  0  0  0  0  0  0  0  0  0
   24.2785  -19.9507  -13.7264 C   0  0  0  0  0  0  0  0  0  0  0  0
   25.5392  -19.3023  -13.2302 C   0  0  2  0  0  0  0  0  0  0  0  0
   26.5236  -19.3283  -14.2837 N   0  0  0  0  0  0  0  0  0  0  0  0
   26.0527  -20.0127  -12.0038 C   0  0  0  0  0  0  0  0  0  0  0  0
   26.6315  -21.1211  -12.1084 O   0  0  0  0  0  0  0  0  0  0  0  0
   25.9957  -20.5307   -6.5380 C   0  0  0  0  0  0  0  0  0  0  0  0
   27.2477  -19.9949   -7.2381 C   0  0  2  0  0  0  0  0  0  0  0  0
   28.0495  -19.1269   -6.3083 C   0  0  0  0  0  0  0  0  0  0  0  0
   26.8850  -19.2471   -8.4873 C   0  0  0  0  0  0  0  0  0  0  0  0
   26.3341  -20.1703   -9.5102 C   0  0  2  0  0  0  0  0  0  0  0  0
   25.9006  -19.4596  -10.7094 N   0  0  0  0  0  0  0  0  0  0  0  0
   25.2967  -21.0394   -8.9829 C   0  0  0  0  0  0  0  0  0  0  0  0
   23.9324  -20.8480   -9.0516 O   0  0  0  0  0  0  0  0  0  0  0  0
   25.6651  -22.1114   -8.3775 O   0  0  0  0  0  0  0  0  0  0  0  0
  2  1  1  6
  2  4  1  0
  2  3  1  0
  4 11  1  0
  5  4  2  0
  7  8  2  0
  7  6  1  0
  9  7  1  0
 10  9  1  6
 10 12  1  0
 11 10  1  0
 12 13  2  0
 12 19  1  0
 15 14  1  1
 15 16  1  0
 18 17  1  1
 17 15  1  0
 18 20  1  0
 19 18  1  0
 20 22  2  0
 20 21  1  0
M  END
$$$$
