FWH.pdb
     RDKit          3D

 36 39  0  0  1  0  0  0  0  0999 V2000
   28.6558  -20.5916  -14.7778 N   0  0  0  0  0  0  0  0  0  0  0  0
   27.6127  -19.7443  -14.2351 C   0  0  1  0  0  0  0  0  0  0  0  0
   26.8000  -19.1094  -15.3406 C   0  0  0  0  0  0  0  0  0  0  0  0
   27.6001  -18.0145  -15.9343 C   0  0  0  0  0  0  0  0  0  0  0  0
   27.7077  -16.7772  -15.3420 C   0  0  0  0  0  0  0  0  0  0  0  0
   28.4531  -15.7657  -15.9009 C   0  0  0  0  0  0  0  0  0  0  0  0
   29.1230  -15.9645  -17.0863 C   0  0  0  0  0  0  0  0  0  0  0  0
   29.0350  -17.2054  -17.7121 C   0  0  0  0  0  0  0  0  0  0  0  0
   28.2861  -18.1858  -17.1284 C   0  0  0  0  0  0  0  0  0  0  0  0
   26.7700  -20.5278  -13.2998 C   0  0  0  0  0  0  0  0  0  0  0  0
   26.3604  -21.6826  -13.6647 O   0  0  0  0  0  0  0  0  0  0  0  0
   26.3709  -20.1144  -12.0264 N   0  0  0  0  0  0  0  0  0  0  0  0
   25.4047  -20.8834  -11.2135 C   0  0  1  0  0  0  0  0  0  0  0  0
   25.6551  -20.4640   -9.8085 C   0  0  0  0  0  0  0  0  0  0  0  0
   26.9923  -20.6592   -9.2772 C   0  0  0  0  0  0  0  0  0  0  0  0
   28.0388  -21.2580   -9.9446 C   0  0  0  0  0  0  0  0  0  0  0  0
   29.1004  -21.2667   -9.1274 N   0  0  0  0  0  0  0  0  0  0  0  0
   28.7587  -20.6905   -7.9592 C   0  0  0  0  0  0  0  0  0  0  0  0
   29.4536  -20.4484   -6.8020 C   0  0  0  0  0  0  0  0  0  0  0  0
   28.8177  -19.8235   -5.7413 C   0  0  0  0  0  0  0  0  0  0  0  0
   27.5030  -19.4410   -5.8260 C   0  0  0  0  0  0  0  0  0  0  0  0
   26.7778  -19.6711   -6.9773 C   0  0  0  0  0  0  0  0  0  0  0  0
   27.4252  -20.2941   -8.0236 C   0  0  0  0  0  0  0  0  0  0  0  0
   24.0515  -20.6068  -11.6914 C   0  0  0  0  0  0  0  0  0  0  0  0
   23.6459  -19.3944  -11.6637 O   0  0  0  0  0  0  0  0  0  0  0  0
   23.1537  -21.5783  -12.1870 N   0  0  0  0  0  0  0  0  0  0  0  0
   21.8394  -21.1348  -12.6640 C   0  0  1  0  0  0  0  0  0  0  0  0
   21.9329  -20.8408  -14.1548 C   0  0  0  0  0  0  0  0  0  0  0  0
   22.5574  -21.9764  -14.8537 C   0  0  0  0  0  0  0  0  0  0  0  0
   22.1922  -23.3096  -14.8892 C   0  0  0  0  0  0  0  0  0  0  0  0
   23.0753  -23.9905  -15.6304 N   0  0  0  0  0  0  0  0  0  0  0  0
   23.9998  -23.1349  -16.0739 C   0  0  0  0  0  0  0  0  0  0  0  0
   23.6908  -21.9215  -15.6078 N   0  0  0  0  0  0  0  0  0  0  0  0
   20.8367  -22.1741  -12.4407 C   0  0  0  0  0  0  0  0  0  0  0  0
   19.4924  -21.8844  -12.6679 O   0  0  0  0  0  0  0  0  0  0  0  0
   21.1845  -23.3156  -12.0475 O   0  0  0  0  0  0  0  0  0  0  0  0
  2  1  1  6
  2  3  1  0
  4  3  1  0
  4  9  1  0
  5  4  2  0
  6  5  1  0
  6  7  2  0
  7  8  1  0
  8  9  2  0
 10  2  1  0
 11 10  2  0
 12 10  1  0
 13 12  1  0
 14 15  1  0
 13 14  1  1
 15 16  2  0
 17 16  1  0
 18 17  1  0
 19 18  2  0
 20 19  1  0
 21 22  1  0
 21 20  2  0
 22 23  2  0
 23 15  1  0
 23 18  1  0
 24 13  1  0
 24 25  2  0
 26 24  1  0
 27 34  1  0
 27 26  1  0
 28 29  1  0
 27 28  1  6
 29 30  2  0
 30 31  1  0
 32 31  1  0
 33 29  1  0
 33 32  2  0
 34 35  1  0
 36 34  2  0
M  END
$$$$
