FWH.pdb
     RDKit          3D

 36 39  0  0  1  0  0  0  0  0999 V2000
   19.0090  -14.7370  -16.0056 N   0  0  0  0  0  0  0  0  0  0  0  0
   18.6320  -13.5288  -16.7118 C   0  0  1  0  0  0  0  0  0  0  0  0
   17.1797  -13.1880  -16.4660 C   0  0  0  0  0  0  0  0  0  0  0  0
   16.3446  -14.1103  -17.2681 C   0  0  0  0  0  0  0  0  0  0  0  0
   15.9295  -15.3317  -16.7893 C   0  0  0  0  0  0  0  0  0  0  0  0
   15.1540  -16.1824  -17.5416 C   0  0  0  0  0  0  0  0  0  0  0  0
   14.7649  -15.8317  -18.8141 C   0  0  0  0  0  0  0  0  0  0  0  0
   15.1680  -14.6023  -19.3291 C   0  0  0  0  0  0  0  0  0  0  0  0
   15.9372  -13.7837  -18.5538 C   0  0  0  0  0  0  0  0  0  0  0  0
   19.5399  -12.4218  -16.3261 C   0  0  0  0  0  0  0  0  0  0  0  0
   19.8008  -12.2468  -15.0868 O   0  0  0  0  0  0  0  0  0  0  0  0
   20.1528  -11.5296  -17.2094 N   0  0  0  0  0  0  0  0  0  0  0  0
   21.0921  -10.4842  -16.7504 C   0  0  1  0  0  0  0  0  0  0  0  0
   21.8218  -10.0511  -17.9720 C   0  0  0  0  0  0  0  0  0  0  0  0
   22.8617   -9.0499  -17.8140 C   0  0  0  0  0  0  0  0  0  0  0  0
   23.2767   -8.5098  -16.6160 C   0  0  0  0  0  0  0  0  0  0  0  0
   24.2383   -7.6140  -16.8766 N   0  0  0  0  0  0  0  0  0  0  0  0
   24.4466   -7.5692  -18.2062 C   0  0  0  0  0  0  0  0  0  0  0  0
   25.3003   -6.8369  -18.9909 C   0  0  0  0  0  0  0  0  0  0  0  0
   25.2843   -7.0117  -20.3653 C   0  0  0  0  0  0  0  0  0  0  0  0
   24.4290   -7.9052  -20.9585 C   0  0  0  0  0  0  0  0  0  0  0  0
   23.5584   -8.6562  -20.1955 C   0  0  0  0  0  0  0  0  0  0  0  0
   23.5868   -8.4704  -18.8291 C   0  0  0  0  0  0  0  0  0  0  0  0
   20.3375   -9.4199  -16.0918 C   0  0  0  0  0  0  0  0  0  0  0  0
   19.1936   -9.1137  -16.5744 O   0  0  0  0  0  0  0  0  0  0  0  0
   20.7738   -8.7018  -14.9561 N   0  0  0  0  0  0  0  0  0  0  0  0
   19.8848   -7.6802  -14.3927 C   0  0  1  0  0  0  0  0  0  0  0  0
   19.7836   -7.8943  -12.8889 C   0  0  0  0  0  0  0  0  0  0  0  0
   18.6790   -8.8192  -12.5852 C   0  0  0  0  0  0  0  0  0  0  0  0
   17.8120   -9.4801  -13.4358 C   0  0  0  0  0  0  0  0  0  0  0  0
   16.9414  -10.1951  -12.7121 N   0  0  0  0  0  0  0  0  0  0  0  0
   17.2219  -10.0144  -11.4190 C   0  0  0  0  0  0  0  0  0  0  0  0
   18.2674   -9.1864  -11.3394 N   0  0  0  0  0  0  0  0  0  0  0  0
   20.4125   -6.3426  -14.6536 C   0  0  0  0  0  0  0  0  0  0  0  0
   19.6415   -5.2294  -14.3234 O   0  0  0  0  0  0  0  0  0  0  0  0
   21.5486   -6.1998  -15.1707 O   0  0  0  0  0  0  0  0  0  0  0  0
  2  1  1  1
  2  3  1  0
  4  3  1  0
  4  9  1  0
  5  4  2  0
  6  5  1  0
  6  7  2  0
  7  8  1  0
  8  9  2  0
 10  2  1  0
 11 10  2  0
 12 10  1  0
 13 12  1  0
 14 15  1  0
 13 14  1  6
 15 16  2  0
 17 16  1  0
 18 17  1  0
 19 18  2  0
 20 19  1  0
 21 22  1  0
 21 20  2  0
 22 23  2  0
 23 15  1  0
 23 18  1  0
 24 13  1  0
 24 25  2  0
 26 24  1  0
 27 34  1  0
 27 26  1  0
 28 29  1  0
 27 28  1  1
 29 30  2  0
 30 31  1  0
 32 31  1  0
 33 29  1  0
 33 32  2  0
 34 35  1  0
 36 34  2  0
M  END
$$$$
