FWH.pdb
     RDKit          3D

 36 39  0  0  1  0  0  0  0  0999 V2000
   27.6201  -21.3863  -14.8509 N   0  0  0  0  0  0  0  0  0  0  0  0
   27.4263  -20.3498  -13.8566 C   0  0  1  0  0  0  0  0  0  0  0  0
   26.5292  -19.2531  -14.3843 C   0  0  0  0  0  0  0  0  0  0  0  0
   27.2551  -18.5360  -15.4568 C   0  0  0  0  0  0  0  0  0  0  0  0
   28.2538  -17.6281  -15.1892 C   0  0  0  0  0  0  0  0  0  0  0  0
   28.9228  -16.9662  -16.1920 C   0  0  0  0  0  0  0  0  0  0  0  0
   28.6082  -17.1961  -17.5118 C   0  0  0  0  0  0  0  0  0  0  0  0
   27.6020  -18.1090  -17.8172 C   0  0  0  0  0  0  0  0  0  0  0  0
   26.9596  -18.7473  -16.7961 C   0  0  0  0  0  0  0  0  0  0  0  0
   26.9010  -20.9498  -12.6065 C   0  0  0  0  0  0  0  0  0  0  0  0
   25.9272  -21.7746  -12.6848 O   0  0  0  0  0  0  0  0  0  0  0  0
   27.3803  -20.6937  -11.3195 N   0  0  0  0  0  0  0  0  0  0  0  0
   26.6691  -21.1511  -10.1067 C   0  0  1  0  0  0  0  0  0  0  0  0
   27.6574  -21.0226   -9.0025 C   0  0  0  0  0  0  0  0  0  0  0  0
   27.1431  -20.9341   -7.6474 C   0  0  0  0  0  0  0  0  0  0  0  0
   25.9074  -21.3793   -7.2300 C   0  0  0  0  0  0  0  0  0  0  0  0
   25.7906  -21.1111   -5.9226 N   0  0  0  0  0  0  0  0  0  0  0  0
   26.9168  -20.5081   -5.4967 C   0  0  0  0  0  0  0  0  0  0  0  0
   27.3126  -20.0320   -4.2730 C   0  0  0  0  0  0  0  0  0  0  0  0
   28.5607  -19.4451   -4.1393 C   0  0  0  0  0  0  0  0  0  0  0  0
   29.4108  -19.3307   -5.2098 C   0  0  0  0  0  0  0  0  0  0  0  0
   29.0408  -19.8003   -6.4535 C   0  0  0  0  0  0  0  0  0  0  0  0
   27.7955  -20.3815   -6.5698 C   0  0  0  0  0  0  0  0  0  0  0  0
   25.4615  -20.3472   -9.9293 C   0  0  0  0  0  0  0  0  0  0  0  0
   25.5695  -19.0775  -10.0373 O   0  0  0  0  0  0  0  0  0  0  0  0
   24.1776  -20.8658   -9.6498 N   0  0  0  0  0  0  0  0  0  0  0  0
   23.0302  -20.3213  -10.3836 C   0  0  1  0  0  0  0  0  0  0  0  0
   23.2656  -20.5158  -11.8751 C   0  0  0  0  0  0  0  0  0  0  0  0
   22.1878  -19.8708  -12.6433 C   0  0  0  0  0  0  0  0  0  0  0  0
   21.5265  -18.6772  -12.4193 C   0  0  0  0  0  0  0  0  0  0  0  0
   20.5920  -18.5055  -13.3629 N   0  0  0  0  0  0  0  0  0  0  0  0
   20.6315  -19.5540  -14.1890 C   0  0  0  0  0  0  0  0  0  0  0  0
   21.5911  -20.3779  -13.7582 N   0  0  0  0  0  0  0  0  0  0  0  0
   21.8014  -21.0111   -9.9968 C   0  0  0  0  0  0  0  0  0  0  0  0
   21.8848  -22.2617   -9.3872 O   0  0  0  0  0  0  0  0  0  0  0  0
   20.6828  -20.4814  -10.2131 O   0  0  0  0  0  0  0  0  0  0  0  0
  2  1  1  6
  2  3  1  0
  4  3  1  0
  4  9  1  0
  5  4  2  0
  6  5  1  0
  6  7  2  0
  7  8  1  0
  8  9  2  0
 10  2  1  0
 11 10  2  0
 12 10  1  0
 13 12  1  0
 14 15  1  0
 13 14  1  1
 15 16  2  0
 17 16  1  0
 18 17  1  0
 19 18  2  0
 20 19  1  0
 21 22  1  0
 21 20  2  0
 22 23  2  0
 23 15  1  0
 23 18  1  0
 24 13  1  0
 24 25  2  0
 26 24  1  0
 27 34  1  0
 27 26  1  0
 28 29  1  0
 27 28  1  6
 29 30  2  0
 30 31  1  0
 32 31  1  0
 33 29  1  0
 33 32  2  0
 34 35  1  0
 36 34  2  0
M  END
$$$$
