FWH.pdb
     RDKit          3D

 36 39  0  0  1  0  0  0  0  0999 V2000
   28.0190  -22.3938  -15.0393 N   0  0  0  0  0  0  0  0  0  0  0  0
   27.1361  -21.2724  -14.7875 C   0  0  1  0  0  0  0  0  0  0  0  0
   26.2494  -21.0016  -15.9818 C   0  0  0  0  0  0  0  0  0  0  0  0
   27.1020  -20.5233  -17.0934 C   0  0  0  0  0  0  0  0  0  0  0  0
   27.6644  -19.2675  -17.1015 C   0  0  0  0  0  0  0  0  0  0  0  0
   28.4551  -18.8314  -18.1387 C   0  0  0  0  0  0  0  0  0  0  0  0
   28.7105  -19.6503  -19.2147 C   0  0  0  0  0  0  0  0  0  0  0  0
   28.1564  -20.9276  -19.2380 C   0  0  0  0  0  0  0  0  0  0  0  0
   27.3768  -21.3266  -18.1911 C   0  0  0  0  0  0  0  0  0  0  0  0
   26.3526  -21.5218  -13.5535 C   0  0  0  0  0  0  0  0  0  0  0  0
   25.8437  -22.6809  -13.3745 O   0  0  0  0  0  0  0  0  0  0  0  0
   26.1113  -20.5880  -12.5428 N   0  0  0  0  0  0  0  0  0  0  0  0
   25.2298  -20.8800  -11.3923 C   0  0  1  0  0  0  0  0  0  0  0  0
   25.8025  -20.1098  -10.2560 C   0  0  0  0  0  0  0  0  0  0  0  0
   27.0770  -20.5522   -9.7189 C   0  0  0  0  0  0  0  0  0  0  0  0
   27.9708  -21.3822  -10.3604 C   0  0  0  0  0  0  0  0  0  0  0  0
   29.0170  -21.5730   -9.5457 N   0  0  0  0  0  0  0  0  0  0  0  0
   28.8141  -20.8879   -8.4043 C   0  0  0  0  0  0  0  0  0  0  0  0
   29.5568  -20.7430   -7.2606 C   0  0  0  0  0  0  0  0  0  0  0  0
   29.0748  -19.9545   -6.2282 C   0  0  0  0  0  0  0  0  0  0  0  0
   27.8658  -19.3140   -6.3277 C   0  0  0  0  0  0  0  0  0  0  0  0
   27.0958  -19.4406   -7.4659 C   0  0  0  0  0  0  0  0  0  0  0  0
   27.5898  -20.2289   -8.4841 C   0  0  0  0  0  0  0  0  0  0  0  0
   23.8577  -20.5129  -11.7366 C   0  0  0  0  0  0  0  0  0  0  0  0
   23.6778  -19.4347  -12.4002 O   0  0  0  0  0  0  0  0  0  0  0  0
   22.7095  -21.2615  -11.3948 N   0  0  0  0  0  0  0  0  0  0  0  0
   21.4013  -20.7794  -11.8504 C   0  0  1  0  0  0  0  0  0  0  0  0
   21.3422  -20.8835  -13.3681 C   0  0  0  0  0  0  0  0  0  0  0  0
   20.0473  -20.3816  -13.8572 C   0  0  0  0  0  0  0  0  0  0  0  0
   19.5808  -19.0849  -13.9713 C   0  0  0  0  0  0  0  0  0  0  0  0
   18.3259  -19.1058  -14.4378 N   0  0  0  0  0  0  0  0  0  0  0  0
   17.9693  -20.3787  -14.6277 C   0  0  0  0  0  0  0  0  0  0  0  0
   19.0036  -21.1492  -14.2789 N   0  0  0  0  0  0  0  0  0  0  0  0
   20.3288  -21.5855  -11.2711 C   0  0  0  0  0  0  0  0  0  0  0  0
   20.4528  -22.9737  -11.2539 O   0  0  0  0  0  0  0  0  0  0  0  0
   19.3066  -21.0315  -10.7951 O   0  0  0  0  0  0  0  0  0  0  0  0
  2  1  1  6
  2  3  1  0
  4  3  1  0
  4  9  1  0
  5  4  2  0
  6  5  1  0
  6  7  2  0
  7  8  1  0
  8  9  2  0
 10  2  1  0
 11 10  2  0
 12 10  1  0
 13 12  1  0
 14 15  1  0
 13 14  1  1
 15 16  2  0
 17 16  1  0
 18 17  1  0
 19 18  2  0
 20 19  1  0
 21 22  1  0
 21 20  2  0
 22 23  2  0
 23 15  1  0
 23 18  1  0
 24 13  1  0
 24 25  2  0
 26 24  1  0
 27 34  1  0
 27 26  1  0
 28 29  1  0
 27 28  1  6
 29 30  2  0
 30 31  1  0
 32 31  1  0
 33 29  1  0
 33 32  2  0
 34 35  1  0
 36 34  2  0
M  END
$$$$
