FWH.pdb
     RDKit          3D

 36 39  0  0  1  0  0  0  0  0999 V2000
   23.2567  -10.4164  -14.5164 N   0  0  0  0  0  0  0  0  0  0  0  0
   22.5039   -9.7882  -15.5837 C   0  0  1  0  0  0  0  0  0  0  0  0
   21.3077  -10.6280  -15.9704 C   0  0  0  0  0  0  0  0  0  0  0  0
   21.7943  -11.8184  -16.7036 C   0  0  0  0  0  0  0  0  0  0  0  0
   21.9643  -13.0398  -16.0932 C   0  0  0  0  0  0  0  0  0  0  0  0
   22.4172  -14.1404  -16.7821 C   0  0  0  0  0  0  0  0  0  0  0  0
   22.7179  -14.0510  -18.1219 C   0  0  0  0  0  0  0  0  0  0  0  0
   22.5570  -12.8291  -18.7703 C   0  0  0  0  0  0  0  0  0  0  0  0
   22.1054  -11.7582  -18.0547 C   0  0  0  0  0  0  0  0  0  0  0  0
   22.1168   -8.4150  -15.1796 C   0  0  0  0  0  0  0  0  0  0  0  0
   21.6652   -8.2283  -13.9982 O   0  0  0  0  0  0  0  0  0  0  0  0
   22.2005   -7.2776  -15.9865 N   0  0  0  0  0  0  0  0  0  0  0  0
   21.7602   -5.9453  -15.5208 C   0  0  1  0  0  0  0  0  0  0  0  0
   22.4610   -4.9725  -16.4012 C   0  0  0  0  0  0  0  0  0  0  0  0
   22.1623   -3.5634  -16.2172 C   0  0  0  0  0  0  0  0  0  0  0  0
   21.5933   -3.0065  -15.0924 C   0  0  0  0  0  0  0  0  0  0  0  0
   21.4622   -1.6899  -15.3032 N   0  0  0  0  0  0  0  0  0  0  0  0
   21.9317   -1.3938  -16.5300 C   0  0  0  0  0  0  0  0  0  0  0  0
   22.0303   -0.2191  -17.2309 C   0  0  0  0  0  0  0  0  0  0  0  0
   22.5703   -0.2281  -18.5069 C   0  0  0  0  0  0  0  0  0  0  0  0
   23.0097   -1.3921  -19.0847 C   0  0  0  0  0  0  0  0  0  0  0  0
   22.9237   -2.5897  -18.4045 C   0  0  0  0  0  0  0  0  0  0  0  0
   22.3837   -2.5636  -17.1357 C   0  0  0  0  0  0  0  0  0  0  0  0
   20.3020   -5.8739  -15.5870 C   0  0  0  0  0  0  0  0  0  0  0  0
   19.7116   -6.5661  -16.4857 O   0  0  0  0  0  0  0  0  0  0  0  0
   19.4896   -5.0991  -14.7295 N   0  0  0  0  0  0  0  0  0  0  0  0
   18.0462   -5.0561  -14.9865 C   0  0  1  0  0  0  0  0  0  0  0  0
   17.4680   -6.4474  -14.7680 C   0  0  0  0  0  0  0  0  0  0  0  0
   16.0020   -6.4097  -14.8990 C   0  0  0  0  0  0  0  0  0  0  0  0
   15.2130   -5.9766  -15.9487 C   0  0  0  0  0  0  0  0  0  0  0  0
   13.9228   -6.0981  -15.6117 N   0  0  0  0  0  0  0  0  0  0  0  0
   13.8569   -6.5971  -14.3747 C   0  0  0  0  0  0  0  0  0  0  0  0
   15.1071   -6.7856  -13.9429 N   0  0  0  0  0  0  0  0  0  0  0  0
   17.3927   -4.1158  -14.0786 C   0  0  0  0  0  0  0  0  0  0  0  0
   18.1660   -3.3998  -13.1664 O   0  0  0  0  0  0  0  0  0  0  0  0
   16.1471   -3.9565  -14.1207 O   0  0  0  0  0  0  0  0  0  0  0  0
  2  1  1  1
  2  3  1  0
  4  3  1  0
  4  9  1  0
  5  4  2  0
  6  5  1  0
  6  7  2  0
  7  8  1  0
  8  9  2  0
 10  2  1  0
 11 10  2  0
 12 10  1  0
 13 12  1  0
 14 15  1  0
 13 14  1  6
 15 16  2  0
 17 16  1  0
 18 17  1  0
 19 18  2  0
 20 19  1  0
 21 22  1  0
 21 20  2  0
 22 23  2  0
 23 15  1  0
 23 18  1  0
 24 13  1  0
 24 25  2  0
 26 24  1  0
 27 34  1  0
 27 26  1  0
 28 29  1  0
 27 28  1  1
 29 30  2  0
 30 31  1  0
 32 31  1  0
 33 29  1  0
 33 32  2  0
 34 35  1  0
 36 34  2  0
M  END
$$$$
