FWH.pdb
     RDKit          3D

 36 39  0  0  1  0  0  0  0  0999 V2000
   27.7044  -23.7363  -17.0814 N   0  0  0  0  0  0  0  0  0  0  0  0
   27.2921  -22.3973  -16.7106 C   0  0  1  0  0  0  0  0  0  0  0  0
   26.3140  -21.8333  -17.7161 C   0  0  0  0  0  0  0  0  0  0  0  0
   27.0708  -21.4270  -18.9218 C   0  0  0  0  0  0  0  0  0  0  0  0
   27.0628  -22.1695  -20.0803 C   0  0  0  0  0  0  0  0  0  0  0  0
   27.7692  -21.7847  -21.1957 C   0  0  0  0  0  0  0  0  0  0  0  0
   28.5156  -20.6286  -21.1855 C   0  0  0  0  0  0  0  0  0  0  0  0
   28.5453  -19.8539  -20.0287 C   0  0  0  0  0  0  0  0  0  0  0  0
   27.8319  -20.2669  -18.9409 C   0  0  0  0  0  0  0  0  0  0  0  0
   26.7372  -22.4091  -15.3356 C   0  0  0  0  0  0  0  0  0  0  0  0
   25.8760  -23.3033  -15.0300 O   0  0  0  0  0  0  0  0  0  0  0  0
   27.0738  -21.5143  -14.3169 N   0  0  0  0  0  0  0  0  0  0  0  0
   26.4727  -21.5910  -12.9684 C   0  0  1  0  0  0  0  0  0  0  0  0
   27.4238  -20.8764  -12.0755 C   0  0  0  0  0  0  0  0  0  0  0  0
   27.0030  -20.6259  -10.7084 C   0  0  0  0  0  0  0  0  0  0  0  0
   25.7589  -20.1746  -10.3243 C   0  0  0  0  0  0  0  0  0  0  0  0
   25.7564  -20.0526   -8.9901 N   0  0  0  0  0  0  0  0  0  0  0  0
   26.9635  -20.4134   -8.5149 C   0  0  0  0  0  0  0  0  0  0  0  0
   27.4862  -20.4720   -7.2484 C   0  0  0  0  0  0  0  0  0  0  0  0
   28.7942  -20.8921   -7.0678 C   0  0  0  0  0  0  0  0  0  0  0  0
   29.5790  -21.2517   -8.1339 C   0  0  0  0  0  0  0  0  0  0  0  0
   29.0812  -21.2032   -9.4200 C   0  0  0  0  0  0  0  0  0  0  0  0
   27.7777  -20.7829   -9.5826 C   0  0  0  0  0  0  0  0  0  0  0  0
   25.1329  -21.0086  -13.0088 C   0  0  0  0  0  0  0  0  0  0  0  0
   24.9477  -19.9910  -13.7607 O   0  0  0  0  0  0  0  0  0  0  0  0
   24.0202  -21.4865  -12.2812 N   0  0  0  0  0  0  0  0  0  0  0  0
   22.6797  -21.2753  -12.8379 C   0  0  1  0  0  0  0  0  0  0  0  0
   22.3946  -22.3695  -13.8573 C   0  0  0  0  0  0  0  0  0  0  0  0
   21.0626  -22.1691  -14.4518 C   0  0  0  0  0  0  0  0  0  0  0  0
   20.1089  -21.2018  -14.1935 C   0  0  0  0  0  0  0  0  0  0  0  0
   19.0299  -21.4305  -14.9527 N   0  0  0  0  0  0  0  0  0  0  0  0
   19.2602  -22.5176  -15.6934 C   0  0  0  0  0  0  0  0  0  0  0  0
   20.4831  -22.9647  -15.3939 N   0  0  0  0  0  0  0  0  0  0  0  0
   21.6724  -21.3288  -11.7806 C   0  0  0  0  0  0  0  0  0  0  0  0
   20.3769  -20.8914  -12.0507 O   0  0  0  0  0  0  0  0  0  0  0  0
   21.9730  -21.7640  -10.6409 O   0  0  0  0  0  0  0  0  0  0  0  0
  2  1  1  6
  2  3  1  0
  4  3  1  0
  4  9  1  0
  5  4  2  0
  6  5  1  0
  6  7  2  0
  7  8  1  0
  8  9  2  0
 10  2  1  0
 11 10  2  0
 12 10  1  0
 13 12  1  0
 14 15  1  0
 13 14  1  1
 15 16  2  0
 17 16  1  0
 18 17  1  0
 19 18  2  0
 20 19  1  0
 21 22  1  0
 21 20  2  0
 22 23  2  0
 23 15  1  0
 23 18  1  0
 24 13  1  0
 24 25  2  0
 26 24  1  0
 27 34  1  0
 27 26  1  0
 28 29  1  0
 27 28  1  6
 29 30  2  0
 30 31  1  0
 32 31  1  0
 33 29  1  0
 33 32  2  0
 34 35  1  0
 36 34  2  0
M  END
$$$$
