FWH.pdb
     RDKit          3D

 36 39  0  0  1  0  0  0  0  0999 V2000
   28.1668  -21.2389  -14.7934 N   0  0  0  0  0  0  0  0  0  0  0  0
   27.2859  -20.2561  -14.1946 C   0  0  1  0  0  0  0  0  0  0  0  0
   26.4385  -19.5757  -15.2458 C   0  0  0  0  0  0  0  0  0  0  0  0
   27.3068  -18.6607  -16.0206 C   0  0  0  0  0  0  0  0  0  0  0  0
   27.8114  -18.9955  -17.2561 C   0  0  0  0  0  0  0  0  0  0  0  0
   28.6177  -18.1393  -17.9688 C   0  0  0  0  0  0  0  0  0  0  0  0
   28.9481  -16.9044  -17.4595 C   0  0  0  0  0  0  0  0  0  0  0  0
   28.4540  -16.5343  -16.2112 C   0  0  0  0  0  0  0  0  0  0  0  0
   27.6567  -17.4097  -15.5325 C   0  0  0  0  0  0  0  0  0  0  0  0
   26.4628  -20.8995  -13.1423 C   0  0  0  0  0  0  0  0  0  0  0  0
   25.9157  -22.0268  -13.3960 O   0  0  0  0  0  0  0  0  0  0  0  0
   26.2221  -20.3786  -11.8686 N   0  0  0  0  0  0  0  0  0  0  0  0
   25.2510  -20.9899  -10.9363 C   0  0  1  0  0  0  0  0  0  0  0  0
   25.6880  -20.5614   -9.5806 C   0  0  0  0  0  0  0  0  0  0  0  0
   27.0665  -20.8213   -9.2055 C   0  0  0  0  0  0  0  0  0  0  0  0
   27.9827  -21.5210   -9.9605 C   0  0  0  0  0  0  0  0  0  0  0  0
   29.1354  -21.5627   -9.2790 N   0  0  0  0  0  0  0  0  0  0  0  0
   28.9783  -20.9093   -8.1121 C   0  0  0  0  0  0  0  0  0  0  0  0
   29.8258  -20.6597   -7.0632 C   0  0  0  0  0  0  0  0  0  0  0  0
   29.3669  -19.9429   -5.9698 C   0  0  0  0  0  0  0  0  0  0  0  0
   28.0779  -19.4765   -5.9155 C   0  0  0  0  0  0  0  0  0  0  0  0
   27.2019  -19.7118   -6.9554 C   0  0  0  0  0  0  0  0  0  0  0  0
   27.6741  -20.4267   -8.0362 C   0  0  0  0  0  0  0  0  0  0  0  0
   23.9031  -20.5565  -11.2985 C   0  0  0  0  0  0  0  0  0  0  0  0
   23.7234  -19.3156  -11.5495 O   0  0  0  0  0  0  0  0  0  0  0  0
   22.7786  -21.4060  -11.3967 N   0  0  0  0  0  0  0  0  0  0  0  0
   21.4879  -20.8149  -11.7655 C   0  0  1  0  0  0  0  0  0  0  0  0
   21.5910  -20.2550  -13.1774 C   0  0  0  0  0  0  0  0  0  0  0  0
   21.8184  -21.3482  -14.1372 C   0  0  0  0  0  0  0  0  0  0  0  0
   22.4511  -22.5657  -13.9660 C   0  0  0  0  0  0  0  0  0  0  0  0
   22.4511  -23.2314  -15.1278 N   0  0  0  0  0  0  0  0  0  0  0  0
   21.8366  -22.4782  -16.0436 C   0  0  0  0  0  0  0  0  0  0  0  0
   21.4547  -21.3436  -15.4502 N   0  0  0  0  0  0  0  0  0  0  0  0
   20.4324  -21.8247  -11.7246 C   0  0  0  0  0  0  0  0  0  0  0  0
   19.1155  -21.4449  -11.9774 O   0  0  0  0  0  0  0  0  0  0  0  0
   20.7109  -23.0218  -11.4634 O   0  0  0  0  0  0  0  0  0  0  0  0
  2  1  1  6
  2  3  1  0
  4  3  1  0
  4  9  1  0
  5  4  2  0
  6  5  1  0
  6  7  2  0
  7  8  1  0
  8  9  2  0
 10  2  1  0
 11 10  2  0
 12 10  1  0
 13 12  1  0
 14 15  1  0
 13 14  1  1
 15 16  2  0
 17 16  1  0
 18 17  1  0
 19 18  2  0
 20 19  1  0
 21 22  1  0
 21 20  2  0
 22 23  2  0
 23 15  1  0
 23 18  1  0
 24 13  1  0
 24 25  2  0
 26 24  1  0
 27 34  1  0
 27 26  1  0
 28 29  1  0
 27 28  1  6
 29 30  2  0
 30 31  1  0
 32 31  1  0
 33 29  1  0
 33 32  2  0
 34 35  1  0
 36 34  2  0
M  END
$$$$
