FWH.pdb
     RDKit          3D

 36 39  0  0  1  0  0  0  0  0999 V2000
   27.6893  -20.0070  -10.5641 N   0  0  0  0  0  0  0  0  0  0  0  0
   26.7359  -21.0845  -10.7383 C   0  0  1  0  0  0  0  0  0  0  0  0
   26.0859  -21.4512   -9.4234 C   0  0  0  0  0  0  0  0  0  0  0  0
   27.0885  -21.2826   -8.3474 C   0  0  0  0  0  0  0  0  0  0  0  0
   26.8957  -20.4232   -7.2902 C   0  0  0  0  0  0  0  0  0  0  0  0
   27.8329  -20.2727   -6.2951 C   0  0  0  0  0  0  0  0  0  0  0  0
   29.0081  -20.9878   -6.3282 C   0  0  0  0  0  0  0  0  0  0  0  0
   29.2348  -21.8664   -7.3846 C   0  0  0  0  0  0  0  0  0  0  0  0
   28.2823  -21.9900   -8.3543 C   0  0  0  0  0  0  0  0  0  0  0  0
   25.7394  -20.7069  -11.7693 C   0  0  0  0  0  0  0  0  0  0  0  0
   25.0336  -19.6571  -11.5840 O   0  0  0  0  0  0  0  0  0  0  0  0
   25.4919  -21.4060  -12.9533 N   0  0  0  0  0  0  0  0  0  0  0  0
   24.5481  -20.9127  -13.9788 C   0  0  1  0  0  0  0  0  0  0  0  0
   24.9717  -21.5659  -15.2462 C   0  0  0  0  0  0  0  0  0  0  0  0
   24.2024  -21.2738  -16.4426 C   0  0  0  0  0  0  0  0  0  0  0  0
   24.0116  -20.0214  -16.9852 C   0  0  0  0  0  0  0  0  0  0  0  0
   23.2389  -20.1540  -18.0715 N   0  0  0  0  0  0  0  0  0  0  0  0
   22.9328  -21.4550  -18.2353 C   0  0  0  0  0  0  0  0  0  0  0  0
   22.1847  -22.1253  -19.1690 C   0  0  0  0  0  0  0  0  0  0  0  0
   22.0457  -23.5007  -19.0737 C   0  0  0  0  0  0  0  0  0  0  0  0
   22.6433  -24.2072  -18.0611 C   0  0  0  0  0  0  0  0  0  0  0  0
   23.4021  -23.5608  -17.1068 C   0  0  0  0  0  0  0  0  0  0  0  0
   23.5305  -22.1919  -17.2158 C   0  0  0  0  0  0  0  0  0  0  0  0
   23.1832  -21.2318  -13.5650 C   0  0  0  0  0  0  0  0  0  0  0  0
   22.9983  -22.3087  -12.9006 O   0  0  0  0  0  0  0  0  0  0  0  0
   22.0474  -20.4381  -13.8400 N   0  0  0  0  0  0  0  0  0  0  0  0
   20.7379  -20.9104  -13.3781 C   0  0  1  0  0  0  0  0  0  0  0  0
   19.8797  -19.7044  -13.0221 C   0  0  0  0  0  0  0  0  0  0  0  0
   18.5060  -20.1367  -12.7157 C   0  0  0  0  0  0  0  0  0  0  0  0
   17.9666  -21.4082  -12.6507 C   0  0  0  0  0  0  0  0  0  0  0  0
   16.6606  -21.3208  -12.3685 N   0  0  0  0  0  0  0  0  0  0  0  0
   16.3420  -20.0293  -12.2496 C   0  0  0  0  0  0  0  0  0  0  0  0
   17.4510  -19.3139  -12.4583 N   0  0  0  0  0  0  0  0  0  0  0  0
   20.0729  -21.6810  -14.4266 C   0  0  0  0  0  0  0  0  0  0  0  0
   19.4003  -22.8539  -14.0881 O   0  0  0  0  0  0  0  0  0  0  0  0
   20.1090  -21.2894  -15.6199 O   0  0  0  0  0  0  0  0  0  0  0  0
  2  1  1  1
  2  3  1  0
  4  3  1  0
  4  9  1  0
  5  4  2  0
  6  5  1  0
  6  7  2  0
  7  8  1  0
  8  9  2  0
 10  2  1  0
 11 10  2  0
 12 10  1  0
 13 12  1  0
 14 15  1  0
 13 14  1  6
 15 16  2  0
 17 16  1  0
 18 17  1  0
 19 18  2  0
 20 19  1  0
 21 22  1  0
 21 20  2  0
 22 23  2  0
 23 15  1  0
 23 18  1  0
 24 13  1  0
 24 25  2  0
 26 24  1  0
 27 34  1  0
 27 26  1  0
 28 29  1  0
 27 28  1  6
 29 30  2  0
 30 31  1  0
 32 31  1  0
 33 29  1  0
 33 32  2  0
 34 35  1  0
 36 34  2  0
M  END
$$$$
