ADN.pdb
     RDKit          3D

 22 21  0  0  1  0  0  0  0  0999 V2000
   -2.7783  -29.2804   27.6697 C   0  0  0  0  0  0  0  0  0  0  0  0
   -4.1842  -28.9376   28.1067 C   0  0  2  0  0  0  0  0  0  0  0  0
   -5.1716  -29.7422   27.4165 N   0  0  0  0  0  0  0  0  0  0  0  0
   -4.4167  -27.4853   27.8902 C   0  0  0  0  0  0  0  0  0  0  0  0
   -3.7375  -26.5829   28.4427 O   0  0  0  0  0  0  0  0  0  0  0  0
   -5.4637  -27.0141   27.0097 N   0  0  0  0  0  0  0  0  0  0  0  0
   -5.7587  -25.6175   26.8378 C   0  0  1  0  0  0  0  0  0  0  0  0
   -5.8388  -25.2143   25.3884 C   0  0  0  0  0  0  0  0  0  0  0  0
   -6.0870  -23.7726   25.2057 C   0  0  0  0  0  0  0  0  0  0  0  0
   -6.2679  -22.9593   26.1440 O   0  0  0  0  0  0  0  0  0  0  0  0
   -6.9747  -25.2516   27.6044 C   0  0  0  0  0  0  0  0  0  0  0  0
   -8.0937  -25.8018   27.4021 O   0  0  0  0  0  0  0  0  0  0  0  0
   -6.1218  -23.2888   23.9054 O   0  0  0  0  0  0  0  0  0  0  0  0
  -10.3914  -23.3535   30.7685 N   0  0  0  0  0  0  0  0  0  0  0  0
   -9.2716  -23.8352   31.5340 C   0  0  0  0  0  0  0  0  0  0  0  0
   -9.4261  -23.9475   32.7905 O   0  0  0  0  0  0  0  0  0  0  0  0
   -8.0026  -24.1768   30.8557 C   0  0  0  0  0  0  0  0  0  0  0  0
   -8.1358  -23.8893   29.3896 C   0  0  2  0  0  0  0  0  0  0  0  0
   -6.9641  -24.2481   28.6289 N   0  0  0  0  0  0  0  0  0  0  0  0
   -8.6265  -22.5284   29.0776 C   0  0  0  0  0  0  0  0  0  0  0  0
   -9.9662  -22.2138   28.8855 O   0  0  0  0  0  0  0  0  0  0  0  0
   -7.8224  -21.5693   28.9703 O   0  0  0  0  0  0  0  0  0  0  0  0
  2  1  1  6
  3  2  1  0
  4  6  1  0
  4  2  1  0
  5  4  2  0
  7  6  1  0
  7 11  1  0
  7  8  1  6
  9  8  1  0
 10  9  2  0
 11 19  1  0
 12 11  2  0
 13  9  1  0
 15 14  1  0
 16 15  2  0
 17 15  1  0
 18 20  1  0
 18 17  1  1
 19 18  1  0
 20 21  1  0
 22 20  2  0
M  END
$$$$
