ADN.pdb
     RDKit          3D

 22 21  0  0  1  0  0  0  0  0999 V2000
    7.8269  -12.5474   19.6609 C   0  0  0  0  0  0  0  0  0  0  0  0
    8.2271  -13.6692   18.7301 C   0  0  2  0  0  0  0  0  0  0  0  0
    7.1579  -14.0147   17.8156 N   0  0  0  0  0  0  0  0  0  0  0  0
    8.6510  -14.8413   19.5406 C   0  0  0  0  0  0  0  0  0  0  0  0
    7.8881  -15.7977   19.8309 O   0  0  0  0  0  0  0  0  0  0  0  0
    9.9987  -14.9525   20.0552 N   0  0  0  0  0  0  0  0  0  0  0  0
   10.4561  -16.1059   20.7814 C   0  0  1  0  0  0  0  0  0  0  0  0
   11.7716  -16.6317   20.2686 C   0  0  0  0  0  0  0  0  0  0  0  0
   12.2533  -17.8054   21.0195 C   0  0  0  0  0  0  0  0  0  0  0  0
   11.5115  -18.7067   21.4800 O   0  0  0  0  0  0  0  0  0  0  0  0
   10.4789  -15.8204   22.2368 C   0  0  0  0  0  0  0  0  0  0  0  0
   11.2322  -14.9413   22.7425 O   0  0  0  0  0  0  0  0  0  0  0  0
   13.6212  -17.9147   21.2279 O   0  0  0  0  0  0  0  0  0  0  0  0
    6.0480  -16.1956   25.6521 N   0  0  0  0  0  0  0  0  0  0  0  0
    7.2478  -16.4298   24.8921 C   0  0  0  0  0  0  0  0  0  0  0  0
    7.2530  -17.4210   24.0966 O   0  0  0  0  0  0  0  0  0  0  0  0
    8.4138  -15.5345   25.0537 C   0  0  0  0  0  0  0  0  0  0  0  0
    9.6487  -16.2463   24.5863 C   0  0  2  0  0  0  0  0  0  0  0  0
    9.6470  -16.5222   23.1706 N   0  0  0  0  0  0  0  0  0  0  0  0
   10.0162  -17.4270   25.3993 C   0  0  0  0  0  0  0  0  0  0  0  0
   10.2195  -17.3877   26.7733 O   0  0  0  0  0  0  0  0  0  0  0  0
   10.1642  -18.5518   24.8602 O   0  0  0  0  0  0  0  0  0  0  0  0
  2  1  1  1
  3  2  1  0
  4  6  1  0
  4  2  1  0
  5  4  2  0
  7  6  1  0
  7 11  1  0
  7  8  1  6
  9  8  1  0
 10  9  2  0
 11 19  1  0
 12 11  2  0
 13  9  1  0
 15 14  1  0
 16 15  2  0
 17 15  1  0
 18 20  1  0
 18 17  1  1
 19 18  1  0
 20 21  1  0
 22 20  2  0
M  END
$$$$
