ADN.pdb
     RDKit          3D

 22 21  0  0  1  0  0  0  0  0999 V2000
    8.0534  -12.4517   19.7357 C   0  0  0  0  0  0  0  0  0  0  0  0
    8.2944  -13.6352   18.8267 C   0  0  2  0  0  0  0  0  0  0  0  0
    7.1449  -13.9114   17.9894 N   0  0  0  0  0  0  0  0  0  0  0  0
    8.6608  -14.8140   19.6553 C   0  0  0  0  0  0  0  0  0  0  0  0
    7.8166  -15.5611   20.2123 O   0  0  0  0  0  0  0  0  0  0  0  0
   10.0435  -15.1790   19.8747 N   0  0  0  0  0  0  0  0  0  0  0  0
   10.4254  -16.3657   20.5910 C   0  0  1  0  0  0  0  0  0  0  0  0
   11.5814  -17.0864   19.9475 C   0  0  0  0  0  0  0  0  0  0  0  0
   11.8270  -18.4168   20.5333 C   0  0  0  0  0  0  0  0  0  0  0  0
   11.3458  -18.8124   21.6226 O   0  0  0  0  0  0  0  0  0  0  0  0
   10.6696  -16.0471   22.0190 C   0  0  0  0  0  0  0  0  0  0  0  0
   11.6445  -15.3384   22.3975 O   0  0  0  0  0  0  0  0  0  0  0  0
   12.6471  -19.2857   19.8270 O   0  0  0  0  0  0  0  0  0  0  0  0
    8.3691  -14.8198   22.9599 N   0  0  0  0  0  0  0  0  0  0  0  0
    7.9814  -15.0466   24.3274 C   0  0  0  0  0  0  0  0  0  0  0  0
    6.8781  -14.5479   24.7138 O   0  0  0  0  0  0  0  0  0  0  0  0
    8.8557  -15.8327   25.2246 C   0  0  0  0  0  0  0  0  0  0  0  0
   10.0733  -16.2699   24.4655 C   0  0  2  0  0  0  0  0  0  0  0  0
    9.8154  -16.5212   23.0688 N   0  0  0  0  0  0  0  0  0  0  0  0
   10.8355  -17.3611   25.1124 C   0  0  0  0  0  0  0  0  0  0  0  0
   10.5618  -18.7110   24.9285 O   0  0  0  0  0  0  0  0  0  0  0  0
   11.7946  -17.1010   25.8807 O   0  0  0  0  0  0  0  0  0  0  0  0
  2  1  1  1
  3  2  1  0
  4  6  1  0
  4  2  1  0
  5  4  2  0
  7  6  1  0
  7 11  1  0
  7  8  1  6
  9  8  1  0
 10  9  2  0
 11 19  1  0
 12 11  2  0
 13  9  1  0
 15 14  1  0
 16 15  2  0
 17 15  1  0
 18 20  1  0
 18 17  1  1
 19 18  1  0
 20 21  1  0
 22 20  2  0
M  END
$$$$
