ADN.pdb
     RDKit          3D

 22 21  0  0  1  0  0  0  0  0999 V2000
    7.3411  -12.5291   19.2637 C   0  0  0  0  0  0  0  0  0  0  0  0
    8.7369  -13.0378   18.9842 C   0  0  2  0  0  0  0  0  0  0  0  0
    9.0030  -13.1203   17.5625 N   0  0  0  0  0  0  0  0  0  0  0  0
    8.9127  -14.3560   19.6489 C   0  0  0  0  0  0  0  0  0  0  0  0
    8.7348  -14.5428   20.8795 O   0  0  0  0  0  0  0  0  0  0  0  0
    9.3084  -15.5292   18.9003 N   0  0  0  0  0  0  0  0  0  0  0  0
    9.5097  -16.8104   19.5207 C   0  0  1  0  0  0  0  0  0  0  0  0
    8.9900  -17.9500   18.6834 C   0  0  0  0  0  0  0  0  0  0  0  0
    9.0711  -19.2518   19.3705 C   0  0  0  0  0  0  0  0  0  0  0  0
    9.9503  -19.5562   20.2125 O   0  0  0  0  0  0  0  0  0  0  0  0
   10.9337  -16.9788   19.9005 C   0  0  0  0  0  0  0  0  0  0  0  0
   11.8483  -17.1398   19.0441 O   0  0  0  0  0  0  0  0  0  0  0  0
    8.1067  -20.2005   19.0605 O   0  0  0  0  0  0  0  0  0  0  0  0
   15.0664  -16.1880   20.6223 N   0  0  0  0  0  0  0  0  0  0  0  0
   14.2366  -15.0193   20.4900 C   0  0  0  0  0  0  0  0  0  0  0  0
   14.7394  -14.0068   19.9093 O   0  0  0  0  0  0  0  0  0  0  0  0
   12.8563  -15.0268   21.0211 C   0  0  0  0  0  0  0  0  0  0  0  0
   12.5961  -16.3413   21.6952 C   0  0  2  0  0  0  0  0  0  0  0  0
   11.3708  -16.9699   21.2663 N   0  0  0  0  0  0  0  0  0  0  0  0
   12.7383  -16.3096   23.1680 C   0  0  0  0  0  0  0  0  0  0  0  0
   11.8895  -15.6046   24.0125 O   0  0  0  0  0  0  0  0  0  0  0  0
   13.6650  -16.9417   23.7331 O   0  0  0  0  0  0  0  0  0  0  0  0
  2  1  1  6
  3  2  1  0
  4  6  1  0
  4  2  1  0
  5  4  2  0
  7  6  1  0
  7 11  1  0
  7  8  1  6
  9  8  1  0
 10  9  2  0
 11 19  1  0
 12 11  2  0
 13  9  1  0
 15 14  1  0
 16 15  2  0
 17 15  1  0
 18 20  1  0
 18 17  1  1
 19 18  1  0
 20 21  1  0
 22 20  2  0
M  END
$$$$
