ADN.pdb
     RDKit          3D

 22 21  0  0  1  0  0  0  0  0999 V2000
    7.6897  -13.5458   18.3386 C   0  0  0  0  0  0  0  0  0  0  0  0
    8.9168  -13.2983   19.1859 C   0  0  2  0  0  0  0  0  0  0  0  0
    9.5573  -12.0433   18.8487 N   0  0  0  0  0  0  0  0  0  0  0  0
    9.8500  -14.4452   19.0311 C   0  0  0  0  0  0  0  0  0  0  0  0
    9.6063  -15.4470   18.3114 O   0  0  0  0  0  0  0  0  0  0  0  0
   11.1240  -14.4763   19.7162 N   0  0  0  0  0  0  0  0  0  0  0  0
   12.3292  -14.9429   19.0863 C   0  0  1  0  0  0  0  0  0  0  0  0
   12.5720  -14.2984   17.7463 C   0  0  0  0  0  0  0  0  0  0  0  0
   13.8105  -14.7677   17.0988 C   0  0  0  0  0  0  0  0  0  0  0  0
   14.1442  -15.9729   16.9950 O   0  0  0  0  0  0  0  0  0  0  0  0
   13.4804  -14.7990   20.0106 C   0  0  0  0  0  0  0  0  0  0  0  0
   14.6698  -15.0271   19.6513 O   0  0  0  0  0  0  0  0  0  0  0  0
   14.6605  -13.8062   16.5704 O   0  0  0  0  0  0  0  0  0  0  0  0
    9.9252  -15.3943   23.2469 N   0  0  0  0  0  0  0  0  0  0  0  0
   11.2377  -15.8955   23.5601 C   0  0  0  0  0  0  0  0  0  0  0  0
   11.5465  -16.0009   24.7885 O   0  0  0  0  0  0  0  0  0  0  0  0
   12.1692  -16.2640   22.4721 C   0  0  0  0  0  0  0  0  0  0  0  0
   13.3335  -15.3184   22.4804 C   0  0  2  0  0  0  0  0  0  0  0  0
   13.3228  -14.3904   21.3762 N   0  0  0  0  0  0  0  0  0  0  0  0
   14.6482  -15.9719   22.6663 C   0  0  0  0  0  0  0  0  0  0  0  0
   15.6069  -15.5378   23.5736 O   0  0  0  0  0  0  0  0  0  0  0  0
   14.9606  -16.9813   21.9871 O   0  0  0  0  0  0  0  0  0  0  0  0
  2  1  1  6
  3  2  1  0
  4  6  1  0
  4  2  1  0
  5  4  2  0
  7  6  1  0
  7 11  1  0
  7  8  1  6
  9  8  1  0
 10  9  2  0
 11 19  1  0
 12 11  2  0
 13  9  1  0
 15 14  1  0
 16 15  2  0
 17 15  1  0
 18 20  1  0
 18 17  1  6
 19 18  1  0
 20 21  1  0
 22 20  2  0
M  END
$$$$
