ADN.pdb
     RDKit          3D

 22 21  0  0  1  0  0  0  0  0999 V2000
    8.0574  -12.3726   20.2068 C   0  0  0  0  0  0  0  0  0  0  0  0
    8.2186  -13.6131   19.3581 C   0  0  2  0  0  0  0  0  0  0  0  0
    7.0719  -13.8281   18.4991 N   0  0  0  0  0  0  0  0  0  0  0  0
    8.4589  -14.7794   20.2482 C   0  0  0  0  0  0  0  0  0  0  0  0
    7.5372  -15.4724   20.7495 O   0  0  0  0  0  0  0  0  0  0  0  0
    9.7998  -15.1951   20.5981 N   0  0  0  0  0  0  0  0  0  0  0  0
   10.0614  -16.3113   21.4658 C   0  0  1  0  0  0  0  0  0  0  0  0
   11.2833  -17.0920   21.0565 C   0  0  0  0  0  0  0  0  0  0  0  0
   11.5707  -18.2232   21.9570 C   0  0  0  0  0  0  0  0  0  0  0  0
   12.5775  -18.2990   22.7022 O   0  0  0  0  0  0  0  0  0  0  0  0
   10.1125  -15.8623   22.8786 C   0  0  0  0  0  0  0  0  0  0  0  0
   11.0387  -15.1265   23.3221 O   0  0  0  0  0  0  0  0  0  0  0  0
   10.6623  -19.2724   21.9770 O   0  0  0  0  0  0  0  0  0  0  0  0
    6.7881  -17.0011   24.7532 N   0  0  0  0  0  0  0  0  0  0  0  0
    6.7660  -15.6924   25.3521 C   0  0  0  0  0  0  0  0  0  0  0  0
    5.6292  -15.1728   25.5824 O   0  0  0  0  0  0  0  0  0  0  0  0
    8.0345  -15.0037   25.6744 C   0  0  0  0  0  0  0  0  0  0  0  0
    9.1845  -15.8581   25.2301 C   0  0  2  0  0  0  0  0  0  0  0  0
    9.1137  -16.2320   23.8389 N   0  0  0  0  0  0  0  0  0  0  0  0
    9.4686  -17.0074   26.1181 C   0  0  0  0  0  0  0  0  0  0  0  0
    9.6646  -18.3061   25.6645 O   0  0  0  0  0  0  0  0  0  0  0  0
    9.5469  -16.8487   27.3617 O   0  0  0  0  0  0  0  0  0  0  0  0
  2  1  1  1
  3  2  1  0
  4  6  1  0
  4  2  1  0
  5  4  2  0
  7  6  1  0
  7 11  1  0
  7  8  1  6
  9  8  1  0
 10  9  2  0
 11 19  1  0
 12 11  2  0
 13  9  1  0
 15 14  1  0
 16 15  2  0
 17 15  1  0
 18 20  1  0
 18 17  1  1
 19 18  1  0
 20 21  1  0
 22 20  2  0
M  END
$$$$
