ADN.pdb
     RDKit          3D

 22 21  0  0  1  0  0  0  0  0999 V2000
    8.6044  -18.3689   14.6404 C   0  0  0  0  0  0  0  0  0  0  0  0
    9.5201  -17.8280   15.7146 C   0  0  2  0  0  0  0  0  0  0  0  0
   10.6170  -18.7334   15.9902 N   0  0  0  0  0  0  0  0  0  0  0  0
    8.7205  -17.5527   16.9374 C   0  0  0  0  0  0  0  0  0  0  0  0
    7.7525  -16.7507   16.9686 O   0  0  0  0  0  0  0  0  0  0  0  0
    9.0167  -18.2072   18.1933 N   0  0  0  0  0  0  0  0  0  0  0  0
    8.1971  -18.0426   19.3629 C   0  0  1  0  0  0  0  0  0  0  0  0
    7.7849  -19.3567   19.9737 C   0  0  0  0  0  0  0  0  0  0  0  0
    6.3250  -19.4823   20.1357 C   0  0  0  0  0  0  0  0  0  0  0  0
    5.5142  -18.5309   20.0255 O   0  0  0  0  0  0  0  0  0  0  0  0
    8.8637  -17.1411   20.3341 C   0  0  0  0  0  0  0  0  0  0  0  0
    8.2176  -16.3479   21.0754 O   0  0  0  0  0  0  0  0  0  0  0  0
    5.8196  -20.7410   20.4302 O   0  0  0  0  0  0  0  0  0  0  0  0
   10.4664  -15.1983   24.8139 N   0  0  0  0  0  0  0  0  0  0  0  0
   11.0658  -16.2619   24.0513 C   0  0  0  0  0  0  0  0  0  0  0  0
   12.2451  -16.6157   24.3664 O   0  0  0  0  0  0  0  0  0  0  0  0
   10.3133  -16.8978   22.9483 C   0  0  0  0  0  0  0  0  0  0  0  0
   10.9328  -16.5050   21.6399 C   0  0  2  0  0  0  0  0  0  0  0  0
   10.2878  -17.1078   20.4993 N   0  0  0  0  0  0  0  0  0  0  0  0
   12.4064  -16.6356   21.5997 C   0  0  0  0  0  0  0  0  0  0  0  0
   13.0998  -17.2662   20.5739 O   0  0  0  0  0  0  0  0  0  0  0  0
   13.1141  -16.1647   22.5245 O   0  0  0  0  0  0  0  0  0  0  0  0
  2  1  1  6
  3  2  1  0
  4  6  1  0
  4  2  1  0
  5  4  2  0
  7  6  1  0
  7 11  1  0
  7  8  1  1
  9  8  1  0
 10  9  2  0
 11 19  1  0
 12 11  2  0
 13  9  1  0
 15 14  1  0
 16 15  2  0
 17 15  1  0
 18 20  1  0
 18 17  1  1
 19 18  1  0
 20 21  1  0
 22 20  2  0
M  END
$$$$
