ADN.pdb
     RDKit          3D

 22 21  0  0  1  0  0  0  0  0999 V2000
    6.8477  -13.4317   18.8859 C   0  0  0  0  0  0  0  0  0  0  0  0
    8.2687  -13.0475   19.2298 C   0  0  2  0  0  0  0  0  0  0  0  0
    8.8303  -12.1386   18.2515 N   0  0  0  0  0  0  0  0  0  0  0  0
    9.0856  -14.2830   19.3578 C   0  0  0  0  0  0  0  0  0  0  0  0
    8.7460  -15.2711   20.0574 O   0  0  0  0  0  0  0  0  0  0  0  0
   10.3498  -14.4239   18.6684 N   0  0  0  0  0  0  0  0  0  0  0  0
   11.2108  -15.5597   18.8572 C   0  0  1  0  0  0  0  0  0  0  0  0
   12.1369  -15.7875   17.6908 C   0  0  0  0  0  0  0  0  0  0  0  0
   12.9679  -16.9955   17.8441 C   0  0  0  0  0  0  0  0  0  0  0  0
   12.6281  -18.0125   18.4960 O   0  0  0  0  0  0  0  0  0  0  0  0
   11.9304  -15.4491   20.1496 C   0  0  0  0  0  0  0  0  0  0  0  0
   12.6095  -14.4305   20.4614 O   0  0  0  0  0  0  0  0  0  0  0  0
   14.2090  -17.0018   17.2230 O   0  0  0  0  0  0  0  0  0  0  0  0
   11.6159  -15.6172   25.6980 N   0  0  0  0  0  0  0  0  0  0  0  0
   12.0867  -16.6876   24.8587 C   0  0  0  0  0  0  0  0  0  0  0  0
   13.0199  -17.4210   25.3132 O   0  0  0  0  0  0  0  0  0  0  0  0
   11.4885  -16.8996   23.5229 C   0  0  0  0  0  0  0  0  0  0  0  0
   12.3928  -16.3120   22.4803 C   0  0  2  0  0  0  0  0  0  0  0  0
   11.9045  -16.4907   21.1349 N   0  0  0  0  0  0  0  0  0  0  0  0
   13.8168  -16.6873   22.6271 C   0  0  0  0  0  0  0  0  0  0  0  0
   14.3226  -17.9430   22.3136 O   0  0  0  0  0  0  0  0  0  0  0  0
   14.6548  -15.8558   23.0562 O   0  0  0  0  0  0  0  0  0  0  0  0
  2  1  1  6
  3  2  1  0
  4  6  1  0
  4  2  1  0
  5  4  2  0
  7  6  1  0
  7 11  1  0
  7  8  1  6
  9  8  1  0
 10  9  2  0
 11 19  1  0
 12 11  2  0
 13  9  1  0
 15 14  1  0
 16 15  2  0
 17 15  1  0
 18 20  1  0
 18 17  1  1
 19 18  1  0
 20 21  1  0
 22 20  2  0
M  END
$$$$
