ADN.pdb
     RDKit          3D

 22 21  0  0  1  0  0  0  0  0999 V2000
    6.6893  -13.4295   18.9137 C   0  0  0  0  0  0  0  0  0  0  0  0
    8.0210  -13.2984   19.6169 C   0  0  2  0  0  0  0  0  0  0  0  0
    9.1297  -13.5308   18.7137 N   0  0  0  0  0  0  0  0  0  0  0  0
    8.0524  -14.2355   20.7706 C   0  0  0  0  0  0  0  0  0  0  0  0
    7.1570  -14.2824   21.6522 O   0  0  0  0  0  0  0  0  0  0  0  0
    9.1415  -15.1708   20.9508 N   0  0  0  0  0  0  0  0  0  0  0  0
    9.1979  -16.0878   22.0567 C   0  0  1  0  0  0  0  0  0  0  0  0
   10.1492  -17.2310   21.8160 C   0  0  0  0  0  0  0  0  0  0  0  0
    9.7867  -18.0424   20.6397 C   0  0  0  0  0  0  0  0  0  0  0  0
    8.6281  -18.4561   20.3927 O   0  0  0  0  0  0  0  0  0  0  0  0
    9.4838  -15.3571   23.3154 C   0  0  0  0  0  0  0  0  0  0  0  0
   10.0191  -14.2128   23.3275 O   0  0  0  0  0  0  0  0  0  0  0  0
   10.8005  -18.3674   19.7493 O   0  0  0  0  0  0  0  0  0  0  0  0
    6.7540  -12.3763   27.0480 N   0  0  0  0  0  0  0  0  0  0  0  0
    7.9715  -13.0764   26.7330 C   0  0  0  0  0  0  0  0  0  0  0  0
    8.9461  -12.9482   27.5388 O   0  0  0  0  0  0  0  0  0  0  0  0
    8.0549  -13.9045   25.5105 C   0  0  0  0  0  0  0  0  0  0  0  0
    8.9532  -15.0771   25.7713 C   0  0  2  0  0  0  0  0  0  0  0  0
    9.1719  -15.8988   24.6061 N   0  0  0  0  0  0  0  0  0  0  0  0
    8.5918  -15.8672   26.9694 C   0  0  0  0  0  0  0  0  0  0  0  0
    8.1111  -17.1700   26.9213 O   0  0  0  0  0  0  0  0  0  0  0  0
    8.7096  -15.3736   28.1184 O   0  0  0  0  0  0  0  0  0  0  0  0
  2  1  1  6
  3  2  1  0
  4  6  1  0
  4  2  1  0
  5  4  2  0
  7  6  1  0
  7 11  1  0
  7  8  1  6
  9  8  1  0
 10  9  2  0
 11 19  1  0
 12 11  2  0
 13  9  1  0
 15 14  1  0
 16 15  2  0
 17 15  1  0
 18 20  1  0
 18 17  1  6
 19 18  1  0
 20 21  1  0
 22 20  2  0
M  END
$$$$
