ADN.pdb
     RDKit          3D

 22 21  0  0  1  0  0  0  0  0999 V2000
    7.6749  -12.9029   22.4302 C   0  0  0  0  0  0  0  0  0  0  0  0
    8.0539  -14.1322   21.6364 C   0  0  2  0  0  0  0  0  0  0  0  0
    7.0273  -14.4897   20.6786 N   0  0  0  0  0  0  0  0  0  0  0  0
    8.3329  -15.2483   22.5781 C   0  0  0  0  0  0  0  0  0  0  0  0
    7.4617  -16.0722   22.9566 O   0  0  0  0  0  0  0  0  0  0  0  0
    9.6551  -15.4564   23.1275 N   0  0  0  0  0  0  0  0  0  0  0  0
    9.9818  -16.5916   23.9470 C   0  0  1  0  0  0  0  0  0  0  0  0
   10.9569  -17.5276   23.2816 C   0  0  0  0  0  0  0  0  0  0  0  0
   11.2207  -18.7418   24.0751 C   0  0  0  0  0  0  0  0  0  0  0  0
   10.3343  -19.4256   24.6420 O   0  0  0  0  0  0  0  0  0  0  0  0
   10.4366  -16.1442   25.2861 C   0  0  0  0  0  0  0  0  0  0  0  0
   11.3824  -15.3210   25.4398 O   0  0  0  0  0  0  0  0  0  0  0  0
   12.5412  -19.1508   24.1996 O   0  0  0  0  0  0  0  0  0  0  0  0
    8.4109  -13.5467   26.9613 N   0  0  0  0  0  0  0  0  0  0  0  0
    9.5162  -13.9660   27.7826 C   0  0  0  0  0  0  0  0  0  0  0  0
   10.5235  -13.1936   27.8478 O   0  0  0  0  0  0  0  0  0  0  0  0
    9.4528  -15.2524   28.5095 C   0  0  0  0  0  0  0  0  0  0  0  0
   10.3197  -16.2562   27.8090 C   0  0  2  0  0  0  0  0  0  0  0  0
    9.8336  -16.6148   26.4992 N   0  0  0  0  0  0  0  0  0  0  0  0
   10.6737  -17.4349   28.6309 C   0  0  0  0  0  0  0  0  0  0  0  0
   10.5602  -18.7478   28.1903 O   0  0  0  0  0  0  0  0  0  0  0  0
   11.1062  -17.2900   29.8012 O   0  0  0  0  0  0  0  0  0  0  0  0
  2  1  1  1
  3  2  1  0
  4  6  1  0
  4  2  1  0
  5  4  2  0
  7  6  1  0
  7 11  1  0
  7  8  1  6
  9  8  1  0
 10  9  2  0
 11 19  1  0
 12 11  2  0
 13  9  1  0
 15 14  1  0
 16 15  2  0
 17 15  1  0
 18 20  1  0
 18 17  1  1
 19 18  1  0
 20 21  1  0
 22 20  2  0
M  END
$$$$
