ADN.pdb
     RDKit          3D

 22 21  0  0  1  0  0  0  0  0999 V2000
    9.2622  -16.9376   17.1363 C   0  0  0  0  0  0  0  0  0  0  0  0
   10.0986  -17.8332   18.0214 C   0  0  2  0  0  0  0  0  0  0  0  0
    9.3630  -19.0076   18.4442 N   0  0  0  0  0  0  0  0  0  0  0  0
   10.5833  -17.0456   19.1854 C   0  0  0  0  0  0  0  0  0  0  0  0
   11.3305  -16.0396   19.0810 O   0  0  0  0  0  0  0  0  0  0  0  0
   10.2148  -17.3992   20.5391 N   0  0  0  0  0  0  0  0  0  0  0  0
   10.6553  -16.6462   21.6819 C   0  0  1  0  0  0  0  0  0  0  0  0
    9.6581  -16.6666   22.8111 C   0  0  0  0  0  0  0  0  0  0  0  0
   10.0740  -15.8418   23.9600 C   0  0  0  0  0  0  0  0  0  0  0  0
   11.1993  -15.2980   24.0729 O   0  0  0  0  0  0  0  0  0  0  0  0
   12.0069  -17.0915   22.1002 C   0  0  0  0  0  0  0  0  0  0  0  0
   12.3102  -18.3118   22.2221 O   0  0  0  0  0  0  0  0  0  0  0  0
    9.1539  -15.6584   24.9828 O   0  0  0  0  0  0  0  0  0  0  0  0
   17.4051  -17.3299   21.5677 N   0  0  0  0  0  0  0  0  0  0  0  0
   16.7938  -16.3095   22.3783 C   0  0  0  0  0  0  0  0  0  0  0  0
   17.4417  -15.9009   23.3926 O   0  0  0  0  0  0  0  0  0  0  0  0
   15.4612  -15.7778   22.0196 C   0  0  0  0  0  0  0  0  0  0  0  0
   14.4060  -16.5852   22.7158 C   0  0  2  0  0  0  0  0  0  0  0  0
   13.0633  -16.1674   22.3949 N   0  0  0  0  0  0  0  0  0  0  0  0
   14.6231  -16.7467   24.1708 C   0  0  0  0  0  0  0  0  0  0  0  0
   15.4189  -17.7396   24.7291 O   0  0  0  0  0  0  0  0  0  0  0  0
   14.0771  -15.9645   24.9880 O   0  0  0  0  0  0  0  0  0  0  0  0
  2  1  1  6
  3  2  1  0
  4  6  1  0
  4  2  1  0
  5  4  2  0
  7  6  1  0
  7 11  1  0
  7  8  1  1
  9  8  1  0
 10  9  2  0
 11 19  1  0
 12 11  2  0
 13  9  1  0
 15 14  1  0
 16 15  2  0
 17 15  1  0
 18 20  1  0
 18 17  1  1
 19 18  1  0
 20 21  1  0
 22 20  2  0
M  END
$$$$
