ADN.pdb
     RDKit          3D

 22 21  0  0  1  0  0  0  0  0999 V2000
    7.5957  -20.5120   18.0830 C   0  0  0  0  0  0  0  0  0  0  0  0
    8.4050  -20.2223   19.3265 C   0  0  2  0  0  0  0  0  0  0  0  0
    7.7851  -19.1990   20.1435 N   0  0  0  0  0  0  0  0  0  0  0  0
    9.7845  -19.8386   18.9264 C   0  0  0  0  0  0  0  0  0  0  0  0
   10.5592  -20.5965   18.2888 O   0  0  0  0  0  0  0  0  0  0  0  0
   10.3294  -18.5393   19.2555 N   0  0  0  0  0  0  0  0  0  0  0  0
   11.6938  -18.1806   18.9785 C   0  0  1  0  0  0  0  0  0  0  0  0
   11.8360  -17.3619   17.7218 C   0  0  0  0  0  0  0  0  0  0  0  0
   11.9799  -18.1893   16.5101 C   0  0  0  0  0  0  0  0  0  0  0  0
   12.7523  -19.1732   16.4102 O   0  0  0  0  0  0  0  0  0  0  0  0
   12.3034  -17.5272   20.1625 C   0  0  0  0  0  0  0  0  0  0  0  0
   12.8788  -16.4046   20.0949 O   0  0  0  0  0  0  0  0  0  0  0  0
   11.2059  -17.8514   15.4086 O   0  0  0  0  0  0  0  0  0  0  0  0
   11.4589  -15.8870   24.8489 N   0  0  0  0  0  0  0  0  0  0  0  0
   10.5361  -15.7482   23.7529 C   0  0  0  0  0  0  0  0  0  0  0  0
    9.5880  -14.9126   23.8878 O   0  0  0  0  0  0  0  0  0  0  0  0
   10.7102  -16.5619   22.5302 C   0  0  0  0  0  0  0  0  0  0  0  0
   11.9553  -17.3879   22.6625 C   0  0  2  0  0  0  0  0  0  0  0  0
   12.2813  -18.1245   21.4660 N   0  0  0  0  0  0  0  0  0  0  0  0
   12.0043  -18.2254   23.8817 C   0  0  0  0  0  0  0  0  0  0  0  0
   11.7970  -19.5994   23.8857 O   0  0  0  0  0  0  0  0  0  0  0  0
   12.2440  -17.7089   25.0013 O   0  0  0  0  0  0  0  0  0  0  0  0
  2  1  1  6
  3  2  1  0
  4  6  1  0
  4  2  1  0
  5  4  2  0
  7  6  1  0
  7 11  1  0
  7  8  1  6
  9  8  1  0
 10  9  2  0
 11 19  1  0
 12 11  2  0
 13  9  1  0
 15 14  1  0
 16 15  2  0
 17 15  1  0
 18 20  1  0
 18 17  1  6
 19 18  1  0
 20 21  1  0
 22 20  2  0
M  END
$$$$
