ADN.pdb
     RDKit          3D

 22 21  0  0  1  0  0  0  0  0999 V2000
   13.2152  -18.2259   15.5510 C   0  0  0  0  0  0  0  0  0  0  0  0
   12.7567  -18.0207   16.9767 C   0  0  2  0  0  0  0  0  0  0  0  0
   11.5329  -17.2479   17.0406 N   0  0  0  0  0  0  0  0  0  0  0  0
   13.8508  -17.3733   17.7475 C   0  0  0  0  0  0  0  0  0  0  0  0
   14.9980  -17.8715   17.8776 O   0  0  0  0  0  0  0  0  0  0  0  0
   13.6546  -16.1017   18.4091 N   0  0  0  0  0  0  0  0  0  0  0  0
   14.6857  -15.4662   19.1837 C   0  0  1  0  0  0  0  0  0  0  0  0
   14.7610  -13.9807   18.9439 C   0  0  0  0  0  0  0  0  0  0  0  0
   15.7817  -13.6106   17.9465 C   0  0  0  0  0  0  0  0  0  0  0  0
   16.9231  -14.1268   17.8740 O   0  0  0  0  0  0  0  0  0  0  0  0
   14.5354  -15.8100   20.6188 C   0  0  0  0  0  0  0  0  0  0  0  0
   15.3235  -15.3753   21.5053 O   0  0  0  0  0  0  0  0  0  0  0  0
   15.4513  -12.6234   17.0285 O   0  0  0  0  0  0  0  0  0  0  0  0
   10.8751  -14.6034   24.3219 N   0  0  0  0  0  0  0  0  0  0  0  0
   10.7437  -15.7470   23.4577 C   0  0  0  0  0  0  0  0  0  0  0  0
   10.0106  -16.7040   23.8602 O   0  0  0  0  0  0  0  0  0  0  0  0
   11.4485  -15.7783   22.1579 C   0  0  0  0  0  0  0  0  0  0  0  0
   12.7899  -16.4240   22.3413 C   0  0  2  0  0  0  0  0  0  0  0  0
   13.4846  -16.6594   21.0994 N   0  0  0  0  0  0  0  0  0  0  0  0
   12.7792  -17.6109   23.2252 C   0  0  0  0  0  0  0  0  0  0  0  0
   13.2872  -18.8519   22.8608 O   0  0  0  0  0  0  0  0  0  0  0  0
   12.2932  -17.5410   24.3814 O   0  0  0  0  0  0  0  0  0  0  0  0
  2  1  1  6
  3  2  1  0
  4  6  1  0
  4  2  1  0
  5  4  2  0
  7  6  1  0
  7 11  1  0
  7  8  1  1
  9  8  1  0
 10  9  2  0
 11 19  1  0
 12 11  2  0
 13  9  1  0
 15 14  1  0
 16 15  2  0
 17 15  1  0
 18 20  1  0
 18 17  1  6
 19 18  1  0
 20 21  1  0
 22 20  2  0
M  END
$$$$
