KFA.pdb
     RDKit          3D

 26 26  0  0  1  0  0  0  0  0999 V2000
   28.6822  -20.2637  -15.3758 N   0  0  0  0  0  0  0  0  0  0  0  0
   28.1836  -19.6277  -14.1451 C   0  0  1  0  0  0  0  0  0  0  0  0
   27.8686  -18.1845  -14.4230 C   0  0  0  0  0  0  0  0  0  0  0  0
   27.3190  -17.9355  -15.7880 C   0  0  0  0  0  0  0  0  0  0  0  0
   28.1926  -16.9907  -16.5932 C   0  0  0  0  0  0  0  0  0  0  0  0
   27.6141  -16.7265  -17.9606 C   0  0  0  0  0  0  0  0  0  0  0  0
   28.4879  -15.9413  -18.8003 N   0  0  0  0  0  0  0  0  0  0  0  0
   27.0578  -20.4239  -13.6412 C   0  0  0  0  0  0  0  0  0  0  0  0
   26.2133  -20.8796  -14.4212 O   0  0  0  0  0  0  0  0  0  0  0  0
   26.8690  -20.7153  -12.2645 N   0  0  0  0  0  0  0  0  0  0  0  0
   25.8584  -21.5636  -11.7371 C   0  0  1  0  0  0  0  0  0  0  0  0
   26.1021  -22.0713  -10.3560 C   0  0  0  0  0  0  0  0  0  0  0  0
   26.6928  -21.1144   -9.4303 C   0  0  0  0  0  0  0  0  0  0  0  0
   27.9994  -21.0924   -9.0466 C   0  0  0  0  0  0  0  0  0  0  0  0
   28.4762  -20.1601   -8.1724 C   0  0  0  0  0  0  0  0  0  0  0  0
   27.6603  -19.1881   -7.6290 C   0  0  0  0  0  0  0  0  0  0  0  0
   26.3329  -19.1952   -8.0066 C   0  0  0  0  0  0  0  0  0  0  0  0
   25.8574  -20.1359   -8.8871 C   0  0  0  0  0  0  0  0  0  0  0  0
   24.5850  -20.7963  -11.7121 C   0  0  0  0  0  0  0  0  0  0  0  0
   24.4896  -19.7619  -11.0134 O   0  0  0  0  0  0  0  0  0  0  0  0
   21.9358  -19.7238  -13.6724 C   0  0  0  0  0  0  0  0  0  0  0  0
   22.2165  -20.4174  -12.3547 C   0  0  2  0  0  0  0  0  0  0  0  0
   23.4415  -21.1800  -12.4549 N   0  0  0  0  0  0  0  0  0  0  0  0
   21.0662  -21.2836  -11.9938 C   0  0  0  0  0  0  0  0  0  0  0  0
   21.1642  -22.5099  -12.2372 O   0  0  0  0  0  0  0  0  0  0  0  0
   19.8963  -20.8284  -11.4082 O   0  0  0  0  0  0  0  0  0  0  0  0
  2  3  1  0
  2  1  1  6
  4  5  1  0
  4  3  1  0
  6  7  1  0
  6  5  1  0
  8  2  1  0
  9  8  2  0
 10  8  1  0
 11 10  1  0
 11 12  1  1
 12 13  1  0
 13 18  2  0
 14 13  1  0
 14 15  2  0
 15 16  1  0
 16 17  2  0
 18 17  1  0
 19 11  1  0
 19 20  2  0
 22 21  1  6
 22 23  1  0
 23 19  1  0
 24 22  1  0
 25 24  2  0
 26 24  1  0
M  END
$$$$
