KFA.pdb
     RDKit          3D

 26 26  0  0  1  0  0  0  0  0999 V2000
   28.0994  -20.6758  -16.4945 N   0  0  0  0  0  0  0  0  0  0  0  0
   27.1586  -21.7824  -16.7355 C   0  0  1  0  0  0  0  0  0  0  0  0
   27.9202  -22.9897  -17.2062 C   0  0  0  0  0  0  0  0  0  0  0  0
   28.7816  -22.7368  -18.3985 C   0  0  0  0  0  0  0  0  0  0  0  0
   30.2419  -23.0491  -18.1262 C   0  0  0  0  0  0  0  0  0  0  0  0
   31.1167  -22.6882  -19.3003 C   0  0  0  0  0  0  0  0  0  0  0  0
   30.5381  -23.0604  -20.5699 N   0  0  0  0  0  0  0  0  0  0  0  0
   26.3658  -21.9839  -15.5165 C   0  0  0  0  0  0  0  0  0  0  0  0
   26.0373  -23.1225  -15.1631 O   0  0  0  0  0  0  0  0  0  0  0  0
   25.9357  -20.9156  -14.6859 N   0  0  0  0  0  0  0  0  0  0  0  0
   25.1763  -21.0588  -13.4934 C   0  0  1  0  0  0  0  0  0  0  0  0
   25.5708  -20.1615  -12.3691 C   0  0  0  0  0  0  0  0  0  0  0  0
   24.8361  -20.3522  -11.1261 C   0  0  0  0  0  0  0  0  0  0  0  0
   23.5816  -19.8865  -10.8726 C   0  0  0  0  0  0  0  0  0  0  0  0
   22.9602  -20.1082   -9.6786 C   0  0  0  0  0  0  0  0  0  0  0  0
   23.5693  -20.8167   -8.6621 C   0  0  0  0  0  0  0  0  0  0  0  0
   24.8410  -21.2962   -8.9015 C   0  0  0  0  0  0  0  0  0  0  0  0
   25.4625  -21.0705  -10.1052 C   0  0  0  0  0  0  0  0  0  0  0  0
   23.7551  -20.7676  -13.8191 C   0  0  0  0  0  0  0  0  0  0  0  0
   23.4211  -19.6236  -14.2025 O   0  0  0  0  0  0  0  0  0  0  0  0
   20.7764  -22.1412  -15.0946 C   0  0  0  0  0  0  0  0  0  0  0  0
   21.3470  -21.3641  -13.9255 C   0  0  2  0  0  0  0  0  0  0  0  0
   22.7285  -21.7383  -13.7175 N   0  0  0  0  0  0  0  0  0  0  0  0
   20.5280  -21.6167  -12.7134 C   0  0  0  0  0  0  0  0  0  0  0  0
   19.5746  -20.8350  -12.4838 O   0  0  0  0  0  0  0  0  0  0  0  0
   20.7465  -22.6548  -11.8228 O   0  0  0  0  0  0  0  0  0  0  0  0
  2  3  1  0
  2  1  1  1
  4  5  1  0
  4  3  1  0
  6  7  1  0
  6  5  1  0
  8  2  1  0
  9  8  2  0
 10  8  1  0
 11 10  1  0
 11 12  1  1
 12 13  1  0
 13 18  2  0
 14 13  1  0
 14 15  2  0
 15 16  1  0
 16 17  2  0
 18 17  1  0
 19 11  1  0
 19 20  2  0
 22 21  1  6
 22 23  1  0
 23 19  1  0
 24 22  1  0
 25 24  2  0
 26 24  1  0
M  END
$$$$
