KFA.pdb
     RDKit          3D

 26 26  0  0  1  0  0  0  0  0999 V2000
   26.1005  -21.3636  -12.6954 N   0  0  0  0  0  0  0  0  0  0  0  0
   25.4233  -20.5908  -11.6408 C   0  0  1  0  0  0  0  0  0  0  0  0
   23.9484  -20.8772  -11.6831 C   0  0  0  0  0  0  0  0  0  0  0  0
   23.2610  -20.3424  -12.8950 C   0  0  0  0  0  0  0  0  0  0  0  0
   24.2156  -20.1607  -14.0612 C   0  0  0  0  0  0  0  0  0  0  0  0
   23.4984  -19.6823  -15.2985 C   0  0  0  0  0  0  0  0  0  0  0  0
   24.3905  -19.1216  -16.2859 N   0  0  0  0  0  0  0  0  0  0  0  0
   26.0782  -20.8894  -10.3613 C   0  0  0  0  0  0  0  0  0  0  0  0
   26.3205  -22.0583  -10.0387 O   0  0  0  0  0  0  0  0  0  0  0  0
   26.4659  -19.8849   -9.4358 N   0  0  0  0  0  0  0  0  0  0  0  0
   27.0686  -20.1237   -8.1712 C   0  0  1  0  0  0  0  0  0  0  0  0
   27.7597  -18.9530   -7.5577 C   0  0  0  0  0  0  0  0  0  0  0  0
   28.4598  -19.2208   -6.3089 C   0  0  0  0  0  0  0  0  0  0  0  0
   29.3645  -20.2195   -6.1110 C   0  0  0  0  0  0  0  0  0  0  0  0
   29.9789  -20.4046   -4.9072 C   0  0  0  0  0  0  0  0  0  0  0  0
   29.7171  -19.5897   -3.8240 C   0  0  0  0  0  0  0  0  0  0  0  0
   28.8028  -18.5721   -4.0064 C   0  0  0  0  0  0  0  0  0  0  0  0
   28.1868  -18.3897   -5.2202 C   0  0  0  0  0  0  0  0  0  0  0  0
   26.0009  -20.5550   -7.2305 C   0  0  0  0  0  0  0  0  0  0  0  0
   24.9311  -19.9089   -7.1570 O   0  0  0  0  0  0  0  0  0  0  0  0
   25.1405  -23.5242   -5.1569 C   0  0  0  0  0  0  0  0  0  0  0  0
   25.0617  -22.0461   -5.4809 C   0  0  2  0  0  0  0  0  0  0  0  0
   26.1289  -21.6872   -6.3889 N   0  0  0  0  0  0  0  0  0  0  0  0
   25.1298  -21.2574   -4.2250 C   0  0  0  0  0  0  0  0  0  0  0  0
   26.2333  -20.7453   -3.9203 O   0  0  0  0  0  0  0  0  0  0  0  0
   24.0591  -21.0507   -3.3709 O   0  0  0  0  0  0  0  0  0  0  0  0
  2  3  1  0
  2  1  1  6
  4  5  1  0
  4  3  1  0
  6  7  1  0
  6  5  1  0
  8  2  1  0
  9  8  2  0
 10  8  1  0
 11 10  1  0
 11 12  1  1
 12 13  1  0
 13 18  2  0
 14 13  1  0
 14 15  2  0
 15 16  1  0
 16 17  2  0
 18 17  1  0
 19 11  1  0
 19 20  2  0
 22 21  1  1
 22 23  1  0
 23 19  1  0
 24 22  1  0
 25 24  2  0
 26 24  1  0
M  END
$$$$
