KFA.pdb
     RDKit          3D

 26 26  0  0  1  0  0  0  0  0999 V2000
   26.4491  -23.5817  -15.9487 N   0  0  0  0  0  0  0  0  0  0  0  0
   25.4389  -22.5529  -16.2467 C   0  0  1  0  0  0  0  0  0  0  0  0
   24.8667  -22.7987  -17.6147 C   0  0  0  0  0  0  0  0  0  0  0  0
   25.7493  -22.3495  -18.7312 C   0  0  0  0  0  0  0  0  0  0  0  0
   25.4850  -20.9075  -19.1250 C   0  0  0  0  0  0  0  0  0  0  0  0
   26.3329  -20.4866  -20.2990 C   0  0  0  0  0  0  0  0  0  0  0  0
   27.6680  -20.0909  -19.9170 N   0  0  0  0  0  0  0  0  0  0  0  0
   24.4576  -22.5439  -15.1549 C   0  0  0  0  0  0  0  0  0  0  0  0
   24.1729  -23.5895  -14.5591 O   0  0  0  0  0  0  0  0  0  0  0  0
   23.7894  -21.3681  -14.7226 N   0  0  0  0  0  0  0  0  0  0  0  0
   22.8778  -21.2959  -13.6350 C   0  0  1  0  0  0  0  0  0  0  0  0
   23.0798  -20.1495  -12.7025 C   0  0  0  0  0  0  0  0  0  0  0  0
   23.9079  -20.4265  -11.5368 C   0  0  0  0  0  0  0  0  0  0  0  0
   23.4810  -20.4054  -10.2437 C   0  0  0  0  0  0  0  0  0  0  0  0
   24.3219  -20.6774   -9.2046 C   0  0  0  0  0  0  0  0  0  0  0  0
   25.6515  -20.9889   -9.4073 C   0  0  0  0  0  0  0  0  0  0  0  0
   26.1017  -21.0150  -10.7116 C   0  0  0  0  0  0  0  0  0  0  0  0
   25.2513  -20.7404  -11.7545 C   0  0  0  0  0  0  0  0  0  0  0  0
   21.5058  -21.1784  -14.1959 C   0  0  0  0  0  0  0  0  0  0  0  0
   21.2630  -20.3344  -15.0880 O   0  0  0  0  0  0  0  0  0  0  0  0
   18.4125  -23.1701  -14.4123 C   0  0  0  0  0  0  0  0  0  0  0  0
   19.1142  -21.8285  -14.3506 C   0  0  2  0  0  0  0  0  0  0  0  0
   20.4273  -21.9900  -13.7661 N   0  0  0  0  0  0  0  0  0  0  0  0
   18.2883  -20.8708  -13.5730 C   0  0  0  0  0  0  0  0  0  0  0  0
   17.1630  -20.5661  -14.0353 O   0  0  0  0  0  0  0  0  0  0  0  0
   18.6771  -20.2938  -12.3753 O   0  0  0  0  0  0  0  0  0  0  0  0
  2  3  1  0
  2  1  1  1
  4  5  1  0
  4  3  1  0
  6  7  1  0
  6  5  1  0
  8  2  1  0
  9  8  2  0
 10  8  1  0
 11 10  1  0
 11 12  1  1
 12 13  1  0
 13 18  2  0
 14 13  1  0
 14 15  2  0
 15 16  1  0
 16 17  2  0
 18 17  1  0
 19 11  1  0
 19 20  2  0
 22 21  1  1
 22 23  1  0
 23 19  1  0
 24 22  1  0
 25 24  2  0
 26 24  1  0
M  END
$$$$
