KFA.pdb
     RDKit          3D

 26 26  0  0  1  0  0  0  0  0999 V2000
   35.5882  -27.1171    5.1810 N   0  0  0  0  0  0  0  0  0  0  0  0
   35.0734  -26.7555    6.5122 C   0  0  1  0  0  0  0  0  0  0  0  0
   35.5395  -27.7700    7.5185 C   0  0  0  0  0  0  0  0  0  0  0  0
   34.8985  -29.1096    7.3711 C   0  0  0  0  0  0  0  0  0  0  0  0
   35.3418  -30.0784    8.4524 C   0  0  0  0  0  0  0  0  0  0  0  0
   34.6647  -31.4184    8.3110 C   0  0  0  0  0  0  0  0  0  0  0  0
   35.0601  -32.3602    9.3317 N   0  0  0  0  0  0  0  0  0  0  0  0
   35.4694  -25.3707    6.7962 C   0  0  0  0  0  0  0  0  0  0  0  0
   36.4529  -24.8723    6.2360 O   0  0  0  0  0  0  0  0  0  0  0  0
   34.7699  -24.5355    7.7066 N   0  0  0  0  0  0  0  0  0  0  0  0
   35.0999  -23.1847    7.9996 C   0  0  1  0  0  0  0  0  0  0  0  0
   33.9601  -22.2233    7.9662 C   0  0  0  0  0  0  0  0  0  0  0  0
   33.4135  -21.9429    6.6456 C   0  0  0  0  0  0  0  0  0  0  0  0
   34.1105  -21.9949    5.4768 C   0  0  0  0  0  0  0  0  0  0  0  0
   33.5238  -21.7173    4.2770 C   0  0  0  0  0  0  0  0  0  0  0  0
   32.1914  -21.3685    4.1823 C   0  0  0  0  0  0  0  0  0  0  0  0
   31.4693  -21.3108    5.3570 C   0  0  0  0  0  0  0  0  0  0  0  0
   32.0644  -21.5911    6.5626 C   0  0  0  0  0  0  0  0  0  0  0  0
   35.6792  -23.1425    9.3683 C   0  0  0  0  0  0  0  0  0  0  0  0
   35.2345  -23.8988   10.2613 O   0  0  0  0  0  0  0  0  0  0  0  0
   38.7376  -21.8298   11.0208 C   0  0  0  0  0  0  0  0  0  0  0  0
   37.3066  -22.3269   11.0573 C   0  0  2  0  0  0  0  0  0  0  0  0
   36.7356  -22.2706    9.7296 N   0  0  0  0  0  0  0  0  0  0  0  0
   36.5222  -21.5136   12.0202 C   0  0  0  0  0  0  0  0  0  0  0  0
   35.6827  -20.7085   11.5512 O   0  0  0  0  0  0  0  0  0  0  0  0
   36.6558  -21.5850   13.3970 O   0  0  0  0  0  0  0  0  0  0  0  0
  2  3  1  0
  2  1  1  6
  4  5  1  0
  4  3  1  0
  6  7  1  0
  6  5  1  0
  8  2  1  0
  9  8  2  0
 10  8  1  0
 11 10  1  0
 11 12  1  1
 12 13  1  0
 13 18  2  0
 14 13  1  0
 14 15  2  0
 15 16  1  0
 16 17  2  0
 18 17  1  0
 19 11  1  0
 19 20  2  0
 22 21  1  6
 22 23  1  0
 23 19  1  0
 24 22  1  0
 25 24  2  0
 26 24  1  0
M  END
$$$$
