KFA.pdb
     RDKit          3D

 26 26  0  0  1  0  0  0  0  0999 V2000
   27.7751  -20.3020  -17.0480 N   0  0  0  0  0  0  0  0  0  0  0  0
   27.3344  -21.7066  -17.0198 C   0  0  1  0  0  0  0  0  0  0  0  0
   28.5114  -22.6029  -17.2851 C   0  0  0  0  0  0  0  0  0  0  0  0
   29.4635  -22.0689  -18.3028 C   0  0  0  0  0  0  0  0  0  0  0  0
   28.8171  -21.9187  -19.6680 C   0  0  0  0  0  0  0  0  0  0  0  0
   29.8156  -21.4866  -20.7123 C   0  0  0  0  0  0  0  0  0  0  0  0
   30.1853  -22.5523  -21.6139 N   0  0  0  0  0  0  0  0  0  0  0  0
   26.6457  -21.9455  -15.7456 C   0  0  0  0  0  0  0  0  0  0  0  0
   26.2638  -23.0821  -15.4427 O   0  0  0  0  0  0  0  0  0  0  0  0
   26.3798  -20.9173  -14.8032 N   0  0  0  0  0  0  0  0  0  0  0  0
   25.6379  -21.0780  -13.6019 C   0  0  1  0  0  0  0  0  0  0  0  0
   25.9769  -20.1255  -12.5054 C   0  0  0  0  0  0  0  0  0  0  0  0
   25.3353  -20.3883  -11.2245 C   0  0  0  0  0  0  0  0  0  0  0  0
   24.0882  -19.9731  -10.8678 C   0  0  0  0  0  0  0  0  0  0  0  0
   23.5571  -20.2614   -9.6448 C   0  0  0  0  0  0  0  0  0  0  0  0
   24.2549  -20.9896   -8.7021 C   0  0  0  0  0  0  0  0  0  0  0  0
   25.5205  -21.4187   -9.0465 C   0  0  0  0  0  0  0  0  0  0  0  0
   26.0510  -21.1260  -10.2790 C   0  0  0  0  0  0  0  0  0  0  0  0
   24.1987  -20.8918  -13.9255 C   0  0  0  0  0  0  0  0  0  0  0  0
   23.7883  -19.7866  -14.3465 O   0  0  0  0  0  0  0  0  0  0  0  0
   21.3479  -22.8751  -14.9590 C   0  0  0  0  0  0  0  0  0  0  0  0
   21.8607  -21.6957  -14.1577 C   0  0  2  0  0  0  0  0  0  0  0  0
   23.2384  -21.9230  -13.7805 N   0  0  0  0  0  0  0  0  0  0  0  0
   20.9986  -21.4914  -12.9665 C   0  0  0  0  0  0  0  0  0  0  0  0
   19.8336  -21.0689  -13.1587 O   0  0  0  0  0  0  0  0  0  0  0  0
   21.3946  -21.7357  -11.6618 O   0  0  0  0  0  0  0  0  0  0  0  0
  2  3  1  0
  2  1  1  1
  4  5  1  0
  4  3  1  0
  6  7  1  0
  6  5  1  0
  8  2  1  0
  9  8  2  0
 10  8  1  0
 11 10  1  0
 11 12  1  1
 12 13  1  0
 13 18  2  0
 14 13  1  0
 14 15  2  0
 15 16  1  0
 16 17  2  0
 18 17  1  0
 19 11  1  0
 19 20  2  0
 22 21  1  1
 22 23  1  0
 23 19  1  0
 24 22  1  0
 25 24  2  0
 26 24  1  0
M  END
$$$$
