KFA.pdb
     RDKit          3D

 26 26  0  0  1  0  0  0  0  0999 V2000
   27.0819  -21.7466  -12.7837 N   0  0  0  0  0  0  0  0  0  0  0  0
   26.3569  -20.6622  -12.1008 C   0  0  1  0  0  0  0  0  0  0  0  0
   25.0225  -20.4617  -12.7628 C   0  0  0  0  0  0  0  0  0  0  0  0
   25.1105  -19.9602  -14.1657 C   0  0  0  0  0  0  0  0  0  0  0  0
   25.6944  -18.5608  -14.2377 C   0  0  0  0  0  0  0  0  0  0  0  0
   25.7182  -18.0396  -15.6527 C   0  0  0  0  0  0  0  0  0  0  0  0
   24.4256  -17.5844  -16.1076 N   0  0  0  0  0  0  0  0  0  0  0  0
   26.2989  -20.9804  -10.6688 C   0  0  0  0  0  0  0  0  0  0  0  0
   26.1383  -22.1471  -10.2917 O   0  0  0  0  0  0  0  0  0  0  0  0
   26.4199  -19.9980   -9.6508 N   0  0  0  0  0  0  0  0  0  0  0  0
   26.3308  -20.2485   -8.2549 C   0  0  1  0  0  0  0  0  0  0  0  0
   26.7693  -19.1292   -7.3721 C   0  0  0  0  0  0  0  0  0  0  0  0
   27.5810  -19.5144   -6.2258 C   0  0  0  0  0  0  0  0  0  0  0  0
   27.2735  -20.5006   -5.3381 C   0  0  0  0  0  0  0  0  0  0  0  0
   28.0893  -20.8013   -4.2869 C   0  0  0  0  0  0  0  0  0  0  0  0
   29.2709  -20.1225   -4.0657 C   0  0  0  0  0  0  0  0  0  0  0  0
   29.5985  -19.1198   -4.9555 C   0  0  0  0  0  0  0  0  0  0  0  0
   28.7741  -18.8206   -6.0123 C   0  0  0  0  0  0  0  0  0  0  0  0
   24.9087  -20.5398   -7.9330 C   0  0  0  0  0  0  0  0  0  0  0  0
   24.0024  -19.7893   -8.3603 O   0  0  0  0  0  0  0  0  0  0  0  0
   22.8239  -23.3700   -6.8887 C   0  0  0  0  0  0  0  0  0  0  0  0
   23.1092  -21.8819   -6.8713 C   0  0  2  0  0  0  0  0  0  0  0  0
   24.5098  -21.6495   -7.1480 N   0  0  0  0  0  0  0  0  0  0  0  0
   22.7146  -21.3153   -5.5571 C   0  0  0  0  0  0  0  0  0  0  0  0
   23.6311  -20.9355   -4.7899 O   0  0  0  0  0  0  0  0  0  0  0  0
   21.4059  -21.1789   -5.1241 O   0  0  0  0  0  0  0  0  0  0  0  0
  2  3  1  0
  2  1  1  6
  4  5  1  0
  4  3  1  0
  6  7  1  0
  6  5  1  0
  8  2  1  0
  9  8  2  0
 10  8  1  0
 11 10  1  0
 11 12  1  1
 12 13  1  0
 13 18  2  0
 14 13  1  0
 14 15  2  0
 15 16  1  0
 16 17  2  0
 18 17  1  0
 19 11  1  0
 19 20  2  0
 22 21  1  1
 22 23  1  0
 23 19  1  0
 24 22  1  0
 25 24  2  0
 26 24  1  0
M  END
$$$$
