KFA.pdb
     RDKit          3D

 26 26  0  0  1  0  0  0  0  0999 V2000
   25.2985  -18.6486  -12.2451 N   0  0  0  0  0  0  0  0  0  0  0  0
   26.5527  -19.4101  -12.3676 C   0  0  1  0  0  0  0  0  0  0  0  0
   27.5228  -18.6377  -13.2171 C   0  0  0  0  0  0  0  0  0  0  0  0
   27.0764  -18.4487  -14.6286 C   0  0  0  0  0  0  0  0  0  0  0  0
   27.6391  -19.5121  -15.5542 C   0  0  0  0  0  0  0  0  0  0  0  0
   27.3024  -19.2294  -16.9967 C   0  0  0  0  0  0  0  0  0  0  0  0
   27.8583  -20.2032  -17.9066 N   0  0  0  0  0  0  0  0  0  0  0  0
   27.0281  -19.7310  -11.0163 C   0  0  0  0  0  0  0  0  0  0  0  0
   28.0860  -20.3508  -10.8545 O   0  0  0  0  0  0  0  0  0  0  0  0
   26.3255  -19.3618   -9.8391 N   0  0  0  0  0  0  0  0  0  0  0  0
   26.6729  -19.7565   -8.5190 C   0  0  1  0  0  0  0  0  0  0  0  0
   26.5685  -18.6903   -7.4813 C   0  0  0  0  0  0  0  0  0  0  0  0
   27.2242  -18.9814   -6.2137 C   0  0  0  0  0  0  0  0  0  0  0  0
   26.6745  -19.6849   -5.1852 C   0  0  0  0  0  0  0  0  0  0  0  0
   27.3565  -19.9152   -4.0265 C   0  0  0  0  0  0  0  0  0  0  0  0
   28.6411  -19.4478   -3.8333 C   0  0  0  0  0  0  0  0  0  0  0  0
   29.2141  -18.7326   -4.8652 C   0  0  0  0  0  0  0  0  0  0  0  0
   28.5235  -18.5033   -6.0299 C   0  0  0  0  0  0  0  0  0  0  0  0
   25.7616  -20.8606   -8.1176 C   0  0  0  0  0  0  0  0  0  0  0  0
   24.5299  -20.6556   -8.0266 O   0  0  0  0  0  0  0  0  0  0  0  0
   26.3068  -23.2553   -5.6605 C   0  0  0  0  0  0  0  0  0  0  0  0
   25.4836  -23.0122   -6.9092 C   0  0  2  0  0  0  0  0  0  0  0  0
   26.2206  -22.1682   -7.8239 N   0  0  0  0  0  0  0  0  0  0  0  0
   24.1828  -22.4017   -6.5362 C   0  0  0  0  0  0  0  0  0  0  0  0
   23.4120  -23.0754   -5.8117 O   0  0  0  0  0  0  0  0  0  0  0  0
   23.7658  -21.1421   -6.9340 O   0  0  0  0  0  0  0  0  0  0  0  0
  2  3  1  0
  2  1  1  1
  4  5  1  0
  4  3  1  0
  6  7  1  0
  6  5  1  0
  8  2  1  0
  9  8  2  0
 10  8  1  0
 11 10  1  0
 11 12  1  1
 12 13  1  0
 13 18  2  0
 14 13  1  0
 14 15  2  0
 15 16  1  0
 16 17  2  0
 18 17  1  0
 19 11  1  0
 19 20  2  0
 22 21  1  1
 22 23  1  0
 23 19  1  0
 24 22  1  0
 25 24  2  0
 26 24  1  0
M  END
$$$$
