KFA.pdb
     RDKit          3D

 26 26  0  0  1  0  0  0  0  0999 V2000
   15.3746  -10.1392  -12.6787 N   0  0  0  0  0  0  0  0  0  0  0  0
   16.2846   -9.0450  -12.3012 C   0  0  1  0  0  0  0  0  0  0  0  0
   16.8909   -8.4515  -13.5420 C   0  0  0  0  0  0  0  0  0  0  0  0
   17.5921   -9.4436  -14.4089 C   0  0  0  0  0  0  0  0  0  0  0  0
   18.3632   -8.7768  -15.5336 C   0  0  0  0  0  0  0  0  0  0  0  0
   19.1669   -9.7764  -16.3267 C   0  0  0  0  0  0  0  0  0  0  0  0
   20.3737  -10.1923  -15.6515 N   0  0  0  0  0  0  0  0  0  0  0  0
   15.5408   -8.0998  -11.4595 C   0  0  0  0  0  0  0  0  0  0  0  0
   14.3659   -7.8170  -11.7217 O   0  0  0  0  0  0  0  0  0  0  0  0
   16.1047   -7.4658  -10.3211 N   0  0  0  0  0  0  0  0  0  0  0  0
   15.4269   -6.5481   -9.4739 C   0  0  1  0  0  0  0  0  0  0  0  0
   15.2147   -7.0059   -8.0703 C   0  0  0  0  0  0  0  0  0  0  0  0
   13.9791   -7.7382   -7.8287 C   0  0  0  0  0  0  0  0  0  0  0  0
   13.7910   -9.0663   -8.0643 C   0  0  0  0  0  0  0  0  0  0  0  0
   12.5993   -9.6797   -7.8104 C   0  0  0  0  0  0  0  0  0  0  0  0
   11.5190   -8.9875   -7.3008 C   0  0  0  0  0  0  0  0  0  0  0  0
   11.6915   -7.6404   -7.0558 C   0  0  0  0  0  0  0  0  0  0  0  0
   12.8932   -7.0272   -7.3130 C   0  0  0  0  0  0  0  0  0  0  0  0
   16.2302   -5.2982   -9.4189 C   0  0  0  0  0  0  0  0  0  0  0  0
   17.4801   -5.3571   -9.3771 O   0  0  0  0  0  0  0  0  0  0  0  0
   17.5749   -2.9281   -8.4205 C   0  0  0  0  0  0  0  0  0  0  0  0
   16.4802   -2.8279   -9.4635 C   0  0  2  0  0  0  0  0  0  0  0  0
   15.6454   -4.0080   -9.4108 N   0  0  0  0  0  0  0  0  0  0  0  0
   17.0876   -2.6526  -10.8067 C   0  0  0  0  0  0  0  0  0  0  0  0
   16.9015   -3.5611  -11.6510 O   0  0  0  0  0  0  0  0  0  0  0  0
   17.8436   -1.5561  -11.1874 O   0  0  0  0  0  0  0  0  0  0  0  0
  2  3  1  0
  2  1  1  6
  4  5  1  0
  4  3  1  0
  6  7  1  0
  6  5  1  0
  8  2  1  0
  9  8  2  0
 10  8  1  0
 11 10  1  0
 11 12  1  1
 12 13  1  0
 13 18  2  0
 14 13  1  0
 14 15  2  0
 15 16  1  0
 16 17  2  0
 18 17  1  0
 19 11  1  0
 19 20  2  0
 22 21  1  1
 22 23  1  0
 23 19  1  0
 24 22  1  0
 25 24  2  0
 26 24  1  0
M  END
$$$$
