KFA.pdb
     RDKit          3D

 26 26  0  0  1  0  0  0  0  0999 V2000
   28.7352  -20.6081  -14.8028 N   0  0  0  0  0  0  0  0  0  0  0  0
   27.7384  -19.7160  -14.1877 C   0  0  1  0  0  0  0  0  0  0  0  0
   27.1697  -18.8050  -15.2394 C   0  0  0  0  0  0  0  0  0  0  0  0
   28.1602  -17.8464  -15.8117 C   0  0  0  0  0  0  0  0  0  0  0  0
   28.7307  -18.3329  -17.1316 C   0  0  0  0  0  0  0  0  0  0  0  0
   29.6588  -17.3153  -17.7459 C   0  0  0  0  0  0  0  0  0  0  0  0
   29.0853  -15.9913  -17.8028 N   0  0  0  0  0  0  0  0  0  0  0  0
   26.7522  -20.5458  -13.4849 C   0  0  0  0  0  0  0  0  0  0  0  0
   26.5739  -21.7238  -13.8162 O   0  0  0  0  0  0  0  0  0  0  0  0
   25.9604  -20.0650  -12.4089 N   0  0  0  0  0  0  0  0  0  0  0  0
   25.1114  -20.8629  -11.5952 C   0  0  1  0  0  0  0  0  0  0  0  0
   25.0199  -20.4507  -10.1647 C   0  0  0  0  0  0  0  0  0  0  0  0
   26.2854  -20.3904   -9.4463 C   0  0  0  0  0  0  0  0  0  0  0  0
   26.5649  -19.5508   -8.4110 C   0  0  0  0  0  0  0  0  0  0  0  0
   27.7788  -19.5561   -7.7889 C   0  0  0  0  0  0  0  0  0  0  0  0
   28.7903  -20.4128   -8.1748 C   0  0  0  0  0  0  0  0  0  0  0  0
   28.5247  -21.2709   -9.2225 C   0  0  0  0  0  0  0  0  0  0  0  0
   27.3010  -21.2620   -9.8458 C   0  0  0  0  0  0  0  0  0  0  0  0
   23.7401  -20.7997  -12.1664 C   0  0  0  0  0  0  0  0  0  0  0  0
   23.2200  -19.6914  -12.4280 O   0  0  0  0  0  0  0  0  0  0  0  0
   21.3078  -23.1443  -13.7439 C   0  0  0  0  0  0  0  0  0  0  0  0
   21.6742  -21.8340  -13.0769 C   0  0  2  0  0  0  0  0  0  0  0  0
   22.9668  -21.9548  -12.4391 N   0  0  0  0  0  0  0  0  0  0  0  0
   20.6200  -21.4614  -12.1003 C   0  0  0  0  0  0  0  0  0  0  0  0
   20.8872  -21.5873  -10.8815 O   0  0  0  0  0  0  0  0  0  0  0  0
   19.3656  -20.9857  -12.4452 O   0  0  0  0  0  0  0  0  0  0  0  0
  2  3  1  0
  2  1  1  6
  4  5  1  0
  4  3  1  0
  6  7  1  0
  6  5  1  0
  8  2  1  0
  9  8  2  0
 10  8  1  0
 11 10  1  0
 11 12  1  1
 12 13  1  0
 13 18  2  0
 14 13  1  0
 14 15  2  0
 15 16  1  0
 16 17  2  0
 18 17  1  0
 19 11  1  0
 19 20  2  0
 22 21  1  1
 22 23  1  0
 23 19  1  0
 24 22  1  0
 25 24  2  0
 26 24  1  0
M  END
$$$$
