KFA.pdb
     RDKit          3D

 26 26  0  0  1  0  0  0  0  0999 V2000
   27.8057  -21.4419  -17.3995 N   0  0  0  0  0  0  0  0  0  0  0  0
   26.5756  -22.2507  -17.4194 C   0  0  1  0  0  0  0  0  0  0  0  0
   26.8504  -23.5576  -18.1090 C   0  0  0  0  0  0  0  0  0  0  0  0
   27.4475  -23.4122  -19.4690 C   0  0  0  0  0  0  0  0  0  0  0  0
   28.7530  -22.6381  -19.4412 C   0  0  0  0  0  0  0  0  0  0  0  0
   29.3339  -22.4763  -20.8234 C   0  0  0  0  0  0  0  0  0  0  0  0
   28.6752  -21.4486  -21.5949 N   0  0  0  0  0  0  0  0  0  0  0  0
   26.0806  -22.3665  -16.0422 C   0  0  0  0  0  0  0  0  0  0  0  0
   25.5258  -23.4036  -15.6603 O   0  0  0  0  0  0  0  0  0  0  0  0
   26.2025  -21.3254  -15.0844 N   0  0  0  0  0  0  0  0  0  0  0  0
   25.7202  -21.3794  -13.7488 C   0  0  1  0  0  0  0  0  0  0  0  0
   26.5415  -20.6508  -12.7393 C   0  0  0  0  0  0  0  0  0  0  0  0
   26.0265  -20.6723  -11.3770 C   0  0  0  0  0  0  0  0  0  0  0  0
   26.0043  -21.7617  -10.5600 C   0  0  0  0  0  0  0  0  0  0  0  0
   25.5034  -21.6996   -9.2927 C   0  0  0  0  0  0  0  0  0  0  0  0
   24.9917  -20.5290   -8.7694 C   0  0  0  0  0  0  0  0  0  0  0  0
   25.0061  -19.4147   -9.5834 C   0  0  0  0  0  0  0  0  0  0  0  0
   25.5115  -19.4822  -10.8587 C   0  0  0  0  0  0  0  0  0  0  0  0
   24.3583  -20.7829  -13.7306 C   0  0  0  0  0  0  0  0  0  0  0  0
   24.1921  -19.5885  -14.0668 O   0  0  0  0  0  0  0  0  0  0  0  0
   20.9353  -21.7384  -14.1575 C   0  0  0  0  0  0  0  0  0  0  0  0
   21.9035  -20.8805  -13.3684 C   0  0  2  0  0  0  0  0  0  0  0  0
   23.2057  -21.5098  -13.3435 N   0  0  0  0  0  0  0  0  0  0  0  0
   21.3767  -20.6694  -11.9967 C   0  0  0  0  0  0  0  0  0  0  0  0
   20.3544  -19.9538  -11.8713 O   0  0  0  0  0  0  0  0  0  0  0  0
   21.9375  -21.2085  -10.8506 O   0  0  0  0  0  0  0  0  0  0  0  0
  2  3  1  0
  2  1  1  1
  4  5  1  0
  4  3  1  0
  6  7  1  0
  6  5  1  0
  8  2  1  0
  9  8  2  0
 10  8  1  0
 11 10  1  0
 11 12  1  1
 12 13  1  0
 13 18  2  0
 14 13  1  0
 14 15  2  0
 15 16  1  0
 16 17  2  0
 18 17  1  0
 19 11  1  0
 19 20  2  0
 22 21  1  6
 22 23  1  0
 23 19  1  0
 24 22  1  0
 25 24  2  0
 26 24  1  0
M  END
$$$$
