DFI.pdb
     RDKit          3D

 28 28  0  0  1  0  0  0  0  0999 V2000
   27.8089  -22.7178  -16.2113 N   0  0  0  0  0  0  0  0  0  0  0  0
   28.0505  -21.4915  -15.4765 C   0  0  1  0  0  0  0  0  0  0  0  0
   27.4561  -20.3085  -16.1681 C   0  0  0  0  0  0  0  0  0  0  0  0
   28.1534  -20.0258  -17.4495 C   0  0  0  0  0  0  0  0  0  0  0  0
   29.3771  -20.3073  -17.5483 O   0  0  0  0  0  0  0  0  0  0  0  0
   27.6074  -21.6635  -14.0795 C   0  0  0  0  0  0  0  0  0  0  0  0
   26.6689  -22.5028  -13.8960 O   0  0  0  0  0  0  0  0  0  0  0  0
   27.5354  -19.4657  -18.5550 O   0  0  0  0  0  0  0  0  0  0  0  0
   28.1215  -20.9951  -12.9613 N   0  0  0  0  0  0  0  0  0  0  0  0
   27.5341  -21.0784  -11.6371 C   0  0  1  0  0  0  0  0  0  0  0  0
   28.4925  -20.8737  -10.5398 C   0  0  0  0  0  0  0  0  0  0  0  0
   28.0077  -20.5050   -9.2249 C   0  0  0  0  0  0  0  0  0  0  0  0
   28.7460  -20.6960   -8.0748 C   0  0  0  0  0  0  0  0  0  0  0  0
   28.2863  -20.3641   -6.8226 C   0  0  0  0  0  0  0  0  0  0  0  0
   27.0261  -19.8119   -6.6959 C   0  0  0  0  0  0  0  0  0  0  0  0
   26.2674  -19.6076   -7.8043 C   0  0  0  0  0  0  0  0  0  0  0  0
   26.7577  -19.9535   -9.0664 C   0  0  0  0  0  0  0  0  0  0  0  0
   26.2551  -20.3136  -11.5663 C   0  0  0  0  0  0  0  0  0  0  0  0
   26.2870  -19.0629  -11.7558 O   0  0  0  0  0  0  0  0  0  0  0  0
   22.0944  -19.6180  -15.1114 C   0  0  0  0  0  0  0  0  0  0  0  0
   22.2889  -19.6299  -13.6401 C   0  0  0  0  0  0  0  0  0  0  0  0
   23.4490  -20.4153  -13.1150 C   0  0  2  0  0  0  0  0  0  0  0  0
   23.4516  -21.7549  -13.8112 C   0  0  0  0  0  0  0  0  0  0  0  0
   23.7038  -20.3936  -11.6789 C   0  0  2  0  0  0  0  0  0  0  0  0
   25.0212  -20.9160  -11.3049 N   0  0  0  0  0  0  0  0  0  0  0  0
   22.6606  -20.8642  -10.7531 C   0  0  0  0  0  0  0  0  0  0  0  0
   21.4786  -20.4921  -10.7045 O   0  0  0  0  0  0  0  0  0  0  0  0
   22.9899  -21.8487   -9.7892 O   0  0  0  0  0  0  0  0  0  0  0  0
  2  1  1  6
  2  6  1  0
  3  2  1  0
  4  3  1  0
  5  4  2  0
  6  9  1  0
  6  7  2  0
  8  4  1  0
  9 10  1  0
 10 18  1  0
 10 11  1  1
 11 12  1  0
 12 17  2  0
 13 12  1  0
 13 14  2  0
 14 15  1  0
 15 16  2  0
 17 16  1  0
 18 19  2  0
 21 20  1  0
 22 21  1  0
 22 23  1  1
 24 22  1  0
 24 25  1  6
 25 18  1  0
 26 28  1  0
 26 24  1  0
 27 26  2  0
M  END
$$$$
