DFI.pdb
     RDKit          3D

 28 28  0  0  1  0  0  0  0  0999 V2000
   28.6371  -20.9151  -14.8007 N   0  0  0  0  0  0  0  0  0  0  0  0
   27.8758  -20.0493  -13.9215 C   0  0  1  0  0  0  0  0  0  0  0  0
   27.2758  -18.9004  -14.6639 C   0  0  0  0  0  0  0  0  0  0  0  0
   28.3267  -18.0257  -15.2456 C   0  0  0  0  0  0  0  0  0  0  0  0
   29.5261  -18.4076  -15.2005 O   0  0  0  0  0  0  0  0  0  0  0  0
   26.9011  -20.8575  -13.1636 C   0  0  0  0  0  0  0  0  0  0  0  0
   26.3787  -21.8305  -13.7956 O   0  0  0  0  0  0  0  0  0  0  0  0
   28.0676  -16.8026  -15.8412 O   0  0  0  0  0  0  0  0  0  0  0  0
   26.5101  -20.6489  -11.8352 N   0  0  0  0  0  0  0  0  0  0  0  0
   25.3423  -21.2681  -11.2363 C   0  0  1  0  0  0  0  0  0  0  0  0
   25.4302  -21.4321   -9.7768 C   0  0  0  0  0  0  0  0  0  0  0  0
   26.5870  -20.9237   -9.0675 C   0  0  0  0  0  0  0  0  0  0  0  0
   26.5322  -19.8195   -8.2415 C   0  0  0  0  0  0  0  0  0  0  0  0
   27.6284  -19.3216   -7.5784 C   0  0  0  0  0  0  0  0  0  0  0  0
   28.8497  -19.9475   -7.7382 C   0  0  0  0  0  0  0  0  0  0  0  0
   28.9459  -21.0378   -8.5430 C   0  0  0  0  0  0  0  0  0  0  0  0
   27.8162  -21.5249   -9.2062 C   0  0  0  0  0  0  0  0  0  0  0  0
   24.0833  -20.6746  -11.7732 C   0  0  0  0  0  0  0  0  0  0  0  0
   23.9747  -19.4144  -11.8061 O   0  0  0  0  0  0  0  0  0  0  0  0
   22.7648  -21.4328  -16.5842 C   0  0  0  0  0  0  0  0  0  0  0  0
   22.8580  -20.9815  -15.1734 C   0  0  0  0  0  0  0  0  0  0  0  0
   21.6830  -21.2639  -14.2913 C   0  0  2  0  0  0  0  0  0  0  0  0
   20.4402  -20.8145  -15.0212 C   0  0  0  0  0  0  0  0  0  0  0  0
   21.7926  -20.9442  -12.8723 C   0  0  2  0  0  0  0  0  0  0  0  0
   23.0189  -21.4471  -12.2465 N   0  0  0  0  0  0  0  0  0  0  0  0
   20.6266  -21.1410  -11.9956 C   0  0  0  0  0  0  0  0  0  0  0  0
   20.4666  -22.0348  -11.1509 O   0  0  0  0  0  0  0  0  0  0  0  0
   19.5375  -20.2397  -12.0872 O   0  0  0  0  0  0  0  0  0  0  0  0
  2  1  1  6
  2  6  1  0
  3  2  1  0
  4  3  1  0
  5  4  2  0
  6  9  1  0
  6  7  2  0
  8  4  1  0
  9 10  1  0
 10 18  1  0
 10 11  1  1
 11 12  1  0
 12 17  2  0
 13 12  1  0
 13 14  2  0
 14 15  1  0
 15 16  2  0
 17 16  1  0
 18 19  2  0
 21 20  1  0
 22 21  1  0
 22 23  1  6
 24 22  1  0
 24 25  1  1
 25 18  1  0
 26 28  1  0
 26 24  1  0
 27 26  2  0
M  END
$$$$
