DFI.pdb
     RDKit          3D

 28 28  0  0  1  0  0  0  0  0999 V2000
   28.5347  -21.2223  -14.3183 N   0  0  0  0  0  0  0  0  0  0  0  0
   27.6097  -20.1945  -13.8823 C   0  0  1  0  0  0  0  0  0  0  0  0
   27.0462  -19.4341  -15.0378 C   0  0  0  0  0  0  0  0  0  0  0  0
   28.0997  -18.6507  -15.7338 C   0  0  0  0  0  0  0  0  0  0  0  0
   28.6016  -19.1158  -16.7912 O   0  0  0  0  0  0  0  0  0  0  0  0
   26.5930  -20.7954  -12.9976 C   0  0  0  0  0  0  0  0  0  0  0  0
   26.2844  -22.0038  -13.2499 O   0  0  0  0  0  0  0  0  0  0  0  0
   28.5701  -17.4269  -15.2879 O   0  0  0  0  0  0  0  0  0  0  0  0
   25.9517  -20.1618  -11.9258 N   0  0  0  0  0  0  0  0  0  0  0  0
   24.7941  -20.7119  -11.2453 C   0  0  1  0  0  0  0  0  0  0  0  0
   24.7082  -20.3555   -9.8205 C   0  0  0  0  0  0  0  0  0  0  0  0
   25.8973  -20.4155   -8.9944 C   0  0  0  0  0  0  0  0  0  0  0  0
   26.3984  -19.3183   -8.3239 C   0  0  0  0  0  0  0  0  0  0  0  0
   27.5347  -19.3635   -7.5519 C   0  0  0  0  0  0  0  0  0  0  0  0
   28.2173  -20.5589   -7.4335 C   0  0  0  0  0  0  0  0  0  0  0  0
   27.7566  -21.6626   -8.0780 C   0  0  0  0  0  0  0  0  0  0  0  0
   26.5985  -21.5906   -8.8569 C   0  0  0  0  0  0  0  0  0  0  0  0
   23.5568  -20.5358  -12.0599 C   0  0  0  0  0  0  0  0  0  0  0  0
   23.3811  -19.4377  -12.6635 O   0  0  0  0  0  0  0  0  0  0  0  0
   22.3109  -23.3218  -16.1691 C   0  0  0  0  0  0  0  0  0  0  0  0
   22.4024  -22.3634  -15.0396 C   0  0  0  0  0  0  0  0  0  0  0  0
   21.2505  -22.3269  -14.0855 C   0  0  2  0  0  0  0  0  0  0  0  0
   19.9784  -22.3249  -14.8984 C   0  0  0  0  0  0  0  0  0  0  0  0
   21.3296  -21.4243  -12.9423 C   0  0  2  0  0  0  0  0  0  0  0  0
   22.5838  -21.5307  -12.1913 N   0  0  0  0  0  0  0  0  0  0  0  0
   20.1747  -21.3015  -12.0378 C   0  0  0  0  0  0  0  0  0  0  0  0
   20.0106  -21.8741  -10.9501 O   0  0  0  0  0  0  0  0  0  0  0  0
   19.1029  -20.4502  -12.4028 O   0  0  0  0  0  0  0  0  0  0  0  0
  2  1  1  6
  2  6  1  0
  3  2  1  0
  4  3  1  0
  5  4  2  0
  6  9  1  0
  6  7  2  0
  8  4  1  0
  9 10  1  0
 10 18  1  0
 10 11  1  1
 11 12  1  0
 12 17  2  0
 13 12  1  0
 13 14  2  0
 14 15  1  0
 15 16  2  0
 17 16  1  0
 18 19  2  0
 21 20  1  0
 22 21  1  0
 22 23  1  6
 24 22  1  0
 24 25  1  1
 25 18  1  0
 26 28  1  0
 26 24  1  0
 27 26  2  0
M  END
$$$$
