DFI.pdb
     RDKit          3D

 28 28  0  0  1  0  0  0  0  0999 V2000
   27.1699  -21.9091  -13.8293 N   0  0  0  0  0  0  0  0  0  0  0  0
   27.2473  -20.6844  -13.0571 C   0  0  1  0  0  0  0  0  0  0  0  0
   26.2668  -19.6660  -13.5394 C   0  0  0  0  0  0  0  0  0  0  0  0
   26.7104  -19.0531  -14.8183 C   0  0  0  0  0  0  0  0  0  0  0  0
   27.9450  -18.9607  -15.0498 O   0  0  0  0  0  0  0  0  0  0  0  0
   27.1330  -21.0042  -11.6210 C   0  0  0  0  0  0  0  0  0  0  0  0
   26.4115  -22.0122  -11.3343 O   0  0  0  0  0  0  0  0  0  0  0  0
   25.8417  -18.5714  -15.7833 O   0  0  0  0  0  0  0  0  0  0  0  0
   27.7387  -20.3067  -10.5684 N   0  0  0  0  0  0  0  0  0  0  0  0
   27.4753  -20.5811   -9.1681 C   0  0  1  0  0  0  0  0  0  0  0  0
   28.5783  -20.2158   -8.2656 C   0  0  0  0  0  0  0  0  0  0  0  0
   28.3193  -20.0480   -6.8497 C   0  0  0  0  0  0  0  0  0  0  0  0
   27.9105  -18.8496   -6.3009 C   0  0  0  0  0  0  0  0  0  0  0  0
   27.6788  -18.6785   -4.9569 C   0  0  0  0  0  0  0  0  0  0  0  0
   27.8605  -19.7500   -4.1037 C   0  0  0  0  0  0  0  0  0  0  0  0
   28.2624  -20.9472   -4.6046 C   0  0  0  0  0  0  0  0  0  0  0  0
   28.4912  -21.0956   -5.9753 C   0  0  0  0  0  0  0  0  0  0  0  0
   26.1080  -20.1289   -8.7788 C   0  0  0  0  0  0  0  0  0  0  0  0
   25.8295  -18.8979   -8.8689 O   0  0  0  0  0  0  0  0  0  0  0  0
   20.9235  -19.8404  -10.7596 C   0  0  0  0  0  0  0  0  0  0  0  0
   21.5870  -20.0383   -9.4468 C   0  0  0  0  0  0  0  0  0  0  0  0
   23.0193  -20.4699   -9.4683 C   0  0  2  0  0  0  0  0  0  0  0  0
   23.1695  -21.5156  -10.5469 C   0  0  0  0  0  0  0  0  0  0  0  0
   23.6885  -20.7053   -8.1937 C   0  0  2  0  0  0  0  0  0  0  0  0
   25.1176  -21.0038   -8.3232 N   0  0  0  0  0  0  0  0  0  0  0  0
   23.0501  -21.5754   -7.1927 C   0  0  0  0  0  0  0  0  0  0  0  0
   21.8548  -21.5859   -6.8622 O   0  0  0  0  0  0  0  0  0  0  0  0
   23.8431  -22.5220   -6.4986 O   0  0  0  0  0  0  0  0  0  0  0  0
  2  1  1  6
  2  6  1  0
  3  2  1  0
  4  3  1  0
  5  4  2  0
  6  9  1  0
  6  7  2  0
  8  4  1  0
  9 10  1  0
 10 18  1  0
 10 11  1  1
 11 12  1  0
 12 17  2  0
 13 12  1  0
 13 14  2  0
 14 15  1  0
 15 16  2  0
 17 16  1  0
 18 19  2  0
 21 20  1  0
 22 21  1  0
 22 23  1  6
 24 22  1  0
 24 25  1  6
 25 18  1  0
 26 28  1  0
 26 24  1  0
 27 26  2  0
M  END
$$$$
