DFI.pdb
     RDKit          3D

 28 28  0  0  1  0  0  0  0  0999 V2000
   25.1610  -13.0134  -18.9545 N   0  0  0  0  0  0  0  0  0  0  0  0
   24.2418  -11.9811  -19.3923 C   0  0  1  0  0  0  0  0  0  0  0  0
   22.9949  -12.5637  -19.9726 C   0  0  0  0  0  0  0  0  0  0  0  0
   23.2859  -13.3457  -21.2022 C   0  0  0  0  0  0  0  0  0  0  0  0
   24.1354  -12.8986  -22.0176 O   0  0  0  0  0  0  0  0  0  0  0  0
   24.0104  -11.0318  -18.2866 C   0  0  0  0  0  0  0  0  0  0  0  0
   23.5618  -11.5368  -17.2083 O   0  0  0  0  0  0  0  0  0  0  0  0
   22.6749  -14.5492  -21.5118 O   0  0  0  0  0  0  0  0  0  0  0  0
   24.2379   -9.6504  -18.3222 N   0  0  0  0  0  0  0  0  0  0  0  0
   24.1108   -8.7865  -17.1632 C   0  0  1  0  0  0  0  0  0  0  0  0
   25.3915   -8.2738  -16.6517 C   0  0  0  0  0  0  0  0  0  0  0  0
   26.4736   -9.1972  -16.3756 C   0  0  0  0  0  0  0  0  0  0  0  0
   26.5085   -9.9930  -15.2486 C   0  0  0  0  0  0  0  0  0  0  0  0
   27.5393  -10.8591  -14.9716 C   0  0  0  0  0  0  0  0  0  0  0  0
   28.5972  -10.9465  -15.8560 C   0  0  0  0  0  0  0  0  0  0  0  0
   28.6007  -10.1797  -16.9775 C   0  0  0  0  0  0  0  0  0  0  0  0
   27.5404   -9.3068  -17.2366 C   0  0  0  0  0  0  0  0  0  0  0  0
   23.0134   -7.7933  -17.3498 C   0  0  0  0  0  0  0  0  0  0  0  0
   23.0429   -7.0436  -18.3686 O   0  0  0  0  0  0  0  0  0  0  0  0
   17.2633   -6.8874  -17.9787 C   0  0  0  0  0  0  0  0  0  0  0  0
   18.4277   -6.3651  -17.2209 C   0  0  0  0  0  0  0  0  0  0  0  0
   19.6436   -7.2347  -17.1605 C   0  0  2  0  0  0  0  0  0  0  0  0
   19.2022   -8.6159  -16.7400 C   0  0  0  0  0  0  0  0  0  0  0  0
   20.8517   -6.6906  -16.5503 C   0  0  2  0  0  0  0  0  0  0  0  0
   21.9504   -7.6559  -16.4526 N   0  0  0  0  0  0  0  0  0  0  0  0
   20.7408   -5.8825  -15.3249 C   0  0  0  0  0  0  0  0  0  0  0  0
   20.0600   -4.8590  -15.1613 O   0  0  0  0  0  0  0  0  0  0  0  0
   21.4738   -6.2708  -14.1765 O   0  0  0  0  0  0  0  0  0  0  0  0
  2  1  1  1
  2  6  1  0
  3  2  1  0
  4  3  1  0
  5  4  2  0
  6  9  1  0
  6  7  2  0
  8  4  1  0
  9 10  1  0
 10 18  1  0
 10 11  1  6
 11 12  1  0
 12 17  2  0
 13 12  1  0
 13 14  2  0
 14 15  1  0
 15 16  2  0
 17 16  1  0
 18 19  2  0
 21 20  1  0
 22 21  1  0
 22 23  1  1
 24 22  1  0
 24 25  1  1
 25 18  1  0
 26 28  1  0
 26 24  1  0
 27 26  2  0
M  END
$$$$
