DFI.pdb
     RDKit          3D

 28 28  0  0  1  0  0  0  0  0999 V2000
   27.2826  -21.4950  -17.8700 N   0  0  0  0  0  0  0  0  0  0  0  0
   26.7512  -20.3495  -17.1576 C   0  0  1  0  0  0  0  0  0  0  0  0
   25.6614  -19.6785  -17.9278 C   0  0  0  0  0  0  0  0  0  0  0  0
   26.1870  -19.0413  -19.1630 C   0  0  0  0  0  0  0  0  0  0  0  0
   26.1841  -19.7033  -20.2346 O   0  0  0  0  0  0  0  0  0  0  0  0
   26.3665  -20.7581  -15.7928 C   0  0  0  0  0  0  0  0  0  0  0  0
   25.7217  -21.8514  -15.7036 O   0  0  0  0  0  0  0  0  0  0  0  0
   26.6858  -17.7504  -19.2110 O   0  0  0  0  0  0  0  0  0  0  0  0
   26.6451  -20.0593  -14.6115 N   0  0  0  0  0  0  0  0  0  0  0  0
   26.1549  -20.4626  -13.3066 C   0  0  1  0  0  0  0  0  0  0  0  0
   27.0368  -20.0873  -12.1904 C   0  0  0  0  0  0  0  0  0  0  0  0
   26.6037  -20.3180  -10.8269 C   0  0  0  0  0  0  0  0  0  0  0  0
   26.9313  -21.4575  -10.1207 C   0  0  0  0  0  0  0  0  0  0  0  0
   26.5105  -21.6908   -8.8331 C   0  0  0  0  0  0  0  0  0  0  0  0
   25.7213  -20.7469   -8.2045 C   0  0  0  0  0  0  0  0  0  0  0  0
   25.3766  -19.6112   -8.8656 C   0  0  0  0  0  0  0  0  0  0  0  0
   25.8174  -19.3974  -10.1744 C   0  0  0  0  0  0  0  0  0  0  0  0
   24.7047  -20.1471  -13.1552 C   0  0  0  0  0  0  0  0  0  0  0  0
   24.3183  -18.9611  -13.3679 O   0  0  0  0  0  0  0  0  0  0  0  0
   19.2649  -22.2877  -14.6258 C   0  0  0  0  0  0  0  0  0  0  0  0
   20.0316  -21.5407  -13.5977 C   0  0  0  0  0  0  0  0  0  0  0  0
   21.5225  -21.6557  -13.6460 C   0  0  2  0  0  0  0  0  0  0  0  0
   21.8666  -23.1139  -13.8320 C   0  0  0  0  0  0  0  0  0  0  0  0
   22.3055  -20.8886  -12.6836 C   0  0  2  0  0  0  0  0  0  0  0  0
   23.7513  -21.1031  -12.7936 N   0  0  0  0  0  0  0  0  0  0  0  0
   21.8780  -20.8452  -11.2757 C   0  0  0  0  0  0  0  0  0  0  0  0
   20.8974  -20.2468  -10.8084 O   0  0  0  0  0  0  0  0  0  0  0  0
   22.6361  -21.5451  -10.3050 O   0  0  0  0  0  0  0  0  0  0  0  0
  2  1  1  6
  2  6  1  0
  3  2  1  0
  4  3  1  0
  5  4  2  0
  6  9  1  0
  6  7  2  0
  8  4  1  0
  9 10  1  0
 10 18  1  0
 10 11  1  1
 11 12  1  0
 12 17  2  0
 13 12  1  0
 13 14  2  0
 14 15  1  0
 15 16  2  0
 17 16  1  0
 18 19  2  0
 21 20  1  0
 22 21  1  0
 22 23  1  1
 24 22  1  0
 24 25  1  1
 25 18  1  0
 26 28  1  0
 26 24  1  0
 27 26  2  0
M  END
$$$$
