DFI.pdb
     RDKit          3D

 28 28  0  0  1  0  0  0  0  0999 V2000
   29.2933  -22.1760  -18.4997 N   0  0  0  0  0  0  0  0  0  0  0  0
   27.8890  -21.8662  -18.3147 C   0  0  1  0  0  0  0  0  0  0  0  0
   27.0336  -23.0830  -18.4517 C   0  0  0  0  0  0  0  0  0  0  0  0
   26.1012  -22.9606  -19.6022 C   0  0  0  0  0  0  0  0  0  0  0  0
   26.2697  -22.0183  -20.4209 O   0  0  0  0  0  0  0  0  0  0  0  0
   27.7122  -21.1404  -17.0422 C   0  0  0  0  0  0  0  0  0  0  0  0
   28.7155  -21.1429  -16.2596 O   0  0  0  0  0  0  0  0  0  0  0  0
   25.0464  -23.8273  -19.8340 O   0  0  0  0  0  0  0  0  0  0  0  0
   26.5576  -20.4629  -16.6307 N   0  0  0  0  0  0  0  0  0  0  0  0
   26.4656  -19.7149  -15.3907 C   0  0  1  0  0  0  0  0  0  0  0  0
   26.2315  -18.2739  -15.5733 C   0  0  0  0  0  0  0  0  0  0  0  0
   27.1435  -17.4981  -16.3895 C   0  0  0  0  0  0  0  0  0  0  0  0
   28.4922  -17.3977  -16.1150 C   0  0  0  0  0  0  0  0  0  0  0  0
   29.3604  -16.6506  -16.8749 C   0  0  0  0  0  0  0  0  0  0  0  0
   28.8718  -15.9622  -17.9687 C   0  0  0  0  0  0  0  0  0  0  0  0
   27.5497  -16.0351  -18.2728 C   0  0  0  0  0  0  0  0  0  0  0  0
   26.6874  -16.8019  -17.4845 C   0  0  0  0  0  0  0  0  0  0  0  0
   25.5992  -20.4184  -14.4007 C   0  0  0  0  0  0  0  0  0  0  0  0
   24.6435  -21.1280  -14.8297 O   0  0  0  0  0  0  0  0  0  0  0  0
   26.3033  -20.8941   -8.3945 C   0  0  0  0  0  0  0  0  0  0  0  0
   26.0468  -20.3802   -9.7630 C   0  0  0  0  0  0  0  0  0  0  0  0
   25.6930  -21.3875  -10.8111 C   0  0  2  0  0  0  0  0  0  0  0  0
   26.9027  -22.2621  -11.0370 C   0  0  0  0  0  0  0  0  0  0  0  0
   24.9526  -20.9334  -11.9830 C   0  0  2  0  0  0  0  0  0  0  0  0
   25.7976  -20.3335  -13.0196 N   0  0  0  0  0  0  0  0  0  0  0  0
   23.7087  -20.1679  -11.7995 C   0  0  0  0  0  0  0  0  0  0  0  0
   23.4732  -19.0154  -12.1921 O   0  0  0  0  0  0  0  0  0  0  0  0
   22.6301  -20.7656  -11.1023 O   0  0  0  0  0  0  0  0  0  0  0  0
  2  1  1  1
  2  6  1  0
  3  2  1  0
  4  3  1  0
  5  4  2  0
  6  9  1  0
  6  7  2  0
  8  4  1  0
  9 10  1  0
 10 18  1  0
 10 11  1  6
 11 12  1  0
 12 17  2  0
 13 12  1  0
 13 14  2  0
 14 15  1  0
 15 16  2  0
 17 16  1  0
 18 19  2  0
 21 20  1  0
 22 21  1  0
 22 23  1  6
 24 22  1  0
 24 25  1  6
 25 18  1  0
 26 28  1  0
 26 24  1  0
 27 26  2  0
M  END
$$$$
