DFI.pdb
     RDKit          3D

 28 28  0  0  1  0  0  0  0  0999 V2000
   27.1391  -20.6429  -18.7206 N   0  0  0  0  0  0  0  0  0  0  0  0
   26.8225  -19.5915  -17.7738 C   0  0  1  0  0  0  0  0  0  0  0  0
   25.5513  -18.8930  -18.1307 C   0  0  0  0  0  0  0  0  0  0  0  0
   25.7687  -17.8944  -19.2093 C   0  0  0  0  0  0  0  0  0  0  0  0
   26.9446  -17.6750  -19.6039 O   0  0  0  0  0  0  0  0  0  0  0  0
   26.8484  -20.1424  -16.4051 C   0  0  0  0  0  0  0  0  0  0  0  0
   26.2403  -21.2482  -16.2420 O   0  0  0  0  0  0  0  0  0  0  0  0
   24.7481  -17.1812  -19.8154 O   0  0  0  0  0  0  0  0  0  0  0  0
   27.4725  -19.5636  -15.2930 N   0  0  0  0  0  0  0  0  0  0  0  0
   27.3438  -20.0789  -13.9426 C   0  0  1  0  0  0  0  0  0  0  0  0
   28.4781  -19.7536  -13.0639 C   0  0  0  0  0  0  0  0  0  0  0  0
   28.4268  -20.1205  -11.6629 C   0  0  0  0  0  0  0  0  0  0  0  0
   29.1757  -21.1506  -11.1316 C   0  0  0  0  0  0  0  0  0  0  0  0
   29.1201  -21.5151   -9.8074 C   0  0  0  0  0  0  0  0  0  0  0  0
   28.2777  -20.8249   -8.9571 C   0  0  0  0  0  0  0  0  0  0  0  0
   27.5234  -19.8039   -9.4412 C   0  0  0  0  0  0  0  0  0  0  0  0
   27.5982  -19.4525  -10.7918 C   0  0  0  0  0  0  0  0  0  0  0  0
   25.9770  -19.8293  -13.3992 C   0  0  0  0  0  0  0  0  0  0  0  0
   25.4763  -18.6745  -13.5284 O   0  0  0  0  0  0  0  0  0  0  0  0
   20.2642  -21.0534  -13.2415 C   0  0  0  0  0  0  0  0  0  0  0  0
   21.4133  -20.7694  -12.3461 C   0  0  0  0  0  0  0  0  0  0  0  0
   22.7824  -20.9812  -12.9108 C   0  0  2  0  0  0  0  0  0  0  0  0
   22.7972  -22.3292  -13.5905 C   0  0  0  0  0  0  0  0  0  0  0  0
   23.9318  -20.6207  -12.0881 C   0  0  2  0  0  0  0  0  0  0  0  0
   25.2213  -20.8145  -12.7574 N   0  0  0  0  0  0  0  0  0  0  0  0
   23.9854  -21.0676  -10.6866 C   0  0  0  0  0  0  0  0  0  0  0  0
   24.8656  -21.7602  -10.1541 O   0  0  0  0  0  0  0  0  0  0  0  0
   22.9401  -20.6957   -9.8058 O   0  0  0  0  0  0  0  0  0  0  0  0
  2  1  1  6
  2  6  1  0
  3  2  1  0
  4  3  1  0
  5  4  2  0
  6  9  1  0
  6  7  2  0
  8  4  1  0
  9 10  1  0
 10 18  1  0
 10 11  1  1
 11 12  1  0
 12 17  2  0
 13 12  1  0
 13 14  2  0
 14 15  1  0
 15 16  2  0
 17 16  1  0
 18 19  2  0
 21 20  1  0
 22 21  1  0
 22 23  1  1
 24 22  1  0
 24 25  1  6
 25 18  1  0
 26 28  1  0
 26 24  1  0
 27 26  2  0
M  END
$$$$
