DFI.pdb
     RDKit          3D

 28 28  0  0  1  0  0  0  0  0999 V2000
   20.3933  -10.4829  -18.2208 N   0  0  0  0  0  0  0  0  0  0  0  0
   20.0417   -9.1305  -18.6076 C   0  0  1  0  0  0  0  0  0  0  0  0
   18.9353   -9.1143  -19.6110 C   0  0  0  0  0  0  0  0  0  0  0  0
   19.3936   -9.6277  -20.9280 C   0  0  0  0  0  0  0  0  0  0  0  0
   20.4449   -9.1506  -21.4317 O   0  0  0  0  0  0  0  0  0  0  0  0
   19.7747   -8.3299  -17.3971 C   0  0  0  0  0  0  0  0  0  0  0  0
   19.0417   -8.8845  -16.5173 O   0  0  0  0  0  0  0  0  0  0  0  0
   18.7301  -10.6092  -21.6450 O   0  0  0  0  0  0  0  0  0  0  0  0
   20.2496   -7.0378  -17.1396 N   0  0  0  0  0  0  0  0  0  0  0  0
   20.0008   -6.3240  -15.9010 C   0  0  1  0  0  0  0  0  0  0  0  0
   21.1647   -6.2518  -15.0039 C   0  0  0  0  0  0  0  0  0  0  0  0
   21.7795   -7.4751  -14.5288 C   0  0  0  0  0  0  0  0  0  0  0  0
   21.3487   -8.1384  -13.3980 C   0  0  0  0  0  0  0  0  0  0  0  0
   21.9372   -9.2899  -12.9320 C   0  0  0  0  0  0  0  0  0  0  0  0
   23.0125   -9.8187  -13.6197 C   0  0  0  0  0  0  0  0  0  0  0  0
   23.4672   -9.1955  -14.7381 C   0  0  0  0  0  0  0  0  0  0  0  0
   22.8514   -8.0258  -15.1916 C   0  0  0  0  0  0  0  0  0  0  0  0
   19.2632   -5.0517  -16.1517 C   0  0  0  0  0  0  0  0  0  0  0  0
   19.7866   -4.1896  -16.9158 O   0  0  0  0  0  0  0  0  0  0  0  0
   15.0190   -4.2828  -18.7734 C   0  0  0  0  0  0  0  0  0  0  0  0
   16.2519   -4.1103  -17.9652 C   0  0  0  0  0  0  0  0  0  0  0  0
   16.0798   -3.6303  -16.5587 C   0  0  2  0  0  0  0  0  0  0  0  0
   15.1203   -2.4650  -16.5833 C   0  0  0  0  0  0  0  0  0  0  0  0
   17.2664   -3.5178  -15.7178 C   0  0  2  0  0  0  0  0  0  0  0  0
   18.0171   -4.7696  -15.5848 N   0  0  0  0  0  0  0  0  0  0  0  0
   17.1744   -2.8113  -14.4296 C   0  0  0  0  0  0  0  0  0  0  0  0
   16.9698   -3.3117  -13.3135 O   0  0  0  0  0  0  0  0  0  0  0  0
   17.3264   -1.4031  -14.4053 O   0  0  0  0  0  0  0  0  0  0  0  0
  2  1  1  1
  2  6  1  0
  3  2  1  0
  4  3  1  0
  5  4  2  0
  6  9  1  0
  6  7  2  0
  8  4  1  0
  9 10  1  0
 10 18  1  0
 10 11  1  6
 11 12  1  0
 12 17  2  0
 13 12  1  0
 13 14  2  0
 14 15  1  0
 15 16  2  0
 17 16  1  0
 18 19  2  0
 21 20  1  0
 22 21  1  0
 22 23  1  6
 24 22  1  0
 24 25  1  1
 25 18  1  0
 26 28  1  0
 26 24  1  0
 27 26  2  0
M  END
$$$$
