DFI.pdb
     RDKit          3D

 28 28  0  0  1  0  0  0  0  0999 V2000
   23.1934  -15.8929  -20.1775 N   0  0  0  0  0  0  0  0  0  0  0  0
   22.7808  -14.5319  -20.4596 C   0  0  1  0  0  0  0  0  0  0  0  0
   21.3730  -14.4745  -20.9553 C   0  0  0  0  0  0  0  0  0  0  0  0
   21.2102  -15.2542  -22.2097 C   0  0  0  0  0  0  0  0  0  0  0  0
   20.0506  -15.5927  -22.5665 O   0  0  0  0  0  0  0  0  0  0  0  0
   23.0432  -13.6870  -19.2786 C   0  0  0  0  0  0  0  0  0  0  0  0
   22.8672  -14.2451  -18.1487 O   0  0  0  0  0  0  0  0  0  0  0  0
   22.2654  -15.6367  -23.0209 O   0  0  0  0  0  0  0  0  0  0  0  0
   23.4608  -12.3503  -19.2951 N   0  0  0  0  0  0  0  0  0  0  0  0
   23.7836  -11.5961  -18.0982 C   0  0  1  0  0  0  0  0  0  0  0  0
   25.2256  -11.4022  -17.8800 C   0  0  0  0  0  0  0  0  0  0  0  0
   25.6777  -10.5367  -16.8092 C   0  0  0  0  0  0  0  0  0  0  0  0
   25.4766   -9.1714  -16.8156 C   0  0  0  0  0  0  0  0  0  0  0  0
   25.9169   -8.3421  -15.8118 C   0  0  0  0  0  0  0  0  0  0  0  0
   26.5948   -8.8892  -14.7394 C   0  0  0  0  0  0  0  0  0  0  0  0
   26.8133  -10.2294  -14.6954 C   0  0  0  0  0  0  0  0  0  0  0  0
   26.3553  -11.0514  -15.7287 C   0  0  0  0  0  0  0  0  0  0  0  0
   22.9145  -10.3902  -17.9710 C   0  0  0  0  0  0  0  0  0  0  0  0
   22.7644   -9.6435  -18.9814 O   0  0  0  0  0  0  0  0  0  0  0  0
   17.6017   -8.3969  -16.0673 C   0  0  0  0  0  0  0  0  0  0  0  0
   19.0531   -8.0879  -16.0427 C   0  0  0  0  0  0  0  0  0  0  0  0
   19.9884   -9.1899  -16.4289 C   0  0  2  0  0  0  0  0  0  0  0  0
   19.6185  -10.4120  -15.6233 C   0  0  0  0  0  0  0  0  0  0  0  0
   21.4049   -8.8736  -16.5748 C   0  0  2  0  0  0  0  0  0  0  0  0
   22.2538  -10.0494  -16.7873 N   0  0  0  0  0  0  0  0  0  0  0  0
   22.0327   -7.9236  -15.6419 C   0  0  0  0  0  0  0  0  0  0  0  0
   22.9744   -8.1465  -14.8663 O   0  0  0  0  0  0  0  0  0  0  0  0
   21.5444   -6.5952  -15.5811 O   0  0  0  0  0  0  0  0  0  0  0  0
  2  1  1  1
  2  6  1  0
  3  2  1  0
  4  3  1  0
  5  4  2  0
  6  9  1  0
  6  7  2  0
  8  4  1  0
  9 10  1  0
 10 18  1  0
 10 11  1  6
 11 12  1  0
 12 17  2  0
 13 12  1  0
 13 14  2  0
 14 15  1  0
 15 16  2  0
 17 16  1  0
 18 19  2  0
 21 20  1  0
 22 21  1  0
 22 23  1  1
 24 22  1  0
 24 25  1  1
 25 18  1  0
 26 28  1  0
 26 24  1  0
 27 26  2  0
M  END
$$$$
