AER.pdb
     RDKit          3D

 26 25  0  0  1  0  0  0  0  0999 V2000
    8.2015  -12.2512   19.1101 C   0  0  0  0  0  0  0  0  0  0  0  0
    7.8191  -13.6200   18.5940 C   0  0  2  0  0  0  0  0  0  0  0  0
    6.3850  -13.7162   18.4646 N   0  0  0  0  0  0  0  0  0  0  0  0
    8.2964  -14.7195   19.4336 C   0  0  0  0  0  0  0  0  0  0  0  0
    7.5570  -15.1923   20.3344 O   0  0  0  0  0  0  0  0  0  0  0  0
    9.5704  -15.2748   19.2672 N   0  0  0  0  0  0  0  0  0  0  0  0
   10.1211  -16.3635   19.9937 C   0  0  1  0  0  0  0  0  0  0  0  0
   11.2540  -17.0783   19.3342 C   0  0  0  0  0  0  0  0  0  0  0  0
   10.7768  -17.9564   18.1776 C   0  0  0  0  0  0  0  0  0  0  0  0
   11.9571  -18.5277   17.4787 C   0  0  0  0  0  0  0  0  0  0  0  0
   12.4492  -17.9234   16.4754 O   0  0  0  0  0  0  0  0  0  0  0  0
   10.5994  -15.9603   21.3586 C   0  0  0  0  0  0  0  0  0  0  0  0
   11.2743  -14.9095   21.5148 O   0  0  0  0  0  0  0  0  0  0  0  0
   12.5522  -19.6917   17.8665 O   0  0  0  0  0  0  0  0  0  0  0  0
    5.4143  -13.0396   25.9321 N   0  0  0  0  0  0  0  0  0  0  0  0
    6.6653  -12.9864   26.6270 C   0  0  0  0  0  0  0  0  0  0  0  0
    7.2125  -11.8256   26.8259 N   0  0  0  0  0  0  0  0  0  0  0  0
    7.2879  -14.1639   27.0841 N   0  0  0  0  0  0  0  0  0  0  0  0
    7.5643  -15.2665   26.1681 C   0  0  0  0  0  0  0  0  0  0  0  0
    8.2474  -14.7376   24.9084 C   0  0  0  0  0  0  0  0  0  0  0  0
    8.5478  -15.8149   23.9184 C   0  0  0  0  0  0  0  0  0  0  0  0
   10.0063  -16.0740   23.8242 C   0  0  2  0  0  0  0  0  0  0  0  0
   10.3273  -16.7173   22.5207 N   0  0  0  0  0  0  0  0  0  0  0  0
   10.4415  -17.0282   24.8385 C   0  0  0  0  0  0  0  0  0  0  0  0
   10.8937  -18.2815   24.4819 O   0  0  0  0  0  0  0  0  0  0  0  0
   10.4236  -16.7572   26.0506 O   0  0  0  0  0  0  0  0  0  0  0  0
  2  1  1  1
  3  2  1  0
  4  5  2  0
  4  2  1  0
  6  4  1  0
  7  6  1  0
  7  8  1  6
  9  8  1  0
 10 14  1  0
 10  9  1  0
 11 10  2  0
 12 13  2  0
 12  7  1  0
 16 15  1  0
 17 16  2  0
 18 16  1  0
 19 18  1  0
 20 19  1  0
 21 20  1  0
 22 21  1  6
 22 23  1  0
 23 12  1  0
 24 22  1  0
 25 24  1  0
 26 24  2  0
M  END
$$$$
