AER.pdb
     RDKit          3D

 26 25  0  0  1  0  0  0  0  0999 V2000
    8.5556  -14.1003   16.2774 C   0  0  0  0  0  0  0  0  0  0  0  0
    9.0698  -13.8434   17.6759 C   0  0  2  0  0  0  0  0  0  0  0  0
    9.4386  -12.4556   17.8194 N   0  0  0  0  0  0  0  0  0  0  0  0
   10.2118  -14.6804   18.0457 C   0  0  0  0  0  0  0  0  0  0  0  0
   10.1462  -15.9297   17.9168 O   0  0  0  0  0  0  0  0  0  0  0  0
   11.3972  -14.1305   18.5472 N   0  0  0  0  0  0  0  0  0  0  0  0
   12.5776  -14.8383   18.8965 C   0  0  1  0  0  0  0  0  0  0  0  0
   13.8646  -14.1834   18.5169 C   0  0  0  0  0  0  0  0  0  0  0  0
   14.2466  -14.4774   17.0663 C   0  0  0  0  0  0  0  0  0  0  0  0
   15.7234  -14.3955   16.9238 C   0  0  0  0  0  0  0  0  0  0  0  0
   16.3201  -13.2995   17.1628 O   0  0  0  0  0  0  0  0  0  0  0  0
   12.6581  -15.1313   20.3669 C   0  0  0  0  0  0  0  0  0  0  0  0
   12.4050  -14.2338   21.2122 O   0  0  0  0  0  0  0  0  0  0  0  0
   16.4879  -15.4579   16.5417 O   0  0  0  0  0  0  0  0  0  0  0  0
   12.7363  -22.7006   25.3476 N   0  0  0  0  0  0  0  0  0  0  0  0
   12.6061  -21.5608   26.2047 C   0  0  0  0  0  0  0  0  0  0  0  0
   12.3182  -21.7582   27.4555 N   0  0  0  0  0  0  0  0  0  0  0  0
   12.7857  -20.2568   25.7041 N   0  0  0  0  0  0  0  0  0  0  0  0
   12.7186  -19.9916   24.2701 C   0  0  0  0  0  0  0  0  0  0  0  0
   12.8491  -18.4918   24.0117 C   0  0  0  0  0  0  0  0  0  0  0  0
   12.7919  -18.1486   22.5591 C   0  0  0  0  0  0  0  0  0  0  0  0
   13.0010  -16.6961   22.3361 C   0  0  2  0  0  0  0  0  0  0  0  0
   13.0138  -16.4004   20.8771 N   0  0  0  0  0  0  0  0  0  0  0  0
   14.3075  -16.2678   22.8242 C   0  0  0  0  0  0  0  0  0  0  0  0
   14.4993  -15.9631   24.1556 O   0  0  0  0  0  0  0  0  0  0  0  0
   15.2902  -16.1601   22.0721 O   0  0  0  0  0  0  0  0  0  0  0  0
  2  1  1  6
  3  2  1  0
  4  5  2  0
  4  2  1  0
  6  4  1  0
  7  6  1  0
  7  8  1  1
  9  8  1  0
 10 14  1  0
 10  9  1  0
 11 10  2  0
 12 13  2  0
 12  7  1  0
 16 15  1  0
 17 16  2  0
 18 16  1  0
 19 18  1  0
 20 19  1  0
 21 20  1  0
 22 21  1  6
 22 23  1  0
 23 12  1  0
 24 22  1  0
 25 24  1  0
 26 24  2  0
M  END
$$$$
