AER.pdb
     RDKit          3D

 26 25  0  0  1  0  0  0  0  0999 V2000
    8.5729  -14.0642   17.1348 C   0  0  0  0  0  0  0  0  0  0  0  0
    9.7931  -14.8426   16.6974 C   0  0  2  0  0  0  0  0  0  0  0  0
    9.4129  -15.8712   15.7594 N   0  0  0  0  0  0  0  0  0  0  0  0
   10.5276  -15.4558   17.8047 C   0  0  0  0  0  0  0  0  0  0  0  0
   10.1841  -16.5841   18.2415 O   0  0  0  0  0  0  0  0  0  0  0  0
   11.6194  -14.8199   18.4071 N   0  0  0  0  0  0  0  0  0  0  0  0
   12.4713  -15.3635   19.4046 C   0  0  1  0  0  0  0  0  0  0  0  0
   13.8607  -14.8178   19.4407 C   0  0  0  0  0  0  0  0  0  0  0  0
   14.6169  -15.0998   18.1425 C   0  0  0  0  0  0  0  0  0  0  0  0
   15.9883  -14.5369   18.2439 C   0  0  0  0  0  0  0  0  0  0  0  0
   16.9888  -15.3185   18.2908 O   0  0  0  0  0  0  0  0  0  0  0  0
   11.9088  -15.2077   20.7878 C   0  0  0  0  0  0  0  0  0  0  0  0
   11.6687  -14.0641   21.2552 O   0  0  0  0  0  0  0  0  0  0  0  0
   16.2341  -13.1965   18.2901 O   0  0  0  0  0  0  0  0  0  0  0  0
    6.7103  -13.3755   19.6750 N   0  0  0  0  0  0  0  0  0  0  0  0
    7.7996  -12.7473   20.3601 C   0  0  0  0  0  0  0  0  0  0  0  0
    8.1710  -11.5638   19.9756 N   0  0  0  0  0  0  0  0  0  0  0  0
    8.4530  -13.3965   21.4254 N   0  0  0  0  0  0  0  0  0  0  0  0
    8.0119  -14.7110   21.8821 C   0  0  0  0  0  0  0  0  0  0  0  0
    8.7954  -15.1189   23.1283 C   0  0  0  0  0  0  0  0  0  0  0  0
    9.5694  -16.3819   22.9365 C   0  0  0  0  0  0  0  0  0  0  0  0
   11.0322  -16.1342   22.9827 C   0  0  2  0  0  0  0  0  0  0  0  0
   11.6223  -16.3082   21.6271 N   0  0  0  0  0  0  0  0  0  0  0  0
   11.7095  -17.1157   23.8231 C   0  0  0  0  0  0  0  0  0  0  0  0
   11.6489  -17.0303   25.1984 O   0  0  0  0  0  0  0  0  0  0  0  0
   12.3615  -18.0578   23.3432 O   0  0  0  0  0  0  0  0  0  0  0  0
  2  1  1  1
  3  2  1  0
  4  5  2  0
  4  2  1  0
  6  4  1  0
  7  6  1  0
  7  8  1  1
  9  8  1  0
 10 14  1  0
 10  9  1  0
 11 10  2  0
 12 13  2  0
 12  7  1  0
 16 15  1  0
 17 16  2  0
 18 16  1  0
 19 18  1  0
 20 19  1  0
 21 20  1  0
 22 21  1  6
 22 23  1  0
 23 12  1  0
 24 22  1  0
 25 24  1  0
 26 24  2  0
M  END
$$$$
