AER.pdb
     RDKit          3D

 26 25  0  0  1  0  0  0  0  0999 V2000
    8.0676  -21.8346   18.7800 C   0  0  0  0  0  0  0  0  0  0  0  0
    7.9979  -20.8155   19.8948 C   0  0  2  0  0  0  0  0  0  0  0  0
    6.6254  -20.4408   20.1365 N   0  0  0  0  0  0  0  0  0  0  0  0
    8.7830  -19.6076   19.6374 C   0  0  0  0  0  0  0  0  0  0  0  0
   10.0143  -19.6950   19.3965 O   0  0  0  0  0  0  0  0  0  0  0  0
    8.2023  -18.3341   19.6499 N   0  0  0  0  0  0  0  0  0  0  0  0
    8.8801  -17.0931   19.5215 C   0  0  1  0  0  0  0  0  0  0  0  0
    8.1344  -16.0162   18.8046 C   0  0  0  0  0  0  0  0  0  0  0  0
    8.9901  -14.7648   18.6087 C   0  0  0  0  0  0  0  0  0  0  0  0
    8.2478  -13.7926   17.7650 C   0  0  0  0  0  0  0  0  0  0  0  0
    8.6408  -12.5863   17.6989 O   0  0  0  0  0  0  0  0  0  0  0  0
    9.2934  -16.5241   20.8479 C   0  0  0  0  0  0  0  0  0  0  0  0
    8.4295  -16.0977   21.6578 O   0  0  0  0  0  0  0  0  0  0  0  0
    7.1432  -14.1352   17.0427 O   0  0  0  0  0  0  0  0  0  0  0  0
   11.9277  -20.5989   28.7331 N   0  0  0  0  0  0  0  0  0  0  0  0
   11.7145  -20.5853   27.3171 C   0  0  0  0  0  0  0  0  0  0  0  0
   11.6628  -21.7208   26.6893 N   0  0  0  0  0  0  0  0  0  0  0  0
   11.5645  -19.3701   26.6213 N   0  0  0  0  0  0  0  0  0  0  0  0
   11.1537  -19.3575   25.2206 C   0  0  0  0  0  0  0  0  0  0  0  0
   11.2392  -17.9368   24.6661 C   0  0  0  0  0  0  0  0  0  0  0  0
   10.8499  -17.8540   23.2263 C   0  0  0  0  0  0  0  0  0  0  0  0
   11.0382  -16.4824   22.6913 C   0  0  2  0  0  0  0  0  0  0  0  0
   10.6435  -16.4354   21.2567 N   0  0  0  0  0  0  0  0  0  0  0  0
   12.4442  -16.0934   22.7136 C   0  0  0  0  0  0  0  0  0  0  0  0
   13.2460  -16.2782   21.6067 O   0  0  0  0  0  0  0  0  0  0  0  0
   12.9730  -15.5862   23.7166 O   0  0  0  0  0  0  0  0  0  0  0  0
  2  1  1  6
  3  2  1  0
  4  5  2  0
  4  2  1  0
  6  4  1  0
  7  6  1  0
  7  8  1  1
  9  8  1  0
 10 14  1  0
 10  9  1  0
 11 10  2  0
 12 13  2  0
 12  7  1  0
 16 15  1  0
 17 16  2  0
 18 16  1  0
 19 18  1  0
 20 19  1  0
 21 20  1  0
 22 21  1  6
 22 23  1  0
 23 12  1  0
 24 22  1  0
 25 24  1  0
 26 24  2  0
M  END
$$$$
