AER.pdb
     RDKit          3D

 26 25  0  0  1  0  0  0  0  0999 V2000
    8.0250  -12.1440   19.5254 C   0  0  0  0  0  0  0  0  0  0  0  0
    8.3112  -13.1514   18.4347 C   0  0  2  0  0  0  0  0  0  0  0  0
    7.0819  -13.7664   17.9954 N   0  0  0  0  0  0  0  0  0  0  0  0
    9.2518  -14.1991   18.8339 C   0  0  0  0  0  0  0  0  0  0  0  0
    8.8250  -15.3250   19.1970 O   0  0  0  0  0  0  0  0  0  0  0  0
   10.6357  -13.9895   18.8262 N   0  0  0  0  0  0  0  0  0  0  0  0
   11.6410  -14.9639   19.0631 C   0  0  1  0  0  0  0  0  0  0  0  0
   12.8937  -14.8127   18.2648 C   0  0  0  0  0  0  0  0  0  0  0  0
   13.9039  -15.9168   18.5763 C   0  0  0  0  0  0  0  0  0  0  0  0
   15.0979  -15.7456   17.7086 C   0  0  0  0  0  0  0  0  0  0  0  0
   14.9601  -15.7117   16.4461 O   0  0  0  0  0  0  0  0  0  0  0  0
   12.0519  -15.0265   20.5058 C   0  0  0  0  0  0  0  0  0  0  0  0
   12.6024  -14.0381   21.0572 O   0  0  0  0  0  0  0  0  0  0  0  0
   16.3607  -15.6203   18.2075 O   0  0  0  0  0  0  0  0  0  0  0  0
   14.3612  -20.1308   23.6552 N   0  0  0  0  0  0  0  0  0  0  0  0
   13.6881  -20.7554   24.7541 C   0  0  0  0  0  0  0  0  0  0  0  0
   14.2808  -21.7365   25.3643 N   0  0  0  0  0  0  0  0  0  0  0  0
   12.4141  -20.3168   25.1639 N   0  0  0  0  0  0  0  0  0  0  0  0
   11.5846  -19.5031   24.2803 C   0  0  0  0  0  0  0  0  0  0  0  0
   12.0199  -18.0411   24.3583 C   0  0  0  0  0  0  0  0  0  0  0  0
   11.2307  -17.1540   23.4519 C   0  0  0  0  0  0  0  0  0  0  0  0
   12.0989  -16.1558   22.7788 C   0  0  2  0  0  0  0  0  0  0  0  0
   11.8502  -16.1704   21.3111 N   0  0  0  0  0  0  0  0  0  0  0  0
   13.5102  -16.4931   22.9306 C   0  0  0  0  0  0  0  0  0  0  0  0
   14.1614  -17.2518   21.9806 O   0  0  0  0  0  0  0  0  0  0  0  0
   14.1773  -16.1169   23.9086 O   0  0  0  0  0  0  0  0  0  0  0  0
  2  1  1  1
  3  2  1  0
  4  5  2  0
  4  2  1  0
  6  4  1  0
  7  6  1  0
  7  8  1  6
  9  8  1  0
 10 14  1  0
 10  9  1  0
 11 10  2  0
 12 13  2  0
 12  7  1  0
 16 15  1  0
 17 16  2  0
 18 16  1  0
 19 18  1  0
 20 19  1  0
 21 20  1  0
 22 21  1  1
 22 23  1  0
 23 12  1  0
 24 22  1  0
 25 24  1  0
 26 24  2  0
M  END
$$$$
