AER.pdb
     RDKit          3D

 26 25  0  0  1  0  0  0  0  0999 V2000
    9.8357  -15.6970   21.5121 C   0  0  0  0  0  0  0  0  0  0  0  0
   10.9819  -16.5689   21.0512 C   0  0  2  0  0  0  0  0  0  0  0  0
   10.5076  -17.5478   20.1030 N   0  0  0  0  0  0  0  0  0  0  0  0
   11.6722  -17.2579   22.1422 C   0  0  0  0  0  0  0  0  0  0  0  0
   11.2984  -18.4039   22.5011 O   0  0  0  0  0  0  0  0  0  0  0  0
   12.7542  -16.6768   22.8136 N   0  0  0  0  0  0  0  0  0  0  0  0
   13.5625  -17.2900   23.8070 C   0  0  1  0  0  0  0  0  0  0  0  0
   14.8824  -16.6405   24.0631 C   0  0  0  0  0  0  0  0  0  0  0  0
   15.7966  -16.7076   22.8398 C   0  0  0  0  0  0  0  0  0  0  0  0
   17.1138  -16.1107   23.1811 C   0  0  0  0  0  0  0  0  0  0  0  0
   17.1821  -14.8907   23.5290 O   0  0  0  0  0  0  0  0  0  0  0  0
   12.8654  -17.3914   25.1329 C   0  0  0  0  0  0  0  0  0  0  0  0
   12.2467  -16.4033   25.6071 O   0  0  0  0  0  0  0  0  0  0  0  0
   18.2780  -16.8194   23.1394 O   0  0  0  0  0  0  0  0  0  0  0  0
   10.3366  -25.2367   26.5028 N   0  0  0  0  0  0  0  0  0  0  0  0
   10.4376  -24.4321   25.3226 C   0  0  0  0  0  0  0  0  0  0  0  0
   10.4930  -25.0292   24.1708 N   0  0  0  0  0  0  0  0  0  0  0  0
   10.4760  -23.0269   25.4079 N   0  0  0  0  0  0  0  0  0  0  0  0
   11.0231  -22.3652   26.5886 C   0  0  0  0  0  0  0  0  0  0  0  0
   11.1772  -20.8690   26.3220 C   0  0  0  0  0  0  0  0  0  0  0  0
   11.8260  -20.1440   27.4553 C   0  0  0  0  0  0  0  0  0  0  0  0
   12.0301  -18.7090   27.1355 C   0  0  2  0  0  0  0  0  0  0  0  0
   12.8622  -18.5729   25.9086 N   0  0  0  0  0  0  0  0  0  0  0  0
   12.7851  -18.0342   28.1859 C   0  0  0  0  0  0  0  0  0  0  0  0
   12.2414  -17.8506   29.4401 O   0  0  0  0  0  0  0  0  0  0  0  0
   13.9343  -17.6016   27.9988 O   0  0  0  0  0  0  0  0  0  0  0  0
  2  1  1  1
  3  2  1  0
  4  5  2  0
  4  2  1  0
  6  4  1  0
  7  6  1  0
  7  8  1  1
  9  8  1  0
 10 14  1  0
 10  9  1  0
 11 10  2  0
 12 13  2  0
 12  7  1  0
 16 15  1  0
 17 16  2  0
 18 16  1  0
 19 18  1  0
 20 19  1  0
 21 20  1  0
 22 21  1  1
 22 23  1  0
 23 12  1  0
 24 22  1  0
 25 24  1  0
 26 24  2  0
M  END
$$$$
