AER.pdb
     RDKit          3D

 26 25  0  0  1  0  0  0  0  0999 V2000
    1.8107  -22.4843   17.6223 C   0  0  0  0  0  0  0  0  0  0  0  0
    2.1022  -21.5013   18.7335 C   0  0  2  0  0  0  0  0  0  0  0  0
    2.2646  -20.1746   18.1895 N   0  0  0  0  0  0  0  0  0  0  0  0
    3.2867  -21.8405   19.5232 C   0  0  0  0  0  0  0  0  0  0  0  0
    3.3439  -22.9378   20.1350 O   0  0  0  0  0  0  0  0  0  0  0  0
    4.3793  -20.9714   19.6241 N   0  0  0  0  0  0  0  0  0  0  0  0
    5.6026  -21.2240   20.2994 C   0  0  1  0  0  0  0  0  0  0  0  0
    6.7719  -20.4101   19.8522 C   0  0  0  0  0  0  0  0  0  0  0  0
    8.0802  -20.9084   20.4660 C   0  0  0  0  0  0  0  0  0  0  0  0
    9.2055  -20.0852   19.9523 C   0  0  0  0  0  0  0  0  0  0  0  0
    9.7197  -19.1889   20.6913 O   0  0  0  0  0  0  0  0  0  0  0  0
    5.4881  -21.0378   21.7847 C   0  0  0  0  0  0  0  0  0  0  0  0
    5.0263  -19.9683   22.2612 O   0  0  0  0  0  0  0  0  0  0  0  0
    9.7261  -20.2452   18.7022 O   0  0  0  0  0  0  0  0  0  0  0  0
    1.8940  -26.1056   27.5710 N   0  0  0  0  0  0  0  0  0  0  0  0
    1.1913  -25.3621   26.5690 C   0  0  0  0  0  0  0  0  0  0  0  0
   -0.0920  -25.5298   26.4618 N   0  0  0  0  0  0  0  0  0  0  0  0
    1.8745  -24.4702   25.7199 N   0  0  0  0  0  0  0  0  0  0  0  0
    3.3059  -24.2335   25.8819 C   0  0  0  0  0  0  0  0  0  0  0  0
    3.8294  -23.3939   24.7181 C   0  0  0  0  0  0  0  0  0  0  0  0
    5.3028  -23.1598   24.7913 C   0  0  0  0  0  0  0  0  0  0  0  0
    5.6768  -21.8606   24.1788 C   0  0  2  0  0  0  0  0  0  0  0  0
    5.8821  -22.0273   22.7138 N   0  0  0  0  0  0  0  0  0  0  0  0
    6.9560  -21.3817   24.6917 C   0  0  0  0  0  0  0  0  0  0  0  0
    7.0142  -20.6006   25.8270 O   0  0  0  0  0  0  0  0  0  0  0  0
    8.0332  -21.6527   24.1358 O   0  0  0  0  0  0  0  0  0  0  0  0
  2  1  1  6
  3  2  1  0
  4  5  2  0
  4  2  1  0
  6  4  1  0
  7  6  1  0
  7  8  1  6
  9  8  1  0
 10 14  1  0
 10  9  1  0
 11 10  2  0
 12 13  2  0
 12  7  1  0
 16 15  1  0
 17 16  2  0
 18 16  1  0
 19 18  1  0
 20 19  1  0
 21 20  1  0
 22 21  1  1
 22 23  1  0
 23 12  1  0
 24 22  1  0
 25 24  1  0
 26 24  2  0
M  END
$$$$
