AER.pdb
     RDKit          3D

 26 25  0  0  1  0  0  0  0  0999 V2000
    8.1811  -12.4144   20.2159 C   0  0  0  0  0  0  0  0  0  0  0  0
    8.3155  -13.7794   19.5794 C   0  0  2  0  0  0  0  0  0  0  0  0
    7.0826  -14.1420   18.9230 N   0  0  0  0  0  0  0  0  0  0  0  0
    8.6806  -14.8355   20.5243 C   0  0  0  0  0  0  0  0  0  0  0  0
    7.7937  -15.3953   21.2183 O   0  0  0  0  0  0  0  0  0  0  0  0
   10.0066  -15.2533   20.6869 N   0  0  0  0  0  0  0  0  0  0  0  0
   10.4619  -16.3334   21.4884 C   0  0  1  0  0  0  0  0  0  0  0  0
   11.8714  -16.7672   21.2547 C   0  0  0  0  0  0  0  0  0  0  0  0
   12.2327  -17.9991   22.0844 C   0  0  0  0  0  0  0  0  0  0  0  0
   13.6505  -18.3624   21.8276 C   0  0  0  0  0  0  0  0  0  0  0  0
   14.5667  -17.8916   22.5713 O   0  0  0  0  0  0  0  0  0  0  0  0
   10.3333  -16.0527   22.9577 C   0  0  0  0  0  0  0  0  0  0  0  0
   10.8477  -15.0190   23.4584 O   0  0  0  0  0  0  0  0  0  0  0  0
   14.0274  -19.1925   20.8136 O   0  0  0  0  0  0  0  0  0  0  0  0
    7.3873  -12.6125   27.7886 N   0  0  0  0  0  0  0  0  0  0  0  0
    6.6743  -12.1004   26.6572 C   0  0  0  0  0  0  0  0  0  0  0  0
    6.4473  -10.8232   26.5966 N   0  0  0  0  0  0  0  0  0  0  0  0
    6.2295  -12.9603   25.6346 N   0  0  0  0  0  0  0  0  0  0  0  0
    6.3938  -14.4062   25.7506 C   0  0  0  0  0  0  0  0  0  0  0  0
    7.8499  -14.7870   25.4895 C   0  0  0  0  0  0  0  0  0  0  0  0
    8.0924  -16.2564   25.6046 C   0  0  0  0  0  0  0  0  0  0  0  0
    9.5025  -16.5996   25.2933 C   0  0  2  0  0  0  0  0  0  0  0  0
    9.6441  -16.9108   23.8444 N   0  0  0  0  0  0  0  0  0  0  0  0
    9.9179  -17.8139   25.9872 C   0  0  0  0  0  0  0  0  0  0  0  0
   10.1369  -17.8098   27.3489 O   0  0  0  0  0  0  0  0  0  0  0  0
   10.0904  -18.8893   25.3899 O   0  0  0  0  0  0  0  0  0  0  0  0
  2  1  1  1
  3  2  1  0
  4  5  2  0
  4  2  1  0
  6  4  1  0
  7  6  1  0
  7  8  1  1
  9  8  1  0
 10 14  1  0
 10  9  1  0
 11 10  2  0
 12 13  2  0
 12  7  1  0
 16 15  1  0
 17 16  2  0
 18 16  1  0
 19 18  1  0
 20 19  1  0
 21 20  1  0
 22 21  1  6
 22 23  1  0
 23 12  1  0
 24 22  1  0
 25 24  1  0
 26 24  2  0
M  END
$$$$
