AER.pdb
     RDKit          3D

 26 25  0  0  1  0  0  0  0  0999 V2000
   13.5276  -13.8205   18.2070 C   0  0  0  0  0  0  0  0  0  0  0  0
   12.5077  -14.8789   18.5618 C   0  0  2  0  0  0  0  0  0  0  0  0
   11.7440  -15.2408   17.3920 N   0  0  0  0  0  0  0  0  0  0  0  0
   11.5872  -14.4755   19.6255 C   0  0  0  0  0  0  0  0  0  0  0  0
   12.0357  -14.0942   20.7369 O   0  0  0  0  0  0  0  0  0  0  0  0
   10.1990  -14.4990   19.4476 N   0  0  0  0  0  0  0  0  0  0  0  0
    9.2192  -14.0493   20.3716 C   0  0  1  0  0  0  0  0  0  0  0  0
    7.8387  -13.8851   19.8267 C   0  0  0  0  0  0  0  0  0  0  0  0
    7.7592  -12.7445   18.8122 C   0  0  0  0  0  0  0  0  0  0  0  0
    7.9444  -13.2938   17.4440 C   0  0  0  0  0  0  0  0  0  0  0  0
    7.9854  -14.5516   17.2698 O   0  0  0  0  0  0  0  0  0  0  0  0
    9.1072  -14.9447   21.5716 C   0  0  0  0  0  0  0  0  0  0  0  0
    9.1084  -16.1961   21.4378 O   0  0  0  0  0  0  0  0  0  0  0  0
    8.0755  -12.5013   16.3422 O   0  0  0  0  0  0  0  0  0  0  0  0
   10.4397  -13.8877   30.5083 N   0  0  0  0  0  0  0  0  0  0  0  0
   10.5079  -15.2614   30.1098 C   0  0  0  0  0  0  0  0  0  0  0  0
   11.0505  -16.1147   30.9245 N   0  0  0  0  0  0  0  0  0  0  0  0
    9.9990  -15.6779   28.8644 N   0  0  0  0  0  0  0  0  0  0  0  0
    9.8845  -14.7388   27.7527 C   0  0  0  0  0  0  0  0  0  0  0  0
    9.4249  -15.4745   26.4954 C   0  0  0  0  0  0  0  0  0  0  0  0
    9.3907  -14.5929   25.2900 C   0  0  0  0  0  0  0  0  0  0  0  0
    8.9977  -15.3498   24.0752 C   0  0  2  0  0  0  0  0  0  0  0  0
    8.9967  -14.4485   22.8904 N   0  0  0  0  0  0  0  0  0  0  0  0
    7.6294  -15.8453   24.1793 C   0  0  0  0  0  0  0  0  0  0  0  0
    7.3542  -17.0285   24.8325 O   0  0  0  0  0  0  0  0  0  0  0  0
    6.6662  -15.2318   23.6906 O   0  0  0  0  0  0  0  0  0  0  0  0
  2  1  1  6
  3  2  1  0
  4  5  2  0
  4  2  1  0
  6  4  1  0
  7  6  1  0
  7  8  1  6
  9  8  1  0
 10 14  1  0
 10  9  1  0
 11 10  2  0
 12 13  2  0
 12  7  1  0
 16 15  1  0
 17 16  2  0
 18 16  1  0
 19 18  1  0
 20 19  1  0
 21 20  1  0
 22 21  1  1
 22 23  1  0
 23 12  1  0
 24 22  1  0
 25 24  1  0
 26 24  2  0
M  END
$$$$
