NPI.pdb
     RDKit          3D

 24 24  0  0  1  0  0  0  0  0999 V2000
   16.0193  -20.2439    1.9006 N   0  0  0  0  0  0  0  0  0  0  0  0
   17.1813  -19.4455    2.0600 C   0  0  0  0  0  0  0  0  0  0  0  0
   18.1215  -19.6352    1.2418 O   0  0  0  0  0  0  0  0  0  0  0  0
   17.3454  -18.4223    3.1126 C   0  0  0  0  0  0  0  0  0  0  0  0
   16.0712  -18.3483    3.9740 C   0  0  2  0  0  0  0  0  0  0  0  0
   15.0462  -17.8861    3.1098 N   0  0  0  0  0  0  0  0  0  0  0  0
   16.3554  -17.6016    5.1799 C   0  0  0  0  0  0  0  0  0  0  0  0
   16.0033  -16.3633    5.1912 O   0  0  0  0  0  0  0  0  0  0  0  0
   16.9793  -18.0316    6.3823 N   0  0  0  0  0  0  0  0  0  0  0  0
   17.5315  -19.3306    6.6265 C   0  0  0  0  0  0  0  0  0  0  0  0
   17.1344  -19.5687    8.0814 C   0  0  0  0  0  0  0  0  0  0  0  0
   17.0521  -18.2028    8.6995 C   0  0  0  0  0  0  0  0  0  0  0  0
   17.2291  -17.2780    7.5823 C   0  0  1  0  0  0  0  0  0  0  0  0
   18.5140  -16.5443    7.5556 C   0  0  0  0  0  0  0  0  0  0  0  0
   19.4744  -17.1098    6.9768 O   0  0  0  0  0  0  0  0  0  0  0  0
   20.6476  -11.2822    5.8171 C   0  0  0  0  0  0  0  0  0  0  0  0
   20.8592  -12.4523    6.7135 C   0  0  0  0  0  0  0  0  0  0  0  0
   19.6210  -13.2598    7.0250 C   0  0  2  0  0  0  0  0  0  0  0  0
   18.6204  -12.2886    7.6539 C   0  0  0  0  0  0  0  0  0  0  0  0
   19.8777  -14.4444    7.8997 C   0  0  2  0  0  0  0  0  0  0  0  0
   18.7181  -15.2621    8.1388 N   0  0  0  0  0  0  0  0  0  0  0  0
   20.5430  -14.0487    9.1889 C   0  0  0  0  0  0  0  0  0  0  0  0
   21.8902  -14.1543    9.4345 O   0  0  0  0  0  0  0  0  0  0  0  0
   19.8385  -13.5778   10.1481 O   0  0  0  0  0  0  0  0  0  0  0  0
  1  2  1  0
  2  3  2  0
  4  2  1  0
  5  4  1  0
  5  6  1  6
  7  5  1  0
  7  8  2  0
  9  7  1  0
 10  9  1  0
 11 10  1  0
 12 11  1  0
 12 13  1  0
 13  9  1  0
 14 21  1  0
 13 14  1  6
 15 14  2  0
 17 16  1  0
 18 17  1  0
 18 19  1  1
 20 21  1  1
 20 18  1  0
 22 20  1  0
 23 22  1  0
 24 22  2  0
M  END
$$$$
