NPI.pdb
     RDKit          3D

 24 24  0  0  1  0  0  0  0  0999 V2000
   23.1286  -21.1559  -16.1078 N   0  0  0  0  0  0  0  0  0  0  0  0
   22.9152  -20.6896  -14.7849 C   0  0  0  0  0  0  0  0  0  0  0  0
   21.8863  -19.9890  -14.5850 O   0  0  0  0  0  0  0  0  0  0  0  0
   23.8162  -20.9762  -13.6500 C   0  0  0  0  0  0  0  0  0  0  0  0
   24.9856  -21.8607  -14.1204 C   0  0  2  0  0  0  0  0  0  0  0  0
   24.3975  -23.0637  -14.5872 N   0  0  0  0  0  0  0  0  0  0  0  0
   25.9795  -21.9318  -13.0718 C   0  0  0  0  0  0  0  0  0  0  0  0
   26.0271  -23.0241  -12.3917 O   0  0  0  0  0  0  0  0  0  0  0  0
   26.9332  -20.9602  -12.6641 N   0  0  0  0  0  0  0  0  0  0  0  0
   27.1407  -19.6785  -13.2690 C   0  0  0  0  0  0  0  0  0  0  0  0
   28.6604  -19.5466  -13.2043 C   0  0  0  0  0  0  0  0  0  0  0  0
   29.0786  -20.3514  -12.0077 C   0  0  0  0  0  0  0  0  0  0  0  0
   27.8566  -21.0171  -11.5621 C   0  0  1  0  0  0  0  0  0  0  0  0
   27.2831  -20.5197  -10.2918 C   0  0  0  0  0  0  0  0  0  0  0  0
   26.1067  -20.0827  -10.3371 O   0  0  0  0  0  0  0  0  0  0  0  0
   28.3304  -20.3030   -4.0751 C   0  0  0  0  0  0  0  0  0  0  0  0
   27.5597  -20.7389   -5.2723 C   0  0  0  0  0  0  0  0  0  0  0  0
   28.1165  -20.2824   -6.6005 C   0  0  2  0  0  0  0  0  0  0  0  0
   28.1322  -18.7534   -6.5583 C   0  0  0  0  0  0  0  0  0  0  0  0
   27.3623  -20.8026   -7.7815 C   0  0  2  0  0  0  0  0  0  0  0  0
   27.9764  -20.5073   -9.0489 N   0  0  0  0  0  0  0  0  0  0  0  0
   25.9231  -20.3677   -7.7566 C   0  0  0  0  0  0  0  0  0  0  0  0
   25.4328  -19.2602   -8.4042 O   0  0  0  0  0  0  0  0  0  0  0  0
   25.0653  -21.0503   -7.0960 O   0  0  0  0  0  0  0  0  0  0  0  0
  1  2  1  0
  2  3  2  0
  4  2  1  0
  5  4  1  0
  5  6  1  1
  7  5  1  0
  7  8  2  0
  9  7  1  0
 10  9  1  0
 11 10  1  0
 12 11  1  0
 12 13  1  0
 13  9  1  0
 14 21  1  0
 13 14  1  1
 15 14  2  0
 17 16  1  0
 18 17  1  0
 18 19  1  1
 20 21  1  6
 20 18  1  0
 22 20  1  0
 23 22  1  0
 24 22  2  0
M  END
$$$$
