NPI.pdb
     RDKit          3D

 24 24  0  0  1  0  0  0  0  0999 V2000
   28.4993  -21.7673  -16.4291 N   0  0  0  0  0  0  0  0  0  0  0  0
   27.3517  -21.0188  -16.0605 C   0  0  0  0  0  0  0  0  0  0  0  0
   27.5421  -19.8338  -15.6747 O   0  0  0  0  0  0  0  0  0  0  0  0
   25.9714  -21.5430  -16.1047 C   0  0  0  0  0  0  0  0  0  0  0  0
   25.6794  -22.3567  -14.8305 C   0  0  2  0  0  0  0  0  0  0  0  0
   24.2909  -22.6431  -14.8639 N   0  0  0  0  0  0  0  0  0  0  0  0
   26.2193  -21.6569  -13.6854 C   0  0  0  0  0  0  0  0  0  0  0  0
   27.4883  -21.4390  -13.6849 O   0  0  0  0  0  0  0  0  0  0  0  0
   25.5519  -21.1623  -12.5322 N   0  0  0  0  0  0  0  0  0  0  0  0
   26.0631  -20.1854  -11.6177 C   0  0  0  0  0  0  0  0  0  0  0  0
   25.5735  -20.7282  -10.2773 C   0  0  0  0  0  0  0  0  0  0  0  0
   24.3147  -21.4844  -10.5907 C   0  0  0  0  0  0  0  0  0  0  0  0
   24.2358  -21.4862  -12.0497 C   0  0  1  0  0  0  0  0  0  0  0  0
   23.1730  -20.6384  -12.6345 C   0  0  0  0  0  0  0  0  0  0  0  0
   23.4908  -19.4602  -12.9309 O   0  0  0  0  0  0  0  0  0  0  0  0
   20.6500  -20.7379  -17.7108 C   0  0  0  0  0  0  0  0  0  0  0  0
   20.3260  -20.3852  -16.3009 C   0  0  0  0  0  0  0  0  0  0  0  0
   21.2282  -21.0011  -15.2572 C   0  0  2  0  0  0  0  0  0  0  0  0
   21.0436  -22.5156  -15.3678 C   0  0  0  0  0  0  0  0  0  0  0  0
   20.9725  -20.5052  -13.8705 C   0  0  2  0  0  0  0  0  0  0  0  0
   21.8392  -21.0741  -12.8726 N   0  0  0  0  0  0  0  0  0  0  0  0
   19.5261  -20.6517  -13.4864 C   0  0  0  0  0  0  0  0  0  0  0  0
   19.0641  -21.4800  -12.4931 O   0  0  0  0  0  0  0  0  0  0  0  0
   18.6335  -19.9752  -14.1058 O   0  0  0  0  0  0  0  0  0  0  0  0
  1  2  1  0
  2  3  2  0
  4  2  1  0
  5  4  1  0
  5  6  1  1
  7  5  1  0
  7  8  2  0
  9  7  1  0
 10  9  1  0
 11 10  1  0
 12 11  1  0
 12 13  1  0
 13  9  1  0
 14 21  1  0
 13 14  1  1
 15 14  2  0
 17 16  1  0
 18 17  1  0
 18 19  1  1
 20 21  1  1
 20 18  1  0
 22 20  1  0
 23 22  1  0
 24 22  2  0
M  END
$$$$
