NPI.pdb
     RDKit          3D

 24 24  0  0  1  0  0  0  0  0999 V2000
   16.0173  -14.7749  -16.3564 N   0  0  0  0  0  0  0  0  0  0  0  0
   16.2678  -13.7381  -17.2921 C   0  0  0  0  0  0  0  0  0  0  0  0
   15.4477  -13.6151  -18.2417 O   0  0  0  0  0  0  0  0  0  0  0  0
   17.4155  -12.8116  -17.2144 C   0  0  0  0  0  0  0  0  0  0  0  0
   18.2661  -12.9236  -18.4931 C   0  0  2  0  0  0  0  0  0  0  0  0
   18.7127  -14.2685  -18.5443 N   0  0  0  0  0  0  0  0  0  0  0  0
   19.2487  -11.8620  -18.5049 C   0  0  0  0  0  0  0  0  0  0  0  0
   20.4318  -12.1630  -18.0956 O   0  0  0  0  0  0  0  0  0  0  0  0
   19.1080  -10.5057  -18.9054 N   0  0  0  0  0  0  0  0  0  0  0  0
   17.9096   -9.8922  -19.3944 C   0  0  0  0  0  0  0  0  0  0  0  0
   18.4532   -8.9762  -20.4883 C   0  0  0  0  0  0  0  0  0  0  0  0
   19.8485   -8.6271  -20.0571 C   0  0  0  0  0  0  0  0  0  0  0  0
   20.0917   -9.4561  -18.8788 C   0  0  1  0  0  0  0  0  0  0  0  0
   20.1428   -8.7346  -17.5877 C   0  0  0  0  0  0  0  0  0  0  0  0
   19.0593   -8.6175  -16.9639 O   0  0  0  0  0  0  0  0  0  0  0  0
   23.6206  -10.6967  -14.3677 C   0  0  0  0  0  0  0  0  0  0  0  0
   22.5651   -9.9630  -15.1193 C   0  0  0  0  0  0  0  0  0  0  0  0
   22.5396   -8.4678  -14.9039 C   0  0  2  0  0  0  0  0  0  0  0  0
   22.4275   -8.2520  -13.3938 C   0  0  0  0  0  0  0  0  0  0  0  0
   21.4505   -7.7692  -15.6523 C   0  0  2  0  0  0  0  0  0  0  0  0
   21.3258   -8.1763  -17.0268 N   0  0  0  0  0  0  0  0  0  0  0  0
   21.5654   -6.2747  -15.5329 C   0  0  0  0  0  0  0  0  0  0  0  0
   21.0266   -5.5313  -14.5115 O   0  0  0  0  0  0  0  0  0  0  0  0
   22.2006   -5.6137  -16.4260 O   0  0  0  0  0  0  0  0  0  0  0  0
  1  2  1  0
  2  3  2  0
  4  2  1  0
  5  4  1  0
  5  6  1  1
  7  5  1  0
  7  8  2  0
  9  7  1  0
 10  9  1  0
 11 10  1  0
 12 11  1  0
 12 13  1  0
 13  9  1  0
 14 21  1  0
 13 14  1  1
 15 14  2  0
 17 16  1  0
 18 17  1  0
 18 19  1  1
 20 21  1  6
 20 18  1  0
 22 20  1  0
 23 22  1  0
 24 22  2  0
M  END
$$$$
