NPI.pdb
     RDKit          3D

 24 24  0  0  1  0  0  0  0  0999 V2000
   22.5978  -19.2814  -15.4792 N   0  0  0  0  0  0  0  0  0  0  0  0
   22.0284  -19.2255  -14.1809 C   0  0  0  0  0  0  0  0  0  0  0  0
   21.1190  -18.3729  -13.9921 O   0  0  0  0  0  0  0  0  0  0  0  0
   22.4352  -20.0967  -13.0596 C   0  0  0  0  0  0  0  0  0  0  0  0
   23.4686  -21.1289  -13.5469 C   0  0  2  0  0  0  0  0  0  0  0  0
   22.7170  -22.2100  -14.0737 N   0  0  0  0  0  0  0  0  0  0  0  0
   24.4160  -21.3906  -12.4855 C   0  0  0  0  0  0  0  0  0  0  0  0
   24.0819  -22.2804  -11.6170 O   0  0  0  0  0  0  0  0  0  0  0  0
   25.6876  -20.8033  -12.2450 N   0  0  0  0  0  0  0  0  0  0  0  0
   26.2851  -19.7475  -13.0068 C   0  0  0  0  0  0  0  0  0  0  0  0
   27.7501  -20.1763  -13.0368 C   0  0  0  0  0  0  0  0  0  0  0  0
   27.9588  -20.9660  -11.7768 C   0  0  0  0  0  0  0  0  0  0  0  0
   26.6254  -21.0941  -11.1933 C   0  0  1  0  0  0  0  0  0  0  0  0
   26.3867  -20.3077   -9.9626 C   0  0  0  0  0  0  0  0  0  0  0  0
   25.8112  -19.2005  -10.1035 O   0  0  0  0  0  0  0  0  0  0  0  0
   28.6937  -20.4216   -4.7224 C   0  0  0  0  0  0  0  0  0  0  0  0
   28.1025  -21.1129   -5.9014 C   0  0  0  0  0  0  0  0  0  0  0  0
   26.6613  -20.7688   -6.1964 C   0  0  2  0  0  0  0  0  0  0  0  0
   25.8989  -22.0946   -6.2244 C   0  0  0  0  0  0  0  0  0  0  0  0
   26.4736  -19.9878   -7.4570 C   0  0  2  0  0  0  0  0  0  0  0  0
   26.7669  -20.7265   -8.6565 N   0  0  0  0  0  0  0  0  0  0  0  0
   27.2238  -18.6851   -7.4198 C   0  0  0  0  0  0  0  0  0  0  0  0
   26.9242  -17.6373   -6.5840 O   0  0  0  0  0  0  0  0  0  0  0  0
   28.2158  -18.5015   -8.2074 O   0  0  0  0  0  0  0  0  0  0  0  0
  1  2  1  0
  2  3  2  0
  4  2  1  0
  5  4  1  0
  5  6  1  1
  7  5  1  0
  7  8  2  0
  9  7  1  0
 10  9  1  0
 11 10  1  0
 12 11  1  0
 12 13  1  0
 13  9  1  0
 14 21  1  0
 13 14  1  1
 15 14  2  0
 17 16  1  0
 18 17  1  0
 18 19  1  6
 20 21  1  6
 20 18  1  0
 22 20  1  0
 23 22  1  0
 24 22  2  0
M  END
$$$$
