NPI.pdb
     RDKit          3D

 24 24  0  0  1  0  0  0  0  0999 V2000
   16.1608  -20.8789    2.4273 N   0  0  0  0  0  0  0  0  0  0  0  0
   17.3810  -20.3615    2.9337 C   0  0  0  0  0  0  0  0  0  0  0  0
   18.4318  -20.9998    2.6545 O   0  0  0  0  0  0  0  0  0  0  0  0
   17.4850  -19.1377    3.7543 C   0  0  0  0  0  0  0  0  0  0  0  0
   16.0803  -18.5675    4.0242 C   0  0  2  0  0  0  0  0  0  0  0  0
   15.4707  -18.4222    2.7521 N   0  0  0  0  0  0  0  0  0  0  0  0
   16.1949  -17.4062    4.8789 C   0  0  0  0  0  0  0  0  0  0  0  0
   16.1524  -16.2558    4.3022 O   0  0  0  0  0  0  0  0  0  0  0  0
   16.3529  -17.3351    6.2895 N   0  0  0  0  0  0  0  0  0  0  0  0
   16.5284  -18.4480    7.1742 C   0  0  0  0  0  0  0  0  0  0  0  0
   15.6997  -18.0184    8.3824 C   0  0  0  0  0  0  0  0  0  0  0  0
   15.7374  -16.5174    8.3768 C   0  0  0  0  0  0  0  0  0  0  0  0
   16.4102  -16.1673    7.1279 C   0  0  1  0  0  0  0  0  0  0  0  0
   17.7759  -15.6149    7.2693 C   0  0  0  0  0  0  0  0  0  0  0  0
   18.7247  -16.4356    7.2127 O   0  0  0  0  0  0  0  0  0  0  0  0
   19.1313  -11.3844    4.3887 C   0  0  0  0  0  0  0  0  0  0  0  0
   19.0671  -12.6152    5.2246 C   0  0  0  0  0  0  0  0  0  0  0  0
   19.5629  -12.4592    6.6432 C   0  0  2  0  0  0  0  0  0  0  0  0
   21.0266  -12.0263    6.5428 C   0  0  0  0  0  0  0  0  0  0  0  0
   19.3979  -13.6880    7.4782 C   0  0  2  0  0  0  0  0  0  0  0  0
   18.0673  -14.2354    7.4636 N   0  0  0  0  0  0  0  0  0  0  0  0
   19.8856  -13.4732    8.8843 C   0  0  0  0  0  0  0  0  0  0  0  0
   19.0728  -13.4099    9.9895 O   0  0  0  0  0  0  0  0  0  0  0  0
   21.1383  -13.3341    9.1071 O   0  0  0  0  0  0  0  0  0  0  0  0
  1  2  1  0
  2  3  2  0
  4  2  1  0
  5  4  1  0
  5  6  1  6
  7  5  1  0
  7  8  2  0
  9  7  1  0
 10  9  1  0
 11 10  1  0
 12 11  1  0
 12 13  1  0
 13  9  1  0
 14 21  1  0
 13 14  1  1
 15 14  2  0
 17 16  1  0
 18 17  1  0
 18 19  1  6
 20 21  1  1
 20 18  1  0
 22 20  1  0
 23 22  1  0
 24 22  2  0
M  END
$$$$
