NPI.pdb
     RDKit          3D

 24 24  0  0  1  0  0  0  0  0999 V2000
   14.7119  -22.3247   -0.2267 N   0  0  0  0  0  0  0  0  0  0  0  0
   14.0384  -21.8359    0.9225 C   0  0  0  0  0  0  0  0  0  0  0  0
   12.8035  -21.6092    0.8077 O   0  0  0  0  0  0  0  0  0  0  0  0
   14.6934  -21.5842    2.2222 C   0  0  0  0  0  0  0  0  0  0  0  0
   16.2079  -21.8351    2.1025 C   0  0  2  0  0  0  0  0  0  0  0  0
   16.3557  -23.2345    1.9275 N   0  0  0  0  0  0  0  0  0  0  0  0
   16.8846  -21.1958    3.2098 C   0  0  0  0  0  0  0  0  0  0  0  0
   17.1896  -21.9440    4.2123 O   0  0  0  0  0  0  0  0  0  0  0  0
   17.2729  -19.8379    3.3683 N   0  0  0  0  0  0  0  0  0  0  0  0
   16.9867  -18.7687    2.4590 C   0  0  0  0  0  0  0  0  0  0  0  0
   18.2833  -17.9639    2.5075 C   0  0  0  0  0  0  0  0  0  0  0  0
   18.8524  -18.2093    3.8752 C   0  0  0  0  0  0  0  0  0  0  0  0
   17.9868  -19.2308    4.4601 C   0  0  1  0  0  0  0  0  0  0  0  0
   17.1023  -18.7711    5.5539 C   0  0  0  0  0  0  0  0  0  0  0  0
   15.9454  -18.4069    5.2283 O   0  0  0  0  0  0  0  0  0  0  0  0
   17.6105  -20.7149   10.9242 C   0  0  0  0  0  0  0  0  0  0  0  0
   17.7227  -19.7232    9.8191 C   0  0  0  0  0  0  0  0  0  0  0  0
   16.4580  -19.4951    9.0248 C   0  0  2  0  0  0  0  0  0  0  0  0
   16.0945  -20.8421    8.3976 C   0  0  0  0  0  0  0  0  0  0  0  0
   16.5762  -18.4135    7.9999 C   0  0  2  0  0  0  0  0  0  0  0  0
   17.4824  -18.7179    6.9244 N   0  0  0  0  0  0  0  0  0  0  0  0
   16.8997  -17.0863    8.6284 C   0  0  0  0  0  0  0  0  0  0  0  0
   16.0124  -16.3327    9.3572 O   0  0  0  0  0  0  0  0  0  0  0  0
   18.0723  -16.5906    8.4963 O   0  0  0  0  0  0  0  0  0  0  0  0
  1  2  1  0
  2  3  2  0
  4  2  1  0
  5  4  1  0
  5  6  1  1
  7  5  1  0
  7  8  2  0
  9  7  1  0
 10  9  1  0
 11 10  1  0
 12 11  1  0
 12 13  1  0
 13  9  1  0
 14 21  1  0
 13 14  1  1
 15 14  2  0
 17 16  1  0
 18 17  1  0
 18 19  1  6
 20 21  1  6
 20 18  1  0
 22 20  1  0
 23 22  1  0
 24 22  2  0
M  END
$$$$
