NPI.pdb
     RDKit          3D

 24 24  0  0  1  0  0  0  0  0999 V2000
   27.9305  -21.6620  -20.2475 N   0  0  0  0  0  0  0  0  0  0  0  0
   26.8316  -22.0399  -19.4334 C   0  0  0  0  0  0  0  0  0  0  0  0
   25.8543  -22.5880  -20.0113 O   0  0  0  0  0  0  0  0  0  0  0  0
   26.7723  -21.8307  -17.9724 C   0  0  0  0  0  0  0  0  0  0  0  0
   28.0435  -21.1045  -17.4955 C   0  0  2  0  0  0  0  0  0  0  0  0
   29.1108  -22.0145  -17.7051 N   0  0  0  0  0  0  0  0  0  0  0  0
   27.8226  -20.5843  -16.1640 C   0  0  0  0  0  0  0  0  0  0  0  0
   28.3804  -21.2203  -15.1934 O   0  0  0  0  0  0  0  0  0  0  0  0
   27.0661  -19.4547  -15.7498 N   0  0  0  0  0  0  0  0  0  0  0  0
   26.2171  -18.6580  -16.5843 C   0  0  0  0  0  0  0  0  0  0  0  0
   26.4867  -17.2530  -16.0510 C   0  0  0  0  0  0  0  0  0  0  0  0
   26.8587  -17.4402  -14.6083 C   0  0  0  0  0  0  0  0  0  0  0  0
   26.9486  -18.8879  -14.4326 C   0  0  1  0  0  0  0  0  0  0  0  0
   25.8719  -19.5030  -13.6248 C   0  0  0  0  0  0  0  0  0  0  0  0
   24.8550  -19.8972  -14.2473 O   0  0  0  0  0  0  0  0  0  0  0  0
   25.1773  -20.0600   -7.8177 C   0  0  0  0  0  0  0  0  0  0  0  0
   25.6934  -19.7798   -9.1861 C   0  0  0  0  0  0  0  0  0  0  0  0
   25.7004  -20.9608  -10.1283 C   0  0  2  0  0  0  0  0  0  0  0  0
   27.1456  -21.4591  -10.1834 C   0  0  0  0  0  0  0  0  0  0  0  0
   25.1623  -20.6509  -11.4879 C   0  0  2  0  0  0  0  0  0  0  0  0
   25.9228  -19.6671  -12.2120 N   0  0  0  0  0  0  0  0  0  0  0  0
   23.7041  -20.2869  -11.4380 C   0  0  0  0  0  0  0  0  0  0  0  0
   22.6966  -21.1530  -11.0901 O   0  0  0  0  0  0  0  0  0  0  0  0
   23.3366  -19.0974  -11.7347 O   0  0  0  0  0  0  0  0  0  0  0  0
  1  2  1  0
  2  3  2  0
  4  2  1  0
  5  4  1  0
  5  6  1  1
  7  5  1  0
  7  8  2  0
  9  7  1  0
 10  9  1  0
 11 10  1  0
 12 11  1  0
 12 13  1  0
 13  9  1  0
 14 21  1  0
 13 14  1  6
 15 14  2  0
 17 16  1  0
 18 17  1  0
 18 19  1  6
 20 21  1  1
 20 18  1  0
 22 20  1  0
 23 22  1  0
 24 22  2  0
M  END
$$$$
