NPI.pdb
     RDKit          3D

 24 24  0  0  1  0  0  0  0  0999 V2000
   25.7126  -23.0587  -20.3826 N   0  0  0  0  0  0  0  0  0  0  0  0
   25.8919  -22.0527  -19.3982 C   0  0  0  0  0  0  0  0  0  0  0  0
   25.8536  -20.8555  -19.7913 O   0  0  0  0  0  0  0  0  0  0  0  0
   26.1159  -22.3273  -17.9643 C   0  0  0  0  0  0  0  0  0  0  0  0
   27.5695  -21.9873  -17.5869 C   0  0  2  0  0  0  0  0  0  0  0  0
   28.3115  -23.1781  -17.7927 N   0  0  0  0  0  0  0  0  0  0  0  0
   27.5892  -21.3713  -16.2782 C   0  0  0  0  0  0  0  0  0  0  0  0
   28.1451  -22.0422  -15.3303 O   0  0  0  0  0  0  0  0  0  0  0  0
   27.0766  -20.1117  -15.8652 N   0  0  0  0  0  0  0  0  0  0  0  0
   26.3211  -19.2035  -16.6753 C   0  0  0  0  0  0  0  0  0  0  0  0
   26.8731  -17.8529  -16.2257 C   0  0  0  0  0  0  0  0  0  0  0  0
   27.3132  -18.0566  -14.8046 C   0  0  0  0  0  0  0  0  0  0  0  0
   27.1597  -19.4906  -14.5700 C   0  0  1  0  0  0  0  0  0  0  0  0
   26.0550  -19.8766  -13.6640 C   0  0  0  0  0  0  0  0  0  0  0  0
   25.0115  -20.3197  -14.2040 O   0  0  0  0  0  0  0  0  0  0  0  0
   27.3815  -20.3995   -8.1785 C   0  0  0  0  0  0  0  0  0  0  0  0
   26.8966  -20.8064   -9.5263 C   0  0  0  0  0  0  0  0  0  0  0  0
   25.5308  -20.2843   -9.9063 C   0  0  2  0  0  0  0  0  0  0  0  0
   24.5277  -21.0055   -9.0044 C   0  0  0  0  0  0  0  0  0  0  0  0
   25.2029  -20.4513  -11.3551 C   0  0  2  0  0  0  0  0  0  0  0  0
   26.1077  -19.7738  -12.2455 N   0  0  0  0  0  0  0  0  0  0  0  0
   23.7734  -20.0866  -11.6463 C   0  0  0  0  0  0  0  0  0  0  0  0
   23.3658  -18.8762  -12.1513 O   0  0  0  0  0  0  0  0  0  0  0  0
   22.8431  -20.9360  -11.4200 O   0  0  0  0  0  0  0  0  0  0  0  0
  1  2  1  0
  2  3  2  0
  4  2  1  0
  5  4  1  0
  5  6  1  1
  7  5  1  0
  7  8  2  0
  9  7  1  0
 10  9  1  0
 11 10  1  0
 12 11  1  0
 12 13  1  0
 13  9  1  0
 14 21  1  0
 13 14  1  1
 15 14  2  0
 17 16  1  0
 18 17  1  0
 18 19  1  1
 20 21  1  6
 20 18  1  0
 22 20  1  0
 23 22  1  0
 24 22  2  0
M  END
$$$$
