NPI.pdb
     RDKit          3D

 24 24  0  0  1  0  0  0  0  0999 V2000
   14.2044  -11.1840  -17.6007 N   0  0  0  0  0  0  0  0  0  0  0  0
   15.0175  -11.0901  -16.4417 C   0  0  0  0  0  0  0  0  0  0  0  0
   14.4293  -11.1230  -15.3270 O   0  0  0  0  0  0  0  0  0  0  0  0
   16.4885  -10.9593  -16.4700 C   0  0  0  0  0  0  0  0  0  0  0  0
   16.9808  -10.8996  -17.9277 C   0  0  2  0  0  0  0  0  0  0  0  0
   17.1324  -12.2477  -18.3407 N   0  0  0  0  0  0  0  0  0  0  0  0
   18.1214  -10.0135  -18.0083 C   0  0  0  0  0  0  0  0  0  0  0  0
   19.2840  -10.5663  -18.0306 O   0  0  0  0  0  0  0  0  0  0  0  0
   18.1599   -8.5940  -18.0662 N   0  0  0  0  0  0  0  0  0  0  0  0
   17.0250   -7.7201  -18.0621 C   0  0  0  0  0  0  0  0  0  0  0  0
   17.4589   -6.6423  -19.0525 C   0  0  0  0  0  0  0  0  0  0  0  0
   18.9577   -6.6058  -18.9688 C   0  0  0  0  0  0  0  0  0  0  0  0
   19.3089   -7.7287  -18.1024 C   0  0  1  0  0  0  0  0  0  0  0  0
   19.8121   -7.3676  -16.7583 C   0  0  0  0  0  0  0  0  0  0  0  0
   18.9507   -7.1987  -15.8604 O   0  0  0  0  0  0  0  0  0  0  0  0
   23.4427  -10.5669  -14.9110 C   0  0  0  0  0  0  0  0  0  0  0  0
   22.4311   -9.5282  -15.2501 C   0  0  0  0  0  0  0  0  0  0  0  0
   22.7570   -8.1305  -14.7783 C   0  0  2  0  0  0  0  0  0  0  0  0
   23.0250   -8.2345  -13.2759 C   0  0  0  0  0  0  0  0  0  0  0  0
   21.6950   -7.1258  -15.0899 C   0  0  2  0  0  0  0  0  0  0  0  0
   21.1881   -7.2026  -16.4344 N   0  0  0  0  0  0  0  0  0  0  0  0
   22.1358   -5.7288  -14.7506 C   0  0  0  0  0  0  0  0  0  0  0  0
   22.0777   -5.1772  -13.4942 O   0  0  0  0  0  0  0  0  0  0  0  0
   22.6022   -4.9698  -15.6697 O   0  0  0  0  0  0  0  0  0  0  0  0
  1  2  1  0
  2  3  2  0
  4  2  1  0
  5  4  1  0
  5  6  1  1
  7  5  1  0
  7  8  2  0
  9  7  1  0
 10  9  1  0
 11 10  1  0
 12 11  1  0
 12 13  1  0
 13  9  1  0
 14 21  1  0
 13 14  1  1
 15 14  2  0
 17 16  1  0
 18 17  1  0
 18 19  1  1
 20 21  1  6
 20 18  1  0
 22 20  1  0
 23 22  1  0
 24 22  2  0
M  END
$$$$
