NPI.pdb
     RDKit          3D

 24 24  0  0  1  0  0  0  0  0999 V2000
   21.6146  -14.3276  -19.1570 N   0  0  0  0  0  0  0  0  0  0  0  0
   21.0812  -13.0143  -19.2210 C   0  0  0  0  0  0  0  0  0  0  0  0
   20.5694  -12.6584  -20.3168 O   0  0  0  0  0  0  0  0  0  0  0  0
   21.0922  -12.0598  -18.0939 C   0  0  0  0  0  0  0  0  0  0  0  0
   21.7739  -12.7012  -16.8713 C   0  0  2  0  0  0  0  0  0  0  0  0
   20.8257  -13.6061  -16.3299 N   0  0  0  0  0  0  0  0  0  0  0  0
   22.3057  -11.6580  -16.0218 C   0  0  0  0  0  0  0  0  0  0  0  0
   21.5210  -11.1954  -15.1120 O   0  0  0  0  0  0  0  0  0  0  0  0
   23.5893  -11.0482  -16.0366 N   0  0  0  0  0  0  0  0  0  0  0  0
   24.6635  -11.3685  -16.9285 C   0  0  0  0  0  0  0  0  0  0  0  0
   25.8751  -11.2665  -16.0052 C   0  0  0  0  0  0  0  0  0  0  0  0
   25.4920  -10.2630  -14.9560 C   0  0  0  0  0  0  0  0  0  0  0  0
   24.0825   -9.9763  -15.2132 C   0  0  1  0  0  0  0  0  0  0  0  0
   23.7923   -8.6339  -15.7645 C   0  0  0  0  0  0  0  0  0  0  0  0
   23.9415   -8.4886  -17.0029 O   0  0  0  0  0  0  0  0  0  0  0  0
   19.0103   -6.2182  -17.0550 C   0  0  0  0  0  0  0  0  0  0  0  0
   20.3346   -5.7968  -16.5203 C   0  0  0  0  0  0  0  0  0  0  0  0
   21.1782   -6.9057  -15.9362 C   0  0  2  0  0  0  0  0  0  0  0  0
   20.3634   -7.5090  -14.7907 C   0  0  0  0  0  0  0  0  0  0  0  0
   22.5324   -6.4606  -15.4869 C   0  0  2  0  0  0  0  0  0  0  0  0
   23.3649   -7.5220  -14.9858 N   0  0  0  0  0  0  0  0  0  0  0  0
   22.4461   -5.3239  -14.5063 C   0  0  0  0  0  0  0  0  0  0  0  0
   22.3661   -3.9981  -14.8557 O   0  0  0  0  0  0  0  0  0  0  0  0
   22.4456   -5.5684  -13.2499 O   0  0  0  0  0  0  0  0  0  0  0  0
  1  2  1  0
  2  3  2  0
  4  2  1  0
  5  4  1  0
  5  6  1  1
  7  5  1  0
  7  8  2  0
  9  7  1  0
 10  9  1  0
 11 10  1  0
 12 11  1  0
 12 13  1  0
 13  9  1  0
 14 21  1  0
 13 14  1  6
 15 14  2  0
 17 16  1  0
 18 17  1  0
 18 19  1  1
 20 21  1  1
 20 18  1  0
 22 20  1  0
 23 22  1  0
 24 22  2  0
M  END
$$$$
