NPI.pdb
     RDKit          3D

 24 24  0  0  1  0  0  0  0  0999 V2000
   28.7905  -18.3857  -15.0606 N   0  0  0  0  0  0  0  0  0  0  0  0
   27.7414  -18.6221  -15.9862 C   0  0  0  0  0  0  0  0  0  0  0  0
   27.2214  -17.6109  -16.5308 O   0  0  0  0  0  0  0  0  0  0  0  0
   27.2358  -19.9640  -16.3403 C   0  0  0  0  0  0  0  0  0  0  0  0
   27.6853  -20.9888  -15.2827 C   0  0  2  0  0  0  0  0  0  0  0  0
   28.4853  -21.9335  -15.9746 N   0  0  0  0  0  0  0  0  0  0  0  0
   26.5277  -21.4574  -14.5527 C   0  0  0  0  0  0  0  0  0  0  0  0
   25.7824  -22.3253  -15.1435 O   0  0  0  0  0  0  0  0  0  0  0  0
   26.0728  -21.0993  -13.2548 N   0  0  0  0  0  0  0  0  0  0  0  0
   26.6171  -20.0642  -12.4277 C   0  0  0  0  0  0  0  0  0  0  0  0
   26.5421  -20.7015  -11.0423 C   0  0  0  0  0  0  0  0  0  0  0  0
   25.3830  -21.6539  -11.1052 C   0  0  0  0  0  0  0  0  0  0  0  0
   24.9722  -21.6472  -12.5074 C   0  0  1  0  0  0  0  0  0  0  0  0
   23.6817  -20.9816  -12.7934 C   0  0  0  0  0  0  0  0  0  0  0  0
   23.7004  -19.7290  -12.8808 O   0  0  0  0  0  0  0  0  0  0  0  0
   21.4156  -22.3443  -17.1229 C   0  0  0  0  0  0  0  0  0  0  0  0
   21.8343  -21.6976  -15.8486 C   0  0  0  0  0  0  0  0  0  0  0  0
   20.7730  -21.6381  -14.7751 C   0  0  2  0  0  0  0  0  0  0  0  0
   19.6066  -20.8443  -15.3660 C   0  0  0  0  0  0  0  0  0  0  0  0
   21.2519  -21.0540  -13.4852 C   0  0  2  0  0  0  0  0  0  0  0  0
   22.4469  -21.6672  -12.9689 N   0  0  0  0  0  0  0  0  0  0  0  0
   20.1614  -21.0246  -12.4504 C   0  0  0  0  0  0  0  0  0  0  0  0
   19.3135  -19.9644  -12.2423 O   0  0  0  0  0  0  0  0  0  0  0  0
   19.9802  -22.0385  -11.6905 O   0  0  0  0  0  0  0  0  0  0  0  0
  1  2  1  0
  2  3  2  0
  4  2  1  0
  5  4  1  0
  5  6  1  6
  7  5  1  0
  7  8  2  0
  9  7  1  0
 10  9  1  0
 11 10  1  0
 12 11  1  0
 12 13  1  0
 13  9  1  0
 14 21  1  0
 13 14  1  1
 15 14  2  0
 17 16  1  0
 18 17  1  0
 18 19  1  6
 20 21  1  1
 20 18  1  0
 22 20  1  0
 23 22  1  0
 24 22  2  0
M  END
$$$$
