NPI.pdb
     RDKit          3D

 24 24  0  0  1  0  0  0  0  0999 V2000
   28.1025  -22.5530  -20.5139 N   0  0  0  0  0  0  0  0  0  0  0  0
   26.8765  -22.6403  -19.8050 C   0  0  0  0  0  0  0  0  0  0  0  0
   25.8346  -22.8361  -20.4874 O   0  0  0  0  0  0  0  0  0  0  0  0
   26.7573  -22.5176  -18.3378 C   0  0  0  0  0  0  0  0  0  0  0  0
   28.1360  -22.2117  -17.7243 C   0  0  2  0  0  0  0  0  0  0  0  0
   28.8681  -23.4243  -17.7934 N   0  0  0  0  0  0  0  0  0  0  0  0
   27.9534  -21.5803  -16.4357 C   0  0  0  0  0  0  0  0  0  0  0  0
   28.2670  -22.2771  -15.3994 O   0  0  0  0  0  0  0  0  0  0  0  0
   27.4685  -20.2805  -16.1276 N   0  0  0  0  0  0  0  0  0  0  0  0
   26.8801  -19.3598  -17.0539 C   0  0  0  0  0  0  0  0  0  0  0  0
   27.4496  -18.0276  -16.5723 C   0  0  0  0  0  0  0  0  0  0  0  0
   27.6892  -18.2065  -15.1009 C   0  0  0  0  0  0  0  0  0  0  0  0
   27.4205  -19.6206  -14.8499 C   0  0  1  0  0  0  0  0  0  0  0  0
   26.1868  -19.9124  -14.0865 C   0  0  0  0  0  0  0  0  0  0  0  0
   25.1426  -20.1089  -14.7559 O   0  0  0  0  0  0  0  0  0  0  0  0
   24.8851  -19.9439   -8.4892 C   0  0  0  0  0  0  0  0  0  0  0  0
   25.8280  -20.0091   -9.6399 C   0  0  0  0  0  0  0  0  0  0  0  0
   25.6283  -21.1803  -10.5732 C   0  0  2  0  0  0  0  0  0  0  0  0
   26.9565  -21.9384  -10.6031 C   0  0  0  0  0  0  0  0  0  0  0  0
   25.1751  -20.7895  -11.9429 C   0  0  2  0  0  0  0  0  0  0  0  0
   26.1188  -19.9792  -12.6665 N   0  0  0  0  0  0  0  0  0  0  0  0
   23.8138  -20.1514  -11.9162 C   0  0  0  0  0  0  0  0  0  0  0  0
   22.6503  -20.8113  -11.6049 O   0  0  0  0  0  0  0  0  0  0  0  0
   23.6897  -18.9092  -12.1985 O   0  0  0  0  0  0  0  0  0  0  0  0
  1  2  1  0
  2  3  2  0
  4  2  1  0
  5  4  1  0
  5  6  1  1
  7  5  1  0
  7  8  2  0
  9  7  1  0
 10  9  1  0
 11 10  1  0
 12 11  1  0
 12 13  1  0
 13  9  1  0
 14 21  1  0
 13 14  1  6
 15 14  2  0
 17 16  1  0
 18 17  1  0
 18 19  1  6
 20 21  1  1
 20 18  1  0
 22 20  1  0
 23 22  1  0
 24 22  2  0
M  END
$$$$
