LFD.pdb
     RDKit          3D

 28 28  0  0  1  0  0  0  0  0999 V2000
   22.9754  -13.3825  -22.5238 C   0  0  0  0  0  0  0  0  0  0  0  0
   21.7224  -13.8187  -21.8308 C   0  0  2  0  0  0  0  0  0  0  0  0
   20.4756  -13.2154  -22.4701 C   0  0  0  0  0  0  0  0  0  0  0  0
   21.6952  -13.5017  -20.3642 C   0  0  0  0  0  0  0  0  0  0  0  0
   22.9380  -13.9928  -19.6824 C   0  0  2  0  0  0  0  0  0  0  0  0
   23.0181  -15.4318  -19.6357 N   0  0  0  0  0  0  0  0  0  0  0  0
   22.9705  -13.4077  -18.3158 C   0  0  0  0  0  0  0  0  0  0  0  0
   22.1594  -13.8276  -17.4545 O   0  0  0  0  0  0  0  0  0  0  0  0
   23.8917  -12.4010  -17.9877 N   0  0  0  0  0  0  0  0  0  0  0  0
   23.9118  -11.8655  -16.6242 C   0  0  1  0  0  0  0  0  0  0  0  0
   25.3405  -11.9805  -16.1369 C   0  0  0  0  0  0  0  0  0  0  0  0
   25.7431  -13.3819  -15.9057 C   0  0  0  0  0  0  0  0  0  0  0  0
   26.4973  -14.0509  -16.8345 C   0  0  0  0  0  0  0  0  0  0  0  0
   26.9007  -15.3515  -16.6607 C   0  0  0  0  0  0  0  0  0  0  0  0
   26.5404  -16.0252  -15.5106 C   0  0  0  0  0  0  0  0  0  0  0  0
   25.7855  -15.3540  -14.5819 C   0  0  0  0  0  0  0  0  0  0  0  0
   25.3881  -14.0523  -14.7676 C   0  0  0  0  0  0  0  0  0  0  0  0
   23.4088  -10.4862  -16.6785 C   0  0  0  0  0  0  0  0  0  0  0  0
   23.4929   -9.8397  -17.7462 O   0  0  0  0  0  0  0  0  0  0  0  0
   22.8338   -9.8898  -15.5382 N   0  0  0  0  0  0  0  0  0  0  0  0
   22.2775   -8.5217  -15.6896 C   0  0  1  0  0  0  0  0  0  0  0  0
   21.1529   -8.5752  -16.7034 C   0  0  0  0  0  0  0  0  0  0  0  0
   20.5658   -7.2403  -16.8768 C   0  0  0  0  0  0  0  0  0  0  0  0
   19.4636   -6.9374  -16.3140 O   0  0  0  0  0  0  0  0  0  0  0  0
   21.8094   -8.0599  -14.3583 C   0  0  0  0  0  0  0  0  0  0  0  0
   21.4836   -8.9337  -13.5026 O   0  0  0  0  0  0  0  0  0  0  0  0
   21.1591   -6.2490  -17.6495 O   0  0  0  0  0  0  0  0  0  0  0  0
   21.7102   -6.7376  -14.0029 O   0  0  0  0  0  0  0  0  0  0  0  0
  2  3  1  6
  2  1  1  0
  4  2  1  0
  5  7  1  0
  5  4  1  0
  5  6  1  1
  7  8  2  0
  9 10  1  0
  9  7  1  0
 10 11  1  6
 11 12  1  0
 12 17  2  0
 13 12  1  0
 13 14  2  0
 14 15  1  0
 15 16  2  0
 17 16  1  0
 18 10  1  0
 19 18  2  0
 20 18  1  0
 21 22  1  6
 21 20  1  0
 22 23  1  0
 23 24  2  0
 23 27  1  0
 25 28  1  0
 25 21  1  0
 26 25  2  0
M  END
$$$$
