LFD.pdb
     RDKit          3D

 28 28  0  0  1  0  0  0  0  0999 V2000
   28.1243  -16.6705  -16.7941 C   0  0  0  0  0  0  0  0  0  0  0  0
   28.3205  -18.0776  -17.2656 C   0  0  2  0  0  0  0  0  0  0  0  0
   28.5508  -18.1490  -18.7719 C   0  0  0  0  0  0  0  0  0  0  0  0
   27.1868  -18.9990  -16.9223 C   0  0  0  0  0  0  0  0  0  0  0  0
   26.9749  -19.0651  -15.4386 C   0  0  2  0  0  0  0  0  0  0  0  0
   28.1982  -19.2905  -14.7092 N   0  0  0  0  0  0  0  0  0  0  0  0
   25.9812  -20.1372  -15.1668 C   0  0  0  0  0  0  0  0  0  0  0  0
   25.4342  -20.7198  -16.1350 O   0  0  0  0  0  0  0  0  0  0  0  0
   25.6557  -20.4971  -13.8499 N   0  0  0  0  0  0  0  0  0  0  0  0
   24.6728  -21.5589  -13.6198 C   0  0  1  0  0  0  0  0  0  0  0  0
   25.2019  -22.3955  -12.4746 C   0  0  0  0  0  0  0  0  0  0  0  0
   25.5012  -21.5836  -11.2784 C   0  0  0  0  0  0  0  0  0  0  0  0
   24.4991  -21.2190  -10.4171 C   0  0  0  0  0  0  0  0  0  0  0  0
   24.7298  -20.4706   -9.2896 C   0  0  0  0  0  0  0  0  0  0  0  0
   26.0161  -20.0618   -8.9986 C   0  0  0  0  0  0  0  0  0  0  0  0
   27.0179  -20.4277   -9.8618 C   0  0  0  0  0  0  0  0  0  0  0  0
   26.7742  -21.1770  -10.9870 C   0  0  0  0  0  0  0  0  0  0  0  0
   23.3797  -20.9183  -13.3435 C   0  0  0  0  0  0  0  0  0  0  0  0
   23.3513  -19.7387  -12.9277 O   0  0  0  0  0  0  0  0  0  0  0  0
   22.1758  -21.6231  -13.5439 N   0  0  0  0  0  0  0  0  0  0  0  0
   20.9082  -20.8612  -13.4138 C   0  0  1  0  0  0  0  0  0  0  0  0
   20.8970  -19.7732  -14.4679 C   0  0  0  0  0  0  0  0  0  0  0  0
   19.5821  -19.1202  -14.5053 C   0  0  0  0  0  0  0  0  0  0  0  0
   19.3864  -18.0185  -13.8961 O   0  0  0  0  0  0  0  0  0  0  0  0
   19.7769  -21.8092  -13.5758 C   0  0  0  0  0  0  0  0  0  0  0  0
   19.9948  -22.9042  -14.1720 O   0  0  0  0  0  0  0  0  0  0  0  0
   18.4943  -19.6515  -15.1880 O   0  0  0  0  0  0  0  0  0  0  0  0
   18.5071  -21.5649  -13.1149 O   0  0  0  0  0  0  0  0  0  0  0  0
  2  3  1  6
  2  1  1  0
  4  2  1  0
  5  7  1  0
  5  4  1  0
  5  6  1  1
  7  8  2  0
  9 10  1  0
  9  7  1  0
 10 11  1  1
 11 12  1  0
 12 17  2  0
 13 12  1  0
 13 14  2  0
 14 15  1  0
 15 16  2  0
 17 16  1  0
 18 10  1  0
 19 18  2  0
 20 18  1  0
 21 22  1  6
 21 20  1  0
 22 23  1  0
 23 24  2  0
 23 27  1  0
 25 28  1  0
 25 21  1  0
 26 25  2  0
M  END
$$$$
