LFD.pdb
     RDKit          3D

 28 28  0  0  1  0  0  0  0  0999 V2000
   26.6405  -18.7963  -14.7064 C   0  0  0  0  0  0  0  0  0  0  0  0
   26.6746  -20.2332  -15.1248 C   0  0  2  0  0  0  0  0  0  0  0  0
   25.6079  -20.5504  -16.1682 C   0  0  0  0  0  0  0  0  0  0  0  0
   26.5201  -21.2023  -13.9894 C   0  0  0  0  0  0  0  0  0  0  0  0
   27.4354  -20.8533  -12.8532 C   0  0  2  0  0  0  0  0  0  0  0  0
   28.6948  -21.5529  -12.9152 N   0  0  0  0  0  0  0  0  0  0  0  0
   26.7191  -21.1466  -11.5836 C   0  0  0  0  0  0  0  0  0  0  0  0
   26.5725  -22.3422  -11.2297 O   0  0  0  0  0  0  0  0  0  0  0  0
   26.2125  -20.1070  -10.7885 N   0  0  0  0  0  0  0  0  0  0  0  0
   25.5626  -20.4303   -9.5159 C   0  0  1  0  0  0  0  0  0  0  0  0
   25.7441  -19.2233   -8.6203 C   0  0  0  0  0  0  0  0  0  0  0  0
   26.8146  -19.4208   -7.6230 C   0  0  0  0  0  0  0  0  0  0  0  0
   27.3294  -18.3529   -6.9349 C   0  0  0  0  0  0  0  0  0  0  0  0
   28.3202  -18.4881   -5.9945 C   0  0  0  0  0  0  0  0  0  0  0  0
   28.8281  -19.7424   -5.7201 C   0  0  0  0  0  0  0  0  0  0  0  0
   28.3116  -20.8102   -6.4098 C   0  0  0  0  0  0  0  0  0  0  0  0
   27.3200  -20.6619   -7.3487 C   0  0  0  0  0  0  0  0  0  0  0  0
   24.1587  -20.7561   -9.8013 C   0  0  0  0  0  0  0  0  0  0  0  0
   23.6933  -20.5363  -10.9415 O   0  0  0  0  0  0  0  0  0  0  0  0
   23.3368  -21.3133   -8.8011 N   0  0  0  0  0  0  0  0  0  0  0  0
   21.9615  -21.7137   -9.1914 C   0  0  1  0  0  0  0  0  0  0  0  0
   21.3455  -22.4828   -8.0406 C   0  0  0  0  0  0  0  0  0  0  0  0
   19.9839  -22.9084   -8.3894 C   0  0  0  0  0  0  0  0  0  0  0  0
   19.5876  -22.8897   -9.6001 O   0  0  0  0  0  0  0  0  0  0  0  0
   21.1942  -20.4850   -9.5178 C   0  0  0  0  0  0  0  0  0  0  0  0
   21.4457  -19.4313   -8.8635 O   0  0  0  0  0  0  0  0  0  0  0  0
   19.0635  -23.3442   -7.4436 O   0  0  0  0  0  0  0  0  0  0  0  0
   20.2269  -20.4276  -10.4902 O   0  0  0  0  0  0  0  0  0  0  0  0
  2  3  1  6
  2  1  1  0
  4  2  1  0
  5  7  1  0
  5  4  1  0
  5  6  1  6
  7  8  2  0
  9 10  1  0
  9  7  1  0
 10 11  1  1
 11 12  1  0
 12 17  2  0
 13 12  1  0
 13 14  2  0
 14 15  1  0
 15 16  2  0
 17 16  1  0
 18 10  1  0
 19 18  2  0
 20 18  1  0
 21 22  1  1
 21 20  1  0
 22 23  1  0
 23 24  2  0
 23 27  1  0
 25 28  1  0
 25 21  1  0
 26 25  2  0
M  END
$$$$
