LFD.pdb
     RDKit          3D

 28 28  0  0  1  0  0  0  0  0999 V2000
   29.4429  -28.4726  -23.3657 C   0  0  0  0  0  0  0  0  0  0  0  0
   30.1723  -29.7415  -23.6793 C   0  0  2  0  0  0  0  0  0  0  0  0
   29.5503  -30.4822  -24.8590 C   0  0  0  0  0  0  0  0  0  0  0  0
   30.2613  -30.6948  -22.5237 C   0  0  0  0  0  0  0  0  0  0  0  0
   30.8478  -30.0259  -21.3157 C   0  0  2  0  0  0  0  0  0  0  0  0
   32.2885  -29.9764  -21.3490 N   0  0  0  0  0  0  0  0  0  0  0  0
   30.3622  -30.7508  -20.1117 C   0  0  0  0  0  0  0  0  0  0  0  0
   30.7710  -31.9185  -19.8982 O   0  0  0  0  0  0  0  0  0  0  0  0
   29.4605  -30.1442  -19.2236 N   0  0  0  0  0  0  0  0  0  0  0  0
   28.9961  -30.8921  -18.0526 C   0  0  1  0  0  0  0  0  0  0  0  0
   29.6680  -30.2680  -16.8482 C   0  0  0  0  0  0  0  0  0  0  0  0
   31.0482  -30.7571  -16.6598 C   0  0  0  0  0  0  0  0  0  0  0  0
   31.2813  -31.9654  -16.0560 C   0  0  0  0  0  0  0  0  0  0  0  0
   32.5459  -32.4642  -15.8648 C   0  0  0  0  0  0  0  0  0  0  0  0
   33.6354  -31.7315  -16.2921 C   0  0  0  0  0  0  0  0  0  0  0  0
   33.4002  -30.5223  -16.8962 C   0  0  0  0  0  0  0  0  0  0  0  0
   32.1298  -30.0340  -17.0818 C   0  0  0  0  0  0  0  0  0  0  0  0
   27.5292  -30.8135  -18.0253 C   0  0  0  0  0  0  0  0  0  0  0  0
   26.9417  -29.9824  -18.7527 O   0  0  0  0  0  0  0  0  0  0  0  0
   26.7834  -31.6667  -17.1873 N   0  0  0  0  0  0  0  0  0  0  0  0
   25.3040  -31.5542  -17.2403 C   0  0  1  0  0  0  0  0  0  0  0  0
   24.8558  -31.8410  -18.6587 C   0  0  0  0  0  0  0  0  0  0  0  0
   23.3891  -31.8456  -18.7335 C   0  0  0  0  0  0  0  0  0  0  0  0
   22.7382  -32.9380  -18.6555 O   0  0  0  0  0  0  0  0  0  0  0  0
   24.7291  -32.5164  -16.2663 C   0  0  0  0  0  0  0  0  0  0  0  0
   23.4707  -32.5575  -16.1378 O   0  0  0  0  0  0  0  0  0  0  0  0
   22.6376  -30.6875  -18.8935 O   0  0  0  0  0  0  0  0  0  0  0  0
   25.4862  -33.3646  -15.4969 O   0  0  0  0  0  0  0  0  0  0  0  0
  2  3  1  6
  2  1  1  0
  4  2  1  0
  5  7  1  0
  5  4  1  0
  5  6  1  6
  7  8  2  0
  9 10  1  0
  9  7  1  0
 10 11  1  1
 11 12  1  0
 12 17  2  0
 13 12  1  0
 13 14  2  0
 14 15  1  0
 15 16  2  0
 17 16  1  0
 18 10  1  0
 19 18  2  0
 20 18  1  0
 21 22  1  6
 21 20  1  0
 22 23  1  0
 23 24  2  0
 23 27  1  0
 25 28  1  0
 25 21  1  0
 26 25  2  0
M  END
$$$$
