LFD.pdb
     RDKit          3D

 28 28  0  0  1  0  0  0  0  0999 V2000
   27.9881  -21.2102  -15.3597 C   0  0  0  0  0  0  0  0  0  0  0  0
   27.4156  -19.8292  -15.2819 C   0  0  2  0  0  0  0  0  0  0  0  0
   28.4970  -18.7724  -15.0802 C   0  0  0  0  0  0  0  0  0  0  0  0
   26.3864  -19.6561  -14.2036 C   0  0  0  0  0  0  0  0  0  0  0  0
   25.1931  -20.5311  -14.4505 C   0  0  2  0  0  0  0  0  0  0  0  0
   25.0517  -20.9050  -15.8360 N   0  0  0  0  0  0  0  0  0  0  0  0
   23.9885  -19.8085  -13.9628 C   0  0  0  0  0  0  0  0  0  0  0  0
   23.9283  -19.4717  -12.7549 O   0  0  0  0  0  0  0  0  0  0  0  0
   22.9317  -19.5047  -14.8347 N   0  0  0  0  0  0  0  0  0  0  0  0
   21.7248  -18.8670  -14.3024 C   0  0  1  0  0  0  0  0  0  0  0  0
   21.6104  -17.5216  -14.9869 C   0  0  0  0  0  0  0  0  0  0  0  0
   20.3502  -16.8285  -14.6541 C   0  0  0  0  0  0  0  0  0  0  0  0
   20.1567  -16.2994  -13.4043 C   0  0  0  0  0  0  0  0  0  0  0  0
   19.0051  -15.6412  -13.0508 C   0  0  0  0  0  0  0  0  0  0  0  0
   17.9933  -15.4986  -13.9794 C   0  0  0  0  0  0  0  0  0  0  0  0
   18.1886  -16.0287  -15.2298 C   0  0  0  0  0  0  0  0  0  0  0  0
   19.3458  -16.6853  -15.5714 C   0  0  0  0  0  0  0  0  0  0  0  0
   20.5927  -19.7669  -14.5616 C   0  0  0  0  0  0  0  0  0  0  0  0
   20.6643  -20.5962  -15.4956 O   0  0  0  0  0  0  0  0  0  0  0  0
   19.4309  -19.7011  -13.7664 N   0  0  0  0  0  0  0  0  0  0  0  0
   18.3048  -20.5990  -14.1264 C   0  0  1  0  0  0  0  0  0  0  0  0
   18.4584  -21.8898  -13.3483 C   0  0  0  0  0  0  0  0  0  0  0  0
   17.5660  -22.9191  -13.8970 C   0  0  0  0  0  0  0  0  0  0  0  0
   16.7134  -22.6267  -14.7975 O   0  0  0  0  0  0  0  0  0  0  0  0
   17.0333  -19.9013  -13.8077 C   0  0  0  0  0  0  0  0  0  0  0  0
   16.9153  -19.3642  -12.6678 O   0  0  0  0  0  0  0  0  0  0  0  0
   17.5924  -24.2435  -13.4763 O   0  0  0  0  0  0  0  0  0  0  0  0
   15.9780  -19.8058  -14.6804 O   0  0  0  0  0  0  0  0  0  0  0  0
  2  3  1  1
  2  1  1  0
  4  2  1  0
  5  7  1  0
  5  4  1  0
  5  6  1  6
  7  8  2  0
  9 10  1  0
  9  7  1  0
 10 11  1  6
 11 12  1  0
 12 17  2  0
 13 12  1  0
 13 14  2  0
 14 15  1  0
 15 16  2  0
 17 16  1  0
 18 10  1  0
 19 18  2  0
 20 18  1  0
 21 22  1  1
 21 20  1  0
 22 23  1  0
 23 24  2  0
 23 27  1  0
 25 28  1  0
 25 21  1  0
 26 25  2  0
M  END
$$$$
