LFD.pdb
     RDKit          3D

 28 28  0  0  1  0  0  0  0  0999 V2000
   22.3897  -19.2008  -17.3309 C   0  0  0  0  0  0  0  0  0  0  0  0
   23.5922  -19.9694  -16.8793 C   0  0  2  0  0  0  0  0  0  0  0  0
   24.1952  -20.8021  -18.0064 C   0  0  0  0  0  0  0  0  0  0  0  0
   23.3319  -20.8790  -15.7144 C   0  0  0  0  0  0  0  0  0  0  0  0
   22.8210  -20.1098  -14.5321 C   0  0  2  0  0  0  0  0  0  0  0  0
   23.0143  -18.6870  -14.6655 N   0  0  0  0  0  0  0  0  0  0  0  0
   23.5014  -20.6335  -13.3182 C   0  0  0  0  0  0  0  0  0  0  0  0
   23.5250  -21.8731  -13.1207 O   0  0  0  0  0  0  0  0  0  0  0  0
   24.1100  -19.7604  -12.4034 N   0  0  0  0  0  0  0  0  0  0  0  0
   24.6918  -20.3035  -11.1734 C   0  0  1  0  0  0  0  0  0  0  0  0
   25.9299  -19.4824  -10.8829 C   0  0  0  0  0  0  0  0  0  0  0  0
   26.5122  -19.7936   -9.5624 C   0  0  0  0  0  0  0  0  0  0  0  0
   27.3891  -20.8372   -9.4177 C   0  0  0  0  0  0  0  0  0  0  0  0
   27.9606  -21.1604   -8.2121 C   0  0  0  0  0  0  0  0  0  0  0  0
   27.6495  -20.4144   -7.0927 C   0  0  0  0  0  0  0  0  0  0  0  0
   26.7716  -19.3701   -7.2393 C   0  0  0  0  0  0  0  0  0  0  0  0
   26.2064  -19.0567   -8.4514 C   0  0  0  0  0  0  0  0  0  0  0  0
   23.6665  -20.2295  -10.1236 C   0  0  0  0  0  0  0  0  0  0  0  0
   22.9608  -19.2016  -10.0211 O   0  0  0  0  0  0  0  0  0  0  0  0
   23.4745  -21.3065   -9.2351 N   0  0  0  0  0  0  0  0  0  0  0  0
   22.4784  -21.1269   -8.1489 C   0  0  1  0  0  0  0  0  0  0  0  0
   21.1100  -20.9701   -8.7797 C   0  0  0  0  0  0  0  0  0  0  0  0
   20.6380  -22.2638   -9.2897 C   0  0  0  0  0  0  0  0  0  0  0  0
   21.3599  -23.3079   -9.1795 O   0  0  0  0  0  0  0  0  0  0  0  0
   22.5495  -22.3086   -7.2525 C   0  0  0  0  0  0  0  0  0  0  0  0
   23.3179  -23.2604   -7.5773 O   0  0  0  0  0  0  0  0  0  0  0  0
   19.4061  -22.4260   -9.9124 O   0  0  0  0  0  0  0  0  0  0  0  0
   21.8283  -22.4270   -6.0904 O   0  0  0  0  0  0  0  0  0  0  0  0
  2  3  1  6
  2  1  1  0
  4  2  1  0
  5  7  1  0
  5  4  1  0
  5  6  1  6
  7  8  2  0
  9 10  1  0
  9  7  1  0
 10 11  1  1
 11 12  1  0
 12 17  2  0
 13 12  1  0
 13 14  2  0
 14 15  1  0
 15 16  2  0
 17 16  1  0
 18 10  1  0
 19 18  2  0
 20 18  1  0
 21 22  1  6
 21 20  1  0
 22 23  1  0
 23 24  2  0
 23 27  1  0
 25 28  1  0
 25 21  1  0
 26 25  2  0
M  END
$$$$
