LFD.pdb
     RDKit          3D

 28 28  0  0  1  0  0  0  0  0999 V2000
   26.4458  -17.8915  -15.9988 C   0  0  0  0  0  0  0  0  0  0  0  0
   27.6542  -17.9963  -15.1216 C   0  0  2  0  0  0  0  0  0  0  0  0
   28.9079  -18.3507  -15.9151 C   0  0  0  0  0  0  0  0  0  0  0  0
   27.5122  -18.9886  -14.0048 C   0  0  0  0  0  0  0  0  0  0  0  0
   26.3829  -18.6150  -13.0907 C   0  0  2  0  0  0  0  0  0  0  0  0
   26.3104  -17.1962  -12.8434 N   0  0  0  0  0  0  0  0  0  0  0  0
   26.5514  -19.3740  -11.8232 C   0  0  0  0  0  0  0  0  0  0  0  0
   26.6831  -20.6215  -11.8737 O   0  0  0  0  0  0  0  0  0  0  0  0
   26.5640  -18.7115  -10.5861 N   0  0  0  0  0  0  0  0  0  0  0  0
   26.6918  -19.4956   -9.3551 C   0  0  1  0  0  0  0  0  0  0  0  0
   27.4747  -18.6426   -8.3799 C   0  0  0  0  0  0  0  0  0  0  0  0
   27.6918  -19.3235   -7.0881 C   0  0  0  0  0  0  0  0  0  0  0  0
   27.1739  -18.8015   -5.9312 C   0  0  0  0  0  0  0  0  0  0  0  0
   27.3441  -19.4019   -4.7085 C   0  0  0  0  0  0  0  0  0  0  0  0
   28.0627  -20.5780   -4.6249 C   0  0  0  0  0  0  0  0  0  0  0  0
   28.5804  -21.0991   -5.7838 C   0  0  0  0  0  0  0  0  0  0  0  0
   28.4031  -20.4886   -7.0015 C   0  0  0  0  0  0  0  0  0  0  0  0
   25.3369  -19.8338   -8.8983 C   0  0  0  0  0  0  0  0  0  0  0  0
   24.4289  -18.9762   -8.9704 O   0  0  0  0  0  0  0  0  0  0  0  0
   25.0559  -21.1145   -8.3815 N   0  0  0  0  0  0  0  0  0  0  0  0
   23.6678  -21.3779   -7.9254 C   0  0  1  0  0  0  0  0  0  0  0  0
   22.9265  -22.0845   -9.0417 C   0  0  0  0  0  0  0  0  0  0  0  0
   21.4848  -22.0961   -8.7620 C   0  0  0  0  0  0  0  0  0  0  0  0
   21.0189  -21.5137   -7.7291 O   0  0  0  0  0  0  0  0  0  0  0  0
   23.7321  -22.1981   -6.6892 C   0  0  0  0  0  0  0  0  0  0  0  0
   24.7151  -22.9815   -6.5416 O   0  0  0  0  0  0  0  0  0  0  0  0
   20.5612  -22.7303   -9.5844 O   0  0  0  0  0  0  0  0  0  0  0  0
   22.7847  -22.1544   -5.6967 O   0  0  0  0  0  0  0  0  0  0  0  0
  2  3  1  6
  2  1  1  0
  4  2  1  0
  5  7  1  0
  5  4  1  0
  5  6  1  1
  7  8  2  0
  9 10  1  0
  9  7  1  0
 10 11  1  1
 11 12  1  0
 12 17  2  0
 13 12  1  0
 13 14  2  0
 14 15  1  0
 15 16  2  0
 17 16  1  0
 18 10  1  0
 19 18  2  0
 20 18  1  0
 21 22  1  6
 21 20  1  0
 22 23  1  0
 23 24  2  0
 23 27  1  0
 25 28  1  0
 25 21  1  0
 26 25  2  0
M  END
$$$$
