LFD.pdb
     RDKit          3D

 28 28  0  0  1  0  0  0  0  0999 V2000
   28.1316  -22.0077  -17.4131 C   0  0  0  0  0  0  0  0  0  0  0  0
   26.8232  -22.5534  -17.8936 C   0  0  2  0  0  0  0  0  0  0  0  0
   26.3256  -21.8302  -19.1413 C   0  0  0  0  0  0  0  0  0  0  0  0
   25.7317  -22.5141  -16.8645 C   0  0  0  0  0  0  0  0  0  0  0  0
   26.1664  -23.1765  -15.5906 C   0  0  2  0  0  0  0  0  0  0  0  0
   26.4394  -24.5827  -15.7571 N   0  0  0  0  0  0  0  0  0  0  0  0
   25.1051  -22.9514  -14.5738 C   0  0  0  0  0  0  0  0  0  0  0  0
   24.2000  -23.8107  -14.4383 O   0  0  0  0  0  0  0  0  0  0  0  0
   25.1098  -21.7977  -13.7746 N   0  0  0  0  0  0  0  0  0  0  0  0
   24.0476  -21.6089  -12.7835 C   0  0  1  0  0  0  0  0  0  0  0  0
   24.5650  -20.5956  -11.7849 C   0  0  0  0  0  0  0  0  0  0  0  0
   23.5892  -20.3159  -10.7129 C   0  0  0  0  0  0  0  0  0  0  0  0
   22.5182  -19.4923  -10.9452 C   0  0  0  0  0  0  0  0  0  0  0  0
   21.5821  -19.2082   -9.9821 C   0  0  0  0  0  0  0  0  0  0  0  0
   21.7109  -19.7663   -8.7258 C   0  0  0  0  0  0  0  0  0  0  0  0
   22.7835  -20.5903   -8.4951 C   0  0  0  0  0  0  0  0  0  0  0  0
   23.7136  -20.8670   -9.4673 C   0  0  0  0  0  0  0  0  0  0  0  0
   22.8395  -21.1778  -13.4999 C   0  0  0  0  0  0  0  0  0  0  0  0
   22.9358  -20.3414  -14.4253 O   0  0  0  0  0  0  0  0  0  0  0  0
   21.5776  -21.6999  -13.1516 N   0  0  0  0  0  0  0  0  0  0  0  0
   20.3990  -21.1948  -13.8999 C   0  0  1  0  0  0  0  0  0  0  0  0
   20.0695  -22.1883  -14.9950 C   0  0  0  0  0  0  0  0  0  0  0  0
   20.1940  -21.5487  -16.3111 C   0  0  0  0  0  0  0  0  0  0  0  0
   20.5461  -20.3282  -16.4093 O   0  0  0  0  0  0  0  0  0  0  0  0
   19.2773  -21.0254  -12.9417 C   0  0  0  0  0  0  0  0  0  0  0  0
   19.2305  -21.7902  -11.9344 O   0  0  0  0  0  0  0  0  0  0  0  0
   19.9387  -22.2170  -17.5027 O   0  0  0  0  0  0  0  0  0  0  0  0
   18.2875  -20.0853  -13.0869 O   0  0  0  0  0  0  0  0  0  0  0  0
  2  3  1  6
  2  1  1  0
  4  2  1  0
  5  7  1  0
  5  4  1  0
  5  6  1  6
  7  8  2  0
  9 10  1  0
  9  7  1  0
 10 11  1  1
 11 12  1  0
 12 17  2  0
 13 12  1  0
 13 14  2  0
 14 15  1  0
 15 16  2  0
 17 16  1  0
 18 10  1  0
 19 18  2  0
 20 18  1  0
 21 22  1  6
 21 20  1  0
 22 23  1  0
 23 24  2  0
 23 27  1  0
 25 28  1  0
 25 21  1  0
 26 25  2  0
M  END
$$$$
