LFD.pdb
     RDKit          3D

 28 28  0  0  1  0  0  0  0  0999 V2000
   27.0534  -20.2224   -4.7954 C   0  0  0  0  0  0  0  0  0  0  0  0
   27.9087  -20.1520   -6.0218 C   0  0  2  0  0  0  0  0  0  0  0  0
   29.2515  -19.4832   -5.7449 C   0  0  0  0  0  0  0  0  0  0  0  0
   27.2626  -19.4423   -7.1755 C   0  0  0  0  0  0  0  0  0  0  0  0
   26.0142  -20.1494   -7.6139 C   0  0  2  0  0  0  0  0  0  0  0  0
   26.0003  -21.5419   -7.2396 N   0  0  0  0  0  0  0  0  0  0  0  0
   25.8910  -19.9871   -9.0868 C   0  0  0  0  0  0  0  0  0  0  0  0
   26.1127  -18.8611   -9.5957 O   0  0  0  0  0  0  0  0  0  0  0  0
   25.5328  -21.0726   -9.9010 N   0  0  0  0  0  0  0  0  0  0  0  0
   25.5065  -20.8987  -11.3555 C   0  0  1  0  0  0  0  0  0  0  0  0
   26.5357  -21.8532  -11.9224 C   0  0  0  0  0  0  0  0  0  0  0  0
   27.9106  -21.3278  -11.8085 C   0  0  0  0  0  0  0  0  0  0  0  0
   28.3570  -20.3562  -12.6663 C   0  0  0  0  0  0  0  0  0  0  0  0
   29.6240  -19.8328  -12.5950 C   0  0  0  0  0  0  0  0  0  0  0  0
   30.4943  -20.2931  -11.6269 C   0  0  0  0  0  0  0  0  0  0  0  0
   30.0459  -21.2657  -10.7692 C   0  0  0  0  0  0  0  0  0  0  0  0
   28.7754  -21.7814  -10.8508 C   0  0  0  0  0  0  0  0  0  0  0  0
   24.1347  -21.1600  -11.8120 C   0  0  0  0  0  0  0  0  0  0  0  0
   23.3375  -21.7622  -11.0590 O   0  0  0  0  0  0  0  0  0  0  0  0
   23.7136  -20.7371  -13.0888 N   0  0  0  0  0  0  0  0  0  0  0  0
   22.2696  -20.4437  -13.2697 C   0  0  1  0  0  0  0  0  0  0  0  0
   21.8747  -19.3693  -12.2773 C   0  0  0  0  0  0  0  0  0  0  0  0
   20.4451  -19.0604  -12.4100 C   0  0  0  0  0  0  0  0  0  0  0  0
   19.9003  -18.1764  -11.6719 O   0  0  0  0  0  0  0  0  0  0  0  0
   22.0546  -20.0142  -14.6748 C   0  0  0  0  0  0  0  0  0  0  0  0
   21.4246  -20.7929  -15.4485 O   0  0  0  0  0  0  0  0  0  0  0  0
   19.6162  -19.6997  -13.3243 O   0  0  0  0  0  0  0  0  0  0  0  0
   22.5008  -18.8192  -15.1822 O   0  0  0  0  0  0  0  0  0  0  0  0
  2  3  1  1
  2  1  1  0
  4  2  1  0
  5  7  1  0
  5  4  1  0
  5  6  1  6
  7  8  2  0
  9 10  1  0
  9  7  1  0
 10 11  1  6
 11 12  1  0
 12 17  2  0
 13 12  1  0
 13 14  2  0
 14 15  1  0
 15 16  2  0
 17 16  1  0
 18 10  1  0
 19 18  2  0
 20 18  1  0
 21 22  1  1
 21 20  1  0
 22 23  1  0
 23 24  2  0
 23 27  1  0
 25 28  1  0
 25 21  1  0
 26 25  2  0
M  END
$$$$
