LFD.pdb
     RDKit          3D

 28 28  0  0  1  0  0  0  0  0999 V2000
   15.5998  -11.6881  -18.7073 C   0  0  0  0  0  0  0  0  0  0  0  0
   17.0964  -11.7063  -18.7300 C   0  0  2  0  0  0  0  0  0  0  0  0
   17.6420  -12.2244  -20.0570 C   0  0  0  0  0  0  0  0  0  0  0  0
   17.7129  -12.5129  -17.6248 C   0  0  0  0  0  0  0  0  0  0  0  0
   19.2005  -12.3238  -17.5831 C   0  0  2  0  0  0  0  0  0  0  0  0
   19.9165  -13.5633  -17.4096 N   0  0  0  0  0  0  0  0  0  0  0  0
   19.5084  -11.3668  -16.4875 C   0  0  0  0  0  0  0  0  0  0  0  0
   19.2344  -11.6868  -15.3049 O   0  0  0  0  0  0  0  0  0  0  0  0
   20.0966  -10.1232  -16.7650 N   0  0  0  0  0  0  0  0  0  0  0  0
   20.2159   -9.1322  -15.6925 C   0  0  1  0  0  0  0  0  0  0  0  0
   21.6683   -8.7069  -15.6580 C   0  0  0  0  0  0  0  0  0  0  0  0
   21.8912   -7.5434  -14.7770 C   0  0  0  0  0  0  0  0  0  0  0  0
   22.0698   -6.2927  -15.3089 C   0  0  0  0  0  0  0  0  0  0  0  0
   22.2738   -5.1808  -14.5301 C   0  0  0  0  0  0  0  0  0  0  0  0
   22.3027   -5.3115  -13.1559 C   0  0  0  0  0  0  0  0  0  0  0  0
   22.1238   -6.5641  -12.6252 C   0  0  0  0  0  0  0  0  0  0  0  0
   21.9205   -7.6692  -13.4154 C   0  0  0  0  0  0  0  0  0  0  0  0
   19.2805   -8.0386  -15.9887 C   0  0  0  0  0  0  0  0  0  0  0  0
   18.9577   -7.8064  -17.1749 O   0  0  0  0  0  0  0  0  0  0  0  0
   18.7469   -7.2528  -14.9475 N   0  0  0  0  0  0  0  0  0  0  0  0
   17.7987   -6.1738  -15.3227 C   0  0  1  0  0  0  0  0  0  0  0  0
   16.5676   -6.8132  -15.9317 C   0  0  0  0  0  0  0  0  0  0  0  0
   15.5528   -5.7890  -16.2111 C   0  0  0  0  0  0  0  0  0  0  0  0
   15.8568   -4.7317  -16.8536 O   0  0  0  0  0  0  0  0  0  0  0  0
   17.4775   -5.3916  -14.1021 C   0  0  0  0  0  0  0  0  0  0  0  0
   17.6141   -5.9553  -12.9773 O   0  0  0  0  0  0  0  0  0  0  0  0
   14.2304   -5.9044  -15.7994 O   0  0  0  0  0  0  0  0  0  0  0  0
   17.0405   -4.0904  -14.1251 O   0  0  0  0  0  0  0  0  0  0  0  0
  2  3  1  6
  2  1  1  0
  4  2  1  0
  5  7  1  0
  5  4  1  0
  5  6  1  1
  7  8  2  0
  9 10  1  0
  9  7  1  0
 10 11  1  6
 11 12  1  0
 12 17  2  0
 13 12  1  0
 13 14  2  0
 14 15  1  0
 15 16  2  0
 17 16  1  0
 18 10  1  0
 19 18  2  0
 20 18  1  0
 21 22  1  1
 21 20  1  0
 22 23  1  0
 23 24  2  0
 23 27  1  0
 25 28  1  0
 25 21  1  0
 26 25  2  0
M  END
$$$$
