LFD.pdb
     RDKit          3D

 28 28  0  0  1  0  0  0  0  0999 V2000
   28.6561  -20.5705  -16.8465 C   0  0  0  0  0  0  0  0  0  0  0  0
   29.3200  -21.3212  -15.7347 C   0  0  2  0  0  0  0  0  0  0  0  0
   30.0305  -22.5748  -16.2355 C   0  0  0  0  0  0  0  0  0  0  0  0
   28.3882  -21.7227  -14.6289 C   0  0  0  0  0  0  0  0  0  0  0  0
   27.6104  -20.5437  -14.1233 C   0  0  2  0  0  0  0  0  0  0  0  0
   28.4564  -19.4956  -13.6085 N   0  0  0  0  0  0  0  0  0  0  0  0
   26.6658  -21.0319  -13.0839 C   0  0  0  0  0  0  0  0  0  0  0  0
   26.2737  -22.2236  -13.1293 O   0  0  0  0  0  0  0  0  0  0  0  0
   26.2159  -20.1781  -12.0649 N   0  0  0  0  0  0  0  0  0  0  0  0
   25.1457  -20.6301  -11.1724 C   0  0  1  0  0  0  0  0  0  0  0  0
   25.2149  -19.7555   -9.9388 C   0  0  0  0  0  0  0  0  0  0  0  0
   26.3757  -20.0792   -9.0861 C   0  0  0  0  0  0  0  0  0  0  0  0
   26.7706  -21.3806   -8.9140 C   0  0  0  0  0  0  0  0  0  0  0  0
   27.8467  -21.7296   -8.1365 C   0  0  0  0  0  0  0  0  0  0  0  0
   28.5693  -20.7423   -7.4964 C   0  0  0  0  0  0  0  0  0  0  0  0
   28.1727  -19.4403   -7.6697 C   0  0  0  0  0  0  0  0  0  0  0  0
   27.0938  -19.1039   -8.4506 C   0  0  0  0  0  0  0  0  0  0  0  0
   23.8776  -20.5267  -11.9072 C   0  0  0  0  0  0  0  0  0  0  0  0
   23.7008  -19.5779  -12.7032 O   0  0  0  0  0  0  0  0  0  0  0  0
   22.8633  -21.4873  -11.7209 N   0  0  0  0  0  0  0  0  0  0  0  0
   21.6715  -21.4023  -12.6021 C   0  0  1  0  0  0  0  0  0  0  0  0
   21.3976  -22.7816  -13.1658 C   0  0  0  0  0  0  0  0  0  0  0  0
   20.2155  -22.7454  -14.0365 C   0  0  0  0  0  0  0  0  0  0  0  0
   19.5068  -23.7893  -14.2134 O   0  0  0  0  0  0  0  0  0  0  0  0
   20.5335  -20.8904  -11.7973 C   0  0  0  0  0  0  0  0  0  0  0  0
   19.4106  -20.7580  -12.3660 O   0  0  0  0  0  0  0  0  0  0  0  0
   19.8075  -21.5992  -14.7084 O   0  0  0  0  0  0  0  0  0  0  0  0
   20.6307  -20.5526  -10.4703 O   0  0  0  0  0  0  0  0  0  0  0  0
  2  3  1  6
  2  1  1  0
  4  2  1  0
  5  7  1  0
  5  4  1  0
  5  6  1  1
  7  8  2  0
  9 10  1  0
  9  7  1  0
 10 11  1  1
 11 12  1  0
 12 17  2  0
 13 12  1  0
 13 14  2  0
 14 15  1  0
 15 16  2  0
 17 16  1  0
 18 10  1  0
 19 18  2  0
 20 18  1  0
 21 22  1  1
 21 20  1  0
 22 23  1  0
 23 24  2  0
 23 27  1  0
 25 28  1  0
 25 21  1  0
 26 25  2  0
M  END
$$$$
