LFD.pdb
     RDKit          3D

 28 28  0  0  1  0  0  0  0  0999 V2000
   27.0510  -18.6582  -15.9144 C   0  0  0  0  0  0  0  0  0  0  0  0
   27.8420  -19.1660  -14.7493 C   0  0  2  0  0  0  0  0  0  0  0  0
   29.2502  -19.5895  -15.1552 C   0  0  0  0  0  0  0  0  0  0  0  0
   27.1979  -20.3147  -14.0298 C   0  0  0  0  0  0  0  0  0  0  0  0
   26.1470  -19.8324  -13.0741 C   0  0  2  0  0  0  0  0  0  0  0  0
   26.0358  -18.3950  -13.0450 N   0  0  0  0  0  0  0  0  0  0  0  0
   26.4711  -20.3741  -11.7278 C   0  0  0  0  0  0  0  0  0  0  0  0
   26.4921  -21.6183  -11.5613 O   0  0  0  0  0  0  0  0  0  0  0  0
   26.7504  -19.5127  -10.6556 N   0  0  0  0  0  0  0  0  0  0  0  0
   26.7923  -20.0535   -9.2947 C   0  0  1  0  0  0  0  0  0  0  0  0
   27.8989  -19.3158   -8.5715 C   0  0  0  0  0  0  0  0  0  0  0  0
   27.8537  -19.5287   -7.1113 C   0  0  0  0  0  0  0  0  0  0  0  0
   28.0933  -20.7703   -6.5820 C   0  0  0  0  0  0  0  0  0  0  0  0
   28.0686  -21.0151   -5.2314 C   0  0  0  0  0  0  0  0  0  0  0  0
   27.7931  -19.9803   -4.3597 C   0  0  0  0  0  0  0  0  0  0  0  0
   27.5535  -18.7383   -4.8913 C   0  0  0  0  0  0  0  0  0  0  0  0
   27.5812  -18.5061   -6.2449 C   0  0  0  0  0  0  0  0  0  0  0  0
   25.4623  -19.8676   -8.6989 C   0  0  0  0  0  0  0  0  0  0  0  0
   24.9735  -18.7183   -8.6259 O   0  0  0  0  0  0  0  0  0  0  0  0
   24.7367  -20.9731   -8.2112 N   0  0  0  0  0  0  0  0  0  0  0  0
   23.4019  -20.7067   -7.6184 C   0  0  1  0  0  0  0  0  0  0  0  0
   22.4585  -20.3034   -8.7331 C   0  0  0  0  0  0  0  0  0  0  0  0
   22.3379  -21.3923   -9.7110 C   0  0  0  0  0  0  0  0  0  0  0  0
   21.7492  -22.4795   -9.4033 O   0  0  0  0  0  0  0  0  0  0  0  0
   22.9495  -21.9363   -6.9196 C   0  0  0  0  0  0  0  0  0  0  0  0
   21.7833  -21.9502   -6.4282 O   0  0  0  0  0  0  0  0  0  0  0  0
   22.8488  -21.3088  -11.0009 O   0  0  0  0  0  0  0  0  0  0  0  0
   23.7253  -23.0598   -6.7767 O   0  0  0  0  0  0  0  0  0  0  0  0
  2  3  1  6
  2  1  1  0
  4  2  1  0
  5  7  1  0
  5  4  1  0
  5  6  1  1
  7  8  2  0
  9 10  1  0
  9  7  1  0
 10 11  1  1
 11 12  1  0
 12 17  2  0
 13 12  1  0
 13 14  2  0
 14 15  1  0
 15 16  2  0
 17 16  1  0
 18 10  1  0
 19 18  2  0
 20 18  1  0
 21 22  1  6
 21 20  1  0
 22 23  1  0
 23 24  2  0
 23 27  1  0
 25 28  1  0
 25 21  1  0
 26 25  2  0
M  END
$$$$
