LFD.pdb
     RDKit          3D

 28 28  0  0  1  0  0  0  0  0999 V2000
   29.0104  -18.6609  -15.0180 C   0  0  0  0  0  0  0  0  0  0  0  0
   27.5576  -19.0173  -14.9628 C   0  0  2  0  0  0  0  0  0  0  0  0
   26.6670  -17.8547  -15.3896 C   0  0  0  0  0  0  0  0  0  0  0  0
   27.0965  -19.4885  -13.6147 C   0  0  0  0  0  0  0  0  0  0  0  0
   27.8816  -20.6843  -13.1629 C   0  0  2  0  0  0  0  0  0  0  0  0
   27.7702  -21.8005  -14.0690 N   0  0  0  0  0  0  0  0  0  0  0  0
   27.4133  -21.0493  -11.7997 C   0  0  0  0  0  0  0  0  0  0  0  0
   26.5826  -21.9817  -11.6708 O   0  0  0  0  0  0  0  0  0  0  0  0
   27.8891  -20.3656  -10.6702 N   0  0  0  0  0  0  0  0  0  0  0  0
   27.3830  -20.7322   -9.3452 C   0  0  1  0  0  0  0  0  0  0  0  0
   28.4379  -20.3047   -8.3472 C   0  0  0  0  0  0  0  0  0  0  0  0
   27.9221  -20.2743   -6.9642 C   0  0  0  0  0  0  0  0  0  0  0  0
   27.4693  -19.1020   -6.4167 C   0  0  0  0  0  0  0  0  0  0  0  0
   26.9753  -19.0259   -5.1382 C   0  0  0  0  0  0  0  0  0  0  0  0
   26.9261  -20.1663   -4.3613 C   0  0  0  0  0  0  0  0  0  0  0  0
   27.3797  -21.3388   -4.9110 C   0  0  0  0  0  0  0  0  0  0  0  0
   27.8719  -21.4020   -6.1918 C   0  0  0  0  0  0  0  0  0  0  0  0
   26.0851  -20.0680   -9.1632 C   0  0  0  0  0  0  0  0  0  0  0  0
   25.9739  -18.8488   -9.4205 O   0  0  0  0  0  0  0  0  0  0  0  0
   24.9688  -20.7947   -8.7024 N   0  0  0  0  0  0  0  0  0  0  0  0
   23.6506  -20.1123   -8.7296 C   0  0  1  0  0  0  0  0  0  0  0  0
   23.3206  -19.7726  -10.1687 C   0  0  0  0  0  0  0  0  0  0  0  0
   22.3513  -20.7366  -10.7053 C   0  0  0  0  0  0  0  0  0  0  0  0
   22.0624  -20.7449  -11.9462 O   0  0  0  0  0  0  0  0  0  0  0  0
   22.6440  -21.0204   -8.1239 C   0  0  0  0  0  0  0  0  0  0  0  0
   23.0443  -22.1192   -7.6399 O   0  0  0  0  0  0  0  0  0  0  0  0
   21.7017  -21.6751   -9.9124 O   0  0  0  0  0  0  0  0  0  0  0  0
   21.3028  -20.7352   -8.0592 O   0  0  0  0  0  0  0  0  0  0  0  0
  2  3  1  1
  2  1  1  0
  4  2  1  0
  5  7  1  0
  5  4  1  0
  5  6  1  6
  7  8  2  0
  9 10  1  0
  9  7  1  0
 10 11  1  1
 11 12  1  0
 12 17  2  0
 13 12  1  0
 13 14  2  0
 14 15  1  0
 15 16  2  0
 17 16  1  0
 18 10  1  0
 19 18  2  0
 20 18  1  0
 21 22  1  6
 21 20  1  0
 22 23  1  0
 23 24  2  0
 23 27  1  0
 25 28  1  0
 25 21  1  0
 26 25  2  0
M  END
$$$$
