LFD.pdb
     RDKit          3D

 28 28  0  0  1  0  0  0  0  0999 V2000
   17.7810  -12.6669  -18.2195 C   0  0  0  0  0  0  0  0  0  0  0  0
   18.1456  -13.1086  -16.8365 C   0  0  2  0  0  0  0  0  0  0  0  0
   17.0652  -13.9868  -16.2132 C   0  0  0  0  0  0  0  0  0  0  0  0
   18.4317  -11.9785  -15.8915 C   0  0  0  0  0  0  0  0  0  0  0  0
   19.4284  -11.0230  -16.4782 C   0  0  2  0  0  0  0  0  0  0  0  0
   20.7263  -11.6201  -16.6739 N   0  0  0  0  0  0  0  0  0  0  0  0
   19.5102   -9.8405  -15.5805 C   0  0  0  0  0  0  0  0  0  0  0  0
   18.4486   -9.2758  -15.2194 O   0  0  0  0  0  0  0  0  0  0  0  0
   20.7524   -9.3583  -15.1399 N   0  0  0  0  0  0  0  0  0  0  0  0
   20.7962   -8.1740  -14.2786 C   0  0  1  0  0  0  0  0  0  0  0  0
   22.0626   -8.2853  -13.4567 C   0  0  0  0  0  0  0  0  0  0  0  0
   23.2629   -8.4641  -14.2975 C   0  0  0  0  0  0  0  0  0  0  0  0
   23.7634   -7.4167  -15.0266 C   0  0  0  0  0  0  0  0  0  0  0  0
   24.8796   -7.5333  -15.8170 C   0  0  0  0  0  0  0  0  0  0  0  0
   25.5346   -8.7466  -15.8907 C   0  0  0  0  0  0  0  0  0  0  0  0
   25.0323   -9.7938  -15.1602 C   0  0  0  0  0  0  0  0  0  0  0  0
   23.9142   -9.6645  -14.3728 C   0  0  0  0  0  0  0  0  0  0  0  0
   20.7495   -6.9889  -15.1457 C   0  0  0  0  0  0  0  0  0  0  0  0
   20.9093   -7.1199  -16.3796 O   0  0  0  0  0  0  0  0  0  0  0  0
   20.5262   -5.7101  -14.5968 N   0  0  0  0  0  0  0  0  0  0  0  0
   20.5331   -4.5553  -15.5299 C   0  0  1  0  0  0  0  0  0  0  0  0
   19.1159   -4.3267  -16.0139 C   0  0  0  0  0  0  0  0  0  0  0  0
   19.0489   -3.0997  -16.8181 C   0  0  0  0  0  0  0  0  0  0  0  0
   19.9582   -2.8303  -17.6690 O   0  0  0  0  0  0  0  0  0  0  0  0
   21.0748   -3.3767  -14.8073 C   0  0  0  0  0  0  0  0  0  0  0  0
   20.9662   -3.3460  -13.5467 O   0  0  0  0  0  0  0  0  0  0  0  0
   18.0168   -2.1762  -16.7021 O   0  0  0  0  0  0  0  0  0  0  0  0
   21.6874   -2.3176  -15.4299 O   0  0  0  0  0  0  0  0  0  0  0  0
  2  3  1  1
  2  1  1  0
  4  2  1  0
  5  7  1  0
  5  4  1  0
  5  6  1  1
  7  8  2  0
  9 10  1  0
  9  7  1  0
 10 11  1  6
 11 12  1  0
 12 17  2  0
 13 12  1  0
 13 14  2  0
 14 15  1  0
 15 16  2  0
 17 16  1  0
 18 10  1  0
 19 18  2  0
 20 18  1  0
 21 22  1  1
 21 20  1  0
 22 23  1  0
 23 24  2  0
 23 27  1  0
 25 28  1  0
 25 21  1  0
 26 25  2  0
M  END
$$$$
