LFD.pdb
     RDKit          3D

 28 28  0  0  1  0  0  0  0  0999 V2000
   34.0941  -29.5775  -19.5074 C   0  0  0  0  0  0  0  0  0  0  0  0
   32.9888  -28.5710  -19.5852 C   0  0  2  0  0  0  0  0  0  0  0  0
   33.4805  -27.1576  -19.2890 C   0  0  0  0  0  0  0  0  0  0  0  0
   31.8328  -28.8638  -18.6741 C   0  0  0  0  0  0  0  0  0  0  0  0
   31.2341  -30.2060  -18.9755 C   0  0  2  0  0  0  0  0  0  0  0  0
   30.8501  -30.3485  -20.3581 N   0  0  0  0  0  0  0  0  0  0  0  0
   30.0699  -30.3999  -18.0711 C   0  0  0  0  0  0  0  0  0  0  0  0
   30.2254  -30.2393  -16.8358 O   0  0  0  0  0  0  0  0  0  0  0  0
   28.8136  -30.7569  -18.5848 N   0  0  0  0  0  0  0  0  0  0  0  0
   27.6733  -30.8722  -17.6722 C   0  0  1  0  0  0  0  0  0  0  0  0
   26.6471  -29.8598  -18.1345 C   0  0  0  0  0  0  0  0  0  0  0  0
   26.9864  -28.4857  -17.7147 C   0  0  0  0  0  0  0  0  0  0  0  0
   27.6094  -27.6272  -18.5830 C   0  0  0  0  0  0  0  0  0  0  0  0
   27.9386  -26.3394  -18.2401 C   0  0  0  0  0  0  0  0  0  0  0  0
   27.6368  -25.8764  -16.9748 C   0  0  0  0  0  0  0  0  0  0  0  0
   27.0132  -26.7370  -16.1070 C   0  0  0  0  0  0  0  0  0  0  0  0
   26.6889  -28.0237  -16.4621 C   0  0  0  0  0  0  0  0  0  0  0  0
   27.2025  -32.2632  -17.7190 C   0  0  0  0  0  0  0  0  0  0  0  0
   27.2786  -32.9053  -18.7900 O   0  0  0  0  0  0  0  0  0  0  0  0
   26.6681  -32.8759  -16.5677 N   0  0  0  0  0  0  0  0  0  0  0  0
   26.1351  -34.2540  -16.7119 C   0  0  1  0  0  0  0  0  0  0  0  0
   26.8342  -35.1423  -15.7033 C   0  0  0  0  0  0  0  0  0  0  0  0
   26.3530  -36.5241  -15.8286 C   0  0  0  0  0  0  0  0  0  0  0  0
   25.4850  -36.8324  -16.7088 O   0  0  0  0  0  0  0  0  0  0  0  0
   24.6666  -34.2098  -16.4959 C   0  0  0  0  0  0  0  0  0  0  0  0
   24.0102  -35.2838  -16.6274 O   0  0  0  0  0  0  0  0  0  0  0  0
   26.8007  -37.5565  -15.0128 O   0  0  0  0  0  0  0  0  0  0  0  0
   23.9805  -33.0688  -16.1612 O   0  0  0  0  0  0  0  0  0  0  0  0
  2  3  1  1
  2  1  1  0
  4  2  1  0
  5  7  1  0
  5  4  1  0
  5  6  1  6
  7  8  2  0
  9 10  1  0
  9  7  1  0
 10 11  1  6
 11 12  1  0
 12 17  2  0
 13 12  1  0
 13 14  2  0
 14 15  1  0
 15 16  2  0
 17 16  1  0
 18 10  1  0
 19 18  2  0
 20 18  1  0
 21 22  1  1
 21 20  1  0
 22 23  1  0
 23 24  2  0
 23 27  1  0
 25 28  1  0
 25 21  1  0
 26 25  2  0
M  END
$$$$
