LFD.pdb
     RDKit          3D

 28 28  0  0  1  0  0  0  0  0999 V2000
   31.1604  -40.8339   -6.2946 C   0  0  0  0  0  0  0  0  0  0  0  0
   32.6254  -40.5393   -6.2062 C   0  0  2  0  0  0  0  0  0  0  0  0
   33.4251  -41.7510   -5.7379 C   0  0  0  0  0  0  0  0  0  0  0  0
   32.9615  -39.3832   -5.3104 C   0  0  0  0  0  0  0  0  0  0  0  0
   32.1717  -38.1635   -5.6834 C   0  0  2  0  0  0  0  0  0  0  0  0
   32.6065  -37.5749   -6.9260 N   0  0  0  0  0  0  0  0  0  0  0  0
   32.2758  -37.1920   -4.5626 C   0  0  0  0  0  0  0  0  0  0  0  0
   33.4120  -36.8919   -4.1208 O   0  0  0  0  0  0  0  0  0  0  0  0
   31.1250  -36.6157   -4.0030 N   0  0  0  0  0  0  0  0  0  0  0  0
   31.2692  -35.5925   -2.9644 C   0  0  1  0  0  0  0  0  0  0  0  0
   30.7733  -34.2948   -3.5659 C   0  0  0  0  0  0  0  0  0  0  0  0
   31.6783  -33.7799   -4.6126 C   0  0  0  0  0  0  0  0  0  0  0  0
   32.9710  -33.4401   -4.3084 C   0  0  0  0  0  0  0  0  0  0  0  0
   33.8504  -32.9634   -5.2485 C   0  0  0  0  0  0  0  0  0  0  0  0
   33.4311  -32.8150   -6.5556 C   0  0  0  0  0  0  0  0  0  0  0  0
   32.1368  -33.1556   -6.8583 C   0  0  0  0  0  0  0  0  0  0  0  0
   31.2662  -33.6316   -5.9084 C   0  0  0  0  0  0  0  0  0  0  0  0
   30.5053  -36.0366   -1.7906 C   0  0  0  0  0  0  0  0  0  0  0  0
   29.3513  -36.4954   -1.9422 O   0  0  0  0  0  0  0  0  0  0  0  0
   31.0639  -35.9492   -0.4996 N   0  0  0  0  0  0  0  0  0  0  0  0
   30.2499  -36.4579    0.6330 C   0  0  1  0  0  0  0  0  0  0  0  0
   29.9654  -37.9263    0.3923 C   0  0  0  0  0  0  0  0  0  0  0  0
   28.7951  -38.3483    1.1728 C   0  0  0  0  0  0  0  0  0  0  0  0
   28.1875  -37.5232    1.9300 O   0  0  0  0  0  0  0  0  0  0  0  0
   31.0091  -36.2334    1.8893 C   0  0  0  0  0  0  0  0  0  0  0  0
   30.4891  -36.6142    2.9785 O   0  0  0  0  0  0  0  0  0  0  0  0
   28.2913  -39.6431    1.1381 O   0  0  0  0  0  0  0  0  0  0  0  0
   32.2441  -35.6358    1.9359 O   0  0  0  0  0  0  0  0  0  0  0  0
  2  3  1  1
  2  1  1  0
  4  2  1  0
  5  7  1  0
  5  4  1  0
  5  6  1  6
  7  8  2  0
  9 10  1  0
  9  7  1  0
 10 11  1  6
 11 12  1  0
 12 17  2  0
 13 12  1  0
 13 14  2  0
 14 15  1  0
 15 16  2  0
 17 16  1  0
 18 10  1  0
 19 18  2  0
 20 18  1  0
 21 22  1  6
 21 20  1  0
 22 23  1  0
 23 24  2  0
 23 27  1  0
 25 28  1  0
 25 21  1  0
 26 25  2  0
M  END
$$$$
