CNP.pdb
     RDKit          3D

 22 22  0  0  1  0  0  0  0  0999 V2000
   21.3825  -11.9514  -16.3330 N   0  0  0  0  0  0  0  0  0  0  0  0
   22.0728  -10.9317  -15.6051 C   0  0  1  0  0  0  0  0  0  0  0  0
   23.3565  -10.5844  -16.3145 C   0  0  0  0  0  0  0  0  0  0  0  0
   24.6220  -11.7831  -15.8340 S   0  0  0  0  0  0  0  0  0  0  0  0
   21.2190   -9.6971  -15.4695 C   0  0  0  0  0  0  0  0  0  0  0  0
   20.6641   -9.1830  -16.4742 O   0  0  0  0  0  0  0  0  0  0  0  0
   18.0129   -9.1043  -13.3571 N   0  0  0  0  0  0  0  0  0  0  0  0
   18.6816   -8.4686  -12.2759 C   0  0  0  0  0  0  0  0  0  0  0  0
   18.1954   -8.4682  -11.1286 O   0  0  0  0  0  0  0  0  0  0  0  0
   19.9613   -7.8088  -12.5336 C   0  0  0  0  0  0  0  0  0  0  0  0
   20.2730   -7.8340  -14.0277 C   0  0  2  0  0  0  0  0  0  0  0  0
   21.0141   -9.0778  -14.2131 N   0  0  0  0  0  0  0  0  0  0  0  0
   21.2388   -6.7175  -14.2391 C   0  0  0  0  0  0  0  0  0  0  0  0
   22.4393   -6.9489  -13.8517 O   0  0  0  0  0  0  0  0  0  0  0  0
   20.9040   -5.4831  -14.8182 N   0  0  0  0  0  0  0  0  0  0  0  0
   19.5400   -5.1071  -15.2070 C   0  0  0  0  0  0  0  0  0  0  0  0
   19.6772   -3.8350  -16.0177 C   0  0  0  0  0  0  0  0  0  0  0  0
   21.1257   -3.9172  -16.4492 C   0  0  0  0  0  0  0  0  0  0  0  0
   21.7604   -4.3650  -15.1193 C   0  0  1  0  0  0  0  0  0  0  0  0
   21.5085   -3.2240  -14.1873 C   0  0  0  0  0  0  0  0  0  0  0  0
   22.3873   -2.1553  -14.1683 O   0  0  0  0  0  0  0  0  0  0  0  0
   20.5272   -3.2128  -13.4283 O   0  0  0  0  0  0  0  0  0  0  0  0
  2  1  1  6
  2  3  1  0
  2  5  1  0
  3  4  1  0
  5 12  1  0
  5  6  2  0
  8  7  1  0
  8 10  1  0
  9  8  2  0
 11 10  1  1
 11 13  1  0
 12 11  1  0
 13 14  2  0
 13 15  1  0
 15 16  1  0
 16 17  1  0
 18 17  1  0
 19 15  1  0
 19 18  1  0
 19 20  1  1
 21 20  1  0
 22 20  2  0
M  END
$$$$
