CNP.pdb
     RDKit          3D

 22 22  0  0  1  0  0  0  0  0999 V2000
   23.6063  -25.8993  -16.1589 N   0  0  0  0  0  0  0  0  0  0  0  0
   24.8132  -25.3881  -15.5859 C   0  0  1  0  0  0  0  0  0  0  0  0
   25.9051  -25.3851  -16.6248 C   0  0  0  0  0  0  0  0  0  0  0  0
   26.6953  -27.0114  -16.6340 S   0  0  0  0  0  0  0  0  0  0  0  0
   24.6087  -23.9898  -15.0620 C   0  0  0  0  0  0  0  0  0  0  0  0
   23.8796  -23.1705  -15.6774 O   0  0  0  0  0  0  0  0  0  0  0  0
   25.2283  -19.8501  -12.0605 N   0  0  0  0  0  0  0  0  0  0  0  0
   25.5814  -20.9807  -11.2747 C   0  0  0  0  0  0  0  0  0  0  0  0
   25.8791  -20.8606  -10.0706 O   0  0  0  0  0  0  0  0  0  0  0  0
   25.5900  -22.2993  -11.9074 C   0  0  0  0  0  0  0  0  0  0  0  0
   25.1701  -22.1819  -13.3704 C   0  0  2  0  0  0  0  0  0  0  0  0
   25.2273  -23.5538  -13.8655 N   0  0  0  0  0  0  0  0  0  0  0  0
   26.2792  -21.4353  -14.0313 C   0  0  0  0  0  0  0  0  0  0  0  0
   27.4608  -21.8542  -13.7610 O   0  0  0  0  0  0  0  0  0  0  0  0
   26.0915  -20.3458  -14.8967 N   0  0  0  0  0  0  0  0  0  0  0  0
   24.8351  -19.5955  -15.0038 C   0  0  0  0  0  0  0  0  0  0  0  0
   24.9884  -18.7043  -16.2190 C   0  0  0  0  0  0  0  0  0  0  0  0
   26.0874  -19.4224  -16.9724 C   0  0  0  0  0  0  0  0  0  0  0  0
   27.0342  -19.7365  -15.7990 C   0  0  1  0  0  0  0  0  0  0  0  0
   27.4671  -18.3943  -15.3043 C   0  0  0  0  0  0  0  0  0  0  0  0
   28.5175  -17.7458  -15.9294 O   0  0  0  0  0  0  0  0  0  0  0  0
   26.9050  -17.8465  -14.3434 O   0  0  0  0  0  0  0  0  0  0  0  0
  2  1  1  6
  2  3  1  0
  2  5  1  0
  3  4  1  0
  5 12  1  0
  5  6  2  0
  8  7  1  0
  8 10  1  0
  9  8  2  0
 11 10  1  1
 11 13  1  0
 12 11  1  0
 13 14  2  0
 13 15  1  0
 15 16  1  0
 16 17  1  0
 18 17  1  0
 19 15  1  0
 19 18  1  0
 19 20  1  1
 21 20  1  0
 22 20  2  0
M  END
$$$$
