CNP.pdb
     RDKit          3D

 22 22  0  0  1  0  0  0  0  0999 V2000
   21.6829  -12.2824  -17.4879 N   0  0  0  0  0  0  0  0  0  0  0  0
   21.9582  -10.8956  -17.7051 C   0  0  1  0  0  0  0  0  0  0  0  0
   21.9642  -10.6063  -19.1843 C   0  0  0  0  0  0  0  0  0  0  0  0
   23.4063  -11.4097  -19.9220 S   0  0  0  0  0  0  0  0  0  0  0  0
   20.9289  -10.0307  -17.0240 C   0  0  0  0  0  0  0  0  0  0  0  0
   19.7459   -9.9805  -17.4481 O   0  0  0  0  0  0  0  0  0  0  0  0
   18.6767   -8.6588  -13.0486 N   0  0  0  0  0  0  0  0  0  0  0  0
   20.0026   -8.2507  -12.7388 C   0  0  0  0  0  0  0  0  0  0  0  0
   20.3354   -7.9762  -11.5699 O   0  0  0  0  0  0  0  0  0  0  0  0
   20.9789   -8.1571  -13.8239 C   0  0  0  0  0  0  0  0  0  0  0  0
   20.2993   -8.4201  -15.1652 C   0  0  2  0  0  0  0  0  0  0  0  0
   21.2573   -9.2495  -15.8899 N   0  0  0  0  0  0  0  0  0  0  0  0
   20.2685   -7.0948  -15.8484 C   0  0  0  0  0  0  0  0  0  0  0  0
   21.3986   -6.6764  -16.2869 O   0  0  0  0  0  0  0  0  0  0  0  0
   19.1081   -6.3241  -16.0239 N   0  0  0  0  0  0  0  0  0  0  0  0
   17.7763   -6.7386  -15.5685 C   0  0  0  0  0  0  0  0  0  0  0  0
   16.8034   -5.7578  -16.1896 C   0  0  0  0  0  0  0  0  0  0  0  0
   17.6229   -5.2238  -17.3448 C   0  0  0  0  0  0  0  0  0  0  0  0
   18.9706   -5.0235  -16.6269 C   0  0  1  0  0  0  0  0  0  0  0  0
   18.6889   -3.9768  -15.5978 C   0  0  0  0  0  0  0  0  0  0  0  0
   18.6385   -2.6470  -15.9769 O   0  0  0  0  0  0  0  0  0  0  0  0
   18.4986   -4.2735  -14.4082 O   0  0  0  0  0  0  0  0  0  0  0  0
  2  1  1  6
  2  3  1  0
  2  5  1  0
  3  4  1  0
  5 12  1  0
  5  6  2  0
  8  7  1  0
  8 10  1  0
  9  8  2  0
 11 10  1  1
 11 13  1  0
 12 11  1  0
 13 14  2  0
 13 15  1  0
 15 16  1  0
 16 17  1  0
 18 17  1  0
 19 15  1  0
 19 18  1  0
 19 20  1  1
 21 20  1  0
 22 20  2  0
M  END
$$$$
