CNP.pdb
     RDKit          3D

 22 22  0  0  1  0  0  0  0  0999 V2000
   26.1669  -22.4292  -11.1729 N   0  0  0  0  0  0  0  0  0  0  0  0
   25.4151  -21.2662  -11.5312 C   0  0  1  0  0  0  0  0  0  0  0  0
   25.1774  -20.4201  -10.3068 C   0  0  0  0  0  0  0  0  0  0  0  0
   23.9580  -21.2504   -9.2613 S   0  0  0  0  0  0  0  0  0  0  0  0
   26.1430  -20.4562  -12.5731 C   0  0  0  0  0  0  0  0  0  0  0  0
   27.2805  -19.9745  -12.3372 O   0  0  0  0  0  0  0  0  0  0  0  0
   28.6039  -21.5021  -15.5581 N   0  0  0  0  0  0  0  0  0  0  0  0
   27.2082  -21.7608  -15.6328 C   0  0  0  0  0  0  0  0  0  0  0  0
   26.7467  -22.8870  -15.3657 O   0  0  0  0  0  0  0  0  0  0  0  0
   26.3142  -20.6742  -16.0316 C   0  0  0  0  0  0  0  0  0  0  0  0
   26.2915  -19.5917  -14.9556 C   0  0  2  0  0  0  0  0  0  0  0  0
   25.5736  -20.2115  -13.8460 N   0  0  0  0  0  0  0  0  0  0  0  0
   25.4066  -18.5229  -15.5022 C   0  0  0  0  0  0  0  0  0  0  0  0
   24.1481  -18.7301  -15.3687 O   0  0  0  0  0  0  0  0  0  0  0  0
   25.8728  -17.3545  -16.1259 N   0  0  0  0  0  0  0  0  0  0  0  0
   27.2892  -17.0830  -16.3960 C   0  0  0  0  0  0  0  0  0  0  0  0
   27.3576  -15.6309  -16.8216 C   0  0  0  0  0  0  0  0  0  0  0  0
   26.0673  -15.0939  -16.2404 C   0  0  0  0  0  0  0  0  0  0  0  0
   25.1167  -16.2396  -16.6351 C   0  0  1  0  0  0  0  0  0  0  0  0
   25.1179  -16.2222  -18.1296 C   0  0  0  0  0  0  0  0  0  0  0  0
   24.3521  -15.2840  -18.7990 O   0  0  0  0  0  0  0  0  0  0  0  0
   25.7915  -17.0316  -18.7857 O   0  0  0  0  0  0  0  0  0  0  0  0
  2  1  1  1
  2  3  1  0
  2  5  1  0
  3  4  1  0
  5 12  1  0
  5  6  2  0
  8  7  1  0
  8 10  1  0
  9  8  2  0
 11 10  1  6
 11 13  1  0
 12 11  1  0
 13 14  2  0
 13 15  1  0
 15 16  1  0
 16 17  1  0
 18 17  1  0
 19 15  1  0
 19 18  1  0
 19 20  1  6
 21 20  1  0
 22 20  2  0
M  END
$$$$
