CNP.pdb
     RDKit          3D

 22 22  0  0  1  0  0  0  0  0999 V2000
   29.6385  -24.7264  -18.1858 N   0  0  0  0  0  0  0  0  0  0  0  0
   28.4458  -24.7335  -17.3962 C   0  0  1  0  0  0  0  0  0  0  0  0
   28.4487  -25.9346  -16.4857 C   0  0  0  0  0  0  0  0  0  0  0  0
   27.7526  -27.3402  -17.3852 S   0  0  0  0  0  0  0  0  0  0  0  0
   28.3386  -23.4749  -16.5740 C   0  0  0  0  0  0  0  0  0  0  0  0
   29.3555  -22.9675  -16.0356 O   0  0  0  0  0  0  0  0  0  0  0  0
   27.0821  -18.4200  -15.6139 N   0  0  0  0  0  0  0  0  0  0  0  0
   26.0338  -19.3685  -15.7619 C   0  0  0  0  0  0  0  0  0  0  0  0
   24.9011  -19.1559  -15.2881 O   0  0  0  0  0  0  0  0  0  0  0  0
   26.3082  -20.6094  -16.4858 C   0  0  0  0  0  0  0  0  0  0  0  0
   26.9138  -21.6447  -15.5415 C   0  0  2  0  0  0  0  0  0  0  0  0
   27.0957  -22.8249  -16.3811 N   0  0  0  0  0  0  0  0  0  0  0  0
   25.8268  -21.9650  -14.5720 C   0  0  0  0  0  0  0  0  0  0  0  0
   24.9325  -22.7792  -14.9987 O   0  0  0  0  0  0  0  0  0  0  0  0
   25.7471  -21.4380  -13.2731 N   0  0  0  0  0  0  0  0  0  0  0  0
   26.6963  -20.4601  -12.7294 C   0  0  0  0  0  0  0  0  0  0  0  0
   26.3997  -20.3769  -11.2463 C   0  0  0  0  0  0  0  0  0  0  0  0
   25.6844  -21.6908  -11.0163 C   0  0  0  0  0  0  0  0  0  0  0  0
   24.7652  -21.6977  -12.2520 C   0  0  1  0  0  0  0  0  0  0  0  0
   23.8682  -20.5191  -12.0516 C   0  0  0  0  0  0  0  0  0  0  0  0
   22.7859  -20.6264  -11.1961 O   0  0  0  0  0  0  0  0  0  0  0  0
   24.0720  -19.4438  -12.6360 O   0  0  0  0  0  0  0  0  0  0  0  0
  2  1  1  1
  2  3  1  0
  2  5  1  0
  3  4  1  0
  5 12  1  0
  5  6  2  0
  8  7  1  0
  8 10  1  0
  9  8  2  0
 11 10  1  6
 11 13  1  0
 12 11  1  0
 13 14  2  0
 13 15  1  0
 15 16  1  0
 16 17  1  0
 18 17  1  0
 19 15  1  0
 19 18  1  0
 19 20  1  1
 21 20  1  0
 22 20  2  0
M  END
$$$$
