CNP.pdb
     RDKit          3D

 22 22  0  0  1  0  0  0  0  0999 V2000
   14.7982  -22.2203    0.1867 N   0  0  0  0  0  0  0  0  0  0  0  0
   15.2661  -22.3276    1.5342 C   0  0  1  0  0  0  0  0  0  0  0  0
   15.8375  -23.7033    1.7635 C   0  0  0  0  0  0  0  0  0  0  0  0
   16.3332  -23.8389    3.4971 S   0  0  0  0  0  0  0  0  0  0  0  0
   16.3184  -21.2877    1.8217 C   0  0  0  0  0  0  0  0  0  0  0  0
   16.9255  -20.7081    0.8851 O   0  0  0  0  0  0  0  0  0  0  0  0
   15.6672  -17.9051    5.2695 N   0  0  0  0  0  0  0  0  0  0  0  0
   16.7703  -17.7458    4.3872 C   0  0  0  0  0  0  0  0  0  0  0  0
   17.6664  -16.9119    4.6203 O   0  0  0  0  0  0  0  0  0  0  0  0
   16.8374  -18.5838    3.1904 C   0  0  0  0  0  0  0  0  0  0  0  0
   17.6006  -19.8707    3.4931 C   0  0  2  0  0  0  0  0  0  0  0  0
   16.6573  -20.9302    3.1490 N   0  0  0  0  0  0  0  0  0  0  0  0
   17.7521  -19.8894    4.9766 C   0  0  0  0  0  0  0  0  0  0  0  0
   16.7068  -20.2410    5.6312 O   0  0  0  0  0  0  0  0  0  0  0  0
   18.9359  -19.5552    5.6534 N   0  0  0  0  0  0  0  0  0  0  0  0
   20.0657  -18.8597    5.0269 C   0  0  0  0  0  0  0  0  0  0  0  0
   21.2056  -18.9442    6.0208 C   0  0  0  0  0  0  0  0  0  0  0  0
   20.7721  -20.1238    6.8644 C   0  0  0  0  0  0  0  0  0  0  0  0
   19.2808  -19.7786    7.0337 C   0  0  1  0  0  0  0  0  0  0  0  0
   19.2834  -18.4984    7.8050 C   0  0  0  0  0  0  0  0  0  0  0  0
   19.4330  -18.5337    9.1802 O   0  0  0  0  0  0  0  0  0  0  0  0
   19.1543  -17.4018    7.2393 O   0  0  0  0  0  0  0  0  0  0  0  0
  2  1  1  6
  2  3  1  0
  2  5  1  0
  3  4  1  0
  5 12  1  0
  5  6  2  0
  8  7  1  0
  8 10  1  0
  9  8  2  0
 11 10  1  1
 11 13  1  0
 12 11  1  0
 13 14  2  0
 13 15  1  0
 15 16  1  0
 16 17  1  0
 18 17  1  0
 19 15  1  0
 19 18  1  0
 19 20  1  1
 21 20  1  0
 22 20  2  0
M  END
$$$$
