CNP.pdb
     RDKit          3D

 22 22  0  0  1  0  0  0  0  0999 V2000
   17.3714  -11.9536  -16.6856 N   0  0  0  0  0  0  0  0  0  0  0  0
   18.5420  -11.5715  -15.9578 C   0  0  1  0  0  0  0  0  0  0  0  0
   19.7531  -11.6935  -16.8468 C   0  0  0  0  0  0  0  0  0  0  0  0
   20.2473  -13.4316  -16.9105 S   0  0  0  0  0  0  0  0  0  0  0  0
   18.4235  -10.1556  -15.4551 C   0  0  0  0  0  0  0  0  0  0  0  0
   18.0837   -9.2231  -16.2275 O   0  0  0  0  0  0  0  0  0  0  0  0
   16.2446   -8.7649  -12.3736 N   0  0  0  0  0  0  0  0  0  0  0  0
   17.3629   -8.8893  -11.5051 C   0  0  0  0  0  0  0  0  0  0  0  0
   17.2149   -9.1743  -10.3011 O   0  0  0  0  0  0  0  0  0  0  0  0
   18.7025   -8.6755  -12.0520 C   0  0  0  0  0  0  0  0  0  0  0  0
   18.6263   -8.4747  -13.5633 C   0  0  2  0  0  0  0  0  0  0  0  0
   18.6892   -9.8293  -14.1033 N   0  0  0  0  0  0  0  0  0  0  0  0
   19.9064   -7.8021  -13.9281 C   0  0  0  0  0  0  0  0  0  0  0  0
   20.9385   -8.5629  -13.9548 O   0  0  0  0  0  0  0  0  0  0  0  0
   20.0220   -6.4359  -14.2302 N   0  0  0  0  0  0  0  0  0  0  0  0
   18.9452   -5.4606  -14.0249 C   0  0  0  0  0  0  0  0  0  0  0  0
   19.3974   -4.1933  -14.7206 C   0  0  0  0  0  0  0  0  0  0  0  0
   20.4249   -4.7406  -15.6879 C   0  0  0  0  0  0  0  0  0  0  0  0
   21.1575   -5.7193  -14.7512 C   0  0  1  0  0  0  0  0  0  0  0  0
   21.7697   -4.8426  -13.7069 C   0  0  0  0  0  0  0  0  0  0  0  0
   21.1544   -4.7235  -12.4733 O   0  0  0  0  0  0  0  0  0  0  0  0
   22.8198   -4.2174  -13.9212 O   0  0  0  0  0  0  0  0  0  0  0  0
  2  1  1  6
  2  3  1  0
  2  5  1  0
  3  4  1  0
  5 12  1  0
  5  6  2  0
  8  7  1  0
  8 10  1  0
  9  8  2  0
 11 10  1  1
 11 13  1  0
 12 11  1  0
 13 14  2  0
 13 15  1  0
 15 16  1  0
 16 17  1  0
 18 17  1  0
 19 15  1  0
 19 18  1  0
 19 20  1  1
 21 20  1  0
 22 20  2  0
M  END
$$$$
