CNP.pdb
     RDKit          3D

 22 22  0  0  1  0  0  0  0  0999 V2000
   29.0704  -20.7473  -16.3413 N   0  0  0  0  0  0  0  0  0  0  0  0
   28.3926  -19.8796  -15.4281 C   0  0  1  0  0  0  0  0  0  0  0  0
   27.6535  -18.8141  -16.1963 C   0  0  0  0  0  0  0  0  0  0  0  0
   28.6294  -17.2925  -16.1537 S   0  0  0  0  0  0  0  0  0  0  0  0
   27.4219  -20.6527  -14.5728 C   0  0  0  0  0  0  0  0  0  0  0  0
   26.8208  -21.6593  -15.0281 O   0  0  0  0  0  0  0  0  0  0  0  0
   24.0260  -20.6602  -10.2312 N   0  0  0  0  0  0  0  0  0  0  0  0
   25.4230  -20.8539  -10.0546 C   0  0  0  0  0  0  0  0  0  0  0  0
   25.8656  -21.5133   -9.0944 O   0  0  0  0  0  0  0  0  0  0  0  0
   26.3414  -20.2615  -11.0267 C   0  0  0  0  0  0  0  0  0  0  0  0
   26.1307  -20.8934  -12.4002 C   0  0  2  0  0  0  0  0  0  0  0  0
   27.1553  -20.2738  -13.2350 N   0  0  0  0  0  0  0  0  0  0  0  0
   24.8148  -20.3701  -12.8678 C   0  0  0  0  0  0  0  0  0  0  0  0
   24.7325  -19.0936  -12.9595 O   0  0  0  0  0  0  0  0  0  0  0  0
   23.7156  -21.1791  -13.1973 N   0  0  0  0  0  0  0  0  0  0  0  0
   23.6409  -22.6144  -12.9020 C   0  0  0  0  0  0  0  0  0  0  0  0
   22.4308  -23.1286  -13.6542 C   0  0  0  0  0  0  0  0  0  0  0  0
   22.2635  -22.0556  -14.7086 C   0  0  0  0  0  0  0  0  0  0  0  0
   22.4788  -20.8064  -13.8341 C   0  0  1  0  0  0  0  0  0  0  0  0
   21.3414  -20.8335  -12.8649 C   0  0  0  0  0  0  0  0  0  0  0  0
   20.0939  -20.3909  -13.2683 O   0  0  0  0  0  0  0  0  0  0  0  0
   21.4901  -21.2449  -11.7039 O   0  0  0  0  0  0  0  0  0  0  0  0
  2  1  1  6
  2  3  1  0
  2  5  1  0
  3  4  1  0
  5 12  1  0
  5  6  2  0
  8  7  1  0
  8 10  1  0
  9  8  2  0
 11 10  1  1
 11 13  1  0
 12 11  1  0
 13 14  2  0
 13 15  1  0
 15 16  1  0
 16 17  1  0
 18 17  1  0
 19 15  1  0
 19 18  1  0
 19 20  1  1
 21 20  1  0
 22 20  2  0
M  END
$$$$
