CNP.pdb
     RDKit          3D

 22 22  0  0  1  0  0  0  0  0999 V2000
   22.7828  -12.9880  -17.4517 N   0  0  0  0  0  0  0  0  0  0  0  0
   22.2675  -12.1775  -16.3917 C   0  0  1  0  0  0  0  0  0  0  0  0
   23.1201  -12.3516  -15.1611 C   0  0  0  0  0  0  0  0  0  0  0  0
   22.7833  -13.9812  -14.4535 S   0  0  0  0  0  0  0  0  0  0  0  0
   22.2438  -10.7241  -16.7899 C   0  0  0  0  0  0  0  0  0  0  0  0
   23.2655  -10.1700  -17.2702 O   0  0  0  0  0  0  0  0  0  0  0  0
   18.0083   -9.8614  -18.4045 N   0  0  0  0  0  0  0  0  0  0  0  0
   18.9987   -8.8423  -18.4369 C   0  0  0  0  0  0  0  0  0  0  0  0
   19.4533   -8.4201  -19.5175 O   0  0  0  0  0  0  0  0  0  0  0  0
   19.4802   -8.2922  -17.1701 C   0  0  0  0  0  0  0  0  0  0  0  0
   20.9807   -8.5348  -17.0293 C   0  0  2  0  0  0  0  0  0  0  0  0
   21.0765   -9.9376  -16.6373 N   0  0  0  0  0  0  0  0  0  0  0  0
   21.3932   -7.7246  -15.8471 C   0  0  0  0  0  0  0  0  0  0  0  0
   21.1593   -8.2601  -14.7056 O   0  0  0  0  0  0  0  0  0  0  0  0
   21.9993   -6.4608  -15.9290 N   0  0  0  0  0  0  0  0  0  0  0  0
   22.2367   -5.7497  -17.1903 C   0  0  0  0  0  0  0  0  0  0  0  0
   23.1333   -4.5794  -16.8423 C   0  0  0  0  0  0  0  0  0  0  0  0
   23.7364   -5.0504  -15.5364 C   0  0  0  0  0  0  0  0  0  0  0  0
   22.4716   -5.6151  -14.8632 C   0  0  1  0  0  0  0  0  0  0  0  0
   21.5858   -4.4247  -14.6839 C   0  0  0  0  0  0  0  0  0  0  0  0
   21.7463   -3.6197  -13.5699 O   0  0  0  0  0  0  0  0  0  0  0  0
   20.7076   -4.1407  -15.5130 O   0  0  0  0  0  0  0  0  0  0  0  0
  2  1  1  6
  2  3  1  0
  2  5  1  0
  3  4  1  0
  5 12  1  0
  5  6  2  0
  8  7  1  0
  8 10  1  0
  9  8  2  0
 11 10  1  1
 11 13  1  0
 12 11  1  0
 13 14  2  0
 13 15  1  0
 15 16  1  0
 16 17  1  0
 18 17  1  0
 19 15  1  0
 19 18  1  0
 19 20  1  6
 21 20  1  0
 22 20  2  0
M  END
$$$$
