CNP.pdb
     RDKit          3D

 22 22  0  0  1  0  0  0  0  0999 V2000
   17.7681  -15.5921  -17.4987 N   0  0  0  0  0  0  0  0  0  0  0  0
   17.6124  -14.4207  -16.6927 C   0  0  1  0  0  0  0  0  0  0  0  0
   17.3959  -14.8203  -15.2556 C   0  0  0  0  0  0  0  0  0  0  0  0
   15.6352  -15.1494  -15.0088 S   0  0  0  0  0  0  0  0  0  0  0  0
   18.8267  -13.5337  -16.7943 C   0  0  0  0  0  0  0  0  0  0  0  0
   19.9859  -14.0187  -16.7449 O   0  0  0  0  0  0  0  0  0  0  0  0
   21.3813   -9.2582  -19.1587 N   0  0  0  0  0  0  0  0  0  0  0  0
   20.4174   -9.1090  -18.1247 C   0  0  0  0  0  0  0  0  0  0  0  0
   20.4492   -8.1332  -17.3504 O   0  0  0  0  0  0  0  0  0  0  0  0
   19.3780  -10.1282  -17.9828 C   0  0  0  0  0  0  0  0  0  0  0  0
   19.8382  -11.2156  -17.0153 C   0  0  2  0  0  0  0  0  0  0  0  0
   18.7037  -12.1316  -16.9479 N   0  0  0  0  0  0  0  0  0  0  0  0
   19.9291  -10.5389  -15.6894 C   0  0  0  0  0  0  0  0  0  0  0  0
   18.8125  -10.3679  -15.0822 O   0  0  0  0  0  0  0  0  0  0  0  0
   21.1297  -10.1035  -15.1061 N   0  0  0  0  0  0  0  0  0  0  0  0
   22.4320  -10.1600  -15.7798 C   0  0  0  0  0  0  0  0  0  0  0  0
   23.4625   -9.8504  -14.7137 C   0  0  0  0  0  0  0  0  0  0  0  0
   22.6879  -10.1745  -13.4543 C   0  0  0  0  0  0  0  0  0  0  0  0
   21.3420   -9.5150  -13.8089 C   0  0  1  0  0  0  0  0  0  0  0  0
   21.6623   -8.0594  -13.9208 C   0  0  0  0  0  0  0  0  0  0  0  0
   21.8525   -7.4995  -15.1719 O   0  0  0  0  0  0  0  0  0  0  0  0
   21.7618   -7.3394  -12.9153 O   0  0  0  0  0  0  0  0  0  0  0  0
  2  1  1  6
  2  3  1  0
  2  5  1  0
  3  4  1  0
  5 12  1  0
  5  6  2  0
  8  7  1  0
  8 10  1  0
  9  8  2  0
 11 10  1  6
 11 13  1  0
 12 11  1  0
 13 14  2  0
 13 15  1  0
 15 16  1  0
 16 17  1  0
 18 17  1  0
 19 15  1  0
 19 18  1  0
 19 20  1  6
 21 20  1  0
 22 20  2  0
M  END
$$$$
