LIY.pdb
     RDKit          3D

 29 29  0  0  1  0  0  0  0  0999 V2000
    4.7911  -17.2459   21.7184 C   0  0  0  0  0  0  0  0  0  0  0  0
    6.2335  -17.5551   21.9343 C   0  0  1  0  0  0  0  0  0  0  0  0
    6.4113  -19.0568   21.9587 C   0  0  0  0  0  0  0  0  0  0  0  0
    7.1493  -16.8948   20.9402 C   0  0  0  0  0  0  0  0  0  0  0  0
    7.3392  -15.4363   21.1875 C   0  0  2  0  0  0  0  0  0  0  0  0
    8.2911  -14.9226   20.2212 N   0  0  0  0  0  0  0  0  0  0  0  0
    7.9206  -15.2514   22.5466 C   0  0  0  0  0  0  0  0  0  0  0  0
    9.1218  -15.5838   22.8007 O   0  0  0  0  0  0  0  0  0  0  0  0
    6.1169  -11.1054   25.4083 C   0  0  0  0  0  0  0  0  0  0  0  0
    7.0293  -12.1097   24.6796 C   0  0  0  0  0  0  0  0  0  0  0  0
    7.0641  -13.3279   25.5290 C   0  0  2  0  0  0  0  0  0  0  0  0
    7.5133  -13.0299   26.9530 C   0  0  0  0  0  0  0  0  0  0  0  0
    7.8043  -14.5091   24.9623 C   0  0  2  0  0  0  0  0  0  0  0  0
    7.1796  -14.7007   23.6256 N   0  0  0  0  0  0  0  0  0  0  0  0
    7.6858  -15.7488   25.7413 C   0  0  0  0  0  0  0  0  0  0  0  0
    6.5380  -16.1531   26.1293 O   0  0  0  0  0  0  0  0  0  0  0  0
    8.1431  -23.5948   29.3600 O   0  0  0  0  0  0  0  0  0  0  0  0
    8.2044  -22.4581   28.5668 C   0  0  0  0  0  0  0  0  0  0  0  0
    7.0675  -21.6964   28.3525 C   0  0  0  0  0  0  0  0  0  0  0  0
    7.1801  -20.5853   27.5629 C   0  0  0  0  0  0  0  0  0  0  0  0
    8.3595  -20.1855   26.9718 C   0  0  0  0  0  0  0  0  0  0  0  0
    8.4751  -18.9899   26.1165 C   0  0  0  0  0  0  0  0  0  0  0  0
    8.6091  -17.7601   26.9548 C   0  0  2  0  0  0  0  0  0  0  0  0
    8.7680  -16.5718   26.1140 N   0  0  0  0  0  0  0  0  0  0  0  0
    9.7287  -17.8250   27.9067 C   0  0  0  0  0  0  0  0  0  0  0  0
    9.6044  -18.3143   29.0722 O   0  0  0  0  0  0  0  0  0  0  0  0
    9.4670  -20.9880   27.2221 C   0  0  0  0  0  0  0  0  0  0  0  0
    9.4102  -22.1090   28.0035 C   0  0  0  0  0  0  0  0  0  0  0  0
   10.9691  -17.3382   27.5212 O   0  0  0  0  0  0  0  0  0  0  0  0
  2  1  1  6
  3  2  1  0
  4  2  1  0
  5  4  1  0
  5  6  1  6
  7  8  2  0
  7  5  1  0
  9 10  1  0
 11 10  1  0
 11 13  1  0
 11 12  1  1
 13 15  1  0
 13 14  1  6
 14  7  1  0
 15 16  2  0
 17 18  1  0
 18 19  2  0
 18 28  1  0
 19 20  1  0
 20 21  2  0
 21 22  1  0
 23 22  1  6
 23 25  1  0
 24 23  1  0
 24 15  1  0
 25 26  2  0
 25 29  1  0
 27 21  1  0
 28 27  2  0
M  END
$$$$
