LIY.pdb
     RDKit          3D

 29 29  0  0  1  0  0  0  0  0999 V2000
    6.5992  -18.5804   19.5560 C   0  0  0  0  0  0  0  0  0  0  0  0
    6.6158  -17.0926   19.6525 C   0  0  1  0  0  0  0  0  0  0  0  0
    5.1899  -16.5931   19.7191 C   0  0  0  0  0  0  0  0  0  0  0  0
    7.4505  -16.5692   20.7892 C   0  0  0  0  0  0  0  0  0  0  0  0
    7.3007  -15.1013   21.0071 C   0  0  2  0  0  0  0  0  0  0  0  0
    7.9273  -14.4025   19.9012 N   0  0  0  0  0  0  0  0  0  0  0  0
    8.0223  -14.7251   22.2549 C   0  0  0  0  0  0  0  0  0  0  0  0
    9.2783  -14.5239   22.2551 O   0  0  0  0  0  0  0  0  0  0  0  0
    5.3862  -11.9660   26.1209 C   0  0  0  0  0  0  0  0  0  0  0  0
    6.4406  -12.3853   25.0794 C   0  0  0  0  0  0  0  0  0  0  0  0
    7.1008  -13.5988   25.6256 C   0  0  2  0  0  0  0  0  0  0  0  0
    7.6495  -13.3792   27.0288 C   0  0  0  0  0  0  0  0  0  0  0  0
    8.1258  -14.2511   24.7378 C   0  0  2  0  0  0  0  0  0  0  0  0
    7.3612  -14.5705   23.5021 N   0  0  0  0  0  0  0  0  0  0  0  0
    8.7229  -15.4803   25.2767 C   0  0  0  0  0  0  0  0  0  0  0  0
    7.9728  -16.4384   25.6652 O   0  0  0  0  0  0  0  0  0  0  0  0
   14.1342  -22.2442   26.5787 O   0  0  0  0  0  0  0  0  0  0  0  0
   13.5981  -21.0182   26.2119 C   0  0  0  0  0  0  0  0  0  0  0  0
   12.7281  -20.9321   25.1376 C   0  0  0  0  0  0  0  0  0  0  0  0
   12.2270  -19.7007   24.8161 C   0  0  0  0  0  0  0  0  0  0  0  0
   12.5408  -18.5464   25.5012 C   0  0  0  0  0  0  0  0  0  0  0  0
   12.0026  -17.2200   25.1473 C   0  0  0  0  0  0  0  0  0  0  0  0
   10.6621  -17.0166   25.7758 C   0  0  2  0  0  0  0  0  0  0  0  0
   10.1071  -15.7126   25.4076 N   0  0  0  0  0  0  0  0  0  0  0  0
   10.6849  -17.1294   27.2422 C   0  0  0  0  0  0  0  0  0  0  0  0
   10.8707  -16.1269   27.9997 O   0  0  0  0  0  0  0  0  0  0  0  0
   13.4183  -18.6937   26.5696 C   0  0  0  0  0  0  0  0  0  0  0  0
   13.9484  -19.9006   26.9340 C   0  0  0  0  0  0  0  0  0  0  0  0
   10.4937  -18.3737   27.8247 O   0  0  0  0  0  0  0  0  0  0  0  0
  2  1  1  1
  3  2  1  0
  4  2  1  0
  5  4  1  0
  5  6  1  6
  7  8  2  0
  7  5  1  0
  9 10  1  0
 11 10  1  0
 11 13  1  0
 11 12  1  1
 13 15  1  0
 13 14  1  6
 14  7  1  0
 15 16  2  0
 17 18  1  0
 18 19  2  0
 18 28  1  0
 19 20  1  0
 20 21  2  0
 21 22  1  0
 23 22  1  1
 23 25  1  0
 24 23  1  0
 24 15  1  0
 25 26  2  0
 25 29  1  0
 27 21  1  0
 28 27  2  0
M  END
$$$$
