LIY.pdb
     RDKit          3D

 29 29  0  0  1  0  0  0  0  0999 V2000
    7.7426  -20.2390   22.5956 C   0  0  0  0  0  0  0  0  0  0  0  0
    6.5500  -19.6592   23.2770 C   0  0  1  0  0  0  0  0  0  0  0  0
    5.9652  -20.7004   24.2050 C   0  0  0  0  0  0  0  0  0  0  0  0
    6.8298  -18.3634   23.9881 C   0  0  0  0  0  0  0  0  0  0  0  0
    6.4411  -17.1589   23.1991 C   0  0  2  0  0  0  0  0  0  0  0  0
    6.7120  -17.4158   21.7975 N   0  0  0  0  0  0  0  0  0  0  0  0
    7.2885  -16.0107   23.6268 C   0  0  0  0  0  0  0  0  0  0  0  0
    8.4120  -15.7796   23.0770 O   0  0  0  0  0  0  0  0  0  0  0  0
    4.8397  -11.7797   25.9103 C   0  0  0  0  0  0  0  0  0  0  0  0
    5.7592  -12.5662   24.9572 C   0  0  0  0  0  0  0  0  0  0  0  0
    6.8915  -13.0549   25.7854 C   0  0  2  0  0  0  0  0  0  0  0  0
    7.6720  -11.9178   26.4304 C   0  0  0  0  0  0  0  0  0  0  0  0
    7.8159  -14.0424   25.1262 C   0  0  2  0  0  0  0  0  0  0  0  0
    6.8990  -15.1174   24.6597 N   0  0  0  0  0  0  0  0  0  0  0  0
    8.8399  -14.6192   26.0073 C   0  0  0  0  0  0  0  0  0  0  0  0
    8.7002  -14.5583   27.2755 O   0  0  0  0  0  0  0  0  0  0  0  0
   13.4991  -19.3480   31.1410 O   0  0  0  0  0  0  0  0  0  0  0  0
   12.6650  -18.7810   30.1883 C   0  0  0  0  0  0  0  0  0  0  0  0
   12.1938  -19.5439   29.1327 C   0  0  0  0  0  0  0  0  0  0  0  0
   11.3745  -18.9385   28.2200 C   0  0  0  0  0  0  0  0  0  0  0  0
   10.9949  -17.6154   28.2948 C   0  0  0  0  0  0  0  0  0  0  0  0
   10.1160  -16.9653   27.3054 C   0  0  0  0  0  0  0  0  0  0  0  0
   10.8967  -16.0091   26.4631 C   0  0  2  0  0  0  0  0  0  0  0  0
   10.0120  -15.2650   25.5643 N   0  0  0  0  0  0  0  0  0  0  0  0
   11.9481  -16.6607   25.6671 C   0  0  0  0  0  0  0  0  0  0  0  0
   13.1746  -16.3480   25.7722 O   0  0  0  0  0  0  0  0  0  0  0  0
   11.4980  -16.8993   29.3752 C   0  0  0  0  0  0  0  0  0  0  0  0
   12.3203  -17.4550   30.3162 C   0  0  0  0  0  0  0  0  0  0  0  0
   11.5928  -17.6566   24.7692 O   0  0  0  0  0  0  0  0  0  0  0  0
  2  1  1  1
  3  2  1  0
  4  2  1  0
  5  4  1  0
  5  6  1  6
  7  8  2  0
  7  5  1  0
  9 10  1  0
 11 10  1  0
 11 13  1  0
 11 12  1  6
 13 15  1  0
 13 14  1  1
 14  7  1  0
 15 16  2  0
 17 18  1  0
 18 19  2  0
 18 28  1  0
 19 20  1  0
 20 21  2  0
 21 22  1  0
 23 22  1  6
 23 25  1  0
 24 23  1  0
 24 15  1  0
 25 26  2  0
 25 29  1  0
 27 21  1  0
 28 27  2  0
M  END
$$$$
