LIY.pdb
     RDKit          3D

 29 29  0  0  1  0  0  0  0  0999 V2000
    6.7388  -19.5677   20.8076 C   0  0  0  0  0  0  0  0  0  0  0  0
    6.7149  -18.0907   20.6056 C   0  0  1  0  0  0  0  0  0  0  0  0
    5.2756  -17.6288   20.5587 C   0  0  0  0  0  0  0  0  0  0  0  0
    7.5193  -17.3278   21.6224 C   0  0  0  0  0  0  0  0  0  0  0  0
    7.3101  -15.8525   21.5573 C   0  0  2  0  0  0  0  0  0  0  0  0
    7.8425  -15.3641   20.2996 N   0  0  0  0  0  0  0  0  0  0  0  0
    8.0776  -15.2096   22.6604 C   0  0  0  0  0  0  0  0  0  0  0  0
    9.3355  -15.0405   22.5772 O   0  0  0  0  0  0  0  0  0  0  0  0
    5.6545  -11.5939   25.9243 C   0  0  0  0  0  0  0  0  0  0  0  0
    6.7310  -12.2000   25.0044 C   0  0  0  0  0  0  0  0  0  0  0  0
    7.2973  -13.3597   25.7399 C   0  0  2  0  0  0  0  0  0  0  0  0
    7.8563  -12.9672   27.1008 C   0  0  0  0  0  0  0  0  0  0  0  0
    8.2739  -14.2141   24.9779 C   0  0  2  0  0  0  0  0  0  0  0  0
    7.4601  -14.7530   23.8550 N   0  0  0  0  0  0  0  0  0  0  0  0
    8.8540  -15.3268   25.7414 C   0  0  0  0  0  0  0  0  0  0  0  0
    8.1124  -16.2919   26.1286 O   0  0  0  0  0  0  0  0  0  0  0  0
   14.3436  -20.9679   29.6374 O   0  0  0  0  0  0  0  0  0  0  0  0
   13.7915  -19.9806   28.8341 C   0  0  0  0  0  0  0  0  0  0  0  0
   13.0324  -20.3264   27.7283 C   0  0  0  0  0  0  0  0  0  0  0  0
   12.5102  -19.3162   26.9684 C   0  0  0  0  0  0  0  0  0  0  0  0
   12.6987  -17.9786   27.2433 C   0  0  0  0  0  0  0  0  0  0  0  0
   12.1386  -16.8928   26.4179 C   0  0  0  0  0  0  0  0  0  0  0  0
   10.7470  -16.5694   26.8563 C   0  0  2  0  0  0  0  0  0  0  0  0
   10.2132  -15.4352   26.0995 N   0  0  0  0  0  0  0  0  0  0  0  0
   10.6444  -16.2753   28.2939 C   0  0  0  0  0  0  0  0  0  0  0  0
   10.7612  -15.0990   28.7586 O   0  0  0  0  0  0  0  0  0  0  0  0
   13.4687  -17.6917   28.3650 C   0  0  0  0  0  0  0  0  0  0  0  0
   14.0142  -18.6623   29.1591 C   0  0  0  0  0  0  0  0  0  0  0  0
   10.4081  -17.3170   29.1789 O   0  0  0  0  0  0  0  0  0  0  0  0
  2  1  1  1
  3  2  1  0
  4  2  1  0
  5  4  1  0
  5  6  1  6
  7  8  2  0
  7  5  1  0
  9 10  1  0
 11 10  1  0
 11 13  1  0
 11 12  1  1
 13 15  1  0
 13 14  1  6
 14  7  1  0
 15 16  2  0
 17 18  1  0
 18 19  2  0
 18 28  1  0
 19 20  1  0
 20 21  2  0
 21 22  1  0
 23 22  1  6
 23 25  1  0
 24 23  1  0
 24 15  1  0
 25 26  2  0
 25 29  1  0
 27 21  1  0
 28 27  2  0
M  END
$$$$
