LIY.pdb
     RDKit          3D

 29 29  0  0  1  0  0  0  0  0999 V2000
    7.2908  -12.8592   18.2061 C   0  0  0  0  0  0  0  0  0  0  0  0
    7.2397  -14.1439   18.9610 C   0  0  1  0  0  0  0  0  0  0  0  0
    6.7989  -15.2437   18.0212 C   0  0  0  0  0  0  0  0  0  0  0  0
    8.5253  -14.4843   19.6640 C   0  0  0  0  0  0  0  0  0  0  0  0
    8.3475  -15.4437   20.7920 C   0  0  2  0  0  0  0  0  0  0  0  0
    6.9280  -15.6126   21.0373 N   0  0  0  0  0  0  0  0  0  0  0  0
    8.9585  -14.8605   22.0192 C   0  0  0  0  0  0  0  0  0  0  0  0
   10.2021  -14.5998   22.0766 O   0  0  0  0  0  0  0  0  0  0  0  0
    5.7712  -13.0388   26.4817 C   0  0  0  0  0  0  0  0  0  0  0  0
    6.7729  -14.0172   25.8401 C   0  0  0  0  0  0  0  0  0  0  0  0
    7.6911  -13.1880   25.0178 C   0  0  2  0  0  0  0  0  0  0  0  0
    6.9461  -12.3190   24.0138 C   0  0  0  0  0  0  0  0  0  0  0  0
    8.8334  -13.9164   24.3630 C   0  0  2  0  0  0  0  0  0  0  0  0
    8.2002  -14.5645   23.1829 N   0  0  0  0  0  0  0  0  0  0  0  0
    9.4782  -14.9392   25.1971 C   0  0  0  0  0  0  0  0  0  0  0  0
   10.3086  -14.5943   26.1043 O   0  0  0  0  0  0  0  0  0  0  0  0
   11.4582  -14.2412   31.2062 O   0  0  0  0  0  0  0  0  0  0  0  0
   10.9295  -15.0713   30.2282 C   0  0  0  0  0  0  0  0  0  0  0  0
   11.2968  -16.4057   30.1744 C   0  0  0  0  0  0  0  0  0  0  0  0
   10.7478  -17.1822   29.1914 C   0  0  0  0  0  0  0  0  0  0  0  0
    9.8528  -16.7092   28.2558 C   0  0  0  0  0  0  0  0  0  0  0  0
    9.2678  -17.5488   27.1941 C   0  0  0  0  0  0  0  0  0  0  0  0
    9.9709  -17.3137   25.8966 C   0  0  2  0  0  0  0  0  0  0  0  0
    9.2535  -16.3266   25.0872 N   0  0  0  0  0  0  0  0  0  0  0  0
   10.1532  -18.5396   25.1043 C   0  0  0  0  0  0  0  0  0  0  0  0
   10.8007  -19.5419   25.5393 O   0  0  0  0  0  0  0  0  0  0  0  0
    9.5212  -15.3629   28.3587 C   0  0  0  0  0  0  0  0  0  0  0  0
   10.0402  -14.5420   29.3215 C   0  0  0  0  0  0  0  0  0  0  0  0
    9.5968  -18.6100   23.8355 O   0  0  0  0  0  0  0  0  0  0  0  0
  2  1  1  6
  3  2  1  0
  4  2  1  0
  5  4  1  0
  5  6  1  1
  7  8  2  0
  7  5  1  0
  9 10  1  0
 11 10  1  0
 11 13  1  0
 11 12  1  6
 13 15  1  0
 13 14  1  6
 14  7  1  0
 15 16  2  0
 17 18  1  0
 18 19  2  0
 18 28  1  0
 19 20  1  0
 20 21  2  0
 21 22  1  0
 23 22  1  1
 23 25  1  0
 24 23  1  0
 24 15  1  0
 25 26  2  0
 25 29  1  0
 27 21  1  0
 28 27  2  0
M  END
$$$$
