LIY.pdb
     RDKit          3D

 29 29  0  0  1  0  0  0  0  0999 V2000
    7.4337  -12.9732   18.6600 C   0  0  0  0  0  0  0  0  0  0  0  0
    7.5462  -14.1576   19.5586 C   0  0  1  0  0  0  0  0  0  0  0  0
    8.2887  -15.2542   18.8283 C   0  0  0  0  0  0  0  0  0  0  0  0
    8.1674  -13.8478   20.8931 C   0  0  0  0  0  0  0  0  0  0  0  0
    8.2470  -15.0304   21.7983 C   0  0  2  0  0  0  0  0  0  0  0  0
    6.9051  -15.5337   22.0221 N   0  0  0  0  0  0  0  0  0  0  0  0
    8.7976  -14.5935   23.1118 C   0  0  0  0  0  0  0  0  0  0  0  0
    9.9689  -14.1068   23.2068 O   0  0  0  0  0  0  0  0  0  0  0  0
    5.7856  -11.8161   26.3304 C   0  0  0  0  0  0  0  0  0  0  0  0
    6.9641  -12.3578   25.4995 C   0  0  0  0  0  0  0  0  0  0  0  0
    7.5245  -13.4967   26.2712 C   0  0  2  0  0  0  0  0  0  0  0  0
    7.8848  -13.1090   27.6989 C   0  0  0  0  0  0  0  0  0  0  0  0
    8.6474  -14.2527   25.6142 C   0  0  2  0  0  0  0  0  0  0  0  0
    8.0586  -14.6926   24.3205 N   0  0  0  0  0  0  0  0  0  0  0  0
    9.1267  -15.4248   26.3586 C   0  0  0  0  0  0  0  0  0  0  0  0
    8.3510  -16.4210   26.5514 O   0  0  0  0  0  0  0  0  0  0  0  0
   12.7688  -16.6426   21.4791 O   0  0  0  0  0  0  0  0  0  0  0  0
   12.6449  -16.7758   22.8545 C   0  0  0  0  0  0  0  0  0  0  0  0
   12.0749  -17.9167   23.3950 C   0  0  0  0  0  0  0  0  0  0  0  0
   11.9754  -17.9998   24.7566 C   0  0  0  0  0  0  0  0  0  0  0  0
   12.4101  -17.0129   25.6152 C   0  0  0  0  0  0  0  0  0  0  0  0
   12.2957  -17.1044   27.0824 C   0  0  0  0  0  0  0  0  0  0  0  0
   10.8985  -16.7998   27.5164 C   0  0  2  0  0  0  0  0  0  0  0  0
   10.4209  -15.5599   26.9010 N   0  0  0  0  0  0  0  0  0  0  0  0
   10.7534  -16.6951   28.9765 C   0  0  0  0  0  0  0  0  0  0  0  0
   10.3984  -15.6191   29.5504 O   0  0  0  0  0  0  0  0  0  0  0  0
   12.9734  -15.8916   25.0164 C   0  0  0  0  0  0  0  0  0  0  0  0
   13.0974  -15.7571   23.6611 C   0  0  0  0  0  0  0  0  0  0  0  0
   11.0097  -17.8107   29.7600 O   0  0  0  0  0  0  0  0  0  0  0  0
  2  1  1  6
  3  2  1  0
  4  2  1  0
  5  4  1  0
  5  6  1  1
  7  8  2  0
  7  5  1  0
  9 10  1  0
 11 10  1  0
 11 13  1  0
 11 12  1  1
 13 15  1  0
 13 14  1  6
 14  7  1  0
 15 16  2  0
 17 18  1  0
 18 19  2  0
 18 28  1  0
 19 20  1  0
 20 21  2  0
 21 22  1  0
 23 22  1  1
 23 25  1  0
 24 23  1  0
 24 15  1  0
 25 26  2  0
 25 29  1  0
 27 21  1  0
 28 27  2  0
M  END
$$$$
