LIY.pdb
     RDKit          3D

 29 29  0  0  1  0  0  0  0  0999 V2000
    7.7197  -18.4051   19.2977 C   0  0  0  0  0  0  0  0  0  0  0  0
    6.8471  -18.1501   20.4794 C   0  0  1  0  0  0  0  0  0  0  0  0
    6.2608  -19.4643   20.9444 C   0  0  0  0  0  0  0  0  0  0  0  0
    7.5385  -17.4149   21.5948 C   0  0  0  0  0  0  0  0  0  0  0  0
    7.4252  -15.9317   21.4863 C   0  0  2  0  0  0  0  0  0  0  0  0
    8.0610  -15.5074   20.2536 N   0  0  0  0  0  0  0  0  0  0  0  0
    8.1636  -15.3094   22.6207 C   0  0  0  0  0  0  0  0  0  0  0  0
    9.4227  -15.1358   22.5717 O   0  0  0  0  0  0  0  0  0  0  0  0
    5.5050  -11.6685   25.5793 C   0  0  0  0  0  0  0  0  0  0  0  0
    6.6218  -12.2966   24.7245 C   0  0  0  0  0  0  0  0  0  0  0  0
    7.2480  -13.3458   25.5693 C   0  0  2  0  0  0  0  0  0  0  0  0
    7.7701  -12.7936   26.8887 C   0  0  0  0  0  0  0  0  0  0  0  0
    8.2799  -14.2094   24.8959 C   0  0  2  0  0  0  0  0  0  0  0  0
    7.5158  -14.8785   23.8086 N   0  0  0  0  0  0  0  0  0  0  0  0
    8.8983  -15.2255   25.7577 C   0  0  0  0  0  0  0  0  0  0  0  0
    8.1768  -16.1294   26.2997 O   0  0  0  0  0  0  0  0  0  0  0  0
   14.5593  -20.4292   29.9983 O   0  0  0  0  0  0  0  0  0  0  0  0
   14.0132  -19.4394   29.1939 C   0  0  0  0  0  0  0  0  0  0  0  0
   13.7123  -19.7064   27.8686 C   0  0  0  0  0  0  0  0  0  0  0  0
   13.1756  -18.6972   27.1175 C   0  0  0  0  0  0  0  0  0  0  0  0
   12.9197  -17.4344   27.6073 C   0  0  0  0  0  0  0  0  0  0  0  0
   12.3463  -16.3476   26.7923 C   0  0  0  0  0  0  0  0  0  0  0  0
   10.8541  -16.3694   26.8699 C   0  0  2  0  0  0  0  0  0  0  0  0
   10.2748  -15.3013   26.0527 N   0  0  0  0  0  0  0  0  0  0  0  0
   10.3420  -16.2510   28.2438 C   0  0  0  0  0  0  0  0  0  0  0  0
   10.1386  -15.1277   28.8005 O   0  0  0  0  0  0  0  0  0  0  0  0
   13.2417  -17.2245   28.9436 C   0  0  0  0  0  0  0  0  0  0  0  0
   13.7800  -18.1978   29.7393 C   0  0  0  0  0  0  0  0  0  0  0  0
   10.0665  -17.4057   28.9613 O   0  0  0  0  0  0  0  0  0  0  0  0
  2  1  1  6
  3  2  1  0
  4  2  1  0
  5  4  1  0
  5  6  1  6
  7  8  2  0
  7  5  1  0
  9 10  1  0
 11 10  1  0
 11 13  1  0
 11 12  1  1
 13 15  1  0
 13 14  1  6
 14  7  1  0
 15 16  2  0
 17 18  1  0
 18 19  2  0
 18 28  1  0
 19 20  1  0
 20 21  2  0
 21 22  1  0
 23 22  1  1
 23 25  1  0
 24 23  1  0
 24 15  1  0
 25 26  2  0
 25 29  1  0
 27 21  1  0
 28 27  2  0
M  END
$$$$
