LIY.pdb
     RDKit          3D

 29 29  0  0  1  0  0  0  0  0999 V2000
    5.4032  -18.9585   20.5910 C   0  0  0  0  0  0  0  0  0  0  0  0
    6.0196  -17.6108   20.4284 C   0  0  1  0  0  0  0  0  0  0  0  0
    4.9467  -16.6324   20.0054 C   0  0  0  0  0  0  0  0  0  0  0  0
    6.7675  -17.1367   21.6445 C   0  0  0  0  0  0  0  0  0  0  0  0
    7.1809  -15.7059   21.5652 C   0  0  2  0  0  0  0  0  0  0  0  0
    8.1597  -15.5645   20.5041 N   0  0  0  0  0  0  0  0  0  0  0  0
    7.8364  -15.3237   22.8472 C   0  0  0  0  0  0  0  0  0  0  0  0
    9.0539  -15.6118   23.0768 O   0  0  0  0  0  0  0  0  0  0  0  0
    6.1187  -10.9814   25.5652 C   0  0  0  0  0  0  0  0  0  0  0  0
    7.0760  -11.9855   24.8961 C   0  0  0  0  0  0  0  0  0  0  0  0
    7.0558  -13.2041   25.7454 C   0  0  2  0  0  0  0  0  0  0  0  0
    7.4644  -12.9161   27.1836 C   0  0  0  0  0  0  0  0  0  0  0  0
    7.7877  -14.4015   25.2026 C   0  0  2  0  0  0  0  0  0  0  0  0
    7.1515  -14.6246   23.8762 N   0  0  0  0  0  0  0  0  0  0  0  0
    7.6720  -15.6210   26.0133 C   0  0  0  0  0  0  0  0  0  0  0  0
    6.5602  -16.2471   26.0714 O   0  0  0  0  0  0  0  0  0  0  0  0
    9.2587  -23.9251   27.1109 O   0  0  0  0  0  0  0  0  0  0  0  0
    9.1131  -22.5796   26.8050 C   0  0  0  0  0  0  0  0  0  0  0  0
    7.8567  -21.9968   26.8080 C   0  0  0  0  0  0  0  0  0  0  0  0
    7.7663  -20.6674   26.4995 C   0  0  0  0  0  0  0  0  0  0  0  0
    8.8543  -19.8808   26.1871 C   0  0  0  0  0  0  0  0  0  0  0  0
    8.7515  -18.4491   25.8495 C   0  0  0  0  0  0  0  0  0  0  0  0
    8.7777  -17.6175   27.0909 C   0  0  2  0  0  0  0  0  0  0  0  0
    8.7204  -16.1915   26.7634 N   0  0  0  0  0  0  0  0  0  0  0  0
    9.9579  -17.8673   27.9326 C   0  0  0  0  0  0  0  0  0  0  0  0
    9.9420  -18.6879   28.9019 O   0  0  0  0  0  0  0  0  0  0  0  0
   10.0892  -20.5194   26.2000 C   0  0  0  0  0  0  0  0  0  0  0  0
   10.2364  -21.8452   26.5013 C   0  0  0  0  0  0  0  0  0  0  0  0
   11.1354  -17.1865   27.6600 O   0  0  0  0  0  0  0  0  0  0  0  0
  2  1  1  1
  3  2  1  0
  4  2  1  0
  5  4  1  0
  5  6  1  6
  7  8  2  0
  7  5  1  0
  9 10  1  0
 11 10  1  0
 11 13  1  0
 11 12  1  1
 13 15  1  0
 13 14  1  6
 14  7  1  0
 15 16  2  0
 17 18  1  0
 18 19  2  0
 18 28  1  0
 19 20  1  0
 20 21  2  0
 21 22  1  0
 23 22  1  6
 23 25  1  0
 24 23  1  0
 24 15  1  0
 25 26  2  0
 25 29  1  0
 27 21  1  0
 28 27  2  0
M  END
$$$$
