LIY.pdb
     RDKit          3D

 29 29  0  0  1  0  0  0  0  0999 V2000
    7.3724  -18.1474   18.7742 C   0  0  0  0  0  0  0  0  0  0  0  0
    6.6678  -17.0667   19.5214 C   0  0  1  0  0  0  0  0  0  0  0  0
    5.2813  -17.5496   19.8841 C   0  0  0  0  0  0  0  0  0  0  0  0
    7.4240  -16.5695   20.7229 C   0  0  0  0  0  0  0  0  0  0  0  0
    7.2911  -15.0999   20.9401 C   0  0  2  0  0  0  0  0  0  0  0  0
    7.9135  -14.4088   19.8271 N   0  0  0  0  0  0  0  0  0  0  0  0
    8.0288  -14.7291   22.1802 C   0  0  0  0  0  0  0  0  0  0  0  0
    9.2824  -14.5147   22.1624 O   0  0  0  0  0  0  0  0  0  0  0  0
    5.5817  -11.8079   25.9996 C   0  0  0  0  0  0  0  0  0  0  0  0
    6.6118  -12.3124   24.9716 C   0  0  0  0  0  0  0  0  0  0  0  0
    7.1850  -13.5598   25.5393 C   0  0  2  0  0  0  0  0  0  0  0  0
    7.7384  -13.3577   26.9433 C   0  0  0  0  0  0  0  0  0  0  0  0
    8.1691  -14.2924   24.6681 C   0  0  2  0  0  0  0  0  0  0  0  0
    7.3863  -14.5946   23.4394 N   0  0  0  0  0  0  0  0  0  0  0  0
    8.6921  -15.5420   25.2362 C   0  0  0  0  0  0  0  0  0  0  0  0
    7.8866  -16.4389   25.6584 O   0  0  0  0  0  0  0  0  0  0  0  0
   13.7433  -22.5228   26.8651 O   0  0  0  0  0  0  0  0  0  0  0  0
   13.2471  -21.3109   26.4070 C   0  0  0  0  0  0  0  0  0  0  0  0
   12.2637  -21.2849   25.4320 C   0  0  0  0  0  0  0  0  0  0  0  0
   11.8079  -20.0649   25.0141 C   0  0  0  0  0  0  0  0  0  0  0  0
   12.2733  -18.8657   25.5094 C   0  0  0  0  0  0  0  0  0  0  0  0
   11.7830  -17.5526   25.0517 C   0  0  0  0  0  0  0  0  0  0  0  0
   10.5340  -17.1788   25.7822 C   0  0  2  0  0  0  0  0  0  0  0  0
   10.0600  -15.8589   25.3612 N   0  0  0  0  0  0  0  0  0  0  0  0
   10.6923  -17.1856   27.2446 C   0  0  0  0  0  0  0  0  0  0  0  0
   11.0698  -16.1612   27.8937 O   0  0  0  0  0  0  0  0  0  0  0  0
   13.2595  -18.9535   26.4856 C   0  0  0  0  0  0  0  0  0  0  0  0
   13.7507  -20.1464   26.9396 C   0  0  0  0  0  0  0  0  0  0  0  0
   10.4173  -18.3503   27.9461 O   0  0  0  0  0  0  0  0  0  0  0  0
  2  1  1  1
  3  2  1  0
  4  2  1  0
  5  4  1  0
  5  6  1  6
  7  8  2  0
  7  5  1  0
  9 10  1  0
 11 10  1  0
 11 13  1  0
 11 12  1  1
 13 15  1  0
 13 14  1  6
 14  7  1  0
 15 16  2  0
 17 18  1  0
 18 19  2  0
 18 28  1  0
 19 20  1  0
 20 21  2  0
 21 22  1  0
 23 22  1  6
 23 25  1  0
 24 23  1  0
 24 15  1  0
 25 26  2  0
 25 29  1  0
 27 21  1  0
 28 27  2  0
M  END
$$$$
