LIY.pdb
     RDKit          3D

 29 29  0  0  1  0  0  0  0  0999 V2000
    8.0986  -19.6160   19.7278 C   0  0  0  0  0  0  0  0  0  0  0  0
    7.6166  -18.2062   19.6741 C   0  0  1  0  0  0  0  0  0  0  0  0
    6.1099  -18.2014   19.8046 C   0  0  0  0  0  0  0  0  0  0  0  0
    8.2730  -17.3034   20.6826 C   0  0  0  0  0  0  0  0  0  0  0  0
    7.6119  -15.9720   20.8046 C   0  0  2  0  0  0  0  0  0  0  0  0
    7.8217  -15.2359   19.5726 N   0  0  0  0  0  0  0  0  0  0  0  0
    8.2623  -15.2124   21.9088 C   0  0  0  0  0  0  0  0  0  0  0  0
    9.4053  -14.6756   21.7559 O   0  0  0  0  0  0  0  0  0  0  0  0
    5.3159  -12.2452   25.3422 C   0  0  0  0  0  0  0  0  0  0  0  0
    6.4380  -12.6500   24.3678 C   0  0  0  0  0  0  0  0  0  0  0  0
    7.2278  -13.7001   25.0607 C   0  0  2  0  0  0  0  0  0  0  0  0
    7.7009  -13.2564   26.4383 C   0  0  0  0  0  0  0  0  0  0  0  0
    8.3535  -14.3110   24.2710 C   0  0  2  0  0  0  0  0  0  0  0  0
    7.6544  -15.0439   23.1811 N   0  0  0  0  0  0  0  0  0  0  0  0
    9.2049  -15.2435   25.0214 C   0  0  0  0  0  0  0  0  0  0  0  0
    8.7912  -16.4253   25.2740 O   0  0  0  0  0  0  0  0  0  0  0  0
   12.2059  -17.7970   32.2831 O   0  0  0  0  0  0  0  0  0  0  0  0
   12.1980  -17.1600   31.0506 C   0  0  0  0  0  0  0  0  0  0  0  0
   12.9304  -17.6771   29.9948 C   0  0  0  0  0  0  0  0  0  0  0  0
   12.8897  -17.0121   28.8003 C   0  0  0  0  0  0  0  0  0  0  0  0
   12.1620  -15.8599   28.5927 C   0  0  0  0  0  0  0  0  0  0  0  0
   12.1257  -15.1430   27.3047 C   0  0  0  0  0  0  0  0  0  0  0  0
   11.2723  -15.8783   26.3226 C   0  0  2  0  0  0  0  0  0  0  0  0
   10.4939  -14.9438   25.5073 N   0  0  0  0  0  0  0  0  0  0  0  0
   10.3553  -16.8391   26.9549 C   0  0  0  0  0  0  0  0  0  0  0  0
    9.2942  -16.4768   27.5515 O   0  0  0  0  0  0  0  0  0  0  0  0
   11.4469  -15.3876   29.6876 C   0  0  0  0  0  0  0  0  0  0  0  0
   11.4523  -16.0130   30.9037 C   0  0  0  0  0  0  0  0  0  0  0  0
   10.6541  -18.1926   26.8976 O   0  0  0  0  0  0  0  0  0  0  0  0
  2  1  1  1
  3  2  1  0
  4  2  1  0
  5  4  1  0
  5  6  1  6
  7  8  2  0
  7  5  1  0
  9 10  1  0
 11 10  1  0
 11 13  1  0
 11 12  1  1
 13 15  1  0
 13 14  1  6
 14  7  1  0
 15 16  2  0
 17 18  1  0
 18 19  2  0
 18 28  1  0
 19 20  1  0
 20 21  2  0
 21 22  1  0
 23 22  1  1
 23 25  1  0
 24 23  1  0
 24 15  1  0
 25 26  2  0
 25 29  1  0
 27 21  1  0
 28 27  2  0
M  END
$$$$
