LIY.pdb
     RDKit          3D

 29 29  0  0  1  0  0  0  0  0999 V2000
    6.4551  -21.6351   24.2855 C   0  0  0  0  0  0  0  0  0  0  0  0
    6.6772  -20.4983   25.2243 C   0  0  1  0  0  0  0  0  0  0  0  0
    7.6037  -20.9534   26.3295 C   0  0  0  0  0  0  0  0  0  0  0  0
    7.1726  -19.2468   24.5526 C   0  0  0  0  0  0  0  0  0  0  0  0
    6.0950  -18.2499   24.2888 C   0  0  2  0  0  0  0  0  0  0  0  0
    5.2540  -18.7492   23.2177 N   0  0  0  0  0  0  0  0  0  0  0  0
    6.7196  -16.9788   23.8265 C   0  0  0  0  0  0  0  0  0  0  0  0
    7.1040  -16.8326   22.6229 O   0  0  0  0  0  0  0  0  0  0  0  0
    5.3170  -12.3316   26.3206 C   0  0  0  0  0  0  0  0  0  0  0  0
    5.5861  -13.2709   25.1299 C   0  0  0  0  0  0  0  0  0  0  0  0
    7.0408  -13.5703   25.1606 C   0  0  2  0  0  0  0  0  0  0  0  0
    7.8941  -12.3110   25.0928 C   0  0  0  0  0  0  0  0  0  0  0  0
    7.5240  -14.6068   24.1828 C   0  0  2  0  0  0  0  0  0  0  0  0
    6.9208  -15.8691   24.6894 N   0  0  0  0  0  0  0  0  0  0  0  0
    8.9833  -14.7567   24.1063 C   0  0  0  0  0  0  0  0  0  0  0  0
    9.6716  -13.9559   23.3878 O   0  0  0  0  0  0  0  0  0  0  0  0
    9.6065  -16.8559   30.7895 O   0  0  0  0  0  0  0  0  0  0  0  0
   10.1268  -16.3688   29.5992 C   0  0  0  0  0  0  0  0  0  0  0  0
   10.1579  -15.0050   29.3592 C   0  0  0  0  0  0  0  0  0  0  0  0
   10.6807  -14.5753   28.1707 C   0  0  0  0  0  0  0  0  0  0  0  0
   11.1757  -15.4237   27.2035 C   0  0  0  0  0  0  0  0  0  0  0  0
   11.7333  -14.9562   25.9210 C   0  0  0  0  0  0  0  0  0  0  0  0
   11.1919  -15.7691   24.7899 C   0  0  2  0  0  0  0  0  0  0  0  0
    9.7278  -15.7432   24.7844 N   0  0  0  0  0  0  0  0  0  0  0  0
   11.6448  -17.1684   24.8112 C   0  0  0  0  0  0  0  0  0  0  0  0
   12.8740  -17.4861   24.8494 O   0  0  0  0  0  0  0  0  0  0  0  0
   11.1187  -16.7811   27.4993 C   0  0  0  0  0  0  0  0  0  0  0  0
   10.6067  -17.2646   28.6716 C   0  0  0  0  0  0  0  0  0  0  0  0
   10.6986  -18.1826   24.7922 O   0  0  0  0  0  0  0  0  0  0  0  0
  2  1  1  6
  3  2  1  0
  4  2  1  0
  5  4  1  0
  5  6  1  6
  7  8  2  0
  7  5  1  0
  9 10  1  0
 11 10  1  0
 11 13  1  0
 11 12  1  6
 13 15  1  0
 13 14  1  1
 14  7  1  0
 15 16  2  0
 17 18  1  0
 18 19  2  0
 18 28  1  0
 19 20  1  0
 20 21  2  0
 21 22  1  0
 23 22  1  1
 23 25  1  0
 24 23  1  0
 24 15  1  0
 25 26  2  0
 25 29  1  0
 27 21  1  0
 28 27  2  0
M  END
$$$$
