LIY.pdb
     RDKit          3D

 29 29  0  0  1  0  0  0  0  0999 V2000
    7.6317  -12.2756   18.2584 C   0  0  0  0  0  0  0  0  0  0  0  0
    7.6735  -13.5814   18.9767 C   0  0  1  0  0  0  0  0  0  0  0  0
    8.1623  -14.6471   18.0215 C   0  0  0  0  0  0  0  0  0  0  0  0
    8.4804  -13.5484   20.2458 C   0  0  0  0  0  0  0  0  0  0  0  0
    8.4188  -14.8216   21.0202 C   0  0  2  0  0  0  0  0  0  0  0  0
    7.0372  -15.2588   21.0837 N   0  0  0  0  0  0  0  0  0  0  0  0
    8.8812  -14.5599   22.4120 C   0  0  0  0  0  0  0  0  0  0  0  0
   10.0745  -14.1905   22.6518 O   0  0  0  0  0  0  0  0  0  0  0  0
    5.6414  -12.0482   25.5817 C   0  0  0  0  0  0  0  0  0  0  0  0
    6.8963  -12.5199   24.8232 C   0  0  0  0  0  0  0  0  0  0  0  0
    7.4120  -13.6963   25.5695 C   0  0  2  0  0  0  0  0  0  0  0  0
    7.7427  -13.3651   27.0184 C   0  0  0  0  0  0  0  0  0  0  0  0
    8.5356  -14.4543   24.9159 C   0  0  2  0  0  0  0  0  0  0  0  0
    8.0299  -14.7049   23.5393 N   0  0  0  0  0  0  0  0  0  0  0  0
    8.8765  -15.7329   25.5536 C   0  0  0  0  0  0  0  0  0  0  0  0
    9.0148  -16.7851   24.8428 O   0  0  0  0  0  0  0  0  0  0  0  0
   14.2197  -18.8340   31.8437 O   0  0  0  0  0  0  0  0  0  0  0  0
   13.4142  -18.0564   31.0242 C   0  0  0  0  0  0  0  0  0  0  0  0
   12.4393  -17.2421   31.5763 C   0  0  0  0  0  0  0  0  0  0  0  0
   11.6714  -16.4951   30.7259 C   0  0  0  0  0  0  0  0  0  0  0  0
   11.8156  -16.5100   29.3551 C   0  0  0  0  0  0  0  0  0  0  0  0
   10.9816  -15.7073   28.4417 C   0  0  0  0  0  0  0  0  0  0  0  0
   10.2515  -16.5950   27.4865 C   0  0  2  0  0  0  0  0  0  0  0  0
    9.0773  -15.9142   26.9371 N   0  0  0  0  0  0  0  0  0  0  0  0
    9.8278  -17.8696   28.0861 C   0  0  0  0  0  0  0  0  0  0  0  0
    8.8556  -17.9500   28.8995 O   0  0  0  0  0  0  0  0  0  0  0  0
   12.8096  -17.3455   28.8580 C   0  0  0  0  0  0  0  0  0  0  0  0
   13.6054  -18.1132   29.6628 C   0  0  0  0  0  0  0  0  0  0  0  0
   10.5097  -19.0304   27.7517 O   0  0  0  0  0  0  0  0  0  0  0  0
  2  1  1  6
  3  2  1  0
  4  2  1  0
  5  4  1  0
  5  6  1  1
  7  8  2  0
  7  5  1  0
  9 10  1  0
 11 10  1  0
 11 13  1  0
 11 12  1  1
 13 15  1  0
 13 14  1  6
 14  7  1  0
 15 16  2  0
 17 18  1  0
 18 19  2  0
 18 28  1  0
 19 20  1  0
 20 21  2  0
 21 22  1  0
 23 22  1  1
 23 25  1  0
 24 23  1  0
 24 15  1  0
 25 26  2  0
 25 29  1  0
 27 21  1  0
 28 27  2  0
M  END
$$$$
