LIY.pdb
     RDKit          3D

 29 29  0  0  1  0  0  0  0  0999 V2000
    6.5503  -18.2221   22.3052 C   0  0  0  0  0  0  0  0  0  0  0  0
    7.9358  -17.7842   21.9713 C   0  0  1  0  0  0  0  0  0  0  0  0
    8.7484  -18.9974   21.5777 C   0  0  0  0  0  0  0  0  0  0  0  0
    7.9936  -16.7035   20.9266 C   0  0  0  0  0  0  0  0  0  0  0  0
    7.4739  -15.3895   21.4041 C   0  0  2  0  0  0  0  0  0  0  0  0
    7.5824  -14.4280   20.3236 N   0  0  0  0  0  0  0  0  0  0  0  0
    8.3290  -14.9147   22.5278 C   0  0  0  0  0  0  0  0  0  0  0  0
    9.5491  -14.6063   22.3432 O   0  0  0  0  0  0  0  0  0  0  0  0
    5.9953  -12.2555   26.8010 C   0  0  0  0  0  0  0  0  0  0  0  0
    6.5074  -13.4635   25.9941 C   0  0  0  0  0  0  0  0  0  0  0  0
    7.8426  -13.0749   25.4715 C   0  0  2  0  0  0  0  0  0  0  0  0
    7.7662  -11.9128   24.4906 C   0  0  0  0  0  0  0  0  0  0  0  0
    8.6902  -14.1916   24.9251 C   0  0  2  0  0  0  0  0  0  0  0  0
    7.8407  -14.7796   23.8544 N   0  0  0  0  0  0  0  0  0  0  0  0
    9.0464  -15.2342   25.8966 C   0  0  0  0  0  0  0  0  0  0  0  0
    8.2555  -16.2164   26.0993 O   0  0  0  0  0  0  0  0  0  0  0  0
   13.5187  -17.7514   22.0108 O   0  0  0  0  0  0  0  0  0  0  0  0
   13.1699  -17.4993   23.3298 C   0  0  0  0  0  0  0  0  0  0  0  0
   12.8079  -18.5426   24.1659 C   0  0  0  0  0  0  0  0  0  0  0  0
   12.4727  -18.2419   25.4574 C   0  0  0  0  0  0  0  0  0  0  0  0
   12.4758  -16.9616   25.9684 C   0  0  0  0  0  0  0  0  0  0  0  0
   12.1081  -16.6415   27.3599 C   0  0  0  0  0  0  0  0  0  0  0  0
   10.6367  -16.4042   27.4690 C   0  0  2  0  0  0  0  0  0  0  0  0
   10.2333  -15.2543   26.6570 N   0  0  0  0  0  0  0  0  0  0  0  0
   10.1830  -16.1947   28.8525 C   0  0  0  0  0  0  0  0  0  0  0  0
    9.6437  -15.1106   29.2358 O   0  0  0  0  0  0  0  0  0  0  0  0
   12.8475  -15.9555   25.0837 C   0  0  0  0  0  0  0  0  0  0  0  0
   13.1920  -16.2003   23.7831 C   0  0  0  0  0  0  0  0  0  0  0  0
   10.3450  -17.2170   29.7761 O   0  0  0  0  0  0  0  0  0  0  0  0
  2  1  1  6
  3  2  1  0
  4  2  1  0
  5  4  1  0
  5  6  1  6
  7  8  2  0
  7  5  1  0
  9 10  1  0
 11 10  1  0
 11 13  1  0
 11 12  1  6
 13 15  1  0
 13 14  1  6
 14  7  1  0
 15 16  2  0
 17 18  1  0
 18 19  2  0
 18 28  1  0
 19 20  1  0
 20 21  2  0
 21 22  1  0
 23 22  1  1
 23 25  1  0
 24 23  1  0
 24 15  1  0
 25 26  2  0
 25 29  1  0
 27 21  1  0
 28 27  2  0
M  END
$$$$
