LIY.pdb
     RDKit          3D

 29 29  0  0  1  0  0  0  0  0999 V2000
    9.6304  -22.1626   20.1205 C   0  0  0  0  0  0  0  0  0  0  0  0
    9.5040  -21.0392   19.1485 C   0  0  1  0  0  0  0  0  0  0  0  0
    8.0812  -20.9947   18.6378 C   0  0  0  0  0  0  0  0  0  0  0  0
    9.9479  -19.7109   19.6977 C   0  0  0  0  0  0  0  0  0  0  0  0
    9.5174  -18.5515   18.8641 C   0  0  2  0  0  0  0  0  0  0  0  0
   10.2721  -18.5659   17.6255 N   0  0  0  0  0  0  0  0  0  0  0  0
    9.8473  -17.2915   19.5872 C   0  0  0  0  0  0  0  0  0  0  0  0
   11.0422  -16.8601   19.6488 O   0  0  0  0  0  0  0  0  0  0  0  0
    6.3891  -13.2368   19.4616 C   0  0  0  0  0  0  0  0  0  0  0  0
    7.7497  -13.9570   19.4133 C   0  0  0  0  0  0  0  0  0  0  0  0
    8.0441  -14.3776   20.8072 C   0  0  2  0  0  0  0  0  0  0  0  0
    8.0910  -13.1998   21.7712 C   0  0  0  0  0  0  0  0  0  0  0  0
    9.2372  -15.2762   20.9896 C   0  0  2  0  0  0  0  0  0  0  0  0
    8.8616  -16.5068   20.2424 N   0  0  0  0  0  0  0  0  0  0  0  0
    9.5466  -15.6235   22.3829 C   0  0  0  0  0  0  0  0  0  0  0  0
    8.7459  -16.3613   23.0509 O   0  0  0  0  0  0  0  0  0  0  0  0
   10.2708  -15.3292   30.8223 O   0  0  0  0  0  0  0  0  0  0  0  0
   10.0915  -15.2828   29.4473 C   0  0  0  0  0  0  0  0  0  0  0  0
    9.8055  -16.4406   28.7430 C   0  0  0  0  0  0  0  0  0  0  0  0
    9.6377  -16.3420   27.3891 C   0  0  0  0  0  0  0  0  0  0  0  0
    9.7380  -15.1571   26.6919 C   0  0  0  0  0  0  0  0  0  0  0  0
    9.5620  -15.0565   25.2314 C   0  0  0  0  0  0  0  0  0  0  0  0
   10.8468  -15.3564   24.5295 C   0  0  2  0  0  0  0  0  0  0  0  0
   10.6967  -15.2029   23.0811 N   0  0  0  0  0  0  0  0  0  0  0  0
   11.3648  -16.7030   24.8162 C   0  0  0  0  0  0  0  0  0  0  0  0
   10.8643  -17.7497   24.2993 O   0  0  0  0  0  0  0  0  0  0  0  0
   10.0266  -14.0284   27.4509 C   0  0  0  0  0  0  0  0  0  0  0  0
   10.2037  -14.0705   28.8063 C   0  0  0  0  0  0  0  0  0  0  0  0
   12.4416  -16.8403   25.6799 O   0  0  0  0  0  0  0  0  0  0  0  0
  2  1  1  1
  3  2  1  0
  4  2  1  0
  5  4  1  0
  5  6  1  6
  7  8  2  0
  7  5  1  0
  9 10  1  0
 11 10  1  0
 11 13  1  0
 11 12  1  1
 13 15  1  0
 13 14  1  6
 14  7  1  0
 15 16  2  0
 17 18  1  0
 18 19  2  0
 18 28  1  0
 19 20  1  0
 20 21  2  0
 21 22  1  0
 23 22  1  1
 23 25  1  0
 24 23  1  0
 24 15  1  0
 25 26  2  0
 25 29  1  0
 27 21  1  0
 28 27  2  0
M  END
$$$$
