HLK.pdb
     RDKit          3D

 28 28  0  0  1  0  0  0  0  0999 V2000
    9.6681  -15.3369   20.6561 N   0  0  0  0  0  0  0  0  0  0  0  0
    8.5611  -15.7320   21.4993 C   0  0  1  0  0  0  0  0  0  0  0  0
    8.2524  -17.1740   21.2029 C   0  0  0  0  0  0  0  0  0  0  0  0
    7.8289  -17.2538   19.7795 C   0  0  0  0  0  0  0  0  0  0  0  0
    7.8464  -16.2512   18.8327 C   0  0  0  0  0  0  0  0  0  0  0  0
    7.3818  -16.7284   17.6634 N   0  0  0  0  0  0  0  0  0  0  0  0
    7.0674  -18.0296   17.8568 C   0  0  0  0  0  0  0  0  0  0  0  0
    7.3394  -18.3418   19.1364 N   0  0  0  0  0  0  0  0  0  0  0  0
    8.9051  -15.5104   22.9296 C   0  0  0  0  0  0  0  0  0  0  0  0
   10.1017  -15.6919   23.3476 O   0  0  0  0  0  0  0  0  0  0  0  0
    5.6059  -12.0019   25.8428 C   0  0  0  0  0  0  0  0  0  0  0  0
    6.8673  -12.6967   25.4367 C   0  0  1  0  0  0  0  0  0  0  0  0
    8.0988  -11.8913   25.8680 C   0  0  0  0  0  0  0  0  0  0  0  0
    7.0008  -14.1268   25.7255 C   0  0  0  0  0  0  0  0  0  0  0  0
    8.1383  -14.9357   25.2814 C   0  0  2  0  0  0  0  0  0  0  0  0
    7.9041  -15.1000   23.8180 N   0  0  0  0  0  0  0  0  0  0  0  0
    8.3619  -16.2687   25.8130 C   0  0  0  0  0  0  0  0  0  0  0  0
    7.4731  -17.1382   25.8135 O   0  0  0  0  0  0  0  0  0  0  0  0
    9.6140  -16.6665   26.3718 N   0  0  0  0  0  0  0  0  0  0  0  0
    9.7770  -17.9319   26.9981 C   0  0  1  0  0  0  0  0  0  0  0  0
   10.9001  -18.7748   26.4380 C   0  0  0  0  0  0  0  0  0  0  0  0
   10.8279  -18.8720   24.9360 C   0  0  0  0  0  0  0  0  0  0  0  0
   11.9095  -19.7460   24.3547 C   0  0  0  0  0  0  0  0  0  0  0  0
   11.8392  -19.6974   22.8449 C   0  0  0  0  0  0  0  0  0  0  0  0
   12.9387  -20.4213   22.2467 N   0  0  0  0  0  0  0  0  0  0  0  0
    9.9216  -17.8152   28.4787 C   0  0  0  0  0  0  0  0  0  0  0  0
    9.9870  -16.7015   29.0101 O   0  0  0  0  0  0  0  0  0  0  0  0
    9.9844  -18.9717   29.2790 O   0  0  0  0  0  0  0  0  0  0  0  0
  2  9  1  0
  2  1  1  6
  3  2  1  0
  4  3  1  0
  4  5  2  0
  6  5  1  0
  7  6  1  0
  8  7  2  0
  8  4  1  0
  9 10  2  0
 12 13  1  1
 12 11  1  0
 14 12  1  0
 15 14  1  1
 16 15  1  0
 16  9  1  0
 17 15  1  0
 18 17  2  0
 19 17  1  0
 20 21  1  6
 20 19  1  0
 22 23  1  0
 22 21  1  0
 23 24  1  0
 24 25  1  0
 26 20  1  0
 26 28  1  0
 27 26  2  0
M  END
$$$$
