HLK.pdb
     RDKit          3D

 28 28  0  0  1  0  0  0  0  0999 V2000
    9.9928  -14.3196   20.9275 N   0  0  0  0  0  0  0  0  0  0  0  0
    8.6970  -14.2984   21.5703 C   0  0  1  0  0  0  0  0  0  0  0  0
    7.7935  -15.2288   20.8083 C   0  0  0  0  0  0  0  0  0  0  0  0
    7.6937  -14.7109   19.4178 C   0  0  0  0  0  0  0  0  0  0  0  0
    7.7379  -13.3982   18.9973 C   0  0  0  0  0  0  0  0  0  0  0  0
    7.6128  -13.3502   17.6583 N   0  0  0  0  0  0  0  0  0  0  0  0
    7.4889  -14.6238   17.2203 C   0  0  0  0  0  0  0  0  0  0  0  0
    7.5384  -15.4415   18.2869 N   0  0  0  0  0  0  0  0  0  0  0  0
    8.8307  -14.6862   23.0003 C   0  0  0  0  0  0  0  0  0  0  0  0
    9.8698  -15.3112   23.4115 O   0  0  0  0  0  0  0  0  0  0  0  0
    5.6145  -11.7013   26.6760 C   0  0  0  0  0  0  0  0  0  0  0  0
    6.8424  -12.3830   26.1599 C   0  0  1  0  0  0  0  0  0  0  0  0
    8.0790  -11.9659   26.9650 C   0  0  0  0  0  0  0  0  0  0  0  0
    6.7897  -13.8268   25.9171 C   0  0  0  0  0  0  0  0  0  0  0  0
    7.9098  -14.5924   25.3650 C   0  0  2  0  0  0  0  0  0  0  0  0
    7.8054  -14.3600   23.8959 N   0  0  0  0  0  0  0  0  0  0  0  0
    7.9955  -16.0308   25.5475 C   0  0  0  0  0  0  0  0  0  0  0  0
    7.0855  -16.7984   25.1888 O   0  0  0  0  0  0  0  0  0  0  0  0
    9.1272  -16.6564   26.1526 N   0  0  0  0  0  0  0  0  0  0  0  0
    9.1754  -18.0621   26.3566 C   0  0  1  0  0  0  0  0  0  0  0  0
    9.9183  -18.8312   25.2877 C   0  0  0  0  0  0  0  0  0  0  0  0
    9.4761  -20.2705   25.2283 C   0  0  0  0  0  0  0  0  0  0  0  0
   10.1923  -21.0579   24.1612 C   0  0  0  0  0  0  0  0  0  0  0  0
    9.6426  -22.4660   24.1197 C   0  0  0  0  0  0  0  0  0  0  0  0
   10.3177  -23.2616   23.1188 N   0  0  0  0  0  0  0  0  0  0  0  0
    9.7115  -18.4199   27.7024 C   0  0  0  0  0  0  0  0  0  0  0  0
   10.4654  -17.6419   28.2971 O   0  0  0  0  0  0  0  0  0  0  0  0
    9.3626  -19.6445   28.3028 O   0  0  0  0  0  0  0  0  0  0  0  0
  2  9  1  0
  2  1  1  6
  3  2  1  0
  4  3  1  0
  4  5  2  0
  6  5  1  0
  7  6  1  0
  8  7  2  0
  8  4  1  0
  9 10  2  0
 12 13  1  1
 12 11  1  0
 14 12  1  0
 15 14  1  1
 16 15  1  0
 16  9  1  0
 17 15  1  0
 18 17  2  0
 19 17  1  0
 20 21  1  6
 20 19  1  0
 22 23  1  0
 22 21  1  0
 23 24  1  0
 24 25  1  0
 26 20  1  0
 26 28  1  0
 27 26  2  0
M  END
$$$$
