HLK.pdb
     RDKit          3D

 28 28  0  0  1  0  0  0  0  0999 V2000
    9.8256  -16.1354   20.3928 N   0  0  0  0  0  0  0  0  0  0  0  0
    8.7183  -16.2854   21.3114 C   0  0  1  0  0  0  0  0  0  0  0  0
    8.3333  -17.7393   21.3300 C   0  0  0  0  0  0  0  0  0  0  0  0
    7.8658  -18.0923   19.9630 C   0  0  0  0  0  0  0  0  0  0  0  0
    7.9002  -17.3104   18.8275 C   0  0  0  0  0  0  0  0  0  0  0  0
    7.3815  -17.9967   17.7927 N   0  0  0  0  0  0  0  0  0  0  0  0
    7.0158  -19.2123   18.2596 C   0  0  0  0  0  0  0  0  0  0  0  0
    7.3105  -19.2647   19.5708 N   0  0  0  0  0  0  0  0  0  0  0  0
    9.1022  -15.7855   22.6590 C   0  0  0  0  0  0  0  0  0  0  0  0
   10.3180  -15.8494   23.0555 O   0  0  0  0  0  0  0  0  0  0  0  0
    8.0364  -12.1730   26.8868 C   0  0  0  0  0  0  0  0  0  0  0  0
    7.0694  -13.2386   26.4764 C   0  0  1  0  0  0  0  0  0  0  0  0
    5.6232  -12.7794   26.6973 C   0  0  0  0  0  0  0  0  0  0  0  0
    7.2602  -13.8929   25.1796 C   0  0  0  0  0  0  0  0  0  0  0  0
    8.4048  -14.7536   24.8721 C   0  0  2  0  0  0  0  0  0  0  0  0
    8.1177  -15.2424   23.4929 N   0  0  0  0  0  0  0  0  0  0  0  0
    8.6926  -15.9308   25.6727 C   0  0  0  0  0  0  0  0  0  0  0  0
    7.8231  -16.7792   25.9376 O   0  0  0  0  0  0  0  0  0  0  0  0
    9.9900  -16.1891   26.2096 N   0  0  0  0  0  0  0  0  0  0  0  0
   10.2420  -17.3272   27.0226 C   0  0  1  0  0  0  0  0  0  0  0  0
   11.2907  -18.2719   26.4808 C   0  0  0  0  0  0  0  0  0  0  0  0
   11.0089  -18.6562   25.0513 C   0  0  0  0  0  0  0  0  0  0  0  0
   12.2014  -19.2730   24.3664 C   0  0  0  0  0  0  0  0  0  0  0  0
   11.8884  -19.4828   22.9019 C   0  0  0  0  0  0  0  0  0  0  0  0
   13.0093  -20.0763   22.2075 N   0  0  0  0  0  0  0  0  0  0  0  0
   10.5744  -16.9549   28.4288 C   0  0  0  0  0  0  0  0  0  0  0  0
   10.7858  -17.8347   29.2705 O   0  0  0  0  0  0  0  0  0  0  0  0
   10.6492  -15.6005   28.8057 O   0  0  0  0  0  0  0  0  0  0  0  0
  2  9  1  0
  2  1  1  6
  3  2  1  0
  4  3  1  0
  4  5  2  0
  6  5  1  0
  7  6  1  0
  8  7  2  0
  8  4  1  0
  9 10  2  0
 12 13  1  6
 12 11  1  0
 14 12  1  0
 15 14  1  1
 16 15  1  0
 16  9  1  0
 17 15  1  0
 18 17  2  0
 19 17  1  0
 20 21  1  6
 20 19  1  0
 22 23  1  0
 22 21  1  0
 23 24  1  0
 24 25  1  0
 26 20  1  0
 26 28  1  0
 27 26  2  0
M  END
$$$$
