HLK.pdb
     RDKit          3D

 28 28  0  0  1  0  0  0  0  0999 V2000
    9.5809  -17.7753   14.9152 N   0  0  0  0  0  0  0  0  0  0  0  0
    8.8767  -17.9867   16.1610 C   0  0  1  0  0  0  0  0  0  0  0  0
    9.0437  -19.4324   16.5410 C   0  0  0  0  0  0  0  0  0  0  0  0
    8.2965  -20.2430   15.5427 C   0  0  0  0  0  0  0  0  0  0  0  0
    7.5488  -19.7932   14.4748 C   0  0  0  0  0  0  0  0  0  0  0  0
    7.0328  -20.8446   13.8121 N   0  0  0  0  0  0  0  0  0  0  0  0
    7.4460  -21.9635   14.4497 C   0  0  0  0  0  0  0  0  0  0  0  0
    8.2089  -21.5946   15.4940 N   0  0  0  0  0  0  0  0  0  0  0  0
    9.3990  -17.0644   17.2049 C   0  0  0  0  0  0  0  0  0  0  0  0
   10.6497  -16.7979   17.2722 O   0  0  0  0  0  0  0  0  0  0  0  0
    8.5710  -12.4213   20.1117 C   0  0  0  0  0  0  0  0  0  0  0  0
    7.7192  -13.6195   20.3901 C   0  0  1  0  0  0  0  0  0  0  0  0
    6.2917  -13.2012   20.7626 C   0  0  0  0  0  0  0  0  0  0  0  0
    7.7491  -14.7336   19.4393 C   0  0  0  0  0  0  0  0  0  0  0  0
    8.9406  -15.5482   19.1898 C   0  0  2  0  0  0  0  0  0  0  0  0
    8.5067  -16.4881   18.1167 N   0  0  0  0  0  0  0  0  0  0  0  0
    9.5220  -16.3656   20.2403 C   0  0  0  0  0  0  0  0  0  0  0  0
    8.9886  -17.4189   20.6302 O   0  0  0  0  0  0  0  0  0  0  0  0
   10.7404  -16.0122   20.8951 N   0  0  0  0  0  0  0  0  0  0  0  0
   11.2946  -16.8276   21.9187 C   0  0  1  0  0  0  0  0  0  0  0  0
   12.7641  -17.1413   21.7514 C   0  0  0  0  0  0  0  0  0  0  0  0
   13.0347  -17.8691   20.4600 C   0  0  0  0  0  0  0  0  0  0  0  0
   14.4863  -18.2374   20.2902 C   0  0  0  0  0  0  0  0  0  0  0  0
   14.6736  -18.9526   18.9711 C   0  0  0  0  0  0  0  0  0  0  0  0
   16.0601  -19.3042   18.7592 N   0  0  0  0  0  0  0  0  0  0  0  0
   11.0481  -16.2704   23.2808 C   0  0  0  0  0  0  0  0  0  0  0  0
   10.5173  -15.1621   23.4113 O   0  0  0  0  0  0  0  0  0  0  0  0
   11.4180  -17.0026   24.4249 O   0  0  0  0  0  0  0  0  0  0  0  0
  2  9  1  0
  2  1  1  6
  3  2  1  0
  4  3  1  0
  4  5  2  0
  6  5  1  0
  7  6  1  0
  8  7  2  0
  8  4  1  0
  9 10  2  0
 12 13  1  6
 12 11  1  0
 14 12  1  0
 15 14  1  1
 16 15  1  0
 16  9  1  0
 17 15  1  0
 18 17  2  0
 19 17  1  0
 20 21  1  6
 20 19  1  0
 22 23  1  0
 22 21  1  0
 23 24  1  0
 24 25  1  0
 26 20  1  0
 26 28  1  0
 27 26  2  0
M  END
$$$$
