HLK.pdb
     RDKit          3D

 28 28  0  0  1  0  0  0  0  0999 V2000
    8.6798  -15.8398   20.1681 N   0  0  0  0  0  0  0  0  0  0  0  0
    7.6793  -16.0046   21.1997 C   0  0  1  0  0  0  0  0  0  0  0  0
    7.2348  -17.4414   21.1803 C   0  0  0  0  0  0  0  0  0  0  0  0
    6.7036  -17.7235   19.8202 C   0  0  0  0  0  0  0  0  0  0  0  0
    6.7777  -16.9240   18.6989 C   0  0  0  0  0  0  0  0  0  0  0  0
    6.1747  -17.5406   17.6660 N   0  0  0  0  0  0  0  0  0  0  0  0
    5.7156  -18.7290   18.1199 C   0  0  0  0  0  0  0  0  0  0  0  0
    6.0377  -18.8345   19.4214 N   0  0  0  0  0  0  0  0  0  0  0  0
    8.2367  -15.6036   22.5194 C   0  0  0  0  0  0  0  0  0  0  0  0
    9.4834  -15.7501   22.7718 O   0  0  0  0  0  0  0  0  0  0  0  0
    8.0861  -11.6067   25.4790 C   0  0  0  0  0  0  0  0  0  0  0  0
    7.1447  -12.5887   26.1021 C   0  0  1  0  0  0  0  0  0  0  0  0
    5.9009  -11.8807   26.6523 C   0  0  0  0  0  0  0  0  0  0  0  0
    6.8159  -13.8084   25.3601 C   0  0  0  0  0  0  0  0  0  0  0  0
    7.8246  -14.7542   24.8769 C   0  0  2  0  0  0  0  0  0  0  0  0
    7.3818  -15.0622   23.4869 N   0  0  0  0  0  0  0  0  0  0  0  0
    8.0282  -16.0327   25.5352 C   0  0  0  0  0  0  0  0  0  0  0  0
    7.2609  -16.9956   25.3614 O   0  0  0  0  0  0  0  0  0  0  0  0
    9.1191  -16.2666   26.4260 N   0  0  0  0  0  0  0  0  0  0  0  0
    9.7923  -17.5178   26.4602 C   0  0  1  0  0  0  0  0  0  0  0  0
   10.3993  -17.9456   25.1433 C   0  0  0  0  0  0  0  0  0  0  0  0
   10.0122  -19.3569   24.7840 C   0  0  0  0  0  0  0  0  0  0  0  0
   10.6324  -19.8215   23.4913 C   0  0  0  0  0  0  0  0  0  0  0  0
   10.3167  -21.2849   23.2785 C   0  0  0  0  0  0  0  0  0  0  0  0
   10.8686  -21.7627   22.0303 N   0  0  0  0  0  0  0  0  0  0  0  0
   10.8250  -17.5747   27.5357 C   0  0  0  0  0  0  0  0  0  0  0  0
   10.9624  -18.6007   28.2106 O   0  0  0  0  0  0  0  0  0  0  0  0
   11.6488  -16.4613   27.7884 O   0  0  0  0  0  0  0  0  0  0  0  0
  2  9  1  0
  2  1  1  6
  3  2  1  0
  4  3  1  0
  4  5  2  0
  6  5  1  0
  7  6  1  0
  8  7  2  0
  8  4  1  0
  9 10  2  0
 12 13  1  6
 12 11  1  0
 14 12  1  0
 15 14  1  1
 16 15  1  0
 16  9  1  0
 17 15  1  0
 18 17  2  0
 19 17  1  0
 20 21  1  6
 20 19  1  0
 22 23  1  0
 22 21  1  0
 23 24  1  0
 24 25  1  0
 26 20  1  0
 26 28  1  0
 27 26  2  0
M  END
$$$$
