HLK.pdb
     RDKit          3D

 28 28  0  0  1  0  0  0  0  0999 V2000
   10.7727  -14.3889   20.3846 N   0  0  0  0  0  0  0  0  0  0  0  0
    9.4238  -14.4819   20.8989 C   0  0  1  0  0  0  0  0  0  0  0  0
    8.7709  -15.6750   20.2567 C   0  0  0  0  0  0  0  0  0  0  0  0
    8.2656  -15.2424   18.9266 C   0  0  0  0  0  0  0  0  0  0  0  0
    8.3744  -13.9977   18.3428 C   0  0  0  0  0  0  0  0  0  0  0  0
    7.7859  -14.0153   17.1328 N   0  0  0  0  0  0  0  0  0  0  0  0
    7.3016  -15.2632   16.9395 C   0  0  0  0  0  0  0  0  0  0  0  0
    7.5940  -16.0002   18.0258 N   0  0  0  0  0  0  0  0  0  0  0  0
    9.4497  -14.5827   22.3829 C   0  0  0  0  0  0  0  0  0  0  0  0
   10.4466  -15.1180   22.9823 O   0  0  0  0  0  0  0  0  0  0  0  0
    5.6521  -12.4947   26.7956 C   0  0  0  0  0  0  0  0  0  0  0  0
    7.0425  -12.5374   26.2447 C   0  0  1  0  0  0  0  0  0  0  0  0
    8.0297  -13.0676   27.2915 C   0  0  0  0  0  0  0  0  0  0  0  0
    7.2517  -13.1317   24.9221 C   0  0  0  0  0  0  0  0  0  0  0  0
    8.3616  -14.0356   24.6113 C   0  0  2  0  0  0  0  0  0  0  0  0
    8.3695  -14.0847   23.1211 N   0  0  0  0  0  0  0  0  0  0  0  0
    8.3541  -15.4146   25.0670 C   0  0  0  0  0  0  0  0  0  0  0  0
    7.3681  -16.1564   24.9137 O   0  0  0  0  0  0  0  0  0  0  0  0
    9.4755  -16.0072   25.7225 N   0  0  0  0  0  0  0  0  0  0  0  0
    9.4085  -17.3193   26.2643 C   0  0  1  0  0  0  0  0  0  0  0  0
   10.3173  -18.3264   25.5967 C   0  0  0  0  0  0  0  0  0  0  0  0
   10.5366  -18.0003   24.1420 C   0  0  0  0  0  0  0  0  0  0  0  0
   11.5111  -18.9363   23.4742 C   0  0  0  0  0  0  0  0  0  0  0  0
   11.6197  -18.5875   22.0068 C   0  0  0  0  0  0  0  0  0  0  0  0
   12.6051  -19.4129   21.3447 N   0  0  0  0  0  0  0  0  0  0  0  0
    9.6338  -17.3340   27.7393 C   0  0  0  0  0  0  0  0  0  0  0  0
    9.9465  -16.2944   28.3297 O   0  0  0  0  0  0  0  0  0  0  0  0
    9.4918  -18.5307   28.4671 O   0  0  0  0  0  0  0  0  0  0  0  0
  2  9  1  0
  2  1  1  6
  3  2  1  0
  4  3  1  0
  4  5  2  0
  6  5  1  0
  7  6  1  0
  8  7  2  0
  8  4  1  0
  9 10  2  0
 12 13  1  1
 12 11  1  0
 14 12  1  0
 15 14  1  6
 16 15  1  0
 16  9  1  0
 17 15  1  0
 18 17  2  0
 19 17  1  0
 20 21  1  6
 20 19  1  0
 22 23  1  0
 22 21  1  0
 23 24  1  0
 24 25  1  0
 26 20  1  0
 26 28  1  0
 27 26  2  0
M  END
$$$$
