HLK.pdb
     RDKit          3D

 28 28  0  0  1  0  0  0  0  0999 V2000
    9.6165  -16.4476   20.4089 N   0  0  0  0  0  0  0  0  0  0  0  0
    8.4105  -16.4625   21.2075 C   0  0  1  0  0  0  0  0  0  0  0  0
    7.8108  -17.8381   21.1043 C   0  0  0  0  0  0  0  0  0  0  0  0
    7.4523  -18.0604   19.6782 C   0  0  0  0  0  0  0  0  0  0  0  0
    6.4229  -17.4845   18.9636 C   0  0  0  0  0  0  0  0  0  0  0  0
    6.4367  -17.9493   17.7008 N   0  0  0  0  0  0  0  0  0  0  0  0
    7.4683  -18.8185   17.6038 C   0  0  0  0  0  0  0  0  0  0  0  0
    8.0783  -18.8819   18.8007 N   0  0  0  0  0  0  0  0  0  0  0  0
    8.7243  -16.0871   22.6123 C   0  0  0  0  0  0  0  0  0  0  0  0
    9.8291  -16.4457   23.1512 O   0  0  0  0  0  0  0  0  0  0  0  0
    7.9935  -12.2343   26.7294 C   0  0  0  0  0  0  0  0  0  0  0  0
    6.8905  -13.0969   26.2022 C   0  0  1  0  0  0  0  0  0  0  0  0
    5.5440  -12.3667   26.2719 C   0  0  0  0  0  0  0  0  0  0  0  0
    7.0920  -13.7849   24.9245 C   0  0  0  0  0  0  0  0  0  0  0  0
    8.0431  -14.8839   24.7424 C   0  0  2  0  0  0  0  0  0  0  0  0
    7.7967  -15.3349   23.3427 N   0  0  0  0  0  0  0  0  0  0  0  0
    7.9806  -16.0734   25.5735 C   0  0  0  0  0  0  0  0  0  0  0  0
    6.9281  -16.7167   25.7294 O   0  0  0  0  0  0  0  0  0  0  0  0
    9.1212  -16.5796   26.2672 N   0  0  0  0  0  0  0  0  0  0  0  0
    9.0322  -17.7277   27.1001 C   0  0  1  0  0  0  0  0  0  0  0  0
    9.3647  -19.0336   26.4147 C   0  0  0  0  0  0  0  0  0  0  0  0
   10.8367  -19.1448   26.1121 C   0  0  0  0  0  0  0  0  0  0  0  0
   11.1973  -20.4421   25.4348 C   0  0  0  0  0  0  0  0  0  0  0  0
   12.6676  -20.4342   25.0817 C   0  0  0  0  0  0  0  0  0  0  0  0
   13.0483  -21.6516   24.4006 N   0  0  0  0  0  0  0  0  0  0  0  0
    9.8446  -17.5879   28.3439 C   0  0  0  0  0  0  0  0  0  0  0  0
   10.5844  -16.6097   28.4954 O   0  0  0  0  0  0  0  0  0  0  0  0
    9.7737  -18.5681   29.3519 O   0  0  0  0  0  0  0  0  0  0  0  0
  2  9  1  0
  2  1  1  6
  3  2  1  0
  4  3  1  0
  4  5  2  0
  6  5  1  0
  7  6  1  0
  8  7  2  0
  8  4  1  0
  9 10  2  0
 12 13  1  6
 12 11  1  0
 14 12  1  0
 15 14  1  1
 16 15  1  0
 16  9  1  0
 17 15  1  0
 18 17  2  0
 19 17  1  0
 20 21  1  6
 20 19  1  0
 22 23  1  0
 22 21  1  0
 23 24  1  0
 24 25  1  0
 26 20  1  0
 26 28  1  0
 27 26  2  0
M  END
$$$$
