HLK.pdb
     RDKit          3D

 28 28  0  0  1  0  0  0  0  0999 V2000
   10.2379  -15.6977   20.5851 N   0  0  0  0  0  0  0  0  0  0  0  0
    9.0615  -15.9920   21.3738 C   0  0  1  0  0  0  0  0  0  0  0  0
    8.7900  -17.4668   21.2570 C   0  0  0  0  0  0  0  0  0  0  0  0
    8.1117  -17.6915   19.9527 C   0  0  0  0  0  0  0  0  0  0  0  0
    7.8899  -16.7771   18.9445 C   0  0  0  0  0  0  0  0  0  0  0  0
    7.2433  -17.3765   17.9278 N   0  0  0  0  0  0  0  0  0  0  0  0
    7.0504  -18.6680   18.2799 C   0  0  0  0  0  0  0  0  0  0  0  0
    7.5768  -18.8529   19.5036 N   0  0  0  0  0  0  0  0  0  0  0  0
    9.2732  -15.5665   22.7835 C   0  0  0  0  0  0  0  0  0  0  0  0
   10.4511  -15.5344   23.2845 O   0  0  0  0  0  0  0  0  0  0  0  0
    5.8757  -11.9073   25.9673 C   0  0  0  0  0  0  0  0  0  0  0  0
    7.1478  -12.6071   25.6057 C   0  0  1  0  0  0  0  0  0  0  0  0
    8.2497  -12.3018   26.6273 C   0  0  0  0  0  0  0  0  0  0  0  0
    7.0870  -14.0273   25.2510 C   0  0  0  0  0  0  0  0  0  0  0  0
    8.2752  -14.8479   25.0054 C   0  0  2  0  0  0  0  0  0  0  0  0
    8.1678  -15.2000   23.5605 N   0  0  0  0  0  0  0  0  0  0  0  0
    8.4827  -16.0967   25.7174 C   0  0  0  0  0  0  0  0  0  0  0  0
    7.5766  -16.9366   25.8574 O   0  0  0  0  0  0  0  0  0  0  0  0
    9.7378  -16.4400   26.3048 N   0  0  0  0  0  0  0  0  0  0  0  0
    9.9229  -17.6713   26.9900 C   0  0  1  0  0  0  0  0  0  0  0  0
   11.0703  -18.5130   26.4793 C   0  0  0  0  0  0  0  0  0  0  0  0
   11.0162  -18.6790   24.9825 C   0  0  0  0  0  0  0  0  0  0  0  0
   12.1761  -19.4745   24.4409 C   0  0  0  0  0  0  0  0  0  0  0  0
   12.0282  -19.6251   22.9436 C   0  0  0  0  0  0  0  0  0  0  0  0
   13.1122  -20.4033   22.3867 N   0  0  0  0  0  0  0  0  0  0  0  0
   10.0500  -17.4839   28.4649 C   0  0  0  0  0  0  0  0  0  0  0  0
   10.1310  -18.4659   29.2106 O   0  0  0  0  0  0  0  0  0  0  0  0
   10.0784  -16.1887   29.0159 O   0  0  0  0  0  0  0  0  0  0  0  0
  2  9  1  0
  2  1  1  6
  3  2  1  0
  4  3  1  0
  4  5  2  0
  6  5  1  0
  7  6  1  0
  8  7  2  0
  8  4  1  0
  9 10  2  0
 12 13  1  1
 12 11  1  0
 14 12  1  0
 15 14  1  1
 16 15  1  0
 16  9  1  0
 17 15  1  0
 18 17  2  0
 19 17  1  0
 20 21  1  6
 20 19  1  0
 22 23  1  0
 22 21  1  0
 23 24  1  0
 24 25  1  0
 26 20  1  0
 26 28  1  0
 27 26  2  0
M  END
$$$$
