HLK.pdb
     RDKit          3D

 28 28  0  0  1  0  0  0  0  0999 V2000
   10.9136  -14.9812   20.5358 N   0  0  0  0  0  0  0  0  0  0  0  0
    9.6051  -14.6536   21.0581 C   0  0  1  0  0  0  0  0  0  0  0  0
    8.6055  -15.5538   20.3850 C   0  0  0  0  0  0  0  0  0  0  0  0
    8.1603  -14.8712   19.1410 C   0  0  0  0  0  0  0  0  0  0  0  0
    8.6186  -13.6805   18.6174 C   0  0  0  0  0  0  0  0  0  0  0  0
    7.9588  -13.4070   17.4770 N   0  0  0  0  0  0  0  0  0  0  0  0
    7.0816  -14.4151   17.2684 C   0  0  0  0  0  0  0  0  0  0  0  0
    7.2075  -15.2967   18.2763 N   0  0  0  0  0  0  0  0  0  0  0  0
    9.5943  -14.8044   22.5381 C   0  0  0  0  0  0  0  0  0  0  0  0
   10.4963  -15.4947   23.1292 O   0  0  0  0  0  0  0  0  0  0  0  0
    8.1530  -12.1356   27.2869 C   0  0  0  0  0  0  0  0  0  0  0  0
    7.1272  -12.8460   26.4612 C   0  0  1  0  0  0  0  0  0  0  0  0
    5.7718  -12.1334   26.5407 C   0  0  0  0  0  0  0  0  0  0  0  0
    7.4791  -13.2350   25.0933 C   0  0  0  0  0  0  0  0  0  0  0  0
    8.5880  -14.1363   24.7719 C   0  0  2  0  0  0  0  0  0  0  0  0
    8.5846  -14.1819   23.2816 N   0  0  0  0  0  0  0  0  0  0  0  0
    8.5861  -15.5165   25.2244 C   0  0  0  0  0  0  0  0  0  0  0  0
    7.6922  -16.3176   24.8999 O   0  0  0  0  0  0  0  0  0  0  0  0
    9.6072  -16.0422   26.0724 N   0  0  0  0  0  0  0  0  0  0  0  0
    9.6159  -17.4091   26.4615 C   0  0  1  0  0  0  0  0  0  0  0  0
   10.6369  -18.2640   25.7457 C   0  0  0  0  0  0  0  0  0  0  0  0
   10.5980  -19.6934   26.2210 C   0  0  0  0  0  0  0  0  0  0  0  0
   11.5893  -20.5743   25.5047 C   0  0  0  0  0  0  0  0  0  0  0  0
   11.4078  -22.0065   25.9548 C   0  0  0  0  0  0  0  0  0  0  0  0
   12.2646  -22.9014   25.2093 N   0  0  0  0  0  0  0  0  0  0  0  0
    9.7615  -17.5758   27.9371 C   0  0  0  0  0  0  0  0  0  0  0  0
    9.3602  -18.6067   28.4879 O   0  0  0  0  0  0  0  0  0  0  0  0
   10.3563  -16.5611   28.7108 O   0  0  0  0  0  0  0  0  0  0  0  0
  2  9  1  0
  2  1  1  6
  3  2  1  0
  4  3  1  0
  4  5  2  0
  6  5  1  0
  7  6  1  0
  8  7  2  0
  8  4  1  0
  9 10  2  0
 12 13  1  6
 12 11  1  0
 14 12  1  0
 15 14  1  1
 16 15  1  0
 16  9  1  0
 17 15  1  0
 18 17  2  0
 19 17  1  0
 20 21  1  6
 20 19  1  0
 22 23  1  0
 22 21  1  0
 23 24  1  0
 24 25  1  0
 26 20  1  0
 26 28  1  0
 27 26  2  0
M  END
$$$$
