HLK.pdb
     RDKit          3D

 28 28  0  0  1  0  0  0  0  0999 V2000
   10.2779  -18.3561   17.3400 N   0  0  0  0  0  0  0  0  0  0  0  0
    9.2628  -18.3559   18.3707 C   0  0  1  0  0  0  0  0  0  0  0  0
    9.0606  -19.7792   18.8135 C   0  0  0  0  0  0  0  0  0  0  0  0
    8.2524  -20.4594   17.7667 C   0  0  0  0  0  0  0  0  0  0  0  0
    7.1428  -19.9760   17.1055 C   0  0  0  0  0  0  0  0  0  0  0  0
    6.7018  -20.8996   16.2319 N   0  0  0  0  0  0  0  0  0  0  0  0
    7.5224  -21.9701   16.3304 C   0  0  0  0  0  0  0  0  0  0  0  0
    8.4571  -21.6990   17.2587 N   0  0  0  0  0  0  0  0  0  0  0  0
    9.6742  -17.4686   19.4916 C   0  0  0  0  0  0  0  0  0  0  0  0
   10.8746  -17.4949   19.9365 O   0  0  0  0  0  0  0  0  0  0  0  0
    6.5806  -12.8715   19.8656 C   0  0  0  0  0  0  0  0  0  0  0  0
    7.7914  -13.7503   19.8859 C   0  0  1  0  0  0  0  0  0  0  0  0
    9.0500  -12.9562   19.5161 C   0  0  0  0  0  0  0  0  0  0  0  0
    7.9985  -14.6273   21.0410 C   0  0  0  0  0  0  0  0  0  0  0  0
    9.0784  -15.6137   21.1204 C   0  0  2  0  0  0  0  0  0  0  0  0
    8.7328  -16.6010   20.0578 N   0  0  0  0  0  0  0  0  0  0  0  0
    9.3050  -16.3794   22.3336 C   0  0  0  0  0  0  0  0  0  0  0  0
    8.4428  -17.1408   22.8058 O   0  0  0  0  0  0  0  0  0  0  0  0
   10.5296  -16.3061   23.0639 N   0  0  0  0  0  0  0  0  0  0  0  0
   10.7438  -17.0881   24.2311 C   0  0  1  0  0  0  0  0  0  0  0  0
   11.9138  -18.0420   24.1474 C   0  0  0  0  0  0  0  0  0  0  0  0
   12.0269  -18.8946   25.3847 C   0  0  0  0  0  0  0  0  0  0  0  0
   13.1415  -19.9054   25.2975 C   0  0  0  0  0  0  0  0  0  0  0  0
   13.1239  -20.7822   26.5294 C   0  0  0  0  0  0  0  0  0  0  0  0
   14.1441  -21.8044   26.4583 N   0  0  0  0  0  0  0  0  0  0  0  0
   10.8616  -16.2494   25.4596 C   0  0  0  0  0  0  0  0  0  0  0  0
   10.9582  -16.7843   26.5694 O   0  0  0  0  0  0  0  0  0  0  0  0
   10.8635  -14.8450   25.3627 O   0  0  0  0  0  0  0  0  0  0  0  0
  2  9  1  0
  2  1  1  6
  3  2  1  0
  4  3  1  0
  4  5  2  0
  6  5  1  0
  7  6  1  0
  8  7  2  0
  8  4  1  0
  9 10  2  0
 12 13  1  1
 12 11  1  0
 14 12  1  0
 15 14  1  1
 16 15  1  0
 16  9  1  0
 17 15  1  0
 18 17  2  0
 19 17  1  0
 20 21  1  6
 20 19  1  0
 22 23  1  0
 22 21  1  0
 23 24  1  0
 24 25  1  0
 26 20  1  0
 26 28  1  0
 27 26  2  0
M  END
$$$$
