HLK.pdb
     RDKit          3D

 28 28  0  0  1  0  0  0  0  0999 V2000
    7.4779  -15.6649   21.4336 N   0  0  0  0  0  0  0  0  0  0  0  0
    8.6267  -14.7958   21.5654 C   0  0  1  0  0  0  0  0  0  0  0  0
    8.3150  -13.5133   20.8439 C   0  0  0  0  0  0  0  0  0  0  0  0
    8.3030  -13.8147   19.3876 C   0  0  0  0  0  0  0  0  0  0  0  0
    9.2441  -14.5111   18.6587 C   0  0  0  0  0  0  0  0  0  0  0  0
    8.8642  -14.5654   17.3689 N   0  0  0  0  0  0  0  0  0  0  0  0
    7.6864  -13.9082   17.2688 C   0  0  0  0  0  0  0  0  0  0  0  0
    7.3520  -13.4569   18.4908 N   0  0  0  0  0  0  0  0  0  0  0  0
    8.9361  -14.5740   23.0036 C   0  0  0  0  0  0  0  0  0  0  0  0
   10.0423  -14.0342   23.3563 O   0  0  0  0  0  0  0  0  0  0  0  0
    5.2734  -12.1994   26.0963 C   0  0  0  0  0  0  0  0  0  0  0  0
    6.6353  -12.6852   25.7116 C   0  0  1  0  0  0  0  0  0  0  0  0
    7.7257  -11.7939   26.3182 C   0  0  0  0  0  0  0  0  0  0  0  0
    6.9329  -14.1128   25.8518 C   0  0  0  0  0  0  0  0  0  0  0  0
    8.1984  -14.7174   25.4293 C   0  0  2  0  0  0  0  0  0  0  0  0
    8.0025  -14.9627   23.9717 N   0  0  0  0  0  0  0  0  0  0  0  0
    8.6551  -15.9731   25.9987 C   0  0  0  0  0  0  0  0  0  0  0  0
    8.5690  -16.2179   27.2147 O   0  0  0  0  0  0  0  0  0  0  0  0
    9.2345  -17.0058   25.2013 N   0  0  0  0  0  0  0  0  0  0  0  0
    9.7693  -18.1839   25.7895 C   0  0  1  0  0  0  0  0  0  0  0  0
   10.0344  -19.3117   24.8181 C   0  0  0  0  0  0  0  0  0  0  0  0
   10.4443  -20.5750   25.5299 C   0  0  0  0  0  0  0  0  0  0  0  0
   10.8354  -21.6791   24.5813 C   0  0  0  0  0  0  0  0  0  0  0  0
   11.1879  -22.9199   25.3705 C   0  0  0  0  0  0  0  0  0  0  0  0
   11.5496  -24.0117   24.4942 N   0  0  0  0  0  0  0  0  0  0  0  0
   10.9968  -17.9079   26.5918 C   0  0  0  0  0  0  0  0  0  0  0  0
   11.9136  -17.2328   26.1113 O   0  0  0  0  0  0  0  0  0  0  0  0
   11.1186  -18.4142   27.8998 O   0  0  0  0  0  0  0  0  0  0  0  0
  2  9  1  0
  2  1  1  1
  3  2  1  0
  4  3  1  0
  4  5  2  0
  6  5  1  0
  7  6  1  0
  8  7  2  0
  8  4  1  0
  9 10  2  0
 12 13  1  1
 12 11  1  0
 14 12  1  0
 15 14  1  1
 16 15  1  0
 16  9  1  0
 17 15  1  0
 18 17  2  0
 19 17  1  0
 20 21  1  6
 20 19  1  0
 22 23  1  0
 22 21  1  0
 23 24  1  0
 24 25  1  0
 26 20  1  0
 26 28  1  0
 27 26  2  0
M  END
$$$$
