YWI.pdb
     RDKit          3D

 35 37  0  0  1  0  0  0  0  0999 V2000
   29.6747  -16.5705  -18.7060 O   0  0  0  0  0  0  0  0  0  0  0  0
   28.9676  -17.2568  -17.6977 C   0  0  0  0  0  0  0  0  0  0  0  0
   29.4283  -17.2668  -16.4007 C   0  0  0  0  0  0  0  0  0  0  0  0
   28.7015  -17.9536  -15.4432 C   0  0  0  0  0  0  0  0  0  0  0  0
   27.5453  -18.6138  -15.7681 C   0  0  0  0  0  0  0  0  0  0  0  0
   26.7944  -19.3335  -14.7279 C   0  0  0  0  0  0  0  0  0  0  0  0
   27.7272  -20.3673  -14.1103 C   0  0  2  0  0  0  0  0  0  0  0  0
   27.9124  -21.3960  -15.1190 N   0  0  0  0  0  0  0  0  0  0  0  0
   27.0163  -20.9177  -12.9326 C   0  0  0  0  0  0  0  0  0  0  0  0
   26.1334  -21.7901  -13.1138 O   0  0  0  0  0  0  0  0  0  0  0  0
   27.0893  -18.6024  -17.0582 C   0  0  0  0  0  0  0  0  0  0  0  0
   27.8113  -17.9174  -18.0213 C   0  0  0  0  0  0  0  0  0  0  0  0
   27.3335  -20.4646  -11.6529 N   0  0  0  0  0  0  0  0  0  0  0  0
   26.6015  -20.9035  -10.4445 C   0  0  1  0  0  0  0  0  0  0  0  0
   27.4296  -20.3959   -9.2975 C   0  0  0  0  0  0  0  0  0  0  0  0
   26.8314  -20.5989   -7.9678 C   0  0  0  0  0  0  0  0  0  0  0  0
   25.6417  -21.2190   -7.6826 C   0  0  0  0  0  0  0  0  0  0  0  0
   25.4262  -21.1906   -6.3593 N   0  0  0  0  0  0  0  0  0  0  0  0
   26.4574  -20.5591   -5.7571 C   0  0  0  0  0  0  0  0  0  0  0  0
   26.7077  -20.2737   -4.4166 C   0  0  0  0  0  0  0  0  0  0  0  0
   27.8584  -19.6040   -4.0594 C   0  0  0  0  0  0  0  0  0  0  0  0
   28.7388  -19.2317   -5.0533 C   0  0  0  0  0  0  0  0  0  0  0  0
   28.4842  -19.5177   -6.3775 C   0  0  0  0  0  0  0  0  0  0  0  0
   27.3274  -20.1923   -6.7474 C   0  0  0  0  0  0  0  0  0  0  0  0
   25.2602  -20.3101  -10.5640 C   0  0  0  0  0  0  0  0  0  0  0  0
   25.1096  -19.0347  -10.6494 O   0  0  0  0  0  0  0  0  0  0  0  0
   21.1073  -19.5778  -14.3094 C   0  0  0  0  0  0  0  0  0  0  0  0
   21.3099  -19.6271  -12.8379 C   0  0  0  0  0  0  0  0  0  0  0  0
   22.5459  -20.2689  -12.3432 C   0  0  2  0  0  0  0  0  0  0  0  0
   22.8926  -21.5016  -13.1503 C   0  0  0  0  0  0  0  0  0  0  0  0
   22.7446  -20.3888  -10.8781 C   0  0  2  0  0  0  0  0  0  0  0  0
   24.0442  -21.0327  -10.6014 N   0  0  0  0  0  0  0  0  0  0  0  0
   21.6750  -20.9812  -10.0884 C   0  0  0  0  0  0  0  0  0  0  0  0
   20.5333  -20.3640   -9.6245 O   0  0  0  0  0  0  0  0  0  0  0  0
   21.7604  -22.2212   -9.7568 O   0  0  0  0  0  0  0  0  0  0  0  0
  2 12  2  0
  2  1  1  0
  3  2  1  0
  4  5  1  0
  4  3  2  0
  5 11  2  0
  6  5  1  0
  7  6  1  0
  7  8  1  6
  9 13  1  0
  9  7  1  0
 10  9  2  0
 11 12  1  0
 14 25  1  0
 14 13  1  0
 14 15  1  1
 16 17  2  0
 16 15  1  0
 18 17  1  0
 19 24  2  0
 19 18  1  0
 20 19  1  0
 21 22  1  0
 21 20  2  0
 22 23  2  0
 23 24  1  0
 24 16  1  0
 25 32  1  0
 26 25  2  0
 28 27  1  0
 29 28  1  0
 29 30  1  6
 31 33  1  0
 31 29  1  0
 31 32  1  6
 33 34  1  0
 35 33  2  0
M  END
$$$$
