YWI.pdb
     RDKit          3D

 35 37  0  0  1  0  0  0  0  0999 V2000
   31.5983  -18.4927  -19.2055 O   0  0  0  0  0  0  0  0  0  0  0  0
   30.6144  -18.3123  -18.2120 C   0  0  0  0  0  0  0  0  0  0  0  0
   30.2824  -19.3403  -17.3590 C   0  0  0  0  0  0  0  0  0  0  0  0
   29.3105  -19.1182  -16.3984 C   0  0  0  0  0  0  0  0  0  0  0  0
   28.6848  -17.9039  -16.2892 C   0  0  0  0  0  0  0  0  0  0  0  0
   27.6570  -17.6983  -15.2570 C   0  0  0  0  0  0  0  0  0  0  0  0
   26.4776  -18.6044  -15.5864 C   0  0  2  0  0  0  0  0  0  0  0  0
   25.8586  -18.0434  -16.7747 N   0  0  0  0  0  0  0  0  0  0  0  0
   25.5535  -18.5202  -14.4312 C   0  0  0  0  0  0  0  0  0  0  0  0
   24.8942  -17.4668  -14.2611 O   0  0  0  0  0  0  0  0  0  0  0  0
   29.0166  -16.8835  -17.1383 C   0  0  0  0  0  0  0  0  0  0  0  0
   29.9880  -17.0985  -18.1018 C   0  0  0  0  0  0  0  0  0  0  0  0
   25.4297  -19.6001  -13.5581 N   0  0  0  0  0  0  0  0  0  0  0  0
   24.5006  -19.5954  -12.4067 C   0  0  1  0  0  0  0  0  0  0  0  0
   23.2656  -20.2835  -12.9168 C   0  0  0  0  0  0  0  0  0  0  0  0
   22.1834  -20.4207  -11.9283 C   0  0  0  0  0  0  0  0  0  0  0  0
   22.1425  -19.8824  -10.6673 C   0  0  0  0  0  0  0  0  0  0  0  0
   21.0031  -20.2454  -10.0606 N   0  0  0  0  0  0  0  0  0  0  0  0
   20.2823  -21.0196  -10.9009 C   0  0  0  0  0  0  0  0  0  0  0  0
   19.0440  -21.6400  -10.7493 C   0  0  0  0  0  0  0  0  0  0  0  0
   18.5199  -22.3898  -11.7805 C   0  0  0  0  0  0  0  0  0  0  0  0
   19.2471  -22.5047  -12.9465 C   0  0  0  0  0  0  0  0  0  0  0  0
   20.4716  -21.8878  -13.0889 C   0  0  0  0  0  0  0  0  0  0  0  0
   21.0081  -21.1300  -12.0554 C   0  0  0  0  0  0  0  0  0  0  0  0
   25.2131  -20.2981  -11.3278 C   0  0  0  0  0  0  0  0  0  0  0  0
   25.8128  -21.4145  -11.5529 O   0  0  0  0  0  0  0  0  0  0  0  0
   28.2482  -18.3245   -7.2154 C   0  0  0  0  0  0  0  0  0  0  0  0
   27.5951  -19.1597   -8.2569 C   0  0  0  0  0  0  0  0  0  0  0  0
   26.4352  -19.9771   -7.8438 C   0  0  2  0  0  0  0  0  0  0  0  0
   26.7108  -20.7201   -6.5543 C   0  0  0  0  0  0  0  0  0  0  0  0
   25.7059  -20.7473   -8.8807 C   0  0  2  0  0  0  0  0  0  0  0  0
   25.3204  -19.8516   -9.9894 N   0  0  0  0  0  0  0  0  0  0  0  0
   24.5922  -21.5828   -8.4561 C   0  0  0  0  0  0  0  0  0  0  0  0
   23.3127  -21.1791   -8.1401 O   0  0  0  0  0  0  0  0  0  0  0  0
   24.7735  -22.8515   -8.3448 O   0  0  0  0  0  0  0  0  0  0  0  0
  2 12  2  0
  2  1  1  0
  3  2  1  0
  4  5  1  0
  4  3  2  0
  5 11  2  0
  6  5  1  0
  7  6  1  0
  7  8  1  6
  9 13  1  0
  9  7  1  0
 10  9  2  0
 11 12  1  0
 14 25  1  0
 14 13  1  0
 14 15  1  6
 16 17  2  0
 16 15  1  0
 18 17  1  0
 19 24  2  0
 19 18  1  0
 20 19  1  0
 21 22  1  0
 21 20  2  0
 22 23  2  0
 23 24  1  0
 24 16  1  0
 25 32  1  0
 26 25  2  0
 28 27  1  0
 29 28  1  0
 29 30  1  1
 31 33  1  0
 31 29  1  0
 31 32  1  6
 33 34  1  0
 35 33  2  0
M  END
$$$$
