YWI.pdb
     RDKit          3D

 35 37  0  0  1  0  0  0  0  0999 V2000
   40.5329  -11.3572  -12.7370 O   0  0  0  0  0  0  0  0  0  0  0  0
   40.6919  -11.3062  -11.3371 C   0  0  0  0  0  0  0  0  0  0  0  0
   41.5967  -12.1276  -10.7036 C   0  0  0  0  0  0  0  0  0  0  0  0
   41.7195  -12.0432   -9.3271 C   0  0  0  0  0  0  0  0  0  0  0  0
   40.9612  -11.1637   -8.5994 C   0  0  0  0  0  0  0  0  0  0  0  0
   41.1157  -11.0965   -7.1381 C   0  0  0  0  0  0  0  0  0  0  0  0
   42.4733  -10.4727   -6.8410 C   0  0  2  0  0  0  0  0  0  0  0  0
   42.9241  -11.0647   -5.5935 N   0  0  0  0  0  0  0  0  0  0  0  0
   42.2348   -9.0204   -6.6695 C   0  0  0  0  0  0  0  0  0  0  0  0
   41.5936   -8.6284   -5.6653 O   0  0  0  0  0  0  0  0  0  0  0  0
   40.0624  -10.3482   -9.2314 C   0  0  0  0  0  0  0  0  0  0  0  0
   39.9342  -10.4271  -10.6082 C   0  0  0  0  0  0  0  0  0  0  0  0
   42.7202   -8.1183   -7.6152 N   0  0  0  0  0  0  0  0  0  0  0  0
   42.5444   -6.6548   -7.4889 C   0  0  1  0  0  0  0  0  0  0  0  0
   43.7137   -6.0697   -8.2300 C   0  0  0  0  0  0  0  0  0  0  0  0
   43.8168   -4.6029   -8.1597 C   0  0  0  0  0  0  0  0  0  0  0  0
   43.5023   -3.8024   -7.0912 C   0  0  0  0  0  0  0  0  0  0  0  0
   43.7091   -2.5178   -7.4160 N   0  0  0  0  0  0  0  0  0  0  0  0
   44.1579   -2.4505   -8.6884 C   0  0  0  0  0  0  0  0  0  0  0  0
   44.5146   -1.3637   -9.4839 C   0  0  0  0  0  0  0  0  0  0  0  0
   44.9502   -1.5706  -10.7753 C   0  0  0  0  0  0  0  0  0  0  0  0
   45.0205   -2.8646  -11.2470 C   0  0  0  0  0  0  0  0  0  0  0  0
   44.6659   -3.9347  -10.4537 C   0  0  0  0  0  0  0  0  0  0  0  0
   44.2257   -3.7363   -9.1509 C   0  0  0  0  0  0  0  0  0  0  0  0
   41.2232   -6.3691   -8.0705 C   0  0  0  0  0  0  0  0  0  0  0  0
   40.8981   -6.8335   -9.2260 O   0  0  0  0  0  0  0  0  0  0  0  0
   36.7022   -7.8098   -6.2979 C   0  0  0  0  0  0  0  0  0  0  0  0
   37.8489   -7.2597   -7.0670 C   0  0  0  0  0  0  0  0  0  0  0  0
   37.7983   -5.8285   -7.4321 C   0  0  2  0  0  0  0  0  0  0  0  0
   36.4345   -5.4382   -7.9600 C   0  0  0  0  0  0  0  0  0  0  0  0
   38.9537   -5.2396   -8.1521 C   0  0  2  0  0  0  0  0  0  0  0  0
   40.2081   -5.5956   -7.4593 N   0  0  0  0  0  0  0  0  0  0  0  0
   38.9067   -3.8219   -8.4785 C   0  0  0  0  0  0  0  0  0  0  0  0
   39.2540   -2.7620   -7.6686 O   0  0  0  0  0  0  0  0  0  0  0  0
   38.4977   -3.4654   -9.6449 O   0  0  0  0  0  0  0  0  0  0  0  0
  2 12  2  0
  2  1  1  0
  3  2  1  0
  4  5  1  0
  4  3  2  0
  5 11  2  0
  6  5  1  0
  7  6  1  0
  7  8  1  1
  9 13  1  0
  9  7  1  0
 10  9  2  0
 11 12  1  0
 14 25  1  0
 14 13  1  0
 14 15  1  6
 16 17  2  0
 16 15  1  0
 18 17  1  0
 19 24  2  0
 19 18  1  0
 20 19  1  0
 21 22  1  0
 21 20  2  0
 22 23  2  0
 23 24  1  0
 24 16  1  0
 25 32  1  0
 26 25  2  0
 28 27  1  0
 29 28  1  0
 29 30  1  6
 31 33  1  0
 31 29  1  0
 31 32  1  1
 33 34  1  0
 35 33  2  0
M  END
$$$$
