YWI.pdb
     RDKit          3D

 35 37  0  0  1  0  0  0  0  0999 V2000
   27.6694  -16.8314  -20.9939 O   0  0  0  0  0  0  0  0  0  0  0  0
   27.1584  -17.7350  -20.0400 C   0  0  0  0  0  0  0  0  0  0  0  0
   26.9119  -19.0464  -20.3777 C   0  0  0  0  0  0  0  0  0  0  0  0
   26.4101  -19.8985  -19.4087 C   0  0  0  0  0  0  0  0  0  0  0  0
   26.1599  -19.4569  -18.1357 C   0  0  0  0  0  0  0  0  0  0  0  0
   25.6281  -20.3869  -17.1278 C   0  0  0  0  0  0  0  0  0  0  0  0
   26.7701  -20.7641  -16.1928 C   0  0  2  0  0  0  0  0  0  0  0  0
   27.4031  -21.9317  -16.7810 N   0  0  0  0  0  0  0  0  0  0  0  0
   26.1467  -21.1110  -14.8942 C   0  0  0  0  0  0  0  0  0  0  0  0
   25.6897  -22.2681  -14.7339 O   0  0  0  0  0  0  0  0  0  0  0  0
   26.4058  -18.1527  -17.8024 C   0  0  0  0  0  0  0  0  0  0  0  0
   26.9078  -17.2946  -18.7667 C   0  0  0  0  0  0  0  0  0  0  0  0
   26.0767  -20.1585  -13.8785 N   0  0  0  0  0  0  0  0  0  0  0  0
   25.5967  -20.4761  -12.5156 C   0  0  1  0  0  0  0  0  0  0  0  0
   26.3721  -19.5523  -11.6187 C   0  0  0  0  0  0  0  0  0  0  0  0
   27.3011  -20.2250  -10.6958 C   0  0  0  0  0  0  0  0  0  0  0  0
   28.2563  -21.1555  -11.0170 C   0  0  0  0  0  0  0  0  0  0  0  0
   28.8896  -21.5519   -9.9034 N   0  0  0  0  0  0  0  0  0  0  0  0
   28.3692  -20.8976   -8.8423 C   0  0  0  0  0  0  0  0  0  0  0  0
   28.6753  -20.9529   -7.4843 C   0  0  0  0  0  0  0  0  0  0  0  0
   27.9806  -20.1664   -6.5903 C   0  0  0  0  0  0  0  0  0  0  0  0
   26.9903  -19.3376   -7.0740 C   0  0  0  0  0  0  0  0  0  0  0  0
   26.6933  -19.2884   -8.4191 C   0  0  0  0  0  0  0  0  0  0  0  0
   27.3877  -20.0772   -9.3279 C   0  0  0  0  0  0  0  0  0  0  0  0
   24.1435  -20.2471  -12.5506 C   0  0  0  0  0  0  0  0  0  0  0  0
   23.6657  -19.0975  -12.8773 O   0  0  0  0  0  0  0  0  0  0  0  0
   20.1100  -24.1681  -13.8430 C   0  0  0  0  0  0  0  0  0  0  0  0
   20.8140  -23.2679  -12.8929 C   0  0  0  0  0  0  0  0  0  0  0  0
   21.1071  -21.8932  -13.3495 C   0  0  2  0  0  0  0  0  0  0  0  0
   21.7124  -21.8863  -14.7368 C   0  0  0  0  0  0  0  0  0  0  0  0
   21.7092  -20.9397  -12.3859 C   0  0  2  0  0  0  0  0  0  0  0  0
   23.1538  -21.2127  -12.2497 N   0  0  0  0  0  0  0  0  0  0  0  0
   21.0697  -20.7827  -11.0878 C   0  0  0  0  0  0  0  0  0  0  0  0
   21.5829  -21.1179   -9.8532 O   0  0  0  0  0  0  0  0  0  0  0  0
   19.8867  -20.2804  -11.0339 O   0  0  0  0  0  0  0  0  0  0  0  0
  2 12  2  0
  2  1  1  0
  3  2  1  0
  4  5  1  0
  4  3  2  0
  5 11  2  0
  6  5  1  0
  7  6  1  0
  7  8  1  6
  9 13  1  0
  9  7  1  0
 10  9  2  0
 11 12  1  0
 14 25  1  0
 14 13  1  0
 14 15  1  1
 16 17  2  0
 16 15  1  0
 18 17  1  0
 19 24  2  0
 19 18  1  0
 20 19  1  0
 21 22  1  0
 21 20  2  0
 22 23  2  0
 23 24  1  0
 24 16  1  0
 25 32  1  0
 26 25  2  0
 28 27  1  0
 29 28  1  0
 29 30  1  6
 31 33  1  0
 31 29  1  0
 31 32  1  1
 33 34  1  0
 35 33  2  0
M  END
$$$$
