YWI.pdb
     RDKit          3D

 35 37  0  0  1  0  0  0  0  0999 V2000
   27.8937  -15.2606  -16.4578 O   0  0  0  0  0  0  0  0  0  0  0  0
   27.9135  -16.5807  -15.9632 C   0  0  0  0  0  0  0  0  0  0  0  0
   28.6912  -17.5437  -16.5653 C   0  0  0  0  0  0  0  0  0  0  0  0
   28.6797  -18.8269  -16.0456 C   0  0  0  0  0  0  0  0  0  0  0  0
   27.9137  -19.1439  -14.9544 C   0  0  0  0  0  0  0  0  0  0  0  0
   27.9239  -20.5162  -14.4246 C   0  0  0  0  0  0  0  0  0  0  0  0
   28.6250  -20.4887  -13.0725 C   0  0  2  0  0  0  0  0  0  0  0  0
   29.7311  -21.4249  -13.1734 N   0  0  0  0  0  0  0  0  0  0  0  0
   27.6326  -20.9636  -12.0800 C   0  0  0  0  0  0  0  0  0  0  0  0
   27.4258  -22.1963  -11.9753 O   0  0  0  0  0  0  0  0  0  0  0  0
   27.1413  -18.1849  -14.3576 C   0  0  0  0  0  0  0  0  0  0  0  0
   27.1478  -16.8990  -14.8721 C   0  0  0  0  0  0  0  0  0  0  0  0
   26.9489  -20.0453  -11.2843 N   0  0  0  0  0  0  0  0  0  0  0  0
   25.8522  -20.4376  -10.3721 C   0  0  1  0  0  0  0  0  0  0  0  0
   25.9745  -19.4940   -9.2087 C   0  0  0  0  0  0  0  0  0  0  0  0
   27.2104  -19.6413   -8.4227 C   0  0  0  0  0  0  0  0  0  0  0  0
   28.4742  -19.2540   -8.7890 C   0  0  0  0  0  0  0  0  0  0  0  0
   29.3415  -19.5739   -7.8176 N   0  0  0  0  0  0  0  0  0  0  0  0
   28.6726  -20.1702   -6.8068 C   0  0  0  0  0  0  0  0  0  0  0  0
   29.1099  -20.6813   -5.5867 C   0  0  0  0  0  0  0  0  0  0  0  0
   28.2055  -21.2501   -4.7156 C   0  0  0  0  0  0  0  0  0  0  0  0
   26.8773  -21.2967   -5.0834 C   0  0  0  0  0  0  0  0  0  0  0  0
   26.4522  -20.7888   -6.2923 C   0  0  0  0  0  0  0  0  0  0  0  0
   27.3560  -20.2136   -7.1769 C   0  0  0  0  0  0  0  0  0  0  0  0
   24.6194  -20.3041  -11.1645 C   0  0  0  0  0  0  0  0  0  0  0  0
   24.6374  -19.7375  -12.3200 O   0  0  0  0  0  0  0  0  0  0  0  0
   21.7860  -22.3715  -15.1871 C   0  0  0  0  0  0  0  0  0  0  0  0
   21.4523  -21.5906  -13.9674 C   0  0  0  0  0  0  0  0  0  0  0  0
   22.4876  -21.4954  -12.9170 C   0  0  2  0  0  0  0  0  0  0  0  0
   23.1921  -22.8191  -12.7105 C   0  0  0  0  0  0  0  0  0  0  0  0
   22.1744  -20.7395  -11.6798 C   0  0  2  0  0  0  0  0  0  0  0  0
   23.3391  -20.7618  -10.7725 N   0  0  0  0  0  0  0  0  0  0  0  0
   20.9415  -21.0596  -10.9755 C   0  0  0  0  0  0  0  0  0  0  0  0
   19.6638  -20.6498  -11.2910 O   0  0  0  0  0  0  0  0  0  0  0  0
   20.9986  -21.8059   -9.9293 O   0  0  0  0  0  0  0  0  0  0  0  0
  2 12  2  0
  2  1  1  0
  3  2  1  0
  4  5  1  0
  4  3  2  0
  5 11  2  0
  6  5  1  0
  7  6  1  0
  7  8  1  6
  9 13  1  0
  9  7  1  0
 10  9  2  0
 11 12  1  0
 14 25  1  0
 14 13  1  0
 14 15  1  1
 16 17  2  0
 16 15  1  0
 18 17  1  0
 19 24  2  0
 19 18  1  0
 20 19  1  0
 21 22  1  0
 21 20  2  0
 22 23  2  0
 23 24  1  0
 24 16  1  0
 25 32  1  0
 26 25  2  0
 28 27  1  0
 29 28  1  0
 29 30  1  1
 31 33  1  0
 31 29  1  0
 31 32  1  1
 33 34  1  0
 35 33  2  0
M  END
$$$$
