YWI.pdb
     RDKit          3D

 35 37  0  0  1  0  0  0  0  0999 V2000
   27.4675  -17.6176  -21.6733 O   0  0  0  0  0  0  0  0  0  0  0  0
   27.0991  -18.4443  -20.5924 C   0  0  0  0  0  0  0  0  0  0  0  0
   27.0437  -17.9417  -19.3122 C   0  0  0  0  0  0  0  0  0  0  0  0
   26.6769  -18.7899  -18.2813 C   0  0  0  0  0  0  0  0  0  0  0  0
   26.3728  -20.1050  -18.5182 C   0  0  0  0  0  0  0  0  0  0  0  0
   25.9850  -20.9809  -17.4019 C   0  0  0  0  0  0  0  0  0  0  0  0
   27.2373  -21.2822  -16.5887 C   0  0  2  0  0  0  0  0  0  0  0  0
   27.8924  -22.3942  -17.2554 N   0  0  0  0  0  0  0  0  0  0  0  0
   26.7710  -21.6870  -15.2418 C   0  0  0  0  0  0  0  0  0  0  0  0
   26.1388  -22.7634  -15.1201 O   0  0  0  0  0  0  0  0  0  0  0  0
   26.4286  -20.6023  -19.7918 C   0  0  0  0  0  0  0  0  0  0  0  0
   26.7948  -19.7595  -20.8280 C   0  0  0  0  0  0  0  0  0  0  0  0
   27.0374  -20.8759  -14.1395 N   0  0  0  0  0  0  0  0  0  0  0  0
   26.5392  -21.1836  -12.7809 C   0  0  1  0  0  0  0  0  0  0  0  0
   27.4134  -20.3720  -11.8666 C   0  0  0  0  0  0  0  0  0  0  0  0
   26.9250  -20.2638  -10.4821 C   0  0  0  0  0  0  0  0  0  0  0  0
   25.7217  -19.7523  -10.0676 C   0  0  0  0  0  0  0  0  0  0  0  0
   25.6479  -19.8051   -8.7297 N   0  0  0  0  0  0  0  0  0  0  0  0
   26.7873  -20.3456   -8.2453 C   0  0  0  0  0  0  0  0  0  0  0  0
   27.1992  -20.6134   -6.9416 C   0  0  0  0  0  0  0  0  0  0  0  0
   28.4348  -21.1806   -6.7137 C   0  0  0  0  0  0  0  0  0  0  0  0
   29.2365  -21.4696   -7.7979 C   0  0  0  0  0  0  0  0  0  0  0  0
   28.8218  -21.2017   -9.0849 C   0  0  0  0  0  0  0  0  0  0  0  0
   27.5784  -20.6303   -9.3248 C   0  0  0  0  0  0  0  0  0  0  0  0
   25.1171  -20.8055  -12.7921 C   0  0  0  0  0  0  0  0  0  0  0  0
   24.7426  -19.6649  -13.2562 O   0  0  0  0  0  0  0  0  0  0  0  0
   19.8140  -21.7411  -14.8770 C   0  0  0  0  0  0  0  0  0  0  0  0
   20.4968  -21.2959  -13.6343 C   0  0  0  0  0  0  0  0  0  0  0  0
   21.9348  -21.6097  -13.4993 C   0  0  2  0  0  0  0  0  0  0  0  0
   22.2342  -23.0328  -13.9189 C   0  0  0  0  0  0  0  0  0  0  0  0
   22.6529  -21.1363  -12.2908 C   0  0  2  0  0  0  0  0  0  0  0  0
   24.0512  -21.6095  -12.3233 N   0  0  0  0  0  0  0  0  0  0  0  0
   22.0383  -21.3725  -10.9927 C   0  0  0  0  0  0  0  0  0  0  0  0
   20.9141  -20.7671  -10.4735 O   0  0  0  0  0  0  0  0  0  0  0  0
   22.5704  -22.2349  -10.2003 O   0  0  0  0  0  0  0  0  0  0  0  0
  2 12  2  0
  2  1  1  0
  3  2  1  0
  4  5  1  0
  4  3  2  0
  5 11  2  0
  6  5  1  0
  7  6  1  0
  7  8  1  6
  9 13  1  0
  9  7  1  0
 10  9  2  0
 11 12  1  0
 14 25  1  0
 14 13  1  0
 14 15  1  1
 16 17  2  0
 16 15  1  0
 18 17  1  0
 19 24  2  0
 19 18  1  0
 20 19  1  0
 21 22  1  0
 21 20  2  0
 22 23  2  0
 23 24  1  0
 24 16  1  0
 25 32  1  0
 26 25  2  0
 28 27  1  0
 29 28  1  0
 29 30  1  1
 31 33  1  0
 31 29  1  0
 31 32  1  1
 33 34  1  0
 35 33  2  0
M  END
$$$$
