YWI.pdb
     RDKit          3D

 35 37  0  0  1  0  0  0  0  0999 V2000
   27.8367  -13.7709  -20.9277 O   0  0  0  0  0  0  0  0  0  0  0  0
   27.2631  -14.8596  -20.2398 C   0  0  0  0  0  0  0  0  0  0  0  0
   26.7009  -15.9085  -20.9314 C   0  0  0  0  0  0  0  0  0  0  0  0
   26.1492  -16.9567  -20.2146 C   0  0  0  0  0  0  0  0  0  0  0  0
   26.1567  -16.9611  -18.8442 C   0  0  0  0  0  0  0  0  0  0  0  0
   25.5639  -18.0901  -18.1109 C   0  0  0  0  0  0  0  0  0  0  0  0
   26.6909  -19.0409  -17.7284 C   0  0  2  0  0  0  0  0  0  0  0  0
   26.9336  -19.8685  -18.8973 N   0  0  0  0  0  0  0  0  0  0  0  0
   26.1782  -19.8637  -16.6079 C   0  0  0  0  0  0  0  0  0  0  0  0
   25.4135  -20.8242  -16.8647 O   0  0  0  0  0  0  0  0  0  0  0  0
   26.7162  -15.9172  -18.1589 C   0  0  0  0  0  0  0  0  0  0  0  0
   27.2700  -14.8652  -18.8694 C   0  0  0  0  0  0  0  0  0  0  0  0
   26.5476  -19.5635  -15.2974 N   0  0  0  0  0  0  0  0  0  0  0  0
   26.1882  -20.4231  -14.1482 C   0  0  1  0  0  0  0  0  0  0  0  0
   27.1894  -20.0681  -13.0849 C   0  0  0  0  0  0  0  0  0  0  0  0
   27.0021  -20.7680  -11.8034 C   0  0  0  0  0  0  0  0  0  0  0  0
   27.2837  -22.0824  -11.5306 C   0  0  0  0  0  0  0  0  0  0  0  0
   26.9592  -22.3567  -10.2587 N   0  0  0  0  0  0  0  0  0  0  0  0
   26.4643  -21.2416   -9.6785 C   0  0  0  0  0  0  0  0  0  0  0  0
   25.9915  -21.0051   -8.3895 C   0  0  0  0  0  0  0  0  0  0  0  0
   25.5322  -19.7518   -8.0447 C   0  0  0  0  0  0  0  0  0  0  0  0
   25.5551  -18.7569   -8.9993 C   0  0  0  0  0  0  0  0  0  0  0  0
   26.0244  -18.9986  -10.2726 C   0  0  0  0  0  0  0  0  0  0  0  0
   26.4893  -20.2582  -10.6296 C   0  0  0  0  0  0  0  0  0  0  0  0
   24.7900  -20.0890  -13.8335 C   0  0  0  0  0  0  0  0  0  0  0  0
   24.3915  -18.8652  -13.8240 O   0  0  0  0  0  0  0  0  0  0  0  0
   20.6727  -21.3441  -16.5268 C   0  0  0  0  0  0  0  0  0  0  0  0
   21.6046  -20.7396  -15.5394 C   0  0  0  0  0  0  0  0  0  0  0  0
   21.4280  -21.1139  -14.1206 C   0  0  2  0  0  0  0  0  0  0  0  0
   19.9766  -21.0266  -13.7001 C   0  0  0  0  0  0  0  0  0  0  0  0
   22.4109  -20.6144  -13.1284 C   0  0  2  0  0  0  0  0  0  0  0  0
   23.7731  -21.0234  -13.5252 N   0  0  0  0  0  0  0  0  0  0  0  0
   22.1601  -20.8847  -11.7203 C   0  0  0  0  0  0  0  0  0  0  0  0
   21.3704  -20.1597  -10.8540 O   0  0  0  0  0  0  0  0  0  0  0  0
   22.7201  -21.9057  -11.1737 O   0  0  0  0  0  0  0  0  0  0  0  0
  2 12  2  0
  2  1  1  0
  3  2  1  0
  4  5  1  0
  4  3  2  0
  5 11  2  0
  6  5  1  0
  7  6  1  0
  7  8  1  6
  9 13  1  0
  9  7  1  0
 10  9  2  0
 11 12  1  0
 14 25  1  0
 14 13  1  0
 14 15  1  1
 16 17  2  0
 16 15  1  0
 18 17  1  0
 19 24  2  0
 19 18  1  0
 20 19  1  0
 21 22  1  0
 21 20  2  0
 22 23  2  0
 23 24  1  0
 24 16  1  0
 25 32  1  0
 26 25  2  0
 28 27  1  0
 29 28  1  0
 29 30  1  1
 31 33  1  0
 31 29  1  0
 31 32  1  6
 33 34  1  0
 35 33  2  0
M  END
$$$$
