YWI.pdb
     RDKit          3D

 35 37  0  0  1  0  0  0  0  0999 V2000
   29.3153  -15.5177  -17.3442 O   0  0  0  0  0  0  0  0  0  0  0  0
   28.7095  -16.7077  -16.8919 C   0  0  0  0  0  0  0  0  0  0  0  0
   27.7900  -16.6813  -15.8679 C   0  0  0  0  0  0  0  0  0  0  0  0
   27.2204  -17.8741  -15.4562 C   0  0  0  0  0  0  0  0  0  0  0  0
   27.5570  -19.0632  -16.0485 C   0  0  0  0  0  0  0  0  0  0  0  0
   26.9331  -20.3138  -15.5898 C   0  0  0  0  0  0  0  0  0  0  0  0
   27.8185  -20.9040  -14.4996 C   0  0  2  0  0  0  0  0  0  0  0  0
   28.4607  -22.0665  -15.0880 N   0  0  0  0  0  0  0  0  0  0  0  0
   26.9102  -21.3129  -13.4026 C   0  0  0  0  0  0  0  0  0  0  0  0
   26.4135  -22.4644  -13.4277 O   0  0  0  0  0  0  0  0  0  0  0  0
   28.4713  -19.0869  -17.0663 C   0  0  0  0  0  0  0  0  0  0  0  0
   29.0454  -17.8974  -17.4833 C   0  0  0  0  0  0  0  0  0  0  0  0
   26.6224  -20.4232  -12.3685 N   0  0  0  0  0  0  0  0  0  0  0  0
   25.7557  -20.7804  -11.2239 C   0  0  1  0  0  0  0  0  0  0  0  0
   26.2600  -19.9317  -10.0906 C   0  0  0  0  0  0  0  0  0  0  0  0
   27.4387  -20.4715   -9.3932 C   0  0  0  0  0  0  0  0  0  0  0  0
   28.5091  -21.1174   -9.9575 C   0  0  0  0  0  0  0  0  0  0  0  0
   29.3729  -21.4786   -8.9975 N   0  0  0  0  0  0  0  0  0  0  0  0
   28.8927  -21.0818   -7.7988 C   0  0  0  0  0  0  0  0  0  0  0  0
   29.4054  -21.2149   -6.5102 C   0  0  0  0  0  0  0  0  0  0  0  0
   28.7037  -20.7117   -5.4356 C   0  0  0  0  0  0  0  0  0  0  0  0
   27.4992  -20.0834   -5.6720 C   0  0  0  0  0  0  0  0  0  0  0  0
   26.9984  -19.9556   -6.9499 C   0  0  0  0  0  0  0  0  0  0  0  0
   27.6982  -20.4594   -8.0392 C   0  0  0  0  0  0  0  0  0  0  0  0
   24.3835  -20.4880  -11.6676 C   0  0  0  0  0  0  0  0  0  0  0  0
   23.9956  -19.2747  -11.8523 O   0  0  0  0  0  0  0  0  0  0  0  0
   22.4038  -22.4044  -16.0025 C   0  0  0  0  0  0  0  0  0  0  0  0
   22.6907  -21.6459  -14.7570 C   0  0  0  0  0  0  0  0  0  0  0  0
   21.7096  -21.7499  -13.6566 C   0  0  2  0  0  0  0  0  0  0  0  0
   20.2929  -21.5675  -14.1571 C   0  0  0  0  0  0  0  0  0  0  0  0
   22.0203  -21.0892  -12.3655 C   0  0  2  0  0  0  0  0  0  0  0  0
   23.3842  -21.4541  -11.9332 N   0  0  0  0  0  0  0  0  0  0  0  0
   21.0609  -21.2239  -11.2792 C   0  0  0  0  0  0  0  0  0  0  0  0
   20.1388  -20.2921  -10.8533 O   0  0  0  0  0  0  0  0  0  0  0  0
   21.0331  -22.3198  -10.6062 O   0  0  0  0  0  0  0  0  0  0  0  0
  2 12  2  0
  2  1  1  0
  3  2  1  0
  4  5  1  0
  4  3  2  0
  5 11  2  0
  6  5  1  0
  7  6  1  0
  7  8  1  6
  9 13  1  0
  9  7  1  0
 10  9  2  0
 11 12  1  0
 14 25  1  0
 14 13  1  0
 14 15  1  1
 16 17  2  0
 16 15  1  0
 18 17  1  0
 19 24  2  0
 19 18  1  0
 20 19  1  0
 21 22  1  0
 21 20  2  0
 22 23  2  0
 23 24  1  0
 24 16  1  0
 25 32  1  0
 26 25  2  0
 28 27  1  0
 29 28  1  0
 29 30  1  6
 31 33  1  0
 31 29  1  0
 31 32  1  1
 33 34  1  0
 35 33  2  0
M  END
$$$$
