YWI.pdb
     RDKit          3D

 35 37  0  0  1  0  0  0  0  0999 V2000
   17.3158  -24.1569  -14.3689 O   0  0  0  0  0  0  0  0  0  0  0  0
   18.5306  -23.4459  -14.2881 C   0  0  0  0  0  0  0  0  0  0  0  0
   18.6361  -22.1763  -14.8093 C   0  0  0  0  0  0  0  0  0  0  0  0
   19.8484  -21.5155  -14.7073 C   0  0  0  0  0  0  0  0  0  0  0  0
   20.9285  -22.1031  -14.1021 C   0  0  0  0  0  0  0  0  0  0  0  0
   22.2030  -21.3746  -14.0080 C   0  0  0  0  0  0  0  0  0  0  0  0
   22.5060  -21.1540  -12.5315 C   0  0  2  0  0  0  0  0  0  0  0  0
   21.5421  -20.1725  -12.0650 N   0  0  0  0  0  0  0  0  0  0  0  0
   23.8799  -20.6030  -12.4670 C   0  0  0  0  0  0  0  0  0  0  0  0
   24.0554  -19.3873  -12.7214 O   0  0  0  0  0  0  0  0  0  0  0  0
   20.8211  -23.3653  -13.5848 C   0  0  0  0  0  0  0  0  0  0  0  0
   19.6114  -24.0325  -13.6832 C   0  0  0  0  0  0  0  0  0  0  0  0
   24.9480  -21.4326  -12.1284 N   0  0  0  0  0  0  0  0  0  0  0  0
   26.3441  -20.9489  -12.0530 C   0  0  1  0  0  0  0  0  0  0  0  0
   26.9097  -21.6201  -10.8330 C   0  0  0  0  0  0  0  0  0  0  0  0
   26.6370  -20.9247   -9.5645 C   0  0  0  0  0  0  0  0  0  0  0  0
   25.4760  -20.2904   -9.2025 C   0  0  0  0  0  0  0  0  0  0  0  0
   25.6172  -19.7581   -7.9798 N   0  0  0  0  0  0  0  0  0  0  0  0
   26.8585  -20.0291   -7.5206 C   0  0  0  0  0  0  0  0  0  0  0  0
   27.4898  -19.7027   -6.3223 C   0  0  0  0  0  0  0  0  0  0  0  0
   28.7877  -20.1084   -6.0962 C   0  0  0  0  0  0  0  0  0  0  0  0
   29.4305  -20.8348   -7.0765 C   0  0  0  0  0  0  0  0  0  0  0  0
   28.7991  -21.1539   -8.2595 C   0  0  0  0  0  0  0  0  0  0  0  0
   27.4912  -20.7495   -8.4966 C   0  0  0  0  0  0  0  0  0  0  0  0
   26.9617  -21.3395  -13.3303 C   0  0  0  0  0  0  0  0  0  0  0  0
   26.6413  -22.4454  -13.9056 O   0  0  0  0  0  0  0  0  0  0  0  0
   25.5961  -18.5505  -17.8987 C   0  0  0  0  0  0  0  0  0  0  0  0
   26.7151  -19.4194  -17.4494 C   0  0  0  0  0  0  0  0  0  0  0  0
   26.9168  -19.5690  -15.9929 C   0  0  2  0  0  0  0  0  0  0  0  0
   26.8829  -18.2302  -15.2875 C   0  0  0  0  0  0  0  0  0  0  0  0
   27.9533  -20.5161  -15.5147 C   0  0  2  0  0  0  0  0  0  0  0  0
   27.9252  -20.5845  -14.0401 N   0  0  0  0  0  0  0  0  0  0  0  0
   29.3101  -20.3572  -16.0172 C   0  0  0  0  0  0  0  0  0  0  0  0
   30.1808  -19.3179  -15.7689 O   0  0  0  0  0  0  0  0  0  0  0  0
   29.7977  -21.2636  -16.7888 O   0  0  0  0  0  0  0  0  0  0  0  0
  2 12  2  0
  2  1  1  0
  3  2  1  0
  4  5  1  0
  4  3  2  0
  5 11  2  0
  6  5  1  0
  7  6  1  0
  7  8  1  6
  9 13  1  0
  9  7  1  0
 10  9  2  0
 11 12  1  0
 14 25  1  0
 14 13  1  0
 14 15  1  1
 16 17  2  0
 16 15  1  0
 18 17  1  0
 19 24  2  0
 19 18  1  0
 20 19  1  0
 21 22  1  0
 21 20  2  0
 22 23  2  0
 23 24  1  0
 24 16  1  0
 25 32  1  0
 26 25  2  0
 28 27  1  0
 29 28  1  0
 29 30  1  6
 31 33  1  0
 31 29  1  0
 31 32  1  1
 33 34  1  0
 35 33  2  0
M  END
$$$$
