YWI.pdb
     RDKit          3D

 35 37  0  0  1  0  0  0  0  0999 V2000
   14.4563  -23.9114    1.5456 O   0  0  0  0  0  0  0  0  0  0  0  0
   15.3386  -22.9656    2.1066 C   0  0  0  0  0  0  0  0  0  0  0  0
   16.5139  -22.6386    1.4692 C   0  0  0  0  0  0  0  0  0  0  0  0
   17.3501  -21.7045    2.0566 C   0  0  0  0  0  0  0  0  0  0  0  0
   17.0250  -21.1108    3.2482 C   0  0  0  0  0  0  0  0  0  0  0  0
   17.9336  -20.1207    3.8465 C   0  0  0  0  0  0  0  0  0  0  0  0
   17.2120  -18.7793    3.8687 C   0  0  2  0  0  0  0  0  0  0  0  0
   17.1344  -18.3409    2.4861 N   0  0  0  0  0  0  0  0  0  0  0  0
   18.0667  -17.8607    4.6568 C   0  0  0  0  0  0  0  0  0  0  0  0
   19.0935  -17.3810    4.1193 O   0  0  0  0  0  0  0  0  0  0  0  0
   15.8560  -21.4375    3.8799 C   0  0  0  0  0  0  0  0  0  0  0  0
   15.0146  -22.3712    3.2981 C   0  0  0  0  0  0  0  0  0  0  0  0
   17.7231  -17.5445    5.9706 N   0  0  0  0  0  0  0  0  0  0  0  0
   18.4108  -16.4881    6.7452 C   0  0  1  0  0  0  0  0  0  0  0  0
   17.3438  -15.4646    7.0155 C   0  0  0  0  0  0  0  0  0  0  0  0
   17.3934  -14.2780    6.1457 C   0  0  0  0  0  0  0  0  0  0  0  0
   16.4865  -13.9224    5.1801 C   0  0  0  0  0  0  0  0  0  0  0  0
   16.8845  -12.7880    4.5858 N   0  0  0  0  0  0  0  0  0  0  0  0
   18.0462  -12.3815    5.1427 C   0  0  0  0  0  0  0  0  0  0  0  0
   18.8562  -11.2779    4.8839 C   0  0  0  0  0  0  0  0  0  0  0  0
   20.0132  -11.0890    5.6091 C   0  0  0  0  0  0  0  0  0  0  0  0
   20.3382  -12.0109    6.5819 C   0  0  0  0  0  0  0  0  0  0  0  0
   19.5316  -13.1003    6.8321 C   0  0  0  0  0  0  0  0  0  0  0  0
   18.3636  -13.2992    6.1066 C   0  0  0  0  0  0  0  0  0  0  0  0
   18.9499  -17.1654    7.9352 C   0  0  0  0  0  0  0  0  0  0  0  0
   18.4130  -18.2490    8.3759 O   0  0  0  0  0  0  0  0  0  0  0  0
   24.2553  -16.5949    9.1630 C   0  0  0  0  0  0  0  0  0  0  0  0
   22.9383  -17.2682    9.0179 C   0  0  0  0  0  0  0  0  0  0  0  0
   21.9738  -17.1209   10.1280 C   0  0  2  0  0  0  0  0  0  0  0  0
   22.5468  -17.6313   11.4326 C   0  0  0  0  0  0  0  0  0  0  0  0
   20.5511  -17.4595    9.8801 C   0  0  2  0  0  0  0  0  0  0  0  0
   20.0641  -16.7311    8.6916 N   0  0  0  0  0  0  0  0  0  0  0  0
   19.6181  -17.3529   10.9923 C   0  0  0  0  0  0  0  0  0  0  0  0
   18.9347  -16.2312   11.4101 O   0  0  0  0  0  0  0  0  0  0  0  0
   19.3719  -18.3986   11.6998 O   0  0  0  0  0  0  0  0  0  0  0  0
  2 12  2  0
  2  1  1  0
  3  2  1  0
  4  5  1  0
  4  3  2  0
  5 11  2  0
  6  5  1  0
  7  6  1  0
  7  8  1  6
  9 13  1  0
  9  7  1  0
 10  9  2  0
 11 12  1  0
 14 25  1  0
 14 13  1  0
 14 15  1  1
 16 17  2  0
 16 15  1  0
 18 17  1  0
 19 24  2  0
 19 18  1  0
 20 19  1  0
 21 22  1  0
 21 20  2  0
 22 23  2  0
 23 24  1  0
 24 16  1  0
 25 32  1  0
 26 25  2  0
 28 27  1  0
 29 28  1  0
 29 30  1  1
 31 33  1  0
 31 29  1  0
 31 32  1  6
 33 34  1  0
 35 33  2  0
M  END
$$$$
