YWI.pdb
     RDKit          3D

 35 37  0  0  1  0  0  0  0  0999 V2000
   31.1636  -18.2477  -20.1858 O   0  0  0  0  0  0  0  0  0  0  0  0
   30.3120  -18.1771  -19.0645 C   0  0  0  0  0  0  0  0  0  0  0  0
   29.0938  -17.5417  -19.1479 C   0  0  0  0  0  0  0  0  0  0  0  0
   28.2899  -17.4967  -18.0216 C   0  0  0  0  0  0  0  0  0  0  0  0
   28.6881  -18.0695  -16.8420 C   0  0  0  0  0  0  0  0  0  0  0  0
   27.8109  -18.0064  -15.6629 C   0  0  0  0  0  0  0  0  0  0  0  0
   28.0529  -19.2612  -14.8339 C   0  0  2  0  0  0  0  0  0  0  0  0
   27.6387  -20.3786  -15.6644 N   0  0  0  0  0  0  0  0  0  0  0  0
   27.1784  -19.1478  -13.6432 C   0  0  0  0  0  0  0  0  0  0  0  0
   27.2344  -18.1037  -12.9503 O   0  0  0  0  0  0  0  0  0  0  0  0
   29.8996  -18.7006  -16.7615 C   0  0  0  0  0  0  0  0  0  0  0  0
   30.7090  -18.7495  -17.8843 C   0  0  0  0  0  0  0  0  0  0  0  0
   26.3145  -20.1906  -13.3116 N   0  0  0  0  0  0  0  0  0  0  0  0
   25.2596  -20.0590  -12.2826 C   0  0  1  0  0  0  0  0  0  0  0  0
   24.0567  -20.7252  -12.8893 C   0  0  0  0  0  0  0  0  0  0  0  0
   22.8889  -20.8193  -11.9980 C   0  0  0  0  0  0  0  0  0  0  0  0
   22.8931  -20.8118  -10.6264 C   0  0  0  0  0  0  0  0  0  0  0  0
   21.6375  -20.9367  -10.1725 N   0  0  0  0  0  0  0  0  0  0  0  0
   20.7944  -21.0274  -11.2242 C   0  0  0  0  0  0  0  0  0  0  0  0
   19.4097  -21.1680  -11.2864 C   0  0  0  0  0  0  0  0  0  0  0  0
   18.7800  -21.2380  -12.5107 C   0  0  0  0  0  0  0  0  0  0  0  0
   19.5504  -21.1658  -13.6522 C   0  0  0  0  0  0  0  0  0  0  0  0
   20.9200  -21.0267  -13.5825 C   0  0  0  0  0  0  0  0  0  0  0  0
   21.5638  -20.9553  -12.3534 C   0  0  0  0  0  0  0  0  0  0  0  0
   25.8028  -20.7127  -11.0813 C   0  0  0  0  0  0  0  0  0  0  0  0
   26.2325  -21.9250  -11.1288 O   0  0  0  0  0  0  0  0  0  0  0  0
   28.4241  -18.5369   -6.4075 C   0  0  0  0  0  0  0  0  0  0  0  0
   27.3800  -18.9402   -7.3852 C   0  0  0  0  0  0  0  0  0  0  0  0
   27.4775  -20.2971   -7.9627 C   0  0  2  0  0  0  0  0  0  0  0  0
   28.7706  -20.4834   -8.7271 C   0  0  0  0  0  0  0  0  0  0  0  0
   26.2720  -20.8865   -8.5948 C   0  0  2  0  0  0  0  0  0  0  0  0
   25.9145  -20.1165   -9.8029 N   0  0  0  0  0  0  0  0  0  0  0  0
   25.1096  -21.1333   -7.7544 C   0  0  0  0  0  0  0  0  0  0  0  0
   23.8388  -20.6218   -7.9079 O   0  0  0  0  0  0  0  0  0  0  0  0
   25.2320  -21.9096   -6.7359 O   0  0  0  0  0  0  0  0  0  0  0  0
  2 12  2  0
  2  1  1  0
  3  2  1  0
  4  5  1  0
  4  3  2  0
  5 11  2  0
  6  5  1  0
  7  6  1  0
  7  8  1  6
  9 13  1  0
  9  7  1  0
 10  9  2  0
 11 12  1  0
 14 25  1  0
 14 13  1  0
 14 15  1  6
 16 17  2  0
 16 15  1  0
 18 17  1  0
 19 24  2  0
 19 18  1  0
 20 19  1  0
 21 22  1  0
 21 20  2  0
 22 23  2  0
 23 24  1  0
 24 16  1  0
 25 32  1  0
 26 25  2  0
 28 27  1  0
 29 28  1  0
 29 30  1  6
 31 33  1  0
 31 29  1  0
 31 32  1  6
 33 34  1  0
 35 33  2  0
M  END
$$$$
