YWI.pdb
     RDKit          3D

 35 37  0  0  1  0  0  0  0  0999 V2000
   25.0974  -17.5428  -19.1912 O   0  0  0  0  0  0  0  0  0  0  0  0
   25.0963  -18.2782  -17.9884 C   0  0  0  0  0  0  0  0  0  0  0  0
   25.1757  -17.6359  -16.7736 C   0  0  0  0  0  0  0  0  0  0  0  0
   25.1713  -18.3983  -15.6180 C   0  0  0  0  0  0  0  0  0  0  0  0
   25.0899  -19.7654  -15.6698 C   0  0  0  0  0  0  0  0  0  0  0  0
   25.0859  -20.5478  -14.4241 C   0  0  0  0  0  0  0  0  0  0  0  0
   26.5104  -20.5731  -13.8848 C   0  0  2  0  0  0  0  0  0  0  0  0
   27.2297  -21.5424  -14.6929 N   0  0  0  0  0  0  0  0  0  0  0  0
   26.4150  -21.0370  -12.4809 C   0  0  0  0  0  0  0  0  0  0  0  0
   26.1433  -22.2415  -12.2602 O   0  0  0  0  0  0  0  0  0  0  0  0
   25.0111  -20.4016  -16.8787 C   0  0  0  0  0  0  0  0  0  0  0  0
   25.0150  -19.6453  -18.0389 C   0  0  0  0  0  0  0  0  0  0  0  0
   26.6261  -20.1397  -11.4349 N   0  0  0  0  0  0  0  0  0  0  0  0
   26.5082  -20.5276  -10.0121 C   0  0  1  0  0  0  0  0  0  0  0  0
   27.2973  -19.4850   -9.2710 C   0  0  0  0  0  0  0  0  0  0  0  0
   27.1962  -19.5622   -7.8044 C   0  0  0  0  0  0  0  0  0  0  0  0
   26.2071  -19.0332   -7.0149 C   0  0  0  0  0  0  0  0  0  0  0  0
   26.4734  -19.2930   -5.7266 N   0  0  0  0  0  0  0  0  0  0  0  0
   27.6284  -19.9890   -5.6457 C   0  0  0  0  0  0  0  0  0  0  0  0
   28.3270  -20.4919   -4.5502 C   0  0  0  0  0  0  0  0  0  0  0  0
   29.5054  -21.1806   -4.7435 C   0  0  0  0  0  0  0  0  0  0  0  0
   29.9632  -21.3531   -6.0328 C   0  0  0  0  0  0  0  0  0  0  0  0
   29.2662  -20.8526   -7.1116 C   0  0  0  0  0  0  0  0  0  0  0  0
   28.0777  -20.1572   -6.9271 C   0  0  0  0  0  0  0  0  0  0  0  0
   25.0640  -20.5429   -9.7303 C   0  0  0  0  0  0  0  0  0  0  0  0
   24.3102  -19.5683  -10.1025 O   0  0  0  0  0  0  0  0  0  0  0  0
   21.5331  -21.9603  -12.2774 C   0  0  0  0  0  0  0  0  0  0  0  0
   22.2419  -21.3265  -11.1351 C   0  0  0  0  0  0  0  0  0  0  0  0
   22.1026  -21.9656   -9.8098 C   0  0  2  0  0  0  0  0  0  0  0  0
   20.6509  -22.2227   -9.4674 C   0  0  0  0  0  0  0  0  0  0  0  0
   22.9438  -21.4709   -8.6927 C   0  0  2  0  0  0  0  0  0  0  0  0
   24.3707  -21.5766   -9.0572 N   0  0  0  0  0  0  0  0  0  0  0  0
   22.6916  -21.9989   -7.3599 C   0  0  0  0  0  0  0  0  0  0  0  0
   23.4756  -22.8767   -6.6425 O   0  0  0  0  0  0  0  0  0  0  0  0
   21.6248  -21.6365   -6.7390 O   0  0  0  0  0  0  0  0  0  0  0  0
  2 12  2  0
  2  1  1  0
  3  2  1  0
  4  5  1  0
  4  3  2  0
  5 11  2  0
  6  5  1  0
  7  6  1  0
  7  8  1  6
  9 13  1  0
  9  7  1  0
 10  9  2  0
 11 12  1  0
 14 25  1  0
 14 13  1  0
 14 15  1  1
 16 17  2  0
 16 15  1  0
 18 17  1  0
 19 24  2  0
 19 18  1  0
 20 19  1  0
 21 22  1  0
 21 20  2  0
 22 23  2  0
 23 24  1  0
 24 16  1  0
 25 32  1  0
 26 25  2  0
 28 27  1  0
 29 28  1  0
 29 30  1  1
 31 33  1  0
 31 29  1  0
 31 32  1  6
 33 34  1  0
 35 33  2  0
M  END
$$$$
