YWI.pdb
     RDKit          3D

 35 37  0  0  1  0  0  0  0  0999 V2000
    9.2861  -21.8404    3.1883 O   0  0  0  0  0  0  0  0  0  0  0  0
   10.6398  -21.4959    3.3798 C   0  0  0  0  0  0  0  0  0  0  0  0
   11.6273  -22.4494    3.2780 C   0  0  0  0  0  0  0  0  0  0  0  0
   12.9431  -22.0659    3.4738 C   0  0  0  0  0  0  0  0  0  0  0  0
   13.2682  -20.7665    3.7634 C   0  0  0  0  0  0  0  0  0  0  0  0
   14.6759  -20.3898    3.9645 C   0  0  0  0  0  0  0  0  0  0  0  0
   15.0862  -19.4857    2.8092 C   0  0  2  0  0  0  0  0  0  0  0  0
   15.3727  -20.3670    1.6906 N   0  0  0  0  0  0  0  0  0  0  0  0
   16.3168  -18.7856    3.2462 C   0  0  0  0  0  0  0  0  0  0  0  0
   17.4174  -19.3784    3.1437 O   0  0  0  0  0  0  0  0  0  0  0  0
   12.2848  -19.8204    3.8640 C   0  0  0  0  0  0  0  0  0  0  0  0
   10.9662  -20.1968    3.6695 C   0  0  0  0  0  0  0  0  0  0  0  0
   16.2371  -17.4919    3.7599 N   0  0  0  0  0  0  0  0  0  0  0  0
   17.4311  -16.7137    4.1566 C   0  0  1  0  0  0  0  0  0  0  0  0
   17.0272  -15.2791    3.9623 C   0  0  0  0  0  0  0  0  0  0  0  0
   18.0736  -14.2950    4.2842 C   0  0  0  0  0  0  0  0  0  0  0  0
   19.2225  -14.0486    3.5767 C   0  0  0  0  0  0  0  0  0  0  0  0
   19.9351  -13.0955    4.1947 N   0  0  0  0  0  0  0  0  0  0  0  0
   19.2762  -12.7020    5.3064 C   0  0  0  0  0  0  0  0  0  0  0  0
   19.5902  -11.7531    6.2771 C   0  0  0  0  0  0  0  0  0  0  0  0
   18.7301  -11.5389    7.3328 C   0  0  0  0  0  0  0  0  0  0  0  0
   17.5693  -12.2806    7.3971 C   0  0  0  0  0  0  0  0  0  0  0  0
   17.2656  -13.2177    6.4328 C   0  0  0  0  0  0  0  0  0  0  0  0
   18.1260  -13.4407    5.3650 C   0  0  0  0  0  0  0  0  0  0  0  0
   17.7088  -17.1071    5.5471 C   0  0  0  0  0  0  0  0  0  0  0  0
   16.7470  -17.3302    6.3729 O   0  0  0  0  0  0  0  0  0  0  0  0
   21.6402  -20.1878    9.1150 C   0  0  0  0  0  0  0  0  0  0  0  0
   20.6379  -19.0947    9.0189 C   0  0  0  0  0  0  0  0  0  0  0  0
   20.2789  -18.6187    7.6665 C   0  0  2  0  0  0  0  0  0  0  0  0
   21.5091  -18.3785    6.8179 C   0  0  0  0  0  0  0  0  0  0  0  0
   19.2045  -17.6047    7.5342 C   0  0  2  0  0  0  0  0  0  0  0  0
   18.9959  -17.2811    6.1087 N   0  0  0  0  0  0  0  0  0  0  0  0
   19.2948  -16.4014    8.3482 C   0  0  0  0  0  0  0  0  0  0  0  0
   19.5706  -15.1194    7.9235 O   0  0  0  0  0  0  0  0  0  0  0  0
   19.1062  -16.4934    9.6173 O   0  0  0  0  0  0  0  0  0  0  0  0
  2 12  2  0
  2  1  1  0
  3  2  1  0
  4  5  1  0
  4  3  2  0
  5 11  2  0
  6  5  1  0
  7  6  1  0
  7  8  1  6
  9 13  1  0
  9  7  1  0
 10  9  2  0
 11 12  1  0
 14 25  1  0
 14 13  1  0
 14 15  1  1
 16 17  2  0
 16 15  1  0
 18 17  1  0
 19 24  2  0
 19 18  1  0
 20 19  1  0
 21 22  1  0
 21 20  2  0
 22 23  2  0
 23 24  1  0
 24 16  1  0
 25 32  1  0
 26 25  2  0
 28 27  1  0
 29 28  1  0
 29 30  1  1
 31 33  1  0
 31 29  1  0
 31 32  1  6
 33 34  1  0
 35 33  2  0
M  END
$$$$
