YWI.pdb
     RDKit          3D

 35 37  0  0  1  0  0  0  0  0999 V2000
   25.9624  -25.4654  -22.0268 O   0  0  0  0  0  0  0  0  0  0  0  0
   25.4507  -25.3541  -20.7179 C   0  0  0  0  0  0  0  0  0  0  0  0
   24.7435  -24.2373  -20.3339 C   0  0  0  0  0  0  0  0  0  0  0  0
   24.2594  -24.1710  -19.0386 C   0  0  0  0  0  0  0  0  0  0  0  0
   24.4735  -25.1901  -18.1476 C   0  0  0  0  0  0  0  0  0  0  0  0
   23.9450  -25.0907  -16.7785 C   0  0  0  0  0  0  0  0  0  0  0  0
   24.7517  -24.0281  -16.0433 C   0  0  2  0  0  0  0  0  0  0  0  0
   26.0107  -24.6564  -15.6825 N   0  0  0  0  0  0  0  0  0  0  0  0
   23.9766  -23.6845  -14.8282 C   0  0  0  0  0  0  0  0  0  0  0  0
   24.1640  -24.3530  -13.7834 O   0  0  0  0  0  0  0  0  0  0  0  0
   25.1768  -26.2993  -18.5317 C   0  0  0  0  0  0  0  0  0  0  0  0
   25.6641  -26.3725  -19.8261 C   0  0  0  0  0  0  0  0  0  0  0  0
   23.0593  -22.6351  -14.8606 N   0  0  0  0  0  0  0  0  0  0  0  0
   22.3383  -22.1653  -13.6572 C   0  0  1  0  0  0  0  0  0  0  0  0
   22.5257  -20.6740  -13.6643 C   0  0  0  0  0  0  0  0  0  0  0  0
   21.7757  -19.9534  -12.6225 C   0  0  0  0  0  0  0  0  0  0  0  0
   21.7460  -20.2357  -11.2805 C   0  0  0  0  0  0  0  0  0  0  0  0
   20.9339  -19.3697  -10.6571 N   0  0  0  0  0  0  0  0  0  0  0  0
   20.4206  -18.5123  -11.5662 C   0  0  0  0  0  0  0  0  0  0  0  0
   19.5382  -17.4428  -11.4295 C   0  0  0  0  0  0  0  0  0  0  0  0
   19.1652  -16.7132  -12.5380 C   0  0  0  0  0  0  0  0  0  0  0  0
   19.6838  -17.0690  -13.7653 C   0  0  0  0  0  0  0  0  0  0  0  0
   20.5564  -18.1285  -13.8925 C   0  0  0  0  0  0  0  0  0  0  0  0
   20.9383  -18.8698  -12.7812 C   0  0  0  0  0  0  0  0  0  0  0  0
   20.9515  -22.6267  -13.8284 C   0  0  0  0  0  0  0  0  0  0  0  0
   20.3977  -22.6310  -14.9903 O   0  0  0  0  0  0  0  0  0  0  0  0
   18.9352  -27.2340  -12.2276 C   0  0  0  0  0  0  0  0  0  0  0  0
   19.1570  -25.9370  -12.9184 C   0  0  0  0  0  0  0  0  0  0  0  0
   18.3952  -24.7682  -12.4307 C   0  0  2  0  0  0  0  0  0  0  0  0
   16.9268  -25.0941  -12.2616 C   0  0  0  0  0  0  0  0  0  0  0  0
   18.6903  -23.4366  -13.0137 C   0  0  2  0  0  0  0  0  0  0  0  0
   20.1105  -23.0983  -12.7928 N   0  0  0  0  0  0  0  0  0  0  0  0
   17.8155  -22.3270  -12.6640 C   0  0  0  0  0  0  0  0  0  0  0  0
   16.7028  -21.8874  -13.3486 O   0  0  0  0  0  0  0  0  0  0  0  0
   18.0700  -21.6446  -11.6037 O   0  0  0  0  0  0  0  0  0  0  0  0
  2 12  2  0
  2  1  1  0
  3  2  1  0
  4  5  1  0
  4  3  2  0
  5 11  2  0
  6  5  1  0
  7  6  1  0
  7  8  1  1
  9 13  1  0
  9  7  1  0
 10  9  2  0
 11 12  1  0
 14 25  1  0
 14 13  1  0
 14 15  1  6
 16 17  2  0
 16 15  1  0
 18 17  1  0
 19 24  2  0
 19 18  1  0
 20 19  1  0
 21 22  1  0
 21 20  2  0
 22 23  2  0
 23 24  1  0
 24 16  1  0
 25 32  1  0
 26 25  2  0
 28 27  1  0
 29 28  1  0
 29 30  1  6
 31 33  1  0
 31 29  1  0
 31 32  1  1
 33 34  1  0
 35 33  2  0
M  END
$$$$
