LKC.pdb
     RDKit          3D

 24 23  0  0  1  0  0  0  0  0999 V2000
   23.6677  -15.0890  -14.8001 C   0  0  0  0  0  0  0  0  0  0  0  0
   24.2633  -14.2828  -15.9172 C   0  0  2  0  0  0  0  0  0  0  0  0
   25.6745  -13.9344  -15.5730 C   0  0  0  0  0  0  0  0  0  0  0  0
   23.4214  -13.0914  -16.2922 C   0  0  0  0  0  0  0  0  0  0  0  0
   21.9927  -13.4397  -16.5713 C   0  0  2  0  0  0  0  0  0  0  0  0
   21.7885  -14.1877  -17.7654 N   0  0  0  0  0  0  0  0  0  0  0  0
   21.2247  -12.1712  -16.6756 C   0  0  0  0  0  0  0  0  0  0  0  0
   21.5631  -11.2759  -17.4851 O   0  0  0  0  0  0  0  0  0  0  0  0
   20.0830  -11.9276  -15.8648 N   0  0  0  0  0  0  0  0  0  0  0  0
   19.2713  -10.6959  -16.0267 C   0  0  1  0  0  0  0  0  0  0  0  0
   17.8643  -11.0742  -15.6268 C   0  0  0  0  0  0  0  0  0  0  0  0
   17.0631  -11.7312  -16.7092 C   0  0  0  0  0  0  0  0  0  0  0  0
   15.7014  -12.0672  -16.0734 C   0  0  0  0  0  0  0  0  0  0  0  0
   14.8879  -12.7434  -17.1559 C   0  0  0  0  0  0  0  0  0  0  0  0
   13.6164  -13.1371  -16.5945 N   0  0  0  0  0  0  0  0  0  0  0  0
   19.8785   -9.6466  -15.1924 C   0  0  0  0  0  0  0  0  0  0  0  0
   20.1216   -9.9208  -13.9680 O   0  0  0  0  0  0  0  0  0  0  0  0
   20.2333   -8.3483  -15.5964 N   0  0  0  0  0  0  0  0  0  0  0  0
   20.8753   -7.3711  -14.7372 C   0  0  1  0  0  0  0  0  0  0  0  0
   22.3123   -7.2460  -15.2231 C   0  0  0  0  0  0  0  0  0  0  0  0
   22.2607   -6.7382  -16.9733 S   0  0  0  0  0  0  0  0  0  0  0  0
   20.2549   -6.0290  -14.8830 C   0  0  0  0  0  0  0  0  0  0  0  0
   19.3515   -5.7812  -15.7123 O   0  0  0  0  0  0  0  0  0  0  0  0
   20.7082   -5.0180  -14.0565 O   0  0  0  0  0  0  0  0  0  0  0  0
  2  1  1  1
  3  2  1  0
  4  2  1  0
  5  6  1  6
  5  4  1  0
  7  5  1  0
  8  7  2  0
  9  7  1  0
 10 11  1  1
 10  9  1  0
 11 12  1  0
 12 13  1  0
 13 14  1  0
 14 15  1  0
 16 10  1  0
 17 16  2  0
 18 16  1  0
 19 22  1  0
 19 18  1  0
 20 21  1  0
 19 20  1  6
 22 24  1  0
 23 22  2  0
M  END
$$$$
