LKC.pdb
     RDKit          3D

 24 23  0  0  1  0  0  0  0  0999 V2000
   23.8340  -20.9625   -9.9123 C   0  0  0  0  0  0  0  0  0  0  0  0
   25.3269  -20.9261  -10.0627 C   0  0  2  0  0  0  0  0  0  0  0  0
   25.8954  -19.9527   -9.0827 C   0  0  0  0  0  0  0  0  0  0  0  0
   25.7660  -20.6800  -11.4823 C   0  0  0  0  0  0  0  0  0  0  0  0
   25.1597  -21.6337  -12.4638 C   0  0  2  0  0  0  0  0  0  0  0  0
   25.9555  -22.7809  -12.7430 N   0  0  0  0  0  0  0  0  0  0  0  0
   24.9342  -20.8987  -13.7361 C   0  0  0  0  0  0  0  0  0  0  0  0
   25.8907  -20.3883  -14.3655 O   0  0  0  0  0  0  0  0  0  0  0  0
   23.6313  -20.7481  -14.2838 N   0  0  0  0  0  0  0  0  0  0  0  0
   23.4204  -20.1108  -15.6073 C   0  0  1  0  0  0  0  0  0  0  0  0
   22.8534  -21.1908  -16.4989 C   0  0  0  0  0  0  0  0  0  0  0  0
   23.7923  -22.3239  -16.7811 C   0  0  0  0  0  0  0  0  0  0  0  0
   23.0696  -23.2177  -17.8059 C   0  0  0  0  0  0  0  0  0  0  0  0
   24.0226  -24.3506  -18.1209 C   0  0  0  0  0  0  0  0  0  0  0  0
   23.3547  -25.2784  -19.0043 N   0  0  0  0  0  0  0  0  0  0  0  0
   22.5301  -18.9555  -15.4111 C   0  0  0  0  0  0  0  0  0  0  0  0
   21.6771  -19.0113  -14.4611 O   0  0  0  0  0  0  0  0  0  0  0  0
   22.5110  -17.7687  -16.1633 N   0  0  0  0  0  0  0  0  0  0  0  0
   21.5480  -16.6991  -15.9791 C   0  0  1  0  0  0  0  0  0  0  0  0
   22.2411  -15.4144  -16.4101 C   0  0  0  0  0  0  0  0  0  0  0  0
   21.0837  -14.0372  -16.1146 S   0  0  0  0  0  0  0  0  0  0  0  0
   20.3700  -16.8700  -16.8683 C   0  0  0  0  0  0  0  0  0  0  0  0
   20.4614  -17.2499  -18.0567 O   0  0  0  0  0  0  0  0  0  0  0  0
   19.1221  -16.5921  -16.3425 O   0  0  0  0  0  0  0  0  0  0  0  0
  2  1  1  6
  3  2  1  0
  4  2  1  0
  5  6  1  6
  5  4  1  0
  7  5  1  0
  8  7  2  0
  9  7  1  0
 10 11  1  6
 10  9  1  0
 11 12  1  0
 12 13  1  0
 13 14  1  0
 14 15  1  0
 16 10  1  0
 17 16  2  0
 18 16  1  0
 19 22  1  0
 19 18  1  0
 20 21  1  0
 19 20  1  6
 22 24  1  0
 23 22  2  0
M  END
$$$$
