LKC.pdb
     RDKit          3D

 24 23  0  0  1  0  0  0  0  0999 V2000
   22.0100  -13.8947  -18.6449 C   0  0  0  0  0  0  0  0  0  0  0  0
   20.5152  -13.8331  -18.7634 C   0  0  2  0  0  0  0  0  0  0  0  0
   20.1084  -14.3335  -20.1108 C   0  0  0  0  0  0  0  0  0  0  0  0
   19.9574  -12.4743  -18.4302 C   0  0  0  0  0  0  0  0  0  0  0  0
   20.4092  -11.9583  -17.0998 C   0  0  2  0  0  0  0  0  0  0  0  0
   20.0533  -12.7815  -15.9939 N   0  0  0  0  0  0  0  0  0  0  0  0
   19.8023  -10.6162  -16.8996 C   0  0  0  0  0  0  0  0  0  0  0  0
   20.0209   -9.6815  -17.7059 O   0  0  0  0  0  0  0  0  0  0  0  0
   18.9551  -10.3440  -15.7912 N   0  0  0  0  0  0  0  0  0  0  0  0
   18.3272   -9.0117  -15.6099 C   0  0  1  0  0  0  0  0  0  0  0  0
   17.0091   -9.2683  -14.9175 C   0  0  0  0  0  0  0  0  0  0  0  0
   15.9358   -9.8224  -15.8042 C   0  0  0  0  0  0  0  0  0  0  0  0
   14.6923   -9.9726  -14.9085 C   0  0  0  0  0  0  0  0  0  0  0  0
   13.5917  -10.5013  -15.8030 C   0  0  0  0  0  0  0  0  0  0  0  0
   12.4329  -10.7804  -14.9868 N   0  0  0  0  0  0  0  0  0  0  0  0
   19.2641   -8.1760  -14.8419 C   0  0  0  0  0  0  0  0  0  0  0  0
   19.7220   -8.6436  -13.7441 O   0  0  0  0  0  0  0  0  0  0  0  0
   19.7269   -6.8944  -15.1855 N   0  0  0  0  0  0  0  0  0  0  0  0
   20.5717   -6.0751  -14.3367 C   0  0  1  0  0  0  0  0  0  0  0  0
   21.9815   -6.1785  -14.9010 C   0  0  0  0  0  0  0  0  0  0  0  0
   23.0271   -4.9919  -13.9943 S   0  0  0  0  0  0  0  0  0  0  0  0
   20.1855   -4.6422  -14.4073 C   0  0  0  0  0  0  0  0  0  0  0  0
   19.5069   -4.1635  -15.3431 O   0  0  0  0  0  0  0  0  0  0  0  0
   20.6033   -3.8126  -13.3835 O   0  0  0  0  0  0  0  0  0  0  0  0
  2  1  1  6
  3  2  1  0
  4  2  1  0
  5  6  1  1
  5  4  1  0
  7  5  1  0
  8  7  2  0
  9  7  1  0
 10 11  1  1
 10  9  1  0
 11 12  1  0
 12 13  1  0
 13 14  1  0
 14 15  1  0
 16 10  1  0
 17 16  2  0
 18 16  1  0
 19 22  1  0
 19 18  1  0
 20 21  1  0
 19 20  1  6
 22 24  1  0
 23 22  2  0
M  END
$$$$
