LKC.pdb
     RDKit          3D

 24 23  0  0  1  0  0  0  0  0999 V2000
   23.4530  -14.4518  -14.8814 C   0  0  0  0  0  0  0  0  0  0  0  0
   24.2449  -13.8843  -16.0231 C   0  0  2  0  0  0  0  0  0  0  0  0
   25.6993  -13.9394  -15.6871 C   0  0  0  0  0  0  0  0  0  0  0  0
   23.7727  -12.5160  -16.4395 C   0  0  0  0  0  0  0  0  0  0  0  0
   22.3380  -12.4884  -16.8651 C   0  0  2  0  0  0  0  0  0  0  0  0
   22.0535  -13.2465  -18.0362 N   0  0  0  0  0  0  0  0  0  0  0  0
   21.9639  -11.0726  -17.1209 C   0  0  0  0  0  0  0  0  0  0  0  0
   22.4746  -10.4307  -18.0690 O   0  0  0  0  0  0  0  0  0  0  0  0
   21.0176  -10.3970  -16.3035 N   0  0  0  0  0  0  0  0  0  0  0  0
   20.5059   -9.0523  -16.6669 C   0  0  1  0  0  0  0  0  0  0  0  0
   19.0076   -9.1183  -16.4838 C   0  0  0  0  0  0  0  0  0  0  0  0
   18.2619   -9.7003  -17.6459 C   0  0  0  0  0  0  0  0  0  0  0  0
   17.3918  -10.8275  -17.0596 C   0  0  0  0  0  0  0  0  0  0  0  0
   16.6856  -11.4676  -18.2354 C   0  0  0  0  0  0  0  0  0  0  0  0
   15.8234  -12.5142  -17.7369 N   0  0  0  0  0  0  0  0  0  0  0  0
   21.1804   -8.0685  -15.8049 C   0  0  0  0  0  0  0  0  0  0  0  0
   21.4319   -8.4033  -14.5973 O   0  0  0  0  0  0  0  0  0  0  0  0
   21.5925   -6.7743  -16.1651 N   0  0  0  0  0  0  0  0  0  0  0  0
   22.2326   -5.8382  -15.2599 C   0  0  1  0  0  0  0  0  0  0  0  0
   23.2726   -5.0872  -16.0790 C   0  0  0  0  0  0  0  0  0  0  0  0
   23.9975   -3.8034  -15.0066 S   0  0  0  0  0  0  0  0  0  0  0  0
   21.2696   -4.8249  -14.7566 C   0  0  0  0  0  0  0  0  0  0  0  0
   20.3037   -4.4063  -15.4328 O   0  0  0  0  0  0  0  0  0  0  0  0
   21.4638   -4.3319  -13.4799 O   0  0  0  0  0  0  0  0  0  0  0  0
  2  1  1  1
  3  2  1  0
  4  2  1  0
  5  6  1  6
  5  4  1  0
  7  5  1  0
  8  7  2  0
  9  7  1  0
 10 11  1  1
 10  9  1  0
 11 12  1  0
 12 13  1  0
 13 14  1  0
 14 15  1  0
 16 10  1  0
 17 16  2  0
 18 16  1  0
 19 22  1  0
 19 18  1  0
 20 21  1  0
 19 20  1  6
 22 24  1  0
 23 22  2  0
M  END
$$$$
