LKC.pdb
     RDKit          3D

 24 23  0  0  1  0  0  0  0  0999 V2000
   29.4507  -11.9067  -16.5217 C   0  0  0  0  0  0  0  0  0  0  0  0
   28.4100  -12.7334  -17.2187 C   0  0  2  0  0  0  0  0  0  0  0  0
   28.9931  -13.3040  -18.4700 C   0  0  0  0  0  0  0  0  0  0  0  0
   27.1208  -11.9864  -17.4393 C   0  0  0  0  0  0  0  0  0  0  0  0
   26.5507  -11.4048  -16.1835 C   0  0  2  0  0  0  0  0  0  0  0  0
   26.2005  -12.3651  -15.1924 N   0  0  0  0  0  0  0  0  0  0  0  0
   25.3291  -10.6398  -16.5472 C   0  0  0  0  0  0  0  0  0  0  0  0
   25.3493   -9.7906  -17.4692 O   0  0  0  0  0  0  0  0  0  0  0  0
   24.0981  -10.8419  -15.8660 N   0  0  0  0  0  0  0  0  0  0  0  0
   22.8804  -10.0764  -16.2311 C   0  0  1  0  0  0  0  0  0  0  0  0
   21.7153  -10.9950  -15.9458 C   0  0  0  0  0  0  0  0  0  0  0  0
   20.3678  -10.3932  -16.2057 C   0  0  0  0  0  0  0  0  0  0  0  0
   19.3505  -11.5160  -15.9306 C   0  0  0  0  0  0  0  0  0  0  0  0
   17.9849  -10.9195  -16.1952 C   0  0  0  0  0  0  0  0  0  0  0  0
   16.9908  -11.9509  -16.0080 N   0  0  0  0  0  0  0  0  0  0  0  0
   22.8804   -8.8329  -15.4438 C   0  0  0  0  0  0  0  0  0  0  0  0
   23.0030   -8.9273  -14.1752 O   0  0  0  0  0  0  0  0  0  0  0  0
   22.7615   -7.5226  -15.9374 N   0  0  0  0  0  0  0  0  0  0  0  0
   22.8293   -6.3294  -15.1146 C   0  0  1  0  0  0  0  0  0  0  0  0
   23.4451   -5.2406  -15.9818 C   0  0  0  0  0  0  0  0  0  0  0  0
   25.1460   -5.7554  -16.3885 S   0  0  0  0  0  0  0  0  0  0  0  0
   21.4739   -5.8568  -14.7310 C   0  0  0  0  0  0  0  0  0  0  0  0
   20.4271   -6.2689  -15.2784 O   0  0  0  0  0  0  0  0  0  0  0  0
   21.3827   -4.9181  -13.7204 O   0  0  0  0  0  0  0  0  0  0  0  0
  2  1  1  6
  3  2  1  0
  4  2  1  0
  5  6  1  1
  5  4  1  0
  7  5  1  0
  8  7  2  0
  9  7  1  0
 10 11  1  1
 10  9  1  0
 11 12  1  0
 12 13  1  0
 13 14  1  0
 14 15  1  0
 16 10  1  0
 17 16  2  0
 18 16  1  0
 19 22  1  0
 19 18  1  0
 20 21  1  0
 19 20  1  6
 22 24  1  0
 23 22  2  0
M  END
$$$$
