LKC.pdb
     RDKit          3D

 24 23  0  0  1  0  0  0  0  0999 V2000
   26.0730  -11.1961  -14.9086 C   0  0  0  0  0  0  0  0  0  0  0  0
   25.8741  -10.4999  -16.2232 C   0  0  2  0  0  0  0  0  0  0  0  0
   27.1356   -9.7946  -16.6011 C   0  0  0  0  0  0  0  0  0  0  0  0
   24.6582   -9.6111  -16.2364 C   0  0  0  0  0  0  0  0  0  0  0  0
   23.3980  -10.3255  -15.8596 C   0  0  2  0  0  0  0  0  0  0  0  0
   23.0518  -11.4073  -16.7180 N   0  0  0  0  0  0  0  0  0  0  0  0
   22.2881   -9.3369  -15.8804 C   0  0  0  0  0  0  0  0  0  0  0  0
   21.7368   -9.0071  -16.9569 O   0  0  0  0  0  0  0  0  0  0  0  0
   21.8127   -8.7314  -14.6856 N   0  0  0  0  0  0  0  0  0  0  0  0
   20.7376   -7.7089  -14.7145 C   0  0  1  0  0  0  0  0  0  0  0  0
   20.0633   -7.7818  -13.3644 C   0  0  0  0  0  0  0  0  0  0  0  0
   18.9419   -8.7720  -13.2794 C   0  0  0  0  0  0  0  0  0  0  0  0
   18.4061   -8.6714  -11.8393 C   0  0  0  0  0  0  0  0  0  0  0  0
   17.1367   -9.4950  -11.8050 C   0  0  0  0  0  0  0  0  0  0  0  0
   16.5888   -9.4363  -10.4695 N   0  0  0  0  0  0  0  0  0  0  0  0
   21.3627   -6.4102  -15.0119 C   0  0  0  0  0  0  0  0  0  0  0  0
   22.3562   -6.0457  -14.2953 O   0  0  0  0  0  0  0  0  0  0  0  0
   20.9868   -5.5044  -16.0183 N   0  0  0  0  0  0  0  0  0  0  0  0
   21.6470   -4.2362  -16.2655 C   0  0  1  0  0  0  0  0  0  0  0  0
   22.2178   -4.3134  -17.6744 C   0  0  0  0  0  0  0  0  0  0  0  0
   23.0611   -2.7334  -18.0153 S   0  0  0  0  0  0  0  0  0  0  0  0
   20.6789   -3.1092  -16.2561 C   0  0  0  0  0  0  0  0  0  0  0  0
   19.4598   -3.2546  -16.4966 O   0  0  0  0  0  0  0  0  0  0  0  0
   21.1640   -1.8476  -15.9661 O   0  0  0  0  0  0  0  0  0  0  0  0
  2  1  1  1
  3  2  1  0
  4  2  1  0
  5  6  1  6
  5  4  1  0
  7  5  1  0
  8  7  2  0
  9  7  1  0
 10 11  1  1
 10  9  1  0
 11 12  1  0
 12 13  1  0
 13 14  1  0
 14 15  1  0
 16 10  1  0
 17 16  2  0
 18 16  1  0
 19 22  1  0
 19 18  1  0
 20 21  1  0
 19 20  1  6
 22 24  1  0
 23 22  2  0
M  END
$$$$
