LKC.pdb
     RDKit          3D

 24 23  0  0  1  0  0  0  0  0999 V2000
   26.1876  -13.3117  -16.7679 C   0  0  0  0  0  0  0  0  0  0  0  0
   24.8194  -13.7600  -17.1914 C   0  0  2  0  0  0  0  0  0  0  0  0
   24.9314  -14.5565  -18.4501 C   0  0  0  0  0  0  0  0  0  0  0  0
   23.8334  -12.6249  -17.2808 C   0  0  0  0  0  0  0  0  0  0  0  0
   23.7298  -11.8291  -16.0173 C   0  0  2  0  0  0  0  0  0  0  0  0
   23.2717  -12.5670  -14.8892 N   0  0  0  0  0  0  0  0  0  0  0  0
   22.7845  -10.7077  -16.2593 C   0  0  0  0  0  0  0  0  0  0  0  0
   22.9250   -9.9456  -17.2447 O   0  0  0  0  0  0  0  0  0  0  0  0
   21.6910  -10.4590  -15.3860 N   0  0  0  0  0  0  0  0  0  0  0  0
   20.7727   -9.3145  -15.6074 C   0  0  1  0  0  0  0  0  0  0  0  0
   19.4251   -9.7617  -15.0907 C   0  0  0  0  0  0  0  0  0  0  0  0
   18.8017  -10.8843  -15.8631 C   0  0  0  0  0  0  0  0  0  0  0  0
   17.4123  -11.1001  -15.2353 C   0  0  0  0  0  0  0  0  0  0  0  0
   16.8401  -12.3356  -15.8964 C   0  0  0  0  0  0  0  0  0  0  0  0
   16.2686  -13.1795  -14.8726 N   0  0  0  0  0  0  0  0  0  0  0  0
   21.3346   -8.1478  -14.9081 C   0  0  0  0  0  0  0  0  0  0  0  0
   21.8088   -8.3242  -13.7345 O   0  0  0  0  0  0  0  0  0  0  0  0
   21.4148   -6.8318  -15.3941 N   0  0  0  0  0  0  0  0  0  0  0  0
   21.9666   -5.7165  -14.6478 C   0  0  1  0  0  0  0  0  0  0  0  0
   22.5824   -4.7735  -15.6716 C   0  0  0  0  0  0  0  0  0  0  0  0
   23.2912   -3.3602  -14.7639 S   0  0  0  0  0  0  0  0  0  0  0  0
   20.9024   -4.9527  -13.9467 C   0  0  0  0  0  0  0  0  0  0  0  0
   19.7210   -4.8970  -14.3545 O   0  0  0  0  0  0  0  0  0  0  0  0
   21.2503   -4.2779  -12.7916 O   0  0  0  0  0  0  0  0  0  0  0  0
  2  1  1  6
  3  2  1  0
  4  2  1  0
  5  6  1  1
  5  4  1  0
  7  5  1  0
  8  7  2  0
  9  7  1  0
 10 11  1  1
 10  9  1  0
 11 12  1  0
 12 13  1  0
 13 14  1  0
 14 15  1  0
 16 10  1  0
 17 16  2  0
 18 16  1  0
 19 22  1  0
 19 18  1  0
 20 21  1  0
 19 20  1  6
 22 24  1  0
 23 22  2  0
M  END
$$$$
