LKC.pdb
     RDKit          3D

 24 23  0  0  1  0  0  0  0  0999 V2000
   21.2996  -14.5699  -18.5186 C   0  0  0  0  0  0  0  0  0  0  0  0
   19.8654  -14.1280  -18.5039 C   0  0  2  0  0  0  0  0  0  0  0  0
   19.1795  -14.6460  -19.7256 C   0  0  0  0  0  0  0  0  0  0  0  0
   19.7130  -12.6421  -18.3101 C   0  0  0  0  0  0  0  0  0  0  0  0
   20.4098  -12.1294  -17.0886 C   0  0  2  0  0  0  0  0  0  0  0  0
   20.0623  -12.8022  -15.8829 N   0  0  0  0  0  0  0  0  0  0  0  0
   20.0687  -10.6904  -16.9375 C   0  0  0  0  0  0  0  0  0  0  0  0
   20.2345   -9.8845  -17.8834 O   0  0  0  0  0  0  0  0  0  0  0  0
   19.5443  -10.1771  -15.7203 N   0  0  0  0  0  0  0  0  0  0  0  0
   19.1623   -8.7494  -15.5868 C   0  0  1  0  0  0  0  0  0  0  0  0
   17.8833   -8.7386  -14.7827 C   0  0  0  0  0  0  0  0  0  0  0  0
   17.4719   -7.3872  -14.2827 C   0  0  0  0  0  0  0  0  0  0  0  0
   16.2373   -6.9938  -15.1147 C   0  0  0  0  0  0  0  0  0  0  0  0
   15.7484   -5.6795  -14.5450 C   0  0  0  0  0  0  0  0  0  0  0  0
   14.5223   -5.3169  -15.2175 N   0  0  0  0  0  0  0  0  0  0  0  0
   20.2857   -8.0429  -14.9506 C   0  0  0  0  0  0  0  0  0  0  0  0
   20.8009   -8.5595  -13.9013 O   0  0  0  0  0  0  0  0  0  0  0  0
   20.8736   -6.8392  -15.3751 N   0  0  0  0  0  0  0  0  0  0  0  0
   21.9237   -6.1433  -14.6552 C   0  0  1  0  0  0  0  0  0  0  0  0
   22.5819   -5.2020  -15.6538 C   0  0  0  0  0  0  0  0  0  0  0  0
   23.8248   -4.2207  -14.7505 S   0  0  0  0  0  0  0  0  0  0  0  0
   21.3675   -5.2957  -13.5690 C   0  0  0  0  0  0  0  0  0  0  0  0
   20.3540   -4.5768  -13.7155 O   0  0  0  0  0  0  0  0  0  0  0  0
   22.0114   -5.3136  -12.3460 O   0  0  0  0  0  0  0  0  0  0  0  0
  2  1  1  6
  3  2  1  0
  4  2  1  0
  5  6  1  1
  5  4  1  0
  7  5  1  0
  8  7  2  0
  9  7  1  0
 10 11  1  1
 10  9  1  0
 11 12  1  0
 12 13  1  0
 13 14  1  0
 14 15  1  0
 16 10  1  0
 17 16  2  0
 18 16  1  0
 19 22  1  0
 19 18  1  0
 20 21  1  0
 19 20  1  6
 22 24  1  0
 23 22  2  0
M  END
$$$$
