LKC.pdb
     RDKit          3D

 24 23  0  0  1  0  0  0  0  0999 V2000
   25.9148  -13.5529  -18.0680 C   0  0  0  0  0  0  0  0  0  0  0  0
   24.8098  -13.9278  -19.0118 C   0  0  2  0  0  0  0  0  0  0  0  0
   23.7737  -12.8518  -19.0070 C   0  0  0  0  0  0  0  0  0  0  0  0
   24.2542  -15.3023  -18.7455 C   0  0  0  0  0  0  0  0  0  0  0  0
   25.3031  -16.3696  -18.7148 C   0  0  2  0  0  0  0  0  0  0  0  0
   25.9677  -16.5820  -19.9558 N   0  0  0  0  0  0  0  0  0  0  0  0
   24.6494  -17.6417  -18.3094 C   0  0  0  0  0  0  0  0  0  0  0  0
   23.7901  -18.1881  -19.0406 O   0  0  0  0  0  0  0  0  0  0  0  0
   24.9731  -18.2830  -17.0829 N   0  0  0  0  0  0  0  0  0  0  0  0
   24.3261  -19.5580  -16.6856 C   0  0  1  0  0  0  0  0  0  0  0  0
   25.3956  -20.3611  -15.9826 C   0  0  0  0  0  0  0  0  0  0  0  0
   26.3342  -21.0866  -16.8980 C   0  0  0  0  0  0  0  0  0  0  0  0
   27.3399  -21.8045  -15.9789 C   0  0  0  0  0  0  0  0  0  0  0  0
   28.3336  -22.4859  -16.8949 C   0  0  0  0  0  0  0  0  0  0  0  0
   29.3828  -23.0609  -16.0852 N   0  0  0  0  0  0  0  0  0  0  0  0
   23.1639  -19.2276  -15.8454 C   0  0  0  0  0  0  0  0  0  0  0  0
   23.3568  -18.4904  -14.8195 O   0  0  0  0  0  0  0  0  0  0  0  0
   21.8345  -19.6360  -16.0472 N   0  0  0  0  0  0  0  0  0  0  0  0
   20.7348  -19.3093  -15.1588 C   0  0  1  0  0  0  0  0  0  0  0  0
   19.9199  -18.2305  -15.8580 C   0  0  0  0  0  0  0  0  0  0  0  0
   18.5131  -17.8134  -14.7761 S   0  0  0  0  0  0  0  0  0  0  0  0
   19.8302  -20.4717  -14.9644 C   0  0  0  0  0  0  0  0  0  0  0  0
   19.5141  -21.2528  -15.8892 O   0  0  0  0  0  0  0  0  0  0  0  0
   19.3227  -20.6863  -13.6966 O   0  0  0  0  0  0  0  0  0  0  0  0
  2  1  1  1
  3  2  1  0
  4  2  1  0
  5  6  1  6
  5  4  1  0
  7  5  1  0
  8  7  2  0
  9  7  1  0
 10 11  1  1
 10  9  1  0
 11 12  1  0
 12 13  1  0
 13 14  1  0
 14 15  1  0
 16 10  1  0
 17 16  2  0
 18 16  1  0
 19 22  1  0
 19 18  1  0
 20 21  1  0
 19 20  1  6
 22 24  1  0
 23 22  2  0
M  END
$$$$
