LKC.pdb
     RDKit          3D

 24 23  0  0  1  0  0  0  0  0999 V2000
   25.9911  -21.4689  -11.4759 C   0  0  0  0  0  0  0  0  0  0  0  0
   27.4643  -21.2822  -11.2585 C   0  0  2  0  0  0  0  0  0  0  0  0
   27.7001  -20.8315   -9.8540 C   0  0  0  0  0  0  0  0  0  0  0  0
   28.1002  -20.3915  -12.2933 C   0  0  0  0  0  0  0  0  0  0  0  0
   27.5246  -20.5705  -13.6634 C   0  0  2  0  0  0  0  0  0  0  0  0
   28.3360  -20.0621  -14.7171 N   0  0  0  0  0  0  0  0  0  0  0  0
   26.2129  -19.8723  -13.7032 C   0  0  0  0  0  0  0  0  0  0  0  0
   25.7856  -19.2430  -12.7067 O   0  0  0  0  0  0  0  0  0  0  0  0
   25.3979  -19.8923  -14.8675 N   0  0  0  0  0  0  0  0  0  0  0  0
   24.0769  -19.2168  -14.8955 C   0  0  1  0  0  0  0  0  0  0  0  0
   23.8516  -18.8119  -16.3336 C   0  0  0  0  0  0  0  0  0  0  0  0
   22.5438  -18.1276  -16.5917 C   0  0  0  0  0  0  0  0  0  0  0  0
   22.5671  -17.7333  -18.0801 C   0  0  0  0  0  0  0  0  0  0  0  0
   21.2496  -17.0396  -18.3514 C   0  0  0  0  0  0  0  0  0  0  0  0
   21.2322  -16.6138  -19.7318 N   0  0  0  0  0  0  0  0  0  0  0  0
   23.0797  -20.1614  -14.3671 C   0  0  0  0  0  0  0  0  0  0  0  0
   23.2081  -21.3973  -14.6661 O   0  0  0  0  0  0  0  0  0  0  0  0
   21.9784  -19.8549  -13.5499 N   0  0  0  0  0  0  0  0  0  0  0  0
   21.0238  -20.8333  -13.0631 C   0  0  1  0  0  0  0  0  0  0  0  0
   20.8496  -20.5643  -11.5752 C   0  0  0  0  0  0  0  0  0  0  0  0
   19.6247  -21.7553  -10.9389 S   0  0  0  0  0  0  0  0  0  0  0  0
   19.6900  -20.6496  -13.6913 C   0  0  0  0  0  0  0  0  0  0  0  0
   19.3200  -19.5701  -14.2041 O   0  0  0  0  0  0  0  0  0  0  0  0
   18.8296  -21.7315  -13.7012 O   0  0  0  0  0  0  0  0  0  0  0  0
  2  1  1  6
  3  2  1  0
  4  2  1  0
  5  6  1  6
  5  4  1  0
  7  5  1  0
  8  7  2  0
  9  7  1  0
 10 11  1  6
 10  9  1  0
 11 12  1  0
 12 13  1  0
 13 14  1  0
 14 15  1  0
 16 10  1  0
 17 16  2  0
 18 16  1  0
 19 22  1  0
 19 18  1  0
 20 21  1  0
 19 20  1  1
 22 24  1  0
 23 22  2  0
M  END
$$$$
