LKC.pdb
     RDKit          3D

 24 23  0  0  1  0  0  0  0  0999 V2000
   24.0022  -21.6102   -9.2699 C   0  0  0  0  0  0  0  0  0  0  0  0
   25.4365  -21.1877   -9.3999 C   0  0  2  0  0  0  0  0  0  0  0  0
   25.7577  -20.2026   -8.3240 C   0  0  0  0  0  0  0  0  0  0  0  0
   25.7805  -20.7036  -10.7841 C   0  0  0  0  0  0  0  0  0  0  0  0
   25.5036  -21.7157  -11.8516 C   0  0  2  0  0  0  0  0  0  0  0  0
   26.4915  -22.7338  -11.9723 N   0  0  0  0  0  0  0  0  0  0  0  0
   25.4097  -20.9972  -13.1497 C   0  0  0  0  0  0  0  0  0  0  0  0
   26.4395  -20.5983  -13.7431 O   0  0  0  0  0  0  0  0  0  0  0  0
   24.1544  -20.7371  -13.7634 N   0  0  0  0  0  0  0  0  0  0  0  0
   24.0682  -20.1335  -15.1163 C   0  0  1  0  0  0  0  0  0  0  0  0
   22.7914  -20.6653  -15.7241 C   0  0  0  0  0  0  0  0  0  0  0  0
   22.4843  -20.1372  -17.0924 C   0  0  0  0  0  0  0  0  0  0  0  0
   21.1467  -20.7838  -17.4974 C   0  0  0  0  0  0  0  0  0  0  0  0
   20.8337  -20.2670  -18.8852 C   0  0  0  0  0  0  0  0  0  0  0  0
   20.4272  -18.8849  -18.7782 N   0  0  0  0  0  0  0  0  0  0  0  0
   24.1018  -18.6708  -14.9570 C   0  0  0  0  0  0  0  0  0  0  0  0
   23.3098  -18.1429  -14.1041 O   0  0  0  0  0  0  0  0  0  0  0  0
   24.9257  -17.7662  -15.6481 N   0  0  0  0  0  0  0  0  0  0  0  0
   24.8308  -16.3227  -15.5350 C   0  0  1  0  0  0  0  0  0  0  0  0
   26.2465  -15.8130  -15.3063 C   0  0  0  0  0  0  0  0  0  0  0  0
   26.1732  -13.9926  -15.2380 S   0  0  0  0  0  0  0  0  0  0  0  0
   24.3532  -15.7091  -16.8010 C   0  0  0  0  0  0  0  0  0  0  0  0
   24.4589  -16.2708  -17.9139 O   0  0  0  0  0  0  0  0  0  0  0  0
   23.7672  -14.4593  -16.7285 O   0  0  0  0  0  0  0  0  0  0  0  0
  2  1  1  6
  3  2  1  0
  4  2  1  0
  5  6  1  6
  5  4  1  0
  7  5  1  0
  8  7  2  0
  9  7  1  0
 10 11  1  1
 10  9  1  0
 11 12  1  0
 12 13  1  0
 13 14  1  0
 14 15  1  0
 16 10  1  0
 17 16  2  0
 18 16  1  0
 19 22  1  0
 19 18  1  0
 20 21  1  0
 19 20  1  6
 22 24  1  0
 23 22  2  0
M  END
$$$$
