NTQ.pdb
     RDKit          3D

 25 24  0  0  1  0  0  0  0  0999 V2000
    7.5494  -16.8659   12.8672 N   0  0  0  0  0  0  0  0  0  0  0  0
    7.7133  -15.4579   12.7947 C   0  0  0  0  0  0  0  0  0  0  0  0
    7.3672  -14.8017   11.7821 O   0  0  0  0  0  0  0  0  0  0  0  0
    8.3030  -14.7502   13.9341 C   0  0  0  0  0  0  0  0  0  0  0  0
    8.8048  -15.7063   15.0091 C   0  0  2  0  0  0  0  0  0  0  0  0
    7.7070  -16.4590   15.5759 N   0  0  0  0  0  0  0  0  0  0  0  0
    9.3961  -14.8566   16.0765 C   0  0  0  0  0  0  0  0  0  0  0  0
   10.3914  -14.1203   15.7830 O   0  0  0  0  0  0  0  0  0  0  0  0
    7.5178  -12.7299   18.7110 C   0  0  0  0  0  0  0  0  0  0  0  0
    8.5236  -13.6029   19.4249 C   0  0  1  0  0  0  0  0  0  0  0  0
    7.8131  -14.6416   20.0243 O   0  0  0  0  0  0  0  0  0  0  0  0
    9.5838  -14.1203   18.4801 C   0  0  2  0  0  0  0  0  0  0  0  0
    8.9120  -14.8214   17.4041 N   0  0  0  0  0  0  0  0  0  0  0  0
   10.5799  -14.9642   19.1631 C   0  0  0  0  0  0  0  0  0  0  0  0
   10.5831  -16.1956   18.9674 O   0  0  0  0  0  0  0  0  0  0  0  0
   16.7612  -14.4436   19.8214 N   0  0  0  0  0  0  0  0  0  0  0  0
   15.7004  -13.8770   19.0953 C   0  0  0  0  0  0  0  0  0  0  0  0
   15.8797  -12.8783   18.3862 O   0  0  0  0  0  0  0  0  0  0  0  0
   14.3424  -14.4882   19.1814 C   0  0  0  0  0  0  0  0  0  0  0  0
   13.8807  -14.5767   20.6161 C   0  0  0  0  0  0  0  0  0  0  0  0
   12.5307  -15.2189   20.6954 C   0  0  2  0  0  0  0  0  0  0  0  0
   11.5213  -14.3886   20.0290 N   0  0  0  0  0  0  0  0  0  0  0  0
   12.0666  -15.5689   22.0316 C   0  0  0  0  0  0  0  0  0  0  0  0
   10.8772  -15.1770   22.6027 O   0  0  0  0  0  0  0  0  0  0  0  0
   12.8115  -16.3056   22.7641 O   0  0  0  0  0  0  0  0  0  0  0  0
  1  2  1  0
  2  3  2  0
  4  2  1  0
  4  5  1  0
  5  6  1  1
  7  5  1  0
  7  8  2  0
 10  9  1  6
 10 12  1  0
 10 11  1  0
 12 13  1  6
 13  7  1  0
 14 12  1  0
 15 14  2  0
 17 16  1  0
 18 17  2  0
 19 20  1  0
 19 17  1  0
 21 20  1  1
 21 23  1  0
 21 22  1  0
 22 14  1  0
 23 24  1  0
 25 23  2  0
M  END
$$$$
