NTQ.pdb
     RDKit          3D

 25 24  0  0  1  0  0  0  0  0999 V2000
    9.3394  -15.3967   12.8654 N   0  0  0  0  0  0  0  0  0  0  0  0
    8.3482  -15.3245   13.8788 C   0  0  0  0  0  0  0  0  0  0  0  0
    7.1755  -15.7301   13.6888 O   0  0  0  0  0  0  0  0  0  0  0  0
    8.7038  -14.7608   15.1837 C   0  0  0  0  0  0  0  0  0  0  0  0
    9.0862  -15.8376   16.1916 C   0  0  2  0  0  0  0  0  0  0  0  0
    7.9590  -16.7012   16.4685 N   0  0  0  0  0  0  0  0  0  0  0  0
    9.4526  -15.1229   17.4428 C   0  0  0  0  0  0  0  0  0  0  0  0
   10.4683  -14.3566   17.4277 O   0  0  0  0  0  0  0  0  0  0  0  0
    7.1895  -13.1216   19.7738 C   0  0  0  0  0  0  0  0  0  0  0  0
    7.9331  -14.1350   20.6126 C   0  0  1  0  0  0  0  0  0  0  0  0
    7.0360  -15.1600   20.9088 O   0  0  0  0  0  0  0  0  0  0  0  0
    9.1625  -14.6530   19.9025 C   0  0  2  0  0  0  0  0  0  0  0  0
    8.7326  -15.2480   18.6528 N   0  0  0  0  0  0  0  0  0  0  0  0
    9.9361  -15.5921   20.7336 C   0  0  0  0  0  0  0  0  0  0  0  0
    9.8391  -16.8186   20.5314 O   0  0  0  0  0  0  0  0  0  0  0  0
   15.5543  -17.9058   22.8419 N   0  0  0  0  0  0  0  0  0  0  0  0
   15.0867  -16.6681   23.3144 C   0  0  0  0  0  0  0  0  0  0  0  0
   15.8439  -15.6918   23.3909 O   0  0  0  0  0  0  0  0  0  0  0  0
   13.6602  -16.5315   23.7283 C   0  0  0  0  0  0  0  0  0  0  0  0
   12.9206  -15.5871   22.8115 C   0  0  0  0  0  0  0  0  0  0  0  0
   11.5077  -16.0420   22.6166 C   0  0  2  0  0  0  0  0  0  0  0  0
   10.7786  -15.1121   21.7471 N   0  0  0  0  0  0  0  0  0  0  0  0
   10.7379  -16.2758   23.8316 C   0  0  0  0  0  0  0  0  0  0  0  0
    9.6242  -15.5723   24.2309 O   0  0  0  0  0  0  0  0  0  0  0  0
   11.1074  -17.2128   24.6187 O   0  0  0  0  0  0  0  0  0  0  0  0
  1  2  1  0
  2  3  2  0
  4  2  1  0
  4  5  1  0
  5  6  1  1
  7  5  1  0
  7  8  2  0
 10  9  1  6
 10 12  1  0
 10 11  1  0
 12 13  1  6
 13  7  1  0
 14 12  1  0
 15 14  2  0
 17 16  1  0
 18 17  2  0
 19 20  1  0
 19 17  1  0
 21 20  1  1
 21 23  1  0
 21 22  1  0
 22 14  1  0
 23 24  1  0
 25 23  2  0
M  END
$$$$
