NTQ.pdb
     RDKit          3D

 25 24  0  0  1  0  0  0  0  0999 V2000
   15.5520  -15.9113   18.4249 N   0  0  0  0  0  0  0  0  0  0  0  0
   15.2663  -14.6033   18.8966 C   0  0  0  0  0  0  0  0  0  0  0  0
   16.1645  -13.7373   19.0333 O   0  0  0  0  0  0  0  0  0  0  0  0
   13.8836  -14.2542   19.2330 C   0  0  0  0  0  0  0  0  0  0  0  0
   12.9164  -15.3980   18.9543 C   0  0  2  0  0  0  0  0  0  0  0  0
   12.6951  -15.5445   17.5322 N   0  0  0  0  0  0  0  0  0  0  0  0
   11.6299  -15.0187   19.5962 C   0  0  0  0  0  0  0  0  0  0  0  0
   11.2942  -13.7915   19.6017 O   0  0  0  0  0  0  0  0  0  0  0  0
    8.3150  -16.7679   18.9885 C   0  0  0  0  0  0  0  0  0  0  0  0
    8.4800  -16.6275   20.4840 C   0  0  1  0  0  0  0  0  0  0  0  0
    8.8340  -17.8823   20.9774 O   0  0  0  0  0  0  0  0  0  0  0  0
    9.5070  -15.5760   20.8361 C   0  0  2  0  0  0  0  0  0  0  0  0
   10.7561  -15.9495   20.2030 N   0  0  0  0  0  0  0  0  0  0  0  0
    9.6482  -15.3954   22.2916 C   0  0  0  0  0  0  0  0  0  0  0  0
   10.6620  -15.8316   22.8717 O   0  0  0  0  0  0  0  0  0  0  0  0
    6.1383  -11.7003   26.0858 N   0  0  0  0  0  0  0  0  0  0  0  0
    7.0358  -12.3149   26.9749 C   0  0  0  0  0  0  0  0  0  0  0  0
    7.0775  -11.9800   28.1659 O   0  0  0  0  0  0  0  0  0  0  0  0
    7.9484  -13.3838   26.4752 C   0  0  0  0  0  0  0  0  0  0  0  0
    7.7698  -13.5953   24.9911 C   0  0  0  0  0  0  0  0  0  0  0  0
    8.7586  -14.5964   24.4799 C   0  0  2  0  0  0  0  0  0  0  0  0
    8.6496  -14.7360   23.0235 N   0  0  0  0  0  0  0  0  0  0  0  0
    8.7120  -15.9148   25.0989 C   0  0  0  0  0  0  0  0  0  0  0  0
    9.4757  -16.3352   26.1640 O   0  0  0  0  0  0  0  0  0  0  0  0
    7.8975  -16.7817   24.6306 O   0  0  0  0  0  0  0  0  0  0  0  0
  1  2  1  0
  2  3  2  0
  4  2  1  0
  4  5  1  0
  5  6  1  6
  7  5  1  0
  7  8  2  0
 10  9  1  6
 10 12  1  0
 10 11  1  0
 12 13  1  1
 13  7  1  0
 14 12  1  0
 15 14  2  0
 17 16  1  0
 18 17  2  0
 19 20  1  0
 19 17  1  0
 21 20  1  1
 21 23  1  0
 21 22  1  0
 22 14  1  0
 23 24  1  0
 25 23  2  0
M  END
$$$$
