NTQ.pdb
     RDKit          3D

 25 24  0  0  1  0  0  0  0  0999 V2000
   10.7229  -17.7774   16.4289 N   0  0  0  0  0  0  0  0  0  0  0  0
   11.4110  -16.9906   17.3893 C   0  0  0  0  0  0  0  0  0  0  0  0
   12.5602  -16.5349   17.1720 O   0  0  0  0  0  0  0  0  0  0  0  0
   10.7613  -16.7019   18.6704 C   0  0  0  0  0  0  0  0  0  0  0  0
   11.6481  -17.0541   19.8584 C   0  0  2  0  0  0  0  0  0  0  0  0
   11.9651  -18.4656   19.8582 N   0  0  0  0  0  0  0  0  0  0  0  0
   10.8507  -16.7489   21.0758 C   0  0  0  0  0  0  0  0  0  0  0  0
   10.4743  -15.5489   21.2684 O   0  0  0  0  0  0  0  0  0  0  0  0
    7.7015  -18.5386   22.3081 C   0  0  0  0  0  0  0  0  0  0  0  0
    8.7130  -18.5126   23.4304 C   0  0  1  0  0  0  0  0  0  0  0  0
    9.3078  -19.7725   23.4760 O   0  0  0  0  0  0  0  0  0  0  0  0
    9.7350  -17.4163   23.2355 C   0  0  2  0  0  0  0  0  0  0  0  0
   10.4864  -17.7218   22.0345 N   0  0  0  0  0  0  0  0  0  0  0  0
   10.6047  -17.2449   24.4125 C   0  0  0  0  0  0  0  0  0  0  0  0
   11.8024  -17.5857   24.3492 O   0  0  0  0  0  0  0  0  0  0  0  0
    9.4241  -13.4227   29.1589 N   0  0  0  0  0  0  0  0  0  0  0  0
    9.2229  -13.3345   27.7714 C   0  0  0  0  0  0  0  0  0  0  0  0
    8.6321  -12.3656   27.2769 O   0  0  0  0  0  0  0  0  0  0  0  0
    9.7284  -14.4228   26.8853 C   0  0  0  0  0  0  0  0  0  0  0  0
   10.4292  -15.4913   27.6894 C   0  0  0  0  0  0  0  0  0  0  0  0
   10.9363  -16.5770   26.7920 C   0  0  2  0  0  0  0  0  0  0  0  0
   10.0914  -16.7009   25.5991 N   0  0  0  0  0  0  0  0  0  0  0  0
   11.1047  -17.8877   27.4061 C   0  0  0  0  0  0  0  0  0  0  0  0
   12.0393  -18.2192   28.3607 O   0  0  0  0  0  0  0  0  0  0  0  0
   10.3283  -18.8367   27.0443 O   0  0  0  0  0  0  0  0  0  0  0  0
  1  2  1  0
  2  3  2  0
  4  2  1  0
  4  5  1  0
  5  6  1  6
  7  5  1  0
  7  8  2  0
 10  9  1  6
 10 12  1  0
 10 11  1  0
 12 13  1  6
 13  7  1  0
 14 12  1  0
 15 14  2  0
 17 16  1  0
 18 17  2  0
 19 20  1  0
 19 17  1  0
 21 20  1  1
 21 23  1  0
 21 22  1  0
 22 14  1  0
 23 24  1  0
 25 23  2  0
M  END
$$$$
