NTQ.pdb
     RDKit          3D

 25 24  0  0  1  0  0  0  0  0999 V2000
    6.2543  -14.9078   12.2255 N   0  0  0  0  0  0  0  0  0  0  0  0
    7.5289  -15.3565   12.6601 C   0  0  0  0  0  0  0  0  0  0  0  0
    8.1224  -16.3099   12.0993 O   0  0  0  0  0  0  0  0  0  0  0  0
    8.1701  -14.6878   13.7952 C   0  0  0  0  0  0  0  0  0  0  0  0
    8.7619  -15.6796   14.7889 C   0  0  2  0  0  0  0  0  0  0  0  0
    7.7344  -16.5541   15.3109 N   0  0  0  0  0  0  0  0  0  0  0  0
    9.3065  -14.8684   15.9098 C   0  0  0  0  0  0  0  0  0  0  0  0
   10.2342  -14.0345   15.6593 O   0  0  0  0  0  0  0  0  0  0  0  0
    7.2047  -13.1885   18.6514 C   0  0  0  0  0  0  0  0  0  0  0  0
    8.3450  -13.9139   19.3273 C   0  0  1  0  0  0  0  0  0  0  0  0
    7.8100  -15.0553   19.9224 O   0  0  0  0  0  0  0  0  0  0  0  0
    9.4471  -14.2544   18.3507 C   0  0  2  0  0  0  0  0  0  0  0  0
    8.8490  -14.9729   17.2432 N   0  0  0  0  0  0  0  0  0  0  0  0
   10.5428  -15.0100   18.9828 C   0  0  0  0  0  0  0  0  0  0  0  0
   10.7074  -16.2125   18.6975 O   0  0  0  0  0  0  0  0  0  0  0  0
   16.1021  -13.6874   18.5963 N   0  0  0  0  0  0  0  0  0  0  0  0
   16.1426  -14.8017   19.4509 C   0  0  0  0  0  0  0  0  0  0  0  0
   17.0500  -15.6387   19.3585 O   0  0  0  0  0  0  0  0  0  0  0  0
   15.0781  -14.9762   20.4812 C   0  0  0  0  0  0  0  0  0  0  0  0
   13.8244  -14.2299   20.0932 C   0  0  0  0  0  0  0  0  0  0  0  0
   12.6102  -15.0588   20.3762 C   0  0  2  0  0  0  0  0  0  0  0  0
   11.3982  -14.3826   19.9004 N   0  0  0  0  0  0  0  0  0  0  0  0
   12.4250  -15.4695   21.7620 C   0  0  0  0  0  0  0  0  0  0  0  0
   12.2452  -14.6290   22.8371 O   0  0  0  0  0  0  0  0  0  0  0  0
   12.4261  -16.7183   22.0349 O   0  0  0  0  0  0  0  0  0  0  0  0
  1  2  1  0
  2  3  2  0
  4  2  1  0
  4  5  1  0
  5  6  1  1
  7  5  1  0
  7  8  2  0
 10  9  1  6
 10 12  1  0
 10 11  1  0
 12 13  1  6
 13  7  1  0
 14 12  1  0
 15 14  2  0
 17 16  1  0
 18 17  2  0
 19 20  1  0
 19 17  1  0
 21 20  1  1
 21 23  1  0
 21 22  1  0
 22 14  1  0
 23 24  1  0
 25 23  2  0
M  END
$$$$
