NTQ.pdb
     RDKit          3D

 25 24  0  0  1  0  0  0  0  0999 V2000
    7.2868  -13.4918   16.3227 N   0  0  0  0  0  0  0  0  0  0  0  0
    8.3108  -13.6094   17.2986 C   0  0  0  0  0  0  0  0  0  0  0  0
    9.5209  -13.7105   16.9805 O   0  0  0  0  0  0  0  0  0  0  0  0
    7.9451  -13.6128   18.7174 C   0  0  0  0  0  0  0  0  0  0  0  0
    8.9917  -14.3062   19.5806 C   0  0  2  0  0  0  0  0  0  0  0  0
    9.3633  -15.5813   19.0069 N   0  0  0  0  0  0  0  0  0  0  0  0
    8.3469  -14.5506   20.8980 C   0  0  0  0  0  0  0  0  0  0  0  0
    7.8305  -13.5632   21.5122 O   0  0  0  0  0  0  0  0  0  0  0  0
    6.2531  -17.8265   21.8375 C   0  0  0  0  0  0  0  0  0  0  0  0
    7.2773  -17.4943   22.8978 C   0  0  1  0  0  0  0  0  0  0  0  0
    8.3511  -18.3649   22.7182 O   0  0  0  0  0  0  0  0  0  0  0  0
    7.7092  -16.0478   22.8231 C   0  0  2  0  0  0  0  0  0  0  0  0
    8.2757  -15.8237   21.5080 N   0  0  0  0  0  0  0  0  0  0  0  0
    8.6416  -15.6845   23.9045 C   0  0  0  0  0  0  0  0  0  0  0  0
    9.8678  -15.6619   23.6799 O   0  0  0  0  0  0  0  0  0  0  0  0
    5.7276  -11.7908   25.7146 N   0  0  0  0  0  0  0  0  0  0  0  0
    6.7232  -12.1309   26.6457 C   0  0  0  0  0  0  0  0  0  0  0  0
    6.5428  -11.9580   27.8581 O   0  0  0  0  0  0  0  0  0  0  0  0
    8.0122  -12.7073   26.1649 C   0  0  0  0  0  0  0  0  0  0  0  0
    8.4637  -13.8382   27.0575 C   0  0  0  0  0  0  0  0  0  0  0  0
    9.0715  -14.9388   26.2449 C   0  0  2  0  0  0  0  0  0  0  0  0
    8.1557  -15.3646   25.1808 N   0  0  0  0  0  0  0  0  0  0  0  0
    9.5277  -16.1059   26.9888 C   0  0  0  0  0  0  0  0  0  0  0  0
   10.5882  -16.1420   27.8655 O   0  0  0  0  0  0  0  0  0  0  0  0
    8.9061  -17.2119   26.8324 O   0  0  0  0  0  0  0  0  0  0  0  0
  1  2  1  0
  2  3  2  0
  4  2  1  0
  4  5  1  0
  5  6  1  6
  7  5  1  0
  7  8  2  0
 10  9  1  6
 10 12  1  0
 10 11  1  0
 12 13  1  6
 13  7  1  0
 14 12  1  0
 15 14  2  0
 17 16  1  0
 18 17  2  0
 19 20  1  0
 19 17  1  0
 21 20  1  1
 21 23  1  0
 21 22  1  0
 22 14  1  0
 23 24  1  0
 25 23  2  0
M  END
$$$$
