NTQ.pdb
     RDKit          3D

 25 24  0  0  1  0  0  0  0  0999 V2000
   16.7732  -14.3599   18.8088 N   0  0  0  0  0  0  0  0  0  0  0  0
   15.7051  -15.2739   19.0055 C   0  0  0  0  0  0  0  0  0  0  0  0
   15.7304  -16.4350   18.5294 O   0  0  0  0  0  0  0  0  0  0  0  0
   14.5401  -14.8500   19.7865 C   0  0  0  0  0  0  0  0  0  0  0  0
   13.2282  -15.1403   19.0681 C   0  0  2  0  0  0  0  0  0  0  0  0
   13.0700  -14.2709   17.9227 N   0  0  0  0  0  0  0  0  0  0  0  0
   12.1464  -14.8394   20.0428 C   0  0  0  0  0  0  0  0  0  0  0  0
   12.0938  -13.6731   20.5486 O   0  0  0  0  0  0  0  0  0  0  0  0
    7.7361  -15.7699   21.9310 C   0  0  0  0  0  0  0  0  0  0  0  0
    8.8856  -16.1669   21.0341 C   0  0  1  0  0  0  0  0  0  0  0  0
    8.5355  -15.8053   19.7341 O   0  0  0  0  0  0  0  0  0  0  0  0
   10.1809  -15.5196   21.4671 C   0  0  2  0  0  0  0  0  0  0  0  0
   11.1697  -15.7809   20.4402 N   0  0  0  0  0  0  0  0  0  0  0  0
   10.6194  -15.9777   22.7971 C   0  0  0  0  0  0  0  0  0  0  0  0
   11.4215  -16.9279   22.8886 O   0  0  0  0  0  0  0  0  0  0  0  0
    9.7499  -13.0771   28.3859 N   0  0  0  0  0  0  0  0  0  0  0  0
   10.3489  -14.2952   28.7478 C   0  0  0  0  0  0  0  0  0  0  0  0
   10.6607  -14.5235   29.9239 O   0  0  0  0  0  0  0  0  0  0  0  0
   10.6115  -15.3243   27.7004 C   0  0  0  0  0  0  0  0  0  0  0  0
   10.2258  -14.8130   26.3332 C   0  0  0  0  0  0  0  0  0  0  0  0
   10.5214  -15.8402   25.2850 C   0  0  2  0  0  0  0  0  0  0  0  0
   10.1395  -15.3500   23.9560 N   0  0  0  0  0  0  0  0  0  0  0  0
    9.9417  -17.1596   25.5011 C   0  0  0  0  0  0  0  0  0  0  0  0
   10.5528  -18.2171   26.1357 O   0  0  0  0  0  0  0  0  0  0  0  0
    8.7589  -17.3854   25.0719 O   0  0  0  0  0  0  0  0  0  0  0  0
  1  2  1  0
  2  3  2  0
  4  2  1  0
  4  5  1  0
  5  6  1  6
  7  5  1  0
  7  8  2  0
 10  9  1  1
 10 12  1  0
 10 11  1  0
 12 13  1  6
 13  7  1  0
 14 12  1  0
 15 14  2  0
 17 16  1  0
 18 17  2  0
 19 20  1  0
 19 17  1  0
 21 20  1  1
 21 23  1  0
 21 22  1  0
 22 14  1  0
 23 24  1  0
 25 23  2  0
M  END
$$$$
