NTQ.pdb
     RDKit          3D

 25 24  0  0  1  0  0  0  0  0999 V2000
    7.2406  -13.4683   14.4639 N   0  0  0  0  0  0  0  0  0  0  0  0
    8.1028  -14.4450   15.0273 C   0  0  0  0  0  0  0  0  0  0  0  0
    8.3650  -15.5192   14.4331 O   0  0  0  0  0  0  0  0  0  0  0  0
    8.7039  -14.1922   16.3393 C   0  0  0  0  0  0  0  0  0  0  0  0
    8.9164  -15.4755   17.1328 C   0  0  2  0  0  0  0  0  0  0  0  0
    7.6949  -16.2486   17.1897 N   0  0  0  0  0  0  0  0  0  0  0  0
    9.2743  -15.0549   18.5133 C   0  0  0  0  0  0  0  0  0  0  0  0
   10.3769  -14.4464   18.6946 O   0  0  0  0  0  0  0  0  0  0  0  0
    7.0250  -13.4156   21.1242 C   0  0  0  0  0  0  0  0  0  0  0  0
    7.6988  -14.5894   21.7961 C   0  0  1  0  0  0  0  0  0  0  0  0
    6.7347  -15.5850   21.9464 O   0  0  0  0  0  0  0  0  0  0  0  0
    8.8904  -15.0771   21.0046 C   0  0  2  0  0  0  0  0  0  0  0  0
    8.4545  -15.2946   19.6396 N   0  0  0  0  0  0  0  0  0  0  0  0
    9.5021  -16.2799   21.5962 C   0  0  0  0  0  0  0  0  0  0  0  0
    9.5654  -17.3314   20.9290 O   0  0  0  0  0  0  0  0  0  0  0  0
   13.5621  -19.3380   20.7460 N   0  0  0  0  0  0  0  0  0  0  0  0
   13.7760  -19.3028   22.1340 C   0  0  0  0  0  0  0  0  0  0  0  0
   14.8869  -19.5685   22.6111 O   0  0  0  0  0  0  0  0  0  0  0  0
   12.6493  -18.9403   23.0418 C   0  0  0  0  0  0  0  0  0  0  0  0
   11.9225  -17.7168   22.5377 C   0  0  0  0  0  0  0  0  0  0  0  0
   10.7749  -17.3788   23.4376 C   0  0  2  0  0  0  0  0  0  0  0  0
   10.0122  -16.2455   22.9023 N   0  0  0  0  0  0  0  0  0  0  0  0
   11.1100  -17.1231   24.8326 C   0  0  0  0  0  0  0  0  0  0  0  0
   11.4641  -18.0708   25.7658 O   0  0  0  0  0  0  0  0  0  0  0  0
   11.0798  -15.9178   25.2576 O   0  0  0  0  0  0  0  0  0  0  0  0
  1  2  1  0
  2  3  2  0
  4  2  1  0
  4  5  1  0
  5  6  1  1
  7  5  1  0
  7  8  2  0
 10  9  1  6
 10 12  1  0
 10 11  1  0
 12 13  1  6
 13  7  1  0
 14 12  1  0
 15 14  2  0
 17 16  1  0
 18 17  2  0
 19 20  1  0
 19 17  1  0
 21 20  1  6
 21 23  1  0
 21 22  1  0
 22 14  1  0
 23 24  1  0
 25 23  2  0
M  END
$$$$
