NTQ.pdb
     RDKit          3D

 25 24  0  0  1  0  0  0  0  0999 V2000
    7.0949  -13.8450   16.0888 N   0  0  0  0  0  0  0  0  0  0  0  0
    8.1245  -13.5989   17.0345 C   0  0  0  0  0  0  0  0  0  0  0  0
    9.2373  -13.1276   16.6950 O   0  0  0  0  0  0  0  0  0  0  0  0
    7.8814  -13.9034   18.4469 C   0  0  0  0  0  0  0  0  0  0  0  0
    8.9385  -14.8358   19.0255 C   0  0  2  0  0  0  0  0  0  0  0  0
    9.0806  -16.0185   18.2046 N   0  0  0  0  0  0  0  0  0  0  0  0
    8.4402  -15.2471   20.3647 C   0  0  0  0  0  0  0  0  0  0  0  0
    7.3932  -14.6858   20.8202 O   0  0  0  0  0  0  0  0  0  0  0  0
    7.7681  -18.6905   21.7133 C   0  0  0  0  0  0  0  0  0  0  0  0
    8.6797  -18.0127   22.7098 C   0  0  1  0  0  0  0  0  0  0  0  0
    9.9514  -18.5575   22.5393 O   0  0  0  0  0  0  0  0  0  0  0  0
    8.6836  -16.5118   22.5317 C   0  0  2  0  0  0  0  0  0  0  0  0
    9.0677  -16.2308   21.1628 N   0  0  0  0  0  0  0  0  0  0  0  0
    9.5537  -15.8336   23.5085 C   0  0  0  0  0  0  0  0  0  0  0  0
   10.4104  -15.0198   23.1106 O   0  0  0  0  0  0  0  0  0  0  0  0
    5.7445  -13.1298   26.0149 N   0  0  0  0  0  0  0  0  0  0  0  0
    6.7864  -12.4522   26.6698 C   0  0  0  0  0  0  0  0  0  0  0  0
    6.5502  -11.4818   27.4011 O   0  0  0  0  0  0  0  0  0  0  0  0
    8.1934  -12.9095   26.4799 C   0  0  0  0  0  0  0  0  0  0  0  0
    8.2633  -14.0390   25.4805 C   0  0  0  0  0  0  0  0  0  0  0  0
    9.3482  -15.0020   25.8504 C   0  0  2  0  0  0  0  0  0  0  0  0
    9.4210  -16.0994   24.8793 N   0  0  0  0  0  0  0  0  0  0  0  0
    9.2842  -15.5504   27.1990 C   0  0  0  0  0  0  0  0  0  0  0  0
    8.7819  -16.7836   27.5472 O   0  0  0  0  0  0  0  0  0  0  0  0
    9.7266  -14.8436   28.1680 O   0  0  0  0  0  0  0  0  0  0  0  0
  1  2  1  0
  2  3  2  0
  4  2  1  0
  4  5  1  0
  5  6  1  6
  7  5  1  0
  7  8  2  0
 10  9  1  6
 10 12  1  0
 10 11  1  0
 12 13  1  6
 13  7  1  0
 14 12  1  0
 15 14  2  0
 17 16  1  0
 18 17  2  0
 19 20  1  0
 19 17  1  0
 21 20  1  6
 21 23  1  0
 21 22  1  0
 22 14  1  0
 23 24  1  0
 25 23  2  0
M  END
$$$$
