NTQ.pdb
     RDKit          3D

 25 24  0  0  1  0  0  0  0  0999 V2000
    7.2344  -14.4039   13.0644 N   0  0  0  0  0  0  0  0  0  0  0  0
    8.5133  -14.7644   13.5635 C   0  0  0  0  0  0  0  0  0  0  0  0
    9.2907  -15.5093   12.9182 O   0  0  0  0  0  0  0  0  0  0  0  0
    8.9384  -14.2523   14.8689 C   0  0  0  0  0  0  0  0  0  0  0  0
    9.3170  -15.3711   15.8313 C   0  0  2  0  0  0  0  0  0  0  0  0
    8.2150  -16.2928   16.0017 N   0  0  0  0  0  0  0  0  0  0  0  0
    9.5934  -14.7180   17.1382 C   0  0  0  0  0  0  0  0  0  0  0  0
   10.6237  -13.9785   17.2400 O   0  0  0  0  0  0  0  0  0  0  0  0
    7.0587  -12.9463   19.3824 C   0  0  0  0  0  0  0  0  0  0  0  0
    7.8363  -13.9050   20.2540 C   0  0  1  0  0  0  0  0  0  0  0  0
    6.9941  -14.9798   20.5347 O   0  0  0  0  0  0  0  0  0  0  0  0
    9.1157  -14.3542   19.5865 C   0  0  2  0  0  0  0  0  0  0  0  0
    8.7719  -14.8739   18.2779 N   0  0  0  0  0  0  0  0  0  0  0  0
    9.8595  -15.3317   20.4002 C   0  0  0  0  0  0  0  0  0  0  0  0
   10.1747  -16.4324   19.9065 O   0  0  0  0  0  0  0  0  0  0  0  0
   15.1634  -14.6409   21.1989 N   0  0  0  0  0  0  0  0  0  0  0  0
   15.0640  -15.6495   22.1717 C   0  0  0  0  0  0  0  0  0  0  0  0
   16.0798  -16.1672   22.6541 O   0  0  0  0  0  0  0  0  0  0  0  0
   13.7171  -16.1003   22.6273 C   0  0  0  0  0  0  0  0  0  0  0  0
   12.6247  -15.3257   21.9303 C   0  0  0  0  0  0  0  0  0  0  0  0
   11.2773  -15.7755   22.4030 C   0  0  2  0  0  0  0  0  0  0  0  0
   10.2131  -15.0286   21.7233 N   0  0  0  0  0  0  0  0  0  0  0  0
   11.0575  -15.7322   23.8429 C   0  0  0  0  0  0  0  0  0  0  0  0
   11.5951  -16.5969   24.7691 O   0  0  0  0  0  0  0  0  0  0  0  0
   10.2997  -14.8191   24.3185 O   0  0  0  0  0  0  0  0  0  0  0  0
  1  2  1  0
  2  3  2  0
  4  2  1  0
  4  5  1  0
  5  6  1  1
  7  5  1  0
  7  8  2  0
 10  9  1  6
 10 12  1  0
 10 11  1  0
 12 13  1  6
 13  7  1  0
 14 12  1  0
 15 14  2  0
 17 16  1  0
 18 17  2  0
 19 20  1  0
 19 17  1  0
 21 20  1  1
 21 23  1  0
 21 22  1  0
 22 14  1  0
 23 24  1  0
 25 23  2  0
M  END
$$$$
