NTQ.pdb
     RDKit          3D

 25 24  0  0  1  0  0  0  0  0999 V2000
    9.6702  -14.3404   15.0072 N   0  0  0  0  0  0  0  0  0  0  0  0
    8.2855  -14.0420   15.0987 C   0  0  0  0  0  0  0  0  0  0  0  0
    7.5647  -13.9215   14.0780 O   0  0  0  0  0  0  0  0  0  0  0  0
    7.6802  -13.8701   16.4218 C   0  0  0  0  0  0  0  0  0  0  0  0
    8.7079  -13.9665   17.5425 C   0  0  2  0  0  0  0  0  0  0  0  0
    9.7063  -14.9672   17.2350 N   0  0  0  0  0  0  0  0  0  0  0  0
    7.9616  -14.3999   18.7533 C   0  0  0  0  0  0  0  0  0  0  0  0
    7.0069  -13.6695   19.1703 O   0  0  0  0  0  0  0  0  0  0  0  0
    6.6668  -17.9635   19.4928 C   0  0  0  0  0  0  0  0  0  0  0  0
    7.4432  -17.4709   20.6920 C   0  0  1  0  0  0  0  0  0  0  0  0
    8.6869  -18.0999   20.6623 O   0  0  0  0  0  0  0  0  0  0  0  0
    7.5756  -15.9653   20.6912 C   0  0  2  0  0  0  0  0  0  0  0  0
    8.2552  -15.5827   19.4695 N   0  0  0  0  0  0  0  0  0  0  0  0
    8.2605  -15.4621   21.8948 C   0  0  0  0  0  0  0  0  0  0  0  0
    9.4690  -15.1609   21.8362 O   0  0  0  0  0  0  0  0  0  0  0  0
    5.5498  -12.4345   26.6504 N   0  0  0  0  0  0  0  0  0  0  0  0
    6.9107  -12.4025   26.9973 C   0  0  0  0  0  0  0  0  0  0  0  0
    7.3089  -11.7030   27.9379 O   0  0  0  0  0  0  0  0  0  0  0  0
    7.8859  -13.2222   26.2213 C   0  0  0  0  0  0  0  0  0  0  0  0
    7.2270  -13.8447   25.0140 C   0  0  0  0  0  0  0  0  0  0  0  0
    8.1990  -14.7072   24.2706 C   0  0  2  0  0  0  0  0  0  0  0  0
    7.5595  -15.3207   23.1014 N   0  0  0  0  0  0  0  0  0  0  0  0
    8.8689  -15.7373   25.0540 C   0  0  0  0  0  0  0  0  0  0  0  0
   10.0083  -15.5671   25.8073 O   0  0  0  0  0  0  0  0  0  0  0  0
    8.3770  -16.9172   25.0604 O   0  0  0  0  0  0  0  0  0  0  0  0
  1  2  1  0
  2  3  2  0
  4  2  1  0
  4  5  1  0
  5  6  1  6
  7  5  1  0
  7  8  2  0
 10  9  1  6
 10 12  1  0
 10 11  1  0
 12 13  1  6
 13  7  1  0
 14 12  1  0
 15 14  2  0
 17 16  1  0
 18 17  2  0
 19 20  1  0
 19 17  1  0
 21 20  1  1
 21 23  1  0
 21 22  1  0
 22 14  1  0
 23 24  1  0
 25 23  2  0
M  END
$$$$
