NTQ.pdb
     RDKit          3D

 25 24  0  0  1  0  0  0  0  0999 V2000
   15.4346  -15.2340   17.8741 N   0  0  0  0  0  0  0  0  0  0  0  0
   14.1526  -14.7702   17.4791 C   0  0  0  0  0  0  0  0  0  0  0  0
   13.8097  -14.7174   16.2727 O   0  0  0  0  0  0  0  0  0  0  0  0
   13.2024  -14.3412   18.5086 C   0  0  0  0  0  0  0  0  0  0  0  0
   12.4174  -15.5099   19.0912 C   0  0  2  0  0  0  0  0  0  0  0  0
   11.4422  -15.9951   18.1392 N   0  0  0  0  0  0  0  0  0  0  0  0
   11.6958  -14.9750   20.2761 C   0  0  0  0  0  0  0  0  0  0  0  0
   12.3698  -14.3898   21.1828 O   0  0  0  0  0  0  0  0  0  0  0  0
    8.0088  -13.3994   19.9870 C   0  0  0  0  0  0  0  0  0  0  0  0
    8.1441  -14.3288   21.1709 C   0  0  1  0  0  0  0  0  0  0  0  0
    7.5543  -15.5397   20.8115 O   0  0  0  0  0  0  0  0  0  0  0  0
    9.5886  -14.5072   21.5782 C   0  0  2  0  0  0  0  0  0  0  0  0
   10.2972  -15.0812   20.4518 N   0  0  0  0  0  0  0  0  0  0  0  0
    9.7303  -15.3167   22.8012 C   0  0  0  0  0  0  0  0  0  0  0  0
   10.1494  -16.4882   22.7202 O   0  0  0  0  0  0  0  0  0  0  0  0
    9.2314  -13.2865   28.8069 N   0  0  0  0  0  0  0  0  0  0  0  0
    9.5127  -14.6549   28.9546 C   0  0  0  0  0  0  0  0  0  0  0  0
    9.6901  -15.1481   30.0761 O   0  0  0  0  0  0  0  0  0  0  0  0
    9.5982  -15.5220   27.7439 C   0  0  0  0  0  0  0  0  0  0  0  0
    9.5644  -14.6925   26.4829 C   0  0  0  0  0  0  0  0  0  0  0  0
    9.5350  -15.5747   25.2738 C   0  0  2  0  0  0  0  0  0  0  0  0
    9.3971  -14.7751   24.0514 N   0  0  0  0  0  0  0  0  0  0  0  0
    8.5325  -16.6322   25.2780 C   0  0  0  0  0  0  0  0  0  0  0  0
    8.6674  -17.8718   25.8609 O   0  0  0  0  0  0  0  0  0  0  0  0
    7.4158  -16.4183   24.6936 O   0  0  0  0  0  0  0  0  0  0  0  0
  1  2  1  0
  2  3  2  0
  4  2  1  0
  4  5  1  0
  5  6  1  6
  7  5  1  0
  7  8  2  0
 10  9  1  6
 10 12  1  0
 10 11  1  0
 12 13  1  6
 13  7  1  0
 14 12  1  0
 15 14  2  0
 17 16  1  0
 18 17  2  0
 19 20  1  0
 19 17  1  0
 21 20  1  1
 21 23  1  0
 21 22  1  0
 22 14  1  0
 23 24  1  0
 25 23  2  0
M  END
$$$$
