NTQ.pdb
     RDKit          3D

 25 24  0  0  1  0  0  0  0  0999 V2000
   13.6048  -16.6771   16.7411 N   0  0  0  0  0  0  0  0  0  0  0  0
   13.5291  -17.1479   18.0780 C   0  0  0  0  0  0  0  0  0  0  0  0
   14.0037  -18.2595   18.4169 O   0  0  0  0  0  0  0  0  0  0  0  0
   12.8790  -16.3128   19.0912 C   0  0  0  0  0  0  0  0  0  0  0  0
   12.1941  -15.0958   18.4818 C   0  0  2  0  0  0  0  0  0  0  0  0
   13.1733  -14.1595   17.9744 N   0  0  0  0  0  0  0  0  0  0  0  0
   11.4458  -14.4435   19.5888 C   0  0  0  0  0  0  0  0  0  0  0  0
   12.0815  -13.6766   20.3804 O   0  0  0  0  0  0  0  0  0  0  0  0
    7.8762  -12.7721   19.3828 C   0  0  0  0  0  0  0  0  0  0  0  0
    7.9313  -13.7892   20.4989 C   0  0  1  0  0  0  0  0  0  0  0  0
    7.3057  -14.9444   20.0327 O   0  0  0  0  0  0  0  0  0  0  0  0
    9.3519  -14.0589   20.9388 C   0  0  2  0  0  0  0  0  0  0  0  0
   10.0623  -14.6291   19.8115 N   0  0  0  0  0  0  0  0  0  0  0  0
    9.4152  -14.9182   22.1340 C   0  0  0  0  0  0  0  0  0  0  0  0
    9.6810  -16.1300   22.0090 O   0  0  0  0  0  0  0  0  0  0  0  0
    9.4293  -13.1000   28.2274 N   0  0  0  0  0  0  0  0  0  0  0  0
    9.4170  -14.5023   28.3108 C   0  0  0  0  0  0  0  0  0  0  0  0
    9.4879  -15.0728   29.4071 O   0  0  0  0  0  0  0  0  0  0  0  0
    9.3170  -15.3114   27.0616 C   0  0  0  0  0  0  0  0  0  0  0  0
    9.3094  -14.4217   25.8419 C   0  0  0  0  0  0  0  0  0  0  0  0
    9.1755  -15.2397   24.5952 C   0  0  2  0  0  0  0  0  0  0  0  0
    9.1789  -14.3790   23.4071 N   0  0  0  0  0  0  0  0  0  0  0  0
    8.0300  -16.1387   24.5402 C   0  0  0  0  0  0  0  0  0  0  0  0
    6.8258  -15.8772   23.9271 O   0  0  0  0  0  0  0  0  0  0  0  0
    8.1221  -17.2817   25.1054 O   0  0  0  0  0  0  0  0  0  0  0  0
  1  2  1  0
  2  3  2  0
  4  2  1  0
  4  5  1  0
  5  6  1  1
  7  5  1  0
  7  8  2  0
 10  9  1  6
 10 12  1  0
 10 11  1  0
 12 13  1  6
 13  7  1  0
 14 12  1  0
 15 14  2  0
 17 16  1  0
 18 17  2  0
 19 20  1  0
 19 17  1  0
 21 20  1  1
 21 23  1  0
 21 22  1  0
 22 14  1  0
 23 24  1  0
 25 23  2  0
M  END
$$$$
