GTT.pdb
     RDKit          3D

 19 18  0  0  1  0  0  0  0  0999 V2000
   22.8125  -15.3048  -18.0544 N   0  0  0  0  0  0  0  0  0  0  0  0
   21.7931  -15.4277  -17.0416 C   0  0  0  0  0  0  0  0  0  0  0  0
   21.3392  -16.8626  -17.0536 C   0  0  0  0  0  0  0  0  0  0  0  0
   20.8859  -17.3979  -18.0931 O   0  0  0  0  0  0  0  0  0  0  0  0
   21.5146  -21.4366  -15.4328 C   0  0  0  0  0  0  0  0  0  0  0  0
   21.9455  -20.0160  -15.3317 C   0  0  1  0  0  0  0  0  0  0  0  0
   23.1431  -19.8875  -16.0452 O   0  0  0  0  0  0  0  0  0  0  0  0
   20.9791  -19.0351  -15.9422 C   0  0  2  0  0  0  0  0  0  0  0  0
   21.3956  -17.6835  -15.9087 N   0  0  0  0  0  0  0  0  0  0  0  0
   19.6242  -19.2458  -15.3504 C   0  0  0  0  0  0  0  0  0  0  0  0
   19.4191  -18.9083  -14.1577 O   0  0  0  0  0  0  0  0  0  0  0  0
   16.6620  -21.6545  -17.0968 C   0  0  0  0  0  0  0  0  0  0  0  0
   16.2173  -20.3238  -16.5025 C   0  0  1  0  0  0  0  0  0  0  0  0
   14.9400  -20.4529  -15.9701 O   0  0  0  0  0  0  0  0  0  0  0  0
   17.2331  -19.9639  -15.4428 C   0  0  2  0  0  0  0  0  0  0  0  0
   18.5350  -19.8135  -16.0644 N   0  0  0  0  0  0  0  0  0  0  0  0
   17.2992  -21.0901  -14.4926 C   0  0  0  0  0  0  0  0  0  0  0  0
   16.4855  -21.1972  -13.3737 O   0  0  0  0  0  0  0  0  0  0  0  0
   18.1260  -22.0108  -14.6852 O   0  0  0  0  0  0  0  0  0  0  0  0
  1  2  1  0
  2  3  1  0
  3  4  2  0
  6  5  1  6
  6  7  1  0
  6  8  1  0
  8 10  1  0
  8  9  1  1
  9  3  1  0
 10 11  2  0
 10 16  1  0
 13 12  1  1
 13 14  1  0
 13 15  1  0
 15 17  1  0
 15 16  1  6
 17 19  2  0
 17 18  1  0
M  END
$$$$
