GTT.pdb
     RDKit          3D

 19 18  0  0  1  0  0  0  0  0999 V2000
   19.4921  -13.1330  -17.2332 N   0  0  0  0  0  0  0  0  0  0  0  0
   19.3978  -11.7664  -17.6843 C   0  0  0  0  0  0  0  0  0  0  0  0
   19.8720  -10.9001  -16.5486 C   0  0  0  0  0  0  0  0  0  0  0  0
   19.2527  -10.8506  -15.4593 O   0  0  0  0  0  0  0  0  0  0  0  0
   23.0116  -11.0805  -14.5539 C   0  0  0  0  0  0  0  0  0  0  0  0
   22.8788   -9.6887  -15.0632 C   0  0  1  0  0  0  0  0  0  0  0  0
   23.7242   -9.5636  -16.1720 O   0  0  0  0  0  0  0  0  0  0  0  0
   21.4943   -9.3383  -15.5419 C   0  0  2  0  0  0  0  0  0  0  0  0
   21.0292  -10.0997  -16.6397 N   0  0  0  0  0  0  0  0  0  0  0  0
   21.4115   -7.8652  -15.7731 C   0  0  0  0  0  0  0  0  0  0  0  0
   21.5997   -7.4170  -16.9316 O   0  0  0  0  0  0  0  0  0  0  0  0
   19.8531   -3.4265  -14.6476 C   0  0  0  0  0  0  0  0  0  0  0  0
   19.8246   -4.9265  -14.3812 C   0  0  1  0  0  0  0  0  0  0  0  0
   18.6585   -5.4722  -14.9044 O   0  0  0  0  0  0  0  0  0  0  0  0
   21.0579   -5.5044  -15.0365 C   0  0  2  0  0  0  0  0  0  0  0  0
   21.1284   -6.9239  -14.7473 N   0  0  0  0  0  0  0  0  0  0  0  0
   22.2306   -4.8476  -14.4291 C   0  0  0  0  0  0  0  0  0  0  0  0
   22.8796   -3.7604  -14.9972 O   0  0  0  0  0  0  0  0  0  0  0  0
   22.6827   -5.2762  -13.3428 O   0  0  0  0  0  0  0  0  0  0  0  0
  1  2  1  0
  2  3  1  0
  3  4  2  0
  6  5  1  6
  6  7  1  0
  6  8  1  0
  8 10  1  0
  8  9  1  6
  9  3  1  0
 10 11  2  0
 10 16  1  0
 13 12  1  6
 13 14  1  0
 13 15  1  0
 15 17  1  0
 15 16  1  1
 17 19  2  0
 17 18  1  0
M  END
$$$$
