GTT.pdb
     RDKit          3D

 19 18  0  0  1  0  0  0  0  0999 V2000
   18.3393  -15.1529  -18.8002 N   0  0  0  0  0  0  0  0  0  0  0  0
   17.8407  -13.8359  -19.1111 C   0  0  0  0  0  0  0  0  0  0  0  0
   18.2008  -12.9493  -17.9494 C   0  0  0  0  0  0  0  0  0  0  0  0
   17.8843  -13.2490  -16.7735 O   0  0  0  0  0  0  0  0  0  0  0  0
   21.4583  -12.1741  -16.5654 C   0  0  0  0  0  0  0  0  0  0  0  0
   20.7915  -10.8621  -16.7851 C   0  0  1  0  0  0  0  0  0  0  0  0
   21.3269  -10.3081  -17.9539 O   0  0  0  0  0  0  0  0  0  0  0  0
   19.3039  -10.9569  -17.0016 C   0  0  2  0  0  0  0  0  0  0  0  0
   18.9085  -11.7406  -18.1111 N   0  0  0  0  0  0  0  0  0  0  0  0
   18.7201   -9.5824  -17.0170 C   0  0  0  0  0  0  0  0  0  0  0  0
   18.6173   -8.9744  -18.1117 O   0  0  0  0  0  0  0  0  0  0  0  0
   15.4248   -8.1545  -15.5286 C   0  0  0  0  0  0  0  0  0  0  0  0
   16.6136   -7.4049  -14.9400 C   0  0  1  0  0  0  0  0  0  0  0  0
   16.9344   -7.9388  -13.6976 O   0  0  0  0  0  0  0  0  0  0  0  0
   17.7494   -7.5555  -15.9257 C   0  0  2  0  0  0  0  0  0  0  0  0
   18.2665   -8.9087  -15.8514 N   0  0  0  0  0  0  0  0  0  0  0  0
   18.8185   -6.6264  -15.5143 C   0  0  0  0  0  0  0  0  0  0  0  0
   18.7173   -5.2465  -15.6212 O   0  0  0  0  0  0  0  0  0  0  0  0
   19.8835   -7.0839  -15.0403 O   0  0  0  0  0  0  0  0  0  0  0  0
  1  2  1  0
  2  3  1  0
  3  4  2  0
  6  5  1  6
  6  7  1  0
  6  8  1  0
  8 10  1  0
  8  9  1  6
  9  3  1  0
 10 11  2  0
 10 16  1  0
 13 12  1  6
 13 14  1  0
 13 15  1  0
 15 17  1  0
 15 16  1  1
 17 19  2  0
 17 18  1  0
M  END
$$$$
