GTT.pdb
     RDKit          3D

 19 18  0  0  1  0  0  0  0  0999 V2000
   16.7403  -13.7943  -15.2373 N   0  0  0  0  0  0  0  0  0  0  0  0
   15.9757  -12.5810  -15.3902 C   0  0  0  0  0  0  0  0  0  0  0  0
   16.9368  -11.5159  -15.8453 C   0  0  0  0  0  0  0  0  0  0  0  0
   17.9822  -11.8026  -16.4758 O   0  0  0  0  0  0  0  0  0  0  0  0
   17.7275   -6.9175  -17.2920 C   0  0  0  0  0  0  0  0  0  0  0  0
   16.8470   -7.9022  -16.6068 C   0  0  1  0  0  0  0  0  0  0  0  0
   15.8800   -8.3166  -17.5304 O   0  0  0  0  0  0  0  0  0  0  0  0
   17.5582   -9.1480  -16.1475 C   0  0  2  0  0  0  0  0  0  0  0  0
   16.7222  -10.1454  -15.5929 N   0  0  0  0  0  0  0  0  0  0  0  0
   18.6898   -8.7665  -15.2507 C   0  0  0  0  0  0  0  0  0  0  0  0
   18.4396   -8.3804  -14.0816 O   0  0  0  0  0  0  0  0  0  0  0  0
   22.0898  -10.6958  -14.7288 C   0  0  0  0  0  0  0  0  0  0  0  0
   22.3610   -9.2371  -15.0756 C   0  0  1  0  0  0  0  0  0  0  0  0
   22.6612   -9.1260  -16.4280 O   0  0  0  0  0  0  0  0  0  0  0  0
   21.1113   -8.4681  -14.7132 C   0  0  2  0  0  0  0  0  0  0  0  0
   20.0541   -8.8139  -15.6442 N   0  0  0  0  0  0  0  0  0  0  0  0
   21.4148   -7.0329  -14.8670 C   0  0  0  0  0  0  0  0  0  0  0  0
   20.8416   -6.2288  -15.8420 O   0  0  0  0  0  0  0  0  0  0  0  0
   22.2302   -6.4888  -14.0877 O   0  0  0  0  0  0  0  0  0  0  0  0
  1  2  1  0
  2  3  1  0
  3  4  2  0
  6  5  1  6
  6  7  1  0
  6  8  1  0
  8 10  1  0
  8  9  1  1
  9  3  1  0
 10 11  2  0
 10 16  1  0
 13 12  1  6
 13 14  1  0
 13 15  1  0
 15 17  1  0
 15 16  1  6
 17 19  2  0
 17 18  1  0
M  END
$$$$
