GTT.pdb
     RDKit          3D

 19 18  0  0  1  0  0  0  0  0999 V2000
   13.1682  -10.6946   -9.5611 N   0  0  0  0  0  0  0  0  0  0  0  0
   14.2987   -9.7994   -9.5799 C   0  0  0  0  0  0  0  0  0  0  0  0
   15.0280  -10.0470  -10.8729 C   0  0  0  0  0  0  0  0  0  0  0  0
   14.9171  -11.1330  -11.4903 O   0  0  0  0  0  0  0  0  0  0  0  0
   14.3635   -9.1652  -14.0799 C   0  0  0  0  0  0  0  0  0  0  0  0
   15.7542   -8.6713  -13.8899 C   0  0  1  0  0  0  0  0  0  0  0  0
   15.6807   -7.2995  -13.6205 O   0  0  0  0  0  0  0  0  0  0  0  0
   16.4749   -9.2959  -12.7242 C   0  0  2  0  0  0  0  0  0  0  0  0
   15.8713   -9.0831  -11.4625 N   0  0  0  0  0  0  0  0  0  0  0  0
   17.9127   -8.8937  -12.7614 C   0  0  0  0  0  0  0  0  0  0  0  0
   18.3685   -8.1693  -11.8416 O   0  0  0  0  0  0  0  0  0  0  0  0
   22.4210   -9.1597  -14.6744 C   0  0  0  0  0  0  0  0  0  0  0  0
   20.9626   -9.5663  -14.8467 C   0  0  1  0  0  0  0  0  0  0  0  0
   20.8350  -10.9382  -14.6649 O   0  0  0  0  0  0  0  0  0  0  0  0
   20.1737   -8.7883  -13.8188 C   0  0  2  0  0  0  0  0  0  0  0  0
   18.8115   -9.2858  -13.7894 N   0  0  0  0  0  0  0  0  0  0  0  0
   20.1447   -7.3800  -14.2563 C   0  0  0  0  0  0  0  0  0  0  0  0
   21.1178   -6.4515  -13.9150 O   0  0  0  0  0  0  0  0  0  0  0  0
   19.2013   -6.9776  -14.9750 O   0  0  0  0  0  0  0  0  0  0  0  0
  1  2  1  0
  2  3  1  0
  3  4  2  0
  6  5  1  1
  6  7  1  0
  6  8  1  0
  8 10  1  0
  8  9  1  1
  9  3  1  0
 10 11  2  0
 10 16  1  0
 13 12  1  1
 13 14  1  0
 13 15  1  0
 15 17  1  0
 15 16  1  6
 17 19  2  0
 17 18  1  0
M  END
$$$$
