GTT.pdb
     RDKit          3D

 19 18  0  0  1  0  0  0  0  0999 V2000
   19.2573  -14.7710  -18.2419 N   0  0  0  0  0  0  0  0  0  0  0  0
   19.9113  -13.5549  -18.6581 C   0  0  0  0  0  0  0  0  0  0  0  0
   20.3062  -12.8225  -17.4040 C   0  0  0  0  0  0  0  0  0  0  0  0
   19.5596  -12.7981  -16.3967 O   0  0  0  0  0  0  0  0  0  0  0  0
   23.5731  -10.6686  -14.4571 C   0  0  0  0  0  0  0  0  0  0  0  0
   23.2870  -11.3944  -15.7243 C   0  0  1  0  0  0  0  0  0  0  0  0
   23.6101  -12.7412  -15.5203 O   0  0  0  0  0  0  0  0  0  0  0  0
   21.8391  -11.3621  -16.1381 C   0  0  2  0  0  0  0  0  0  0  0  0
   21.5269  -12.1266  -17.2868 N   0  0  0  0  0  0  0  0  0  0  0  0
   21.3873   -9.9422  -16.2384 C   0  0  0  0  0  0  0  0  0  0  0  0
   21.7770   -9.2439  -17.2074 O   0  0  0  0  0  0  0  0  0  0  0  0
   18.4139   -6.2778  -14.9293 C   0  0  0  0  0  0  0  0  0  0  0  0
   18.7989   -7.7380  -14.7263 C   0  0  1  0  0  0  0  0  0  0  0  0
   17.7941   -8.5598  -15.2227 O   0  0  0  0  0  0  0  0  0  0  0  0
   20.1055   -7.9452  -15.4572 C   0  0  2  0  0  0  0  0  0  0  0  0
   20.5300   -9.3221  -15.2903 N   0  0  0  0  0  0  0  0  0  0  0  0
   21.1098   -7.0694  -14.8249 C   0  0  0  0  0  0  0  0  0  0  0  0
   21.4926   -5.8416  -15.3462 O   0  0  0  0  0  0  0  0  0  0  0  0
   21.6601   -7.4319  -13.7600 O   0  0  0  0  0  0  0  0  0  0  0  0
  1  2  1  0
  2  3  1  0
  3  4  2  0
  6  5  1  1
  6  7  1  0
  6  8  1  0
  8 10  1  0
  8  9  1  6
  9  3  1  0
 10 11  2  0
 10 16  1  0
 13 12  1  6
 13 14  1  0
 13 15  1  0
 15 17  1  0
 15 16  1  1
 17 19  2  0
 17 18  1  0
M  END
$$$$
