GTT.pdb
     RDKit          3D

 19 18  0  0  1  0  0  0  0  0999 V2000
   27.6393  -25.2943  -16.1597 N   0  0  0  0  0  0  0  0  0  0  0  0
   26.6990  -24.8175  -17.1438 C   0  0  0  0  0  0  0  0  0  0  0  0
   26.0756  -23.5689  -16.5802 C   0  0  0  0  0  0  0  0  0  0  0  0
   26.4397  -23.0947  -15.4778 O   0  0  0  0  0  0  0  0  0  0  0  0
   24.3982  -19.1526  -16.9545 C   0  0  0  0  0  0  0  0  0  0  0  0
   24.7815  -20.4389  -17.5971 C   0  0  1  0  0  0  0  0  0  0  0  0
   26.1612  -20.3981  -17.8309 O   0  0  0  0  0  0  0  0  0  0  0  0
   24.5305  -21.6528  -16.7413 C   0  0  2  0  0  0  0  0  0  0  0  0
   25.0550  -22.8639  -17.2506 N   0  0  0  0  0  0  0  0  0  0  0  0
   23.0749  -21.7345  -16.4177 C   0  0  0  0  0  0  0  0  0  0  0  0
   22.2661  -22.0667  -17.3199 O   0  0  0  0  0  0  0  0  0  0  0  0
   21.5494  -23.3048  -13.1247 C   0  0  0  0  0  0  0  0  0  0  0  0
   20.9480  -21.9283  -13.3803 C   0  0  1  0  0  0  0  0  0  0  0  0
   21.5918  -20.9828  -12.5910 O   0  0  0  0  0  0  0  0  0  0  0  0
   21.1285  -21.6457  -14.8541 C   0  0  2  0  0  0  0  0  0  0  0  0
   22.5394  -21.4553  -15.1318 N   0  0  0  0  0  0  0  0  0  0  0  0
   20.4221  -20.3859  -15.1528 C   0  0  0  0  0  0  0  0  0  0  0  0
   19.0397  -20.2767  -15.2056 O   0  0  0  0  0  0  0  0  0  0  0  0
   21.0839  -19.3460  -15.3740 O   0  0  0  0  0  0  0  0  0  0  0  0
  1  2  1  0
  2  3  1  0
  3  4  2  0
  6  5  1  1
  6  7  1  0
  6  8  1  0
  8 10  1  0
  8  9  1  6
  9  3  1  0
 10 11  2  0
 10 16  1  0
 13 12  1  6
 13 14  1  0
 13 15  1  0
 15 17  1  0
 15 16  1  1
 17 19  2  0
 17 18  1  0
M  END
$$$$
