GTT.pdb
     RDKit          3D

 19 18  0  0  1  0  0  0  0  0999 V2000
   17.3509  -12.8936    4.8503 N   0  0  0  0  0  0  0  0  0  0  0  0
   17.7707  -11.9479    5.8548 C   0  0  0  0  0  0  0  0  0  0  0  0
   19.1206  -12.4014    6.3418 C   0  0  0  0  0  0  0  0  0  0  0  0
   19.6026  -13.5077    6.0007 O   0  0  0  0  0  0  0  0  0  0  0  0
   22.4063   -9.9448    6.9537 C   0  0  0  0  0  0  0  0  0  0  0  0
   22.1381  -10.9391    8.0277 C   0  0  1  0  0  0  0  0  0  0  0  0
   21.5180  -10.2611    9.0839 O   0  0  0  0  0  0  0  0  0  0  0  0
   21.1989  -12.0445    7.6218 C   0  0  2  0  0  0  0  0  0  0  0  0
   19.9170  -11.6179    7.2021 N   0  0  0  0  0  0  0  0  0  0  0  0
   21.1493  -13.0711    8.7054 C   0  0  0  0  0  0  0  0  0  0  0  0
   20.1549  -13.1022    9.4726 O   0  0  0  0  0  0  0  0  0  0  0  0
   22.5148  -17.3701   10.5399 C   0  0  0  0  0  0  0  0  0  0  0  0
   22.6969  -16.3289    9.4424 C   0  0  1  0  0  0  0  0  0  0  0  0
   22.1338  -16.7928    8.2596 O   0  0  0  0  0  0  0  0  0  0  0  0
   22.0213  -15.0673    9.9285 C   0  0  2  0  0  0  0  0  0  0  0  0
   22.1738  -14.0303    8.9258 N   0  0  0  0  0  0  0  0  0  0  0  0
   22.7199  -14.6353   11.1536 C   0  0  0  0  0  0  0  0  0  0  0  0
   22.3064  -14.9789   12.4329 O   0  0  0  0  0  0  0  0  0  0  0  0
   23.7432  -13.9196   11.0594 O   0  0  0  0  0  0  0  0  0  0  0  0
  1  2  1  0
  2  3  1  0
  3  4  2  0
  6  5  1  6
  6  7  1  0
  6  8  1  0
  8 10  1  0
  8  9  1  1
  9  3  1  0
 10 11  2  0
 10 16  1  0
 13 12  1  1
 13 14  1  0
 13 15  1  0
 15 17  1  0
 15 16  1  6
 17 19  2  0
 17 18  1  0
M  END
$$$$
