GTT.pdb
     RDKit          3D

 19 18  0  0  1  0  0  0  0  0999 V2000
   28.5025  -22.2355  -15.6957 N   0  0  0  0  0  0  0  0  0  0  0  0
   28.0866  -21.0844  -14.9330 C   0  0  0  0  0  0  0  0  0  0  0  0
   26.8017  -21.4598  -14.2450 C   0  0  0  0  0  0  0  0  0  0  0  0
   26.1264  -22.4504  -14.6131 O   0  0  0  0  0  0  0  0  0  0  0  0
   26.2135  -21.3541  -10.2469 C   0  0  0  0  0  0  0  0  0  0  0  0
   25.0632  -20.8079  -11.0168 C   0  0  1  0  0  0  0  0  0  0  0  0
   25.1104  -19.4128  -10.9114 O   0  0  0  0  0  0  0  0  0  0  0  0
   25.1022  -21.1251  -12.4888 C   0  0  2  0  0  0  0  0  0  0  0  0
   26.2847  -20.7282  -13.1563 N   0  0  0  0  0  0  0  0  0  0  0  0
   23.8608  -20.6066  -13.1371 C   0  0  0  0  0  0  0  0  0  0  0  0
   23.8341  -19.4176  -13.5424 O   0  0  0  0  0  0  0  0  0  0  0  0
   21.1004  -23.0587  -14.9386 C   0  0  0  0  0  0  0  0  0  0  0  0
   21.3427  -21.6031  -15.3183 C   0  0  1  0  0  0  0  0  0  0  0  0
   20.2568  -21.1208  -16.0392 O   0  0  0  0  0  0  0  0  0  0  0  0
   21.5378  -20.8467  -14.0244 C   0  0  2  0  0  0  0  0  0  0  0  0
   22.6892  -21.3872  -13.3272 N   0  0  0  0  0  0  0  0  0  0  0  0
   20.3413  -21.0762  -13.1930 C   0  0  0  0  0  0  0  0  0  0  0  0
   20.3619  -21.7835  -11.9993 O   0  0  0  0  0  0  0  0  0  0  0  0
   19.2364  -20.6180  -13.5639 O   0  0  0  0  0  0  0  0  0  0  0  0
  1  2  1  0
  2  3  1  0
  3  4  2  0
  6  5  1  1
  6  7  1  0
  6  8  1  0
  8 10  1  0
  8  9  1  6
  9  3  1  0
 10 11  2  0
 10 16  1  0
 13 12  1  1
 13 14  1  0
 13 15  1  0
 15 17  1  0
 15 16  1  1
 17 19  2  0
 17 18  1  0
M  END
$$$$
