GTT.pdb
     RDKit          3D

 19 18  0  0  1  0  0  0  0  0999 V2000
   19.8521  -21.9773  -17.4351 N   0  0  0  0  0  0  0  0  0  0  0  0
   20.3035  -20.7002  -16.9401 C   0  0  0  0  0  0  0  0  0  0  0  0
   21.6999  -20.9054  -16.4176 C   0  0  0  0  0  0  0  0  0  0  0  0
   22.4025  -21.8756  -16.7885 O   0  0  0  0  0  0  0  0  0  0  0  0
   24.4218  -18.2137  -16.5819 C   0  0  0  0  0  0  0  0  0  0  0  0
   24.4431  -18.8435  -15.2339 C   0  0  1  0  0  0  0  0  0  0  0  0
   23.8364  -17.9508  -14.3424 O   0  0  0  0  0  0  0  0  0  0  0  0
   23.6649  -20.1299  -15.1437 C   0  0  2  0  0  0  0  0  0  0  0  0
   22.2967  -20.0282  -15.4889 N   0  0  0  0  0  0  0  0  0  0  0  0
   23.8866  -20.7464  -13.8017 C   0  0  0  0  0  0  0  0  0  0  0  0
   22.9006  -20.9385  -13.0471 O   0  0  0  0  0  0  0  0  0  0  0  0
   27.6108  -20.9318  -12.0010 C   0  0  0  0  0  0  0  0  0  0  0  0
   26.7480  -22.1750  -11.8225 C   0  0  1  0  0  0  0  0  0  0  0  0
   26.9646  -22.7174  -10.5614 O   0  0  0  0  0  0  0  0  0  0  0  0
   25.3138  -21.7344  -12.0050 C   0  0  2  0  0  0  0  0  0  0  0  0
   25.1643  -21.1353  -13.3175 N   0  0  0  0  0  0  0  0  0  0  0  0
   25.0353  -20.7023  -10.9887 C   0  0  0  0  0  0  0  0  0  0  0  0
   24.6021  -20.9909   -9.7024 O   0  0  0  0  0  0  0  0  0  0  0  0
   25.1910  -19.4941  -11.2791 O   0  0  0  0  0  0  0  0  0  0  0  0
  1  2  1  0
  2  3  1  0
  3  4  2  0
  6  5  1  6
  6  7  1  0
  6  8  1  0
  8 10  1  0
  8  9  1  1
  9  3  1  0
 10 11  2  0
 10 16  1  0
 13 12  1  1
 13 14  1  0
 13 15  1  0
 15 17  1  0
 15 16  1  6
 17 19  2  0
 17 18  1  0
M  END
$$$$
