GTT.pdb
     RDKit          3D

 19 18  0  0  1  0  0  0  0  0999 V2000
   15.4437  -11.6263  -14.9913 N   0  0  0  0  0  0  0  0  0  0  0  0
   15.5634  -10.3029  -14.4307 C   0  0  0  0  0  0  0  0  0  0  0  0
   16.8201   -9.7016  -15.0002 C   0  0  0  0  0  0  0  0  0  0  0  0
   17.9546  -10.1307  -14.6819 O   0  0  0  0  0  0  0  0  0  0  0  0
   19.1200   -6.8341  -18.3068 C   0  0  0  0  0  0  0  0  0  0  0  0
   17.8510   -7.4020  -17.7765 C   0  0  1  0  0  0  0  0  0  0  0  0
   17.4276   -8.3933  -18.6697 O   0  0  0  0  0  0  0  0  0  0  0  0
   17.9899   -8.0703  -16.4338 C   0  0  2  0  0  0  0  0  0  0  0  0
   16.7981   -8.6305  -15.9169 N   0  0  0  0  0  0  0  0  0  0  0  0
   18.6566   -7.1311  -15.4831 C   0  0  0  0  0  0  0  0  0  0  0  0
   17.9857   -6.1990  -14.9736 O   0  0  0  0  0  0  0  0  0  0  0  0
   22.3647   -7.9413  -13.9397 C   0  0  0  0  0  0  0  0  0  0  0  0
   21.4443   -6.9981  -13.1750 C   0  0  1  0  0  0  0  0  0  0  0  0
   22.2041   -6.1256  -12.4050 O   0  0  0  0  0  0  0  0  0  0  0  0
   20.6232   -6.2637  -14.2098 C   0  0  2  0  0  0  0  0  0  0  0  0
   20.0248   -7.2280  -15.1131 N   0  0  0  0  0  0  0  0  0  0  0  0
   21.5460   -5.4123  -14.9838 C   0  0  0  0  0  0  0  0  0  0  0  0
   22.0915   -4.2331  -14.4964 O   0  0  0  0  0  0  0  0  0  0  0  0
   21.8689   -5.7512  -16.1454 O   0  0  0  0  0  0  0  0  0  0  0  0
  1  2  1  0
  2  3  1  0
  3  4  2  0
  6  5  1  6
  6  7  1  0
  6  8  1  0
  8 10  1  0
  8  9  1  1
  9  3  1  0
 10 11  2  0
 10 16  1  0
 13 12  1  6
 13 14  1  0
 13 15  1  0
 15 17  1  0
 15 16  1  6
 17 19  2  0
 17 18  1  0
M  END
$$$$
