GTT.pdb
     RDKit          3D

 19 18  0  0  1  0  0  0  0  0999 V2000
   32.6566  -25.3483  -15.2715 N   0  0  0  0  0  0  0  0  0  0  0  0
   32.4014  -24.5685  -16.4575 C   0  0  0  0  0  0  0  0  0  0  0  0
   30.9071  -24.5142  -16.6290 C   0  0  0  0  0  0  0  0  0  0  0  0
   30.1404  -25.2079  -15.9193 O   0  0  0  0  0  0  0  0  0  0  0  0
   28.7529  -22.3612  -15.3357 C   0  0  0  0  0  0  0  0  0  0  0  0
   28.4283  -22.2802  -16.7857 C   0  0  1  0  0  0  0  0  0  0  0  0
   29.1025  -21.1694  -17.3067 O   0  0  0  0  0  0  0  0  0  0  0  0
   28.8873  -23.4707  -17.5862 C   0  0  2  0  0  0  0  0  0  0  0  0
   30.2851  -23.6888  -17.5880 N   0  0  0  0  0  0  0  0  0  0  0  0
   28.3039  -23.3954  -18.9589 C   0  0  0  0  0  0  0  0  0  0  0  0
   29.0366  -23.0395  -19.9155 O   0  0  0  0  0  0  0  0  0  0  0  0
   24.6663  -24.3262  -22.1297 C   0  0  0  0  0  0  0  0  0  0  0  0
   25.1954  -24.4974  -20.7111 C   0  0  1  0  0  0  0  0  0  0  0  0
   25.4407  -25.8426  -20.4627 O   0  0  0  0  0  0  0  0  0  0  0  0
   26.4571  -23.6705  -20.6186 C   0  0  2  0  0  0  0  0  0  0  0  0
   26.9497  -23.7064  -19.2548 N   0  0  0  0  0  0  0  0  0  0  0  0
   26.0984  -22.2779  -20.9465 C   0  0  0  0  0  0  0  0  0  0  0  0
   26.1214  -21.7639  -22.2352 O   0  0  0  0  0  0  0  0  0  0  0  0
   25.7513  -21.4990  -20.0293 O   0  0  0  0  0  0  0  0  0  0  0  0
  1  2  1  0
  2  3  1  0
  3  4  2  0
  6  5  1  1
  6  7  1  0
  6  8  1  0
  8 10  1  0
  8  9  1  6
  9  3  1  0
 10 11  2  0
 10 16  1  0
 13 12  1  6
 13 14  1  0
 13 15  1  0
 15 17  1  0
 15 16  1  1
 17 19  2  0
 17 18  1  0
M  END
$$$$
