GTT.pdb
     RDKit          3D

 19 18  0  0  1  0  0  0  0  0999 V2000
   27.6614  -16.0965  -19.3282 N   0  0  0  0  0  0  0  0  0  0  0  0
   28.2537  -15.1334  -20.2235 C   0  0  0  0  0  0  0  0  0  0  0  0
   28.1386  -13.7900  -19.5547 C   0  0  0  0  0  0  0  0  0  0  0  0
   27.1696  -13.5097  -18.8097 O   0  0  0  0  0  0  0  0  0  0  0  0
   29.9356   -9.5716  -17.8923 C   0  0  0  0  0  0  0  0  0  0  0  0
   30.1700  -10.8682  -18.5837 C   0  0  1  0  0  0  0  0  0  0  0  0
   30.6466  -11.7743  -17.6289 O   0  0  0  0  0  0  0  0  0  0  0  0
   28.9283  -11.4845  -19.1728 C   0  0  2  0  0  0  0  0  0  0  0  0
   29.1034  -12.7758  -19.7235 N   0  0  0  0  0  0  0  0  0  0  0  0
   28.3051  -10.5197  -20.1273 C   0  0  0  0  0  0  0  0  0  0  0  0
   28.8790  -10.2840  -21.2198 O   0  0  0  0  0  0  0  0  0  0  0  0
   24.7114  -10.4243  -21.4862 C   0  0  0  0  0  0  0  0  0  0  0  0
   25.0158   -9.0729  -20.8515 C   0  0  1  0  0  0  0  0  0  0  0  0
   24.4903   -9.0311  -19.5656 O   0  0  0  0  0  0  0  0  0  0  0  0
   26.5202   -8.9272  -20.8479 C   0  0  2  0  0  0  0  0  0  0  0  0
   27.0835   -9.8408  -19.8722 N   0  0  0  0  0  0  0  0  0  0  0  0
   26.8301   -7.5482  -20.4263 C   0  0  0  0  0  0  0  0  0  0  0  0
   26.6713   -6.4416  -21.2485 O   0  0  0  0  0  0  0  0  0  0  0  0
   27.2609   -7.3400  -19.2689 O   0  0  0  0  0  0  0  0  0  0  0  0
  1  2  1  0
  2  3  1  0
  3  4  2  0
  6  5  1  1
  6  7  1  0
  6  8  1  0
  8 10  1  0
  8  9  1  6
  9  3  1  0
 10 11  2  0
 10 16  1  0
 13 12  1  1
 13 14  1  0
 13 15  1  0
 15 17  1  0
 15 16  1  1
 17 19  2  0
 17 18  1  0
M  END
$$$$
