GTT.pdb
     RDKit          3D

 19 18  0  0  1  0  0  0  0  0999 V2000
   19.0685  -15.1773  -16.7660 N   0  0  0  0  0  0  0  0  0  0  0  0
   19.3222  -14.4394  -17.9788 C   0  0  0  0  0  0  0  0  0  0  0  0
   19.4165  -12.9877  -17.5928 C   0  0  0  0  0  0  0  0  0  0  0  0
   20.4142  -12.2919  -17.8978 O   0  0  0  0  0  0  0  0  0  0  0  0
   17.1729   -8.8299  -16.1130 C   0  0  0  0  0  0  0  0  0  0  0  0
   17.1191  -10.3076  -16.2793 C   0  0  1  0  0  0  0  0  0  0  0  0
   16.2553  -10.5800  -17.3467 O   0  0  0  0  0  0  0  0  0  0  0  0
   18.4422  -10.9354  -16.6317 C   0  0  2  0  0  0  0  0  0  0  0  0
   18.3991  -12.3289  -16.8724 N   0  0  0  0  0  0  0  0  0  0  0  0
   19.4588  -10.5484  -15.6085 C   0  0  0  0  0  0  0  0  0  0  0  0
   19.3500  -10.9958  -14.4395 O   0  0  0  0  0  0  0  0  0  0  0  0
   23.2231  -10.9120  -15.5378 C   0  0  0  0  0  0  0  0  0  0  0  0
   22.9077   -9.4285  -15.3906 C   0  0  1  0  0  0  0  0  0  0  0  0
   23.0161   -8.8025  -16.6266 O   0  0  0  0  0  0  0  0  0  0  0  0
   21.5041   -9.3389  -14.8372 C   0  0  2  0  0  0  0  0  0  0  0  0
   20.5592   -9.6918  -15.8796 N   0  0  0  0  0  0  0  0  0  0  0  0
   21.2689   -7.9344  -14.4530 C   0  0  0  0  0  0  0  0  0  0  0  0
   21.7732   -7.3626  -13.2935 O   0  0  0  0  0  0  0  0  0  0  0  0
   20.5804   -7.1992  -15.1971 O   0  0  0  0  0  0  0  0  0  0  0  0
  1  2  1  0
  2  3  1  0
  3  4  2  0
  6  5  1  6
  6  7  1  0
  6  8  1  0
  8 10  1  0
  8  9  1  1
  9  3  1  0
 10 11  2  0
 10 16  1  0
 13 12  1  6
 13 14  1  0
 13 15  1  0
 15 17  1  0
 15 16  1  6
 17 19  2  0
 17 18  1  0
M  END
$$$$
