GTT.pdb
     RDKit          3D

 19 18  0  0  1  0  0  0  0  0999 V2000
   20.5395  -21.4546  -11.2108 N   0  0  0  0  0  0  0  0  0  0  0  0
   21.1792  -21.8528  -12.4405 C   0  0  0  0  0  0  0  0  0  0  0  0
   22.3523  -20.9309  -12.6386 C   0  0  0  0  0  0  0  0  0  0  0  0
   22.3695  -19.7773  -12.1474 O   0  0  0  0  0  0  0  0  0  0  0  0
   25.9800  -21.5010  -11.7192 C   0  0  0  0  0  0  0  0  0  0  0  0
   25.9270  -21.0244  -13.1279 C   0  0  1  0  0  0  0  0  0  0  0  0
   26.1356  -22.1339  -13.9558 O   0  0  0  0  0  0  0  0  0  0  0  0
   24.5991  -20.4376  -13.5291 C   0  0  2  0  0  0  0  0  0  0  0  0
   23.4912  -21.3048  -13.3809 N   0  0  0  0  0  0  0  0  0  0  0  0
   24.7111  -19.8589  -14.9014 C   0  0  0  0  0  0  0  0  0  0  0  0
   24.1664  -20.4567  -15.8629 O   0  0  0  0  0  0  0  0  0  0  0  0
   24.2567  -16.0536  -16.0080 C   0  0  0  0  0  0  0  0  0  0  0  0
   25.5972  -16.6145  -16.4664 C   0  0  1  0  0  0  0  0  0  0  0  0
   26.5907  -16.2451  -15.5675 O   0  0  0  0  0  0  0  0  0  0  0  0
   25.4349  -18.1155  -16.5377 C   0  0  2  0  0  0  0  0  0  0  0  0
   25.4068  -18.6547  -15.1915 N   0  0  0  0  0  0  0  0  0  0  0  0
   26.6198  -18.6561  -17.2301 C   0  0  0  0  0  0  0  0  0  0  0  0
   26.8981  -18.4215  -18.5692 O   0  0  0  0  0  0  0  0  0  0  0  0
   27.4323  -19.3677  -16.5963 O   0  0  0  0  0  0  0  0  0  0  0  0
  1  2  1  0
  2  3  1  0
  3  4  2  0
  6  5  1  1
  6  7  1  0
  6  8  1  0
  8 10  1  0
  8  9  1  6
  9  3  1  0
 10 11  2  0
 10 16  1  0
 13 12  1  1
 13 14  1  0
 13 15  1  0
 15 17  1  0
 15 16  1  1
 17 19  2  0
 17 18  1  0
M  END
$$$$
