GTT.pdb
     RDKit          3D

 19 18  0  0  1  0  0  0  0  0999 V2000
   17.3801  -13.9844  -17.0138 N   0  0  0  0  0  0  0  0  0  0  0  0
   18.2828  -13.3248  -17.9249 C   0  0  0  0  0  0  0  0  0  0  0  0
   19.2628  -12.5527  -17.0831 C   0  0  0  0  0  0  0  0  0  0  0  0
   19.1459  -12.4861  -15.8363 O   0  0  0  0  0  0  0  0  0  0  0  0
   23.5787  -10.4435  -16.2538 C   0  0  0  0  0  0  0  0  0  0  0  0
   22.6770  -11.1396  -17.2112 C   0  0  1  0  0  0  0  0  0  0  0  0
   23.0202  -12.4968  -17.2021 O   0  0  0  0  0  0  0  0  0  0  0  0
   21.2176  -11.0671  -16.8454 C   0  0  2  0  0  0  0  0  0  0  0  0
   20.3604  -11.8645  -17.6396 N   0  0  0  0  0  0  0  0  0  0  0  0
   20.7961   -9.6358  -16.7833 C   0  0  0  0  0  0  0  0  0  0  0  0
   20.8470   -8.9380  -17.8269 O   0  0  0  0  0  0  0  0  0  0  0  0
   17.4961   -8.2453  -15.6501 C   0  0  0  0  0  0  0  0  0  0  0  0
   18.5706   -7.5492  -14.8239 C   0  0  1  0  0  0  0  0  0  0  0  0
   18.6885   -8.1742  -13.5882 O   0  0  0  0  0  0  0  0  0  0  0  0
   19.8516   -7.6362  -15.6212 C   0  0  2  0  0  0  0  0  0  0  0  0
   20.3336   -9.0040  -15.5979 N   0  0  0  0  0  0  0  0  0  0  0  0
   20.8488   -6.7806  -14.9509 C   0  0  0  0  0  0  0  0  0  0  0  0
   20.7990   -5.3939  -14.9610 O   0  0  0  0  0  0  0  0  0  0  0  0
   21.8003   -7.3114  -14.3335 O   0  0  0  0  0  0  0  0  0  0  0  0
  1  2  1  0
  2  3  1  0
  3  4  2  0
  6  5  1  1
  6  7  1  0
  6  8  1  0
  8 10  1  0
  8  9  1  6
  9  3  1  0
 10 11  2  0
 10 16  1  0
 13 12  1  6
 13 14  1  0
 13 15  1  0
 15 17  1  0
 15 16  1  1
 17 19  2  0
 17 18  1  0
M  END
$$$$
