RQQ.pdb
     RDKit          3D

 30 29  0  0  1  0  0  0  0  0999 V2000
    7.1155  -14.7048   17.1289 N   0  0  0  0  0  0  0  0  0  0  0  0
    8.3051  -13.9858   16.9491 C   0  0  0  0  0  0  0  0  0  0  0  0
    9.0813  -14.2209   15.9617 N   0  0  0  0  0  0  0  0  0  0  0  0
    8.6707  -12.9694   17.8741 N   0  0  0  0  0  0  0  0  0  0  0  0
    8.4073  -13.0994   19.2754 C   0  0  0  0  0  0  0  0  0  0  0  0
    7.1471  -13.8901   19.4888 C   0  0  0  0  0  0  0  0  0  0  0  0
    6.9950  -14.2133   20.9409 C   0  0  0  0  0  0  0  0  0  0  0  0
    8.1071  -15.1240   21.4415 C   0  0  2  0  0  0  0  0  0  0  0  0
    8.2543  -16.2278   20.5057 N   0  0  0  0  0  0  0  0  0  0  0  0
    7.8117  -15.6456   22.7934 C   0  0  0  0  0  0  0  0  0  0  0  0
    7.5007  -14.8317   23.6969 O   0  0  0  0  0  0  0  0  0  0  0  0
    9.9856  -13.7322   15.8003 N   0  0  0  0  0  0  0  0  0  0  0  0
    6.7651  -20.5886   22.3469 C   0  0  0  0  0  0  0  0  0  0  0  0
    5.6278  -19.7524   22.4187 O   0  0  0  0  0  0  0  0  0  0  0  0
    4.6775  -19.9171   21.5876 C   0  0  0  0  0  0  0  0  0  0  0  0
    5.5475  -18.6836   23.4659 C   0  0  0  0  0  0  0  0  0  0  0  0
    6.7791  -18.7725   24.3217 C   0  0  2  0  0  0  0  0  0  0  0  0
    7.4786  -17.4523   24.5153 N   0  0  0  0  0  0  0  0  0  0  0  0
    7.8547  -17.0182   23.1502 C   0  0  0  0  0  0  0  0  0  0  0  0
    8.6844  -17.6126   25.3428 O   0  0  0  0  0  0  0  0  0  0  0  0
    9.5699  -18.4136   24.9676 N   0  0  0  0  0  0  0  0  0  0  0  0
    9.4771  -13.6915   30.1024 C   0  0  0  0  0  0  0  0  0  0  0  0
   10.2602  -13.6438   28.9366 O   0  0  0  0  0  0  0  0  0  0  0  0
   11.0876  -12.6806   28.8307 C   0  0  0  0  0  0  0  0  0  0  0  0
   10.1607  -14.6501   27.8513 C   0  0  0  0  0  0  0  0  0  0  0  0
   10.2870  -16.0622   28.3909 C   0  0  2  0  0  0  0  0  0  0  0  0
   10.1284  -17.0790   27.2695 N   0  0  0  0  0  0  0  0  0  0  0  0
    8.9056  -16.9044   26.5545 C   0  0  0  0  0  0  0  0  0  0  0  0
   10.2839  -18.4678   27.7976 O   0  0  0  0  0  0  0  0  0  0  0  0
    9.3174  -19.1852   28.1493 O   0  0  0  0  0  0  0  0  0  0  0  0
  2  1  1  0
  3  2  2  0
  4  2  1  0
  5  6  1  0
  5  4  1  0
  7  6  1  0
  8  7  1  0
  8  9  1  6
 10 11  2  0
 10  8  1  0
 13 12  1  0
 13 15  1  0
 14 13  2  0
 16 15  1  0
 17 16  1  6
 17 18  1  0
 18 10  1  0
 19 17  1  0
 19 27  1  0
 20 19  2  0
 22 21  1  0
 22 23  2  0
 24 22  1  0
 25 24  1  0
 26 27  1  0
 26 25  1  6
 28 26  1  0
 29 28  2  0
 30 28  1  0
M  END
$$$$
