RQQ.pdb
     RDKit          3D

 30 29  0  0  1  0  0  0  0  0999 V2000
    5.6286  -14.3316   19.0082 N   0  0  0  0  0  0  0  0  0  0  0  0
    6.4273  -13.4457   18.2720 C   0  0  0  0  0  0  0  0  0  0  0  0
    6.1364  -13.1324   17.0679 N   0  0  0  0  0  0  0  0  0  0  0  0
    7.5878  -12.8736   18.8619 N   0  0  0  0  0  0  0  0  0  0  0  0
    8.6935  -13.6813   19.2802 C   0  0  0  0  0  0  0  0  0  0  0  0
    9.6456  -13.8797   18.1343 C   0  0  0  0  0  0  0  0  0  0  0  0
   10.9287  -14.4577   18.6399 C   0  0  0  0  0  0  0  0  0  0  0  0
   11.9276  -14.6969   17.5167 C   0  0  2  0  0  0  0  0  0  0  0  0
   11.4104  -15.7503   16.6573 N   0  0  0  0  0  0  0  0  0  0  0  0
   13.2535  -15.0835   18.0452 C   0  0  0  0  0  0  0  0  0  0  0  0
   13.4586  -16.2883   18.3311 O   0  0  0  0  0  0  0  0  0  0  0  0
    6.7213  -12.5164   16.4671 N   0  0  0  0  0  0  0  0  0  0  0  0
   19.2188  -13.7944   17.7845 C   0  0  0  0  0  0  0  0  0  0  0  0
   18.3091  -13.7329   16.7045 O   0  0  0  0  0  0  0  0  0  0  0  0
   18.7509  -13.7843   15.5115 C   0  0  0  0  0  0  0  0  0  0  0  0
   16.8393  -13.6083   16.9680 C   0  0  0  0  0  0  0  0  0  0  0  0
   16.6249  -13.6439   18.4545 C   0  0  2  0  0  0  0  0  0  0  0  0
   15.5829  -14.6400   18.8924 N   0  0  0  0  0  0  0  0  0  0  0  0
   14.3270  -14.1800   18.2565 C   0  0  0  0  0  0  0  0  0  0  0  0
   15.4362  -14.6383   20.3563 O   0  0  0  0  0  0  0  0  0  0  0  0
   15.0135  -13.6025   20.9176 N   0  0  0  0  0  0  0  0  0  0  0  0
   12.1219  -17.9046   24.0829 C   0  0  0  0  0  0  0  0  0  0  0  0
   13.0029  -17.2709   24.9756 O   0  0  0  0  0  0  0  0  0  0  0  0
   12.7471  -17.3771   26.2193 C   0  0  0  0  0  0  0  0  0  0  0  0
   14.1912  -16.5013   24.5327 C   0  0  0  0  0  0  0  0  0  0  0  0
   14.3370  -16.5261   23.0229 C   0  0  1  0  0  0  0  0  0  0  0  0
   15.5286  -15.6855   22.5872 N   0  0  0  0  0  0  0  0  0  0  0  0
   15.7485  -15.7539   21.1787 C   0  0  0  0  0  0  0  0  0  0  0  0
   16.7450  -16.0580   23.3703 O   0  0  0  0  0  0  0  0  0  0  0  0
   17.7229  -16.6696   22.8780 O   0  0  0  0  0  0  0  0  0  0  0  0
  2  1  1  0
  3  2  2  0
  4  2  1  0
  5  6  1  0
  5  4  1  0
  7  6  1  0
  8  7  1  0
  8  9  1  6
 10 11  2  0
 10  8  1  0
 13 12  1  0
 13 15  1  0
 14 13  2  0
 16 15  1  0
 17 16  1  6
 17 18  1  0
 18 10  1  0
 19 17  1  0
 19 27  1  0
 20 19  2  0
 22 21  1  0
 22 23  2  0
 24 22  1  0
 25 24  1  0
 26 27  1  0
 26 25  1  6
 28 26  1  0
 29 28  2  0
 30 28  1  0
M  END
$$$$
