RQQ.pdb
     RDKit          3D

 30 29  0  0  1  0  0  0  0  0999 V2000
    8.8082  -19.5791   16.5118 N   0  0  0  0  0  0  0  0  0  0  0  0
    7.4240  -19.6185   16.2948 C   0  0  0  0  0  0  0  0  0  0  0  0
    6.9311  -20.1462   15.2406 N   0  0  0  0  0  0  0  0  0  0  0  0
    6.5353  -19.0658   17.2576 N   0  0  0  0  0  0  0  0  0  0  0  0
    6.8818  -17.9043   18.0197 C   0  0  0  0  0  0  0  0  0  0  0  0
    8.2293  -18.0934   18.6580 C   0  0  0  0  0  0  0  0  0  0  0  0
    8.6005  -16.8642   19.4244 C   0  0  0  0  0  0  0  0  0  0  0  0
    8.8430  -17.1623   20.8971 C   0  0  2  0  0  0  0  0  0  0  0  0
    7.6973  -17.8950   21.4131 N   0  0  0  0  0  0  0  0  0  0  0  0
    9.0389  -15.9203   21.6754 C   0  0  0  0  0  0  0  0  0  0  0  0
    9.9879  -15.1598   21.3649 O   0  0  0  0  0  0  0  0  0  0  0  0
    5.9139  -20.1779   15.0242 N   0  0  0  0  0  0  0  0  0  0  0  0
    4.9701  -13.4477   25.5768 C   0  0  0  0  0  0  0  0  0  0  0  0
    5.9787  -12.4644   25.6939 O   0  0  0  0  0  0  0  0  0  0  0  0
    5.7625  -11.4284   26.4018 C   0  0  0  0  0  0  0  0  0  0  0  0
    7.2884  -12.6456   24.9887 C   0  0  0  0  0  0  0  0  0  0  0  0
    7.2307  -13.9330   24.2165 C   0  0  2  0  0  0  0  0  0  0  0  0
    8.5141  -14.2689   23.5025 N   0  0  0  0  0  0  0  0  0  0  0  0
    8.2214  -15.5186   22.7634 C   0  0  0  0  0  0  0  0  0  0  0  0
    9.6060  -14.4954   24.4621 O   0  0  0  0  0  0  0  0  0  0  0  0
   10.0525  -13.5200   25.1071 N   0  0  0  0  0  0  0  0  0  0  0  0
    9.8658  -17.0204   30.3915 C   0  0  0  0  0  0  0  0  0  0  0  0
   10.1927  -15.8880   29.6263 O   0  0  0  0  0  0  0  0  0  0  0  0
    9.7643  -14.7621   30.0413 C   0  0  0  0  0  0  0  0  0  0  0  0
   10.9989  -15.9548   28.3830 C   0  0  0  0  0  0  0  0  0  0  0  0
   10.1301  -15.7974   27.1494 C   0  0  2  0  0  0  0  0  0  0  0  0
   10.9566  -15.9891   25.8857 N   0  0  0  0  0  0  0  0  0  0  0  0
   10.1891  -15.7684   24.7028 C   0  0  0  0  0  0  0  0  0  0  0  0
   11.6174  -17.3289   25.8918 O   0  0  0  0  0  0  0  0  0  0  0  0
   12.7862  -17.5206   26.3039 O   0  0  0  0  0  0  0  0  0  0  0  0
  2  1  1  0
  3  2  2  0
  4  2  1  0
  5  6  1  0
  5  4  1  0
  7  6  1  0
  8  7  1  0
  8  9  1  1
 10 11  2  0
 10  8  1  0
 13 12  1  0
 13 15  1  0
 14 13  2  0
 16 15  1  0
 17 16  1  6
 17 18  1  0
 18 10  1  0
 19 17  1  0
 19 27  1  0
 20 19  2  0
 22 21  1  0
 22 23  2  0
 24 22  1  0
 25 24  1  0
 26 27  1  0
 26 25  1  1
 28 26  1  0
 29 28  2  0
 30 28  1  0
M  END
$$$$
