RQQ.pdb
     RDKit          3D

 30 29  0  0  1  0  0  0  0  0999 V2000
    7.5636  -12.6475   17.2984 N   0  0  0  0  0  0  0  0  0  0  0  0
    8.2518  -13.8514   17.5031 C   0  0  0  0  0  0  0  0  0  0  0  0
    8.1785  -14.8103   16.6618 N   0  0  0  0  0  0  0  0  0  0  0  0
    9.0535  -14.0257   18.6645 N   0  0  0  0  0  0  0  0  0  0  0  0
    8.5042  -13.9050   19.9812 C   0  0  0  0  0  0  0  0  0  0  0  0
    7.0445  -14.2625   19.9622 C   0  0  0  0  0  0  0  0  0  0  0  0
    6.6770  -14.9473   21.2398 C   0  0  0  0  0  0  0  0  0  0  0  0
    7.7189  -15.9761   21.6552 C   0  0  2  0  0  0  0  0  0  0  0  0
    7.5746  -17.1467   20.8040 N   0  0  0  0  0  0  0  0  0  0  0  0
    7.5621  -16.3624   23.0740 C   0  0  0  0  0  0  0  0  0  0  0  0
    7.4801  -15.4558   23.9382 O   0  0  0  0  0  0  0  0  0  0  0  0
    8.7351  -15.6870   16.7257 N   0  0  0  0  0  0  0  0  0  0  0  0
    6.6034  -22.1085   25.1374 C   0  0  0  0  0  0  0  0  0  0  0  0
    6.6166  -21.4495   26.3877 O   0  0  0  0  0  0  0  0  0  0  0  0
    6.3709  -22.1126   27.4465 C   0  0  0  0  0  0  0  0  0  0  0  0
    6.9179  -19.9834   26.4597 C   0  0  0  0  0  0  0  0  0  0  0  0
    7.0552  -19.4636   25.0569 C   0  0  1  0  0  0  0  0  0  0  0  0
    7.3648  -17.9910   24.9842 N   0  0  0  0  0  0  0  0  0  0  0  0
    7.4968  -17.7018   23.5377 C   0  0  0  0  0  0  0  0  0  0  0  0
    8.6263  -17.6842   25.6762 O   0  0  0  0  0  0  0  0  0  0  0  0
    9.7067  -17.9753   25.1154 N   0  0  0  0  0  0  0  0  0  0  0  0
    9.4440  -12.5902   29.0253 C   0  0  0  0  0  0  0  0  0  0  0  0
    9.2490  -12.8464   27.6574 O   0  0  0  0  0  0  0  0  0  0  0  0
    8.9101  -11.8614   26.9237 C   0  0  0  0  0  0  0  0  0  0  0  0
    9.4195  -14.1898   27.0519 C   0  0  0  0  0  0  0  0  0  0  0  0
    9.8212  -15.2196   28.0908 C   0  0  2  0  0  0  0  0  0  0  0  0
    9.9413  -16.5985   27.4578 N   0  0  0  0  0  0  0  0  0  0  0  0
    8.6914  -17.0704   26.9559 C   0  0  0  0  0  0  0  0  0  0  0  0
   10.5683  -17.5597   28.4143 O   0  0  0  0  0  0  0  0  0  0  0  0
   10.0027  -18.6056   28.8127 O   0  0  0  0  0  0  0  0  0  0  0  0
  2  1  1  0
  3  2  2  0
  4  2  1  0
  5  6  1  0
  5  4  1  0
  7  6  1  0
  8  7  1  0
  8  9  1  6
 10 11  2  0
 10  8  1  0
 13 12  1  0
 13 15  1  0
 14 13  2  0
 16 15  1  0
 17 16  1  6
 17 18  1  0
 18 10  1  0
 19 17  1  0
 19 27  1  0
 20 19  2  0
 22 21  1  0
 22 23  2  0
 24 22  1  0
 25 24  1  0
 26 27  1  0
 26 25  1  6
 28 26  1  0
 29 28  2  0
 30 28  1  0
M  END
$$$$
