RQQ.pdb
     RDKit          3D

 30 29  0  0  1  0  0  0  0  0999 V2000
    9.0410  -14.5898   18.2425 N   0  0  0  0  0  0  0  0  0  0  0  0
    9.0243  -13.2822   18.7471 C   0  0  0  0  0  0  0  0  0  0  0  0
    9.9876  -12.4722   18.5267 N   0  0  0  0  0  0  0  0  0  0  0  0
    7.9201  -12.8308   19.5211 N   0  0  0  0  0  0  0  0  0  0  0  0
    7.3253  -13.6525   20.5316 C   0  0  0  0  0  0  0  0  0  0  0  0
    6.3959  -14.6501   19.8993 C   0  0  0  0  0  0  0  0  0  0  0  0
    5.7996  -15.5234   20.9566 C   0  0  0  0  0  0  0  0  0  0  0  0
    6.7142  -16.6847   21.3193 C   0  0  2  0  0  0  0  0  0  0  0  0
    6.3072  -17.8492   20.5485 N   0  0  0  0  0  0  0  0  0  0  0  0
    6.6526  -16.9907   22.7648 C   0  0  0  0  0  0  0  0  0  0  0  0
    6.0204  -16.2106   23.5179 O   0  0  0  0  0  0  0  0  0  0  0  0
   10.0705  -11.5310   18.9623 N   0  0  0  0  0  0  0  0  0  0  0  0
    6.7906  -22.1821   25.8263 C   0  0  0  0  0  0  0  0  0  0  0  0
    7.1838  -21.3544   26.9025 O   0  0  0  0  0  0  0  0  0  0  0  0
    7.3029  -21.8567   28.0664 C   0  0  0  0  0  0  0  0  0  0  0  0
    7.4565  -19.8995   26.6690 C   0  0  0  0  0  0  0  0  0  0  0  0
    7.2673  -19.6161   25.2059 C   0  0  1  0  0  0  0  0  0  0  0  0
    7.4588  -18.1673   24.8399 N   0  0  0  0  0  0  0  0  0  0  0  0
    7.2645  -18.1175   23.3726 C   0  0  0  0  0  0  0  0  0  0  0  0
    8.8151  -17.7129   25.1840 O   0  0  0  0  0  0  0  0  0  0  0  0
    9.7584  -18.5334   25.1233 N   0  0  0  0  0  0  0  0  0  0  0  0
   10.7031  -14.1481   31.1517 C   0  0  0  0  0  0  0  0  0  0  0  0
   10.1936  -14.1539   29.8421 O   0  0  0  0  0  0  0  0  0  0  0  0
    9.3240  -13.2688   29.5524 C   0  0  0  0  0  0  0  0  0  0  0  0
   10.6214  -15.1297   28.8100 C   0  0  0  0  0  0  0  0  0  0  0  0
    9.5847  -15.2647   27.7107 C   0  0  1  0  0  0  0  0  0  0  0  0
   10.1070  -16.1517   26.5896 N   0  0  0  0  0  0  0  0  0  0  0  0
    9.1208  -16.3845   25.5845 C   0  0  0  0  0  0  0  0  0  0  0  0
   10.6628  -17.4224   27.1446 O   0  0  0  0  0  0  0  0  0  0  0  0
   11.8823  -17.7133   27.1163 O   0  0  0  0  0  0  0  0  0  0  0  0
  2  1  1  0
  3  2  2  0
  4  2  1  0
  5  6  1  0
  5  4  1  0
  7  6  1  0
  8  7  1  0
  8  9  1  6
 10 11  2  0
 10  8  1  0
 13 12  1  0
 13 15  1  0
 14 13  2  0
 16 15  1  0
 17 16  1  1
 17 18  1  0
 18 10  1  0
 19 17  1  0
 19 27  1  0
 20 19  2  0
 22 21  1  0
 22 23  2  0
 24 22  1  0
 25 24  1  0
 26 27  1  0
 26 25  1  6
 28 26  1  0
 29 28  2  0
 30 28  1  0
M  END
$$$$
