RQQ.pdb
     RDKit          3D

 30 29  0  0  1  0  0  0  0  0999 V2000
    7.7780  -13.1094   21.2393 N   0  0  0  0  0  0  0  0  0  0  0  0
    8.0467  -12.1604   20.2434 C   0  0  0  0  0  0  0  0  0  0  0  0
    8.4518  -10.9848   20.5374 N   0  0  0  0  0  0  0  0  0  0  0  0
    7.8717  -12.4962   18.8727 N   0  0  0  0  0  0  0  0  0  0  0  0
    7.1820  -13.6855   18.4731 C   0  0  0  0  0  0  0  0  0  0  0  0
    8.0660  -14.5172   17.5868 C   0  0  0  0  0  0  0  0  0  0  0  0
    9.3555  -14.8038   18.2877 C   0  0  0  0  0  0  0  0  0  0  0  0
   10.3277  -15.5695   17.4018 C   0  0  2  0  0  0  0  0  0  0  0  0
    9.7662  -16.8836   17.1306 N   0  0  0  0  0  0  0  0  0  0  0  0
   11.6511  -15.7105   18.0466 C   0  0  0  0  0  0  0  0  0  0  0  0
   11.9869  -16.8358   18.4897 O   0  0  0  0  0  0  0  0  0  0  0  0
    8.6022  -10.2274   19.8401 N   0  0  0  0  0  0  0  0  0  0  0  0
   16.4496  -14.5393   16.7500 C   0  0  0  0  0  0  0  0  0  0  0  0
   16.9314  -14.3808   18.0692 O   0  0  0  0  0  0  0  0  0  0  0  0
   18.0782  -14.8415   18.3755 C   0  0  0  0  0  0  0  0  0  0  0  0
   16.0952  -13.6759   19.0936 C   0  0  0  0  0  0  0  0  0  0  0  0
   14.6810  -13.6240   18.5891 C   0  0  2  0  0  0  0  0  0  0  0  0
   13.9185  -14.9076   18.7913 N   0  0  0  0  0  0  0  0  0  0  0  0
   12.5830  -14.6522   18.2042 C   0  0  0  0  0  0  0  0  0  0  0  0
   13.7876  -15.2215   20.2226 O   0  0  0  0  0  0  0  0  0  0  0  0
   13.3344  -14.3446   20.9922 N   0  0  0  0  0  0  0  0  0  0  0  0
   13.0436  -20.6778   24.2674 C   0  0  0  0  0  0  0  0  0  0  0  0
   12.8935  -19.2829   24.3481 O   0  0  0  0  0  0  0  0  0  0  0  0
   11.7456  -18.8395   24.6787 C   0  0  0  0  0  0  0  0  0  0  0  0
   13.9967  -18.3313   24.0690 C   0  0  0  0  0  0  0  0  0  0  0  0
   14.2025  -18.1426   22.5779 C   0  0  2  0  0  0  0  0  0  0  0  0
   14.0373  -16.6785   22.1967 N   0  0  0  0  0  0  0  0  0  0  0  0
   14.1483  -16.4737   20.7886 C   0  0  0  0  0  0  0  0  0  0  0  0
   14.9893  -15.8263   22.9710 O   0  0  0  0  0  0  0  0  0  0  0  0
   16.1241  -15.4997   22.5489 O   0  0  0  0  0  0  0  0  0  0  0  0
  2  1  1  0
  3  2  2  0
  4  2  1  0
  5  6  1  0
  5  4  1  0
  7  6  1  0
  8  7  1  0
  8  9  1  1
 10 11  2  0
 10  8  1  0
 13 12  1  0
 13 15  1  0
 14 13  2  0
 16 15  1  0
 17 16  1  6
 17 18  1  0
 18 10  1  0
 19 17  1  0
 19 27  1  0
 20 19  2  0
 22 21  1  0
 22 23  2  0
 24 22  1  0
 25 24  1  0
 26 27  1  0
 26 25  1  6
 28 26  1  0
 29 28  2  0
 30 28  1  0
M  END
$$$$
