RQQ.pdb
     RDKit          3D

 30 29  0  0  1  0  0  0  0  0999 V2000
    7.8268  -12.3045   19.1606 N   0  0  0  0  0  0  0  0  0  0  0  0
    9.1553  -12.7093   18.9710 C   0  0  0  0  0  0  0  0  0  0  0  0
   10.1235  -11.8818   19.0737 N   0  0  0  0  0  0  0  0  0  0  0  0
    9.4499  -14.0649   18.6586 N   0  0  0  0  0  0  0  0  0  0  0  0
    8.4137  -15.0366   18.4797 C   0  0  0  0  0  0  0  0  0  0  0  0
    8.0612  -15.6592   19.8015 C   0  0  0  0  0  0  0  0  0  0  0  0
    8.9629  -16.8223   20.0668 C   0  0  0  0  0  0  0  0  0  0  0  0
    8.6064  -17.5356   21.3632 C   0  0  2  0  0  0  0  0  0  0  0  0
    7.1751  -17.7949   21.3673 N   0  0  0  0  0  0  0  0  0  0  0  0
    8.9752  -16.7266   22.5449 C   0  0  0  0  0  0  0  0  0  0  0  0
   10.1917  -16.5267   22.7805 O   0  0  0  0  0  0  0  0  0  0  0  0
   11.1202  -12.1245   18.8999 N   0  0  0  0  0  0  0  0  0  0  0  0
    5.1913  -13.2177   25.9675 C   0  0  0  0  0  0  0  0  0  0  0  0
    6.4219  -12.9421   26.6057 O   0  0  0  0  0  0  0  0  0  0  0  0
    6.5078  -11.9464   27.3946 C   0  0  0  0  0  0  0  0  0  0  0  0
    7.6111  -13.8179   26.3520 C   0  0  0  0  0  0  0  0  0  0  0  0
    7.3331  -14.6425   25.1274 C   0  0  2  0  0  0  0  0  0  0  0  0
    8.5059  -15.4750   24.6789 N   0  0  0  0  0  0  0  0  0  0  0  0
    8.0419  -16.1512   23.4456 C   0  0  0  0  0  0  0  0  0  0  0  0
    8.8614  -16.4748   25.6979 O   0  0  0  0  0  0  0  0  0  0  0  0
    8.4925  -17.6595   25.5333 N   0  0  0  0  0  0  0  0  0  0  0  0
   14.3993  -19.5512   27.8617 C   0  0  0  0  0  0  0  0  0  0  0  0
   13.3178  -19.3222   26.9942 O   0  0  0  0  0  0  0  0  0  0  0  0
   13.5639  -19.3265   25.7440 C   0  0  0  0  0  0  0  0  0  0  0  0
   11.9336  -19.0814   27.4701 C   0  0  0  0  0  0  0  0  0  0  0  0
   11.2670  -17.9615   26.6936 C   0  0  2  0  0  0  0  0  0  0  0  0
   10.2777  -17.2144   27.5765 N   0  0  0  0  0  0  0  0  0  0  0  0
    9.6064  -16.1723   26.8692 C   0  0  0  0  0  0  0  0  0  0  0  0
   10.9527  -16.7176   28.8132 O   0  0  0  0  0  0  0  0  0  0  0  0
   11.1752  -15.5043   29.0387 O   0  0  0  0  0  0  0  0  0  0  0  0
  2  1  1  0
  3  2  2  0
  4  2  1  0
  5  6  1  0
  5  4  1  0
  7  6  1  0
  8  7  1  0
  8  9  1  6
 10 11  2  0
 10  8  1  0
 13 12  1  0
 13 15  1  0
 14 13  2  0
 16 15  1  0
 17 16  1  6
 17 18  1  0
 18 10  1  0
 19 17  1  0
 19 27  1  0
 20 19  2  0
 22 21  1  0
 22 23  2  0
 24 22  1  0
 25 24  1  0
 26 27  1  0
 26 25  1  6
 28 26  1  0
 29 28  2  0
 30 28  1  0
M  END
$$$$
