RQQ.pdb
     RDKit          3D

 30 29  0  0  1  0  0  0  0  0999 V2000
    6.3591  -18.1357   17.4532 N   0  0  0  0  0  0  0  0  0  0  0  0
    7.1708  -18.2176   16.3134 C   0  0  0  0  0  0  0  0  0  0  0  0
    7.1644  -19.2538   15.5659 N   0  0  0  0  0  0  0  0  0  0  0  0
    8.0239  -17.1341   15.9663 N   0  0  0  0  0  0  0  0  0  0  0  0
    8.6256  -16.3025   16.9645 C   0  0  0  0  0  0  0  0  0  0  0  0
    8.3774  -14.8554   16.6434 C   0  0  0  0  0  0  0  0  0  0  0  0
    8.9120  -13.9963   17.7445 C   0  0  0  0  0  0  0  0  0  0  0  0
    7.9483  -13.9106   18.9194 C   0  0  2  0  0  0  0  0  0  0  0  0
    7.2370  -12.6443   18.8399 N   0  0  0  0  0  0  0  0  0  0  0  0
    8.6607  -14.0080   20.2116 C   0  0  0  0  0  0  0  0  0  0  0  0
    9.3080  -13.0122   20.6176 O   0  0  0  0  0  0  0  0  0  0  0  0
    7.7165  -19.3446   14.6887 N   0  0  0  0  0  0  0  0  0  0  0  0
    6.7283  -17.0332   24.9786 C   0  0  0  0  0  0  0  0  0  0  0  0
    8.0077  -16.7498   25.5083 O   0  0  0  0  0  0  0  0  0  0  0  0
    8.2689  -17.0647   26.7140 C   0  0  0  0  0  0  0  0  0  0  0  0
    9.0429  -16.0845   24.6532 C   0  0  0  0  0  0  0  0  0  0  0  0
    8.4500  -15.8557   23.2920 C   0  0  1  0  0  0  0  0  0  0  0  0
    9.3783  -15.1503   22.3378 N   0  0  0  0  0  0  0  0  0  0  0  0
    8.6672  -15.1609   21.0387 C   0  0  0  0  0  0  0  0  0  0  0  0
   10.6558  -15.8700   22.2185 O   0  0  0  0  0  0  0  0  0  0  0  0
   10.6348  -17.0961   21.9679 N   0  0  0  0  0  0  0  0  0  0  0  0
   16.3144  -13.4268   20.9901 C   0  0  0  0  0  0  0  0  0  0  0  0
   15.2392  -13.7149   20.1324 O   0  0  0  0  0  0  0  0  0  0  0  0
   15.2375  -13.1482   18.9912 C   0  0  0  0  0  0  0  0  0  0  0  0
   14.1331  -14.6328   20.4989 C   0  0  0  0  0  0  0  0  0  0  0  0
   14.3240  -15.2030   21.8917 C   0  0  2  0  0  0  0  0  0  0  0  0
   13.1153  -16.0330   22.2997 N   0  0  0  0  0  0  0  0  0  0  0  0
   11.9246  -15.2494   22.3718 C   0  0  0  0  0  0  0  0  0  0  0  0
   13.3902  -16.7662   23.5720 O   0  0  0  0  0  0  0  0  0  0  0  0
   12.7023  -16.6278   24.6113 O   0  0  0  0  0  0  0  0  0  0  0  0
  2  1  1  0
  3  2  2  0
  4  2  1  0
  5  6  1  0
  5  4  1  0
  7  6  1  0
  8  7  1  0
  8  9  1  1
 10 11  2  0
 10  8  1  0
 13 12  1  0
 13 15  1  0
 14 13  2  0
 16 15  1  0
 17 16  1  1
 17 18  1  0
 18 10  1  0
 19 17  1  0
 19 27  1  0
 20 19  2  0
 22 21  1  0
 22 23  2  0
 24 22  1  0
 25 24  1  0
 26 27  1  0
 26 25  1  6
 28 26  1  0
 29 28  2  0
 30 28  1  0
M  END
$$$$
