RQQ.pdb
     RDKit          3D

 30 29  0  0  1  0  0  0  0  0999 V2000
    9.9122  -15.3111   15.9077 N   0  0  0  0  0  0  0  0  0  0  0  0
   10.1407  -16.5632   15.3207 C   0  0  0  0  0  0  0  0  0  0  0  0
   10.8408  -16.6817   14.2585 N   0  0  0  0  0  0  0  0  0  0  0  0
    9.5908  -17.7364   15.9068 N   0  0  0  0  0  0  0  0  0  0  0  0
    8.6581  -17.6678   16.9910 C   0  0  0  0  0  0  0  0  0  0  0  0
    9.0830  -18.5985   18.0920 C   0  0  0  0  0  0  0  0  0  0  0  0
   10.0353  -17.8959   19.0060 C   0  0  0  0  0  0  0  0  0  0  0  0
    9.5875  -17.9659   20.4589 C   0  0  2  0  0  0  0  0  0  0  0  0
    8.3204  -18.6779   20.5161 N   0  0  0  0  0  0  0  0  0  0  0  0
    9.4337  -16.6162   21.0433 C   0  0  0  0  0  0  0  0  0  0  0  0
   10.4626  -15.9232   21.2343 O   0  0  0  0  0  0  0  0  0  0  0  0
   10.9288  -17.5628   13.7121 N   0  0  0  0  0  0  0  0  0  0  0  0
    8.7616  -12.6223   19.9794 C   0  0  0  0  0  0  0  0  0  0  0  0
    7.9297  -13.4375   19.1787 O   0  0  0  0  0  0  0  0  0  0  0  0
    8.1116  -13.4696   17.9189 C   0  0  0  0  0  0  0  0  0  0  0  0
    6.8451  -14.2541   19.8129 C   0  0  0  0  0  0  0  0  0  0  0  0
    6.9119  -14.0482   21.2995 C   0  0  2  0  0  0  0  0  0  0  0  0
    8.1317  -14.6568   21.9410 N   0  0  0  0  0  0  0  0  0  0  0  0
    8.1909  -16.0380   21.4097 C   0  0  0  0  0  0  0  0  0  0  0  0
    7.9963  -14.6860   23.4057 O   0  0  0  0  0  0  0  0  0  0  0  0
    6.9262  -14.2889   23.9193 N   0  0  0  0  0  0  0  0  0  0  0  0
    6.8045  -19.7000   24.9144 C   0  0  0  0  0  0  0  0  0  0  0  0
    6.7956  -19.0954   26.1829 O   0  0  0  0  0  0  0  0  0  0  0  0
    6.3123  -19.7736   27.1471 C   0  0  0  0  0  0  0  0  0  0  0  0
    7.3163  -17.7291   26.4334 C   0  0  0  0  0  0  0  0  0  0  0  0
    7.7841  -17.0698   25.1498 C   0  0  2  0  0  0  0  0  0  0  0  0
    8.6754  -15.8749   25.4569 N   0  0  0  0  0  0  0  0  0  0  0  0
    9.0182  -15.1434   24.2803 C   0  0  0  0  0  0  0  0  0  0  0  0
    9.8799  -16.3061   26.2283 O   0  0  0  0  0  0  0  0  0  0  0  0
    9.8305  -16.7233   27.4098 O   0  0  0  0  0  0  0  0  0  0  0  0
  2  1  1  0
  3  2  2  0
  4  2  1  0
  5  6  1  0
  5  4  1  0
  7  6  1  0
  8  7  1  0
  8  9  1  6
 10 11  2  0
 10  8  1  0
 13 12  1  0
 13 15  1  0
 14 13  2  0
 16 15  1  0
 17 16  1  6
 17 18  1  0
 18 10  1  0
 19 17  1  0
 19 27  1  0
 20 19  2  0
 22 21  1  0
 22 23  2  0
 24 22  1  0
 25 24  1  0
 26 27  1  0
 26 25  1  1
 28 26  1  0
 29 28  2  0
 30 28  1  0
M  END
$$$$
