RQQ.pdb
     RDKit          3D

 30 29  0  0  1  0  0  0  0  0999 V2000
   13.0337  -16.3079   11.0461 N   0  0  0  0  0  0  0  0  0  0  0  0
   13.7711  -17.4626   11.3416 C   0  0  0  0  0  0  0  0  0  0  0  0
   14.7914  -17.7954   10.6482 N   0  0  0  0  0  0  0  0  0  0  0  0
   13.3910  -18.2915   12.4328 N   0  0  0  0  0  0  0  0  0  0  0  0
   12.2802  -17.9627   13.2743 C   0  0  0  0  0  0  0  0  0  0  0  0
   12.5794  -16.7119   14.0522 C   0  0  0  0  0  0  0  0  0  0  0  0
   11.3776  -16.3146   14.8485 C   0  0  0  0  0  0  0  0  0  0  0  0
   11.4564  -16.8107   16.2852 C   0  0  2  0  0  0  0  0  0  0  0  0
   10.4042  -17.7937   16.4910 N   0  0  0  0  0  0  0  0  0  0  0  0
   11.3043  -15.7004   17.2500 C   0  0  0  0  0  0  0  0  0  0  0  0
   12.2402  -14.8720   17.3654 O   0  0  0  0  0  0  0  0  0  0  0  0
   15.3639  -18.6466   10.8228 N   0  0  0  0  0  0  0  0  0  0  0  0
    7.0815  -12.4630   18.5606 C   0  0  0  0  0  0  0  0  0  0  0  0
    7.5189  -12.2745   19.8914 O   0  0  0  0  0  0  0  0  0  0  0  0
    7.1539  -11.2339   20.5279 C   0  0  0  0  0  0  0  0  0  0  0  0
    8.4041  -13.2939   20.5416 C   0  0  0  0  0  0  0  0  0  0  0  0
    8.6853  -14.3775   19.5398 C   0  0  1  0  0  0  0  0  0  0  0  0
   10.0759  -14.3227   18.9627 N   0  0  0  0  0  0  0  0  0  0  0  0
   10.1620  -15.4993   18.0673 C   0  0  0  0  0  0  0  0  0  0  0  0
   11.0899  -14.4223   20.0240 O   0  0  0  0  0  0  0  0  0  0  0  0
   11.2670  -13.4416   20.7812 N   0  0  0  0  0  0  0  0  0  0  0  0
   12.3461  -16.6940   25.2384 C   0  0  0  0  0  0  0  0  0  0  0  0
   11.4977  -17.3646   24.3410 O   0  0  0  0  0  0  0  0  0  0  0  0
   10.9507  -18.4399   24.7509 C   0  0  0  0  0  0  0  0  0  0  0  0
   11.2228  -16.8773   22.9672 C   0  0  0  0  0  0  0  0  0  0  0  0
   11.9373  -15.5681   22.6897 C   0  0  1  0  0  0  0  0  0  0  0  0
   12.7290  -15.6559   21.3929 N   0  0  0  0  0  0  0  0  0  0  0  0
   11.8875  -15.5775   20.2428 C   0  0  0  0  0  0  0  0  0  0  0  0
   13.5870  -16.8789   21.3862 O   0  0  0  0  0  0  0  0  0  0  0  0
   14.5152  -17.0758   22.2061 O   0  0  0  0  0  0  0  0  0  0  0  0
  2  1  1  0
  3  2  2  0
  4  2  1  0
  5  6  1  0
  5  4  1  0
  7  6  1  0
  8  7  1  0
  8  9  1  1
 10 11  2  0
 10  8  1  0
 13 12  1  0
 13 15  1  0
 14 13  2  0
 16 15  1  0
 17 16  1  6
 17 18  1  0
 18 10  1  0
 19 17  1  0
 19 27  1  0
 20 19  2  0
 22 21  1  0
 22 23  2  0
 24 22  1  0
 25 24  1  0
 26 27  1  0
 26 25  1  6
 28 26  1  0
 29 28  2  0
 30 28  1  0
M  END
$$$$
