RQQ.pdb
     RDKit          3D

 30 29  0  0  1  0  0  0  0  0999 V2000
    8.6643  -14.1332   14.8178 N   0  0  0  0  0  0  0  0  0  0  0  0
    7.5522  -13.8352   15.6173 C   0  0  0  0  0  0  0  0  0  0  0  0
    6.5403  -13.2149   15.1441 N   0  0  0  0  0  0  0  0  0  0  0  0
    7.5323  -14.2249   16.9847 N   0  0  0  0  0  0  0  0  0  0  0  0
    8.6579  -14.8598   17.6011 C   0  0  0  0  0  0  0  0  0  0  0  0
    9.6070  -13.8207   18.1286 C   0  0  0  0  0  0  0  0  0  0  0  0
    9.4846  -13.7357   19.6166 C   0  0  0  0  0  0  0  0  0  0  0  0
   10.2535  -14.8475   20.3160 C   0  0  2  0  0  0  0  0  0  0  0  0
   10.3456  -15.9829   19.4116 N   0  0  0  0  0  0  0  0  0  0  0  0
    9.5895  -15.2568   21.5724 C   0  0  0  0  0  0  0  0  0  0  0  0
    9.4083  -14.3935   22.4653 O   0  0  0  0  0  0  0  0  0  0  0  0
    5.6573  -13.0514   15.6695 N   0  0  0  0  0  0  0  0  0  0  0  0
    6.8252  -20.6959   22.5096 C   0  0  0  0  0  0  0  0  0  0  0  0
    6.7010  -20.1907   23.8238 O   0  0  0  0  0  0  0  0  0  0  0  0
    6.1239  -20.8964   24.7128 C   0  0  0  0  0  0  0  0  0  0  0  0
    7.2456  -18.8361   24.1614 C   0  0  0  0  0  0  0  0  0  0  0  0
    7.8607  -18.2556   22.9198 C   0  0  1  0  0  0  0  0  0  0  0  0
    8.4339  -16.8762   23.1160 N   0  0  0  0  0  0  0  0  0  0  0  0
    9.1354  -16.5727   21.8474 C   0  0  0  0  0  0  0  0  0  0  0  0
    9.3879  -16.8577   24.2358 O   0  0  0  0  0  0  0  0  0  0  0  0
   10.4929  -17.4284   24.0947 N   0  0  0  0  0  0  0  0  0  0  0  0
    9.7864  -13.2595   29.5996 C   0  0  0  0  0  0  0  0  0  0  0  0
   10.7387  -14.2868   29.7113 O   0  0  0  0  0  0  0  0  0  0  0  0
   11.5138  -14.2541   30.7221 C   0  0  0  0  0  0  0  0  0  0  0  0
   10.8708  -15.3812   28.7187 C   0  0  0  0  0  0  0  0  0  0  0  0
    9.8614  -15.2363   27.5956 C   0  0  1  0  0  0  0  0  0  0  0  0
   10.0810  -16.3085   26.5380 N   0  0  0  0  0  0  0  0  0  0  0  0
    9.1268  -16.2237   25.4801 C   0  0  0  0  0  0  0  0  0  0  0  0
   10.1130  -17.6635   27.1664 O   0  0  0  0  0  0  0  0  0  0  0  0
    9.0954  -18.3817   27.3113 O   0  0  0  0  0  0  0  0  0  0  0  0
  2  1  1  0
  3  2  2  0
  4  2  1  0
  5  6  1  0
  5  4  1  0
  7  6  1  0
  8  7  1  0
  8  9  1  6
 10 11  2  0
 10  8  1  0
 13 12  1  0
 13 15  1  0
 14 13  2  0
 16 15  1  0
 17 16  1  6
 17 18  1  0
 18 10  1  0
 19 17  1  0
 19 27  1  0
 20 19  2  0
 22 21  1  0
 22 23  2  0
 24 22  1  0
 25 24  1  0
 26 27  1  0
 26 25  1  6
 28 26  1  0
 29 28  2  0
 30 28  1  0
M  END
$$$$
