RQQ.pdb
     RDKit          3D

 30 29  0  0  1  0  0  0  0  0999 V2000
    5.0330  -21.4034   21.0413 N   0  0  0  0  0  0  0  0  0  0  0  0
    6.3551  -21.5222   21.4914 C   0  0  0  0  0  0  0  0  0  0  0  0
    6.8384  -22.6513   21.8440 N   0  0  0  0  0  0  0  0  0  0  0  0
    7.1901  -20.3734   21.5622 N   0  0  0  0  0  0  0  0  0  0  0  0
    6.9316  -19.2073   20.7726 C   0  0  0  0  0  0  0  0  0  0  0  0
    8.0868  -18.2516   20.8766 C   0  0  0  0  0  0  0  0  0  0  0  0
    7.7744  -17.1914   21.8838 C   0  0  0  0  0  0  0  0  0  0  0  0
    8.3288  -15.8346   21.4737 C   0  0  2  0  0  0  0  0  0  0  0  0
    9.4320  -16.0482   20.5501 N   0  0  0  0  0  0  0  0  0  0  0  0
    8.7955  -15.0640   22.6464 C   0  0  0  0  0  0  0  0  0  0  0  0
   10.0200  -15.0719   22.9221 O   0  0  0  0  0  0  0  0  0  0  0  0
    7.8193  -22.7936   22.1605 N   0  0  0  0  0  0  0  0  0  0  0  0
    5.8960  -10.7031   26.1337 C   0  0  0  0  0  0  0  0  0  0  0  0
    5.6019  -12.0189   26.5578 O   0  0  0  0  0  0  0  0  0  0  0  0
    4.6170  -12.2183   27.3396 C   0  0  0  0  0  0  0  0  0  0  0  0
    6.4457  -13.1647   26.0878 C   0  0  0  0  0  0  0  0  0  0  0  0
    7.4441  -12.6361   25.0975 C   0  0  1  0  0  0  0  0  0  0  0  0
    8.4947  -13.6408   24.7017 N   0  0  0  0  0  0  0  0  0  0  0  0
    7.9492  -14.3053   23.4958 C   0  0  0  0  0  0  0  0  0  0  0  0
    8.7050  -14.6301   25.7701 O   0  0  0  0  0  0  0  0  0  0  0  0
    9.2429  -14.2583   26.8374 N   0  0  0  0  0  0  0  0  0  0  0  0
    6.8390  -20.7319   25.7481 C   0  0  0  0  0  0  0  0  0  0  0  0
    6.6930  -19.6419   24.8733 O   0  0  0  0  0  0  0  0  0  0  0  0
    6.0885  -19.8565   23.7724 C   0  0  0  0  0  0  0  0  0  0  0  0
    7.2050  -18.2835   25.1782 C   0  0  0  0  0  0  0  0  0  0  0  0
    7.8781  -18.2364   26.5369 C   0  0  1  0  0  0  0  0  0  0  0  0
    8.5354  -16.8821   26.7610 N   0  0  0  0  0  0  0  0  0  0  0  0
    8.3295  -15.9960   25.6613 C   0  0  0  0  0  0  0  0  0  0  0  0
    9.9827  -17.0518   27.0901 O   0  0  0  0  0  0  0  0  0  0  0  0
   10.8978  -16.9849   26.2353 O   0  0  0  0  0  0  0  0  0  0  0  0
  2  1  1  0
  3  2  2  0
  4  2  1  0
  5  6  1  0
  5  4  1  0
  7  6  1  0
  8  7  1  0
  8  9  1  6
 10 11  2  0
 10  8  1  0
 13 12  1  0
 13 15  1  0
 14 13  2  0
 16 15  1  0
 17 16  1  6
 17 18  1  0
 18 10  1  0
 19 17  1  0
 19 27  1  0
 20 19  2  0
 22 21  1  0
 22 23  2  0
 24 22  1  0
 25 24  1  0
 26 27  1  0
 26 25  1  1
 28 26  1  0
 29 28  2  0
 30 28  1  0
M  END
$$$$
