RQQ.pdb
     RDKit          3D

 30 29  0  0  1  0  0  0  0  0999 V2000
    8.4143  -12.7140   20.2061 N   0  0  0  0  0  0  0  0  0  0  0  0
    8.2569  -13.1941   18.8988 C   0  0  0  0  0  0  0  0  0  0  0  0
    8.8086  -12.6103   17.9051 N   0  0  0  0  0  0  0  0  0  0  0  0
    7.4715  -14.3544   18.6551 N   0  0  0  0  0  0  0  0  0  0  0  0
    7.3202  -15.3797   19.6429 C   0  0  0  0  0  0  0  0  0  0  0  0
    6.1403  -15.0740   20.5222 C   0  0  0  0  0  0  0  0  0  0  0  0
    6.0010  -16.1363   21.5655 C   0  0  0  0  0  0  0  0  0  0  0  0
    7.3506  -16.5758   22.1150 C   0  0  2  0  0  0  0  0  0  0  0  0
    7.6700  -17.8821   21.5604 N   0  0  0  0  0  0  0  0  0  0  0  0
    7.3367  -16.6453   23.5921 C   0  0  0  0  0  0  0  0  0  0  0  0
    7.0569  -15.6074   24.2399 O   0  0  0  0  0  0  0  0  0  0  0  0
    8.7488  -12.9475   16.9227 N   0  0  0  0  0  0  0  0  0  0  0  0
    7.2892  -21.1679   28.0400 C   0  0  0  0  0  0  0  0  0  0  0  0
    6.4253  -21.1613   26.9213 O   0  0  0  0  0  0  0  0  0  0  0  0
    5.4922  -22.0244   26.8470 C   0  0  0  0  0  0  0  0  0  0  0  0
    6.6113  -20.1449   25.8360 C   0  0  0  0  0  0  0  0  0  0  0  0
    7.7382  -19.2348   26.2343 C   0  0  2  0  0  0  0  0  0  0  0  0
    7.5334  -17.8006   25.8208 N   0  0  0  0  0  0  0  0  0  0  0  0
    7.6205  -17.8157   24.3424 C   0  0  0  0  0  0  0  0  0  0  0  0
    8.5859  -16.9372   26.3784 O   0  0  0  0  0  0  0  0  0  0  0  0
    9.7145  -16.9378   25.8373 N   0  0  0  0  0  0  0  0  0  0  0  0
    7.2780  -11.9803   26.1158 C   0  0  0  0  0  0  0  0  0  0  0  0
    7.7764  -13.1806   26.6503 O   0  0  0  0  0  0  0  0  0  0  0  0
    8.3859  -13.9642   25.8515 C   0  0  0  0  0  0  0  0  0  0  0  0
    7.6222  -13.5589   28.0763 C   0  0  0  0  0  0  0  0  0  0  0  0
    8.9397  -14.0139   28.6751 C   0  0  2  0  0  0  0  0  0  0  0  0
    9.4559  -15.2505   27.9533 N   0  0  0  0  0  0  0  0  0  0  0  0
    8.3951  -16.0938   27.5058 C   0  0  0  0  0  0  0  0  0  0  0  0
   10.4402  -15.9811   28.8073 O   0  0  0  0  0  0  0  0  0  0  0  0
   10.2840  -17.1683   29.1798 O   0  0  0  0  0  0  0  0  0  0  0  0
  2  1  1  0
  3  2  2  0
  4  2  1  0
  5  6  1  0
  5  4  1  0
  7  6  1  0
  8  7  1  0
  8  9  1  6
 10 11  2  0
 10  8  1  0
 13 12  1  0
 13 15  1  0
 14 13  2  0
 16 15  1  0
 17 16  1  6
 17 18  1  0
 18 10  1  0
 19 17  1  0
 19 27  1  0
 20 19  2  0
 22 21  1  0
 22 23  2  0
 24 22  1  0
 25 24  1  0
 26 27  1  0
 26 25  1  6
 28 26  1  0
 29 28  2  0
 30 28  1  0
M  END
$$$$
