RQQ.pdb
     RDKit          3D

 30 29  0  0  1  0  0  0  0  0999 V2000
    8.6951  -11.7825   20.0192 N   0  0  0  0  0  0  0  0  0  0  0  0
    8.8508  -12.8324   19.1037 C   0  0  0  0  0  0  0  0  0  0  0  0
    9.7385  -12.7878   18.1857 N   0  0  0  0  0  0  0  0  0  0  0  0
    8.0132  -13.9788   19.1843 N   0  0  0  0  0  0  0  0  0  0  0  0
    8.1002  -15.0411   18.2283 C   0  0  0  0  0  0  0  0  0  0  0  0
    7.8275  -16.3580   18.8994 C   0  0  0  0  0  0  0  0  0  0  0  0
    8.1495  -16.2571   20.3562 C   0  0  0  0  0  0  0  0  0  0  0  0
    7.9120  -17.5721   21.0848 C   0  0  2  0  0  0  0  0  0  0  0  0
    6.7388  -18.2115   20.5098 N   0  0  0  0  0  0  0  0  0  0  0  0
    7.7100  -17.3588   22.5341 C   0  0  0  0  0  0  0  0  0  0  0  0
    7.0975  -16.3299   22.9105 O   0  0  0  0  0  0  0  0  0  0  0  0
    9.8478  -13.5087   17.4435 N   0  0  0  0  0  0  0  0  0  0  0  0
    6.3321  -20.3919   28.5117 C   0  0  0  0  0  0  0  0  0  0  0  0
    7.4597  -20.4347   27.6606 O   0  0  0  0  0  0  0  0  0  0  0  0
    7.9334  -21.5623   27.3067 C   0  0  0  0  0  0  0  0  0  0  0  0
    8.0876  -19.1608   27.1827 C   0  0  0  0  0  0  0  0  0  0  0  0
    8.2406  -19.2447   25.6905 C   0  0  1  0  0  0  0  0  0  0  0  0
    7.8586  -17.9777   24.9703 N   0  0  0  0  0  0  0  0  0  0  0  0
    8.1640  -18.2440   23.5458 C   0  0  0  0  0  0  0  0  0  0  0  0
    8.6555  -16.8386   25.4518 O   0  0  0  0  0  0  0  0  0  0  0  0
    9.8885  -16.8326   25.2362 N   0  0  0  0  0  0  0  0  0  0  0  0
    6.6221  -11.1228   27.2783 C   0  0  0  0  0  0  0  0  0  0  0  0
    6.0642  -12.2318   26.6198 O   0  0  0  0  0  0  0  0  0  0  0  0
    4.8725  -12.1114   26.1853 C   0  0  0  0  0  0  0  0  0  0  0  0
    6.7952  -13.5066   26.4175 C   0  0  0  0  0  0  0  0  0  0  0  0
    8.2257  -13.4105   26.9132 C   0  0  2  0  0  0  0  0  0  0  0  0
    8.9609  -14.7228   26.6815 N   0  0  0  0  0  0  0  0  0  0  0  0
    8.1029  -15.7337   26.1534 C   0  0  0  0  0  0  0  0  0  0  0  0
    9.6532  -15.1615   27.9305 O   0  0  0  0  0  0  0  0  0  0  0  0
    9.3694  -16.2185   28.5427 O   0  0  0  0  0  0  0  0  0  0  0  0
  2  1  1  0
  3  2  2  0
  4  2  1  0
  5  6  1  0
  5  4  1  0
  7  6  1  0
  8  7  1  0
  8  9  1  6
 10 11  2  0
 10  8  1  0
 13 12  1  0
 13 15  1  0
 14 13  2  0
 16 15  1  0
 17 16  1  6
 17 18  1  0
 18 10  1  0
 19 17  1  0
 19 27  1  0
 20 19  2  0
 22 21  1  0
 22 23  2  0
 24 22  1  0
 25 24  1  0
 26 27  1  0
 26 25  1  6
 28 26  1  0
 29 28  2  0
 30 28  1  0
M  END
$$$$
