KGV.pdb
     RDKit          3D

 21 20  0  0  1  0  0  0  0  0999 V2000
    9.1405  -16.4412   18.5343 N   0  0  0  0  0  0  0  0  0  0  0  0
    8.9945  -15.1741   19.1960 C   0  0  1  0  0  0  0  0  0  0  0  0
    8.4772  -14.1151   18.2133 C   0  0  0  0  0  0  0  0  0  0  0  0
    8.5925  -14.7013   16.8475 C   0  0  0  0  0  0  0  0  0  0  0  0
    8.0718  -13.8042   15.7570 C   0  0  0  0  0  0  0  0  0  0  0  0
    8.0345  -14.4660   14.4116 C   0  0  0  0  0  0  0  0  0  0  0  0
    7.4418  -13.6377   13.3930 N   0  0  0  0  0  0  0  0  0  0  0  0
    8.0643  -15.2058   20.3270 C   0  0  0  0  0  0  0  0  0  0  0  0
    7.3890  -16.2318   20.5350 O   0  0  0  0  0  0  0  0  0  0  0  0
    7.9249  -14.0878   21.1830 N   0  0  0  0  0  0  0  0  0  0  0  0
    6.9809  -14.1619   22.2631 C   0  0  0  0  0  0  0  0  0  0  0  0
    7.6401  -14.0204   23.5747 C   0  0  0  0  0  0  0  0  0  0  0  0
    8.8938  -14.0995   23.6161 O   0  0  0  0  0  0  0  0  0  0  0  0
    5.6551  -12.6605   27.1133 C   0  0  0  0  0  0  0  0  0  0  0  0
    7.1039  -12.3471   26.7824 C   0  0  2  0  0  0  0  0  0  0  0  0
    7.0741  -11.0725   25.9374 C   0  0  0  0  0  0  0  0  0  0  0  0
    7.6553  -13.4882   25.9918 C   0  0  2  0  0  0  0  0  0  0  0  0
    6.9783  -13.8032   24.7902 N   0  0  0  0  0  0  0  0  0  0  0  0
    7.7036  -14.7053   26.8432 C   0  0  0  0  0  0  0  0  0  0  0  0
    6.9426  -15.6753   26.6508 O   0  0  0  0  0  0  0  0  0  0  0  0
    8.6082  -14.8306   27.9106 O   0  0  0  0  0  0  0  0  0  0  0  0
  2  8  1  0
  2  1  1  6
  3  2  1  0
  4  3  1  0
  5  4  1  0
  6  7  1  0
  6  5  1  0
  8  9  2  0
 10  8  1  0
 10 11  1  0
 11 12  1  0
 12 13  2  0
 15 14  1  6
 15 17  1  0
 16 15  1  0
 17 19  1  0
 18 12  1  0
 17 18  1  6
 19 20  2  0
 19 21  1  0
M  END
$$$$
