KGV.pdb
     RDKit          3D

 21 20  0  0  1  0  0  0  0  0999 V2000
    5.3288  -17.8673   21.0246 N   0  0  0  0  0  0  0  0  0  0  0  0
    6.3543  -17.0203   21.5681 C   0  0  1  0  0  0  0  0  0  0  0  0
    6.1833  -15.5822   21.0610 C   0  0  0  0  0  0  0  0  0  0  0  0
    7.3603  -15.2877   20.1946 C   0  0  0  0  0  0  0  0  0  0  0  0
    7.3324  -13.9138   19.5808 C   0  0  0  0  0  0  0  0  0  0  0  0
    8.4661  -13.6653   18.6308 C   0  0  0  0  0  0  0  0  0  0  0  0
    8.4261  -12.3533   18.0376 N   0  0  0  0  0  0  0  0  0  0  0  0
    6.3561  -16.9654   23.0319 C   0  0  0  0  0  0  0  0  0  0  0  0
    5.2836  -17.1031   23.6505 O   0  0  0  0  0  0  0  0  0  0  0  0
    7.5585  -16.7585   23.7485 N   0  0  0  0  0  0  0  0  0  0  0  0
    7.5068  -16.7236   25.1835 C   0  0  0  0  0  0  0  0  0  0  0  0
    8.8131  -16.3680   25.7682 C   0  0  0  0  0  0  0  0  0  0  0  0
    9.8394  -16.5297   25.0608 O   0  0  0  0  0  0  0  0  0  0  0  0
    9.5264  -14.6970   29.7405 C   0  0  0  0  0  0  0  0  0  0  0  0
   10.2978  -14.3133   28.4897 C   0  0  2  0  0  0  0  0  0  0  0  0
    9.5488  -13.1254   27.8837 C   0  0  0  0  0  0  0  0  0  0  0  0
   10.2756  -15.4793   27.5563 C   0  0  2  0  0  0  0  0  0  0  0  0
    9.0069  -15.8601   27.0594 N   0  0  0  0  0  0  0  0  0  0  0  0
   10.9003  -16.6556   28.2155 C   0  0  0  0  0  0  0  0  0  0  0  0
   12.1261  -16.7111   28.4417 O   0  0  0  0  0  0  0  0  0  0  0  0
   10.1453  -17.7692   28.6199 O   0  0  0  0  0  0  0  0  0  0  0  0
  2  8  1  0
  2  1  1  1
  3  2  1  0
  4  3  1  0
  5  4  1  0
  6  7  1  0
  6  5  1  0
  8  9  2  0
 10  8  1  0
 10 11  1  0
 11 12  1  0
 12 13  2  0
 15 14  1  1
 15 17  1  0
 16 15  1  0
 17 19  1  0
 18 12  1  0
 17 18  1  1
 19 20  2  0
 19 21  1  0
M  END
$$$$
