KGV.pdb
     RDKit          3D

 21 20  0  0  1  0  0  0  0  0999 V2000
    9.1622  -16.0689   19.1588 N   0  0  0  0  0  0  0  0  0  0  0  0
    8.6844  -14.7455   19.4501 C   0  0  1  0  0  0  0  0  0  0  0  0
    7.8108  -14.2280   18.2996 C   0  0  0  0  0  0  0  0  0  0  0  0
    8.4483  -14.6886   17.0332 C   0  0  0  0  0  0  0  0  0  0  0  0
    7.9452  -13.9756   15.8070 C   0  0  0  0  0  0  0  0  0  0  0  0
    8.5426  -14.4935   14.5325 C   0  0  0  0  0  0  0  0  0  0  0  0
    8.0203  -13.8403   13.3597 N   0  0  0  0  0  0  0  0  0  0  0  0
    7.8809  -14.6669   20.6724 C   0  0  0  0  0  0  0  0  0  0  0  0
    7.4922  -13.5552   21.0785 O   0  0  0  0  0  0  0  0  0  0  0  0
    7.5426  -15.8359   21.3944 N   0  0  0  0  0  0  0  0  0  0  0  0
    6.7557  -15.7032   22.5887 C   0  0  0  0  0  0  0  0  0  0  0  0
    7.5143  -15.0514   23.6724 C   0  0  0  0  0  0  0  0  0  0  0  0
    8.7641  -14.9823   23.5584 O   0  0  0  0  0  0  0  0  0  0  0  0
    7.8372  -11.6282   27.0778 C   0  0  0  0  0  0  0  0  0  0  0  0
    6.9242  -12.4072   26.1470 C   0  0  2  0  0  0  0  0  0  0  0  0
    5.7063  -12.7982   26.9857 C   0  0  0  0  0  0  0  0  0  0  0  0
    7.6592  -13.6244   25.6896 C   0  0  2  0  0  0  0  0  0  0  0  0
    6.9519  -14.4973   24.8297 N   0  0  0  0  0  0  0  0  0  0  0  0
    8.1263  -14.3962   26.8706 C   0  0  0  0  0  0  0  0  0  0  0  0
    7.5132  -15.3999   27.2871 O   0  0  0  0  0  0  0  0  0  0  0  0
    9.2832  -14.0380   27.5825 O   0  0  0  0  0  0  0  0  0  0  0  0
  2  8  1  0
  2  1  1  6
  3  2  1  0
  4  3  1  0
  5  4  1  0
  6  7  1  0
  6  5  1  0
  8  9  2  0
 10  8  1  0
 10 11  1  0
 11 12  1  0
 12 13  2  0
 15 14  1  1
 15 17  1  0
 16 15  1  0
 17 19  1  0
 18 12  1  0
 17 18  1  1
 19 20  2  0
 19 21  1  0
M  END
$$$$
