KGV.pdb
     RDKit          3D

 21 20  0  0  1  0  0  0  0  0999 V2000
    8.1502  -18.2101   21.6037 N   0  0  0  0  0  0  0  0  0  0  0  0
    9.4063  -17.7822   21.0526 C   0  0  1  0  0  0  0  0  0  0  0  0
    9.1812  -17.0180   19.7411 C   0  0  0  0  0  0  0  0  0  0  0  0
    8.4683  -17.9465   18.8179 C   0  0  0  0  0  0  0  0  0  0  0  0
    9.3421  -18.5076   17.7286 C   0  0  0  0  0  0  0  0  0  0  0  0
    8.6077  -19.4151   16.7871 C   0  0  0  0  0  0  0  0  0  0  0  0
    9.4434  -19.9263   15.7311 N   0  0  0  0  0  0  0  0  0  0  0  0
   10.1680  -16.9013   21.9412 C   0  0  0  0  0  0  0  0  0  0  0  0
   11.2622  -16.4448   21.5590 O   0  0  0  0  0  0  0  0  0  0  0  0
    9.6762  -16.5645   23.2244 N   0  0  0  0  0  0  0  0  0  0  0  0
   10.4529  -15.6810   24.0487 C   0  0  0  0  0  0  0  0  0  0  0  0
    9.7927  -15.4191   25.3411 C   0  0  0  0  0  0  0  0  0  0  0  0
    8.6401  -14.9179   25.3236 O   0  0  0  0  0  0  0  0  0  0  0  0
   11.6412  -15.4776   29.2484 C   0  0  0  0  0  0  0  0  0  0  0  0
   10.2495  -16.0494   29.0407 C   0  0  2  0  0  0  0  0  0  0  0  0
   10.4405  -17.5536   28.8398 C   0  0  0  0  0  0  0  0  0  0  0  0
    9.6711  -15.4252   27.8132 C   0  0  2  0  0  0  0  0  0  0  0  0
   10.3491  -15.6851   26.5990 N   0  0  0  0  0  0  0  0  0  0  0  0
    9.5787  -13.9537   28.0002 C   0  0  0  0  0  0  0  0  0  0  0  0
   10.3280  -13.1632   27.3916 O   0  0  0  0  0  0  0  0  0  0  0  0
    8.6430  -13.3724   28.8721 O   0  0  0  0  0  0  0  0  0  0  0  0
  2  8  1  0
  2  1  1  1
  3  2  1  0
  4  3  1  0
  5  4  1  0
  6  7  1  0
  6  5  1  0
  8  9  2  0
 10  8  1  0
 10 11  1  0
 11 12  1  0
 12 13  2  0
 15 14  1  6
 15 17  1  0
 16 15  1  0
 17 19  1  0
 18 12  1  0
 17 18  1  6
 19 20  2  0
 19 21  1  0
M  END
$$$$
