KGV.pdb
     RDKit          3D

 21 20  0  0  1  0  0  0  0  0999 V2000
    8.4403  -15.9450   19.3923 N   0  0  0  0  0  0  0  0  0  0  0  0
    8.1289  -14.6377   19.9009 C   0  0  1  0  0  0  0  0  0  0  0  0
    7.1286  -13.9299   18.9772 C   0  0  0  0  0  0  0  0  0  0  0  0
    7.2968  -14.5266   17.6214 C   0  0  0  0  0  0  0  0  0  0  0  0
    8.2003  -13.7320   16.7173 C   0  0  0  0  0  0  0  0  0  0  0  0
    8.2823  -14.2850   15.3256 C   0  0  0  0  0  0  0  0  0  0  0  0
    9.1638  -13.5312   14.4714 N   0  0  0  0  0  0  0  0  0  0  0  0
    7.5419  -14.6540   21.2428 C   0  0  0  0  0  0  0  0  0  0  0  0
    7.1706  -13.5837   21.7610 O   0  0  0  0  0  0  0  0  0  0  0  0
    7.3925  -15.8678   21.9544 N   0  0  0  0  0  0  0  0  0  0  0  0
    6.8289  -15.8261   23.2750 C   0  0  0  0  0  0  0  0  0  0  0  0
    7.6829  -15.0692   24.2091 C   0  0  0  0  0  0  0  0  0  0  0  0
    8.8829  -14.8778   23.8879 O   0  0  0  0  0  0  0  0  0  0  0  0
    6.1813  -12.8266   27.5010 C   0  0  0  0  0  0  0  0  0  0  0  0
    7.4280  -12.4387   26.7250 C   0  0  2  0  0  0  0  0  0  0  0  0
    6.9428  -11.5826   25.5539 C   0  0  0  0  0  0  0  0  0  0  0  0
    8.0722  -13.6912   26.2280 C   0  0  2  0  0  0  0  0  0  0  0  0
    7.2634  -14.5406   25.4369 N   0  0  0  0  0  0  0  0  0  0  0  0
    8.5963  -14.4713   27.3793 C   0  0  0  0  0  0  0  0  0  0  0  0
    8.1322  -15.5884   27.6850 O   0  0  0  0  0  0  0  0  0  0  0  0
    9.6425  -13.9938   28.1862 O   0  0  0  0  0  0  0  0  0  0  0  0
  2  8  1  0
  2  1  1  6
  3  2  1  0
  4  3  1  0
  5  4  1  0
  6  7  1  0
  6  5  1  0
  8  9  2  0
 10  8  1  0
 10 11  1  0
 11 12  1  0
 12 13  2  0
 15 14  1  1
 15 17  1  0
 16 15  1  0
 17 19  1  0
 18 12  1  0
 17 18  1  1
 19 20  2  0
 19 21  1  0
M  END
$$$$
