KGV.pdb
     RDKit          3D

 21 20  0  0  1  0  0  0  0  0999 V2000
    8.9023  -18.2111   20.9831 N   0  0  0  0  0  0  0  0  0  0  0  0
    7.4824  -18.3506   20.8132 C   0  0  1  0  0  0  0  0  0  0  0  0
    7.0499  -19.7950   21.0987 C   0  0  0  0  0  0  0  0  0  0  0  0
    8.2705  -20.6423   20.9786 C   0  0  0  0  0  0  0  0  0  0  0  0
    8.0349  -22.0937   21.2996 C   0  0  0  0  0  0  0  0  0  0  0  0
    9.2259  -22.9630   21.0254 C   0  0  0  0  0  0  0  0  0  0  0  0
    8.9845  -24.3545   21.3092 N   0  0  0  0  0  0  0  0  0  0  0  0
    6.6973  -17.4820   21.6934 C   0  0  0  0  0  0  0  0  0  0  0  0
    5.4541  -17.4945   21.6149 O   0  0  0  0  0  0  0  0  0  0  0  0
    7.3334  -16.6317   22.6286 N   0  0  0  0  0  0  0  0  0  0  0  0
    6.5183  -15.7807   23.4500 C   0  0  0  0  0  0  0  0  0  0  0  0
    7.3362  -14.9280   24.3325 C   0  0  0  0  0  0  0  0  0  0  0  0
    8.5805  -15.1053   24.3359 O   0  0  0  0  0  0  0  0  0  0  0  0
    5.8300  -12.2362   27.3243 C   0  0  0  0  0  0  0  0  0  0  0  0
    7.0488  -11.8538   26.5027 C   0  0  2  0  0  0  0  0  0  0  0  0
    6.5251  -10.9912   25.3533 C   0  0  0  0  0  0  0  0  0  0  0  0
    7.6658  -13.1089   25.9781 C   0  0  2  0  0  0  0  0  0  0  0  0
    6.8363  -13.9270   25.1755 N   0  0  0  0  0  0  0  0  0  0  0  0
    8.1806  -13.9210   27.1113 C   0  0  0  0  0  0  0  0  0  0  0  0
    7.5881  -14.9429   27.5130 O   0  0  0  0  0  0  0  0  0  0  0  0
    9.3620  -13.5827   27.7920 O   0  0  0  0  0  0  0  0  0  0  0  0
  2  8  1  0
  2  1  1  1
  3  2  1  0
  4  3  1  0
  5  4  1  0
  6  7  1  0
  6  5  1  0
  8  9  2  0
 10  8  1  0
 10 11  1  0
 11 12  1  0
 12 13  2  0
 15 14  1  1
 15 17  1  0
 16 15  1  0
 17 19  1  0
 18 12  1  0
 17 18  1  1
 19 20  2  0
 19 21  1  0
M  END
$$$$
