KGV.pdb
     RDKit          3D

 21 20  0  0  1  0  0  0  0  0999 V2000
   48.6644  -26.7578  -40.6120 N   0  0  0  0  0  0  0  0  0  0  0  0
   48.9503  -27.9134  -39.8073 C   0  0  1  0  0  0  0  0  0  0  0  0
   50.4087  -27.8848  -39.3310 C   0  0  0  0  0  0  0  0  0  0  0  0
   50.7352  -26.4623  -39.0269 C   0  0  0  0  0  0  0  0  0  0  0  0
   52.2003  -26.1385  -39.1433 C   0  0  0  0  0  0  0  0  0  0  0  0
   53.0879  -27.3354  -38.9730 C   0  0  0  0  0  0  0  0  0  0  0  0
   52.4433  -28.5707  -39.3384 N   0  0  0  0  0  0  0  0  0  0  0  0
   48.1075  -28.0212  -38.6140 C   0  0  0  0  0  0  0  0  0  0  0  0
   48.1509  -27.1234  -37.7514 O   0  0  0  0  0  0  0  0  0  0  0  0
   47.2478  -29.1300  -38.4309 N   0  0  0  0  0  0  0  0  0  0  0  0
   47.8313  -30.4217  -38.1979 C   0  0  0  0  0  0  0  0  0  0  0  0
   47.3829  -31.0001  -36.9175 C   0  0  0  0  0  0  0  0  0  0  0  0
   48.2545  -31.4824  -36.1510 O   0  0  0  0  0  0  0  0  0  0  0  0
   43.8708  -30.7924  -37.8664 C   0  0  0  0  0  0  0  0  0  0  0  0
   44.0356  -32.2033  -37.3291 C   0  0  2  0  0  0  0  0  0  0  0  0
   42.8075  -32.4649  -36.4556 C   0  0  0  0  0  0  0  0  0  0  0  0
   45.2823  -32.2430  -36.5072 C   0  0  2  0  0  0  0  0  0  0  0  0
   46.0531  -31.0570  -36.4804 N   0  0  0  0  0  0  0  0  0  0  0  0
   46.1462  -33.3609  -36.9682 C   0  0  0  0  0  0  0  0  0  0  0  0
   47.1669  -33.1642  -37.6584 O   0  0  0  0  0  0  0  0  0  0  0  0
   45.8612  -34.6997  -36.6523 O   0  0  0  0  0  0  0  0  0  0  0  0
  2  8  1  0
  2  1  1  1
  3  2  1  0
  4  3  1  0
  5  4  1  0
  6  7  1  0
  6  5  1  0
  8  9  2  0
 10  8  1  0
 10 11  1  0
 11 12  1  0
 12 13  2  0
 15 14  1  1
 15 17  1  0
 16 15  1  0
 17 19  1  0
 18 12  1  0
 17 18  1  6
 19 20  2  0
 19 21  1  0
M  END
$$$$
