KGV.pdb
     RDKit          3D

 21 20  0  0  1  0  0  0  0  0999 V2000
    5.1526  -18.6542   23.4305 N   0  0  0  0  0  0  0  0  0  0  0  0
    5.4719  -18.6082   22.0303 C   0  0  1  0  0  0  0  0  0  0  0  0
    4.1962  -18.4236   21.1977 C   0  0  0  0  0  0  0  0  0  0  0  0
    3.2179  -19.4417   21.6761 C   0  0  0  0  0  0  0  0  0  0  0  0
    1.9109  -19.4240   20.9300 C   0  0  0  0  0  0  0  0  0  0  0  0
    0.9726  -20.5156   21.3510 C   0  0  0  0  0  0  0  0  0  0  0  0
   -0.2469  -20.5363   20.5845 N   0  0  0  0  0  0  0  0  0  0  0  0
    6.3841  -17.5198   21.6713 C   0  0  0  0  0  0  0  0  0  0  0  0
    6.7365  -17.3835   20.4843 O   0  0  0  0  0  0  0  0  0  0  0  0
    6.8675  -16.6246   22.6546 N   0  0  0  0  0  0  0  0  0  0  0  0
    7.8794  -15.6753   22.2828 C   0  0  0  0  0  0  0  0  0  0  0  0
    8.2451  -14.7976   23.4101 C   0  0  0  0  0  0  0  0  0  0  0  0
    9.1648  -13.9599   23.2309 O   0  0  0  0  0  0  0  0  0  0  0  0
    6.4121  -12.4196   25.6644 C   0  0  0  0  0  0  0  0  0  0  0  0
    7.1730  -13.3432   26.5996 C   0  0  2  0  0  0  0  0  0  0  0  0
    7.8893  -12.4315   27.5972 C   0  0  0  0  0  0  0  0  0  0  0  0
    8.1627  -14.1119   25.7869 C   0  0  2  0  0  0  0  0  0  0  0  0
    7.6464  -14.8204   24.6765 N   0  0  0  0  0  0  0  0  0  0  0  0
    8.8907  -15.0666   26.6628 C   0  0  0  0  0  0  0  0  0  0  0  0
    8.5203  -16.2502   26.7996 O   0  0  0  0  0  0  0  0  0  0  0  0
   10.0353  -14.6889   27.3845 O   0  0  0  0  0  0  0  0  0  0  0  0
  2  8  1  0
  2  1  1  1
  3  2  1  0
  4  3  1  0
  5  4  1  0
  6  7  1  0
  6  5  1  0
  8  9  2  0
 10  8  1  0
 10 11  1  0
 11 12  1  0
 12 13  2  0
 15 14  1  6
 15 17  1  0
 16 15  1  0
 17 19  1  0
 18 12  1  0
 17 18  1  6
 19 20  2  0
 19 21  1  0
M  END
$$$$
