KGV.pdb
     RDKit          3D

 21 20  0  0  1  0  0  0  0  0999 V2000
    5.9311  -18.1125   20.4678 N   0  0  0  0  0  0  0  0  0  0  0  0
    6.7169  -17.0712   21.0701 C   0  0  1  0  0  0  0  0  0  0  0  0
    6.4059  -15.7198   20.4131 C   0  0  0  0  0  0  0  0  0  0  0  0
    7.7158  -15.0877   20.0860 C   0  0  0  0  0  0  0  0  0  0  0  0
    7.5909  -13.7667   19.3758 C   0  0  0  0  0  0  0  0  0  0  0  0
    8.9131  -13.1729   18.9903 C   0  0  0  0  0  0  0  0  0  0  0  0
    8.7970  -11.8416   18.4528 N   0  0  0  0  0  0  0  0  0  0  0  0
    6.4841  -16.9168   22.5081 C   0  0  0  0  0  0  0  0  0  0  0  0
    5.3231  -16.7424   22.9245 O   0  0  0  0  0  0  0  0  0  0  0  0
    7.5599  -16.9636   23.4260 N   0  0  0  0  0  0  0  0  0  0  0  0
    7.2808  -16.7780   24.8228 C   0  0  0  0  0  0  0  0  0  0  0  0
    8.2178  -15.8238   25.4444 C   0  0  0  0  0  0  0  0  0  0  0  0
    9.2993  -15.5868   24.8494 O   0  0  0  0  0  0  0  0  0  0  0  0
    7.4959  -13.2849   28.9596 C   0  0  0  0  0  0  0  0  0  0  0  0
    8.2582  -12.9271   27.6956 C   0  0  2  0  0  0  0  0  0  0  0  0
    7.2142  -12.3911   26.7146 C   0  0  0  0  0  0  0  0  0  0  0  0
    8.8856  -14.1743   27.1647 C   0  0  2  0  0  0  0  0  0  0  0  0
    8.0004  -15.1532   26.6551 N   0  0  0  0  0  0  0  0  0  0  0  0
    9.7252  -14.7969   28.2212 C   0  0  0  0  0  0  0  0  0  0  0  0
    9.4013  -15.8665   28.7759 O   0  0  0  0  0  0  0  0  0  0  0  0
   10.9290  -14.2154   28.6529 O   0  0  0  0  0  0  0  0  0  0  0  0
  2  8  1  0
  2  1  1  6
  3  2  1  0
  4  3  1  0
  5  4  1  0
  6  7  1  0
  6  5  1  0
  8  9  2  0
 10  8  1  0
 10 11  1  0
 11 12  1  0
 12 13  2  0
 15 14  1  1
 15 17  1  0
 16 15  1  0
 17 19  1  0
 18 12  1  0
 17 18  1  1
 19 20  2  0
 19 21  1  0
M  END
$$$$
