KGV.pdb
     RDKit          3D

 21 20  0  0  1  0  0  0  0  0999 V2000
    9.7540  -18.8692   20.9866 N   0  0  0  0  0  0  0  0  0  0  0  0
    9.8349  -17.4973   20.5673 C   0  0  1  0  0  0  0  0  0  0  0  0
    9.4933  -17.3736   19.0765 C   0  0  0  0  0  0  0  0  0  0  0  0
    8.9390  -18.6902   18.6504 C   0  0  0  0  0  0  0  0  0  0  0  0
    8.6145  -18.7650   17.1827 C   0  0  0  0  0  0  0  0  0  0  0  0
    7.9563  -20.0527   16.7854 C   0  0  0  0  0  0  0  0  0  0  0  0
    7.4622  -20.0384   15.4324 N   0  0  0  0  0  0  0  0  0  0  0  0
    8.9275  -16.6064   21.2945 C   0  0  0  0  0  0  0  0  0  0  0  0
    8.8919  -15.3965   20.9999 O   0  0  0  0  0  0  0  0  0  0  0  0
    8.0939  -17.1033   22.3242 N   0  0  0  0  0  0  0  0  0  0  0  0
    7.0696  -16.2468   22.8535 C   0  0  0  0  0  0  0  0  0  0  0  0
    7.6155  -15.2762   23.8203 C   0  0  0  0  0  0  0  0  0  0  0  0
    8.8510  -15.3039   24.0500 O   0  0  0  0  0  0  0  0  0  0  0  0
    7.3965  -11.2965   26.6711 C   0  0  0  0  0  0  0  0  0  0  0  0
    6.5952  -12.1905   25.7407 C   0  0  2  0  0  0  0  0  0  0  0  0
    5.3657  -12.6294   26.5379 C   0  0  0  0  0  0  0  0  0  0  0  0
    7.4415  -13.3701   25.3896 C   0  0  2  0  0  0  0  0  0  0  0  0
    6.8640  -14.3164   24.5108 N   0  0  0  0  0  0  0  0  0  0  0  0
    7.8600  -14.0692   26.6324 C   0  0  0  0  0  0  0  0  0  0  0  0
    7.2509  -15.0692   27.0636 O   0  0  0  0  0  0  0  0  0  0  0  0
    8.9638  -13.6428   27.3896 O   0  0  0  0  0  0  0  0  0  0  0  0
  2  8  1  0
  2  1  1  1
  3  2  1  0
  4  3  1  0
  5  4  1  0
  6  7  1  0
  6  5  1  0
  8  9  2  0
 10  8  1  0
 10 11  1  0
 11 12  1  0
 12 13  2  0
 15 14  1  1
 15 17  1  0
 16 15  1  0
 17 19  1  0
 18 12  1  0
 17 18  1  6
 19 20  2  0
 19 21  1  0
M  END
$$$$
