KGV.pdb
     RDKit          3D

 21 20  0  0  1  0  0  0  0  0999 V2000
    6.7973  -19.3973   21.8261 N   0  0  0  0  0  0  0  0  0  0  0  0
    7.2648  -19.8129   23.1196 C   0  0  1  0  0  0  0  0  0  0  0  0
    8.7953  -19.9233   23.1241 C   0  0  0  0  0  0  0  0  0  0  0  0
    9.2185  -20.1063   21.7064 C   0  0  0  0  0  0  0  0  0  0  0  0
   10.7066  -20.2477   21.5316 C   0  0  0  0  0  0  0  0  0  0  0  0
   11.1356  -20.2716   20.0947 C   0  0  0  0  0  0  0  0  0  0  0  0
   12.5671  -20.2855   19.9347 N   0  0  0  0  0  0  0  0  0  0  0  0
    6.8940  -18.8965   24.2005 C   0  0  0  0  0  0  0  0  0  0  0  0
    7.2316  -19.1615   25.3700 O   0  0  0  0  0  0  0  0  0  0  0  0
    6.1590  -17.7176   23.9318 N   0  0  0  0  0  0  0  0  0  0  0  0
    5.8693  -16.8247   25.0190 C   0  0  0  0  0  0  0  0  0  0  0  0
    6.8353  -15.7122   25.0837 C   0  0  0  0  0  0  0  0  0  0  0  0
    7.7455  -15.6705   24.2179 O   0  0  0  0  0  0  0  0  0  0  0  0
    6.6845  -12.2865   27.7971 C   0  0  0  0  0  0  0  0  0  0  0  0
    7.0915  -12.2498   26.3343 C   0  0  2  0  0  0  0  0  0  0  0  0
    5.8007  -12.0218   25.5461 C   0  0  0  0  0  0  0  0  0  0  0  0
    7.6915  -13.5730   25.9874 C   0  0  2  0  0  0  0  0  0  0  0  0
    6.8224  -14.6881   26.0396 N   0  0  0  0  0  0  0  0  0  0  0  0
    8.8570  -13.8372   26.8708 C   0  0  0  0  0  0  0  0  0  0  0  0
    9.8803  -13.1238   26.8435 O   0  0  0  0  0  0  0  0  0  0  0  0
    8.8705  -14.9041   27.7846 O   0  0  0  0  0  0  0  0  0  0  0  0
  2  8  1  0
  2  1  1  6
  3  2  1  0
  4  3  1  0
  5  4  1  0
  6  7  1  0
  6  5  1  0
  8  9  2  0
 10  8  1  0
 10 11  1  0
 11 12  1  0
 12 13  2  0
 15 14  1  1
 15 17  1  0
 16 15  1  0
 17 19  1  0
 18 12  1  0
 17 18  1  1
 19 20  2  0
 19 21  1  0
M  END
$$$$
