KGV.pdb
     RDKit          3D

 21 20  0  0  1  0  0  0  0  0999 V2000
    5.8155  -16.9659   20.3846 N   0  0  0  0  0  0  0  0  0  0  0  0
    7.1923  -16.9853   20.7953 C   0  0  1  0  0  0  0  0  0  0  0  0
    7.9067  -15.7100   20.3286 C   0  0  0  0  0  0  0  0  0  0  0  0
    7.5454  -15.5131   18.8957 C   0  0  0  0  0  0  0  0  0  0  0  0
    8.1222  -14.2611   18.2917 C   0  0  0  0  0  0  0  0  0  0  0  0
    7.6620  -14.0142   16.8858 C   0  0  0  0  0  0  0  0  0  0  0  0
    8.1102  -12.7500   16.3605 N   0  0  0  0  0  0  0  0  0  0  0  0
    7.3711  -17.0750   22.2464 C   0  0  0  0  0  0  0  0  0  0  0  0
    8.4982  -17.3351   22.7089 O   0  0  0  0  0  0  0  0  0  0  0  0
    6.2815  -16.8700   23.1255 N   0  0  0  0  0  0  0  0  0  0  0  0
    6.5312  -16.8605   24.5399 C   0  0  0  0  0  0  0  0  0  0  0  0
    7.3865  -15.7262   24.9356 C   0  0  0  0  0  0  0  0  0  0  0  0
    8.5377  -15.6535   24.4363 O   0  0  0  0  0  0  0  0  0  0  0  0
    6.1998  -12.5752   27.5840 C   0  0  0  0  0  0  0  0  0  0  0  0
    7.2918  -12.3650   26.5495 C   0  0  2  0  0  0  0  0  0  0  0  0
    6.5924  -11.8025   25.3109 C   0  0  0  0  0  0  0  0  0  0  0  0
    7.9055  -13.6930   26.2481 C   0  0  2  0  0  0  0  0  0  0  0  0
    7.0186  -14.7130   25.8304 N   0  0  0  0  0  0  0  0  0  0  0  0
    8.6575  -14.1742   27.4362 C   0  0  0  0  0  0  0  0  0  0  0  0
    8.3197  -15.2013   28.0589 O   0  0  0  0  0  0  0  0  0  0  0  0
    9.7893  -13.4993   27.9232 O   0  0  0  0  0  0  0  0  0  0  0  0
  2  8  1  0
  2  1  1  1
  3  2  1  0
  4  3  1  0
  5  4  1  0
  6  7  1  0
  6  5  1  0
  8  9  2  0
 10  8  1  0
 10 11  1  0
 11 12  1  0
 12 13  2  0
 15 14  1  1
 15 17  1  0
 16 15  1  0
 17 19  1  0
 18 12  1  0
 17 18  1  1
 19 20  2  0
 19 21  1  0
M  END
$$$$
