HKM.pdb
     RDKit          3D

 28 28  0  0  1  0  0  0  0  0999 V2000
   13.2104  -17.6593   19.6925 N   0  0  0  0  0  0  0  0  0  0  0  0
   12.1264  -18.0488   20.5754 C   0  0  1  0  0  0  0  0  0  0  0  0
   12.6774  -18.9193   21.6629 C   0  0  0  0  0  0  0  0  0  0  0  0
   13.0083  -20.2452   21.1020 C   0  0  0  0  0  0  0  0  0  0  0  0
   14.2719  -20.8144   20.9221 C   0  0  0  0  0  0  0  0  0  0  0  0
   14.0931  -22.0313   20.3795 N   0  0  0  0  0  0  0  0  0  0  0  0
   12.7729  -22.2249   20.2223 C   0  0  0  0  0  0  0  0  0  0  0  0
   12.1134  -21.1585   20.6530 N   0  0  0  0  0  0  0  0  0  0  0  0
   11.4523  -16.8383   21.1280 C   0  0  0  0  0  0  0  0  0  0  0  0
   12.1835  -15.9919   21.7220 O   0  0  0  0  0  0  0  0  0  0  0  0
   10.0597  -16.6649   20.9838 N   0  0  0  0  0  0  0  0  0  0  0  0
    9.3938  -15.4343   21.3786 C   0  0  1  0  0  0  0  0  0  0  0  0
    8.3165  -15.0671   20.3982 C   0  0  0  0  0  0  0  0  0  0  0  0
    8.9132  -14.6523   19.1158 C   0  0  0  0  0  0  0  0  0  0  0  0
    7.9110  -14.3211   18.0351 C   0  0  0  0  0  0  0  0  0  0  0  0
    8.5375  -14.0306   16.7099 C   0  0  0  0  0  0  0  0  0  0  0  0
    7.5345  -13.7781   15.6916 N   0  0  0  0  0  0  0  0  0  0  0  0
    8.7948  -15.6819   22.7094 C   0  0  0  0  0  0  0  0  0  0  0  0
    8.9511  -16.7283   23.3861 O   0  0  0  0  0  0  0  0  0  0  0  0
    6.2552  -10.9754   28.6063 C   0  0  0  0  0  0  0  0  0  0  0  0
    6.3134  -11.3237   26.8351 S   0  0  0  0  0  0  0  0  0  0  0  0
    7.0989  -12.8882   26.4736 C   0  0  0  0  0  0  0  0  0  0  0  0
    7.2783  -13.2376   25.0545 C   0  0  0  0  0  0  0  0  0  0  0  0
    7.9463  -14.5346   24.7681 C   0  0  2  0  0  0  0  0  0  0  0  0
    7.9795  -14.6835   23.2886 N   0  0  0  0  0  0  0  0  0  0  0  0
    7.3323  -15.7357   25.3368 C   0  0  0  0  0  0  0  0  0  0  0  0
    7.5923  -16.0071   26.5539 O   0  0  0  0  0  0  0  0  0  0  0  0
    6.4922  -16.6077   24.6965 O   0  0  0  0  0  0  0  0  0  0  0  0
  2  1  1  6
  3  2  1  0
  4  3  1  0
  4  5  2  0
  6  5  1  0
  7  6  1  0
  8  7  2  0
  8  4  1  0
  9  2  1  0
 10  9  2  0
 11  9  1  0
 12 11  1  0
 12 13  1  6
 13 14  1  0
 14 15  1  0
 16 15  1  0
 17 16  1  0
 18 12  1  0
 19 18  2  0
 21 20  1  0
 22 21  1  0
 23 22  1  0
 24 23  1  6
 24 25  1  0
 25 18  1  0
 26 24  1  0
 26 28  1  0
 27 26  2  0
M  END
$$$$
