HKM.pdb
     RDKit          3D

 28 28  0  0  1  0  0  0  0  0999 V2000
    6.0236  -18.6225   21.8829 N   0  0  0  0  0  0  0  0  0  0  0  0
    7.4330  -18.9647   21.8298 C   0  0  1  0  0  0  0  0  0  0  0  0
    7.6750  -19.8338   20.6338 C   0  0  0  0  0  0  0  0  0  0  0  0
    6.3766  -20.2727   20.0827 C   0  0  0  0  0  0  0  0  0  0  0  0
    5.1455  -19.6144   20.1474 C   0  0  0  0  0  0  0  0  0  0  0  0
    4.2431  -20.3825   19.5129 N   0  0  0  0  0  0  0  0  0  0  0  0
    4.8750  -21.4804   19.0654 C   0  0  0  0  0  0  0  0  0  0  0  0
    6.1559  -21.4238   19.4024 N   0  0  0  0  0  0  0  0  0  0  0  0
    8.2622  -17.7255   21.7861 C   0  0  0  0  0  0  0  0  0  0  0  0
    9.5200  -17.8729   21.7932 O   0  0  0  0  0  0  0  0  0  0  0  0
    7.6504  -16.4551   21.7396 N   0  0  0  0  0  0  0  0  0  0  0  0
    8.4282  -15.2269   21.7533 C   0  0  1  0  0  0  0  0  0  0  0  0
    7.8810  -14.2326   20.7690 C   0  0  0  0  0  0  0  0  0  0  0  0
    7.9723  -14.7677   19.3987 C   0  0  0  0  0  0  0  0  0  0  0  0
    8.3682  -13.7519   18.3531 C   0  0  0  0  0  0  0  0  0  0  0  0
    8.2910  -14.2742   16.9551 C   0  0  0  0  0  0  0  0  0  0  0  0
    8.7471  -13.2876   15.9932 N   0  0  0  0  0  0  0  0  0  0  0  0
    8.3325  -14.6770   23.1243 C   0  0  0  0  0  0  0  0  0  0  0  0
    7.6067  -13.7096   23.4631 O   0  0  0  0  0  0  0  0  0  0  0  0
    7.2414  -11.7254   28.2449 C   0  0  0  0  0  0  0  0  0  0  0  0
    6.2362  -13.0471   27.5345 S   0  0  0  0  0  0  0  0  0  0  0  0
    7.1650  -14.5552   27.2931 C   0  0  0  0  0  0  0  0  0  0  0  0
    7.5305  -14.9048   25.9103 C   0  0  0  0  0  0  0  0  0  0  0  0
    8.9653  -14.7659   25.5462 C   0  0  2  0  0  0  0  0  0  0  0  0
    9.1051  -15.2639   24.1518 N   0  0  0  0  0  0  0  0  0  0  0  0
    9.9332  -15.4740   26.3858 C   0  0  0  0  0  0  0  0  0  0  0  0
   10.4878  -16.5104   25.8952 O   0  0  0  0  0  0  0  0  0  0  0  0
   10.3178  -15.1354   27.6561 O   0  0  0  0  0  0  0  0  0  0  0  0
  2  1  1  6
  3  2  1  0
  4  3  1  0
  4  5  2  0
  6  5  1  0
  7  6  1  0
  8  7  2  0
  8  4  1  0
  9  2  1  0
 10  9  2  0
 11  9  1  0
 12 11  1  0
 12 13  1  6
 13 14  1  0
 14 15  1  0
 16 15  1  0
 17 16  1  0
 18 12  1  0
 19 18  2  0
 21 20  1  0
 22 21  1  0
 23 22  1  0
 24 23  1  1
 24 25  1  0
 25 18  1  0
 26 24  1  0
 26 28  1  0
 27 26  2  0
M  END
$$$$
