HKM.pdb
     RDKit          3D

 28 28  0  0  1  0  0  0  0  0999 V2000
    9.5253  -15.7152   18.5956 N   0  0  0  0  0  0  0  0  0  0  0  0
    8.3430  -15.1751   19.2411 C   0  0  1  0  0  0  0  0  0  0  0  0
    7.1627  -15.3860   18.3430 C   0  0  0  0  0  0  0  0  0  0  0  0
    7.4263  -14.7467   17.0377 C   0  0  0  0  0  0  0  0  0  0  0  0
    7.8476  -13.4378   16.7880 C   0  0  0  0  0  0  0  0  0  0  0  0
    7.9556  -13.2956   15.4556 N   0  0  0  0  0  0  0  0  0  0  0  0
    7.6173  -14.4641   14.8855 C   0  0  0  0  0  0  0  0  0  0  0  0
    7.2980  -15.3414   15.8267 N   0  0  0  0  0  0  0  0  0  0  0  0
    8.1437  -15.8189   20.5719 C   0  0  0  0  0  0  0  0  0  0  0  0
    7.1147  -15.4802   21.2278 O   0  0  0  0  0  0  0  0  0  0  0  0
    9.0740  -16.7613   21.0586 N   0  0  0  0  0  0  0  0  0  0  0  0
    8.9186  -17.3934   22.3586 C   0  0  1  0  0  0  0  0  0  0  0  0
    9.8063  -18.5992   22.4801 C   0  0  0  0  0  0  0  0  0  0  0  0
    9.5975  -19.2576   23.7822 C   0  0  0  0  0  0  0  0  0  0  0  0
   10.3923  -20.5272   23.9782 C   0  0  0  0  0  0  0  0  0  0  0  0
   10.0248  -21.2750   25.2187 C   0  0  0  0  0  0  0  0  0  0  0  0
   10.7470  -22.5302   25.3163 N   0  0  0  0  0  0  0  0  0  0  0  0
    9.3042  -16.3852   23.3716 C   0  0  0  0  0  0  0  0  0  0  0  0
   10.3985  -15.7694   23.3945 O   0  0  0  0  0  0  0  0  0  0  0  0
    6.2881  -10.4296   27.3593 C   0  0  0  0  0  0  0  0  0  0  0  0
    6.1398  -11.7715   26.1597 S   0  0  0  0  0  0  0  0  0  0  0  0
    7.5060  -12.9206   26.2499 C   0  0  0  0  0  0  0  0  0  0  0  0
    7.5099  -14.0361   25.2888 C   0  0  0  0  0  0  0  0  0  0  0  0
    8.6905  -14.9392   25.3227 C   0  0  2  0  0  0  0  0  0  0  0  0
    8.3926  -16.0707   24.4046 N   0  0  0  0  0  0  0  0  0  0  0  0
    9.0649  -15.4914   26.6257 C   0  0  0  0  0  0  0  0  0  0  0  0
    9.6368  -14.7087   27.4520 O   0  0  0  0  0  0  0  0  0  0  0  0
    8.8586  -16.7733   27.0619 O   0  0  0  0  0  0  0  0  0  0  0  0
  2  1  1  6
  3  2  1  0
  4  3  1  0
  4  5  2  0
  6  5  1  0
  7  6  1  0
  8  7  2  0
  8  4  1  0
  9  2  1  0
 10  9  2  0
 11  9  1  0
 12 11  1  0
 12 13  1  6
 13 14  1  0
 14 15  1  0
 16 15  1  0
 17 16  1  0
 18 12  1  0
 19 18  2  0
 21 20  1  0
 22 21  1  0
 23 22  1  0
 24 23  1  1
 24 25  1  0
 25 18  1  0
 26 24  1  0
 26 28  1  0
 27 26  2  0
M  END
$$$$
