HKM.pdb
     RDKit          3D

 28 28  0  0  1  0  0  0  0  0999 V2000
    8.3852  -16.2839   19.9827 N   0  0  0  0  0  0  0  0  0  0  0  0
    7.7030  -15.3074   20.8116 C   0  0  1  0  0  0  0  0  0  0  0  0
    6.5972  -14.6852   20.0153 C   0  0  0  0  0  0  0  0  0  0  0  0
    7.1580  -14.1038   18.7785 C   0  0  0  0  0  0  0  0  0  0  0  0
    8.4741  -14.1715   18.3136 C   0  0  0  0  0  0  0  0  0  0  0  0
    8.5265  -13.4999   17.1503 N   0  0  0  0  0  0  0  0  0  0  0  0
    7.2965  -13.0269   16.8892 C   0  0  0  0  0  0  0  0  0  0  0  0
    6.4680  -13.3840   17.8606 N   0  0  0  0  0  0  0  0  0  0  0  0
    7.1896  -15.9551   22.0534 C   0  0  0  0  0  0  0  0  0  0  0  0
    6.5863  -15.2130   22.8836 O   0  0  0  0  0  0  0  0  0  0  0  0
    7.3795  -17.3358   22.2726 N   0  0  0  0  0  0  0  0  0  0  0  0
    7.0406  -17.9666   23.5378 C   0  0  1  0  0  0  0  0  0  0  0  0
    6.8611  -19.4485   23.3691 C   0  0  0  0  0  0  0  0  0  0  0  0
    6.6068  -20.0837   24.6746 C   0  0  0  0  0  0  0  0  0  0  0  0
    6.3541  -21.5716   24.6100 C   0  0  0  0  0  0  0  0  0  0  0  0
    5.9865  -22.1716   25.9285 C   0  0  0  0  0  0  0  0  0  0  0  0
    5.6739  -23.5833   25.8014 N   0  0  0  0  0  0  0  0  0  0  0  0
    8.1667  -17.7018   24.4613 C   0  0  0  0  0  0  0  0  0  0  0  0
    9.3816  -17.8352   24.1723 O   0  0  0  0  0  0  0  0  0  0  0  0
    9.9777  -11.8279   29.1029 C   0  0  0  0  0  0  0  0  0  0  0  0
    8.8247  -12.7217   28.0382 S   0  0  0  0  0  0  0  0  0  0  0  0
    9.3407  -14.4066   27.7376 C   0  0  0  0  0  0  0  0  0  0  0  0
    8.4658  -15.2362   26.8924 C   0  0  0  0  0  0  0  0  0  0  0  0
    8.9538  -16.6032   26.5703 C   0  0  2  0  0  0  0  0  0  0  0  0
    7.8850  -17.2649   25.7754 N   0  0  0  0  0  0  0  0  0  0  0  0
    9.2887  -17.4705   27.7011 C   0  0  0  0  0  0  0  0  0  0  0  0
    8.4395  -18.3617   28.0284 O   0  0  0  0  0  0  0  0  0  0  0  0
   10.4339  -17.4322   28.4516 O   0  0  0  0  0  0  0  0  0  0  0  0
  2  1  1  6
  3  2  1  0
  4  3  1  0
  4  5  2  0
  6  5  1  0
  7  6  1  0
  8  7  2  0
  8  4  1  0
  9  2  1  0
 10  9  2  0
 11  9  1  0
 12 11  1  0
 12 13  1  6
 13 14  1  0
 14 15  1  0
 16 15  1  0
 17 16  1  0
 18 12  1  0
 19 18  2  0
 21 20  1  0
 22 21  1  0
 23 22  1  0
 24 23  1  1
 24 25  1  0
 25 18  1  0
 26 24  1  0
 26 28  1  0
 27 26  2  0
M  END
$$$$
