HKM.pdb
     RDKit          3D

 28 28  0  0  1  0  0  0  0  0999 V2000
    5.4094  -15.5331   19.9027 N   0  0  0  0  0  0  0  0  0  0  0  0
    6.5084  -16.4542   20.1260 C   0  0  1  0  0  0  0  0  0  0  0  0
    7.7101  -15.9639   19.3778 C   0  0  0  0  0  0  0  0  0  0  0  0
    7.9160  -14.5318   19.6762 C   0  0  0  0  0  0  0  0  0  0  0  0
    7.2060  -13.7267   20.5711 C   0  0  0  0  0  0  0  0  0  0  0  0
    7.7378  -12.4935   20.5140 N   0  0  0  0  0  0  0  0  0  0  0  0
    8.7416  -12.5160   19.6214 C   0  0  0  0  0  0  0  0  0  0  0  0
    8.8565  -13.7350   19.1131 N   0  0  0  0  0  0  0  0  0  0  0  0
    6.7840  -16.5823   21.5864 C   0  0  0  0  0  0  0  0  0  0  0  0
    6.1523  -15.8062   22.3625 O   0  0  0  0  0  0  0  0  0  0  0  0
    7.7122  -17.5335   22.0597 N   0  0  0  0  0  0  0  0  0  0  0  0
    7.8521  -17.8319   23.4757 C   0  0  1  0  0  0  0  0  0  0  0  0
    8.5805  -19.1292   23.6828 C   0  0  0  0  0  0  0  0  0  0  0  0
    7.7129  -20.2650   23.3222 C   0  0  0  0  0  0  0  0  0  0  0  0
    8.3236  -21.6244   23.5686 C   0  0  0  0  0  0  0  0  0  0  0  0
    7.4285  -22.7583   23.1859 C   0  0  0  0  0  0  0  0  0  0  0  0
    8.0677  -24.0410   23.4157 N   0  0  0  0  0  0  0  0  0  0  0  0
    8.6301  -16.7218   24.0703 C   0  0  0  0  0  0  0  0  0  0  0  0
    9.0076  -15.6954   23.4529 O   0  0  0  0  0  0  0  0  0  0  0  0
    6.6639  -11.0064   25.8672 C   0  0  0  0  0  0  0  0  0  0  0  0
    6.5659  -12.4882   26.8952 S   0  0  0  0  0  0  0  0  0  0  0  0
    8.0785  -13.4403   26.8645 C   0  0  0  0  0  0  0  0  0  0  0  0
    8.0699  -14.6896   26.0852 C   0  0  0  0  0  0  0  0  0  0  0  0
    9.2850  -15.5410   26.1801 C   0  0  2  0  0  0  0  0  0  0  0  0
    8.9911  -16.7940   25.4347 N   0  0  0  0  0  0  0  0  0  0  0  0
    9.7375  -15.9020   27.5247 C   0  0  0  0  0  0  0  0  0  0  0  0
    9.1994  -16.9189   28.0714 O   0  0  0  0  0  0  0  0  0  0  0  0
   10.6939  -15.2609   28.2667 O   0  0  0  0  0  0  0  0  0  0  0  0
  2  1  1  1
  3  2  1  0
  4  3  1  0
  4  5  2  0
  6  5  1  0
  7  6  1  0
  8  7  2  0
  8  4  1  0
  9  2  1  0
 10  9  2  0
 11  9  1  0
 12 11  1  0
 12 13  1  6
 13 14  1  0
 14 15  1  0
 16 15  1  0
 17 16  1  0
 18 12  1  0
 19 18  2  0
 21 20  1  0
 22 21  1  0
 23 22  1  0
 24 23  1  1
 24 25  1  0
 25 18  1  0
 26 24  1  0
 26 28  1  0
 27 26  2  0
M  END
$$$$
