HKM.pdb
     RDKit          3D

 28 28  0  0  1  0  0  0  0  0999 V2000
    6.4960  -16.6106   19.2957 N   0  0  0  0  0  0  0  0  0  0  0  0
    7.4249  -16.0221   20.2428 C   0  0  1  0  0  0  0  0  0  0  0  0
    7.4053  -14.5333   20.0781 C   0  0  0  0  0  0  0  0  0  0  0  0
    7.8958  -14.1882   18.7281 C   0  0  0  0  0  0  0  0  0  0  0  0
    7.2740  -13.3926   17.7620 C   0  0  0  0  0  0  0  0  0  0  0  0
    8.0820  -13.3556   16.6884 N   0  0  0  0  0  0  0  0  0  0  0  0
    9.1691  -14.0960   16.9622 C   0  0  0  0  0  0  0  0  0  0  0  0
    9.0667  -14.6000   18.1841 N   0  0  0  0  0  0  0  0  0  0  0  0
    7.0674  -16.4265   21.6335 C   0  0  0  0  0  0  0  0  0  0  0  0
    6.0031  -15.9416   22.1192 O   0  0  0  0  0  0  0  0  0  0  0  0
    7.8938  -17.3117   22.3572 N   0  0  0  0  0  0  0  0  0  0  0  0
    7.6446  -17.6262   23.7546 C   0  0  1  0  0  0  0  0  0  0  0  0
    7.5863  -19.1119   23.9695 C   0  0  0  0  0  0  0  0  0  0  0  0
    7.3185  -19.4124   25.3874 C   0  0  0  0  0  0  0  0  0  0  0  0
    7.1935  -20.8840   25.7044 C   0  0  0  0  0  0  0  0  0  0  0  0
    6.8790  -21.1602   27.1390 C   0  0  0  0  0  0  0  0  0  0  0  0
    6.8426  -22.5856   27.4103 N   0  0  0  0  0  0  0  0  0  0  0  0
    8.7696  -17.0535   24.5276 C   0  0  0  0  0  0  0  0  0  0  0  0
    9.5436  -17.7105   25.2668 O   0  0  0  0  0  0  0  0  0  0  0  0
    6.3684  -10.5872   27.3732 C   0  0  0  0  0  0  0  0  0  0  0  0
    5.9309  -12.2292   26.7615 S   0  0  0  0  0  0  0  0  0  0  0  0
    7.2889  -13.3854   26.8813 C   0  0  0  0  0  0  0  0  0  0  0  0
    7.6659  -14.1079   25.6550 C   0  0  0  0  0  0  0  0  0  0  0  0
    8.9594  -14.8405   25.6856 C   0  0  2  0  0  0  0  0  0  0  0  0
    9.0162  -15.6642   24.4486 N   0  0  0  0  0  0  0  0  0  0  0  0
    9.1965  -15.7181   26.8330 C   0  0  0  0  0  0  0  0  0  0  0  0
   10.0768  -15.3535   27.6784 O   0  0  0  0  0  0  0  0  0  0  0  0
    8.5620  -16.9014   27.1041 O   0  0  0  0  0  0  0  0  0  0  0  0
  2  1  1  6
  3  2  1  0
  4  3  1  0
  4  5  2  0
  6  5  1  0
  7  6  1  0
  8  7  2  0
  8  4  1  0
  9  2  1  0
 10  9  2  0
 11  9  1  0
 12 11  1  0
 12 13  1  6
 13 14  1  0
 14 15  1  0
 16 15  1  0
 17 16  1  0
 18 12  1  0
 19 18  2  0
 21 20  1  0
 22 21  1  0
 23 22  1  0
 24 23  1  1
 24 25  1  0
 25 18  1  0
 26 24  1  0
 26 28  1  0
 27 26  2  0
M  END
$$$$
