HKM.pdb
     RDKit          3D

 28 28  0  0  1  0  0  0  0  0999 V2000
    6.9991  -16.6014   18.6439 N   0  0  0  0  0  0  0  0  0  0  0  0
    7.9382  -15.9730   19.5547 C   0  0  1  0  0  0  0  0  0  0  0  0
    7.9539  -14.4983   19.2918 C   0  0  0  0  0  0  0  0  0  0  0  0
    8.3947  -14.2581   17.9025 C   0  0  0  0  0  0  0  0  0  0  0  0
    7.8076  -13.4291   16.9427 C   0  0  0  0  0  0  0  0  0  0  0  0
    8.5457  -13.5220   15.8231 N   0  0  0  0  0  0  0  0  0  0  0  0
    9.5570  -14.3732   16.0629 C   0  0  0  0  0  0  0  0  0  0  0  0
    9.4751  -14.8204   17.3082 N   0  0  0  0  0  0  0  0  0  0  0  0
    7.5665  -16.2761   20.9672 C   0  0  0  0  0  0  0  0  0  0  0  0
    6.5402  -15.6965   21.4303 O   0  0  0  0  0  0  0  0  0  0  0  0
    8.3394  -17.1724   21.7350 N   0  0  0  0  0  0  0  0  0  0  0  0
    7.9911  -17.5074   23.1061 C   0  0  1  0  0  0  0  0  0  0  0  0
    8.4443  -18.8972   23.4522 C   0  0  0  0  0  0  0  0  0  0  0  0
    7.4401  -19.8847   23.0174 C   0  0  0  0  0  0  0  0  0  0  0  0
    7.8700  -21.3250   23.1674 C   0  0  0  0  0  0  0  0  0  0  0  0
    6.8113  -22.3065   22.7812 C   0  0  0  0  0  0  0  0  0  0  0  0
    7.3056  -23.6701   22.8348 N   0  0  0  0  0  0  0  0  0  0  0  0
    8.6818  -16.5265   23.9732 C   0  0  0  0  0  0  0  0  0  0  0  0
    9.8640  -16.1329   23.8155 O   0  0  0  0  0  0  0  0  0  0  0  0
    5.8249  -11.2438   26.2169 C   0  0  0  0  0  0  0  0  0  0  0  0
    6.8645  -11.6392   27.6398 S   0  0  0  0  0  0  0  0  0  0  0  0
    8.0379  -12.9405   27.2860 C   0  0  0  0  0  0  0  0  0  0  0  0
    7.6438  -13.9464   26.2856 C   0  0  0  0  0  0  0  0  0  0  0  0
    8.6613  -14.9733   25.9383 C   0  0  2  0  0  0  0  0  0  0  0  0
    7.9839  -15.9733   25.0705 N   0  0  0  0  0  0  0  0  0  0  0  0
    9.2922  -15.6839   27.0519 C   0  0  0  0  0  0  0  0  0  0  0  0
    8.8009  -16.8120   27.3814 O   0  0  0  0  0  0  0  0  0  0  0  0
   10.3717  -15.2656   27.7839 O   0  0  0  0  0  0  0  0  0  0  0  0
  2  1  1  6
  3  2  1  0
  4  3  1  0
  4  5  2  0
  6  5  1  0
  7  6  1  0
  8  7  2  0
  8  4  1  0
  9  2  1  0
 10  9  2  0
 11  9  1  0
 12 11  1  0
 12 13  1  1
 13 14  1  0
 14 15  1  0
 16 15  1  0
 17 16  1  0
 18 12  1  0
 19 18  2  0
 21 20  1  0
 22 21  1  0
 23 22  1  0
 24 23  1  1
 24 25  1  0
 25 18  1  0
 26 24  1  0
 26 28  1  0
 27 26  2  0
M  END
$$$$
