HKM.pdb
     RDKit          3D

 28 28  0  0  1  0  0  0  0  0999 V2000
    8.7001  -16.1049   20.1085 N   0  0  0  0  0  0  0  0  0  0  0  0
    8.0732  -15.2313   21.0831 C   0  0  1  0  0  0  0  0  0  0  0  0
    6.8628  -14.6038   20.4623 C   0  0  0  0  0  0  0  0  0  0  0  0
    7.2574  -13.9203   19.2136 C   0  0  0  0  0  0  0  0  0  0  0  0
    7.9286  -12.7028   19.0720 C   0  0  0  0  0  0  0  0  0  0  0  0
    8.0737  -12.4724   17.7556 N   0  0  0  0  0  0  0  0  0  0  0  0
    7.5183  -13.4997   17.0915 C   0  0  0  0  0  0  0  0  0  0  0  0
    7.0256  -14.3740   17.9578 N   0  0  0  0  0  0  0  0  0  0  0  0
    7.7248  -15.9991   22.3137 C   0  0  0  0  0  0  0  0  0  0  0  0
    7.0746  -15.3859   23.2110 O   0  0  0  0  0  0  0  0  0  0  0  0
    8.1133  -17.3484   22.4505 N   0  0  0  0  0  0  0  0  0  0  0  0
    7.9522  -18.0713   23.7015 C   0  0  1  0  0  0  0  0  0  0  0  0
    8.0344  -19.5548   23.4801 C   0  0  0  0  0  0  0  0  0  0  0  0
    6.7020  -20.1676   23.6280 C   0  0  0  0  0  0  0  0  0  0  0  0
    6.3084  -21.0937   22.5013 C   0  0  0  0  0  0  0  0  0  0  0  0
    4.9547  -21.7025   22.6753 C   0  0  0  0  0  0  0  0  0  0  0  0
    4.9516  -22.6985   23.7311 N   0  0  0  0  0  0  0  0  0  0  0  0
    9.0538  -17.6370   24.5897 C   0  0  0  0  0  0  0  0  0  0  0  0
   10.2546  -17.5173   24.2418 O   0  0  0  0  0  0  0  0  0  0  0  0
   10.7797  -12.9336   30.5728 C   0  0  0  0  0  0  0  0  0  0  0  0
    9.7628  -13.4234   29.1629 S   0  0  0  0  0  0  0  0  0  0  0  0
   10.2629  -14.9958   28.4753 C   0  0  0  0  0  0  0  0  0  0  0  0
    9.3960  -15.5820   27.4395 C   0  0  0  0  0  0  0  0  0  0  0  0
    9.8562  -16.8582   26.8311 C   0  0  2  0  0  0  0  0  0  0  0  0
    8.7636  -17.3269   25.9375 N   0  0  0  0  0  0  0  0  0  0  0  0
   10.1959  -17.9457   27.7504 C   0  0  0  0  0  0  0  0  0  0  0  0
    9.2961  -18.8153   27.9883 O   0  0  0  0  0  0  0  0  0  0  0  0
   11.3940  -18.1364   28.3863 O   0  0  0  0  0  0  0  0  0  0  0  0
  2  1  1  6
  3  2  1  0
  4  3  1  0
  4  5  2  0
  6  5  1  0
  7  6  1  0
  8  7  2  0
  8  4  1  0
  9  2  1  0
 10  9  2  0
 11  9  1  0
 12 11  1  0
 12 13  1  6
 13 14  1  0
 14 15  1  0
 16 15  1  0
 17 16  1  0
 18 12  1  0
 19 18  2  0
 21 20  1  0
 22 21  1  0
 23 22  1  0
 24 23  1  1
 24 25  1  0
 25 18  1  0
 26 24  1  0
 26 28  1  0
 27 26  2  0
M  END
$$$$
