HKM.pdb
     RDKit          3D

 28 28  0  0  1  0  0  0  0  0999 V2000
    6.6820  -16.7277   20.1148 N   0  0  0  0  0  0  0  0  0  0  0  0
    7.8600  -16.1712   20.7543 C   0  0  1  0  0  0  0  0  0  0  0  0
    7.6473  -14.7036   20.9665 C   0  0  0  0  0  0  0  0  0  0  0  0
    7.8801  -13.9908   19.6937 C   0  0  0  0  0  0  0  0  0  0  0  0
    8.2806  -14.5261   18.4665 C   0  0  0  0  0  0  0  0  0  0  0  0
    8.3664  -13.5094   17.5912 N   0  0  0  0  0  0  0  0  0  0  0  0
    8.0346  -12.3785   18.2361 C   0  0  0  0  0  0  0  0  0  0  0  0
    7.7411  -12.6570   19.4986 N   0  0  0  0  0  0  0  0  0  0  0  0
    8.1312  -16.8792   22.0390 C   0  0  0  0  0  0  0  0  0  0  0  0
    7.1283  -17.2092   22.7383 O   0  0  0  0  0  0  0  0  0  0  0  0
    9.4554  -17.1583   22.4376 N   0  0  0  0  0  0  0  0  0  0  0  0
    9.7571  -17.7899   23.7118 C   0  0  1  0  0  0  0  0  0  0  0  0
   10.7882  -18.8698   23.5462 C   0  0  0  0  0  0  0  0  0  0  0  0
   12.0453  -18.3003   23.0287 C   0  0  0  0  0  0  0  0  0  0  0  0
   13.0812  -19.3248   22.6297 C   0  0  0  0  0  0  0  0  0  0  0  0
   14.3338  -18.7232   22.0798 C   0  0  0  0  0  0  0  0  0  0  0  0
   15.2348  -19.7420   21.5730 N   0  0  0  0  0  0  0  0  0  0  0  0
   10.2835  -16.7287   24.5995 C   0  0  0  0  0  0  0  0  0  0  0  0
   10.8528  -15.6798   24.2087 O   0  0  0  0  0  0  0  0  0  0  0  0
    6.7652  -11.2927   27.5192 C   0  0  0  0  0  0  0  0  0  0  0  0
    7.0996  -12.7468   26.5015 S   0  0  0  0  0  0  0  0  0  0  0  0
    8.4466  -13.7320   27.1422 C   0  0  0  0  0  0  0  0  0  0  0  0
    8.8613  -14.9002   26.3475 C   0  0  0  0  0  0  0  0  0  0  0  0
   10.0278  -15.6697   26.8551 C   0  0  2  0  0  0  0  0  0  0  0  0
   10.1505  -16.8792   25.9984 N   0  0  0  0  0  0  0  0  0  0  0  0
    9.9796  -16.1003   28.2534 C   0  0  0  0  0  0  0  0  0  0  0  0
   10.3962  -15.2802   29.1344 O   0  0  0  0  0  0  0  0  0  0  0  0
    9.5231  -17.3027   28.7248 O   0  0  0  0  0  0  0  0  0  0  0  0
  2  1  1  1
  3  2  1  0
  4  3  1  0
  4  5  2  0
  6  5  1  0
  7  6  1  0
  8  7  2  0
  8  4  1  0
  9  2  1  0
 10  9  2  0
 11  9  1  0
 12 11  1  0
 12 13  1  6
 13 14  1  0
 14 15  1  0
 16 15  1  0
 17 16  1  0
 18 12  1  0
 19 18  2  0
 21 20  1  0
 22 21  1  0
 23 22  1  0
 24 23  1  6
 24 25  1  0
 25 18  1  0
 26 24  1  0
 26 28  1  0
 27 26  2  0
M  END
$$$$
