HKM.pdb
     RDKit          3D

 28 28  0  0  1  0  0  0  0  0999 V2000
   10.5017  -19.0301   18.5993 N   0  0  0  0  0  0  0  0  0  0  0  0
   10.3386  -17.5993   18.7789 C   0  0  1  0  0  0  0  0  0  0  0  0
    9.9855  -16.9834   17.4598 C   0  0  0  0  0  0  0  0  0  0  0  0
   11.0927  -17.2075   16.5080 C   0  0  0  0  0  0  0  0  0  0  0  0
   12.4259  -16.8054   16.6260 C   0  0  0  0  0  0  0  0  0  0  0  0
   13.0731  -17.2245   15.5249 N   0  0  0  0  0  0  0  0  0  0  0  0
   12.1881  -17.8646   14.7427 C   0  0  0  0  0  0  0  0  0  0  0  0
   10.9967  -17.8598   15.3240 N   0  0  0  0  0  0  0  0  0  0  0  0
    9.2964  -17.3255   19.8105 C   0  0  0  0  0  0  0  0  0  0  0  0
    8.3949  -16.4879   19.5111 O   0  0  0  0  0  0  0  0  0  0  0  0
    9.3334  -17.9825   21.0584 N   0  0  0  0  0  0  0  0  0  0  0  0
    8.2868  -17.8043   22.0517 C   0  0  1  0  0  0  0  0  0  0  0  0
    8.0135  -19.0886   22.7815 C   0  0  0  0  0  0  0  0  0  0  0  0
    6.9575  -19.8523   22.0929 C   0  0  0  0  0  0  0  0  0  0  0  0
    6.6485  -21.1950   22.7123 C   0  0  0  0  0  0  0  0  0  0  0  0
    5.6505  -21.9933   21.9376 C   0  0  0  0  0  0  0  0  0  0  0  0
    5.4308  -23.2963   22.5382 N   0  0  0  0  0  0  0  0  0  0  0  0
    8.7735  -16.7819   23.0050 C   0  0  0  0  0  0  0  0  0  0  0  0
    9.9538  -16.6925   23.4247 O   0  0  0  0  0  0  0  0  0  0  0  0
    6.4125  -10.5812   27.4236 C   0  0  0  0  0  0  0  0  0  0  0  0
    6.0150  -11.7920   26.1438 S   0  0  0  0  0  0  0  0  0  0  0  0
    7.3283  -12.9792   25.8972 C   0  0  0  0  0  0  0  0  0  0  0  0
    7.1802  -13.9211   24.7751 C   0  0  0  0  0  0  0  0  0  0  0  0
    8.3158  -14.8493   24.5315 C   0  0  2  0  0  0  0  0  0  0  0  0
    7.8639  -15.8196   23.4988 N   0  0  0  0  0  0  0  0  0  0  0  0
    8.8141  -15.6031   25.6832 C   0  0  0  0  0  0  0  0  0  0  0  0
    9.8487  -15.1541   26.2751 O   0  0  0  0  0  0  0  0  0  0  0  0
    8.2781  -16.7506   26.2050 O   0  0  0  0  0  0  0  0  0  0  0  0
  2  1  1  6
  3  2  1  0
  4  3  1  0
  4  5  2  0
  6  5  1  0
  7  6  1  0
  8  7  2  0
  8  4  1  0
  9  2  1  0
 10  9  2  0
 11  9  1  0
 12 11  1  0
 12 13  1  1
 13 14  1  0
 14 15  1  0
 16 15  1  0
 17 16  1  0
 18 12  1  0
 19 18  2  0
 21 20  1  0
 22 21  1  0
 23 22  1  0
 24 23  1  1
 24 25  1  0
 25 18  1  0
 26 24  1  0
 26 28  1  0
 27 26  2  0
M  END
$$$$
