HKM.pdb
     RDKit          3D

 28 28  0  0  1  0  0  0  0  0999 V2000
    7.2423  -16.6649   19.7347 N   0  0  0  0  0  0  0  0  0  0  0  0
    8.1807  -15.8950   20.5303 C   0  0  1  0  0  0  0  0  0  0  0  0
    7.8053  -14.4468   20.4538 C   0  0  0  0  0  0  0  0  0  0  0  0
    7.9415  -13.9836   19.0577 C   0  0  0  0  0  0  0  0  0  0  0  0
    6.9407  -13.5105   18.2047 C   0  0  0  0  0  0  0  0  0  0  0  0
    7.5213  -13.2046   17.0315 N   0  0  0  0  0  0  0  0  0  0  0  0
    8.8337  -13.4723   17.1366 C   0  0  0  0  0  0  0  0  0  0  0  0
    9.0957  -13.9403   18.3489 N   0  0  0  0  0  0  0  0  0  0  0  0
    8.1875  -16.3879   21.9382 C   0  0  0  0  0  0  0  0  0  0  0  0
    7.0968  -16.3198   22.5781 O   0  0  0  0  0  0  0  0  0  0  0  0
    9.3691  -16.9033   22.5113 N   0  0  0  0  0  0  0  0  0  0  0  0
    9.3999  -17.4289   23.8664 C   0  0  1  0  0  0  0  0  0  0  0  0
   10.4157  -18.5283   23.9942 C   0  0  0  0  0  0  0  0  0  0  0  0
    9.9049  -19.7686   23.3832 C   0  0  0  0  0  0  0  0  0  0  0  0
   10.9060  -20.8984   23.3255 C   0  0  0  0  0  0  0  0  0  0  0  0
   10.3842  -22.1233   22.6468 C   0  0  0  0  0  0  0  0  0  0  0  0
   11.3527  -23.2037   22.6816 N   0  0  0  0  0  0  0  0  0  0  0  0
    9.7694  -16.3020   24.7523 C   0  0  0  0  0  0  0  0  0  0  0  0
   10.6281  -15.4260   24.4831 O   0  0  0  0  0  0  0  0  0  0  0  0
    6.3778  -11.6058   26.2534 C   0  0  0  0  0  0  0  0  0  0  0  0
    7.0592  -11.8457   27.9087 S   0  0  0  0  0  0  0  0  0  0  0  0
    8.3971  -13.0309   27.9299 C   0  0  0  0  0  0  0  0  0  0  0  0
    8.3016  -14.1683   26.9996 C   0  0  0  0  0  0  0  0  0  0  0  0
    9.4931  -15.0526   26.9056 C   0  0  2  0  0  0  0  0  0  0  0  0
    9.1244  -16.1760   26.0034 N   0  0  0  0  0  0  0  0  0  0  0  0
    9.9997  -15.6167   28.1579 C   0  0  0  0  0  0  0  0  0  0  0  0
    9.7081  -16.8296   28.4152 O   0  0  0  0  0  0  0  0  0  0  0  0
   10.7691  -14.9760   29.0927 O   0  0  0  0  0  0  0  0  0  0  0  0
  2  1  1  6
  3  2  1  0
  4  3  1  0
  4  5  2  0
  6  5  1  0
  7  6  1  0
  8  7  2  0
  8  4  1  0
  9  2  1  0
 10  9  2  0
 11  9  1  0
 12 11  1  0
 12 13  1  6
 13 14  1  0
 14 15  1  0
 16 15  1  0
 17 16  1  0
 18 12  1  0
 19 18  2  0
 21 20  1  0
 22 21  1  0
 23 22  1  0
 24 23  1  1
 24 25  1  0
 25 18  1  0
 26 24  1  0
 26 28  1  0
 27 26  2  0
M  END
$$$$
