HKM.pdb
     RDKit          3D

 28 28  0  0  1  0  0  0  0  0999 V2000
    8.9575  -16.1107   18.7995 N   0  0  0  0  0  0  0  0  0  0  0  0
    8.0306  -15.1132   19.3013 C   0  0  1  0  0  0  0  0  0  0  0  0
    6.9598  -14.8895   18.2778 C   0  0  0  0  0  0  0  0  0  0  0  0
    7.5891  -14.6027   16.9724 C   0  0  0  0  0  0  0  0  0  0  0  0
    8.9486  -14.6163   16.6490 C   0  0  0  0  0  0  0  0  0  0  0  0
    9.0577  -14.2928   15.3489 N   0  0  0  0  0  0  0  0  0  0  0  0
    7.8205  -14.0831   14.8690 C   0  0  0  0  0  0  0  0  0  0  0  0
    6.9322  -14.2667   15.8358 N   0  0  0  0  0  0  0  0  0  0  0  0
    7.4597  -15.5521   20.6077 C   0  0  0  0  0  0  0  0  0  0  0  0
    6.6041  -14.7906   21.1479 O   0  0  0  0  0  0  0  0  0  0  0  0
    7.8700  -16.7663   21.1974 N   0  0  0  0  0  0  0  0  0  0  0  0
    7.3375  -17.2200   22.4718 C   0  0  1  0  0  0  0  0  0  0  0  0
    7.6775  -18.6631   22.7138 C   0  0  0  0  0  0  0  0  0  0  0  0
    7.1725  -19.0926   24.0303 C   0  0  0  0  0  0  0  0  0  0  0  0
    7.4736  -20.5311   24.3793 C   0  0  0  0  0  0  0  0  0  0  0  0
    6.8590  -20.9733   25.6677 C   0  0  0  0  0  0  0  0  0  0  0  0
    7.1104  -22.3800   25.9214 N   0  0  0  0  0  0  0  0  0  0  0  0
    7.9601  -16.3779   23.5180 C   0  0  0  0  0  0  0  0  0  0  0  0
    9.1957  -16.2704   23.7150 O   0  0  0  0  0  0  0  0  0  0  0  0
    6.4541  -10.0761   28.0842 C   0  0  0  0  0  0  0  0  0  0  0  0
    5.8802  -11.2787   26.8651 S   0  0  0  0  0  0  0  0  0  0  0  0
    7.0500  -12.6070   26.6150 C   0  0  0  0  0  0  0  0  0  0  0  0
    6.7018  -13.6288   25.6136 C   0  0  0  0  0  0  0  0  0  0  0  0
    7.7375  -14.6551   25.3226 C   0  0  2  0  0  0  0  0  0  0  0  0
    7.1263  -15.6264   24.3766 N   0  0  0  0  0  0  0  0  0  0  0  0
    8.2712  -15.3998   26.4644 C   0  0  0  0  0  0  0  0  0  0  0  0
    9.1476  -14.8205   27.1847 O   0  0  0  0  0  0  0  0  0  0  0  0
    7.9216  -16.6662   26.8519 O   0  0  0  0  0  0  0  0  0  0  0  0
  2  1  1  6
  3  2  1  0
  4  3  1  0
  4  5  2  0
  6  5  1  0
  7  6  1  0
  8  7  2  0
  8  4  1  0
  9  2  1  0
 10  9  2  0
 11  9  1  0
 12 11  1  0
 12 13  1  1
 13 14  1  0
 14 15  1  0
 16 15  1  0
 17 16  1  0
 18 12  1  0
 19 18  2  0
 21 20  1  0
 22 21  1  0
 23 22  1  0
 24 23  1  1
 24 25  1  0
 25 18  1  0
 26 24  1  0
 26 28  1  0
 27 26  2  0
M  END
$$$$
