QCD.pdb
     RDKit          3D

 24 23  0  0  1  0  0  0  0  0999 V2000
   15.3334  -14.6198  -15.3626 N   0  0  0  0  0  0  0  0  0  0  0  0
   16.7298  -14.3356  -15.3055 C   0  0  0  0  0  0  0  0  0  0  0  0
   17.3713  -14.6292  -14.2692 O   0  0  0  0  0  0  0  0  0  0  0  0
   17.4521  -13.7086  -16.4299 C   0  0  0  0  0  0  0  0  0  0  0  0
   17.0499  -12.2960  -16.7094 C   0  0  0  0  0  0  0  0  0  0  0  0
   18.0824  -11.2544  -16.5684 C   0  0  2  0  0  0  0  0  0  0  0  0
   19.1929  -11.5736  -15.7129 N   0  0  0  0  0  0  0  0  0  0  0  0
   17.5594   -9.9130  -16.2156 C   0  0  0  0  0  0  0  0  0  0  0  0
   16.5625   -9.4808  -16.8431 O   0  0  0  0  0  0  0  0  0  0  0  0
   18.1176   -9.0935  -15.2152 N   0  0  0  0  0  0  0  0  0  0  0  0
   17.5911   -7.7658  -14.8727 C   0  0  1  0  0  0  0  0  0  0  0  0
   17.5443   -7.7359  -13.3469 C   0  0  0  0  0  0  0  0  0  0  0  0
   16.2547   -8.7923  -12.7192 S   0  0  0  0  0  0  0  0  0  0  0  0
   18.4312   -6.7071  -15.4497 C   0  0  0  0  0  0  0  0  0  0  0  0
   19.6640   -6.6776  -15.1028 O   0  0  0  0  0  0  0  0  0  0  0  0
   17.9879   -5.7196  -16.3592 N   0  0  0  0  0  0  0  0  0  0  0  0
   18.9462   -4.7984  -16.9400 C   0  0  1  0  0  0  0  0  0  0  0  0
   18.7826   -4.6742  -18.4295 C   0  0  0  0  0  0  0  0  0  0  0  0
   19.4020   -5.8724  -19.0528 C   0  0  0  0  0  0  0  0  0  0  0  0
   20.3944   -6.3856  -18.4798 O   0  0  0  0  0  0  0  0  0  0  0  0
   18.8447   -3.4647  -16.3003 C   0  0  0  0  0  0  0  0  0  0  0  0
   17.9931   -3.2470  -15.4084 O   0  0  0  0  0  0  0  0  0  0  0  0
   18.9339   -6.4388  -20.2272 O   0  0  0  0  0  0  0  0  0  0  0  0
   19.6883   -2.4408  -16.6782 O   0  0  0  0  0  0  0  0  0  0  0  0
  2  1  1  0
  3  2  2  0
  4  2  1  0
  5  4  1  0
  6  7  1  1
  6  8  1  0
  6  5  1  0
  8 10  1  0
  8  9  2  0
 10 11  1  0
 11 14  1  0
 12 13  1  0
 11 12  1  1
 14 16  1  0
 14 15  2  0
 16 17  1  0
 17 21  1  0
 17 18  1  6
 19 18  1  0
 20 19  2  0
 21 22  2  0
 21 24  1  0
 23 19  1  0
M  END
$$$$
