QCD.pdb
     RDKit          3D

 24 23  0  0  1  0  0  0  0  0999 V2000
   18.0690  -15.5591  -18.4120 N   0  0  0  0  0  0  0  0  0  0  0  0
   17.7839  -14.2808  -17.8475 C   0  0  0  0  0  0  0  0  0  0  0  0
   16.9359  -14.1940  -16.9283 O   0  0  0  0  0  0  0  0  0  0  0  0
   18.4577  -13.0499  -18.3059 C   0  0  0  0  0  0  0  0  0  0  0  0
   19.1557  -12.2901  -17.2239 C   0  0  0  0  0  0  0  0  0  0  0  0
   20.6274  -12.3524  -17.1900 C   0  0  2  0  0  0  0  0  0  0  0  0
   21.2046  -13.6647  -17.0835 N   0  0  0  0  0  0  0  0  0  0  0  0
   21.2587  -11.4550  -16.1933 C   0  0  0  0  0  0  0  0  0  0  0  0
   20.9095  -11.5622  -14.9928 O   0  0  0  0  0  0  0  0  0  0  0  0
   22.2295  -10.4867  -16.5158 N   0  0  0  0  0  0  0  0  0  0  0  0
   22.8225   -9.5776  -15.5263 C   0  0  1  0  0  0  0  0  0  0  0  0
   24.3316   -9.7091  -15.7168 C   0  0  0  0  0  0  0  0  0  0  0  0
   24.9545  -11.1868  -14.9413 S   0  0  0  0  0  0  0  0  0  0  0  0
   22.3294   -8.2064  -15.7168 C   0  0  0  0  0  0  0  0  0  0  0  0
   22.2534   -7.7685  -16.9183 O   0  0  0  0  0  0  0  0  0  0  0  0
   21.9300   -7.3324  -14.6798 N   0  0  0  0  0  0  0  0  0  0  0  0
   21.5203   -5.9785  -15.0017 C   0  0  1  0  0  0  0  0  0  0  0  0
   20.0244   -5.8366  -15.0560 C   0  0  0  0  0  0  0  0  0  0  0  0
   19.7179   -4.4338  -15.4385 C   0  0  0  0  0  0  0  0  0  0  0  0
   20.0284   -4.0597  -16.5962 O   0  0  0  0  0  0  0  0  0  0  0  0
   22.0919   -5.0136  -14.0319 C   0  0  0  0  0  0  0  0  0  0  0  0
   22.4186   -5.3825  -12.8807 O   0  0  0  0  0  0  0  0  0  0  0  0
   19.1108   -3.5332  -14.5787 O   0  0  0  0  0  0  0  0  0  0  0  0
   22.2732   -3.6921  -14.3831 O   0  0  0  0  0  0  0  0  0  0  0  0
  2  1  1  0
  3  2  2  0
  4  2  1  0
  5  4  1  0
  6  7  1  1
  6  8  1  0
  6  5  1  0
  8 10  1  0
  8  9  2  0
 10 11  1  0
 11 14  1  0
 12 13  1  0
 11 12  1  6
 14 16  1  0
 14 15  2  0
 16 17  1  0
 17 21  1  0
 17 18  1  1
 19 18  1  0
 20 19  2  0
 21 22  2  0
 21 24  1  0
 23 19  1  0
M  END
$$$$
