QCD.pdb
     RDKit          3D

 24 23  0  0  1  0  0  0  0  0999 V2000
   18.1598  -15.6158  -15.0337 N   0  0  0  0  0  0  0  0  0  0  0  0
   17.1622  -14.9418  -15.7983 C   0  0  0  0  0  0  0  0  0  0  0  0
   16.1494  -15.5766  -16.1762 O   0  0  0  0  0  0  0  0  0  0  0  0
   17.2774  -13.5151  -16.1593 C   0  0  0  0  0  0  0  0  0  0  0  0
   18.4501  -12.8177  -15.5481 C   0  0  0  0  0  0  0  0  0  0  0  0
   19.0754  -11.7319  -16.3234 C   0  0  2  0  0  0  0  0  0  0  0  0
   19.6233  -12.0988  -17.6009 N   0  0  0  0  0  0  0  0  0  0  0  0
   20.0728  -10.9339  -15.5712 C   0  0  0  0  0  0  0  0  0  0  0  0
   20.4144  -11.3325  -14.4315 O   0  0  0  0  0  0  0  0  0  0  0  0
   20.6605   -9.7517  -16.0621 N   0  0  0  0  0  0  0  0  0  0  0  0
   21.6011   -8.9347  -15.2843 C   0  0  1  0  0  0  0  0  0  0  0  0
   22.9854   -9.3164  -15.8029 C   0  0  0  0  0  0  0  0  0  0  0  0
   23.0903   -9.1201  -17.5703 S   0  0  0  0  0  0  0  0  0  0  0  0
   21.2975   -7.5047  -15.4348 C   0  0  0  0  0  0  0  0  0  0  0  0
   21.0936   -7.0667  -16.6212 O   0  0  0  0  0  0  0  0  0  0  0  0
   21.2103   -6.5740  -14.3741 N   0  0  0  0  0  0  0  0  0  0  0  0
   21.0405   -5.1641  -14.6702 C   0  0  1  0  0  0  0  0  0  0  0  0
   19.6819   -4.6599  -14.2689 C   0  0  0  0  0  0  0  0  0  0  0  0
   19.5969   -3.2298  -14.6631 C   0  0  0  0  0  0  0  0  0  0  0  0
   20.3306   -2.8351  -15.6025 O   0  0  0  0  0  0  0  0  0  0  0  0
   22.0998   -4.3599  -14.0148 C   0  0  0  0  0  0  0  0  0  0  0  0
   22.8003   -4.8503  -13.1000 O   0  0  0  0  0  0  0  0  0  0  0  0
   18.7505   -2.3256  -14.0426 O   0  0  0  0  0  0  0  0  0  0  0  0
   22.3307   -3.0566  -14.4032 O   0  0  0  0  0  0  0  0  0  0  0  0
  2  1  1  0
  3  2  2  0
  4  2  1  0
  5  4  1  0
  6  7  1  6
  6  8  1  0
  6  5  1  0
  8 10  1  0
  8  9  2  0
 10 11  1  0
 11 14  1  0
 12 13  1  0
 11 12  1  6
 14 16  1  0
 14 15  2  0
 16 17  1  0
 17 21  1  0
 17 18  1  1
 19 18  1  0
 20 19  2  0
 21 22  2  0
 21 24  1  0
 23 19  1  0
M  END
$$$$
