QCD.pdb
     RDKit          3D

 24 23  0  0  1  0  0  0  0  0999 V2000
   15.4402  -10.2578  -14.8373 N   0  0  0  0  0  0  0  0  0  0  0  0
   14.6902  -10.4118  -13.6341 C   0  0  0  0  0  0  0  0  0  0  0  0
   13.7725  -11.2648  -13.5909 O   0  0  0  0  0  0  0  0  0  0  0  0
   14.9592   -9.6016  -12.4297 C   0  0  0  0  0  0  0  0  0  0  0  0
   16.0858   -8.6302  -12.5797 C   0  0  0  0  0  0  0  0  0  0  0  0
   17.3730   -8.9798  -11.9537 C   0  0  2  0  0  0  0  0  0  0  0  0
   17.3449   -9.2187  -10.5363 N   0  0  0  0  0  0  0  0  0  0  0  0
   18.4851   -8.0538  -12.2745 C   0  0  0  0  0  0  0  0  0  0  0  0
   18.7861   -7.1734  -11.4326 O   0  0  0  0  0  0  0  0  0  0  0  0
   19.2252   -8.1044  -13.4719 N   0  0  0  0  0  0  0  0  0  0  0  0
   20.3262   -7.1824  -13.7799 C   0  0  1  0  0  0  0  0  0  0  0  0
   21.3985   -8.0465  -14.4390 C   0  0  0  0  0  0  0  0  0  0  0  0
   22.3169   -8.9735  -13.2264 S   0  0  0  0  0  0  0  0  0  0  0  0
   19.8604   -6.0810  -14.6340 C   0  0  0  0  0  0  0  0  0  0  0  0
   19.1583   -6.3873  -15.6608 O   0  0  0  0  0  0  0  0  0  0  0  0
   20.1235   -4.7098  -14.4118 N   0  0  0  0  0  0  0  0  0  0  0  0
   19.5184   -3.7148  -15.2767 C   0  0  1  0  0  0  0  0  0  0  0  0
   18.3909   -2.9854  -14.5999 C   0  0  0  0  0  0  0  0  0  0  0  0
   17.8239   -2.0229  -15.5796 C   0  0  0  0  0  0  0  0  0  0  0  0
   18.1910   -2.1184  -16.7766 O   0  0  0  0  0  0  0  0  0  0  0  0
   20.5365   -2.7506  -15.7584 C   0  0  0  0  0  0  0  0  0  0  0  0
   21.6232   -2.6126  -15.1518 O   0  0  0  0  0  0  0  0  0  0  0  0
   16.9172   -1.0359  -15.2290 O   0  0  0  0  0  0  0  0  0  0  0  0
   20.3022   -1.9890  -16.8844 O   0  0  0  0  0  0  0  0  0  0  0  0
  2  1  1  0
  3  2  2  0
  4  2  1  0
  5  4  1  0
  6  7  1  1
  6  8  1  0
  6  5  1  0
  8 10  1  0
  8  9  2  0
 10 11  1  0
 11 14  1  0
 12 13  1  0
 11 12  1  6
 14 16  1  0
 14 15  2  0
 16 17  1  0
 17 21  1  0
 17 18  1  1
 19 18  1  0
 20 19  2  0
 21 22  2  0
 21 24  1  0
 23 19  1  0
M  END
$$$$
