QCD.pdb
     RDKit          3D

 24 23  0  0  1  0  0  0  0  0999 V2000
   15.3241  -14.1450  -14.6055 N   0  0  0  0  0  0  0  0  0  0  0  0
   15.6431  -14.3937  -15.9731 C   0  0  0  0  0  0  0  0  0  0  0  0
   15.0292  -15.2966  -16.5894 O   0  0  0  0  0  0  0  0  0  0  0  0
   16.6725  -13.6199  -16.6946 C   0  0  0  0  0  0  0  0  0  0  0  0
   17.3423  -12.5674  -15.8707 C   0  0  0  0  0  0  0  0  0  0  0  0
   18.3738  -11.7446  -16.5264 C   0  0  2  0  0  0  0  0  0  0  0  0
   19.1706  -12.4035  -17.5253 N   0  0  0  0  0  0  0  0  0  0  0  0
   19.2622  -11.0121  -15.5928 C   0  0  0  0  0  0  0  0  0  0  0  0
   19.1521  -11.2431  -14.3644 O   0  0  0  0  0  0  0  0  0  0  0  0
   20.2247  -10.0700  -16.0051 N   0  0  0  0  0  0  0  0  0  0  0  0
   21.1017   -9.3509  -15.0719 C   0  0  1  0  0  0  0  0  0  0  0  0
   22.5037   -9.8901  -15.3451 C   0  0  0  0  0  0  0  0  0  0  0  0
   23.7433   -8.9192  -14.5119 S   0  0  0  0  0  0  0  0  0  0  0  0
   20.9892   -7.8984  -15.2648 C   0  0  0  0  0  0  0  0  0  0  0  0
   21.0361   -7.4577  -16.4667 O   0  0  0  0  0  0  0  0  0  0  0  0
   20.8311   -6.9485  -14.2297 N   0  0  0  0  0  0  0  0  0  0  0  0
   20.7829   -5.5357  -14.5550 C   0  0  1  0  0  0  0  0  0  0  0  0
   19.5867   -4.8548  -13.9495 C   0  0  0  0  0  0  0  0  0  0  0  0
   19.6111   -3.4329  -14.3800 C   0  0  0  0  0  0  0  0  0  0  0  0
   19.0516   -3.1381  -15.4647 O   0  0  0  0  0  0  0  0  0  0  0  0
   22.0299   -4.8569  -14.1276 C   0  0  0  0  0  0  0  0  0  0  0  0
   22.5163   -5.0691  -12.9933 O   0  0  0  0  0  0  0  0  0  0  0  0
   20.2196   -2.4315  -13.6410 O   0  0  0  0  0  0  0  0  0  0  0  0
   22.6750   -3.9794  -14.9742 O   0  0  0  0  0  0  0  0  0  0  0  0
  2  1  1  0
  3  2  2  0
  4  2  1  0
  5  4  1  0
  6  7  1  1
  6  8  1  0
  6  5  1  0
  8 10  1  0
  8  9  2  0
 10 11  1  0
 11 14  1  0
 12 13  1  0
 11 12  1  6
 14 16  1  0
 14 15  2  0
 16 17  1  0
 17 21  1  0
 17 18  1  1
 19 18  1  0
 20 19  2  0
 21 22  2  0
 21 24  1  0
 23 19  1  0
M  END
$$$$
