QCD.pdb
     RDKit          3D

 24 23  0  0  1  0  0  0  0  0999 V2000
   15.9695  -11.6022  -17.5704 N   0  0  0  0  0  0  0  0  0  0  0  0
   16.8578  -12.6945  -17.3433 C   0  0  0  0  0  0  0  0  0  0  0  0
   16.6617  -13.7770  -17.9446 O   0  0  0  0  0  0  0  0  0  0  0  0
   18.0086  -12.5952  -16.4240 C   0  0  0  0  0  0  0  0  0  0  0  0
   18.1439  -11.2689  -15.7474 C   0  0  0  0  0  0  0  0  0  0  0  0
   19.2881  -10.4235  -16.1309 C   0  0  2  0  0  0  0  0  0  0  0  0
   20.5697  -11.0733  -16.1773 N   0  0  0  0  0  0  0  0  0  0  0  0
   19.4045   -9.1603  -15.3640 C   0  0  0  0  0  0  0  0  0  0  0  0
   18.3495   -8.5624  -15.0415 O   0  0  0  0  0  0  0  0  0  0  0  0
   20.6327   -8.5907  -14.9756 N   0  0  0  0  0  0  0  0  0  0  0  0
   20.7407   -7.3005  -14.2822 C   0  0  1  0  0  0  0  0  0  0  0  0
   21.8769   -7.4803  -13.2782 C   0  0  0  0  0  0  0  0  0  0  0  0
   22.3584   -5.9223  -12.5613 S   0  0  0  0  0  0  0  0  0  0  0  0
   20.9780   -6.2119  -15.2404 C   0  0  0  0  0  0  0  0  0  0  0  0
   21.8221   -6.4265  -16.1797 O   0  0  0  0  0  0  0  0  0  0  0  0
   20.3472   -4.9470  -15.2096 N   0  0  0  0  0  0  0  0  0  0  0  0
   20.7075   -3.9425  -16.1922 C   0  0  1  0  0  0  0  0  0  0  0  0
   19.5379   -3.5406  -17.0475 C   0  0  0  0  0  0  0  0  0  0  0  0
   20.0270   -2.5552  -18.0463 C   0  0  0  0  0  0  0  0  0  0  0  0
   21.2476   -2.2613  -18.0321 O   0  0  0  0  0  0  0  0  0  0  0  0
   21.2935   -2.7509  -15.5325 C   0  0  0  0  0  0  0  0  0  0  0  0
   21.0476   -2.5005  -14.3305 O   0  0  0  0  0  0  0  0  0  0  0  0
   19.1995   -1.9548  -18.9811 O   0  0  0  0  0  0  0  0  0  0  0  0
   22.1202   -1.8980  -16.2338 O   0  0  0  0  0  0  0  0  0  0  0  0
  2  1  1  0
  3  2  2  0
  4  2  1  0
  5  4  1  0
  6  7  1  1
  6  8  1  0
  6  5  1  0
  8 10  1  0
  8  9  2  0
 10 11  1  0
 11 14  1  0
 12 13  1  0
 11 12  1  1
 14 16  1  0
 14 15  2  0
 16 17  1  0
 17 21  1  0
 17 18  1  1
 19 18  1  0
 20 19  2  0
 21 22  2  0
 21 24  1  0
 23 19  1  0
M  END
$$$$
