QCD.pdb
     RDKit          3D

 24 23  0  0  1  0  0  0  0  0999 V2000
   16.8479  -12.0353  -13.9935 N   0  0  0  0  0  0  0  0  0  0  0  0
   15.5667  -12.3450  -14.5381 C   0  0  0  0  0  0  0  0  0  0  0  0
   15.2840  -13.5392  -14.7942 O   0  0  0  0  0  0  0  0  0  0  0  0
   14.5542  -11.3054  -14.8088 C   0  0  0  0  0  0  0  0  0  0  0  0
   14.9539   -9.9298  -14.3807 C   0  0  0  0  0  0  0  0  0  0  0  0
   14.7487   -9.5713  -12.9664 C   0  0  2  0  0  0  0  0  0  0  0  0
   13.3881   -9.5740  -12.5022 N   0  0  0  0  0  0  0  0  0  0  0  0
   15.4084   -8.3112  -12.5489 C   0  0  0  0  0  0  0  0  0  0  0  0
   15.2386   -7.2894  -13.2571 O   0  0  0  0  0  0  0  0  0  0  0  0
   16.2165   -8.1937  -11.4013 N   0  0  0  0  0  0  0  0  0  0  0  0
   16.8972   -6.9501  -11.0173 C   0  0  1  0  0  0  0  0  0  0  0  0
   16.8677   -6.9334   -9.4909 C   0  0  0  0  0  0  0  0  0  0  0  0
   17.8925   -5.6303   -8.8390 S   0  0  0  0  0  0  0  0  0  0  0  0
   18.2567   -6.9067  -11.5734 C   0  0  0  0  0  0  0  0  0  0  0  0
   18.9183   -8.0033  -11.6002 O   0  0  0  0  0  0  0  0  0  0  0  0
   18.8923   -5.7514  -12.0834 N   0  0  0  0  0  0  0  0  0  0  0  0
   20.1881   -5.8704  -12.7245 C   0  0  1  0  0  0  0  0  0  0  0  0
   20.1891   -6.9077  -13.8130 C   0  0  0  0  0  0  0  0  0  0  0  0
   21.5308   -6.8904  -14.4514 C   0  0  0  0  0  0  0  0  0  0  0  0
   22.5365   -6.8259  -13.7026 O   0  0  0  0  0  0  0  0  0  0  0  0
   20.6281   -4.5612  -13.2637 C   0  0  0  0  0  0  0  0  0  0  0  0
   21.7711   -4.4248  -13.7565 O   0  0  0  0  0  0  0  0  0  0  0  0
   21.7137   -6.9417  -15.8236 O   0  0  0  0  0  0  0  0  0  0  0  0
   19.7837   -3.4709  -13.2308 O   0  0  0  0  0  0  0  0  0  0  0  0
  2  1  1  0
  3  2  2  0
  4  2  1  0
  5  4  1  0
  6  7  1  6
  6  8  1  0
  6  5  1  0
  8 10  1  0
  8  9  2  0
 10 11  1  0
 11 14  1  0
 12 13  1  0
 11 12  1  1
 14 16  1  0
 14 15  2  0
 16 17  1  0
 17 21  1  0
 17 18  1  6
 19 18  1  0
 20 19  2  0
 21 22  2  0
 21 24  1  0
 23 19  1  0
M  END
$$$$
