QCD.pdb
     RDKit          3D

 24 23  0  0  1  0  0  0  0  0999 V2000
   27.1890  -21.0349  -18.2051 N   0  0  0  0  0  0  0  0  0  0  0  0
   28.5282  -21.0046  -17.7156 C   0  0  0  0  0  0  0  0  0  0  0  0
   29.4527  -20.6536  -18.4862 O   0  0  0  0  0  0  0  0  0  0  0  0
   28.8668  -21.3696  -16.3259 C   0  0  0  0  0  0  0  0  0  0  0  0
   27.6954  -21.7862  -15.4955 C   0  0  0  0  0  0  0  0  0  0  0  0
   26.7857  -20.7277  -15.0235 C   0  0  2  0  0  0  0  0  0  0  0  0
   27.4075  -19.5712  -14.4381 N   0  0  0  0  0  0  0  0  0  0  0  0
   25.6965  -21.2023  -14.1370 C   0  0  0  0  0  0  0  0  0  0  0  0
   24.9821  -22.1551  -14.5323 O   0  0  0  0  0  0  0  0  0  0  0  0
   25.4161  -20.6449  -12.8742 N   0  0  0  0  0  0  0  0  0  0  0  0
   24.2898  -21.0737  -12.0347 C   0  0  1  0  0  0  0  0  0  0  0  0
   24.7231  -20.7749  -10.6016 C   0  0  0  0  0  0  0  0  0  0  0  0
   26.1811  -21.6988  -10.1613 S   0  0  0  0  0  0  0  0  0  0  0  0
   23.0545  -20.3802  -12.4256 C   0  0  0  0  0  0  0  0  0  0  0  0
   23.1748  -19.2702  -13.0537 O   0  0  0  0  0  0  0  0  0  0  0  0
   21.7436  -20.8414  -12.1657 N   0  0  0  0  0  0  0  0  0  0  0  0
   20.6554  -20.4344  -13.0343 C   0  0  1  0  0  0  0  0  0  0  0  0
   20.9190  -20.7805  -14.4737 C   0  0  0  0  0  0  0  0  0  0  0  0
   19.7868  -20.2535  -15.2789 C   0  0  0  0  0  0  0  0  0  0  0  0
   19.5631  -19.0186  -15.2397 O   0  0  0  0  0  0  0  0  0  0  0  0
   19.3760  -21.0365  -12.5884 C   0  0  0  0  0  0  0  0  0  0  0  0
   19.2638  -22.2771  -12.4611 O   0  0  0  0  0  0  0  0  0  0  0  0
   18.9779  -21.0611  -16.0616 O   0  0  0  0  0  0  0  0  0  0  0  0
   18.2871  -20.2379  -12.3063 O   0  0  0  0  0  0  0  0  0  0  0  0
  2  1  1  0
  3  2  2  0
  4  2  1  0
  5  4  1  0
  6  7  1  1
  6  8  1  0
  6  5  1  0
  8 10  1  0
  8  9  2  0
 10 11  1  0
 11 14  1  0
 12 13  1  0
 11 12  1  1
 14 16  1  0
 14 15  2  0
 16 17  1  0
 17 21  1  0
 17 18  1  6
 19 18  1  0
 20 19  2  0
 21 22  2  0
 21 24  1  0
 23 19  1  0
M  END
$$$$
