QCD.pdb
     RDKit          3D

 24 23  0  0  1  0  0  0  0  0999 V2000
   13.1158   -9.6460  -14.7425 N   0  0  0  0  0  0  0  0  0  0  0  0
   13.5961  -10.4031  -15.8517 C   0  0  0  0  0  0  0  0  0  0  0  0
   12.7735  -10.8740  -16.6722 O   0  0  0  0  0  0  0  0  0  0  0  0
   15.0346  -10.6503  -16.0721 C   0  0  0  0  0  0  0  0  0  0  0  0
   15.9342   -9.9697  -15.0910 C   0  0  0  0  0  0  0  0  0  0  0  0
   17.3859  -10.1651  -15.2503 C   0  0  2  0  0  0  0  0  0  0  0  0
   17.9141  -11.4142  -14.7735 N   0  0  0  0  0  0  0  0  0  0  0  0
   18.2171   -9.0509  -14.7354 C   0  0  0  0  0  0  0  0  0  0  0  0
   18.0300   -8.6669  -13.5555 O   0  0  0  0  0  0  0  0  0  0  0  0
   19.2066   -8.3967  -15.4948 N   0  0  0  0  0  0  0  0  0  0  0  0
   20.0394   -7.3073  -14.9684 C   0  0  1  0  0  0  0  0  0  0  0  0
   21.4652   -7.6554  -15.3889 C   0  0  0  0  0  0  0  0  0  0  0  0
   22.3013   -8.5918  -14.1250 S   0  0  0  0  0  0  0  0  0  0  0  0
   19.5827   -6.0078  -15.4804 C   0  0  0  0  0  0  0  0  0  0  0  0
   19.2583   -5.9425  -16.7180 O   0  0  0  0  0  0  0  0  0  0  0  0
   19.4705   -4.8241  -14.7156 N   0  0  0  0  0  0  0  0  0  0  0  0
   18.9763   -3.6116  -15.3400 C   0  0  1  0  0  0  0  0  0  0  0  0
   17.9355   -2.9247  -14.4999 C   0  0  0  0  0  0  0  0  0  0  0  0
   17.4223   -1.7660  -15.2757 C   0  0  0  0  0  0  0  0  0  0  0  0
   17.5684   -1.7833  -16.5227 O   0  0  0  0  0  0  0  0  0  0  0  0
   20.0928   -2.6815  -15.6347 C   0  0  0  0  0  0  0  0  0  0  0  0
   21.0099   -2.5000  -14.8015 O   0  0  0  0  0  0  0  0  0  0  0  0
   16.7967   -0.6804  -14.6849 O   0  0  0  0  0  0  0  0  0  0  0  0
   20.1389   -2.0004  -16.8333 O   0  0  0  0  0  0  0  0  0  0  0  0
  2  1  1  0
  3  2  2  0
  4  2  1  0
  5  4  1  0
  6  7  1  1
  6  8  1  0
  6  5  1  0
  8 10  1  0
  8  9  2  0
 10 11  1  0
 11 14  1  0
 12 13  1  0
 11 12  1  6
 14 16  1  0
 14 15  2  0
 16 17  1  0
 17 21  1  0
 17 18  1  1
 19 18  1  0
 20 19  2  0
 21 22  2  0
 21 24  1  0
 23 19  1  0
M  END
$$$$
