QCD.pdb
     RDKit          3D

 24 23  0  0  1  0  0  0  0  0999 V2000
   12.7593  -11.7445  -12.9630 N   0  0  0  0  0  0  0  0  0  0  0  0
   13.2359  -12.6800  -11.9978 C   0  0  0  0  0  0  0  0  0  0  0  0
   13.2764  -13.8973  -12.2948 O   0  0  0  0  0  0  0  0  0  0  0  0
   13.6896  -12.2645  -10.6560 C   0  0  0  0  0  0  0  0  0  0  0  0
   13.5116  -10.8080  -10.3691 C   0  0  0  0  0  0  0  0  0  0  0  0
   14.6737   -9.9267  -10.5789 C   0  0  2  0  0  0  0  0  0  0  0  0
   15.8949  -10.3222   -9.9317 N   0  0  0  0  0  0  0  0  0  0  0  0
   14.4154   -8.4925  -10.3077 C   0  0  0  0  0  0  0  0  0  0  0  0
   13.2408   -8.1411  -10.0404 O   0  0  0  0  0  0  0  0  0  0  0  0
   15.4135   -7.4990  -10.3327 N   0  0  0  0  0  0  0  0  0  0  0  0
   15.1764   -6.1064   -9.9306 C   0  0  1  0  0  0  0  0  0  0  0  0
   14.9406   -6.1604   -8.4231 C   0  0  0  0  0  0  0  0  0  0  0  0
   14.7240   -4.5278   -7.7440 S   0  0  0  0  0  0  0  0  0  0  0  0
   16.3107   -5.2534  -10.3117 C   0  0  0  0  0  0  0  0  0  0  0  0
   17.4825   -5.7673  -10.2487 O   0  0  0  0  0  0  0  0  0  0  0  0
   16.2119   -3.9111  -10.7447 N   0  0  0  0  0  0  0  0  0  0  0  0
   16.8075   -3.5202  -12.0084 C   0  0  1  0  0  0  0  0  0  0  0  0
   16.3224   -4.3693  -13.1507 C   0  0  0  0  0  0  0  0  0  0  0  0
   17.0077   -3.9013  -14.3833 C   0  0  0  0  0  0  0  0  0  0  0  0
   16.2950   -3.4821  -15.3282 O   0  0  0  0  0  0  0  0  0  0  0  0
   16.5484   -2.0875  -12.2886 C   0  0  0  0  0  0  0  0  0  0  0  0
   15.3977   -1.6098  -12.1627 O   0  0  0  0  0  0  0  0  0  0  0  0
   18.3852   -3.9094  -14.5296 O   0  0  0  0  0  0  0  0  0  0  0  0
   17.5726   -1.2568  -12.6931 O   0  0  0  0  0  0  0  0  0  0  0  0
  2  1  1  0
  3  2  2  0
  4  2  1  0
  5  4  1  0
  6  7  1  1
  6  8  1  0
  6  5  1  0
  8 10  1  0
  8  9  2  0
 10 11  1  0
 11 14  1  0
 12 13  1  0
 11 12  1  1
 14 16  1  0
 14 15  2  0
 16 17  1  0
 17 21  1  0
 17 18  1  6
 19 18  1  0
 20 19  2  0
 21 22  2  0
 21 24  1  0
 23 19  1  0
M  END
$$$$
