QCD.pdb
     RDKit          3D

 24 23  0  0  1  0  0  0  0  0999 V2000
   16.2344  -13.4783  -13.2102 N   0  0  0  0  0  0  0  0  0  0  0  0
   16.1152  -14.0488  -14.5118 C   0  0  0  0  0  0  0  0  0  0  0  0
   15.1233  -14.7689  -14.7749 O   0  0  0  0  0  0  0  0  0  0  0  0
   17.1207  -13.8178  -15.5676 C   0  0  0  0  0  0  0  0  0  0  0  0
   18.2348  -12.9043  -15.1681 C   0  0  0  0  0  0  0  0  0  0  0  0
   18.6281  -11.8534  -16.1231 C   0  0  2  0  0  0  0  0  0  0  0  0
   18.8372  -12.2763  -17.4811 N   0  0  0  0  0  0  0  0  0  0  0  0
   19.7738  -11.0211  -15.6850 C   0  0  0  0  0  0  0  0  0  0  0  0
   20.9314  -11.4862  -15.8204 O   0  0  0  0  0  0  0  0  0  0  0  0
   19.6387   -9.7361  -15.1244 N   0  0  0  0  0  0  0  0  0  0  0  0
   20.7818   -8.9108  -14.7127 C   0  0  1  0  0  0  0  0  0  0  0  0
   21.6259   -8.7399  -15.9734 C   0  0  0  0  0  0  0  0  0  0  0  0
   20.6534   -8.0963  -17.3199 S   0  0  0  0  0  0  0  0  0  0  0  0
   20.3256   -7.6364  -14.1408 C   0  0  0  0  0  0  0  0  0  0  0  0
   19.2228   -7.1543  -14.5794 O   0  0  0  0  0  0  0  0  0  0  0  0
   21.0057   -6.9006  -13.1433 N   0  0  0  0  0  0  0  0  0  0  0  0
   20.2747   -5.9421  -12.3363 C   0  0  1  0  0  0  0  0  0  0  0  0
   19.8146   -6.5327  -11.0323 C   0  0  0  0  0  0  0  0  0  0  0  0
   19.0241   -5.4949  -10.3210 C   0  0  0  0  0  0  0  0  0  0  0  0
   18.5144   -4.5736  -11.0051 O   0  0  0  0  0  0  0  0  0  0  0  0
   21.0946   -4.7316  -12.0898 C   0  0  0  0  0  0  0  0  0  0  0  0
   20.5810   -3.7018  -11.5959 O   0  0  0  0  0  0  0  0  0  0  0  0
   18.8298   -5.5032   -8.9494 O   0  0  0  0  0  0  0  0  0  0  0  0
   22.4384   -4.7208  -12.4011 O   0  0  0  0  0  0  0  0  0  0  0  0
  2  1  1  0
  3  2  2  0
  4  2  1  0
  5  4  1  0
  6  7  1  6
  6  8  1  0
  6  5  1  0
  8 10  1  0
  8  9  2  0
 10 11  1  0
 11 14  1  0
 12 13  1  0
 11 12  1  6
 14 16  1  0
 14 15  2  0
 16 17  1  0
 17 21  1  0
 17 18  1  1
 19 18  1  0
 20 19  2  0
 21 22  2  0
 21 24  1  0
 23 19  1  0
M  END
$$$$
