QCD.pdb
     RDKit          3D

 24 23  0  0  1  0  0  0  0  0999 V2000
   30.0885  -25.9562  -20.7938 N   0  0  0  0  0  0  0  0  0  0  0  0
   28.6996  -26.0454  -20.4822 C   0  0  0  0  0  0  0  0  0  0  0  0
   27.8607  -25.5872  -21.2932 O   0  0  0  0  0  0  0  0  0  0  0  0
   28.2111  -26.6646  -19.2344 C   0  0  0  0  0  0  0  0  0  0  0  0
   27.6114  -25.7004  -18.2618 C   0  0  0  0  0  0  0  0  0  0  0  0
   28.5323  -24.9671  -17.3757 C   0  0  2  0  0  0  0  0  0  0  0  0
   29.4221  -25.7696  -16.5814 N   0  0  0  0  0  0  0  0  0  0  0  0
   27.8797  -23.9545  -16.5120 C   0  0  0  0  0  0  0  0  0  0  0  0
   28.0248  -24.0519  -15.2694 O   0  0  0  0  0  0  0  0  0  0  0  0
   27.1044  -22.8872  -17.0056 N   0  0  0  0  0  0  0  0  0  0  0  0
   26.5753  -21.8129  -16.1552 C   0  0  1  0  0  0  0  0  0  0  0  0
   27.0120  -20.5158  -16.8319 C   0  0  0  0  0  0  0  0  0  0  0  0
   28.6105  -19.9890  -16.2487 S   0  0  0  0  0  0  0  0  0  0  0  0
   25.1177  -21.9319  -16.0113 C   0  0  0  0  0  0  0  0  0  0  0  0
   24.4279  -22.0614  -17.0829 O   0  0  0  0  0  0  0  0  0  0  0  0
   24.4159  -21.9170  -14.7840 N   0  0  0  0  0  0  0  0  0  0  0  0
   22.9693  -22.0256  -14.7845 C   0  0  1  0  0  0  0  0  0  0  0  0
   22.3885  -21.8702  -13.4063 C   0  0  0  0  0  0  0  0  0  0  0  0
   20.9334  -22.1576  -13.4949 C   0  0  0  0  0  0  0  0  0  0  0  0
   20.4860  -22.5920  -14.5848 O   0  0  0  0  0  0  0  0  0  0  0  0
   22.3698  -21.0329  -15.7083 C   0  0  0  0  0  0  0  0  0  0  0  0
   21.5835  -21.3955  -16.6130 O   0  0  0  0  0  0  0  0  0  0  0  0
   20.0612  -21.9674  -12.4356 O   0  0  0  0  0  0  0  0  0  0  0  0
   22.6693  -19.6920  -15.5855 O   0  0  0  0  0  0  0  0  0  0  0  0
  2  1  1  0
  3  2  2  0
  4  2  1  0
  5  4  1  0
  6  7  1  1
  6  8  1  0
  6  5  1  0
  8 10  1  0
  8  9  2  0
 10 11  1  0
 11 14  1  0
 12 13  1  0
 11 12  1  6
 14 16  1  0
 14 15  2  0
 16 17  1  0
 17 21  1  0
 17 18  1  1
 19 18  1  0
 20 19  2  0
 21 22  2  0
 21 24  1  0
 23 19  1  0
M  END
$$$$
