QCD.pdb
     RDKit          3D

 24 23  0  0  1  0  0  0  0  0999 V2000
   20.7293  -24.3490  -14.7844 N   0  0  0  0  0  0  0  0  0  0  0  0
   20.1001  -24.4154  -13.5062 C   0  0  0  0  0  0  0  0  0  0  0  0
   20.3237  -25.4018  -12.7655 O   0  0  0  0  0  0  0  0  0  0  0  0
   19.1935  -23.3570  -13.0193 C   0  0  0  0  0  0  0  0  0  0  0  0
   19.8843  -22.0999  -12.5977 C   0  0  0  0  0  0  0  0  0  0  0  0
   21.0365  -22.2293  -11.6884 C   0  0  2  0  0  0  0  0  0  0  0  0
   20.7809  -21.9643  -10.2987 N   0  0  0  0  0  0  0  0  0  0  0  0
   22.2452  -21.4858  -12.1168 C   0  0  0  0  0  0  0  0  0  0  0  0
   22.5246  -20.4154  -11.5245 O   0  0  0  0  0  0  0  0  0  0  0  0
   23.1000  -21.9114  -13.1522 N   0  0  0  0  0  0  0  0  0  0  0  0
   24.3044  -21.1753  -13.5585 C   0  0  1  0  0  0  0  0  0  0  0  0
   25.4067  -22.2283  -13.6430 C   0  0  0  0  0  0  0  0  0  0  0  0
   26.8669  -21.5739  -14.4256 S   0  0  0  0  0  0  0  0  0  0  0  0
   24.0792  -20.4659  -14.8255 C   0  0  0  0  0  0  0  0  0  0  0  0
   23.5079  -21.1143  -15.7711 O   0  0  0  0  0  0  0  0  0  0  0  0
   24.4408  -19.1236  -15.0836 N   0  0  0  0  0  0  0  0  0  0  0  0
   24.1918  -18.5538  -16.3941 C   0  0  1  0  0  0  0  0  0  0  0  0
   24.1031  -17.0533  -16.3525 C   0  0  0  0  0  0  0  0  0  0  0  0
   23.7158  -16.5866  -17.7090 C   0  0  0  0  0  0  0  0  0  0  0  0
   24.2708  -17.1277  -18.6968 O   0  0  0  0  0  0  0  0  0  0  0  0
   25.2359  -18.9790  -17.3572 C   0  0  0  0  0  0  0  0  0  0  0  0
   26.4485  -18.7856  -17.1115 O   0  0  0  0  0  0  0  0  0  0  0  0
   22.7782  -15.5899  -17.9245 O   0  0  0  0  0  0  0  0  0  0  0  0
   24.8873  -19.5954  -18.5409 O   0  0  0  0  0  0  0  0  0  0  0  0
  2  1  1  0
  3  2  2  0
  4  2  1  0
  5  4  1  0
  6  7  1  1
  6  8  1  0
  6  5  1  0
  8 10  1  0
  8  9  2  0
 10 11  1  0
 11 14  1  0
 12 13  1  0
 11 12  1  6
 14 16  1  0
 14 15  2  0
 16 17  1  0
 17 21  1  0
 17 18  1  1
 19 18  1  0
 20 19  2  0
 21 22  2  0
 21 24  1  0
 23 19  1  0
M  END
$$$$
