QCD.pdb
     RDKit          3D

 24 23  0  0  1  0  0  0  0  0999 V2000
   27.5448  -18.4149  -17.5840 N   0  0  0  0  0  0  0  0  0  0  0  0
   28.9135  -18.0520  -17.4146 C   0  0  0  0  0  0  0  0  0  0  0  0
   29.5027  -17.4417  -18.3376 O   0  0  0  0  0  0  0  0  0  0  0  0
   29.6648  -18.3670  -16.1835 C   0  0  0  0  0  0  0  0  0  0  0  0
   28.8457  -19.0061  -15.1084 C   0  0  0  0  0  0  0  0  0  0  0  0
   27.6747  -19.7972  -15.5253 C   0  0  2  0  0  0  0  0  0  0  0  0
   26.6836  -19.1028  -16.3014 N   0  0  0  0  0  0  0  0  0  0  0  0
   27.0094  -20.5376  -14.4269 C   0  0  0  0  0  0  0  0  0  0  0  0
   27.7217  -21.2333  -13.6633 O   0  0  0  0  0  0  0  0  0  0  0  0
   25.6213  -20.5058  -14.1899 N   0  0  0  0  0  0  0  0  0  0  0  0
   24.9894  -21.1149  -13.0122 C   0  0  1  0  0  0  0  0  0  0  0  0
   25.5904  -20.3845  -11.8137 C   0  0  0  0  0  0  0  0  0  0  0  0
   24.7942  -20.8694  -10.2957 S   0  0  0  0  0  0  0  0  0  0  0  0
   23.5262  -21.0017  -13.0886 C   0  0  0  0  0  0  0  0  0  0  0  0
   23.0043  -19.8761  -12.7698 O   0  0  0  0  0  0  0  0  0  0  0  0
   22.6484  -22.0355  -13.4880 N   0  0  0  0  0  0  0  0  0  0  0  0
   21.2517  -21.9793  -13.1002 C   0  0  1  0  0  0  0  0  0  0  0  0
   21.0100  -22.6119  -11.7577 C   0  0  0  0  0  0  0  0  0  0  0  0
   19.5417  -22.7653  -11.5891 C   0  0  0  0  0  0  0  0  0  0  0  0
   18.8049  -22.4687  -12.5615 O   0  0  0  0  0  0  0  0  0  0  0  0
   20.7634  -20.5793  -13.1025 C   0  0  0  0  0  0  0  0  0  0  0  0
   19.7574  -20.2547  -13.7739 O   0  0  0  0  0  0  0  0  0  0  0  0
   18.9605  -23.2170  -10.4155 O   0  0  0  0  0  0  0  0  0  0  0  0
   21.4106  -19.6108  -12.3637 O   0  0  0  0  0  0  0  0  0  0  0  0
  2  1  1  0
  3  2  2  0
  4  2  1  0
  5  4  1  0
  6  7  1  1
  6  8  1  0
  6  5  1  0
  8 10  1  0
  8  9  2  0
 10 11  1  0
 11 14  1  0
 12 13  1  0
 11 12  1  1
 14 16  1  0
 14 15  2  0
 16 17  1  0
 17 21  1  0
 17 18  1  1
 19 18  1  0
 20 19  2  0
 21 22  2  0
 21 24  1  0
 23 19  1  0
M  END
$$$$
