QFW.pdb
     RDKit          3D

 35 37  0  0  1  0  0  0  0  0999 V2000
   10.2930  -23.7354   21.2030 N   0  0  0  0  0  0  0  0  0  0  0  0
   10.9987  -22.8598   20.3215 C   0  0  0  0  0  0  0  0  0  0  0  0
   12.2637  -22.8755   20.2972 O   0  0  0  0  0  0  0  0  0  0  0  0
   10.2425  -21.9537   19.4612 C   0  0  0  0  0  0  0  0  0  0  0  0
   10.4036  -20.5136   19.7762 C   0  0  0  0  0  0  0  0  0  0  0  0
    9.6380  -19.5609   18.8999 C   0  0  2  0  0  0  0  0  0  0  0  0
   10.0238  -19.5400   17.5353 N   0  0  0  0  0  0  0  0  0  0  0  0
    9.7254  -18.2079   19.5586 C   0  0  0  0  0  0  0  0  0  0  0  0
   10.7792  -17.5114   19.4201 O   0  0  0  0  0  0  0  0  0  0  0  0
    8.6961  -17.6398   20.3380 N   0  0  0  0  0  0  0  0  0  0  0  0
    8.8639  -16.2951   20.9629 C   0  0  1  0  0  0  0  0  0  0  0  0
    7.5176  -15.6260   20.9529 C   0  0  0  0  0  0  0  0  0  0  0  0
    7.4063  -14.3061   21.5357 C   0  0  0  0  0  0  0  0  0  0  0  0
    6.8661  -14.0159   22.7721 C   0  0  0  0  0  0  0  0  0  0  0  0
    6.7590  -12.7329   23.2773 C   0  0  0  0  0  0  0  0  0  0  0  0
    7.2213  -11.6880   22.4951 C   0  0  0  0  0  0  0  0  0  0  0  0
    7.7710  -11.9230   21.2515 C   0  0  0  0  0  0  0  0  0  0  0  0
    7.8538  -13.2165   20.7967 C   0  0  0  0  0  0  0  0  0  0  0  0
    9.4038  -16.4809   22.3218 C   0  0  0  0  0  0  0  0  0  0  0  0
    9.0977  -17.5638   22.9619 O   0  0  0  0  0  0  0  0  0  0  0  0
   10.2426  -15.5686   22.9872 N   0  0  0  0  0  0  0  0  0  0  0  0
   10.8076  -15.9293   24.2968 C   0  0  1  0  0  0  0  0  0  0  0  0
    9.7926  -16.7595   25.0532 C   0  0  0  0  0  0  0  0  0  0  0  0
    8.6275  -16.0528   25.5617 C   0  0  0  0  0  0  0  0  0  0  0  0
    7.2888  -16.4322   25.3755 C   0  0  0  0  0  0  0  0  0  0  0  0
    6.5595  -15.4851   25.9626 N   0  0  0  0  0  0  0  0  0  0  0  0
    7.3462  -14.5288   26.5108 C   0  0  0  0  0  0  0  0  0  0  0  0
    7.0287  -13.3890   27.2199 C   0  0  0  0  0  0  0  0  0  0  0  0
    8.0451  -12.5844   27.6911 C   0  0  0  0  0  0  0  0  0  0  0  0
    9.3729  -12.8829   27.4760 C   0  0  0  0  0  0  0  0  0  0  0  0
    9.6575  -14.0247   26.7660 C   0  0  0  0  0  0  0  0  0  0  0  0
    8.6605  -14.8632   26.2725 C   0  0  0  0  0  0  0  0  0  0  0  0
   12.0923  -16.6028   24.1824 C   0  0  0  0  0  0  0  0  0  0  0  0
   12.7558  -16.9171   25.2380 O   0  0  0  0  0  0  0  0  0  0  0  0
   12.6861  -16.9496   22.9969 O   0  0  0  0  0  0  0  0  0  0  0  0
  2  4  1  0
  2  1  1  0
  3  2  2  0
  5  4  1  0
  6  5  1  0
  6  7  1  6
  8  6  1  0
  9  8  2  0
 10  8  1  0
 11 12  1  1
 11 10  1  0
 12 13  1  0
 13 18  1  0
 13 14  2  0
 14 15  1  0
 15 16  2  0
 17 16  1  0
 18 17  2  0
 19 11  1  0
 20 19  2  0
 21 19  1  0
 22 21  1  0
 22 23  1  6
 23 24  1  0
 24 32  1  0
 25 24  2  0
 25 26  1  0
 26 27  1  0
 27 28  1  0
 28 29  2  0
 30 29  1  0
 31 30  2  0
 32 27  2  0
 32 31  1  0
 33 35  1  0
 33 22  1  0
 34 33  2  0
M  END
$$$$
