QFW.pdb
     RDKit          3D

 35 37  0  0  1  0  0  0  0  0999 V2000
   10.9596  -17.5308   14.4507 N   0  0  0  0  0  0  0  0  0  0  0  0
    9.7255  -17.3958   15.1581 C   0  0  0  0  0  0  0  0  0  0  0  0
    8.7808  -16.7217   14.6540 O   0  0  0  0  0  0  0  0  0  0  0  0
    9.5767  -18.0396   16.4605 C   0  0  0  0  0  0  0  0  0  0  0  0
   10.5011  -17.5467   17.5101 C   0  0  0  0  0  0  0  0  0  0  0  0
   10.2971  -18.1194   18.8855 C   0  0  2  0  0  0  0  0  0  0  0  0
    9.2127  -19.0239   19.0173 N   0  0  0  0  0  0  0  0  0  0  0  0
   10.2057  -16.9473   19.8290 C   0  0  0  0  0  0  0  0  0  0  0  0
   11.1523  -16.1003   19.8681 O   0  0  0  0  0  0  0  0  0  0  0  0
    9.1177  -16.7123   20.6952 N   0  0  0  0  0  0  0  0  0  0  0  0
    9.1061  -15.5291   21.6044 C   0  0  1  0  0  0  0  0  0  0  0  0
    7.7425  -15.4620   22.2340 C   0  0  0  0  0  0  0  0  0  0  0  0
    7.5034  -14.4492   23.2397 C   0  0  0  0  0  0  0  0  0  0  0  0
    6.9892  -14.6736   24.5006 C   0  0  0  0  0  0  0  0  0  0  0  0
    6.7551  -13.6677   25.4206 C   0  0  0  0  0  0  0  0  0  0  0  0
    7.0558  -12.3680   25.0500 C   0  0  0  0  0  0  0  0  0  0  0  0
    7.5726  -12.0885   23.8014 C   0  0  0  0  0  0  0  0  0  0  0  0
    7.7861  -13.1244   22.9250 C   0  0  0  0  0  0  0  0  0  0  0  0
   10.1880  -15.6941   22.5917 C   0  0  0  0  0  0  0  0  0  0  0  0
   10.9051  -14.6602   22.8963 O   0  0  0  0  0  0  0  0  0  0  0  0
   10.5053  -16.8986   23.2456 N   0  0  0  0  0  0  0  0  0  0  0  0
   10.4480  -16.9602   24.7144 C   0  0  1  0  0  0  0  0  0  0  0  0
    9.0674  -16.5343   25.1663 C   0  0  0  0  0  0  0  0  0  0  0  0
    8.8868  -16.3340   26.5955 C   0  0  0  0  0  0  0  0  0  0  0  0
    7.8832  -16.9139   27.3875 C   0  0  0  0  0  0  0  0  0  0  0  0
    8.0622  -16.4249   28.6133 N   0  0  0  0  0  0  0  0  0  0  0  0
    9.1142  -15.5730   28.6533 C   0  0  0  0  0  0  0  0  0  0  0  0
    9.6649  -14.8594   29.6975 C   0  0  0  0  0  0  0  0  0  0  0  0
   10.7687  -14.0665   29.4627 C   0  0  0  0  0  0  0  0  0  0  0  0
   11.3420  -13.9630   28.2140 C   0  0  0  0  0  0  0  0  0  0  0  0
   10.7707  -14.6854   27.1940 C   0  0  0  0  0  0  0  0  0  0  0  0
    9.6555  -15.4970   27.3895 C   0  0  0  0  0  0  0  0  0  0  0  0
   10.8155  -18.2696   25.2314 C   0  0  0  0  0  0  0  0  0  0  0  0
   10.3693  -19.3369   24.6699 O   0  0  0  0  0  0  0  0  0  0  0  0
   11.6326  -18.4783   26.3117 O   0  0  0  0  0  0  0  0  0  0  0  0
  2  4  1  0
  2  1  1  0
  3  2  2  0
  5  4  1  0
  6  5  1  0
  6  7  1  6
  8  6  1  0
  9  8  2  0
 10  8  1  0
 11 12  1  1
 11 10  1  0
 12 13  1  0
 13 18  1  0
 13 14  2  0
 14 15  1  0
 15 16  2  0
 17 16  1  0
 18 17  2  0
 19 11  1  0
 20 19  2  0
 21 19  1  0
 22 21  1  0
 22 23  1  6
 23 24  1  0
 24 32  1  0
 25 24  2  0
 25 26  1  0
 26 27  1  0
 27 28  1  0
 28 29  2  0
 30 29  1  0
 31 30  2  0
 32 27  2  0
 32 31  1  0
 33 35  1  0
 33 22  1  0
 34 33  2  0
M  END
$$$$
