QFW.pdb
     RDKit          3D

 35 37  0  0  1  0  0  0  0  0999 V2000
   12.5053  -16.6241   14.8447 N   0  0  0  0  0  0  0  0  0  0  0  0
   11.7050  -17.8009   14.7166 C   0  0  0  0  0  0  0  0  0  0  0  0
   11.4185  -18.2460   13.5673 O   0  0  0  0  0  0  0  0  0  0  0  0
   11.2256  -18.4713   15.9223 C   0  0  0  0  0  0  0  0  0  0  0  0
   11.7074  -17.8849   17.1963 C   0  0  0  0  0  0  0  0  0  0  0  0
   11.2640  -18.5866   18.4504 C   0  0  2  0  0  0  0  0  0  0  0  0
   10.2755  -19.5882   18.2744 N   0  0  0  0  0  0  0  0  0  0  0  0
   10.8471  -17.5100   19.4196 C   0  0  0  0  0  0  0  0  0  0  0  0
   11.6746  -16.5993   19.7370 O   0  0  0  0  0  0  0  0  0  0  0  0
    9.5715  -17.4342   20.0168 N   0  0  0  0  0  0  0  0  0  0  0  0
    9.2415  -16.3425   20.9790 C   0  0  1  0  0  0  0  0  0  0  0  0
    7.8933  -15.7996   20.5946 C   0  0  0  0  0  0  0  0  0  0  0  0
    7.3568  -14.6964   21.3622 C   0  0  0  0  0  0  0  0  0  0  0  0
    6.4578  -14.8035   22.4039 C   0  0  0  0  0  0  0  0  0  0  0  0
    5.9537  -13.7156   23.0933 C   0  0  0  0  0  0  0  0  0  0  0  0
    6.3787  -12.4540   22.7128 C   0  0  0  0  0  0  0  0  0  0  0  0
    7.2769  -12.2908   21.6780 C   0  0  0  0  0  0  0  0  0  0  0  0
    7.7469  -13.4046   21.0260 C   0  0  0  0  0  0  0  0  0  0  0  0
    9.2684  -16.9035   22.3418 C   0  0  0  0  0  0  0  0  0  0  0  0
    8.1533  -17.3036   22.8637 O   0  0  0  0  0  0  0  0  0  0  0  0
   10.4241  -17.0490   23.1306 N   0  0  0  0  0  0  0  0  0  0  0  0
   10.5006  -16.3680   24.4324 C   0  0  1  0  0  0  0  0  0  0  0  0
    9.8518  -15.0060   24.3086 C   0  0  0  0  0  0  0  0  0  0  0  0
    8.5919  -14.8223   25.0118 C   0  0  0  0  0  0  0  0  0  0  0  0
    7.6691  -15.8329   25.3248 C   0  0  0  0  0  0  0  0  0  0  0  0
    6.6488  -15.2189   25.9210 N   0  0  0  0  0  0  0  0  0  0  0  0
    6.8623  -13.8845   26.0088 C   0  0  0  0  0  0  0  0  0  0  0  0
    6.0949  -12.8766   26.5549 C   0  0  0  0  0  0  0  0  0  0  0  0
    6.5673  -11.5810   26.5281 C   0  0  0  0  0  0  0  0  0  0  0  0
    7.7858  -11.2588   25.9713 C   0  0  0  0  0  0  0  0  0  0  0  0
    8.5270  -12.2843   25.4350 C   0  0  0  0  0  0  0  0  0  0  0  0
    8.0855  -13.6055   25.4414 C   0  0  0  0  0  0  0  0  0  0  0  0
    9.9202  -17.1571   25.5083 C   0  0  0  0  0  0  0  0  0  0  0  0
    8.6748  -17.0338   25.8035 O   0  0  0  0  0  0  0  0  0  0  0  0
   10.6121  -18.0623   26.2699 O   0  0  0  0  0  0  0  0  0  0  0  0
  2  4  1  0
  2  1  1  0
  3  2  2  0
  5  4  1  0
  6  5  1  0
  6  7  1  6
  8  6  1  0
  9  8  2  0
 10  8  1  0
 11 12  1  6
 11 10  1  0
 12 13  1  0
 13 18  1  0
 13 14  2  0
 14 15  1  0
 15 16  2  0
 17 16  1  0
 18 17  2  0
 19 11  1  0
 20 19  2  0
 21 19  1  0
 22 21  1  0
 22 23  1  6
 23 24  1  0
 24 32  1  0
 25 24  2  0
 25 26  1  0
 26 27  1  0
 27 28  1  0
 28 29  2  0
 30 29  1  0
 31 30  2  0
 32 27  2  0
 32 31  1  0
 33 35  1  0
 33 22  1  0
 34 33  2  0
M  END
$$$$
