QFW.pdb
     RDKit          3D

 35 37  0  0  1  0  0  0  0  0999 V2000
    7.9242  -17.3406   15.8820 N   0  0  0  0  0  0  0  0  0  0  0  0
    8.4669  -18.6623   15.9048 C   0  0  0  0  0  0  0  0  0  0  0  0
    8.0430  -19.5316   15.0890 O   0  0  0  0  0  0  0  0  0  0  0  0
    9.5055  -18.9894   16.8781 C   0  0  0  0  0  0  0  0  0  0  0  0
    9.7966  -17.9204   17.8639 C   0  0  0  0  0  0  0  0  0  0  0  0
   10.0004  -18.3746   19.2830 C   0  0  2  0  0  0  0  0  0  0  0  0
    9.1607  -19.4334   19.7133 N   0  0  0  0  0  0  0  0  0  0  0  0
    9.8890  -17.1446   20.1472 C   0  0  0  0  0  0  0  0  0  0  0  0
   10.6781  -16.1681   19.9505 O   0  0  0  0  0  0  0  0  0  0  0  0
    8.9476  -16.9907   21.1862 N   0  0  0  0  0  0  0  0  0  0  0  0
    8.8892  -15.7314   21.9846 C   0  0  1  0  0  0  0  0  0  0  0  0
    7.4533  -15.5142   22.3733 C   0  0  0  0  0  0  0  0  0  0  0  0
    7.1420  -14.4011   23.2441 C   0  0  0  0  0  0  0  0  0  0  0  0
    7.4412  -13.0770   22.9951 C   0  0  0  0  0  0  0  0  0  0  0  0
    7.1446  -12.0486   23.8710 C   0  0  0  0  0  0  0  0  0  0  0  0
    6.5128  -12.3723   25.0599 C   0  0  0  0  0  0  0  0  0  0  0  0
    6.1907  -13.6805   25.3581 C   0  0  0  0  0  0  0  0  0  0  0  0
    6.5077  -14.6642   24.4533 C   0  0  0  0  0  0  0  0  0  0  0  0
    9.7837  -15.8789   23.1468 C   0  0  0  0  0  0  0  0  0  0  0  0
   10.5031  -14.8628   23.5015 O   0  0  0  0  0  0  0  0  0  0  0  0
    9.9163  -17.0478   23.9181 N   0  0  0  0  0  0  0  0  0  0  0  0
   10.9750  -17.1248   24.9368 C   0  0  1  0  0  0  0  0  0  0  0  0
   10.3595  -17.5696   26.2463 C   0  0  0  0  0  0  0  0  0  0  0  0
    9.3374  -16.7015   26.8096 C   0  0  0  0  0  0  0  0  0  0  0  0
    7.9544  -16.9418   26.7957 C   0  0  0  0  0  0  0  0  0  0  0  0
    7.3967  -15.8782   27.3713 N   0  0  0  0  0  0  0  0  0  0  0  0
    8.3340  -14.9777   27.7513 C   0  0  0  0  0  0  0  0  0  0  0  0
    8.2168  -13.7600   28.3888 C   0  0  0  0  0  0  0  0  0  0  0  0
    9.3569  -13.0411   28.6819 C   0  0  0  0  0  0  0  0  0  0  0  0
   10.6145  -13.5012   28.3574 C   0  0  0  0  0  0  0  0  0  0  0  0
   10.6989  -14.7171   27.7226 C   0  0  0  0  0  0  0  0  0  0  0  0
    9.5720  -15.4735   27.4084 C   0  0  0  0  0  0  0  0  0  0  0  0
   12.0782  -17.9816   24.5295 C   0  0  0  0  0  0  0  0  0  0  0  0
   12.0193  -18.6316   23.4216 O   0  0  0  0  0  0  0  0  0  0  0  0
   13.2278  -18.1664   25.2524 O   0  0  0  0  0  0  0  0  0  0  0  0
  2  4  1  0
  2  1  1  0
  3  2  2  0
  5  4  1  0
  6  5  1  0
  6  7  1  1
  8  6  1  0
  9  8  2  0
 10  8  1  0
 11 12  1  1
 11 10  1  0
 12 13  1  0
 13 18  1  0
 13 14  2  0
 14 15  1  0
 15 16  2  0
 17 16  1  0
 18 17  2  0
 19 11  1  0
 20 19  2  0
 21 19  1  0
 22 21  1  0
 22 23  1  1
 23 24  1  0
 24 32  1  0
 25 24  2  0
 25 26  1  0
 26 27  1  0
 27 28  1  0
 28 29  2  0
 30 29  1  0
 31 30  2  0
 32 27  2  0
 32 31  1  0
 33 35  1  0
 33 22  1  0
 34 33  2  0
M  END
$$$$
