QFW.pdb
     RDKit          3D

 35 37  0  0  1  0  0  0  0  0999 V2000
    9.5241  -17.7255   14.0183 N   0  0  0  0  0  0  0  0  0  0  0  0
   10.3604  -17.4612   15.1464 C   0  0  0  0  0  0  0  0  0  0  0  0
   11.3563  -16.6901   15.0255 O   0  0  0  0  0  0  0  0  0  0  0  0
   10.0510  -18.0928   16.4263 C   0  0  0  0  0  0  0  0  0  0  0  0
   10.1374  -17.1946   17.6031 C   0  0  0  0  0  0  0  0  0  0  0  0
    9.8845  -17.8374   18.9389 C   0  0  2  0  0  0  0  0  0  0  0  0
    8.7332  -18.6623   19.0130 N   0  0  0  0  0  0  0  0  0  0  0  0
    9.8798  -16.7250   19.9561 C   0  0  0  0  0  0  0  0  0  0  0  0
   10.9146  -16.0010   20.0963 O   0  0  0  0  0  0  0  0  0  0  0  0
    8.7820  -16.4175   20.7868 N   0  0  0  0  0  0  0  0  0  0  0  0
    8.9020  -15.3917   21.8638 C   0  0  1  0  0  0  0  0  0  0  0  0
    7.5819  -15.3397   22.5813 C   0  0  0  0  0  0  0  0  0  0  0  0
    7.4635  -14.4704   23.7321 C   0  0  0  0  0  0  0  0  0  0  0  0
    7.0376  -14.8524   24.9881 C   0  0  0  0  0  0  0  0  0  0  0  0
    6.9174  -13.9781   26.0531 C   0  0  0  0  0  0  0  0  0  0  0  0
    7.2443  -12.6495   25.8406 C   0  0  0  0  0  0  0  0  0  0  0  0
    7.6761  -12.2148   24.6042 C   0  0  0  0  0  0  0  0  0  0  0  0
    7.7778  -13.1243   23.5798 C   0  0  0  0  0  0  0  0  0  0  0  0
   10.0205  -15.7743   22.7442 C   0  0  0  0  0  0  0  0  0  0  0  0
   10.9065  -14.8770   23.0375 O   0  0  0  0  0  0  0  0  0  0  0  0
   10.2031  -17.0508   23.3063 N   0  0  0  0  0  0  0  0  0  0  0  0
   10.6570  -17.1679   24.7008 C   0  0  1  0  0  0  0  0  0  0  0  0
    9.5515  -16.6849   25.6151 C   0  0  0  0  0  0  0  0  0  0  0  0
    9.8339  -16.7087   27.0417 C   0  0  0  0  0  0  0  0  0  0  0  0
   10.1987  -17.8393   27.7897 C   0  0  0  0  0  0  0  0  0  0  0  0
   10.3122  -17.4190   29.0483 N   0  0  0  0  0  0  0  0  0  0  0  0
   10.0448  -16.0954   29.1499 C   0  0  0  0  0  0  0  0  0  0  0  0
   10.0560  -15.2482   30.2385 C   0  0  0  0  0  0  0  0  0  0  0  0
    9.7583  -13.9138   30.0562 C   0  0  0  0  0  0  0  0  0  0  0  0
    9.4486  -13.3969   28.8170 C   0  0  0  0  0  0  0  0  0  0  0  0
    9.4452  -14.2656   27.7522 C   0  0  0  0  0  0  0  0  0  0  0  0
    9.7394  -15.6198   27.8943 C   0  0  0  0  0  0  0  0  0  0  0  0
   11.0946  -18.5153   25.0325 C   0  0  0  0  0  0  0  0  0  0  0  0
   10.4584  -19.5347   24.5748 O   0  0  0  0  0  0  0  0  0  0  0  0
   12.1738  -18.8102   25.8242 O   0  0  0  0  0  0  0  0  0  0  0  0
  2  4  1  0
  2  1  1  0
  3  2  2  0
  5  4  1  0
  6  5  1  0
  6  7  1  6
  8  6  1  0
  9  8  2  0
 10  8  1  0
 11 12  1  1
 11 10  1  0
 12 13  1  0
 13 18  1  0
 13 14  2  0
 14 15  1  0
 15 16  2  0
 17 16  1  0
 18 17  2  0
 19 11  1  0
 20 19  2  0
 21 19  1  0
 22 21  1  0
 22 23  1  1
 23 24  1  0
 24 32  1  0
 25 24  2  0
 25 26  1  0
 26 27  1  0
 27 28  1  0
 28 29  2  0
 30 29  1  0
 31 30  2  0
 32 27  2  0
 32 31  1  0
 33 35  1  0
 33 22  1  0
 34 33  2  0
M  END
$$$$
