QFW.pdb
     RDKit          3D

 35 37  0  0  1  0  0  0  0  0999 V2000
    8.3982  -12.5472   17.1538 N   0  0  0  0  0  0  0  0  0  0  0  0
    8.1069  -13.8252   16.5849 C   0  0  0  0  0  0  0  0  0  0  0  0
    7.5552  -13.8980   15.4486 O   0  0  0  0  0  0  0  0  0  0  0  0
    8.4501  -15.0324   17.3317 C   0  0  0  0  0  0  0  0  0  0  0  0
    9.0588  -14.7918   18.6624 C   0  0  0  0  0  0  0  0  0  0  0  0
    9.4982  -16.0180   19.4140 C   0  0  2  0  0  0  0  0  0  0  0  0
    8.7943  -17.2099   19.1058 N   0  0  0  0  0  0  0  0  0  0  0  0
    9.4472  -15.6645   20.8785 C   0  0  0  0  0  0  0  0  0  0  0  0
   10.1156  -14.6720   21.3063 O   0  0  0  0  0  0  0  0  0  0  0  0
    8.6912  -16.3714   21.8368 N   0  0  0  0  0  0  0  0  0  0  0  0
    8.7616  -16.0112   23.2832 C   0  0  1  0  0  0  0  0  0  0  0  0
    7.3491  -15.8987   23.7856 C   0  0  0  0  0  0  0  0  0  0  0  0
    6.9713  -14.6975   24.4988 C   0  0  0  0  0  0  0  0  0  0  0  0
    7.2355  -13.4050   24.0937 C   0  0  0  0  0  0  0  0  0  0  0  0
    6.8749  -12.2866   24.8232 C   0  0  0  0  0  0  0  0  0  0  0  0
    6.2128  -12.4819   26.0235 C   0  0  0  0  0  0  0  0  0  0  0  0
    5.9235  -13.7534   26.4746 C   0  0  0  0  0  0  0  0  0  0  0  0
    6.3040  -14.8303   25.7116 C   0  0  0  0  0  0  0  0  0  0  0  0
    9.5392  -17.0508   23.9812 C   0  0  0  0  0  0  0  0  0  0  0  0
    9.4194  -18.2776   23.5853 O   0  0  0  0  0  0  0  0  0  0  0  0
   10.4195  -16.8153   25.0529 N   0  0  0  0  0  0  0  0  0  0  0  0
   11.2143  -17.9292   25.5931 C   0  0  1  0  0  0  0  0  0  0  0  0
   12.2335  -17.3740   26.5650 C   0  0  0  0  0  0  0  0  0  0  0  0
   11.7075  -16.7481   27.7679 C   0  0  0  0  0  0  0  0  0  0  0  0
   11.6214  -17.3446   29.0358 C   0  0  0  0  0  0  0  0  0  0  0  0
   11.0402  -16.4404   29.8221 N   0  0  0  0  0  0  0  0  0  0  0  0
   10.7520  -15.3077   29.1381 C   0  0  0  0  0  0  0  0  0  0  0  0
   10.1730  -14.1239   29.5458 C   0  0  0  0  0  0  0  0  0  0  0  0
   10.0114  -13.1037   28.6317 C   0  0  0  0  0  0  0  0  0  0  0  0
   10.4109  -13.2287   27.3189 C   0  0  0  0  0  0  0  0  0  0  0  0
   10.9839  -14.4198   26.9429 C   0  0  0  0  0  0  0  0  0  0  0  0
   11.1643  -15.4745   27.8350 C   0  0  0  0  0  0  0  0  0  0  0  0
   10.3864  -18.9625   26.1963 C   0  0  0  0  0  0  0  0  0  0  0  0
   10.8697  -20.1333   26.4178 O   0  0  0  0  0  0  0  0  0  0  0  0
    9.0781  -18.7930   26.5680 O   0  0  0  0  0  0  0  0  0  0  0  0
  2  4  1  0
  2  1  1  0
  3  2  2  0
  5  4  1  0
  6  5  1  0
  6  7  1  1
  8  6  1  0
  9  8  2  0
 10  8  1  0
 11 12  1  1
 11 10  1  0
 12 13  1  0
 13 18  1  0
 13 14  2  0
 14 15  1  0
 15 16  2  0
 17 16  1  0
 18 17  2  0
 19 11  1  0
 20 19  2  0
 21 19  1  0
 22 21  1  0
 22 23  1  1
 23 24  1  0
 24 32  1  0
 25 24  2  0
 25 26  1  0
 26 27  1  0
 27 28  1  0
 28 29  2  0
 30 29  1  0
 31 30  2  0
 32 27  2  0
 32 31  1  0
 33 35  1  0
 33 22  1  0
 34 33  2  0
M  END
$$$$
