QFW.pdb
     RDKit          3D

 35 37  0  0  1  0  0  0  0  0999 V2000
   16.1333  -19.8029   17.4060 N   0  0  0  0  0  0  0  0  0  0  0  0
   15.5186  -21.0012   17.8835 C   0  0  0  0  0  0  0  0  0  0  0  0
   16.1136  -22.1101   17.7519 O   0  0  0  0  0  0  0  0  0  0  0  0
   14.2043  -20.9248   18.5157 C   0  0  0  0  0  0  0  0  0  0  0  0
   13.6238  -19.5620   18.5868 C   0  0  0  0  0  0  0  0  0  0  0  0
   12.1846  -19.4394   18.1681 C   0  0  2  0  0  0  0  0  0  0  0  0
   11.9500  -19.4604   16.7696 N   0  0  0  0  0  0  0  0  0  0  0  0
   11.6471  -18.2008   18.8381 C   0  0  0  0  0  0  0  0  0  0  0  0
   12.3118  -17.1193   18.7797 O   0  0  0  0  0  0  0  0  0  0  0  0
   10.4269  -18.1496   19.5439 N   0  0  0  0  0  0  0  0  0  0  0  0
    9.9301  -16.8657   20.1197 C   0  0  1  0  0  0  0  0  0  0  0  0
    8.7676  -16.4180   19.2780 C   0  0  0  0  0  0  0  0  0  0  0  0
    8.0331  -15.2435   19.6968 C   0  0  0  0  0  0  0  0  0  0  0  0
    6.8806  -15.2442   20.4560 C   0  0  0  0  0  0  0  0  0  0  0  0
    6.1991  -14.0944   20.8116 C   0  0  0  0  0  0  0  0  0  0  0  0
    6.7065  -12.8807   20.3796 C   0  0  0  0  0  0  0  0  0  0  0  0
    7.8560  -12.8237   19.6185 C   0  0  0  0  0  0  0  0  0  0  0  0
    8.4946  -13.9955   19.2929 C   0  0  0  0  0  0  0  0  0  0  0  0
    9.5636  -17.1017   21.5277 C   0  0  0  0  0  0  0  0  0  0  0  0
    9.8099  -18.2647   22.0403 O   0  0  0  0  0  0  0  0  0  0  0  0
    8.9663  -16.1508   22.3751 N   0  0  0  0  0  0  0  0  0  0  0  0
    9.2875  -16.1596   23.8107 C   0  0  1  0  0  0  0  0  0  0  0  0
    9.4194  -14.7295   24.2891 C   0  0  0  0  0  0  0  0  0  0  0  0
    8.7664  -14.4046   25.5475 C   0  0  0  0  0  0  0  0  0  0  0  0
    8.6434  -15.2581   26.6553 C   0  0  0  0  0  0  0  0  0  0  0  0
    7.9412  -14.5779   27.5597 N   0  0  0  0  0  0  0  0  0  0  0  0
    7.6104  -13.3476   27.1005 C   0  0  0  0  0  0  0  0  0  0  0  0
    6.9135  -12.3150   27.6928 C   0  0  0  0  0  0  0  0  0  0  0  0
    6.7329  -11.1381   26.9965 C   0  0  0  0  0  0  0  0  0  0  0  0
    7.2278  -10.9592   25.7230 C   0  0  0  0  0  0  0  0  0  0  0  0
    7.9172  -12.0060   25.1595 C   0  0  0  0  0  0  0  0  0  0  0  0
    8.1207  -13.2107   25.8289 C   0  0  0  0  0  0  0  0  0  0  0  0
    8.3197  -16.9134   24.5931 C   0  0  0  0  0  0  0  0  0  0  0  0
    8.6591  -17.4304   25.7204 O   0  0  0  0  0  0  0  0  0  0  0  0
    7.0189  -17.1314   24.2208 O   0  0  0  0  0  0  0  0  0  0  0  0
  2  4  1  0
  2  1  1  0
  3  2  2  0
  5  4  1  0
  6  5  1  0
  6  7  1  6
  8  6  1  0
  9  8  2  0
 10  8  1  0
 11 12  1  6
 11 10  1  0
 12 13  1  0
 13 18  1  0
 13 14  2  0
 14 15  1  0
 15 16  2  0
 17 16  1  0
 18 17  2  0
 19 11  1  0
 20 19  2  0
 21 19  1  0
 22 21  1  0
 22 23  1  1
 23 24  1  0
 24 32  1  0
 25 24  2  0
 25 26  1  0
 26 27  1  0
 27 28  1  0
 28 29  2  0
 30 29  1  0
 31 30  2  0
 32 27  2  0
 32 31  1  0
 33 35  1  0
 33 22  1  0
 34 33  2  0
M  END
$$$$
