QFW.pdb
     RDKit          3D

 35 37  0  0  1  0  0  0  0  0999 V2000
    8.0901  -20.4466   16.3106 N   0  0  0  0  0  0  0  0  0  0  0  0
    9.3512  -19.8006   16.4958 C   0  0  0  0  0  0  0  0  0  0  0  0
    9.9928  -19.3720   15.4929 O   0  0  0  0  0  0  0  0  0  0  0  0
    9.8823  -19.6487   17.8477 C   0  0  0  0  0  0  0  0  0  0  0  0
    9.0727  -20.2893   18.9124 C   0  0  0  0  0  0  0  0  0  0  0  0
    9.5961  -20.1392   20.3142 C   0  0  2  0  0  0  0  0  0  0  0  0
    8.8185  -20.7561   21.3272 N   0  0  0  0  0  0  0  0  0  0  0  0
    9.7968  -18.6626   20.5413 C   0  0  0  0  0  0  0  0  0  0  0  0
   10.9134  -18.1308   20.2497 O   0  0  0  0  0  0  0  0  0  0  0  0
    8.8104  -17.8021   21.0668 N   0  0  0  0  0  0  0  0  0  0  0  0
    9.0716  -16.3404   21.2154 C   0  0  1  0  0  0  0  0  0  0  0  0
    7.7494  -15.6352   21.0951 C   0  0  0  0  0  0  0  0  0  0  0  0
    7.7198  -14.2012   21.2881 C   0  0  0  0  0  0  0  0  0  0  0  0
    7.2847  -13.5516   22.4253 C   0  0  0  0  0  0  0  0  0  0  0  0
    7.2523  -12.1749   22.5541 C   0  0  0  0  0  0  0  0  0  0  0  0
    7.6817  -11.4136   21.4802 C   0  0  0  0  0  0  0  0  0  0  0  0
    8.1273  -12.0128   20.3197 C   0  0  0  0  0  0  0  0  0  0  0  0
    8.1390  -13.3842   20.2438 C   0  0  0  0  0  0  0  0  0  0  0  0
    9.7260  -16.1177   22.5172 C   0  0  0  0  0  0  0  0  0  0  0  0
   10.4729  -15.0697   22.6583 O   0  0  0  0  0  0  0  0  0  0  0  0
    9.5979  -16.9585   23.6377 N   0  0  0  0  0  0  0  0  0  0  0  0
   10.2687  -16.5935   24.8952 C   0  0  1  0  0  0  0  0  0  0  0  0
    9.6966  -15.2820   25.3895 C   0  0  0  0  0  0  0  0  0  0  0  0
    8.2783  -15.2744   25.7116 C   0  0  0  0  0  0  0  0  0  0  0  0
    7.4457  -16.4021   25.7881 C   0  0  0  0  0  0  0  0  0  0  0  0
    6.2285  -15.9351   26.0606 N   0  0  0  0  0  0  0  0  0  0  0  0
    6.2325  -14.5847   26.1635 C   0  0  0  0  0  0  0  0  0  0  0  0
    5.2185  -13.6931   26.4456 C   0  0  0  0  0  0  0  0  0  0  0  0
    5.5057  -12.3457   26.5111 C   0  0  0  0  0  0  0  0  0  0  0  0
    6.7777  -11.8587   26.3028 C   0  0  0  0  0  0  0  0  0  0  0  0
    7.7664  -12.7713   26.0234 C   0  0  0  0  0  0  0  0  0  0  0  0
    7.5176  -14.1398   25.9477 C   0  0  0  0  0  0  0  0  0  0  0  0
   10.1807  -17.6438   25.8982 C   0  0  0  0  0  0  0  0  0  0  0  0
    9.4366  -18.6728   25.6959 O   0  0  0  0  0  0  0  0  0  0  0  0
   10.8507  -17.6361   27.0938 O   0  0  0  0  0  0  0  0  0  0  0  0
  2  4  1  0
  2  1  1  0
  3  2  2  0
  5  4  1  0
  6  5  1  0
  6  7  1  1
  8  6  1  0
  9  8  2  0
 10  8  1  0
 11 12  1  1
 11 10  1  0
 12 13  1  0
 13 18  1  0
 13 14  2  0
 14 15  1  0
 15 16  2  0
 17 16  1  0
 18 17  2  0
 19 11  1  0
 20 19  2  0
 21 19  1  0
 22 21  1  0
 22 23  1  1
 23 24  1  0
 24 32  1  0
 25 24  2  0
 25 26  1  0
 26 27  1  0
 27 28  1  0
 28 29  2  0
 30 29  1  0
 31 30  2  0
 32 27  2  0
 32 31  1  0
 33 35  1  0
 33 22  1  0
 34 33  2  0
M  END
$$$$
