QFW.pdb
     RDKit          3D

 35 37  0  0  1  0  0  0  0  0999 V2000
    7.6029  -15.7342   15.0150 N   0  0  0  0  0  0  0  0  0  0  0  0
    7.6107  -17.0260   15.6258 C   0  0  0  0  0  0  0  0  0  0  0  0
    6.5186  -17.5749   15.9529 O   0  0  0  0  0  0  0  0  0  0  0  0
    8.8877  -17.6926   15.8665 C   0  0  0  0  0  0  0  0  0  0  0  0
    9.6147  -17.2320   17.0742 C   0  0  0  0  0  0  0  0  0  0  0  0
    9.3054  -17.9704   18.3473 C   0  0  2  0  0  0  0  0  0  0  0  0
    8.0777  -18.6803   18.3604 N   0  0  0  0  0  0  0  0  0  0  0  0
    9.4172  -16.9645   19.4644 C   0  0  0  0  0  0  0  0  0  0  0  0
   10.4577  -16.2402   19.5525 O   0  0  0  0  0  0  0  0  0  0  0  0
    8.4256  -16.7597   20.4464 N   0  0  0  0  0  0  0  0  0  0  0  0
    8.6502  -15.8066   21.5725 C   0  0  1  0  0  0  0  0  0  0  0  0
    7.2992  -15.3499   22.0483 C   0  0  0  0  0  0  0  0  0  0  0  0
    7.2166  -14.6772   23.3269 C   0  0  0  0  0  0  0  0  0  0  0  0
    6.7642  -15.2391   24.5035 C   0  0  0  0  0  0  0  0  0  0  0  0
    6.6806  -14.5472   25.6982 C   0  0  0  0  0  0  0  0  0  0  0  0
    7.0743  -13.2198   25.7070 C   0  0  0  0  0  0  0  0  0  0  0  0
    7.5351  -12.6096   24.5584 C   0  0  0  0  0  0  0  0  0  0  0  0
    7.5982  -13.3418   23.3980 C   0  0  0  0  0  0  0  0  0  0  0  0
    9.4240  -16.5001   22.6178 C   0  0  0  0  0  0  0  0  0  0  0  0
    8.9692  -17.6220   23.0768 O   0  0  0  0  0  0  0  0  0  0  0  0
   10.6378  -16.0404   23.1604 N   0  0  0  0  0  0  0  0  0  0  0  0
   10.9991  -16.4096   24.5380 C   0  0  1  0  0  0  0  0  0  0  0  0
    9.9751  -15.8206   25.4846 C   0  0  0  0  0  0  0  0  0  0  0  0
   10.1666  -16.0972   26.8996 C   0  0  0  0  0  0  0  0  0  0  0  0
   10.2426  -17.3703   27.4864 C   0  0  0  0  0  0  0  0  0  0  0  0
   10.3722  -17.1582   28.7948 N   0  0  0  0  0  0  0  0  0  0  0  0
   10.3847  -15.8341   29.0787 C   0  0  0  0  0  0  0  0  0  0  0  0
   10.5139  -15.1643   30.2776 C   0  0  0  0  0  0  0  0  0  0  0  0
   10.5149  -13.7850   30.2814 C   0  0  0  0  0  0  0  0  0  0  0  0
   10.3904  -13.0509   29.1219 C   0  0  0  0  0  0  0  0  0  0  0  0
   10.2630  -13.7466   27.9436 C   0  0  0  0  0  0  0  0  0  0  0  0
   10.2567  -15.1388   27.8971 C   0  0  0  0  0  0  0  0  0  0  0  0
   11.1425  -17.8473   24.7095 C   0  0  0  0  0  0  0  0  0  0  0  0
   12.2202  -18.3358   25.2128 O   0  0  0  0  0  0  0  0  0  0  0  0
   10.1887  -18.7706   24.3687 O   0  0  0  0  0  0  0  0  0  0  0  0
  2  4  1  0
  2  1  1  0
  3  2  2  0
  5  4  1  0
  6  5  1  0
  6  7  1  6
  8  6  1  0
  9  8  2  0
 10  8  1  0
 11 12  1  1
 11 10  1  0
 12 13  1  0
 13 18  1  0
 13 14  2  0
 14 15  1  0
 15 16  2  0
 17 16  1  0
 18 17  2  0
 19 11  1  0
 20 19  2  0
 21 19  1  0
 22 21  1  0
 22 23  1  1
 23 24  1  0
 24 32  1  0
 25 24  2  0
 25 26  1  0
 26 27  1  0
 27 28  1  0
 28 29  2  0
 30 29  1  0
 31 30  2  0
 32 27  2  0
 32 31  1  0
 33 35  1  0
 33 22  1  0
 34 33  2  0
M  END
$$$$
