QFW.pdb
     RDKit          3D

 35 37  0  0  1  0  0  0  0  0999 V2000
    9.1665  -21.6766   21.3543 N   0  0  0  0  0  0  0  0  0  0  0  0
   10.2910  -20.9278   20.8886 C   0  0  0  0  0  0  0  0  0  0  0  0
   11.4637  -21.3415   21.1221 O   0  0  0  0  0  0  0  0  0  0  0  0
   10.0652  -19.6885   20.1497 C   0  0  0  0  0  0  0  0  0  0  0  0
    8.6398  -19.3290   19.9538 C   0  0  0  0  0  0  0  0  0  0  0  0
    8.3830  -18.0199   19.2595 C   0  0  2  0  0  0  0  0  0  0  0  0
    9.0748  -17.8299   18.0361 N   0  0  0  0  0  0  0  0  0  0  0  0
    8.6624  -16.9367   20.2698 C   0  0  0  0  0  0  0  0  0  0  0  0
    9.7713  -16.3171   20.2324 O   0  0  0  0  0  0  0  0  0  0  0  0
    7.7600  -16.5468   21.2814 N   0  0  0  0  0  0  0  0  0  0  0  0
    8.1366  -15.5061   22.2823 C   0  0  1  0  0  0  0  0  0  0  0  0
    6.8627  -14.9864   22.8883 C   0  0  0  0  0  0  0  0  0  0  0  0
    6.9590  -14.1281   24.0494 C   0  0  0  0  0  0  0  0  0  0  0  0
    6.4771  -14.4219   25.3089 C   0  0  0  0  0  0  0  0  0  0  0  0
    6.5714  -13.5572   26.3842 C   0  0  0  0  0  0  0  0  0  0  0  0
    7.1840  -12.3326   26.1789 C   0  0  0  0  0  0  0  0  0  0  0  0
    7.6836  -11.9889   24.9394 C   0  0  0  0  0  0  0  0  0  0  0  0
    7.5640  -12.8844   23.9047 C   0  0  0  0  0  0  0  0  0  0  0  0
    9.0358  -16.1227   23.2742 C   0  0  0  0  0  0  0  0  0  0  0  0
    8.8119  -17.3473   23.6292 O   0  0  0  0  0  0  0  0  0  0  0  0
   10.1379  -15.4829   23.8701 N   0  0  0  0  0  0  0  0  0  0  0  0
   11.1208  -16.2833   24.6169 C   0  0  1  0  0  0  0  0  0  0  0  0
   10.3825  -17.1778   25.5896 C   0  0  0  0  0  0  0  0  0  0  0  0
    9.4876  -16.5167   26.5263 C   0  0  0  0  0  0  0  0  0  0  0  0
    8.0873  -16.6161   26.5366 C   0  0  0  0  0  0  0  0  0  0  0  0
    7.6755  -15.8193   27.5211 N   0  0  0  0  0  0  0  0  0  0  0  0
    8.7216  -15.2206   28.1383 C   0  0  0  0  0  0  0  0  0  0  0  0
    8.7668  -14.3435   29.2021 C   0  0  0  0  0  0  0  0  0  0  0  0
    9.9906  -13.8943   29.6527 C   0  0  0  0  0  0  0  0  0  0  0  0
   11.1747  -14.2943   29.0726 C   0  0  0  0  0  0  0  0  0  0  0  0
   11.0972  -15.1680   28.0147 C   0  0  0  0  0  0  0  0  0  0  0  0
    9.8815  -15.6445   27.5292 C   0  0  0  0  0  0  0  0  0  0  0  0
   12.0058  -17.0365   23.7414 C   0  0  0  0  0  0  0  0  0  0  0  0
   11.8185  -17.0303   22.4693 O   0  0  0  0  0  0  0  0  0  0  0  0
   13.0708  -17.7856   24.1692 O   0  0  0  0  0  0  0  0  0  0  0  0
  2  4  1  0
  2  1  1  0
  3  2  2  0
  5  4  1  0
  6  5  1  0
  6  7  1  6
  8  6  1  0
  9  8  2  0
 10  8  1  0
 11 12  1  1
 11 10  1  0
 12 13  1  0
 13 18  1  0
 13 14  2  0
 14 15  1  0
 15 16  2  0
 17 16  1  0
 18 17  2  0
 19 11  1  0
 20 19  2  0
 21 19  1  0
 22 21  1  0
 22 23  1  1
 23 24  1  0
 24 32  1  0
 25 24  2  0
 25 26  1  0
 26 27  1  0
 27 28  1  0
 28 29  2  0
 30 29  1  0
 31 30  2  0
 32 27  2  0
 32 31  1  0
 33 35  1  0
 33 22  1  0
 34 33  2  0
M  END
$$$$
