QFW.pdb
     RDKit          3D

 35 37  0  0  1  0  0  0  0  0999 V2000
   12.1433  -20.2202   16.6439 N   0  0  0  0  0  0  0  0  0  0  0  0
   11.5498  -21.3967   17.1967 C   0  0  0  0  0  0  0  0  0  0  0  0
   11.3705  -22.4145   16.4667 O   0  0  0  0  0  0  0  0  0  0  0  0
   11.1547  -21.4022   18.6027 C   0  0  0  0  0  0  0  0  0  0  0  0
   10.4013  -20.2036   19.0444 C   0  0  0  0  0  0  0  0  0  0  0  0
   10.3614  -19.9642   20.5285 C   0  0  2  0  0  0  0  0  0  0  0  0
    9.3317  -20.6413   21.2303 N   0  0  0  0  0  0  0  0  0  0  0  0
   10.3224  -18.4696   20.7209 C   0  0  0  0  0  0  0  0  0  0  0  0
   11.3004  -17.7619   20.3241 O   0  0  0  0  0  0  0  0  0  0  0  0
    9.2514  -17.7776   21.3240 N   0  0  0  0  0  0  0  0  0  0  0  0
    9.2921  -16.2943   21.4821 C   0  0  1  0  0  0  0  0  0  0  0  0
    7.9087  -15.7764   21.2025 C   0  0  0  0  0  0  0  0  0  0  0  0
    7.6784  -14.3516   21.3073 C   0  0  0  0  0  0  0  0  0  0  0  0
    7.1652  -13.6989   22.4098 C   0  0  0  0  0  0  0  0  0  0  0  0
    6.9396  -12.3351   22.4541 C   0  0  0  0  0  0  0  0  0  0  0  0
    7.2484  -11.5905   21.3283 C   0  0  0  0  0  0  0  0  0  0  0  0
    7.7646  -12.1933   20.1995 C   0  0  0  0  0  0  0  0  0  0  0  0
    7.9694  -13.5515   20.2078 C   0  0  0  0  0  0  0  0  0  0  0  0
    9.7562  -15.9874   22.8470 C   0  0  0  0  0  0  0  0  0  0  0  0
   10.1956  -14.7948   23.0931 O   0  0  0  0  0  0  0  0  0  0  0  0
    9.7540  -16.8949   23.9219 N   0  0  0  0  0  0  0  0  0  0  0  0
   10.3346  -16.4890   25.2112 C   0  0  1  0  0  0  0  0  0  0  0  0
    9.2821  -16.6402   26.2887 C   0  0  0  0  0  0  0  0  0  0  0  0
    8.0384  -15.9139   26.0857 C   0  0  0  0  0  0  0  0  0  0  0  0
    6.7984  -16.4820   25.7533 C   0  0  0  0  0  0  0  0  0  0  0  0
    5.9562  -15.4590   25.6197 N   0  0  0  0  0  0  0  0  0  0  0  0
    6.5786  -14.2778   25.8463 C   0  0  0  0  0  0  0  0  0  0  0  0
    6.1014  -12.9836   25.8344 C   0  0  0  0  0  0  0  0  0  0  0  0
    6.9621  -11.9461   26.1264 C   0  0  0  0  0  0  0  0  0  0  0  0
    8.2887  -12.1607   26.4307 C   0  0  0  0  0  0  0  0  0  0  0  0
    8.7345  -13.4606   26.4341 C   0  0  0  0  0  0  0  0  0  0  0  0
    7.8979  -14.5361   26.1442 C   0  0  0  0  0  0  0  0  0  0  0  0
   11.5530  -17.2188   25.5274 C   0  0  0  0  0  0  0  0  0  0  0  0
   12.2020  -16.9602   26.6069 O   0  0  0  0  0  0  0  0  0  0  0  0
   12.0961  -18.2030   24.7434 O   0  0  0  0  0  0  0  0  0  0  0  0
  2  4  1  0
  2  1  1  0
  3  2  2  0
  5  4  1  0
  6  5  1  0
  6  7  1  6
  8  6  1  0
  9  8  2  0
 10  8  1  0
 11 12  1  1
 11 10  1  0
 12 13  1  0
 13 18  1  0
 13 14  2  0
 14 15  1  0
 15 16  2  0
 17 16  1  0
 18 17  2  0
 19 11  1  0
 20 19  2  0
 21 19  1  0
 22 21  1  0
 22 23  1  1
 23 24  1  0
 24 32  1  0
 25 24  2  0
 25 26  1  0
 26 27  1  0
 27 28  1  0
 28 29  2  0
 30 29  1  0
 31 30  2  0
 32 27  2  0
 32 31  1  0
 33 35  1  0
 33 22  1  0
 34 33  2  0
M  END
$$$$
