QFW.pdb
     RDKit          3D

 35 37  0  0  1  0  0  0  0  0999 V2000
   12.3454  -20.1600   20.4390 N   0  0  0  0  0  0  0  0  0  0  0  0
   11.2992  -20.6639   19.6064 C   0  0  0  0  0  0  0  0  0  0  0  0
   11.3732  -21.8392   19.1434 O   0  0  0  0  0  0  0  0  0  0  0  0
   10.1573  -19.8067   19.2996 C   0  0  0  0  0  0  0  0  0  0  0  0
   10.1947  -18.4663   19.9330 C   0  0  0  0  0  0  0  0  0  0  0  0
    9.0066  -17.5828   19.6691 C   0  0  2  0  0  0  0  0  0  0  0  0
    8.8395  -17.1676   18.3234 N   0  0  0  0  0  0  0  0  0  0  0  0
    9.1071  -16.4294   20.6344 C   0  0  0  0  0  0  0  0  0  0  0  0
    9.9785  -15.5250   20.4401 O   0  0  0  0  0  0  0  0  0  0  0  0
    8.2829  -16.2730   21.7683 N   0  0  0  0  0  0  0  0  0  0  0  0
    8.4466  -15.1002   22.6764 C   0  0  1  0  0  0  0  0  0  0  0  0
    7.0779  -14.7225   23.1704 C   0  0  0  0  0  0  0  0  0  0  0  0
    6.9793  -13.7229   24.2123 C   0  0  0  0  0  0  0  0  0  0  0  0
    6.5923  -13.9561   25.5164 C   0  0  0  0  0  0  0  0  0  0  0  0
    6.4896  -12.9620   26.4724 C   0  0  0  0  0  0  0  0  0  0  0  0
    6.7935  -11.6653   26.0939 C   0  0  0  0  0  0  0  0  0  0  0  0
    7.1862  -11.3774   24.8028 C   0  0  0  0  0  0  0  0  0  0  0  0
    7.2720  -12.4018   23.8918 C   0  0  0  0  0  0  0  0  0  0  0  0
    9.3654  -15.4823   23.7638 C   0  0  0  0  0  0  0  0  0  0  0  0
    9.4004  -14.7439   24.8266 O   0  0  0  0  0  0  0  0  0  0  0  0
   10.2144  -16.6038   23.7446 N   0  0  0  0  0  0  0  0  0  0  0  0
   11.4240  -16.6086   24.5820 C   0  0  1  0  0  0  0  0  0  0  0  0
   11.1869  -17.5097   25.7750 C   0  0  0  0  0  0  0  0  0  0  0  0
   10.2009  -17.0564   26.7433 C   0  0  0  0  0  0  0  0  0  0  0  0
    8.9760  -17.6819   27.0251 C   0  0  0  0  0  0  0  0  0  0  0  0
    8.3759  -16.9108   27.9300 N   0  0  0  0  0  0  0  0  0  0  0  0
    9.1389  -15.8367   28.2432 C   0  0  0  0  0  0  0  0  0  0  0  0
    8.9274  -14.8005   29.1289 C   0  0  0  0  0  0  0  0  0  0  0  0
    9.8955  -13.8285   29.2714 C   0  0  0  0  0  0  0  0  0  0  0  0
   11.0722  -13.8585   28.5551 C   0  0  0  0  0  0  0  0  0  0  0  0
   11.2538  -14.9029   27.6805 C   0  0  0  0  0  0  0  0  0  0  0  0
   10.3005  -15.9038   27.5069 C   0  0  0  0  0  0  0  0  0  0  0  0
   12.6153  -16.9860   23.8368 C   0  0  0  0  0  0  0  0  0  0  0  0
   12.5240  -17.3395   22.6039 O   0  0  0  0  0  0  0  0  0  0  0  0
   13.8847  -16.9984   24.3534 O   0  0  0  0  0  0  0  0  0  0  0  0
  2  4  1  0
  2  1  1  0
  3  2  2  0
  5  4  1  0
  6  5  1  0
  6  7  1  6
  8  6  1  0
  9  8  2  0
 10  8  1  0
 11 12  1  1
 11 10  1  0
 12 13  1  0
 13 18  1  0
 13 14  2  0
 14 15  1  0
 15 16  2  0
 17 16  1  0
 18 17  2  0
 19 11  1  0
 20 19  2  0
 21 19  1  0
 22 21  1  0
 22 23  1  1
 23 24  1  0
 24 32  1  0
 25 24  2  0
 25 26  1  0
 26 27  1  0
 27 28  1  0
 28 29  2  0
 30 29  1  0
 31 30  2  0
 32 27  2  0
 32 31  1  0
 33 35  1  0
 33 22  1  0
 34 33  2  0
M  END
$$$$
