QFW.pdb
     RDKit          3D

 35 37  0  0  1  0  0  0  0  0999 V2000
   10.8442  -17.6027   14.9877 N   0  0  0  0  0  0  0  0  0  0  0  0
    9.5761  -16.9734   15.1818 C   0  0  0  0  0  0  0  0  0  0  0  0
    8.7805  -16.8451   14.2063 O   0  0  0  0  0  0  0  0  0  0  0  0
    9.2199  -16.4830   16.5105 C   0  0  0  0  0  0  0  0  0  0  0  0
   10.1134  -16.9363   17.6038 C   0  0  0  0  0  0  0  0  0  0  0  0
    9.4816  -17.8206   18.6432 C   0  0  2  0  0  0  0  0  0  0  0  0
    8.2302  -18.3854   18.2876 N   0  0  0  0  0  0  0  0  0  0  0  0
    9.4248  -17.0141   19.9154 C   0  0  0  0  0  0  0  0  0  0  0  0
   10.4706  -16.4216   20.3278 O   0  0  0  0  0  0  0  0  0  0  0  0
    8.2655  -16.8619   20.7042 N   0  0  0  0  0  0  0  0  0  0  0  0
    8.2878  -16.0314   21.9438 C   0  0  1  0  0  0  0  0  0  0  0  0
    6.8698  -15.6275   22.2373 C   0  0  0  0  0  0  0  0  0  0  0  0
    6.6229  -14.7894   23.3910 C   0  0  0  0  0  0  0  0  0  0  0  0
    6.8293  -13.4262   23.4536 C   0  0  0  0  0  0  0  0  0  0  0  0
    6.6013  -12.6702   24.5891 C   0  0  0  0  0  0  0  0  0  0  0  0
    6.1407  -13.3226   25.7202 C   0  0  0  0  0  0  0  0  0  0  0  0
    5.9171  -14.6842   25.7113 C   0  0  0  0  0  0  0  0  0  0  0  0
    6.1596  -15.3886   24.5573 C   0  0  0  0  0  0  0  0  0  0  0  0
    8.8939  -16.8298   23.0244 C   0  0  0  0  0  0  0  0  0  0  0  0
    8.4156  -18.0097   23.2591 O   0  0  0  0  0  0  0  0  0  0  0  0
    9.9701  -16.4121   23.8284 N   0  0  0  0  0  0  0  0  0  0  0  0
   10.4817  -17.3111   24.8745 C   0  0  1  0  0  0  0  0  0  0  0  0
   11.6557  -16.6440   25.5587 C   0  0  0  0  0  0  0  0  0  0  0  0
   11.4822  -16.3096   26.9635 C   0  0  0  0  0  0  0  0  0  0  0  0
   11.4195  -17.2252   28.0258 C   0  0  0  0  0  0  0  0  0  0  0  0
   11.2081  -16.4958   29.1199 N   0  0  0  0  0  0  0  0  0  0  0  0
   11.1334  -15.1765   28.8235 C   0  0  0  0  0  0  0  0  0  0  0  0
   10.9447  -14.0743   29.6312 C   0  0  0  0  0  0  0  0  0  0  0  0
   10.9299  -12.8177   29.0626 C   0  0  0  0  0  0  0  0  0  0  0  0
   11.0979  -12.6263   27.7084 C   0  0  0  0  0  0  0  0  0  0  0  0
   11.2833  -13.7436   26.9300 C   0  0  0  0  0  0  0  0  0  0  0  0
   11.3040  -15.0296   27.4651 C   0  0  0  0  0  0  0  0  0  0  0  0
    9.4496  -17.7099   25.8194 C   0  0  0  0  0  0  0  0  0  0  0  0
    8.4293  -16.9541   26.0222 O   0  0  0  0  0  0  0  0  0  0  0  0
    9.4664  -18.8722   26.5454 O   0  0  0  0  0  0  0  0  0  0  0  0
  2  4  1  0
  2  1  1  0
  3  2  2  0
  5  4  1  0
  6  5  1  0
  6  7  1  6
  8  6  1  0
  9  8  2  0
 10  8  1  0
 11 12  1  1
 11 10  1  0
 12 13  1  0
 13 18  1  0
 13 14  2  0
 14 15  1  0
 15 16  2  0
 17 16  1  0
 18 17  2  0
 19 11  1  0
 20 19  2  0
 21 19  1  0
 22 21  1  0
 22 23  1  1
 23 24  1  0
 24 32  1  0
 25 24  2  0
 25 26  1  0
 26 27  1  0
 27 28  1  0
 28 29  2  0
 30 29  1  0
 31 30  2  0
 32 27  2  0
 32 31  1  0
 33 35  1  0
 33 22  1  0
 34 33  2  0
M  END
$$$$
