QFW.pdb
     RDKit          3D

 35 37  0  0  1  0  0  0  0  0999 V2000
    8.6244  -15.9309   14.9708 N   0  0  0  0  0  0  0  0  0  0  0  0
    7.9808  -17.0749   15.5356 C   0  0  0  0  0  0  0  0  0  0  0  0
    7.5483  -17.9922   14.7789 O   0  0  0  0  0  0  0  0  0  0  0  0
    7.8295  -17.1640   16.9854 C   0  0  0  0  0  0  0  0  0  0  0  0
    9.0828  -16.9806   17.7566 C   0  0  0  0  0  0  0  0  0  0  0  0
    9.1277  -17.6479   19.1036 C   0  0  2  0  0  0  0  0  0  0  0  0
    8.1116  -18.6073   19.3455 N   0  0  0  0  0  0  0  0  0  0  0  0
    9.1523  -16.5432   20.1288 C   0  0  0  0  0  0  0  0  0  0  0  0
   10.0332  -15.6311   20.0450 O   0  0  0  0  0  0  0  0  0  0  0  0
    8.2449  -16.4416   21.2040 N   0  0  0  0  0  0  0  0  0  0  0  0
    8.3881  -15.3637   22.2260 C   0  0  1  0  0  0  0  0  0  0  0  0
    7.0890  -15.2854   22.9786 C   0  0  0  0  0  0  0  0  0  0  0  0
    7.0322  -14.4491   24.1583 C   0  0  0  0  0  0  0  0  0  0  0  0
    6.5827  -14.8428   25.4023 C   0  0  0  0  0  0  0  0  0  0  0  0
    6.5243  -13.9985   26.4962 C   0  0  0  0  0  0  0  0  0  0  0  0
    6.9415  -12.6891   26.3270 C   0  0  0  0  0  0  0  0  0  0  0  0
    7.4005  -12.2440   25.1042 C   0  0  0  0  0  0  0  0  0  0  0  0
    7.4380  -13.1234   24.0498 C   0  0  0  0  0  0  0  0  0  0  0  0
    9.5347  -15.6957   23.0906 C   0  0  0  0  0  0  0  0  0  0  0  0
   10.3770  -14.7567   23.3818 O   0  0  0  0  0  0  0  0  0  0  0  0
    9.7887  -16.9658   23.6396 N   0  0  0  0  0  0  0  0  0  0  0  0
   11.1155  -17.2562   24.2049 C   0  0  1  0  0  0  0  0  0  0  0  0
   11.4302  -16.2227   25.2652 C   0  0  0  0  0  0  0  0  0  0  0  0
   10.8086  -16.4188   26.5655 C   0  0  0  0  0  0  0  0  0  0  0  0
   10.2916  -17.6280   27.0567 C   0  0  0  0  0  0  0  0  0  0  0  0
    9.7810  -17.3435   28.2533 N   0  0  0  0  0  0  0  0  0  0  0  0
    9.9401  -16.0331   28.5560 C   0  0  0  0  0  0  0  0  0  0  0  0
    9.5861  -15.3112   29.6769 C   0  0  0  0  0  0  0  0  0  0  0  0
    9.8903  -13.9672   29.7357 C   0  0  0  0  0  0  0  0  0  0  0  0
   10.5389  -13.3190   28.7073 C   0  0  0  0  0  0  0  0  0  0  0  0
   10.8781  -14.0647   27.6039 C   0  0  0  0  0  0  0  0  0  0  0  0
   10.5884  -15.4237   27.5051 C   0  0  0  0  0  0  0  0  0  0  0  0
   11.2180  -18.6151   24.7149 C   0  0  0  0  0  0  0  0  0  0  0  0
   10.1782  -19.3701   24.7616 O   0  0  0  0  0  0  0  0  0  0  0  0
   12.3758  -19.1901   25.1699 O   0  0  0  0  0  0  0  0  0  0  0  0
  2  4  1  0
  2  1  1  0
  3  2  2  0
  5  4  1  0
  6  5  1  0
  6  7  1  1
  8  6  1  0
  9  8  2  0
 10  8  1  0
 11 12  1  1
 11 10  1  0
 12 13  1  0
 13 18  1  0
 13 14  2  0
 14 15  1  0
 15 16  2  0
 17 16  1  0
 18 17  2  0
 19 11  1  0
 20 19  2  0
 21 19  1  0
 22 21  1  0
 22 23  1  1
 23 24  1  0
 24 32  1  0
 25 24  2  0
 25 26  1  0
 26 27  1  0
 27 28  1  0
 28 29  2  0
 30 29  1  0
 31 30  2  0
 32 27  2  0
 32 31  1  0
 33 35  1  0
 33 22  1  0
 34 33  2  0
M  END
$$$$
