LFM.pdb
     RDKit          3D

 28 28  0  0  1  0  0  0  0  0999 V2000
   28.3919  -16.9961  -15.0263 C   0  0  0  0  0  0  0  0  0  0  0  0
   27.9543  -18.0352  -16.0186 C   0  0  2  0  0  0  0  0  0  0  0  0
   27.0672  -17.3373  -17.0501 C   0  0  0  0  0  0  0  0  0  0  0  0
   27.1288  -19.1283  -15.4152 C   0  0  0  0  0  0  0  0  0  0  0  0
   27.7845  -19.8584  -14.2862 C   0  0  2  0  0  0  0  0  0  0  0  0
   28.8178  -20.7652  -14.6956 N   0  0  0  0  0  0  0  0  0  0  0  0
   26.7587  -20.5764  -13.4639 C   0  0  0  0  0  0  0  0  0  0  0  0
   26.4836  -21.7705  -13.7750 O   0  0  0  0  0  0  0  0  0  0  0  0
   26.0851  -20.0077  -12.3735 N   0  0  0  0  0  0  0  0  0  0  0  0
   25.1342  -20.7804  -11.6199 C   0  0  1  0  0  0  0  0  0  0  0  0
   24.9565  -20.2037  -10.2316 C   0  0  0  0  0  0  0  0  0  0  0  0
   26.1434  -20.3741   -9.3662 C   0  0  0  0  0  0  0  0  0  0  0  0
   27.0441  -21.4207   -9.5295 C   0  0  0  0  0  0  0  0  0  0  0  0
   28.1498  -21.5555   -8.6882 C   0  0  0  0  0  0  0  0  0  0  0  0
   28.3570  -20.6398   -7.6781 C   0  0  0  0  0  0  0  0  0  0  0  0
   27.4832  -19.5938   -7.4922 C   0  0  0  0  0  0  0  0  0  0  0  0
   26.4132  -19.4911   -8.3316 C   0  0  0  0  0  0  0  0  0  0  0  0
   23.7821  -20.7453  -12.2582 C   0  0  0  0  0  0  0  0  0  0  0  0
   23.4115  -19.6686  -12.7879 O   0  0  0  0  0  0  0  0  0  0  0  0
   17.2422  -24.5974  -14.4901 C   0  0  0  0  0  0  0  0  0  0  0  0
   18.9389  -24.7606  -13.8753 S   0  0  0  0  0  0  0  0  0  0  0  0
   19.5601  -23.0748  -13.5462 C   0  0  0  0  0  0  0  0  0  0  0  0
   20.9707  -23.1713  -13.0042 C   0  0  0  0  0  0  0  0  0  0  0  0
   21.5731  -21.7962  -12.8683 C   0  0  2  0  0  0  0  0  0  0  0  0
   22.9054  -21.8444  -12.2990 N   0  0  0  0  0  0  0  0  0  0  0  0
   20.7531  -20.9353  -11.9728 C   0  0  0  0  0  0  0  0  0  0  0  0
   20.9062  -20.9810  -10.7249 O   0  0  0  0  0  0  0  0  0  0  0  0
   19.7926  -20.0507  -12.4484 O   0  0  0  0  0  0  0  0  0  0  0  0
  2  1  1  1
  2  3  1  0
  2  4  1  0
  4  5  1  0
  5  6  1  6
  7  8  2  0
  7  5  1  0
  9  7  1  0
 10  9  1  0
 10 11  1  1
 12 11  1  0
 12 13  2  0
 14 13  1  0
 15 14  2  0
 16 17  2  0
 16 15  1  0
 17 12  1  0
 18 10  1  0
 19 18  2  0
 20 21  1  0
 21 22  1  0
 23 22  1  0
 24 23  1  1
 24 25  1  0
 25 18  1  0
 26 28  1  0
 26 24  1  0
 27 26  2  0
M  END
$$$$
