LFM.pdb
     RDKit          3D

 28 28  0  0  1  0  0  0  0  0999 V2000
   24.0190  -21.3514  -15.8351 C   0  0  0  0  0  0  0  0  0  0  0  0
   25.2850  -20.6367  -15.4580 C   0  0  2  0  0  0  0  0  0  0  0  0
   26.3583  -21.0443  -16.4679 C   0  0  0  0  0  0  0  0  0  0  0  0
   25.8050  -21.0143  -14.1062 C   0  0  0  0  0  0  0  0  0  0  0  0
   24.8579  -20.7595  -12.9768 C   0  0  2  0  0  0  0  0  0  0  0  0
   24.2250  -19.4730  -13.0209 N   0  0  0  0  0  0  0  0  0  0  0  0
   25.5497  -20.9537  -11.6623 C   0  0  0  0  0  0  0  0  0  0  0  0
   26.1599  -22.0444  -11.4722 O   0  0  0  0  0  0  0  0  0  0  0  0
   25.5619  -20.0035  -10.6313 N   0  0  0  0  0  0  0  0  0  0  0  0
   26.2590  -20.2703   -9.4017 C   0  0  1  0  0  0  0  0  0  0  0  0
   26.7722  -18.9852   -8.7878 C   0  0  0  0  0  0  0  0  0  0  0  0
   27.6675  -19.2010   -7.6309 C   0  0  0  0  0  0  0  0  0  0  0  0
   28.6938  -20.1390   -7.6442 C   0  0  0  0  0  0  0  0  0  0  0  0
   29.5149  -20.3220   -6.5302 C   0  0  0  0  0  0  0  0  0  0  0  0
   29.3098  -19.5637   -5.3968 C   0  0  0  0  0  0  0  0  0  0  0  0
   28.3026  -18.6279   -5.3541 C   0  0  0  0  0  0  0  0  0  0  0  0
   27.5186  -18.4742   -6.4594 C   0  0  0  0  0  0  0  0  0  0  0  0
   25.3471  -20.8789   -8.3843 C   0  0  0  0  0  0  0  0  0  0  0  0
   24.1190  -20.6325   -8.4756 O   0  0  0  0  0  0  0  0  0  0  0  0
   27.3747  -23.1652   -2.7711 C   0  0  0  0  0  0  0  0  0  0  0  0
   25.7054  -23.8567   -2.6342 S   0  0  0  0  0  0  0  0  0  0  0  0
   24.7287  -23.1939   -4.0281 C   0  0  0  0  0  0  0  0  0  0  0  0
   25.6787  -22.6819   -5.0902 C   0  0  0  0  0  0  0  0  0  0  0  0
   24.9106  -22.2470   -6.3121 C   0  0  2  0  0  0  0  0  0  0  0  0
   25.7843  -21.7078   -7.3354 N   0  0  0  0  0  0  0  0  0  0  0  0
   23.9281  -21.1798   -5.9788 C   0  0  0  0  0  0  0  0  0  0  0  0
   24.2634  -19.9678   -6.0131 O   0  0  0  0  0  0  0  0  0  0  0  0
   22.6133  -21.4503   -5.6185 O   0  0  0  0  0  0  0  0  0  0  0  0
  2  1  1  6
  2  3  1  0
  2  4  1  0
  4  5  1  0
  5  6  1  1
  7  8  2  0
  7  5  1  0
  9  7  1  0
 10  9  1  0
 10 11  1  1
 12 11  1  0
 12 13  2  0
 14 13  1  0
 15 14  2  0
 16 17  2  0
 16 15  1  0
 17 12  1  0
 18 10  1  0
 19 18  2  0
 20 21  1  0
 21 22  1  0
 23 22  1  0
 24 23  1  1
 24 25  1  0
 25 18  1  0
 26 28  1  0
 26 24  1  0
 27 26  2  0
M  END
$$$$
