LFM.pdb
     RDKit          3D

 28 28  0  0  1  0  0  0  0  0999 V2000
   25.3029  -18.2386  -21.1102 C   0  0  0  0  0  0  0  0  0  0  0  0
   26.4388  -18.9957  -20.4838 C   0  0  2  0  0  0  0  0  0  0  0  0
   26.8748  -20.0717  -21.4789 C   0  0  0  0  0  0  0  0  0  0  0  0
   26.0596  -19.7081  -19.2233 C   0  0  0  0  0  0  0  0  0  0  0  0
   25.4452  -18.8386  -18.1726 C   0  0  2  0  0  0  0  0  0  0  0  0
   26.1823  -17.6387  -17.8995 N   0  0  0  0  0  0  0  0  0  0  0  0
   25.2332  -19.6169  -16.9102 C   0  0  0  0  0  0  0  0  0  0  0  0
   24.8834  -20.8273  -17.0151 O   0  0  0  0  0  0  0  0  0  0  0  0
   25.3970  -19.0877  -15.6222 N   0  0  0  0  0  0  0  0  0  0  0  0
   25.1062  -19.8875  -14.4625 C   0  0  1  0  0  0  0  0  0  0  0  0
   25.7601  -19.3004  -13.2299 C   0  0  0  0  0  0  0  0  0  0  0  0
   25.6009  -20.1387  -12.0223 C   0  0  0  0  0  0  0  0  0  0  0  0
   24.6521  -19.8669  -11.0428 C   0  0  0  0  0  0  0  0  0  0  0  0
   24.5354  -20.6754   -9.9108 C   0  0  0  0  0  0  0  0  0  0  0  0
   25.3711  -21.7614   -9.7564 C   0  0  0  0  0  0  0  0  0  0  0  0
   26.3193  -22.0555  -10.7085 C   0  0  0  0  0  0  0  0  0  0  0  0
   26.4068  -21.2455  -11.8023 C   0  0  0  0  0  0  0  0  0  0  0  0
   23.6379  -19.9141  -14.1785 C   0  0  0  0  0  0  0  0  0  0  0  0
   23.0420  -18.8141  -14.0687 O   0  0  0  0  0  0  0  0  0  0  0  0
   22.5291  -22.0234  -17.7057 C   0  0  0  0  0  0  0  0  0  0  0  0
   20.7466  -21.8285  -17.4446 S   0  0  0  0  0  0  0  0  0  0  0  0
   20.5270  -20.8414  -15.9235 C   0  0  0  0  0  0  0  0  0  0  0  0
   20.6372  -21.7602  -14.7250 C   0  0  0  0  0  0  0  0  0  0  0  0
   21.4888  -21.1242  -13.6561 C   0  0  2  0  0  0  0  0  0  0  0  0
   22.8896  -21.0954  -14.0279 N   0  0  0  0  0  0  0  0  0  0  0  0
   21.3986  -21.8785  -12.3761 C   0  0  0  0  0  0  0  0  0  0  0  0
   20.3132  -21.9367  -11.7426 O   0  0  0  0  0  0  0  0  0  0  0  0
   22.4805  -22.5477  -11.8167 O   0  0  0  0  0  0  0  0  0  0  0  0
  2  1  1  6
  2  3  1  0
  2  4  1  0
  4  5  1  0
  5  6  1  1
  7  8  2  0
  7  5  1  0
  9  7  1  0
 10  9  1  0
 10 11  1  1
 12 11  1  0
 12 13  2  0
 14 13  1  0
 15 14  2  0
 16 17  2  0
 16 15  1  0
 17 12  1  0
 18 10  1  0
 19 18  2  0
 20 21  1  0
 21 22  1  0
 23 22  1  0
 24 23  1  6
 24 25  1  0
 25 18  1  0
 26 28  1  0
 26 24  1  0
 27 26  2  0
M  END
$$$$
