LFM.pdb
     RDKit          3D

 28 28  0  0  1  0  0  0  0  0999 V2000
   18.9350  -35.3729  -10.8580 C   0  0  0  0  0  0  0  0  0  0  0  0
   20.1282  -36.2492  -11.1114 C   0  0  2  0  0  0  0  0  0  0  0  0
   19.6176  -37.6816  -11.2710 C   0  0  0  0  0  0  0  0  0  0  0  0
   21.1072  -36.2685   -9.9793 C   0  0  0  0  0  0  0  0  0  0  0  0
   21.8330  -34.9796   -9.7566 C   0  0  2  0  0  0  0  0  0  0  0  0
   22.6419  -34.5627  -10.8654 N   0  0  0  0  0  0  0  0  0  0  0  0
   22.6597  -35.0556   -8.5096 C   0  0  0  0  0  0  0  0  0  0  0  0
   23.7313  -35.7251   -8.5521 O   0  0  0  0  0  0  0  0  0  0  0  0
   22.3196  -34.4326   -7.3004 N   0  0  0  0  0  0  0  0  0  0  0  0
   23.2107  -34.4930   -6.1728 C   0  0  1  0  0  0  0  0  0  0  0  0
   23.9343  -33.1758   -5.9915 C   0  0  0  0  0  0  0  0  0  0  0  0
   24.9847  -32.9361   -7.0043 C   0  0  0  0  0  0  0  0  0  0  0  0
   26.2385  -33.5334   -6.9373 C   0  0  0  0  0  0  0  0  0  0  0  0
   27.2095  -33.2774   -7.9070 C   0  0  0  0  0  0  0  0  0  0  0  0
   26.9264  -32.4201   -8.9494 C   0  0  0  0  0  0  0  0  0  0  0  0
   25.6949  -31.8145   -9.0423 C   0  0  0  0  0  0  0  0  0  0  0  0
   24.7689  -32.0862   -8.0785 C   0  0  0  0  0  0  0  0  0  0  0  0
   22.4588  -34.7299   -4.9017 C   0  0  0  0  0  0  0  0  0  0  0  0
   21.3411  -34.1729   -4.7691 O   0  0  0  0  0  0  0  0  0  0  0  0
   21.4564  -39.4735    1.3244 C   0  0  0  0  0  0  0  0  0  0  0  0
   22.6040  -38.9420    0.0266 S   0  0  0  0  0  0  0  0  0  0  0  0
   21.8178  -37.5480   -0.8536 C   0  0  0  0  0  0  0  0  0  0  0  0
   22.7043  -37.1391   -2.0111 C   0  0  0  0  0  0  0  0  0  0  0  0
   22.1237  -35.9393   -2.7150 C   0  0  2  0  0  0  0  0  0  0  0  0
   22.9299  -35.5373   -3.8507 N   0  0  0  0  0  0  0  0  0  0  0  0
   22.0479  -34.7649   -1.8037 C   0  0  0  0  0  0  0  0  0  0  0  0
   21.0424  -34.5894   -1.0683 O   0  0  0  0  0  0  0  0  0  0  0  0
   23.0576  -33.8145   -1.7120 O   0  0  0  0  0  0  0  0  0  0  0  0
  2  1  1  1
  2  3  1  0
  2  4  1  0
  4  5  1  0
  5  6  1  6
  7  8  2  0
  7  5  1  0
  9  7  1  0
 10  9  1  0
 10 11  1  1
 12 11  1  0
 12 13  2  0
 14 13  1  0
 15 14  2  0
 16 17  2  0
 16 15  1  0
 17 12  1  0
 18 10  1  0
 19 18  2  0
 20 21  1  0
 21 22  1  0
 23 22  1  0
 24 23  1  1
 24 25  1  0
 25 18  1  0
 26 28  1  0
 26 24  1  0
 27 26  2  0
M  END
$$$$
