LFM.pdb
     RDKit          3D

 28 28  0  0  1  0  0  0  0  0999 V2000
   28.7801  -19.7020  -17.5065 C   0  0  0  0  0  0  0  0  0  0  0  0
   29.4916  -20.3580  -16.3579 C   0  0  2  0  0  0  0  0  0  0  0  0
   30.2982  -21.5258  -16.9269 C   0  0  0  0  0  0  0  0  0  0  0  0
   28.5666  -20.9368  -15.3334 C   0  0  0  0  0  0  0  0  0  0  0  0
   27.6478  -19.9480  -14.6889 C   0  0  2  0  0  0  0  0  0  0  0  0
   28.3190  -18.8503  -14.0546 N   0  0  0  0  0  0  0  0  0  0  0  0
   26.7419  -20.6363  -13.7143 C   0  0  0  0  0  0  0  0  0  0  0  0
   26.2497  -21.7507  -14.0521 O   0  0  0  0  0  0  0  0  0  0  0  0
   26.4055  -20.1223  -12.4539 N   0  0  0  0  0  0  0  0  0  0  0  0
   25.4488  -20.8007  -11.6211 C   0  0  1  0  0  0  0  0  0  0  0  0
   25.4320  -20.2040  -10.2300 C   0  0  0  0  0  0  0  0  0  0  0  0
   26.6321  -20.5351   -9.4321 C   0  0  0  0  0  0  0  0  0  0  0  0
   27.6017  -21.4280   -9.8749 C   0  0  0  0  0  0  0  0  0  0  0  0
   28.7184  -21.7237   -9.0911 C   0  0  0  0  0  0  0  0  0  0  0  0
   28.8673  -21.1242   -7.8582 C   0  0  0  0  0  0  0  0  0  0  0  0
   27.9248  -20.2365   -7.3935 C   0  0  0  0  0  0  0  0  0  0  0  0
   26.8459  -19.9697   -8.1841 C   0  0  0  0  0  0  0  0  0  0  0  0
   24.0603  -20.6440  -12.1548 C   0  0  0  0  0  0  0  0  0  0  0  0
   23.7591  -19.5501  -12.6931 O   0  0  0  0  0  0  0  0  0  0  0  0
   21.1059  -24.5620  -16.2213 C   0  0  0  0  0  0  0  0  0  0  0  0
   19.7843  -24.3750  -14.9958 S   0  0  0  0  0  0  0  0  0  0  0  0
   20.1003  -22.8197  -14.0917 C   0  0  0  0  0  0  0  0  0  0  0  0
   21.4859  -22.8810  -13.4841 C   0  0  0  0  0  0  0  0  0  0  0  0
   21.8079  -21.5842  -12.7864 C   0  0  2  0  0  0  0  0  0  0  0  0
   23.0768  -21.6473  -12.0884 N   0  0  0  0  0  0  0  0  0  0  0  0
   20.7737  -21.2483  -11.7700 C   0  0  0  0  0  0  0  0  0  0  0  0
   20.9502  -21.5363  -10.5581 O   0  0  0  0  0  0  0  0  0  0  0  0
   19.5801  -20.6122  -12.0895 O   0  0  0  0  0  0  0  0  0  0  0  0
  2  1  1  6
  2  3  1  0
  2  4  1  0
  4  5  1  0
  5  6  1  1
  7  8  2  0
  7  5  1  0
  9  7  1  0
 10  9  1  0
 10 11  1  1
 12 11  1  0
 12 13  2  0
 14 13  1  0
 15 14  2  0
 16 17  2  0
 16 15  1  0
 17 12  1  0
 18 10  1  0
 19 18  2  0
 20 21  1  0
 21 22  1  0
 23 22  1  0
 24 23  1  1
 24 25  1  0
 25 18  1  0
 26 28  1  0
 26 24  1  0
 27 26  2  0
M  END
$$$$
