LFM.pdb
     RDKit          3D

 28 28  0  0  1  0  0  0  0  0999 V2000
   25.5811  -18.1963  -18.9501 C   0  0  0  0  0  0  0  0  0  0  0  0
   26.5458  -19.2147  -18.4134 C   0  0  2  0  0  0  0  0  0  0  0  0
   27.1673  -19.9318  -19.6124 C   0  0  0  0  0  0  0  0  0  0  0  0
   25.8959  -20.2701  -17.5743 C   0  0  0  0  0  0  0  0  0  0  0  0
   26.8471  -21.1558  -16.8338 C   0  0  2  0  0  0  0  0  0  0  0  0
   27.0980  -22.4138  -17.4757 N   0  0  0  0  0  0  0  0  0  0  0  0
   26.3710  -21.3742  -15.4303 C   0  0  0  0  0  0  0  0  0  0  0  0
   25.4860  -22.2562  -15.2381 O   0  0  0  0  0  0  0  0  0  0  0  0
   26.8440  -20.6622  -14.3188 N   0  0  0  0  0  0  0  0  0  0  0  0
   26.2779  -20.8847  -13.0152 C   0  0  1  0  0  0  0  0  0  0  0  0
   27.1039  -20.1976  -11.9489 C   0  0  0  0  0  0  0  0  0  0  0  0
   26.5184  -20.2967  -10.5947 C   0  0  0  0  0  0  0  0  0  0  0  0
   25.7871  -19.2639  -10.0185 C   0  0  0  0  0  0  0  0  0  0  0  0
   25.2557  -19.3889   -8.7338 C   0  0  0  0  0  0  0  0  0  0  0  0
   25.4560  -20.5521   -8.0206 C   0  0  0  0  0  0  0  0  0  0  0  0
   26.1750  -21.5911   -8.5643 C   0  0  0  0  0  0  0  0  0  0  0  0
   26.6803  -21.4364   -9.8216 C   0  0  0  0  0  0  0  0  0  0  0  0
   24.9049  -20.2999  -12.9151 C   0  0  0  0  0  0  0  0  0  0  0  0
   24.7335  -19.1301  -13.3385 O   0  0  0  0  0  0  0  0  0  0  0  0
   20.3614  -21.9473  -15.8576 C   0  0  0  0  0  0  0  0  0  0  0  0
   19.2742  -20.8809  -14.8756 S   0  0  0  0  0  0  0  0  0  0  0  0
   20.2369  -20.3079  -13.4329 C   0  0  0  0  0  0  0  0  0  0  0  0
   21.6320  -20.8908  -13.5141 C   0  0  0  0  0  0  0  0  0  0  0  0
   22.4555  -20.4405  -12.3346 C   0  0  2  0  0  0  0  0  0  0  0  0
   23.7994  -20.9823  -12.3761 N   0  0  0  0  0  0  0  0  0  0  0  0
   21.8495  -20.8902  -11.0517 C   0  0  0  0  0  0  0  0  0  0  0  0
   20.8668  -20.2784  -10.5589 O   0  0  0  0  0  0  0  0  0  0  0  0
   22.3202  -21.9858  -10.3379 O   0  0  0  0  0  0  0  0  0  0  0  0
  2  1  1  6
  2  3  1  0
  2  4  1  0
  4  5  1  0
  5  6  1  6
  7  8  2  0
  7  5  1  0
  9  7  1  0
 10  9  1  0
 10 11  1  1
 12 11  1  0
 12 13  2  0
 14 13  1  0
 15 14  2  0
 16 17  2  0
 16 15  1  0
 17 12  1  0
 18 10  1  0
 19 18  2  0
 20 21  1  0
 21 22  1  0
 23 22  1  0
 24 23  1  6
 24 25  1  0
 25 18  1  0
 26 28  1  0
 26 24  1  0
 27 26  2  0
M  END
$$$$
