LFM.pdb
     RDKit          3D

 28 28  0  0  1  0  0  0  0  0999 V2000
   28.2498  -18.0964  -14.6894 C   0  0  0  0  0  0  0  0  0  0  0  0
   27.4306  -19.2259  -15.2452 C   0  0  2  0  0  0  0  0  0  0  0  0
   26.4075  -18.6189  -16.2059 C   0  0  0  0  0  0  0  0  0  0  0  0
   26.6515  -19.9681  -14.2048 C   0  0  0  0  0  0  0  0  0  0  0  0
   27.4784  -20.5684  -13.1124 C   0  0  2  0  0  0  0  0  0  0  0  0
   28.2595  -21.6997  -13.5221 N   0  0  0  0  0  0  0  0  0  0  0  0
   26.6146  -20.9294  -11.9429 C   0  0  0  0  0  0  0  0  0  0  0  0
   26.2436  -22.1330  -11.8327 O   0  0  0  0  0  0  0  0  0  0  0  0
   26.1918  -20.0174  -10.9653 N   0  0  0  0  0  0  0  0  0  0  0  0
   25.4281  -20.4653   -9.8316 C   0  0  1  0  0  0  0  0  0  0  0  0
   25.4103  -19.4089   -8.7475 C   0  0  0  0  0  0  0  0  0  0  0  0
   26.5083  -19.5516   -7.7674 C   0  0  0  0  0  0  0  0  0  0  0  0
   27.2670  -18.4709   -7.3317 C   0  0  0  0  0  0  0  0  0  0  0  0
   28.3022  -18.6438   -6.4113 C   0  0  0  0  0  0  0  0  0  0  0  0
   28.5811  -19.9031   -5.9235 C   0  0  0  0  0  0  0  0  0  0  0  0
   27.8477  -20.9913   -6.3359 C   0  0  0  0  0  0  0  0  0  0  0  0
   26.8433  -20.7878   -7.2359 C   0  0  0  0  0  0  0  0  0  0  0  0
   23.9983  -20.7014  -10.2021 C   0  0  0  0  0  0  0  0  0  0  0  0
   23.6215  -20.3411  -11.3446 O   0  0  0  0  0  0  0  0  0  0  0  0
   17.1686  -24.3051   -8.4868 C   0  0  0  0  0  0  0  0  0  0  0  0
   18.8031  -23.8361   -7.8607 S   0  0  0  0  0  0  0  0  0  0  0  0
   19.5938  -22.7960   -9.1371 C   0  0  0  0  0  0  0  0  0  0  0  0
   20.9912  -22.4370   -8.6777 C   0  0  0  0  0  0  0  0  0  0  0  0
   21.7124  -21.6655   -9.7532 C   0  0  2  0  0  0  0  0  0  0  0  0
   23.0557  -21.3012   -9.3477 N   0  0  0  0  0  0  0  0  0  0  0  0
   21.0015  -20.3982  -10.0755 C   0  0  0  0  0  0  0  0  0  0  0  0
   21.1880  -19.3655   -9.3818 O   0  0  0  0  0  0  0  0  0  0  0  0
   20.1107  -20.2814  -11.1358 O   0  0  0  0  0  0  0  0  0  0  0  0
  2  1  1  1
  2  3  1  0
  2  4  1  0
  4  5  1  0
  5  6  1  6
  7  8  2  0
  7  5  1  0
  9  7  1  0
 10  9  1  0
 10 11  1  1
 12 11  1  0
 12 13  2  0
 14 13  1  0
 15 14  2  0
 16 17  2  0
 16 15  1  0
 17 12  1  0
 18 10  1  0
 19 18  2  0
 20 21  1  0
 21 22  1  0
 23 22  1  0
 24 23  1  1
 24 25  1  0
 25 18  1  0
 26 28  1  0
 26 24  1  0
 27 26  2  0
M  END
$$$$
