LFM.pdb
     RDKit          3D

 28 28  0  0  1  0  0  0  0  0999 V2000
   15.9075  -13.9093    8.8247 C   0  0  0  0  0  0  0  0  0  0  0  0
   15.1536  -15.2030    8.9430 C   0  0  2  0  0  0  0  0  0  0  0  0
   15.6679  -15.9190   10.1923 C   0  0  0  0  0  0  0  0  0  0  0  0
   15.3799  -16.1343    7.7933 C   0  0  0  0  0  0  0  0  0  0  0  0
   14.9853  -15.5884    6.4577 C   0  0  2  0  0  0  0  0  0  0  0  0
   13.5877  -15.7168    6.1611 N   0  0  0  0  0  0  0  0  0  0  0  0
   15.8064  -16.2175    5.3741 C   0  0  0  0  0  0  0  0  0  0  0  0
   15.4525  -17.3549    4.9506 O   0  0  0  0  0  0  0  0  0  0  0  0
   16.9413  -15.6252    4.8019 N   0  0  0  0  0  0  0  0  0  0  0  0
   17.7258  -16.3398    3.8308 C   0  0  1  0  0  0  0  0  0  0  0  0
   18.6120  -15.3891    3.0547 C   0  0  0  0  0  0  0  0  0  0  0  0
   19.3375  -16.0363    1.9405 C   0  0  0  0  0  0  0  0  0  0  0  0
   18.7200  -16.9123    1.0547 C   0  0  0  0  0  0  0  0  0  0  0  0
   19.4381  -17.5121    0.0187 C   0  0  0  0  0  0  0  0  0  0  0  0
   20.7805  -17.2353   -0.1332 C   0  0  0  0  0  0  0  0  0  0  0  0
   21.4187  -16.3727    0.7276 C   0  0  0  0  0  0  0  0  0  0  0  0
   20.6880  -15.8037    1.7288 C   0  0  0  0  0  0  0  0  0  0  0  0
   18.6462  -17.3160    4.4919 C   0  0  0  0  0  0  0  0  0  0  0  0
   19.5646  -16.8583    5.2159 O   0  0  0  0  0  0  0  0  0  0  0  0
   21.5473  -18.8069    8.8588 C   0  0  0  0  0  0  0  0  0  0  0  0
   20.6079  -20.3538    8.7689 S   0  0  0  0  0  0  0  0  0  0  0  0
   20.3335  -20.7187    7.0004 C   0  0  0  0  0  0  0  0  0  0  0  0
   19.3710  -19.6960    6.4344 C   0  0  0  0  0  0  0  0  0  0  0  0
   19.4761  -19.6558    4.9312 C   0  0  2  0  0  0  0  0  0  0  0  0
   18.5425  -18.7115    4.3498 N   0  0  0  0  0  0  0  0  0  0  0  0
   19.1717  -20.9850    4.3345 C   0  0  0  0  0  0  0  0  0  0  0  0
   19.8204  -22.0057    4.6808 O   0  0  0  0  0  0  0  0  0  0  0  0
   18.1774  -21.1748    3.3823 O   0  0  0  0  0  0  0  0  0  0  0  0
  2  1  1  6
  2  3  1  0
  2  4  1  0
  4  5  1  0
  5  6  1  6
  7  8  2  0
  7  5  1  0
  9  7  1  0
 10  9  1  0
 10 11  1  1
 12 11  1  0
 12 13  2  0
 14 13  1  0
 15 14  2  0
 16 17  2  0
 16 15  1  0
 17 12  1  0
 18 10  1  0
 19 18  2  0
 20 21  1  0
 21 22  1  0
 23 22  1  0
 24 23  1  1
 24 25  1  0
 25 18  1  0
 26 28  1  0
 26 24  1  0
 27 26  2  0
M  END
$$$$
