LFM.pdb
     RDKit          3D

 28 28  0  0  1  0  0  0  0  0999 V2000
   29.4825  -18.3290  -18.2288 C   0  0  0  0  0  0  0  0  0  0  0  0
   28.4267  -17.5460  -17.5020 C   0  0  2  0  0  0  0  0  0  0  0  0
   28.6511  -16.0681  -17.8235 C   0  0  0  0  0  0  0  0  0  0  0  0
   28.5048  -17.6758  -16.0129 C   0  0  0  0  0  0  0  0  0  0  0  0
   28.3851  -19.0754  -15.4987 C   0  0  2  0  0  0  0  0  0  0  0  0
   28.1647  -20.0586  -16.5197 N   0  0  0  0  0  0  0  0  0  0  0  0
   27.3117  -19.1582  -14.4571 C   0  0  0  0  0  0  0  0  0  0  0  0
   27.2346  -18.2196  -13.6135 O   0  0  0  0  0  0  0  0  0  0  0  0
   26.3896  -20.2099  -14.3587 N   0  0  0  0  0  0  0  0  0  0  0  0
   25.3371  -20.1680  -13.3791 C   0  0  1  0  0  0  0  0  0  0  0  0
   24.1406  -20.9698  -13.8447 C   0  0  0  0  0  0  0  0  0  0  0  0
   22.9550  -20.8192  -12.9739 C   0  0  0  0  0  0  0  0  0  0  0  0
   22.5011  -21.8394  -12.1454 C   0  0  0  0  0  0  0  0  0  0  0  0
   21.3726  -21.6651  -11.3424 C   0  0  0  0  0  0  0  0  0  0  0  0
   20.6939  -20.4649  -11.3670 C   0  0  0  0  0  0  0  0  0  0  0  0
   21.1193  -19.4372  -12.1763 C   0  0  0  0  0  0  0  0  0  0  0  0
   22.2252  -19.6404  -12.9483 C   0  0  0  0  0  0  0  0  0  0  0  0
   25.7737  -20.7880  -12.0898 C   0  0  0  0  0  0  0  0  0  0  0  0
   26.3588  -21.8980  -12.1415 O   0  0  0  0  0  0  0  0  0  0  0  0
   29.1259  -19.0946   -7.0677 C   0  0  0  0  0  0  0  0  0  0  0  0
   27.6702  -19.6429   -6.1382 S   0  0  0  0  0  0  0  0  0  0  0  0
   26.6787  -20.6940   -7.2555 C   0  0  0  0  0  0  0  0  0  0  0  0
   26.5741  -20.0114   -8.6031 C   0  0  0  0  0  0  0  0  0  0  0  0
   25.8115  -20.8800   -9.5706 C   0  0  2  0  0  0  0  0  0  0  0  0
   25.5672  -20.2016  -10.8282 N   0  0  0  0  0  0  0  0  0  0  0  0
   24.4815  -21.2593   -9.0207 C   0  0  0  0  0  0  0  0  0  0  0  0
   23.4354  -20.6896   -9.4254 O   0  0  0  0  0  0  0  0  0  0  0  0
   24.3180  -22.2413   -8.0509 O   0  0  0  0  0  0  0  0  0  0  0  0
  2  1  1  6
  2  3  1  0
  2  4  1  0
  4  5  1  0
  5  6  1  6
  7  8  2  0
  7  5  1  0
  9  7  1  0
 10  9  1  0
 10 11  1  6
 12 11  1  0
 12 13  2  0
 14 13  1  0
 15 14  2  0
 16 17  2  0
 16 15  1  0
 17 12  1  0
 18 10  1  0
 19 18  2  0
 20 21  1  0
 21 22  1  0
 23 22  1  0
 24 23  1  1
 24 25  1  0
 25 18  1  0
 26 28  1  0
 26 24  1  0
 27 26  2  0
M  END
$$$$
