LFM.pdb
     RDKit          3D

 28 28  0  0  1  0  0  0  0  0999 V2000
   27.5930  -16.9098  -19.2592 C   0  0  0  0  0  0  0  0  0  0  0  0
   26.6025  -17.9869  -19.5978 C   0  0  2  0  0  0  0  0  0  0  0  0
   25.3516  -17.3010  -20.1479 C   0  0  0  0  0  0  0  0  0  0  0  0
   26.1635  -18.7894  -18.4131 C   0  0  0  0  0  0  0  0  0  0  0  0
   27.2718  -19.4591  -17.6643 C   0  0  2  0  0  0  0  0  0  0  0  0
   28.0066  -20.4182  -18.4377 N   0  0  0  0  0  0  0  0  0  0  0  0
   26.7468  -20.0933  -16.4128 C   0  0  0  0  0  0  0  0  0  0  0  0
   26.2973  -21.2723  -16.4926 O   0  0  0  0  0  0  0  0  0  0  0  0
   26.7219  -19.4619  -15.1610 N   0  0  0  0  0  0  0  0  0  0  0  0
   26.1575  -20.1293  -14.0186 C   0  0  1  0  0  0  0  0  0  0  0  0
   26.6028  -19.4618  -12.7350 C   0  0  0  0  0  0  0  0  0  0  0  0
   26.1076  -20.1377  -11.5165 C   0  0  0  0  0  0  0  0  0  0  0  0
   25.0268  -19.6604  -10.7834 C   0  0  0  0  0  0  0  0  0  0  0  0
   24.5914  -20.3197   -9.6326 C   0  0  0  0  0  0  0  0  0  0  0  0
   25.2393  -21.4620   -9.2118 C   0  0  0  0  0  0  0  0  0  0  0  0
   26.3113  -21.9581   -9.9165 C   0  0  0  0  0  0  0  0  0  0  0  0
   26.7111  -21.2900  -11.0363 C   0  0  0  0  0  0  0  0  0  0  0  0
   24.6639  -20.0497  -14.0292 C   0  0  0  0  0  0  0  0  0  0  0  0
   24.1381  -18.9206  -14.1901 O   0  0  0  0  0  0  0  0  0  0  0  0
   20.6128  -23.5168  -17.2769 C   0  0  0  0  0  0  0  0  0  0  0  0
   19.6044  -23.4766  -15.7719 S   0  0  0  0  0  0  0  0  0  0  0  0
   20.2723  -22.1507  -14.7080 C   0  0  0  0  0  0  0  0  0  0  0  0
   21.7848  -22.1934  -14.7658 C   0  0  0  0  0  0  0  0  0  0  0  0
   22.3711  -21.0923  -13.9197 C   0  0  2  0  0  0  0  0  0  0  0  0
   23.8182  -21.1621  -13.8698 N   0  0  0  0  0  0  0  0  0  0  0  0
   21.8874  -21.1774  -12.5146 C   0  0  0  0  0  0  0  0  0  0  0  0
   20.8805  -20.5208  -12.1436 O   0  0  0  0  0  0  0  0  0  0  0  0
   22.5029  -21.9674  -11.5511 O   0  0  0  0  0  0  0  0  0  0  0  0
  2  1  1  1
  2  3  1  0
  2  4  1  0
  4  5  1  0
  5  6  1  6
  7  8  2  0
  7  5  1  0
  9  7  1  0
 10  9  1  0
 10 11  1  1
 12 11  1  0
 12 13  2  0
 14 13  1  0
 15 14  2  0
 16 17  2  0
 16 15  1  0
 17 12  1  0
 18 10  1  0
 19 18  2  0
 20 21  1  0
 21 22  1  0
 23 22  1  0
 24 23  1  6
 24 25  1  0
 25 18  1  0
 26 28  1  0
 26 24  1  0
 27 26  2  0
M  END
$$$$
