LFM.pdb
     RDKit          3D

 28 28  0  0  1  0  0  0  0  0999 V2000
   24.9021  -36.1981  -16.5546 C   0  0  0  0  0  0  0  0  0  0  0  0
   26.3253  -36.0943  -16.0859 C   0  0  2  0  0  0  0  0  0  0  0  0
   26.7355  -37.4710  -15.5620 C   0  0  0  0  0  0  0  0  0  0  0  0
   26.5136  -35.1331  -14.9541 C   0  0  0  0  0  0  0  0  0  0  0  0
   26.3617  -33.6918  -15.3242 C   0  0  2  0  0  0  0  0  0  0  0  0
   27.5730  -33.0720  -15.7784 N   0  0  0  0  0  0  0  0  0  0  0  0
   25.7793  -32.9185  -14.1809 C   0  0  0  0  0  0  0  0  0  0  0  0
   26.5801  -32.3634  -13.3753 O   0  0  0  0  0  0  0  0  0  0  0  0
   24.4042  -32.7730  -13.9483 N   0  0  0  0  0  0  0  0  0  0  0  0
   23.9314  -32.0203  -12.8174 C   0  0  1  0  0  0  0  0  0  0  0  0
   22.5308  -31.5030  -13.0668 C   0  0  0  0  0  0  0  0  0  0  0  0
   22.0055  -30.6690  -11.9644 C   0  0  0  0  0  0  0  0  0  0  0  0
   22.5308  -29.4189  -11.6566 C   0  0  0  0  0  0  0  0  0  0  0  0
   22.0153  -28.6621  -10.6029 C   0  0  0  0  0  0  0  0  0  0  0  0
   20.9693  -29.1568   -9.8527 C   0  0  0  0  0  0  0  0  0  0  0  0
   20.4288  -30.3901  -10.1336 C   0  0  0  0  0  0  0  0  0  0  0  0
   20.9557  -31.1037  -11.1696 C   0  0  0  0  0  0  0  0  0  0  0  0
   23.8435  -32.8784  -11.5954 C   0  0  0  0  0  0  0  0  0  0  0  0
   23.5128  -34.0805  -11.7457 O   0  0  0  0  0  0  0  0  0  0  0  0
   27.4509  -32.5402   -6.1299 C   0  0  0  0  0  0  0  0  0  0  0  0
   25.8015  -32.8009   -5.4263 S   0  0  0  0  0  0  0  0  0  0  0  0
   24.7601  -33.5239   -6.7413 C   0  0  0  0  0  0  0  0  0  0  0  0
   24.8000  -32.6144   -7.9512 C   0  0  0  0  0  0  0  0  0  0  0  0
   24.1029  -33.2665   -9.1178 C   0  0  2  0  0  0  0  0  0  0  0  0
   24.1088  -32.4179  -10.2932 N   0  0  0  0  0  0  0  0  0  0  0  0
   22.6771  -33.5534   -8.8013 C   0  0  0  0  0  0  0  0  0  0  0  0
   21.8675  -32.6145   -8.5875 O   0  0  0  0  0  0  0  0  0  0  0  0
   22.1660  -34.8435   -8.7245 O   0  0  0  0  0  0  0  0  0  0  0  0
  2  1  1  1
  2  3  1  0
  2  4  1  0
  4  5  1  0
  5  6  1  1
  7  8  2  0
  7  5  1  0
  9  7  1  0
 10  9  1  0
 10 11  1  6
 12 11  1  0
 12 13  2  0
 14 13  1  0
 15 14  2  0
 16 17  2  0
 16 15  1  0
 17 12  1  0
 18 10  1  0
 19 18  2  0
 20 21  1  0
 21 22  1  0
 23 22  1  0
 24 23  1  1
 24 25  1  0
 25 18  1  0
 26 28  1  0
 26 24  1  0
 27 26  2  0
M  END
$$$$
