RQH.pdb
     RDKit          3D

 31 31  0  0  1  0  0  0  0  0999 V2000
   26.8671  -27.9095  -18.7385 N   0  0  0  0  0  0  0  0  0  0  0  0
   27.7506  -28.5608  -17.8321 C   0  0  0  0  0  0  0  0  0  0  0  0
   28.2759  -29.7086  -18.1268 N   0  0  0  0  0  0  0  0  0  0  0  0
   28.0278  -27.8981  -16.5972 N   0  0  0  0  0  0  0  0  0  0  0  0
   27.3790  -26.6531  -16.3130 C   0  0  0  0  0  0  0  0  0  0  0  0
   28.1630  -25.5090  -16.9337 C   0  0  0  0  0  0  0  0  0  0  0  0
   27.6229  -24.2314  -16.3225 C   0  0  0  0  0  0  0  0  0  0  0  0
   28.3341  -23.0146  -16.8966 C   0  0  2  0  0  0  0  0  0  0  0  0
   29.7025  -23.0500  -16.4998 N   0  0  0  0  0  0  0  0  0  0  0  0
   27.6116  -21.8176  -16.4300 C   0  0  0  0  0  0  0  0  0  0  0  0
   27.9421  -21.1485  -15.4221 O   0  0  0  0  0  0  0  0  0  0  0  0
   28.8891  -30.1895  -17.4519 N   0  0  0  0  0  0  0  0  0  0  0  0
   26.6986  -17.1320  -18.6697 C   0  0  0  0  0  0  0  0  0  0  0  0
   25.4066  -16.9419  -18.1347 O   0  0  0  0  0  0  0  0  0  0  0  0
   24.9301  -15.8119  -17.9752 C   0  0  0  0  0  0  0  0  0  0  0  0
   24.5926  -18.1363  -17.7509 C   0  0  0  0  0  0  0  0  0  0  0  0
   25.4233  -19.3624  -17.9771 C   0  0  1  0  0  0  0  0  0  0  0  0
   25.7283  -20.1896  -16.7749 N   0  0  0  0  0  0  0  0  0  0  0  0
   26.4729  -21.3921  -17.1611 C   0  0  0  0  0  0  0  0  0  0  0  0
   24.5578  -20.6666  -16.0105 O   0  0  0  0  0  0  0  0  0  0  0  0
   23.8542  -21.6576  -16.4426 N   0  0  0  0  0  0  0  0  0  0  0  0
   24.0973  -20.1294  -14.7809 C   0  0  1  0  0  0  0  0  0  0  0  0
   23.0108  -20.7979  -14.0164 C   0  0  0  0  0  0  0  0  0  0  0  0
   22.9821  -20.2292  -12.6183 C   0  0  0  0  0  0  0  0  0  0  0  0
   24.1689  -20.6329  -11.8478 C   0  0  0  0  0  0  0  0  0  0  0  0
   25.1665  -21.4370  -12.4265 N   0  0  0  0  0  0  0  0  0  0  0  0
   26.0981  -21.6244  -11.4794 C   0  0  0  0  0  0  0  0  0  0  0  0
   25.7506  -20.9943  -10.3539 N   0  0  0  0  0  0  0  0  0  0  0  0
   24.5790  -20.4034  -10.6071 C   0  0  0  0  0  0  0  0  0  0  0  0
   21.7803  -20.5692  -14.7851 O   0  0  0  0  0  0  0  0  0  0  0  0
   21.6645  -19.5786  -15.5884 O   0  0  0  0  0  0  0  0  0  0  0  0
  2  1  1  0
  3  2  2  0
  4  2  1  0
  5  4  1  0
  6  5  1  0
  6  7  1  0
  8  7  1  0
  8  9  1  1
 10  8  1  0
 10 11  2  0
 13 12  1  0
 13 14  2  0
 15 16  1  0
 15 13  1  0
 17 16  1  1
 17 18  1  0
 18 10  1  0
 19 17  1  0
 19 21  1  0
 20 19  2  0
 22 21  1  0
 22 23  1  1
 23 24  1  0
 24 28  1  0
 25 24  2  0
 25 26  1  0
 26 27  1  0
 28 27  2  0
 29 22  1  0
 30 29  2  0
 31 29  1  0
M  END
$$$$
