RQH.pdb
     RDKit          3D

 31 31  0  0  1  0  0  0  0  0999 V2000
   19.6439  -17.1640  -18.3607 N   0  0  0  0  0  0  0  0  0  0  0  0
   18.7248  -17.7382  -19.2836 C   0  0  0  0  0  0  0  0  0  0  0  0
   17.5481  -17.2226  -19.4561 N   0  0  0  0  0  0  0  0  0  0  0  0
   19.1549  -18.8956  -20.0022 N   0  0  0  0  0  0  0  0  0  0  0  0
   20.4153  -19.4918  -19.6739 C   0  0  0  0  0  0  0  0  0  0  0  0
   21.5413  -18.7170  -20.3378 C   0  0  0  0  0  0  0  0  0  0  0  0
   22.4856  -18.2909  -19.2314 C   0  0  0  0  0  0  0  0  0  0  0  0
   23.8937  -18.8044  -19.4947 C   0  0  2  0  0  0  0  0  0  0  0  0
   23.9173  -19.4584  -20.7608 N   0  0  0  0  0  0  0  0  0  0  0  0
   24.2647  -19.6791  -18.3678 C   0  0  0  0  0  0  0  0  0  0  0  0
   24.4504  -20.9150  -18.4721 O   0  0  0  0  0  0  0  0  0  0  0  0
   16.8938  -17.6344  -20.1380 N   0  0  0  0  0  0  0  0  0  0  0  0
   27.7367  -21.1092  -15.7127 C   0  0  0  0  0  0  0  0  0  0  0  0
   27.4448  -20.9006  -14.3479 O   0  0  0  0  0  0  0  0  0  0  0  0
   27.9743  -21.5793  -13.4599 C   0  0  0  0  0  0  0  0  0  0  0  0
   26.4710  -19.8323  -13.9648 C   0  0  0  0  0  0  0  0  0  0  0  0
   25.9694  -19.1833  -15.2185 C   0  0  1  0  0  0  0  0  0  0  0  0
   24.8699  -19.8878  -15.9375 N   0  0  0  0  0  0  0  0  0  0  0  0
   24.4225  -19.0933  -17.0856 C   0  0  0  0  0  0  0  0  0  0  0  0
   23.6574  -20.1661  -15.1411 O   0  0  0  0  0  0  0  0  0  0  0  0
   22.7287  -19.2776  -15.0316 N   0  0  0  0  0  0  0  0  0  0  0  0
   23.3814  -21.3724  -14.4474 C   0  0  2  0  0  0  0  0  0  0  0  0
   22.1112  -21.5446  -13.6933 C   0  0  0  0  0  0  0  0  0  0  0  0
   22.2421  -22.7496  -12.7935 C   0  0  0  0  0  0  0  0  0  0  0  0
   21.0062  -22.9903  -12.0320 C   0  0  0  0  0  0  0  0  0  0  0  0
   19.9196  -22.1024  -12.1195 N   0  0  0  0  0  0  0  0  0  0  0  0
   18.9627  -22.5955  -11.3186 C   0  0  0  0  0  0  0  0  0  0  0  0
   19.3772  -23.7260  -10.7399 N   0  0  0  0  0  0  0  0  0  0  0  0
   20.6171  -23.9395  -11.1906 C   0  0  0  0  0  0  0  0  0  0  0  0
   21.8948  -20.2798  -12.9784 O   0  0  0  0  0  0  0  0  0  0  0  0
   22.8604  -19.6487  -12.4225 O   0  0  0  0  0  0  0  0  0  0  0  0
  2  1  1  0
  3  2  2  0
  4  2  1  0
  5  4  1  0
  6  5  1  0
  6  7  1  0
  8  7  1  0
  8  9  1  6
 10  8  1  0
 10 11  2  0
 13 12  1  0
 13 14  2  0
 15 16  1  0
 15 13  1  0
 17 16  1  6
 17 18  1  0
 18 10  1  0
 19 17  1  0
 19 21  1  0
 20 19  2  0
 22 21  1  0
 22 23  1  1
 23 24  1  0
 24 28  1  0
 25 24  2  0
 25 26  1  0
 26 27  1  0
 28 27  2  0
 29 22  1  0
 30 29  2  0
 31 29  1  0
M  END
$$$$
