RQH.pdb
     RDKit          3D

 31 31  0  0  1  0  0  0  0  0999 V2000
   23.8663  -24.8224  -14.7379 N   0  0  0  0  0  0  0  0  0  0  0  0
   25.2069  -24.4200  -14.9969 C   0  0  0  0  0  0  0  0  0  0  0  0
   26.0753  -25.2637  -15.4599 N   0  0  0  0  0  0  0  0  0  0  0  0
   25.5463  -23.0590  -14.7259 N   0  0  0  0  0  0  0  0  0  0  0  0
   24.5133  -22.1475  -14.3339 C   0  0  0  0  0  0  0  0  0  0  0  0
   24.9290  -20.7236  -14.6633 C   0  0  0  0  0  0  0  0  0  0  0  0
   23.7542  -19.8351  -14.3055 C   0  0  0  0  0  0  0  0  0  0  0  0
   22.5780  -20.0931  -15.2359 C   0  0  2  0  0  0  0  0  0  0  0  0
   22.6329  -21.4444  -15.6854 N   0  0  0  0  0  0  0  0  0  0  0  0
   22.6481  -19.1021  -16.3247 C   0  0  0  0  0  0  0  0  0  0  0  0
   23.5127  -19.1194  -17.2329 O   0  0  0  0  0  0  0  0  0  0  0  0
   27.0329  -24.9552  -15.6844 N   0  0  0  0  0  0  0  0  0  0  0  0
   18.1484  -16.7436  -19.0139 C   0  0  0  0  0  0  0  0  0  0  0  0
   18.9136  -15.5946  -19.3064 O   0  0  0  0  0  0  0  0  0  0  0  0
   18.5722  -14.7938  -20.1849 C   0  0  0  0  0  0  0  0  0  0  0  0
   20.1690  -15.3379  -18.5352 C   0  0  0  0  0  0  0  0  0  0  0  0
   20.3233  -16.4243  -17.5152 C   0  0  1  0  0  0  0  0  0  0  0  0
   21.6634  -17.0721  -17.4317 N   0  0  0  0  0  0  0  0  0  0  0  0
   21.6821  -18.0638  -16.3521 C   0  0  0  0  0  0  0  0  0  0  0  0
   22.7990  -16.1652  -17.1677 O   0  0  0  0  0  0  0  0  0  0  0  0
   23.2879  -16.0583  -15.9788 N   0  0  0  0  0  0  0  0  0  0  0  0
   23.4535  -15.3559  -18.1317 C   0  0  1  0  0  0  0  0  0  0  0  0
   24.6126  -14.5049  -17.7520 C   0  0  0  0  0  0  0  0  0  0  0  0
   25.6976  -15.3890  -17.1866 C   0  0  0  0  0  0  0  0  0  0  0  0
   26.9331  -14.6310  -16.9333 C   0  0  0  0  0  0  0  0  0  0  0  0
   26.9781  -13.2388  -17.1243 N   0  0  0  0  0  0  0  0  0  0  0  0
   28.2252  -12.8543  -16.8127 C   0  0  0  0  0  0  0  0  0  0  0  0
   28.9579  -13.9079  -16.4419 N   0  0  0  0  0  0  0  0  0  0  0  0
   28.1493  -14.9687  -16.5248 C   0  0  0  0  0  0  0  0  0  0  0  0
   24.9978  -13.7843  -18.9726 O   0  0  0  0  0  0  0  0  0  0  0  0
   24.7159  -14.2368  -20.1370 O   0  0  0  0  0  0  0  0  0  0  0  0
  2  1  1  0
  3  2  2  0
  4  2  1  0
  5  4  1  0
  6  5  1  0
  6  7  1  0
  8  7  1  0
  8  9  1  6
 10  8  1  0
 10 11  2  0
 13 12  1  0
 13 14  2  0
 15 16  1  0
 15 13  1  0
 17 16  1  6
 17 18  1  0
 18 10  1  0
 19 17  1  0
 19 21  1  0
 20 19  2  0
 22 21  1  0
 22 23  1  1
 23 24  1  0
 24 28  1  0
 25 24  2  0
 25 26  1  0
 26 27  1  0
 28 27  2  0
 29 22  1  0
 30 29  2  0
 31 29  1  0
M  END
$$$$
