RQH.pdb
     RDKit          3D

 31 31  0  0  1  0  0  0  0  0999 V2000
   45.5490  -17.5652  -10.0346 N   0  0  0  0  0  0  0  0  0  0  0  0
   44.8539  -17.5503   -8.7925 C   0  0  0  0  0  0  0  0  0  0  0  0
   44.5534  -18.6563   -8.1870 N   0  0  0  0  0  0  0  0  0  0  0  0
   44.5072  -16.2745   -8.2510 N   0  0  0  0  0  0  0  0  0  0  0  0
   44.9965  -15.0895   -8.8899 C   0  0  0  0  0  0  0  0  0  0  0  0
   45.7098  -14.2127   -7.8745 C   0  0  0  0  0  0  0  0  0  0  0  0
   46.0985  -12.9390   -8.5984 C   0  0  0  0  0  0  0  0  0  0  0  0
   46.8883  -12.0157   -7.6820 C   0  0  2  0  0  0  0  0  0  0  0  0
   47.4229  -12.7811   -6.6052 N   0  0  0  0  0  0  0  0  0  0  0  0
   45.9811  -10.9371   -7.2506 C   0  0  0  0  0  0  0  0  0  0  0  0
   45.3856  -10.9223   -6.1470 O   0  0  0  0  0  0  0  0  0  0  0  0
   44.0054  -18.6399   -7.3140 N   0  0  0  0  0  0  0  0  0  0  0  0
   45.5293   -3.6867   -7.9974 C   0  0  0  0  0  0  0  0  0  0  0  0
   45.8453   -5.0114   -8.3670 O   0  0  0  0  0  0  0  0  0  0  0  0
   46.8137   -5.2697   -9.0915 C   0  0  0  0  0  0  0  0  0  0  0  0
   44.9881   -6.1318   -7.8703 C   0  0  0  0  0  0  0  0  0  0  0  0
   45.7011   -7.4220   -8.1379 C   0  0  1  0  0  0  0  0  0  0  0  0
   45.0033   -8.6680   -7.7101 N   0  0  0  0  0  0  0  0  0  0  0  0
   45.7646   -9.8475   -8.1326 C   0  0  0  0  0  0  0  0  0  0  0  0
   43.6387   -8.8548   -8.2441 O   0  0  0  0  0  0  0  0  0  0  0  0
   43.3250   -9.9363   -8.8732 N   0  0  0  0  0  0  0  0  0  0  0  0
   42.5715   -7.9269   -8.1314 C   0  0  1  0  0  0  0  0  0  0  0  0
   41.1640   -8.3939   -8.0200 C   0  0  0  0  0  0  0  0  0  0  0  0
   41.0632   -9.3551   -6.8604 C   0  0  0  0  0  0  0  0  0  0  0  0
   39.6793   -9.8123   -6.6580 C   0  0  0  0  0  0  0  0  0  0  0  0
   38.6619   -9.4564   -7.5608 N   0  0  0  0  0  0  0  0  0  0  0  0
   37.5347  -10.0218   -7.1026 C   0  0  0  0  0  0  0  0  0  0  0  0
   37.7793  -10.7033   -5.9799 N   0  0  0  0  0  0  0  0  0  0  0  0
   39.0851  -10.5583   -5.7358 C   0  0  0  0  0  0  0  0  0  0  0  0
   40.3498   -7.1807   -7.8693 O   0  0  0  0  0  0  0  0  0  0  0  0
   39.3537   -6.9405   -8.6375 O   0  0  0  0  0  0  0  0  0  0  0  0
  2  1  1  0
  3  2  2  0
  4  2  1  0
  5  4  1  0
  6  5  1  0
  6  7  1  0
  8  7  1  0
  8  9  1  1
 10  8  1  0
 10 11  2  0
 13 12  1  0
 13 14  2  0
 15 16  1  0
 15 13  1  0
 17 16  1  1
 17 18  1  0
 18 10  1  0
 19 17  1  0
 19 21  1  0
 20 19  2  0
 22 21  1  0
 22 23  1  6
 23 24  1  0
 24 28  1  0
 25 24  2  0
 25 26  1  0
 26 27  1  0
 28 27  2  0
 29 22  1  0
 30 29  2  0
 31 29  1  0
M  END
$$$$
