RQH.pdb
     RDKit          3D

 31 31  0  0  1  0  0  0  0  0999 V2000
   26.7193  -20.3894  -19.0889 N   0  0  0  0  0  0  0  0  0  0  0  0
   26.5583  -19.2782  -19.9639 C   0  0  0  0  0  0  0  0  0  0  0  0
   25.8805  -19.3918  -21.0630 N   0  0  0  0  0  0  0  0  0  0  0  0
   27.1714  -18.0467  -19.5786 N   0  0  0  0  0  0  0  0  0  0  0  0
   27.8331  -17.9639  -18.3109 C   0  0  0  0  0  0  0  0  0  0  0  0
   26.8216  -17.6552  -17.2198 C   0  0  0  0  0  0  0  0  0  0  0  0
   27.1788  -16.2880  -16.6715 C   0  0  0  0  0  0  0  0  0  0  0  0
   26.1803  -15.2397  -17.1402 C   0  0  2  0  0  0  0  0  0  0  0  0
   26.2365  -15.1518  -18.5616 N   0  0  0  0  0  0  0  0  0  0  0  0
   26.5082  -13.9770  -16.4541 C   0  0  0  0  0  0  0  0  0  0  0  0
   26.5303  -13.8425  -15.2075 O   0  0  0  0  0  0  0  0  0  0  0  0
   25.8280  -18.6045  -21.7264 N   0  0  0  0  0  0  0  0  0  0  0  0
   30.7971  -10.3246  -18.2117 C   0  0  0  0  0  0  0  0  0  0  0  0
   30.1665   -9.3472  -17.4127 O   0  0  0  0  0  0  0  0  0  0  0  0
   30.6954   -8.2519  -17.1889 C   0  0  0  0  0  0  0  0  0  0  0  0
   28.8250   -9.6424  -16.8213 C   0  0  0  0  0  0  0  0  0  0  0  0
   28.4437  -11.0413  -17.1984 C   0  0  1  0  0  0  0  0  0  0  0  0
   27.1657  -11.5578  -16.6306 N   0  0  0  0  0  0  0  0  0  0  0  0
   26.8182  -12.8420  -17.2465 C   0  0  0  0  0  0  0  0  0  0  0  0
   25.9851  -10.6890  -16.8132 O   0  0  0  0  0  0  0  0  0  0  0  0
   25.4730  -10.5191  -17.9848 N   0  0  0  0  0  0  0  0  0  0  0  0
   25.3090   -9.9841  -15.7843 C   0  0  1  0  0  0  0  0  0  0  0  0
   24.1302   -9.1312  -16.0922 C   0  0  0  0  0  0  0  0  0  0  0  0
   23.2087   -9.1291  -14.8965 C   0  0  0  0  0  0  0  0  0  0  0  0
   22.0447   -8.2559  -15.1146 C   0  0  0  0  0  0  0  0  0  0  0  0
   21.4124   -8.1953  -16.3689 N   0  0  0  0  0  0  0  0  0  0  0  0
   20.4020   -7.3218  -16.2415 C   0  0  0  0  0  0  0  0  0  0  0  0
   20.3614   -6.8356  -14.9978 N   0  0  0  0  0  0  0  0  0  0  0  0
   21.3673   -7.4191  -14.3393 C   0  0  0  0  0  0  0  0  0  0  0  0
   24.6706   -7.8100  -16.4384 O   0  0  0  0  0  0  0  0  0  0  0  0
   25.7447   -7.3625  -15.9037 O   0  0  0  0  0  0  0  0  0  0  0  0
  2  1  1  0
  3  2  2  0
  4  2  1  0
  5  4  1  0
  6  5  1  0
  6  7  1  0
  8  7  1  0
  8  9  1  6
 10  8  1  0
 10 11  2  0
 13 12  1  0
 13 14  2  0
 15 16  1  0
 15 13  1  0
 17 16  1  1
 17 18  1  0
 18 10  1  0
 19 17  1  0
 19 21  1  0
 20 19  2  0
 22 21  1  0
 22 23  1  6
 23 24  1  0
 24 28  1  0
 25 24  2  0
 25 26  1  0
 26 27  1  0
 28 27  2  0
 29 22  1  0
 30 29  2  0
 31 29  1  0
M  END
$$$$
