RQH.pdb
     RDKit          3D

 31 31  0  0  1  0  0  0  0  0999 V2000
   22.0145  -21.1138   -9.6918 N   0  0  0  0  0  0  0  0  0  0  0  0
   22.8873  -21.4289   -8.6123 C   0  0  0  0  0  0  0  0  0  0  0  0
   22.4175  -21.6771   -7.4300 N   0  0  0  0  0  0  0  0  0  0  0  0
   24.2884  -21.4584   -8.8898 N   0  0  0  0  0  0  0  0  0  0  0  0
   24.7424  -21.1710  -10.2176 C   0  0  0  0  0  0  0  0  0  0  0  0
   26.2593  -21.2422  -10.2711 C   0  0  0  0  0  0  0  0  0  0  0  0
   26.6361  -21.3698  -11.7337 C   0  0  0  0  0  0  0  0  0  0  0  0
   25.5999  -20.6941  -12.6200 C   0  0  2  0  0  0  0  0  0  0  0  0
   24.5623  -21.6269  -12.9105 N   0  0  0  0  0  0  0  0  0  0  0  0
   26.2992  -20.1924  -13.8166 C   0  0  0  0  0  0  0  0  0  0  0  0
   27.3245  -19.4713  -13.7778 O   0  0  0  0  0  0  0  0  0  0  0  0
   23.0487  -21.9715   -6.6699 N   0  0  0  0  0  0  0  0  0  0  0  0
   29.4484  -21.3577  -17.6234 C   0  0  0  0  0  0  0  0  0  0  0  0
   29.0626  -22.3383  -16.6848 O   0  0  0  0  0  0  0  0  0  0  0  0
   29.8919  -23.0745  -16.1374 C   0  0  0  0  0  0  0  0  0  0  0  0
   27.6148  -22.4917  -16.3429 C   0  0  0  0  0  0  0  0  0  0  0  0
   26.8443  -21.4408  -17.0821 C   0  0  2  0  0  0  0  0  0  0  0  0
   26.5093  -20.2036  -16.3210 N   0  0  0  0  0  0  0  0  0  0  0  0
   25.7862  -20.5433  -15.0917 C   0  0  0  0  0  0  0  0  0  0  0  0
   25.6625  -19.2232  -17.0306 O   0  0  0  0  0  0  0  0  0  0  0  0
   24.3825  -19.3759  -17.0755 N   0  0  0  0  0  0  0  0  0  0  0  0
   26.1253  -18.0626  -17.7025 C   0  0  1  0  0  0  0  0  0  0  0  0
   25.1745  -17.1527  -18.3952 C   0  0  0  0  0  0  0  0  0  0  0  0
   25.8961  -15.8738  -18.7450 C   0  0  0  0  0  0  0  0  0  0  0  0
   25.0317  -14.9582  -19.5063 C   0  0  0  0  0  0  0  0  0  0  0  0
   24.9391  -15.0493  -20.9063 N   0  0  0  0  0  0  0  0  0  0  0  0
   24.0836  -14.0903  -21.2920 C   0  0  0  0  0  0  0  0  0  0  0  0
   23.6384  -13.4102  -20.2319 N   0  0  0  0  0  0  0  0  0  0  0  0
   24.2294  -13.9579  -19.1658 C   0  0  0  0  0  0  0  0  0  0  0  0
   24.6776  -17.9012  -19.5573 O   0  0  0  0  0  0  0  0  0  0  0  0
   23.4928  -17.7281  -20.0112 O   0  0  0  0  0  0  0  0  0  0  0  0
  2  1  1  0
  3  2  2  0
  4  2  1  0
  5  4  1  0
  6  5  1  0
  6  7  1  0
  8  7  1  0
  8  9  1  6
 10  8  1  0
 10 11  2  0
 13 12  1  0
 13 14  2  0
 15 16  1  0
 15 13  1  0
 17 16  1  1
 17 18  1  0
 18 10  1  0
 19 17  1  0
 19 21  1  0
 20 19  2  0
 22 21  1  0
 22 23  1  6
 23 24  1  0
 24 28  1  0
 25 24  2  0
 25 26  1  0
 26 27  1  0
 28 27  2  0
 29 22  1  0
 30 29  2  0
 31 29  1  0
M  END
$$$$
