RQH.pdb
     RDKit          3D

 31 31  0  0  1  0  0  0  0  0999 V2000
   19.2766  -22.9181  -10.1976 N   0  0  0  0  0  0  0  0  0  0  0  0
   18.8932  -22.8411  -11.5663 C   0  0  0  0  0  0  0  0  0  0  0  0
   17.6741  -23.0912  -11.9290 N   0  0  0  0  0  0  0  0  0  0  0  0
   19.9028  -22.4795  -12.5101 N   0  0  0  0  0  0  0  0  0  0  0  0
   21.2627  -22.3777  -12.0718 C   0  0  0  0  0  0  0  0  0  0  0  0
   21.4548  -21.0960  -11.2786 C   0  0  0  0  0  0  0  0  0  0  0  0
   22.5984  -20.3476  -11.9341 C   0  0  0  0  0  0  0  0  0  0  0  0
   23.8570  -21.2025  -11.9647 C   0  0  2  0  0  0  0  0  0  0  0  0
   24.3834  -21.2962  -10.6436 N   0  0  0  0  0  0  0  0  0  0  0  0
   24.7856  -20.5899  -12.9316 C   0  0  0  0  0  0  0  0  0  0  0  0
   25.3567  -19.4878  -12.7528 O   0  0  0  0  0  0  0  0  0  0  0  0
   17.4052  -23.0388  -12.9228 N   0  0  0  0  0  0  0  0  0  0  0  0
   28.6372  -23.7351  -16.1943 C   0  0  0  0  0  0  0  0  0  0  0  0
   28.8607  -22.5147  -16.8667 O   0  0  0  0  0  0  0  0  0  0  0  0
   29.8194  -22.3619  -17.6328 C   0  0  0  0  0  0  0  0  0  0  0  0
   27.9149  -21.3771  -16.6478 C   0  0  0  0  0  0  0  0  0  0  0  0
   26.9246  -21.7852  -15.6003 C   0  0  1  0  0  0  0  0  0  0  0  0
   25.9695  -20.7356  -15.1437 N   0  0  0  0  0  0  0  0  0  0  0  0
   25.0534  -21.2843  -14.1392 C   0  0  0  0  0  0  0  0  0  0  0  0
   25.1132  -20.1468  -16.1935 O   0  0  0  0  0  0  0  0  0  0  0  0
   23.9852  -20.6924  -16.4995 N   0  0  0  0  0  0  0  0  0  0  0  0
   25.4068  -18.9782  -16.9423 C   0  0  2  0  0  0  0  0  0  0  0  0
   24.4675  -18.4847  -17.9844 C   0  0  0  0  0  0  0  0  0  0  0  0
   24.2098  -19.5984  -18.9703 C   0  0  0  0  0  0  0  0  0  0  0  0
   23.3211  -19.1602  -20.0582 C   0  0  0  0  0  0  0  0  0  0  0  0
   23.3807  -17.8460  -20.5542 N   0  0  0  0  0  0  0  0  0  0  0  0
   22.4580  -17.7659  -21.5250 C   0  0  0  0  0  0  0  0  0  0  0  0
   21.8298  -18.9362  -21.6674 N   0  0  0  0  0  0  0  0  0  0  0  0
   22.3733  -19.7602  -20.7666 C   0  0  0  0  0  0  0  0  0  0  0  0
   23.2715  -18.0299  -17.2632 O   0  0  0  0  0  0  0  0  0  0  0  0
   22.8855  -16.8096  -17.3047 O   0  0  0  0  0  0  0  0  0  0  0  0
  2  1  1  0
  3  2  2  0
  4  2  1  0
  5  4  1  0
  6  5  1  0
  6  7  1  0
  8  7  1  0
  8  9  1  1
 10  8  1  0
 10 11  2  0
 13 12  1  0
 13 14  2  0
 15 16  1  0
 15 13  1  0
 17 16  1  1
 17 18  1  0
 18 10  1  0
 19 17  1  0
 19 21  1  0
 20 19  2  0
 22 21  1  0
 22 23  1  6
 23 24  1  0
 24 28  1  0
 25 24  2  0
 25 26  1  0
 26 27  1  0
 28 27  2  0
 29 22  1  0
 30 29  2  0
 31 29  1  0
M  END
$$$$
