RQH.pdb
     RDKit          3D

 31 31  0  0  1  0  0  0  0  0999 V2000
   27.3472  -26.5874  -18.1629 N   0  0  0  0  0  0  0  0  0  0  0  0
   27.6390  -25.7485  -17.0505 C   0  0  0  0  0  0  0  0  0  0  0  0
   28.7745  -25.8380  -16.4317 N   0  0  0  0  0  0  0  0  0  0  0  0
   26.6338  -24.8146  -16.6528 N   0  0  0  0  0  0  0  0  0  0  0  0
   25.4253  -24.7235  -17.4164 C   0  0  0  0  0  0  0  0  0  0  0  0
   25.4805  -23.5083  -18.3270 C   0  0  0  0  0  0  0  0  0  0  0  0
   24.3158  -22.6205  -17.9365 C   0  0  0  0  0  0  0  0  0  0  0  0
   24.7739  -21.1826  -17.7403 C   0  0  2  0  0  0  0  0  0  0  0  0
   25.3621  -21.0579  -16.4482 N   0  0  0  0  0  0  0  0  0  0  0  0
   23.6024  -20.3120  -17.9458 C   0  0  0  0  0  0  0  0  0  0  0  0
   22.9155  -20.2982  -18.9949 O   0  0  0  0  0  0  0  0  0  0  0  0
   28.9927  -25.2034  -15.6492 N   0  0  0  0  0  0  0  0  0  0  0  0
   22.0867  -20.2143  -13.7660 C   0  0  0  0  0  0  0  0  0  0  0  0
   20.9280  -20.6709  -14.4296 O   0  0  0  0  0  0  0  0  0  0  0  0
   20.3587  -21.7168  -14.0960 C   0  0  0  0  0  0  0  0  0  0  0  0
   20.3739  -19.8704  -15.5648 C   0  0  0  0  0  0  0  0  0  0  0  0
   21.2342  -18.6576  -15.7475 C   0  0  2  0  0  0  0  0  0  0  0  0
   22.0305  -18.5910  -17.0061 N   0  0  0  0  0  0  0  0  0  0  0  0
   23.2245  -19.4347  -16.8972 C   0  0  0  0  0  0  0  0  0  0  0  0
   22.5166  -17.2493  -17.3876 O   0  0  0  0  0  0  0  0  0  0  0  0
   23.4155  -16.6537  -16.6797 N   0  0  0  0  0  0  0  0  0  0  0  0
   22.0847  -16.5015  -18.5130 C   0  0  1  0  0  0  0  0  0  0  0  0
   22.6549  -15.1583  -18.8001 C   0  0  0  0  0  0  0  0  0  0  0  0
   23.1305  -15.1305  -20.2326 C   0  0  0  0  0  0  0  0  0  0  0  0
   23.6076  -13.7924  -20.6161 C   0  0  0  0  0  0  0  0  0  0  0  0
   24.9667  -13.4507  -20.5036 N   0  0  0  0  0  0  0  0  0  0  0  0
   25.0740  -12.1817  -20.9260 C   0  0  0  0  0  0  0  0  0  0  0  0
   23.8788  -11.7109  -21.2928 N   0  0  0  0  0  0  0  0  0  0  0  0
   23.0113  -12.7079  -21.0942 C   0  0  0  0  0  0  0  0  0  0  0  0
   21.5854  -14.1966  -18.5018 O   0  0  0  0  0  0  0  0  0  0  0  0
   20.3731  -14.5719  -18.3308 O   0  0  0  0  0  0  0  0  0  0  0  0
  2  1  1  0
  3  2  2  0
  4  2  1  0
  5  4  1  0
  6  5  1  0
  6  7  1  0
  8  7  1  0
  8  9  1  1
 10  8  1  0
 10 11  2  0
 13 12  1  0
 13 14  2  0
 15 16  1  0
 15 13  1  0
 17 16  1  6
 17 18  1  0
 18 10  1  0
 19 17  1  0
 19 21  1  0
 20 19  2  0
 22 21  1  0
 22 23  1  1
 23 24  1  0
 24 28  1  0
 25 24  2  0
 25 26  1  0
 26 27  1  0
 28 27  2  0
 29 22  1  0
 30 29  2  0
 31 29  1  0
M  END
$$$$
