RQH.pdb
     RDKit          3D

 31 31  0  0  1  0  0  0  0  0999 V2000
   41.4061   -8.9739   -6.9811 N   0  0  0  0  0  0  0  0  0  0  0  0
   40.0881   -9.4533   -6.7373 C   0  0  0  0  0  0  0  0  0  0  0  0
   39.7693   -9.9632   -5.5890 N   0  0  0  0  0  0  0  0  0  0  0  0
   39.1445   -9.3474   -7.8047 N   0  0  0  0  0  0  0  0  0  0  0  0
   39.5828   -9.5799   -9.1484 C   0  0  0  0  0  0  0  0  0  0  0  0
   39.1719   -8.4156  -10.0341 C   0  0  0  0  0  0  0  0  0  0  0  0
   38.5337   -9.0158  -11.2710 C   0  0  0  0  0  0  0  0  0  0  0  0
   39.5960   -9.4669  -12.2629 C   0  0  2  0  0  0  0  0  0  0  0  0
   40.7740   -8.6903  -12.0624 N   0  0  0  0  0  0  0  0  0  0  0  0
   39.0233   -9.3385  -13.6150 C   0  0  0  0  0  0  0  0  0  0  0  0
   39.3941   -8.4838  -14.4544 O   0  0  0  0  0  0  0  0  0  0  0  0
   38.8172  -10.3227   -5.4249 N   0  0  0  0  0  0  0  0  0  0  0  0
   39.1347  -12.9886  -17.1870 C   0  0  0  0  0  0  0  0  0  0  0  0
   37.9077  -12.7419  -17.8388 O   0  0  0  0  0  0  0  0  0  0  0  0
   37.7380  -13.0230  -19.0311 C   0  0  0  0  0  0  0  0  0  0  0  0
   36.7836  -12.1249  -17.0691 C   0  0  0  0  0  0  0  0  0  0  0  0
   37.2743  -11.8178  -15.6873 C   0  0  1  0  0  0  0  0  0  0  0  0
   37.6024  -10.3922  -15.4002 N   0  0  0  0  0  0  0  0  0  0  0  0
   37.9901  -10.2330  -13.9953 C   0  0  0  0  0  0  0  0  0  0  0  0
   36.5113   -9.4236  -15.6309 O   0  0  0  0  0  0  0  0  0  0  0  0
   36.1421   -9.1281  -16.8310 N   0  0  0  0  0  0  0  0  0  0  0  0
   35.7780   -8.7470  -14.6225 C   0  0  2  0  0  0  0  0  0  0  0  0
   34.6075   -7.8983  -14.9708 C   0  0  0  0  0  0  0  0  0  0  0  0
   35.0994   -6.5139  -15.3176 C   0  0  0  0  0  0  0  0  0  0  0  0
   34.0050   -5.6593  -15.8046 C   0  0  0  0  0  0  0  0  0  0  0  0
   32.7880   -5.5761  -15.1056 N   0  0  0  0  0  0  0  0  0  0  0  0
   32.0117   -4.7280  -15.7972 C   0  0  0  0  0  0  0  0  0  0  0  0
   32.6594   -4.2786  -16.8757 N   0  0  0  0  0  0  0  0  0  0  0  0
   33.8628   -4.8595  -16.8535 C   0  0  0  0  0  0  0  0  0  0  0  0
   33.9254   -8.5889  -16.0733 O   0  0  0  0  0  0  0  0  0  0  0  0
   32.6809   -8.4060  -16.3129 O   0  0  0  0  0  0  0  0  0  0  0  0
  2  1  1  0
  3  2  2  0
  4  2  1  0
  5  4  1  0
  6  5  1  0
  6  7  1  0
  8  7  1  0
  8  9  1  6
 10  8  1  0
 10 11  2  0
 13 12  1  0
 13 14  2  0
 15 16  1  0
 15 13  1  0
 17 16  1  6
 17 18  1  0
 18 10  1  0
 19 17  1  0
 19 21  1  0
 20 19  2  0
 22 21  1  0
 22 23  1  1
 23 24  1  0
 24 28  1  0
 25 24  2  0
 25 26  1  0
 26 27  1  0
 28 27  2  0
 29 22  1  0
 30 29  2  0
 31 29  1  0
M  END
$$$$
