RQH.pdb
     RDKit          3D

 31 31  0  0  1  0  0  0  0  0999 V2000
   31.4898  -20.9554   -9.3468 N   0  0  0  0  0  0  0  0  0  0  0  0
   31.2964  -22.2848   -9.8175 C   0  0  0  0  0  0  0  0  0  0  0  0
   31.7877  -23.2956   -9.1716 N   0  0  0  0  0  0  0  0  0  0  0  0
   30.5444  -22.4509  -11.0208 N   0  0  0  0  0  0  0  0  0  0  0  0
   30.0419  -21.2911  -11.6947 C   0  0  0  0  0  0  0  0  0  0  0  0
   28.7252  -21.6208  -12.3776 C   0  0  0  0  0  0  0  0  0  0  0  0
   27.6247  -21.1990  -11.4245 C   0  0  0  0  0  0  0  0  0  0  0  0
   26.2605  -21.6144  -11.9559 C   0  0  2  0  0  0  0  0  0  0  0  0
   26.4444  -22.4988  -13.0582 N   0  0  0  0  0  0  0  0  0  0  0  0
   25.5247  -20.3840  -12.2983 C   0  0  0  0  0  0  0  0  0  0  0  0
   25.0999  -19.5630  -11.4508 O   0  0  0  0  0  0  0  0  0  0  0  0
   31.6627  -24.2538   -9.5305 N   0  0  0  0  0  0  0  0  0  0  0  0
   26.4933  -16.2577  -16.4759 C   0  0  0  0  0  0  0  0  0  0  0  0
   27.1990  -17.4597  -16.2550 O   0  0  0  0  0  0  0  0  0  0  0  0
   28.2894  -17.6807  -16.7950 C   0  0  0  0  0  0  0  0  0  0  0  0
   26.6142  -18.4927  -15.3454 C   0  0  0  0  0  0  0  0  0  0  0  0
   25.2805  -18.0006  -14.8726 C   0  0  1  0  0  0  0  0  0  0  0  0
   24.4629  -18.9589  -14.0754 N   0  0  0  0  0  0  0  0  0  0  0  0
   25.2791  -20.1065  -13.6676 C   0  0  0  0  0  0  0  0  0  0  0  0
   23.2848  -19.5247  -14.7639 O   0  0  0  0  0  0  0  0  0  0  0  0
   23.2439  -20.7777  -15.0673 N   0  0  0  0  0  0  0  0  0  0  0  0
   22.1242  -18.8040  -15.1461 C   0  0  1  0  0  0  0  0  0  0  0  0
   20.7710  -19.4015  -14.9927 C   0  0  0  0  0  0  0  0  0  0  0  0
   20.5675  -19.7734  -13.5438 C   0  0  0  0  0  0  0  0  0  0  0  0
   19.2174  -20.3096  -13.3096 C   0  0  0  0  0  0  0  0  0  0  0  0
   18.3136  -20.4801  -14.3729 N   0  0  0  0  0  0  0  0  0  0  0  0
   17.1892  -20.9792  -13.8374 C   0  0  0  0  0  0  0  0  0  0  0  0
   17.3300  -21.1309  -12.5176 N   0  0  0  0  0  0  0  0  0  0  0  0
   18.5672  -20.7175  -12.2274 C   0  0  0  0  0  0  0  0  0  0  0  0
   19.8281  -18.3927  -15.4937 O   0  0  0  0  0  0  0  0  0  0  0  0
   20.1702  -17.1673  -15.6394 O   0  0  0  0  0  0  0  0  0  0  0  0
  2  1  1  0
  3  2  2  0
  4  2  1  0
  5  4  1  0
  6  5  1  0
  6  7  1  0
  8  7  1  0
  8  9  1  6
 10  8  1  0
 10 11  2  0
 13 12  1  0
 13 14  2  0
 15 16  1  0
 15 13  1  0
 17 16  1  1
 17 18  1  0
 18 10  1  0
 19 17  1  0
 19 21  1  0
 20 19  2  0
 22 21  1  0
 22 23  1  6
 23 24  1  0
 24 28  1  0
 25 24  2  0
 25 26  1  0
 26 27  1  0
 28 27  2  0
 29 22  1  0
 30 29  2  0
 31 29  1  0
M  END
$$$$
