ELC.pdb
     RDKit          3D

 24 23  0  0  1  0  0  0  0  0999 V2000
   21.6654  -13.3597  -17.9799 N   0  0  0  0  0  0  0  0  0  0  0  0
   21.8261  -12.0324  -18.5561 C   0  0  1  0  0  0  0  0  0  0  0  0
   20.5511  -11.5383  -19.1615 C   0  0  0  0  0  0  0  0  0  0  0  0
   20.2057  -12.3765  -20.3580 C   0  0  0  0  0  0  0  0  0  0  0  0
   19.0065  -11.9182  -21.0874 C   0  0  0  0  0  0  0  0  0  0  0  0
   19.1390  -10.9467  -21.9123 O   0  0  0  0  0  0  0  0  0  0  0  0
   22.3305  -11.1400  -17.4816 C   0  0  0  0  0  0  0  0  0  0  0  0
   21.7768  -11.1882  -16.3618 O   0  0  0  0  0  0  0  0  0  0  0  0
   17.7455  -12.4328  -20.9741 O   0  0  0  0  0  0  0  0  0  0  0  0
   26.2696  -10.8139  -15.1350 C   0  0  0  0  0  0  0  0  0  0  0  0
   26.3468  -10.2733  -16.5743 C   0  0  2  0  0  0  0  0  0  0  0  0
   27.7402  -10.1198  -16.9887 C   0  0  0  0  0  0  0  0  0  0  0  0
   25.3414   -9.2478  -16.8137 C   0  0  0  0  0  0  0  0  0  0  0  0
   23.9202   -9.4114  -16.5050 C   0  0  2  0  0  0  0  0  0  0  0  0
   23.4008  -10.2408  -17.6540 N   0  0  0  0  0  0  0  0  0  0  0  0
   23.1578   -8.1662  -16.5811 C   0  0  0  0  0  0  0  0  0  0  0  0
   23.1709   -7.4351  -17.6361 O   0  0  0  0  0  0  0  0  0  0  0  0
   22.3340   -7.6400  -15.5411 N   0  0  0  0  0  0  0  0  0  0  0  0
   21.6511   -6.3888  -15.6827 C   0  0  1  0  0  0  0  0  0  0  0  0
   20.1496   -6.7267  -15.5877 C   0  0  0  0  0  0  0  0  0  0  0  0
   19.6418   -7.8185  -16.9361 S   0  0  0  0  0  0  0  0  0  0  0  0
   21.9713   -5.4411  -14.6136 C   0  0  0  0  0  0  0  0  0  0  0  0
   22.8546   -5.6980  -13.5804 O   0  0  0  0  0  0  0  0  0  0  0  0
   21.4360   -4.2788  -14.5670 O   0  0  0  0  0  0  0  0  0  0  0  0
  2  1  1  1
  3  2  1  0
  4  3  1  0
  5  4  1  0
  5  6  2  0
  7  8  2  0
  7  2  1  0
  9  5  1  0
 11 10  1  1
 11 12  1  0
 11 13  1  0
 14 13  1  6
 14 15  1  0
 15  7  1  0
 16 14  1  0
 17 16  2  0
 18 16  1  0
 19 20  1  1
 19 18  1  0
 20 21  1  0
 22 19  1  0
 23 22  1  0
 24 22  2  0
M  END
$$$$
