ELC.pdb
     RDKit          3D

 24 23  0  0  1  0  0  0  0  0999 V2000
   13.0113  -11.6892  -11.0793 N   0  0  0  0  0  0  0  0  0  0  0  0
   14.4007  -11.3302  -10.8340 C   0  0  1  0  0  0  0  0  0  0  0  0
   15.3190  -11.9856  -11.8155 C   0  0  0  0  0  0  0  0  0  0  0  0
   15.2979  -13.4721  -11.6073 C   0  0  0  0  0  0  0  0  0  0  0  0
   16.0977  -14.2286  -12.5913 C   0  0  0  0  0  0  0  0  0  0  0  0
   16.8059  -13.5654  -13.4282 O   0  0  0  0  0  0  0  0  0  0  0  0
   14.4897   -9.8482  -10.8716 C   0  0  0  0  0  0  0  0  0  0  0  0
   13.7068   -9.2258  -11.6217 O   0  0  0  0  0  0  0  0  0  0  0  0
   16.1646  -15.5890  -12.7040 O   0  0  0  0  0  0  0  0  0  0  0  0
   13.6513   -5.7457   -8.6785 C   0  0  0  0  0  0  0  0  0  0  0  0
   14.5957   -6.7243   -7.9571 C   0  0  2  0  0  0  0  0  0  0  0  0
   14.8257   -6.2913   -6.5799 C   0  0  0  0  0  0  0  0  0  0  0  0
   15.6746   -7.1655   -8.8294 C   0  0  0  0  0  0  0  0  0  0  0  0
   15.4785   -7.5993  -10.2133 C   0  0  2  0  0  0  0  0  0  0  0  0
   15.4086   -9.1032  -10.1072 N   0  0  0  0  0  0  0  0  0  0  0  0
   16.6332   -7.3485  -11.0743 C   0  0  0  0  0  0  0  0  0  0  0  0
   17.8313   -7.5732  -10.6719 O   0  0  0  0  0  0  0  0  0  0  0  0
   16.5714   -6.8547  -12.4121 N   0  0  0  0  0  0  0  0  0  0  0  0
   17.7565   -6.5625  -13.1616 C   0  0  1  0  0  0  0  0  0  0  0  0
   17.6099   -7.3427  -14.4836 C   0  0  0  0  0  0  0  0  0  0  0  0
   17.4554   -9.1177  -14.1779 S   0  0  0  0  0  0  0  0  0  0  0  0
   17.8891   -5.1410  -13.4862 C   0  0  0  0  0  0  0  0  0  0  0  0
   19.0218   -4.5672  -14.0352 O   0  0  0  0  0  0  0  0  0  0  0  0
   16.9343   -4.3143  -13.2746 O   0  0  0  0  0  0  0  0  0  0  0  0
  2  1  1  6
  3  2  1  0
  4  3  1  0
  5  4  1  0
  5  6  2  0
  7  8  2  0
  7  2  1  0
  9  5  1  0
 11 10  1  6
 11 12  1  0
 11 13  1  0
 14 13  1  1
 14 15  1  0
 15  7  1  0
 16 14  1  0
 17 16  2  0
 18 16  1  0
 19 20  1  6
 19 18  1  0
 20 21  1  0
 22 19  1  0
 23 22  1  0
 24 22  2  0
M  END
$$$$
