ELC.pdb
     RDKit          3D

 24 23  0  0  1  0  0  0  0  0999 V2000
   20.2443  -12.4889  -17.1914 N   0  0  0  0  0  0  0  0  0  0  0  0
   20.7669  -11.2676  -17.7870 C   0  0  1  0  0  0  0  0  0  0  0  0
   19.6773  -10.4424  -18.3937 C   0  0  0  0  0  0  0  0  0  0  0  0
   19.0956  -11.1675  -19.5723 C   0  0  0  0  0  0  0  0  0  0  0  0
   18.0371  -10.4174  -20.2774 C   0  0  0  0  0  0  0  0  0  0  0  0
   17.4939  -10.9627  -21.3018 O   0  0  0  0  0  0  0  0  0  0  0  0
   21.5106  -10.5398  -16.7274 C   0  0  0  0  0  0  0  0  0  0  0  0
   21.0772  -10.5919  -15.5559 O   0  0  0  0  0  0  0  0  0  0  0  0
   17.5653   -9.1787  -19.9443 O   0  0  0  0  0  0  0  0  0  0  0  0
   25.1696  -10.8994  -14.2710 C   0  0  0  0  0  0  0  0  0  0  0  0
   25.4747  -10.5067  -15.7279 C   0  0  2  0  0  0  0  0  0  0  0  0
   26.8830  -10.7469  -16.0378 C   0  0  0  0  0  0  0  0  0  0  0  0
   24.7887   -9.2790  -16.1044 C   0  0  0  0  0  0  0  0  0  0  0  0
   23.3668   -9.0321  -15.8614 C   0  0  2  0  0  0  0  0  0  0  0  0
   22.6801   -9.7930  -16.9691 N   0  0  0  0  0  0  0  0  0  0  0  0
   22.9697   -7.6412  -16.0747 C   0  0  0  0  0  0  0  0  0  0  0  0
   22.7657   -7.1752  -17.2532 O   0  0  0  0  0  0  0  0  0  0  0  0
   22.7595   -6.6772  -15.0434 N   0  0  0  0  0  0  0  0  0  0  0  0
   22.2951   -5.3537  -15.3340 C   0  0  1  0  0  0  0  0  0  0  0  0
   20.8594   -5.5296  -15.8683 C   0  0  0  0  0  0  0  0  0  0  0  0
   20.0351   -3.9319  -16.0571 S   0  0  0  0  0  0  0  0  0  0  0  0
   22.2360   -4.4976  -14.1478 C   0  0  0  0  0  0  0  0  0  0  0  0
   22.3371   -3.1183  -14.1739 O   0  0  0  0  0  0  0  0  0  0  0  0
   22.0826   -4.9885  -12.9750 O   0  0  0  0  0  0  0  0  0  0  0  0
  2  1  1  1
  3  2  1  0
  4  3  1  0
  5  4  1  0
  5  6  2  0
  7  8  2  0
  7  2  1  0
  9  5  1  0
 11 10  1  1
 11 12  1  0
 11 13  1  0
 14 13  1  6
 14 15  1  0
 15  7  1  0
 16 14  1  0
 17 16  2  0
 18 16  1  0
 19 20  1  1
 19 18  1  0
 20 21  1  0
 22 19  1  0
 23 22  1  0
 24 22  2  0
M  END
$$$$
