ELC.pdb
     RDKit          3D

 24 23  0  0  1  0  0  0  0  0999 V2000
   17.7064  -12.7132  -16.7447 N   0  0  0  0  0  0  0  0  0  0  0  0
   18.6447  -11.9156  -17.5211 C   0  0  1  0  0  0  0  0  0  0  0  0
   18.0556  -11.4926  -18.8288 C   0  0  0  0  0  0  0  0  0  0  0  0
   18.0420  -12.6589  -19.7738 C   0  0  0  0  0  0  0  0  0  0  0  0
   19.3670  -12.9971  -20.3308 C   0  0  0  0  0  0  0  0  0  0  0  0
   19.5326  -14.1701  -20.8191 O   0  0  0  0  0  0  0  0  0  0  0  0
   19.0500  -10.7618  -16.6784 C   0  0  0  0  0  0  0  0  0  0  0  0
   18.2170  -10.2950  -15.8716 O   0  0  0  0  0  0  0  0  0  0  0  0
   20.4563  -12.1734  -20.3827 O   0  0  0  0  0  0  0  0  0  0  0  0
   22.0850   -9.4704  -13.1028 C   0  0  0  0  0  0  0  0  0  0  0  0
   22.6272   -9.9994  -14.4430 C   0  0  2  0  0  0  0  0  0  0  0  0
   24.0371  -10.3639  -14.3160 C   0  0  0  0  0  0  0  0  0  0  0  0
   22.1163   -9.2279  -15.5671 C   0  0  0  0  0  0  0  0  0  0  0  0
   20.6924   -9.0150  -15.8299 C   0  0  2  0  0  0  0  0  0  0  0  0
   20.3236  -10.1633  -16.7373 N   0  0  0  0  0  0  0  0  0  0  0  0
   20.4166   -7.8196  -16.6252 C   0  0  0  0  0  0  0  0  0  0  0  0
   20.8836   -7.6816  -17.8129 O   0  0  0  0  0  0  0  0  0  0  0  0
   19.6208   -6.7134  -16.2006 N   0  0  0  0  0  0  0  0  0  0  0  0
   19.4159   -5.5690  -17.0373 C   0  0  1  0  0  0  0  0  0  0  0  0
   17.8948   -5.5058  -17.2826 C   0  0  0  0  0  0  0  0  0  0  0  0
   17.4347   -3.9741  -18.1253 S   0  0  0  0  0  0  0  0  0  0  0  0
   19.8249   -4.3164  -16.3991 C   0  0  0  0  0  0  0  0  0  0  0  0
   20.3429   -3.2272  -17.0766 O   0  0  0  0  0  0  0  0  0  0  0  0
   19.7257   -4.1463  -15.1338 O   0  0  0  0  0  0  0  0  0  0  0  0
  2  1  1  1
  3  2  1  0
  4  3  1  0
  5  4  1  0
  5  6  2  0
  7  8  2  0
  7  2  1  0
  9  5  1  0
 11 10  1  1
 11 12  1  0
 11 13  1  0
 14 13  1  6
 14 15  1  0
 15  7  1  0
 16 14  1  0
 17 16  2  0
 18 16  1  0
 19 20  1  1
 19 18  1  0
 20 21  1  0
 22 19  1  0
 23 22  1  0
 24 22  2  0
M  END
$$$$
