ELC.pdb
     RDKit          3D

 24 23  0  0  1  0  0  0  0  0999 V2000
   17.8567  -12.3847  -17.9747 N   0  0  0  0  0  0  0  0  0  0  0  0
   18.5181  -11.1897  -18.4785 C   0  0  1  0  0  0  0  0  0  0  0  0
   17.6293  -10.4171  -19.4002 C   0  0  0  0  0  0  0  0  0  0  0  0
   17.5153  -11.1402  -20.7107 C   0  0  0  0  0  0  0  0  0  0  0  0
   18.7249  -11.0528  -21.5530 C   0  0  0  0  0  0  0  0  0  0  0  0
   18.7692  -11.7643  -22.6178 O   0  0  0  0  0  0  0  0  0  0  0  0
   18.9510  -10.3927  -17.3026 C   0  0  0  0  0  0  0  0  0  0  0  0
   18.1871  -10.3294  -16.3151 O   0  0  0  0  0  0  0  0  0  0  0  0
   19.8232  -10.2759  -21.3123 O   0  0  0  0  0  0  0  0  0  0  0  0
   24.0807   -9.7637  -14.5249 C   0  0  0  0  0  0  0  0  0  0  0  0
   22.6778   -9.1302  -14.5009 C   0  0  2  0  0  0  0  0  0  0  0  0
   22.1248   -9.1638  -13.1481 C   0  0  0  0  0  0  0  0  0  0  0  0
   21.9017   -9.5078  -15.6734 C   0  0  0  0  0  0  0  0  0  0  0  0
   20.5877   -8.9497  -15.9958 C   0  0  2  0  0  0  0  0  0  0  0  0
   20.1774   -9.7029  -17.2376 N   0  0  0  0  0  0  0  0  0  0  0  0
   20.6339   -7.5505  -16.4174 C   0  0  0  0  0  0  0  0  0  0  0  0
   21.3131   -7.1807  -17.4419 O   0  0  0  0  0  0  0  0  0  0  0  0
   19.9509   -6.4740  -15.7756 N   0  0  0  0  0  0  0  0  0  0  0  0
   20.1113   -5.1176  -16.2072 C   0  0  1  0  0  0  0  0  0  0  0  0
   18.7553   -4.7190  -16.8237 C   0  0  0  0  0  0  0  0  0  0  0  0
   18.6832   -2.9412  -17.1433 S   0  0  0  0  0  0  0  0  0  0  0  0
   20.3954   -4.1986  -15.1034 C   0  0  0  0  0  0  0  0  0  0  0  0
   21.2692   -3.1291  -15.1823 O   0  0  0  0  0  0  0  0  0  0  0  0
   19.8350   -4.3326  -13.9597 O   0  0  0  0  0  0  0  0  0  0  0  0
  2  1  1  1
  3  2  1  0
  4  3  1  0
  5  4  1  0
  5  6  2  0
  7  8  2  0
  7  2  1  0
  9  5  1  0
 11 10  1  1
 11 12  1  0
 11 13  1  0
 14 13  1  6
 14 15  1  0
 15  7  1  0
 16 14  1  0
 17 16  2  0
 18 16  1  0
 19 20  1  1
 19 18  1  0
 20 21  1  0
 22 19  1  0
 23 22  1  0
 24 22  2  0
M  END
$$$$
