ELC.pdb
     RDKit          3D

 24 23  0  0  1  0  0  0  0  0999 V2000
   19.5822  -12.1314  -18.9122 N   0  0  0  0  0  0  0  0  0  0  0  0
   20.3004  -10.8884  -19.1539 C   0  0  1  0  0  0  0  0  0  0  0  0
   19.3851   -9.8108  -19.6408 C   0  0  0  0  0  0  0  0  0  0  0  0
   17.9601  -10.2619  -19.5019 C   0  0  0  0  0  0  0  0  0  0  0  0
   17.0226   -9.1855  -19.1243 C   0  0  0  0  0  0  0  0  0  0  0  0
   16.3727   -8.5983  -20.0596 O   0  0  0  0  0  0  0  0  0  0  0  0
   20.9916  -10.5223  -17.8915 C   0  0  0  0  0  0  0  0  0  0  0  0
   20.4205  -10.7736  -16.8081 O   0  0  0  0  0  0  0  0  0  0  0  0
   16.7689   -8.7421  -17.8567 O   0  0  0  0  0  0  0  0  0  0  0  0
   26.7586   -9.6559  -16.3392 C   0  0  0  0  0  0  0  0  0  0  0  0
   25.3431   -9.5515  -15.7431 C   0  0  2  0  0  0  0  0  0  0  0  0
   25.2872  -10.2119  -14.4402 C   0  0  0  0  0  0  0  0  0  0  0  0
   24.3200   -9.7412  -16.7614 C   0  0  0  0  0  0  0  0  0  0  0  0
   22.8920   -9.5144  -16.5346 C   0  0  2  0  0  0  0  0  0  0  0  0
   22.2577   -9.9069  -17.8466 N   0  0  0  0  0  0  0  0  0  0  0  0
   22.5426   -8.1044  -16.3687 C   0  0  0  0  0  0  0  0  0  0  0  0
   22.7578   -7.2462  -17.2987 O   0  0  0  0  0  0  0  0  0  0  0  0
   21.9368   -7.5371  -15.2076 N   0  0  0  0  0  0  0  0  0  0  0  0
   21.6426   -6.1380  -15.1200 C   0  0  1  0  0  0  0  0  0  0  0  0
   20.1196   -6.0512  -14.8949 C   0  0  0  0  0  0  0  0  0  0  0  0
   19.2133   -6.6781  -16.3278 S   0  0  0  0  0  0  0  0  0  0  0  0
   22.3062   -5.4862  -13.9893 C   0  0  0  0  0  0  0  0  0  0  0  0
   22.3072   -4.1211  -13.7651 O   0  0  0  0  0  0  0  0  0  0  0  0
   22.9476   -6.1610  -13.1101 O   0  0  0  0  0  0  0  0  0  0  0  0
  2  1  1  1
  3  2  1  0
  4  3  1  0
  5  4  1  0
  5  6  2  0
  7  8  2  0
  7  2  1  0
  9  5  1  0
 11 10  1  6
 11 12  1  0
 11 13  1  0
 14 13  1  6
 14 15  1  0
 15  7  1  0
 16 14  1  0
 17 16  2  0
 18 16  1  0
 19 20  1  1
 19 18  1  0
 20 21  1  0
 22 19  1  0
 23 22  1  0
 24 22  2  0
M  END
$$$$
