ELC.pdb
     RDKit          3D

 24 23  0  0  1  0  0  0  0  0999 V2000
   26.5313  -22.9765  -17.5549 N   0  0  0  0  0  0  0  0  0  0  0  0
   25.5098  -21.9986  -17.9007 C   0  0  1  0  0  0  0  0  0  0  0  0
   24.3028  -22.6517  -18.4947 C   0  0  0  0  0  0  0  0  0  0  0  0
   24.5792  -23.0099  -19.9260 C   0  0  0  0  0  0  0  0  0  0  0  0
   24.6796  -21.8457  -20.8287 C   0  0  0  0  0  0  0  0  0  0  0  0
   24.8863  -22.0662  -22.0739 O   0  0  0  0  0  0  0  0  0  0  0  0
   25.1949  -21.2311  -16.6689 C   0  0  0  0  0  0  0  0  0  0  0  0
   25.2569  -21.8226  -15.5693 O   0  0  0  0  0  0  0  0  0  0  0  0
   24.5713  -20.5318  -20.4686 O   0  0  0  0  0  0  0  0  0  0  0  0
   27.2623  -16.1842  -15.0250 C   0  0  0  0  0  0  0  0  0  0  0  0
   26.7165  -17.5895  -14.7133 C   0  0  2  0  0  0  0  0  0  0  0  0
   27.8122  -18.5062  -14.4034 C   0  0  0  0  0  0  0  0  0  0  0  0
   25.6248  -17.9483  -15.6073 C   0  0  0  0  0  0  0  0  0  0  0  0
   24.7298  -19.0849  -15.3859 C   0  0  2  0  0  0  0  0  0  0  0  0
   24.8299  -19.8707  -16.6705 N   0  0  0  0  0  0  0  0  0  0  0  0
   23.3193  -18.7102  -15.2974 C   0  0  0  0  0  0  0  0  0  0  0  0
   22.8525  -18.0921  -14.2739 O   0  0  0  0  0  0  0  0  0  0  0  0
   22.3349  -18.9658  -16.2988 N   0  0  0  0  0  0  0  0  0  0  0  0
   20.9636  -18.5931  -16.1181 C   0  0  1  0  0  0  0  0  0  0  0  0
   20.5327  -17.9507  -17.4520 C   0  0  0  0  0  0  0  0  0  0  0  0
   21.3346  -16.3484  -17.6915 S   0  0  0  0  0  0  0  0  0  0  0  0
   20.0904  -19.7405  -15.8642 C   0  0  0  0  0  0  0  0  0  0  0  0
   20.5241  -21.0523  -15.7950 O   0  0  0  0  0  0  0  0  0  0  0  0
   18.8306  -19.5962  -15.6852 O   0  0  0  0  0  0  0  0  0  0  0  0
  2  1  1  1
  3  2  1  0
  4  3  1  0
  5  4  1  0
  5  6  2  0
  7  8  2  0
  7  2  1  0
  9  5  1  0
 11 10  1  6
 11 12  1  0
 11 13  1  0
 14 13  1  6
 14 15  1  0
 15  7  1  0
 16 14  1  0
 17 16  2  0
 18 16  1  0
 19 20  1  6
 19 18  1  0
 20 21  1  0
 22 19  1  0
 23 22  1  0
 24 22  2  0
M  END
$$$$
