ELC.pdb
     RDKit          3D

 24 23  0  0  1  0  0  0  0  0999 V2000
   17.4452  -11.4835  -18.1509 N   0  0  0  0  0  0  0  0  0  0  0  0
   18.5079  -11.5099  -17.1562 C   0  0  1  0  0  0  0  0  0  0  0  0
   19.8505  -11.6841  -17.7913 C   0  0  0  0  0  0  0  0  0  0  0  0
   19.9850  -13.0887  -18.3034 C   0  0  0  0  0  0  0  0  0  0  0  0
   20.5289  -14.0402  -17.3139 C   0  0  0  0  0  0  0  0  0  0  0  0
   20.9269  -13.5753  -16.1881 O   0  0  0  0  0  0  0  0  0  0  0  0
   18.4087  -10.2557  -16.3671 C   0  0  0  0  0  0  0  0  0  0  0  0
   18.0353   -9.2153  -16.9512 O   0  0  0  0  0  0  0  0  0  0  0  0
   20.6531  -15.3916  -17.4753 O   0  0  0  0  0  0  0  0  0  0  0  0
   17.4613   -9.3060  -10.5049 C   0  0  0  0  0  0  0  0  0  0  0  0
   17.6261   -8.5098  -11.8121 C   0  0  2  0  0  0  0  0  0  0  0  0
   16.6109   -7.4620  -11.9038 C   0  0  0  0  0  0  0  0  0  0  0  0
   17.9538   -9.3823  -12.9306 C   0  0  0  0  0  0  0  0  0  0  0  0
   18.4706   -8.9040  -14.2136 C   0  0  2  0  0  0  0  0  0  0  0  0
   18.7119  -10.1729  -14.9942 N   0  0  0  0  0  0  0  0  0  0  0  0
   19.7891   -8.2797  -14.1171 C   0  0  0  0  0  0  0  0  0  0  0  0
   20.8270   -8.9535  -13.7759 O   0  0  0  0  0  0  0  0  0  0  0  0
   20.0725   -6.9074  -14.3887 N   0  0  0  0  0  0  0  0  0  0  0  0
   21.3982   -6.3766  -14.2771 C   0  0  1  0  0  0  0  0  0  0  0  0
   21.7232   -5.7866  -15.6642 C   0  0  0  0  0  0  0  0  0  0  0  0
   23.2624   -4.8395  -15.6240 S   0  0  0  0  0  0  0  0  0  0  0  0
   21.4992   -5.2992  -13.2909 C   0  0  0  0  0  0  0  0  0  0  0  0
   22.6252   -5.0390  -12.5306 O   0  0  0  0  0  0  0  0  0  0  0  0
   20.5199   -4.5061  -13.0634 O   0  0  0  0  0  0  0  0  0  0  0  0
  2  1  1  6
  3  2  1  0
  4  3  1  0
  5  4  1  0
  5  6  2  0
  7  8  2  0
  7  2  1  0
  9  5  1  0
 11 10  1  1
 11 12  1  0
 11 13  1  0
 14 13  1  1
 14 15  1  0
 15  7  1  0
 16 14  1  0
 17 16  2  0
 18 16  1  0
 19 20  1  6
 19 18  1  0
 20 21  1  0
 22 19  1  0
 23 22  1  0
 24 22  2  0
M  END
$$$$
