ELC.pdb
     RDKit          3D

 24 23  0  0  1  0  0  0  0  0999 V2000
   26.6061  -21.3938  -12.6104 N   0  0  0  0  0  0  0  0  0  0  0  0
   25.6249  -20.7222  -11.7704 C   0  0  1  0  0  0  0  0  0  0  0  0
   24.2283  -21.1034  -12.1449 C   0  0  0  0  0  0  0  0  0  0  0  0
   23.9392  -20.6399  -13.5431 C   0  0  0  0  0  0  0  0  0  0  0  0
   23.7239  -19.1839  -13.6616 C   0  0  0  0  0  0  0  0  0  0  0  0
   24.7021  -18.4622  -14.0666 O   0  0  0  0  0  0  0  0  0  0  0  0
   25.9476  -21.0534  -10.3592 C   0  0  0  0  0  0  0  0  0  0  0  0
   26.2115  -22.2417  -10.0742 O   0  0  0  0  0  0  0  0  0  0  0  0
   22.5673  -18.5123  -13.3807 O   0  0  0  0  0  0  0  0  0  0  0  0
   28.0178  -20.6162   -5.5280 C   0  0  0  0  0  0  0  0  0  0  0  0
   28.0889  -19.3813   -6.4445 C   0  0  2  0  0  0  0  0  0  0  0  0
   28.5635  -18.2174   -5.6981 C   0  0  0  0  0  0  0  0  0  0  0  0
   26.9482  -19.3204   -7.3472 C   0  0  0  0  0  0  0  0  0  0  0  0
   26.2814  -20.5005   -7.8992 C   0  0  2  0  0  0  0  0  0  0  0  0
   25.9735  -20.1012   -9.3217 N   0  0  0  0  0  0  0  0  0  0  0  0
   24.9724  -20.7649   -7.3039 C   0  0  0  0  0  0  0  0  0  0  0  0
   24.0380  -19.8850   -7.3205 O   0  0  0  0  0  0  0  0  0  0  0  0
   24.5876  -21.9838   -6.6687 N   0  0  0  0  0  0  0  0  0  0  0  0
   23.2874  -22.1536   -6.0921 C   0  0  1  0  0  0  0  0  0  0  0  0
   23.2602  -23.5997   -5.5575 C   0  0  0  0  0  0  0  0  0  0  0  0
   21.7183  -23.9390   -4.6770 S   0  0  0  0  0  0  0  0  0  0  0  0
   23.0407  -21.2494   -4.9673 C   0  0  0  0  0  0  0  0  0  0  0  0
   23.9876  -20.9049   -4.0196 O   0  0  0  0  0  0  0  0  0  0  0  0
   21.8962  -20.7045   -4.7851 O   0  0  0  0  0  0  0  0  0  0  0  0
  2  1  1  6
  3  2  1  0
  4  3  1  0
  5  4  1  0
  5  6  2  0
  7  8  2  0
  7  2  1  0
  9  5  1  0
 11 10  1  1
 11 12  1  0
 11 13  1  0
 14 13  1  1
 14 15  1  0
 15  7  1  0
 16 14  1  0
 17 16  2  0
 18 16  1  0
 19 20  1  1
 19 18  1  0
 20 21  1  0
 22 19  1  0
 23 22  1  0
 24 22  2  0
M  END
$$$$
