ELC.pdb
     RDKit          3D

 24 23  0  0  1  0  0  0  0  0999 V2000
   16.4203  -11.5451  -15.2693 N   0  0  0  0  0  0  0  0  0  0  0  0
   16.9190  -10.3147  -15.8665 C   0  0  1  0  0  0  0  0  0  0  0  0
   15.8883   -9.2317  -15.8350 C   0  0  0  0  0  0  0  0  0  0  0  0
   14.7655   -9.5801  -16.7684 C   0  0  0  0  0  0  0  0  0  0  0  0
   13.7113   -8.5496  -16.8521 C   0  0  0  0  0  0  0  0  0  0  0  0
   14.0290   -7.4010  -17.3228 O   0  0  0  0  0  0  0  0  0  0  0  0
   18.1608   -9.9414  -15.1426 C   0  0  0  0  0  0  0  0  0  0  0  0
   18.2097  -10.1368  -13.9088 O   0  0  0  0  0  0  0  0  0  0  0  0
   12.4060   -8.6958  -16.4744 O   0  0  0  0  0  0  0  0  0  0  0  0
   23.8793  -10.5861  -15.9757 C   0  0  0  0  0  0  0  0  0  0  0  0
   22.9635   -9.7190  -15.0931 C   0  0  2  0  0  0  0  0  0  0  0  0
   23.3461   -9.8384  -13.6873 C   0  0  0  0  0  0  0  0  0  0  0  0
   21.5780   -9.7847  -15.5355 C   0  0  0  0  0  0  0  0  0  0  0  0
   20.5032   -8.9649  -14.9745 C   0  0  2  0  0  0  0  0  0  0  0  0
   19.2893   -9.3787  -15.7701 N   0  0  0  0  0  0  0  0  0  0  0  0
   20.6508   -7.5370  -15.2521 C   0  0  0  0  0  0  0  0  0  0  0  0
   20.7897   -7.0974  -16.4501 O   0  0  0  0  0  0  0  0  0  0  0  0
   20.6483   -6.5023  -14.2689 N   0  0  0  0  0  0  0  0  0  0  0  0
   20.8684   -5.1310  -14.6194 C   0  0  1  0  0  0  0  0  0  0  0  0
   19.6333   -4.3696  -14.0972 C   0  0  0  0  0  0  0  0  0  0  0  0
   18.1274   -4.9238  -14.9296 S   0  0  0  0  0  0  0  0  0  0  0  0
   22.0559   -4.5630  -13.9785 C   0  0  0  0  0  0  0  0  0  0  0  0
   22.5429   -3.2915  -14.2229 O   0  0  0  0  0  0  0  0  0  0  0  0
   22.7394   -5.2295  -13.1250 O   0  0  0  0  0  0  0  0  0  0  0  0
  2  1  1  1
  3  2  1  0
  4  3  1  0
  5  4  1  0
  5  6  2  0
  7  8  2  0
  7  2  1  0
  9  5  1  0
 11 10  1  6
 11 12  1  0
 11 13  1  0
 14 13  1  6
 14 15  1  0
 15  7  1  0
 16 14  1  0
 17 16  2  0
 18 16  1  0
 19 20  1  1
 19 18  1  0
 20 21  1  0
 22 19  1  0
 23 22  1  0
 24 22  2  0
M  END
$$$$
