ELC.pdb
     RDKit          3D

 24 23  0  0  1  0  0  0  0  0999 V2000
   19.8232  -21.1725  -13.0149 N   0  0  0  0  0  0  0  0  0  0  0  0
   21.0348  -21.7020  -13.6239 C   0  0  1  0  0  0  0  0  0  0  0  0
   20.9307  -21.7351  -15.1153 C   0  0  0  0  0  0  0  0  0  0  0  0
   19.6878  -21.0130  -15.5478 C   0  0  0  0  0  0  0  0  0  0  0  0
   19.4679  -21.0158  -17.0080 C   0  0  0  0  0  0  0  0  0  0  0  0
   20.0308  -20.0981  -17.7027 O   0  0  0  0  0  0  0  0  0  0  0  0
   22.1701  -20.8702  -13.1498 C   0  0  0  0  0  0  0  0  0  0  0  0
   21.9865  -19.6418  -13.0074 O   0  0  0  0  0  0  0  0  0  0  0  0
   18.7136  -21.9134  -17.7102 O   0  0  0  0  0  0  0  0  0  0  0  0
   25.8088  -21.3987   -8.8585 C   0  0  0  0  0  0  0  0  0  0  0  0
   25.0945  -20.5157   -9.8976 C   0  0  2  0  0  0  0  0  0  0  0  0
   23.9006  -19.9052   -9.3155 C   0  0  0  0  0  0  0  0  0  0  0  0
   25.0934  -21.1362  -11.2147 C   0  0  0  0  0  0  0  0  0  0  0  0
   24.5766  -20.4882  -12.4209 C   0  0  2  0  0  0  0  0  0  0  0  0
   23.4447  -21.3893  -12.8505 N   0  0  0  0  0  0  0  0  0  0  0  0
   25.5105  -20.5155  -13.5456 C   0  0  0  0  0  0  0  0  0  0  0  0
   26.6073  -19.8491  -13.5229 O   0  0  0  0  0  0  0  0  0  0  0  0
   25.3292  -21.2618  -14.7486 N   0  0  0  0  0  0  0  0  0  0  0  0
   26.2122  -21.1127  -15.8666 C   0  0  1  0  0  0  0  0  0  0  0  0
   26.8419  -22.5037  -16.0819 C   0  0  0  0  0  0  0  0  0  0  0  0
   27.9002  -22.5191  -17.5473 S   0  0  0  0  0  0  0  0  0  0  0  0
   25.5144  -20.7353  -17.0971 C   0  0  0  0  0  0  0  0  0  0  0  0
   26.1389  -20.5004  -18.3089 O   0  0  0  0  0  0  0  0  0  0  0  0
   24.2420  -20.5944  -17.1286 O   0  0  0  0  0  0  0  0  0  0  0  0
  2  1  1  1
  3  2  1  0
  4  3  1  0
  5  4  1  0
  5  6  2  0
  7  8  2  0
  7  2  1  0
  9  5  1  0
 11 10  1  1
 11 12  1  0
 11 13  1  0
 14 13  1  1
 14 15  1  0
 15  7  1  0
 16 14  1  0
 17 16  2  0
 18 16  1  0
 19 20  1  6
 19 18  1  0
 20 21  1  0
 22 19  1  0
 23 22  1  0
 24 22  2  0
M  END
$$$$
