AAF.pdb
     RDKit          3D

 22 22  0  0  1  0  0  0  0  0999 V2000
   22.3887  -20.0324  -12.2850 C   0  0  0  0  0  0  0  0  0  0  0  0
   23.5458  -19.6577  -13.1831 C   0  0  2  0  0  0  0  0  0  0  0  0
   23.0905  -19.6536  -14.5449 N   0  0  0  0  0  0  0  0  0  0  0  0
   24.7227  -20.5332  -12.9736 C   0  0  0  0  0  0  0  0  0  0  0  0
   24.5460  -21.7782  -13.0131 O   0  0  0  0  0  0  0  0  0  0  0  0
   28.3835  -20.2105  -13.0928 C   0  0  0  0  0  0  0  0  0  0  0  0
   27.1562  -20.9597  -12.5578 C   0  0  2  0  0  0  0  0  0  0  0  0
   26.0318  -20.0587  -12.7321 N   0  0  0  0  0  0  0  0  0  0  0  0
   27.4243  -21.2505  -11.1362 C   0  0  0  0  0  0  0  0  0  0  0  0
   28.3054  -22.0723  -10.7444 O   0  0  0  0  0  0  0  0  0  0  0  0
   26.6635  -20.5822  -10.1572 N   0  0  0  0  0  0  0  0  0  0  0  0
   26.8638  -20.7609   -8.7255 C   0  0  1  0  0  0  0  0  0  0  0  0
   27.8346  -19.6895   -8.2888 C   0  0  0  0  0  0  0  0  0  0  0  0
   28.1425  -19.7752   -6.8490 C   0  0  0  0  0  0  0  0  0  0  0  0
   27.8062  -18.7233   -6.0136 C   0  0  0  0  0  0  0  0  0  0  0  0
   28.0539  -18.7529   -4.6577 C   0  0  0  0  0  0  0  0  0  0  0  0
   28.6587  -19.8673   -4.1046 C   0  0  0  0  0  0  0  0  0  0  0  0
   29.0042  -20.9274   -4.9074 C   0  0  0  0  0  0  0  0  0  0  0  0
   28.7421  -20.8670   -6.2637 C   0  0  0  0  0  0  0  0  0  0  0  0
   25.5770  -20.5523   -8.0511 C   0  0  0  0  0  0  0  0  0  0  0  0
   25.2802  -21.1973   -6.8677 O   0  0  0  0  0  0  0  0  0  0  0  0
   24.7264  -19.7824   -8.5465 O   0  0  0  0  0  0  0  0  0  0  0  0
  2  1  1  1
  2  4  1  0
  3  2  1  0
  4  8  1  0
  4  5  2  0
  7  6  1  1
  8  7  1  0
  9  7  1  0
  9 10  2  0
 11  9  1  0
 12 11  1  0
 12 13  1  1
 13 14  1  0
 14 19  2  0
 14 15  1  0
 15 16  2  0
 16 17  1  0
 18 17  2  0
 19 18  1  0
 20 12  1  0
 21 20  1  0
 22 20  2  0
M  END
$$$$
