AAF.pdb
     RDKit          3D

 22 22  0  0  1  0  0  0  0  0999 V2000
   18.6493   -2.3946  -20.7731 C   0  0  0  0  0  0  0  0  0  0  0  0
   19.1438   -3.5104  -19.8805 C   0  0  2  0  0  0  0  0  0  0  0  0
   18.5677   -4.7477  -20.3265 N   0  0  0  0  0  0  0  0  0  0  0  0
   18.8818   -3.2383  -18.4478 C   0  0  0  0  0  0  0  0  0  0  0  0
   19.4595   -2.2535  -17.9194 O   0  0  0  0  0  0  0  0  0  0  0  0
   16.3053   -4.1093  -15.9869 C   0  0  0  0  0  0  0  0  0  0  0  0
   17.7499   -3.6672  -16.2542 C   0  0  2  0  0  0  0  0  0  0  0  0
   18.0239   -4.0149  -17.6364 N   0  0  0  0  0  0  0  0  0  0  0  0
   18.6029   -4.4146  -15.3102 C   0  0  0  0  0  0  0  0  0  0  0  0
   18.5227   -4.2970  -14.0513 O   0  0  0  0  0  0  0  0  0  0  0  0
   19.5595   -5.3084  -15.8298 N   0  0  0  0  0  0  0  0  0  0  0  0
   20.4357   -6.1198  -14.9957 C   0  0  1  0  0  0  0  0  0  0  0  0
   20.6053   -7.4416  -15.7065 C   0  0  0  0  0  0  0  0  0  0  0  0
   21.6917   -8.2492  -15.1213 C   0  0  0  0  0  0  0  0  0  0  0  0
   22.8981   -8.3616  -15.7919 C   0  0  0  0  0  0  0  0  0  0  0  0
   23.9551   -9.0887  -15.2870 C   0  0  0  0  0  0  0  0  0  0  0  0
   23.8144   -9.7310  -14.0700 C   0  0  0  0  0  0  0  0  0  0  0  0
   22.6297   -9.6383  -13.3804 C   0  0  0  0  0  0  0  0  0  0  0  0
   21.5884   -8.9011  -13.9136 C   0  0  0  0  0  0  0  0  0  0  0  0
   21.7374   -5.4479  -14.9054 C   0  0  0  0  0  0  0  0  0  0  0  0
   22.5189   -5.5580  -13.7734 O   0  0  0  0  0  0  0  0  0  0  0  0
   22.1563   -4.7603  -15.8612 O   0  0  0  0  0  0  0  0  0  0  0  0
  2  1  1  6
  2  4  1  0
  3  2  1  0
  4  8  1  0
  4  5  2  0
  7  6  1  1
  8  7  1  0
  9  7  1  0
  9 10  2  0
 11  9  1  0
 12 11  1  0
 12 13  1  6
 13 14  1  0
 14 19  2  0
 14 15  1  0
 15 16  2  0
 16 17  1  0
 18 17  2  0
 19 18  1  0
 20 12  1  0
 21 20  1  0
 22 20  2  0
M  END
$$$$
