AAF.pdb
     RDKit          3D

 22 22  0  0  1  0  0  0  0  0999 V2000
   14.5293  -11.7502  -18.1739 C   0  0  0  0  0  0  0  0  0  0  0  0
   15.6333  -12.4387  -18.9440 C   0  0  2  0  0  0  0  0  0  0  0  0
   15.4859  -13.8589  -18.7916 N   0  0  0  0  0  0  0  0  0  0  0  0
   16.9768  -11.9550  -18.5485 C   0  0  0  0  0  0  0  0  0  0  0  0
   17.3513  -12.1568  -17.3645 O   0  0  0  0  0  0  0  0  0  0  0  0
   19.9071  -10.3927  -20.2681 C   0  0  0  0  0  0  0  0  0  0  0  0
   19.2012  -10.8949  -19.0019 C   0  0  2  0  0  0  0  0  0  0  0  0
   17.8651  -11.2811  -19.4170 N   0  0  0  0  0  0  0  0  0  0  0  0
   19.1868   -9.7676  -18.0499 C   0  0  0  0  0  0  0  0  0  0  0  0
   18.2305   -8.9417  -17.9582 O   0  0  0  0  0  0  0  0  0  0  0  0
   20.2923   -9.5948  -17.1944 N   0  0  0  0  0  0  0  0  0  0  0  0
   20.4476   -8.4515  -16.3053 C   0  0  1  0  0  0  0  0  0  0  0  0
   21.5794   -8.7881  -15.3635 C   0  0  0  0  0  0  0  0  0  0  0  0
   21.8918   -7.6713  -14.4523 C   0  0  0  0  0  0  0  0  0  0  0  0
   21.4581   -7.7188  -13.1380 C   0  0  0  0  0  0  0  0  0  0  0  0
   21.7333   -6.7131  -12.2361 C   0  0  0  0  0  0  0  0  0  0  0  0
   22.4670   -5.6156  -12.6495 C   0  0  0  0  0  0  0  0  0  0  0  0
   22.9117   -5.5394  -13.9473 C   0  0  0  0  0  0  0  0  0  0  0  0
   22.6191   -6.5648  -14.8276 C   0  0  0  0  0  0  0  0  0  0  0  0
   20.8219   -7.2860  -17.1151 C   0  0  0  0  0  0  0  0  0  0  0  0
   20.3599   -6.0237  -16.8029 O   0  0  0  0  0  0  0  0  0  0  0  0
   21.5689   -7.4251  -18.1073 O   0  0  0  0  0  0  0  0  0  0  0  0
  2  1  1  1
  2  4  1  0
  3  2  1  0
  4  8  1  0
  4  5  2  0
  7  6  1  6
  8  7  1  0
  9  7  1  0
  9 10  2  0
 11  9  1  0
 12 11  1  0
 12 13  1  1
 13 14  1  0
 14 19  2  0
 14 15  1  0
 15 16  2  0
 16 17  1  0
 18 17  2  0
 19 18  1  0
 20 12  1  0
 21 20  1  0
 22 20  2  0
M  END
$$$$
