AAF.pdb
     RDKit          3D

 22 22  0  0  1  0  0  0  0  0999 V2000
   29.2819  -33.7859  -19.0773 C   0  0  0  0  0  0  0  0  0  0  0  0
   30.6658  -33.3370  -18.6656 C   0  0  2  0  0  0  0  0  0  0  0  0
   30.9995  -33.9586  -17.4151 N   0  0  0  0  0  0  0  0  0  0  0  0
   30.7853  -31.8607  -18.6232 C   0  0  0  0  0  0  0  0  0  0  0  0
   30.7594  -31.2991  -17.4977 O   0  0  0  0  0  0  0  0  0  0  0  0
   31.5264  -29.1306  -21.0583 C   0  0  0  0  0  0  0  0  0  0  0  0
   31.0808  -29.6029  -19.6683 C   0  0  2  0  0  0  0  0  0  0  0  0
   30.9267  -31.0427  -19.7670 N   0  0  0  0  0  0  0  0  0  0  0  0
   29.8038  -28.9225  -19.3792 C   0  0  0  0  0  0  0  0  0  0  0  0
   28.6793  -29.3452  -19.7815 O   0  0  0  0  0  0  0  0  0  0  0  0
   29.8292  -27.7393  -18.6154 N   0  0  0  0  0  0  0  0  0  0  0  0
   28.6323  -26.9921  -18.2539 C   0  0  1  0  0  0  0  0  0  0  0  0
   28.7573  -26.6617  -16.7854 C   0  0  0  0  0  0  0  0  0  0  0  0
   27.6260  -25.8477  -16.3030 C   0  0  0  0  0  0  0  0  0  0  0  0
   26.4988  -26.4739  -15.7982 C   0  0  0  0  0  0  0  0  0  0  0  0
   25.4174  -25.7662  -15.3180 C   0  0  0  0  0  0  0  0  0  0  0  0
   25.4510  -24.3835  -15.3376 C   0  0  0  0  0  0  0  0  0  0  0  0
   26.5555  -23.7329  -15.8322 C   0  0  0  0  0  0  0  0  0  0  0  0
   27.6240  -24.4714  -16.3063 C   0  0  0  0  0  0  0  0  0  0  0  0
   28.6148  -25.7468  -19.0306 C   0  0  0  0  0  0  0  0  0  0  0  0
   27.4246  -25.1467  -19.3876 O   0  0  0  0  0  0  0  0  0  0  0  0
   29.6879  -25.2116  -19.3825 O   0  0  0  0  0  0  0  0  0  0  0  0
  2  1  1  1
  2  4  1  0
  3  2  1  0
  4  8  1  0
  4  5  2  0
  7  6  1  6
  8  7  1  0
  9  7  1  0
  9 10  2  0
 11  9  1  0
 12 11  1  0
 12 13  1  1
 13 14  1  0
 14 19  2  0
 14 15  1  0
 15 16  2  0
 16 17  1  0
 18 17  2  0
 19 18  1  0
 20 12  1  0
 21 20  1  0
 22 20  2  0
M  END
$$$$
