AAF.pdb
     RDKit          3D

 22 22  0  0  1  0  0  0  0  0999 V2000
   28.4472  -20.3001  -15.0367 C   0  0  0  0  0  0  0  0  0  0  0  0
   26.9355  -20.3238  -15.0270 C   0  0  2  0  0  0  0  0  0  0  0  0
   26.4543  -19.5169  -16.1128 N   0  0  0  0  0  0  0  0  0  0  0  0
   26.3781  -19.9148  -13.7165 C   0  0  0  0  0  0  0  0  0  0  0  0
   26.5705  -18.7307  -13.3375 O   0  0  0  0  0  0  0  0  0  0  0  0
   23.6755  -20.8715  -11.5231 C   0  0  0  0  0  0  0  0  0  0  0  0
   25.1030  -20.3144  -11.5971 C   0  0  2  0  0  0  0  0  0  0  0  0
   25.6438  -20.7705  -12.8644 N   0  0  0  0  0  0  0  0  0  0  0  0
   25.8353  -20.8720  -10.4438 C   0  0  0  0  0  0  0  0  0  0  0  0
   26.2235  -22.0761  -10.3776 O   0  0  0  0  0  0  0  0  0  0  0  0
   26.1213  -20.0256   -9.3548 N   0  0  0  0  0  0  0  0  0  0  0  0
   26.7971  -20.4753   -8.1453 C   0  0  1  0  0  0  0  0  0  0  0  0
   27.4612  -19.2589   -7.5448 C   0  0  0  0  0  0  0  0  0  0  0  0
   28.0777  -19.5536   -6.2379 C   0  0  0  0  0  0  0  0  0  0  0  0
   29.1053  -20.4784   -6.1590 C   0  0  0  0  0  0  0  0  0  0  0  0
   29.7308  -20.7830   -4.9688 C   0  0  0  0  0  0  0  0  0  0  0  0
   29.3244  -20.1479   -3.8090 C   0  0  0  0  0  0  0  0  0  0  0  0
   28.3075  -19.2251   -3.8547 C   0  0  0  0  0  0  0  0  0  0  0  0
   27.7004  -18.9415   -5.0643 C   0  0  0  0  0  0  0  0  0  0  0  0
   25.7834  -20.9832   -7.2134 C   0  0  0  0  0  0  0  0  0  0  0  0
   26.1089  -21.9068   -6.2410 O   0  0  0  0  0  0  0  0  0  0  0  0
   24.6022  -20.5828   -7.2916 O   0  0  0  0  0  0  0  0  0  0  0  0
  2  1  1  1
  2  4  1  0
  3  2  1  0
  4  8  1  0
  4  5  2  0
  7  6  1  1
  8  7  1  0
  9  7  1  0
  9 10  2  0
 11  9  1  0
 12 11  1  0
 12 13  1  1
 13 14  1  0
 14 19  2  0
 14 15  1  0
 15 16  2  0
 16 17  1  0
 18 17  2  0
 19 18  1  0
 20 12  1  0
 21 20  1  0
 22 20  2  0
M  END
$$$$
