AAF.pdb
     RDKit          3D

 22 22  0  0  1  0  0  0  0  0999 V2000
   24.9867  -27.0631  -16.0672 C   0  0  0  0  0  0  0  0  0  0  0  0
   25.9161  -26.1775  -16.8659 C   0  0  2  0  0  0  0  0  0  0  0  0
   27.2679  -26.6074  -16.6433 N   0  0  0  0  0  0  0  0  0  0  0  0
   25.7138  -24.7405  -16.5666 C   0  0  0  0  0  0  0  0  0  0  0  0
   26.1624  -24.2959  -15.4786 O   0  0  0  0  0  0  0  0  0  0  0  0
   24.3728  -21.7573  -18.3758 C   0  0  0  0  0  0  0  0  0  0  0  0
   24.9220  -22.4262  -17.1090 C   0  0  2  0  0  0  0  0  0  0  0  0
   25.0486  -23.8369  -17.4259 N   0  0  0  0  0  0  0  0  0  0  0  0
   23.9363  -22.1799  -16.0390 C   0  0  0  0  0  0  0  0  0  0  0  0
   22.9714  -22.9603  -15.7838 O   0  0  0  0  0  0  0  0  0  0  0  0
   24.0693  -21.0169  -15.2556 N   0  0  0  0  0  0  0  0  0  0  0  0
   23.1501  -20.6631  -14.1825 C   0  0  1  0  0  0  0  0  0  0  0  0
   23.8453  -19.6138  -13.3476 C   0  0  0  0  0  0  0  0  0  0  0  0
   24.5740  -20.2052  -12.2099 C   0  0  0  0  0  0  0  0  0  0  0  0
   23.9508  -20.3086  -10.9776 C   0  0  0  0  0  0  0  0  0  0  0  0
   24.5751  -20.8667   -9.8824 C   0  0  0  0  0  0  0  0  0  0  0  0
   25.8680  -21.3419  -10.0099 C   0  0  0  0  0  0  0  0  0  0  0  0
   26.5131  -21.2537  -11.2198 C   0  0  0  0  0  0  0  0  0  0  0  0
   25.8594  -20.6887  -12.2994 C   0  0  0  0  0  0  0  0  0  0  0  0
   21.9431  -20.0828  -14.7828 C   0  0  0  0  0  0  0  0  0  0  0  0
   21.9632  -19.5606  -16.0600 O   0  0  0  0  0  0  0  0  0  0  0  0
   20.8733  -20.0530  -14.1373 O   0  0  0  0  0  0  0  0  0  0  0  0
  2  1  1  1
  2  4  1  0
  3  2  1  0
  4  8  1  0
  4  5  2  0
  7  6  1  6
  8  7  1  0
  9  7  1  0
  9 10  2  0
 11  9  1  0
 12 11  1  0
 12 13  1  1
 13 14  1  0
 14 19  2  0
 14 15  1  0
 15 16  2  0
 16 17  1  0
 18 17  2  0
 19 18  1  0
 20 12  1  0
 21 20  1  0
 22 20  2  0
M  END
$$$$
