AAF.pdb
     RDKit          3D

 22 22  0  0  1  0  0  0  0  0999 V2000
   16.4893  -13.6792  -14.8110 C   0  0  0  0  0  0  0  0  0  0  0  0
   16.5789  -12.4242  -15.6495 C   0  0  2  0  0  0  0  0  0  0  0  0
   16.3219  -12.7657  -17.0202 N   0  0  0  0  0  0  0  0  0  0  0  0
   17.8692  -11.7195  -15.4653 C   0  0  0  0  0  0  0  0  0  0  0  0
   18.1766  -11.3459  -14.3040 O   0  0  0  0  0  0  0  0  0  0  0  0
   20.8924  -10.9963  -17.5179 C   0  0  0  0  0  0  0  0  0  0  0  0
   20.0253  -10.7366  -16.2792 C   0  0  2  0  0  0  0  0  0  0  0  0
   18.7772  -11.4400  -16.5117 N   0  0  0  0  0  0  0  0  0  0  0  0
   19.8361   -9.2757  -16.1936 C   0  0  0  0  0  0  0  0  0  0  0  0
   18.8730   -8.6619  -16.7421 O   0  0  0  0  0  0  0  0  0  0  0  0
   20.7726   -8.5171  -15.4648 N   0  0  0  0  0  0  0  0  0  0  0  0
   20.6981   -7.0690  -15.3261 C   0  0  1  0  0  0  0  0  0  0  0  0
   21.7110   -6.6838  -14.2740 C   0  0  0  0  0  0  0  0  0  0  0  0
   21.8250   -5.2210  -14.1249 C   0  0  0  0  0  0  0  0  0  0  0  0
   20.9136   -4.5406  -13.3350 C   0  0  0  0  0  0  0  0  0  0  0  0
   20.9791   -3.1767  -13.1450 C   0  0  0  0  0  0  0  0  0  0  0  0
   21.9863   -2.4554  -13.7606 C   0  0  0  0  0  0  0  0  0  0  0  0
   22.9061   -3.1019  -14.5505 C   0  0  0  0  0  0  0  0  0  0  0  0
   22.8131   -4.4709  -14.7210 C   0  0  0  0  0  0  0  0  0  0  0  0
   21.0774   -6.4636  -16.6082 C   0  0  0  0  0  0  0  0  0  0  0  0
   22.1000   -6.9910  -17.3701 O   0  0  0  0  0  0  0  0  0  0  0  0
   20.4741   -5.4527  -17.0277 O   0  0  0  0  0  0  0  0  0  0  0  0
  2  1  1  1
  2  4  1  0
  3  2  1  0
  4  8  1  0
  4  5  2  0
  7  6  1  6
  8  7  1  0
  9  7  1  0
  9 10  2  0
 11  9  1  0
 12 11  1  0
 12 13  1  1
 13 14  1  0
 14 19  2  0
 14 15  1  0
 15 16  2  0
 16 17  1  0
 18 17  2  0
 19 18  1  0
 20 12  1  0
 21 20  1  0
 22 20  2  0
M  END
$$$$
