AAF.pdb
     RDKit          3D

 22 22  0  0  1  0  0  0  0  0999 V2000
   15.9434  -22.5497    3.7663 C   0  0  0  0  0  0  0  0  0  0  0  0
   15.0175  -21.4334    3.3391 C   0  0  2  0  0  0  0  0  0  0  0  0
   14.9406  -21.4207    1.9054 N   0  0  0  0  0  0  0  0  0  0  0  0
   15.4214  -20.1246    3.9042 C   0  0  0  0  0  0  0  0  0  0  0  0
   16.4946  -19.6114    3.4949 O   0  0  0  0  0  0  0  0  0  0  0  0
   14.0076  -17.6678    6.3511 C   0  0  0  0  0  0  0  0  0  0  0  0
   15.0694  -18.0939    5.3289 C   0  0  2  0  0  0  0  0  0  0  0  0
   14.6775  -19.4155    4.8744 N   0  0  0  0  0  0  0  0  0  0  0  0
   16.3614  -18.1082    6.0415 C   0  0  0  0  0  0  0  0  0  0  0  0
   16.8596  -19.1484    6.5657 O   0  0  0  0  0  0  0  0  0  0  0  0
   17.0847  -16.9043    6.1483 N   0  0  0  0  0  0  0  0  0  0  0  0
   18.3554  -16.7916    6.8515 C   0  0  1  0  0  0  0  0  0  0  0  0
   19.3588  -16.2736    5.8485 C   0  0  0  0  0  0  0  0  0  0  0  0
   19.0083  -14.9269    5.3601 C   0  0  0  0  0  0  0  0  0  0  0  0
   19.4818  -13.8113    6.0301 C   0  0  0  0  0  0  0  0  0  0  0  0
   19.2013  -12.5280    5.6116 C   0  0  0  0  0  0  0  0  0  0  0  0
   18.4210  -12.3391    4.4851 C   0  0  0  0  0  0  0  0  0  0  0  0
   17.9365  -13.4260    3.7984 C   0  0  0  0  0  0  0  0  0  0  0  0
   18.2359  -14.7004    4.2437 C   0  0  0  0  0  0  0  0  0  0  0  0
   18.1986  -15.8096    7.9310 C   0  0  0  0  0  0  0  0  0  0  0  0
   19.1233  -15.7192    8.9514 O   0  0  0  0  0  0  0  0  0  0  0  0
   17.2156  -15.0380    7.9396 O   0  0  0  0  0  0  0  0  0  0  0  0
  2  1  1  6
  2  4  1  0
  3  2  1  0
  4  8  1  0
  4  5  2  0
  7  6  1  1
  8  7  1  0
  9  7  1  0
  9 10  2  0
 11  9  1  0
 12 11  1  0
 12 13  1  6
 13 14  1  0
 14 19  2  0
 14 15  1  0
 15 16  2  0
 16 17  1  0
 18 17  2  0
 19 18  1  0
 20 12  1  0
 21 20  1  0
 22 20  2  0
M  END
$$$$
