AAF.pdb
     RDKit          3D

 22 22  0  0  1  0  0  0  0  0999 V2000
   26.7280  -24.3171  -16.8779 C   0  0  0  0  0  0  0  0  0  0  0  0
   26.7619  -23.0662  -17.7264 C   0  0  2  0  0  0  0  0  0  0  0  0
   28.1155  -22.5924  -17.7961 N   0  0  0  0  0  0  0  0  0  0  0  0
   25.8165  -22.0343  -17.2396 C   0  0  0  0  0  0  0  0  0  0  0  0
   26.1571  -21.3454  -16.2435 O   0  0  0  0  0  0  0  0  0  0  0  0
   22.4969  -20.6671  -18.2901 C   0  0  0  0  0  0  0  0  0  0  0  0
   23.6503  -20.7762  -17.2844 C   0  0  2  0  0  0  0  0  0  0  0  0
   24.5558  -21.7744  -17.8232 N   0  0  0  0  0  0  0  0  0  0  0  0
   23.0548  -21.1962  -16.0013 C   0  0  0  0  0  0  0  0  0  0  0  0
   22.8060  -22.4032  -15.7075 O   0  0  0  0  0  0  0  0  0  0  0  0
   22.7440  -20.2073  -15.0476 N   0  0  0  0  0  0  0  0  0  0  0  0
   22.2123  -20.5073  -13.7251 C   0  0  1  0  0  0  0  0  0  0  0  0
   22.9915  -19.6623  -12.7453 C   0  0  0  0  0  0  0  0  0  0  0  0
   24.3058  -20.2518  -12.4291 C   0  0  0  0  0  0  0  0  0  0  0  0
   25.4109  -19.9077  -13.1894 C   0  0  0  0  0  0  0  0  0  0  0  0
   26.6672  -20.4133  -12.9316 C   0  0  0  0  0  0  0  0  0  0  0  0
   26.8389  -21.2950  -11.8796 C   0  0  0  0  0  0  0  0  0  0  0  0
   25.7619  -21.6558  -11.1065 C   0  0  0  0  0  0  0  0  0  0  0  0
   24.5146  -21.1309  -11.3909 C   0  0  0  0  0  0  0  0  0  0  0  0
   20.8007  -20.1065  -13.6947 C   0  0  0  0  0  0  0  0  0  0  0  0
   19.9474  -20.5776  -12.7178 O   0  0  0  0  0  0  0  0  0  0  0  0
   20.3505  -19.3280  -14.5625 O   0  0  0  0  0  0  0  0  0  0  0  0
  2  1  1  1
  2  4  1  0
  3  2  1  0
  4  8  1  0
  4  5  2  0
  7  6  1  6
  8  7  1  0
  9  7  1  0
  9 10  2  0
 11  9  1  0
 12 11  1  0
 12 13  1  1
 13 14  1  0
 14 19  2  0
 14 15  1  0
 15 16  2  0
 16 17  1  0
 18 17  2  0
 19 18  1  0
 20 12  1  0
 21 20  1  0
 22 20  2  0
M  END
$$$$
