AAF.pdb
     RDKit          3D

 22 22  0  0  1  0  0  0  0  0999 V2000
   23.9791  -33.6345  -14.0016 C   0  0  0  0  0  0  0  0  0  0  0  0
   23.0293  -34.7248  -13.5597 C   0  0  2  0  0  0  0  0  0  0  0  0
   21.7505  -34.4990  -14.1725 N   0  0  0  0  0  0  0  0  0  0  0  0
   22.9483  -34.8318  -12.0842 C   0  0  0  0  0  0  0  0  0  0  0  0
   22.1414  -34.0777  -11.4816 O   0  0  0  0  0  0  0  0  0  0  0  0
   24.0487  -37.2153   -9.4763 C   0  0  0  0  0  0  0  0  0  0  0  0
   23.5911  -35.8038   -9.8662 C   0  0  2  0  0  0  0  0  0  0  0  0
   23.7201  -35.7275  -11.3099 N   0  0  0  0  0  0  0  0  0  0  0  0
   24.4907  -34.8608   -9.1741 C   0  0  0  0  0  0  0  0  0  0  0  0
   25.6089  -34.4907   -9.6405 O   0  0  0  0  0  0  0  0  0  0  0  0
   24.0907  -34.3406   -7.9278 N   0  0  0  0  0  0  0  0  0  0  0  0
   24.8586  -33.3471   -7.1895 C   0  0  1  0  0  0  0  0  0  0  0  0
   23.8653  -32.3389   -6.6621 C   0  0  0  0  0  0  0  0  0  0  0  0
   23.2362  -31.5624   -7.7467 C   0  0  0  0  0  0  0  0  0  0  0  0
   23.9482  -30.5471   -8.3632 C   0  0  0  0  0  0  0  0  0  0  0  0
   23.4192  -29.7983   -9.3928 C   0  0  0  0  0  0  0  0  0  0  0  0
   22.1342  -30.0634   -9.8314 C   0  0  0  0  0  0  0  0  0  0  0  0
   21.4024  -31.0647   -9.2400 C   0  0  0  0  0  0  0  0  0  0  0  0
   21.9616  -31.7978   -8.2095 C   0  0  0  0  0  0  0  0  0  0  0  0
   25.5139  -34.0176   -6.0603 C   0  0  0  0  0  0  0  0  0  0  0  0
   26.4519  -33.3618   -5.2894 O   0  0  0  0  0  0  0  0  0  0  0  0
   25.2285  -35.2022   -5.7825 O   0  0  0  0  0  0  0  0  0  0  0  0
  2  1  1  1
  2  4  1  0
  3  2  1  0
  4  8  1  0
  4  5  2  0
  7  6  1  1
  8  7  1  0
  9  7  1  0
  9 10  2  0
 11  9  1  0
 12 11  1  0
 12 13  1  1
 13 14  1  0
 14 19  2  0
 14 15  1  0
 15 16  2  0
 16 17  1  0
 18 17  2  0
 19 18  1  0
 20 12  1  0
 21 20  1  0
 22 20  2  0
M  END
$$$$
