AAF.pdb
     RDKit          3D

 22 22  0  0  1  0  0  0  0  0999 V2000
   21.6472  -11.5093  -19.0529 C   0  0  0  0  0  0  0  0  0  0  0  0
   21.3408  -10.9345  -17.6885 C   0  0  2  0  0  0  0  0  0  0  0  0
   20.1164  -11.5112  -17.2091 N   0  0  0  0  0  0  0  0  0  0  0  0
   21.3123   -9.4531  -17.6993 C   0  0  0  0  0  0  0  0  0  0  0  0
   22.4114   -8.8419  -17.6684 O   0  0  0  0  0  0  0  0  0  0  0  0
   18.8253   -6.7967  -18.3976 C   0  0  0  0  0  0  0  0  0  0  0  0
   20.1560   -7.2315  -17.7699 C   0  0  2  0  0  0  0  0  0  0  0  0
   20.1283   -8.6824  -17.7420 N   0  0  0  0  0  0  0  0  0  0  0  0
   20.1962   -6.6471  -16.4157 C   0  0  0  0  0  0  0  0  0  0  0  0
   19.4816   -7.0597  -15.4543 O   0  0  0  0  0  0  0  0  0  0  0  0
   21.0738   -5.5727  -16.1718 N   0  0  0  0  0  0  0  0  0  0  0  0
   21.1941   -4.9127  -14.8789 C   0  0  1  0  0  0  0  0  0  0  0  0
   22.5954   -5.1840  -14.3849 C   0  0  0  0  0  0  0  0  0  0  0  0
   22.7916   -6.6014  -14.0279 C   0  0  0  0  0  0  0  0  0  0  0  0
   22.1866   -7.1108  -12.8911 C   0  0  0  0  0  0  0  0  0  0  0  0
   22.3201   -8.4305  -12.5156 C   0  0  0  0  0  0  0  0  0  0  0  0
   23.0825   -9.2820  -13.2951 C   0  0  0  0  0  0  0  0  0  0  0  0
   23.6953   -8.8066  -14.4292 C   0  0  0  0  0  0  0  0  0  0  0  0
   23.5418   -7.4776  -14.7788 C   0  0  0  0  0  0  0  0  0  0  0  0
   21.0229   -3.4692  -15.0812 C   0  0  0  0  0  0  0  0  0  0  0  0
   20.9976   -2.5980  -14.0112 O   0  0  0  0  0  0  0  0  0  0  0  0
   20.8951   -3.0081  -16.2357 O   0  0  0  0  0  0  0  0  0  0  0  0
  2  1  1  6
  2  4  1  0
  3  2  1  0
  4  8  1  0
  4  5  2  0
  7  6  1  1
  8  7  1  0
  9  7  1  0
  9 10  2  0
 11  9  1  0
 12 11  1  0
 12 13  1  6
 13 14  1  0
 14 19  2  0
 14 15  1  0
 15 16  2  0
 16 17  1  0
 18 17  2  0
 19 18  1  0
 20 12  1  0
 21 20  1  0
 22 20  2  0
M  END
$$$$
