AAF.pdb
     RDKit          3D

 22 22  0  0  1  0  0  0  0  0999 V2000
   38.9614  -23.3485    4.7125 C   0  0  0  0  0  0  0  0  0  0  0  0
   38.5251  -24.6986    5.2349 C   0  0  2  0  0  0  0  0  0  0  0  0
   38.2437  -25.5565    4.1185 N   0  0  0  0  0  0  0  0  0  0  0  0
   37.3876  -24.5922    6.1785 C   0  0  0  0  0  0  0  0  0  0  0  0
   36.2265  -24.5320    5.6981 O   0  0  0  0  0  0  0  0  0  0  0  0
   36.9493  -24.8705    9.8767 C   0  0  0  0  0  0  0  0  0  0  0  0
   36.3781  -24.6438    8.4710 C   0  0  2  0  0  0  0  0  0  0  0  0
   37.5240  -24.5540    7.5847 N   0  0  0  0  0  0  0  0  0  0  0  0
   35.6120  -23.3838    8.5235 C   0  0  0  0  0  0  0  0  0  0  0  0
   36.1291  -22.2424    8.3361 O   0  0  0  0  0  0  0  0  0  0  0  0
   34.2315  -23.4460    8.7960 N   0  0  0  0  0  0  0  0  0  0  0  0
   33.3785  -22.2690    8.8906 C   0  0  1  0  0  0  0  0  0  0  0  0
   32.1863  -22.5277    8.0002 C   0  0  0  0  0  0  0  0  0  0  0  0
   32.4387  -22.1205    6.6053 C   0  0  0  0  0  0  0  0  0  0  0  0
   33.0119  -23.0205    5.7228 C   0  0  0  0  0  0  0  0  0  0  0  0
   33.2566  -22.7027    4.4038 C   0  0  0  0  0  0  0  0  0  0  0  0
   32.9212  -21.4442    3.9376 C   0  0  0  0  0  0  0  0  0  0  0  0
   32.3508  -20.5289    4.7889 C   0  0  0  0  0  0  0  0  0  0  0  0
   32.1181  -20.8785    6.1063 C   0  0  0  0  0  0  0  0  0  0  0  0
   32.9257  -22.1391   10.2806 C   0  0  0  0  0  0  0  0  0  0  0  0
   32.3484  -20.9711   10.7355 O   0  0  0  0  0  0  0  0  0  0  0  0
   33.0606  -23.0933   11.0764 O   0  0  0  0  0  0  0  0  0  0  0  0
  2  1  1  6
  2  4  1  0
  3  2  1  0
  4  8  1  0
  4  5  2  0
  7  6  1  1
  8  7  1  0
  9  7  1  0
  9 10  2  0
 11  9  1  0
 12 11  1  0
 12 13  1  6
 13 14  1  0
 14 19  2  0
 14 15  1  0
 15 16  2  0
 16 17  1  0
 18 17  2  0
 19 18  1  0
 20 12  1  0
 21 20  1  0
 22 20  2  0
M  END
$$$$
