AAF.pdb
     RDKit          3D

 22 22  0  0  1  0  0  0  0  0999 V2000
   26.6574  -17.2761  -14.9976 C   0  0  0  0  0  0  0  0  0  0  0  0
   27.2569  -18.6574  -15.1343 C   0  0  2  0  0  0  0  0  0  0  0  0
   27.6010  -18.8770  -16.5109 N   0  0  0  0  0  0  0  0  0  0  0  0
   26.3671  -19.7097  -14.5898 C   0  0  0  0  0  0  0  0  0  0  0  0
   25.4761  -20.1773  -15.3448 O   0  0  0  0  0  0  0  0  0  0  0  0
   26.0691  -21.6983  -11.4440 C   0  0  0  0  0  0  0  0  0  0  0  0
   25.4670  -21.1398  -12.7400 C   0  0  2  0  0  0  0  0  0  0  0  0
   26.4556  -20.2219  -13.2755 N   0  0  0  0  0  0  0  0  0  0  0  0
   24.2147  -20.4557  -12.3646 C   0  0  0  0  0  0  0  0  0  0  0  0
   24.1622  -19.4961  -11.5391 O   0  0  0  0  0  0  0  0  0  0  0  0
   23.0094  -20.8878  -12.9516 N   0  0  0  0  0  0  0  0  0  0  0  0
   21.7267  -20.2370  -12.7218 C   0  0  1  0  0  0  0  0  0  0  0  0
   21.7631  -18.9320  -13.4812 C   0  0  0  0  0  0  0  0  0  0  0  0
   22.0334  -19.1344  -14.9168 C   0  0  0  0  0  0  0  0  0  0  0  0
   21.0600  -19.6997  -15.7233 C   0  0  0  0  0  0  0  0  0  0  0  0
   21.2489  -19.8986  -17.0744 C   0  0  0  0  0  0  0  0  0  0  0  0
   22.4485  -19.5236  -17.6523 C   0  0  0  0  0  0  0  0  0  0  0  0
   23.4339  -18.9598  -16.8786 C   0  0  0  0  0  0  0  0  0  0  0  0
   23.2135  -18.7735  -15.5262 C   0  0  0  0  0  0  0  0  0  0  0  0
   20.6708  -21.0915  -13.2778 C   0  0  0  0  0  0  0  0  0  0  0  0
   19.3379  -20.7706  -13.1201 O   0  0  0  0  0  0  0  0  0  0  0  0
   20.9694  -22.1305  -13.9049 O   0  0  0  0  0  0  0  0  0  0  0  0
  2  1  1  6
  2  4  1  0
  3  2  1  0
  4  8  1  0
  4  5  2  0
  7  6  1  1
  8  7  1  0
  9  7  1  0
  9 10  2  0
 11  9  1  0
 12 11  1  0
 12 13  1  6
 13 14  1  0
 14 19  2  0
 14 15  1  0
 15 16  2  0
 16 17  1  0
 18 17  2  0
 19 18  1  0
 20 12  1  0
 21 20  1  0
 22 20  2  0
M  END
$$$$
