AAF.pdb
     RDKit          3D

 22 22  0  0  1  0  0  0  0  0999 V2000
   17.0615  -10.5398  -15.9587 C   0  0  0  0  0  0  0  0  0  0  0  0
   18.0682  -10.4784  -17.0851 C   0  0  2  0  0  0  0  0  0  0  0  0
   18.8145  -11.7049  -17.1045 N   0  0  0  0  0  0  0  0  0  0  0  0
   18.9350   -9.2800  -16.9957 C   0  0  0  0  0  0  0  0  0  0  0  0
   19.9783   -9.3575  -16.2970 O   0  0  0  0  0  0  0  0  0  0  0  0
   19.0767   -5.9051  -18.5910 C   0  0  0  0  0  0  0  0  0  0  0  0
   19.5569   -6.9148  -17.5404 C   0  0  2  0  0  0  0  0  0  0  0  0
   18.6644   -8.0546  -17.6458 N   0  0  0  0  0  0  0  0  0  0  0  0
   19.4542   -6.2438  -16.2303 C   0  0  0  0  0  0  0  0  0  0  0  0
   18.4031   -6.2475  -15.5230 O   0  0  0  0  0  0  0  0  0  0  0  0
   20.5814   -5.5607  -15.7336 N   0  0  0  0  0  0  0  0  0  0  0  0
   20.6149   -4.9088  -14.4314 C   0  0  1  0  0  0  0  0  0  0  0  0
   21.9642   -5.2197  -13.8281 C   0  0  0  0  0  0  0  0  0  0  0  0
   22.1188   -6.6554  -13.5283 C   0  0  0  0  0  0  0  0  0  0  0  0
   21.4883   -7.1947  -12.4197 C   0  0  0  0  0  0  0  0  0  0  0  0
   21.5826   -8.5320  -12.0980 C   0  0  0  0  0  0  0  0  0  0  0  0
   22.3305   -9.3708  -12.9047 C   0  0  0  0  0  0  0  0  0  0  0  0
   22.9680   -8.8657  -14.0120 C   0  0  0  0  0  0  0  0  0  0  0  0
   22.8536   -7.5197  -14.3076 C   0  0  0  0  0  0  0  0  0  0  0  0
   20.4992   -3.4604  -14.6385 C   0  0  0  0  0  0  0  0  0  0  0  0
   20.3555   -2.5975  -13.5712 O   0  0  0  0  0  0  0  0  0  0  0  0
   20.5278   -2.9876  -15.7949 O   0  0  0  0  0  0  0  0  0  0  0  0
  2  1  1  1
  2  4  1  0
  3  2  1  0
  4  8  1  0
  4  5  2  0
  7  6  1  6
  8  7  1  0
  9  7  1  0
  9 10  2  0
 11  9  1  0
 12 11  1  0
 12 13  1  6
 13 14  1  0
 14 19  2  0
 14 15  1  0
 15 16  2  0
 16 17  1  0
 18 17  2  0
 19 18  1  0
 20 12  1  0
 21 20  1  0
 22 20  2  0
M  END
$$$$
