MYV.pdb
     RDKit          3D

 28 28  0  0  1  0  0  0  0  0999 V2000
   28.4471  -19.1316   -6.8328 C   0  0  0  0  0  0  0  0  0  0  0  0
   26.9840  -20.1576   -6.9642 S   0  0  0  0  0  0  0  0  0  0  0  0
   26.8727  -21.0439   -8.5284 C   0  0  0  0  0  0  0  0  0  0  0  0
   25.9635  -20.3503   -9.5226 C   0  0  0  0  0  0  0  0  0  0  0  0
   25.9430  -21.1972  -10.7752 C   0  0  2  0  0  0  0  0  0  0  0  0
   27.2680  -21.1138  -11.3578 N   0  0  0  0  0  0  0  0  0  0  0  0
   24.9769  -20.6910  -11.7797 C   0  0  0  0  0  0  0  0  0  0  0  0
   25.0703  -19.5339  -12.2341 O   0  0  0  0  0  0  0  0  0  0  0  0
   27.5070  -18.4781  -16.8855 O   0  0  0  0  0  0  0  0  0  0  0  0
   26.4536  -19.2160  -16.3238 C   0  0  0  0  0  0  0  0  0  0  0  0
   25.1622  -18.7401  -16.3019 C   0  0  0  0  0  0  0  0  0  0  0  0
   24.1514  -19.4946  -15.7406 C   0  0  0  0  0  0  0  0  0  0  0  0
   24.3822  -20.7409  -15.1837 C   0  0  0  0  0  0  0  0  0  0  0  0
   23.2938  -21.5424  -14.5847 C   0  0  0  0  0  0  0  0  0  0  0  0
   22.9115  -21.0124  -13.1984 C   0  0  2  0  0  0  0  0  0  0  0  0
   23.9018  -21.4937  -12.2729 N   0  0  0  0  0  0  0  0  0  0  0  0
   21.5506  -21.5254  -12.8857 C   0  0  0  0  0  0  0  0  0  0  0  0
   21.3992  -22.7477  -12.6307 O   0  0  0  0  0  0  0  0  0  0  0  0
   25.6915  -21.2107  -15.2121 C   0  0  0  0  0  0  0  0  0  0  0  0
   26.6944  -20.4538  -15.7730 C   0  0  0  0  0  0  0  0  0  0  0  0
   18.3198  -18.9105  -12.0742 C   0  0  0  0  0  0  0  0  0  0  0  0
   18.4573  -20.2994  -11.4892 C   0  0  2  0  0  0  0  0  0  0  0  0
   19.2331  -20.2110  -10.2146 C   0  0  0  0  0  0  0  0  0  0  0  0
   19.1188  -21.1726  -12.5340 C   0  0  2  0  0  0  0  0  0  0  0  0
   20.4306  -20.6625  -12.8710 N   0  0  0  0  0  0  0  0  0  0  0  0
   18.2706  -21.3460  -13.7364 C   0  0  0  0  0  0  0  0  0  0  0  0
   18.5912  -20.9074  -14.8666 O   0  0  0  0  0  0  0  0  0  0  0  0
   17.0694  -22.0235  -13.6051 O   0  0  0  0  0  0  0  0  0  0  0  0
  1  2  1  0
  2  3  1  0
  4  3  1  0
  4  5  1  0
  5  6  1  6
  7  8  2  0
  7  5  1  0
  9 10  1  0
 10 11  2  0
 11 12  1  0
 13 14  1  0
 13 12  2  0
 15 14  1  6
 15 16  1  0
 16  7  1  0
 17 15  1  0
 18 17  2  0
 19 13  1  0
 20 19  2  0
 20 10  1  0
 22 24  1  0
 22 21  1  6
 23 22  1  0
 24 25  1  6
 25 17  1  0
 26 28  1  0
 26 24  1  0
 27 26  2  0
M  END
$$$$
