MYV.pdb
     RDKit          3D

 28 28  0  0  1  0  0  0  0  0999 V2000
   26.0537  -16.3717  -16.4345 C   0  0  0  0  0  0  0  0  0  0  0  0
   27.8361  -16.5267  -16.3389 S   0  0  0  0  0  0  0  0  0  0  0  0
   28.3799  -17.8226  -15.2121 C   0  0  0  0  0  0  0  0  0  0  0  0
   27.2482  -18.7415  -14.7985 C   0  0  0  0  0  0  0  0  0  0  0  0
   27.7705  -19.6191  -13.6833 C   0  0  2  0  0  0  0  0  0  0  0  0
   28.7523  -20.5067  -14.2751 N   0  0  0  0  0  0  0  0  0  0  0  0
   26.7060  -20.4602  -13.0850 C   0  0  0  0  0  0  0  0  0  0  0  0
   26.5238  -21.6329  -13.4667 O   0  0  0  0  0  0  0  0  0  0  0  0
   28.9930  -20.7927   -6.7019 O   0  0  0  0  0  0  0  0  0  0  0  0
   27.8736  -20.6208   -7.5308 C   0  0  0  0  0  0  0  0  0  0  0  0
   27.0735  -19.5036   -7.4512 C   0  0  0  0  0  0  0  0  0  0  0  0
   25.9802  -19.3692   -8.2834 C   0  0  0  0  0  0  0  0  0  0  0  0
   25.6420  -20.3315   -9.2195 C   0  0  0  0  0  0  0  0  0  0  0  0
   24.4693  -20.1796  -10.1071 C   0  0  0  0  0  0  0  0  0  0  0  0
   24.7544  -20.7385  -11.5053 C   0  0  2  0  0  0  0  0  0  0  0  0
   25.8444  -19.9759  -12.0523 N   0  0  0  0  0  0  0  0  0  0  0  0
   23.5081  -20.5945  -12.3047 C   0  0  0  0  0  0  0  0  0  0  0  0
   23.1948  -19.4623  -12.7541 O   0  0  0  0  0  0  0  0  0  0  0  0
   26.4584  -21.4558   -9.2902 C   0  0  0  0  0  0  0  0  0  0  0  0
   27.5466  -21.5837   -8.4579 C   0  0  0  0  0  0  0  0  0  0  0  0
   21.4481  -23.9692  -13.8139 C   0  0  0  0  0  0  0  0  0  0  0  0
   21.4864  -22.6150  -14.4880 C   0  0  2  0  0  0  0  0  0  0  0  0
   22.6809  -22.5565  -15.3849 C   0  0  0  0  0  0  0  0  0  0  0  0
   21.5019  -21.5624  -13.4002 C   0  0  2  0  0  0  0  0  0  0  0  0
   22.6751  -21.7069  -12.5651 N   0  0  0  0  0  0  0  0  0  0  0  0
   20.2542  -21.5658  -12.6010 C   0  0  0  0  0  0  0  0  0  0  0  0
   20.2156  -21.9169  -11.3978 O   0  0  0  0  0  0  0  0  0  0  0  0
   19.0779  -21.1626  -13.2114 O   0  0  0  0  0  0  0  0  0  0  0  0
  1  2  1  0
  2  3  1  0
  4  3  1  0
  4  5  1  0
  5  6  1  6
  7  8  2  0
  7  5  1  0
  9 10  1  0
 10 11  2  0
 11 12  1  0
 13 14  1  0
 13 12  2  0
 15 14  1  1
 15 16  1  0
 16  7  1  0
 17 15  1  0
 18 17  2  0
 19 13  1  0
 20 19  2  0
 20 10  1  0
 22 24  1  0
 22 21  1  1
 23 22  1  0
 24 25  1  1
 25 17  1  0
 26 28  1  0
 26 24  1  0
 27 26  2  0
M  END
$$$$
