MYV.pdb
     RDKit          3D

 28 28  0  0  1  0  0  0  0  0999 V2000
   20.8700  -13.7169  -21.7741 C   0  0  0  0  0  0  0  0  0  0  0  0
   19.2904  -13.8232  -20.9351 S   0  0  0  0  0  0  0  0  0  0  0  0
   19.3405  -13.2140  -19.2406 C   0  0  0  0  0  0  0  0  0  0  0  0
   19.2151  -11.7058  -19.1646 C   0  0  0  0  0  0  0  0  0  0  0  0
   19.6715  -11.2889  -17.7845 C   0  0  2  0  0  0  0  0  0  0  0  0
   18.7971  -11.9523  -16.8372 N   0  0  0  0  0  0  0  0  0  0  0  0
   19.5436   -9.8277  -17.5681 C   0  0  0  0  0  0  0  0  0  0  0  0
   20.1988   -9.0175  -18.2525 O   0  0  0  0  0  0  0  0  0  0  0  0
   13.6335   -8.0554  -20.7786 O   0  0  0  0  0  0  0  0  0  0  0  0
   14.4171   -7.9906  -19.6161 C   0  0  0  0  0  0  0  0  0  0  0  0
   13.9277   -8.3683  -18.3862 C   0  0  0  0  0  0  0  0  0  0  0  0
   14.7284   -8.2907  -17.2643 C   0  0  0  0  0  0  0  0  0  0  0  0
   16.0358   -7.8386  -17.3199 C   0  0  0  0  0  0  0  0  0  0  0  0
   16.8866   -7.7588  -16.1133 C   0  0  0  0  0  0  0  0  0  0  0  0
   18.3719   -7.8764  -16.4718 C   0  0  2  0  0  0  0  0  0  0  0  0
   18.6729   -9.2791  -16.5759 N   0  0  0  0  0  0  0  0  0  0  0  0
   19.1452   -7.2125  -15.3882 C   0  0  0  0  0  0  0  0  0  0  0  0
   18.9514   -7.5596  -14.1949 O   0  0  0  0  0  0  0  0  0  0  0  0
   16.5187   -7.4599  -18.5685 C   0  0  0  0  0  0  0  0  0  0  0  0
   15.7155   -7.5397  -19.6829 C   0  0  0  0  0  0  0  0  0  0  0  0
   22.8555   -5.5472  -16.0322 C   0  0  0  0  0  0  0  0  0  0  0  0
   22.3148   -6.0251  -14.7021 C   0  0  2  0  0  0  0  0  0  0  0  0
   22.5013   -7.5053  -14.6095 C   0  0  0  0  0  0  0  0  0  0  0  0
   20.8652   -5.5973  -14.6170 C   0  0  2  0  0  0  0  0  0  0  0  0
   20.0901   -6.2018  -15.6793 N   0  0  0  0  0  0  0  0  0  0  0  0
   20.7172   -4.1231  -14.5987 C   0  0  0  0  0  0  0  0  0  0  0  0
   20.2237   -3.4751  -15.5522 O   0  0  0  0  0  0  0  0  0  0  0  0
   21.1436   -3.4305  -13.4774 O   0  0  0  0  0  0  0  0  0  0  0  0
  1  2  1  0
  2  3  1  0
  4  3  1  0
  4  5  1  0
  5  6  1  1
  7  8  2  0
  7  5  1  0
  9 10  1  0
 10 11  2  0
 11 12  1  0
 13 14  1  0
 13 12  2  0
 15 14  1  1
 15 16  1  0
 16  7  1  0
 17 15  1  0
 18 17  2  0
 19 13  1  0
 20 19  2  0
 20 10  1  0
 22 24  1  0
 22 21  1  6
 23 22  1  0
 24 25  1  6
 25 17  1  0
 26 28  1  0
 26 24  1  0
 27 26  2  0
M  END
$$$$
