MYV.pdb
     RDKit          3D

 28 28  0  0  1  0  0  0  0  0999 V2000
   26.8864  -15.5059  -15.7569 C   0  0  0  0  0  0  0  0  0  0  0  0
   28.0070  -16.6694  -16.5321 S   0  0  0  0  0  0  0  0  0  0  0  0
   28.3798  -18.0970  -15.4989 C   0  0  0  0  0  0  0  0  0  0  0  0
   27.1444  -18.9097  -15.1680 C   0  0  0  0  0  0  0  0  0  0  0  0
   27.5511  -19.9420  -14.1405 C   0  0  2  0  0  0  0  0  0  0  0  0
   28.3639  -20.9229  -14.8328 N   0  0  0  0  0  0  0  0  0  0  0  0
   26.3834  -20.6511  -13.5641 C   0  0  0  0  0  0  0  0  0  0  0  0
   26.0347  -21.7683  -13.9934 O   0  0  0  0  0  0  0  0  0  0  0  0
   29.0826  -20.8016   -7.3941 O   0  0  0  0  0  0  0  0  0  0  0  0
   27.9078  -20.6299   -8.1425 C   0  0  0  0  0  0  0  0  0  0  0  0
   27.0805  -19.5451   -7.9600 C   0  0  0  0  0  0  0  0  0  0  0  0
   25.9327  -19.4097   -8.7151 C   0  0  0  0  0  0  0  0  0  0  0  0
   25.5651  -20.3392   -9.6731 C   0  0  0  0  0  0  0  0  0  0  0  0
   24.3341  -20.1865  -10.4775 C   0  0  0  0  0  0  0  0  0  0  0  0
   24.5073  -20.7850  -11.8777 C   0  0  2  0  0  0  0  0  0  0  0  0
   25.6067  -20.0970  -12.4996 N   0  0  0  0  0  0  0  0  0  0  0  0
   23.2282  -20.5820  -12.6098 C   0  0  0  0  0  0  0  0  0  0  0  0
   22.8324  -19.4105  -12.8401 O   0  0  0  0  0  0  0  0  0  0  0  0
   26.4095  -21.4310   -9.8480 C   0  0  0  0  0  0  0  0  0  0  0  0
   27.5520  -21.5600   -9.0922 C   0  0  0  0  0  0  0  0  0  0  0  0
   21.2987  -23.7428  -14.6572 C   0  0  0  0  0  0  0  0  0  0  0  0
   21.2032  -22.2843  -15.0492 C   0  0  2  0  0  0  0  0  0  0  0  0
   22.3282  -21.9602  -15.9786 C   0  0  0  0  0  0  0  0  0  0  0  0
   21.2231  -21.4659  -13.7759 C   0  0  2  0  0  0  0  0  0  0  0  0
   22.4553  -21.6817  -13.0482 N   0  0  0  0  0  0  0  0  0  0  0  0
   20.0332  -21.7188  -12.9299 C   0  0  0  0  0  0  0  0  0  0  0  0
   18.8885  -21.2962  -13.2187 O   0  0  0  0  0  0  0  0  0  0  0  0
   20.1938  -22.4553  -11.7677 O   0  0  0  0  0  0  0  0  0  0  0  0
  1  2  1  0
  2  3  1  0
  4  3  1  0
  4  5  1  0
  5  6  1  6
  7  8  2  0
  7  5  1  0
  9 10  1  0
 10 11  2  0
 11 12  1  0
 13 14  1  0
 13 12  2  0
 15 14  1  1
 15 16  1  0
 16  7  1  0
 17 15  1  0
 18 17  2  0
 19 13  1  0
 20 19  2  0
 20 10  1  0
 22 24  1  0
 22 21  1  1
 23 22  1  0
 24 25  1  1
 25 17  1  0
 26 28  1  0
 26 24  1  0
 27 26  2  0
M  END
$$$$
