MYV.pdb
     RDKit          3D

 28 28  0  0  1  0  0  0  0  0999 V2000
   27.5604  -15.3081  -16.9725 C   0  0  0  0  0  0  0  0  0  0  0  0
   28.3317  -16.2938  -18.2546 S   0  0  0  0  0  0  0  0  0  0  0  0
   27.1813  -17.3946  -19.0970 C   0  0  0  0  0  0  0  0  0  0  0  0
   26.4494  -18.3105  -18.1370 C   0  0  0  0  0  0  0  0  0  0  0  0
   27.4580  -19.3096  -17.6164 C   0  0  2  0  0  0  0  0  0  0  0  0
   27.7485  -20.2177  -18.7087 N   0  0  0  0  0  0  0  0  0  0  0  0
   26.9226  -20.1145  -16.4922 C   0  0  0  0  0  0  0  0  0  0  0  0
   26.1441  -21.0663  -16.6976 O   0  0  0  0  0  0  0  0  0  0  0  0
   24.4238  -21.4370   -8.0502 O   0  0  0  0  0  0  0  0  0  0  0  0
   25.1307  -21.0813   -9.2092 C   0  0  0  0  0  0  0  0  0  0  0  0
   25.8216  -22.0098   -9.9543 C   0  0  0  0  0  0  0  0  0  0  0  0
   26.5058  -21.6226  -11.0892 C   0  0  0  0  0  0  0  0  0  0  0  0
   26.5300  -20.3087  -11.5245 C   0  0  0  0  0  0  0  0  0  0  0  0
   27.2652  -19.9025  -12.7413 C   0  0  0  0  0  0  0  0  0  0  0  0
   26.5604  -20.3990  -14.0083 C   0  0  2  0  0  0  0  0  0  0  0  0
   27.2670  -19.8440  -15.1315 N   0  0  0  0  0  0  0  0  0  0  0  0
   25.1490  -19.9335  -13.9439 C   0  0  0  0  0  0  0  0  0  0  0  0
   24.9108  -18.6988  -13.9162 O   0  0  0  0  0  0  0  0  0  0  0  0
   25.8279  -19.3798  -10.7630 C   0  0  0  0  0  0  0  0  0  0  0  0
   25.1481  -19.7722   -9.6330 C   0  0  0  0  0  0  0  0  0  0  0  0
   20.5447  -20.0825  -14.8635 C   0  0  0  0  0  0  0  0  0  0  0  0
   21.9801  -20.4981  -15.1016 C   0  0  2  0  0  0  0  0  0  0  0  0
   21.9939  -21.8799  -15.6714 C   0  0  0  0  0  0  0  0  0  0  0  0
   22.7137  -20.3866  -13.7821 C   0  0  2  0  0  0  0  0  0  0  0  0
   24.0769  -20.8548  -13.9135 N   0  0  0  0  0  0  0  0  0  0  0  0
   21.9982  -21.0780  -12.6842 C   0  0  0  0  0  0  0  0  0  0  0  0
   22.3906  -22.1617  -12.1902 O   0  0  0  0  0  0  0  0  0  0  0  0
   20.8438  -20.5003  -12.1816 O   0  0  0  0  0  0  0  0  0  0  0  0
  1  2  1  0
  2  3  1  0
  4  3  1  0
  4  5  1  0
  5  6  1  6
  7  8  2  0
  7  5  1  0
  9 10  1  0
 10 11  2  0
 11 12  1  0
 13 14  1  0
 13 12  2  0
 15 14  1  1
 15 16  1  0
 16  7  1  0
 17 15  1  0
 18 17  2  0
 19 13  1  0
 20 19  2  0
 20 10  1  0
 22 24  1  0
 22 21  1  1
 23 22  1  0
 24 25  1  6
 25 17  1  0
 26 28  1  0
 26 24  1  0
 27 26  2  0
M  END
$$$$
