MYV.pdb
     RDKit          3D

 28 28  0  0  1  0  0  0  0  0999 V2000
   28.7185  -17.7564   -6.2589 C   0  0  0  0  0  0  0  0  0  0  0  0
   28.7449  -19.4368   -5.6376 S   0  0  0  0  0  0  0  0  0  0  0  0
   28.2725  -20.6609   -6.8717 C   0  0  0  0  0  0  0  0  0  0  0  0
   27.4967  -20.0523   -8.0224 C   0  0  0  0  0  0  0  0  0  0  0  0
   27.2452  -21.1564   -9.0247 C   0  0  2  0  0  0  0  0  0  0  0  0
   28.5416  -21.5693   -9.5255 N   0  0  0  0  0  0  0  0  0  0  0  0
   26.4426  -20.6923  -10.1818 C   0  0  0  0  0  0  0  0  0  0  0  0
   26.7129  -19.6232  -10.7632 O   0  0  0  0  0  0  0  0  0  0  0  0
   23.1423  -20.8819  -18.1400 O   0  0  0  0  0  0  0  0  0  0  0  0
   23.6063  -21.2167  -16.8585 C   0  0  0  0  0  0  0  0  0  0  0  0
   23.0312  -22.2230  -16.1160 C   0  0  0  0  0  0  0  0  0  0  0  0
   23.5149  -22.5243  -14.8585 C   0  0  0  0  0  0  0  0  0  0  0  0
   24.5800  -21.8432  -14.2943 C   0  0  0  0  0  0  0  0  0  0  0  0
   25.0919  -22.1723  -12.9469 C   0  0  0  0  0  0  0  0  0  0  0  0
   24.6573  -21.1249  -11.9160 C   0  0  2  0  0  0  0  0  0  0  0  0
   25.3311  -21.4376  -10.6843 N   0  0  0  0  0  0  0  0  0  0  0  0
   23.1778  -21.2137  -11.7879 C   0  0  0  0  0  0  0  0  0  0  0  0
   22.6765  -22.1308  -11.0882 O   0  0  0  0  0  0  0  0  0  0  0  0
   25.1526  -20.8285  -15.0547 C   0  0  0  0  0  0  0  0  0  0  0  0
   24.6658  -20.5332  -16.3073 C   0  0  0  0  0  0  0  0  0  0  0  0
   20.7103  -17.9964  -12.6897 C   0  0  0  0  0  0  0  0  0  0  0  0
   20.2925  -19.1290  -11.7771 C   0  0  2  0  0  0  0  0  0  0  0  0
   20.7386  -18.8162  -10.3852 C   0  0  0  0  0  0  0  0  0  0  0  0
   20.8936  -20.4050  -12.3266 C   0  0  2  0  0  0  0  0  0  0  0  0
   22.3317  -20.2863  -12.4384 N   0  0  0  0  0  0  0  0  0  0  0  0
   20.2736  -20.8077  -13.6107 C   0  0  0  0  0  0  0  0  0  0  0  0
   20.8857  -20.7726  -14.7045 O   0  0  0  0  0  0  0  0  0  0  0  0
   18.9583  -21.2423  -13.6013 O   0  0  0  0  0  0  0  0  0  0  0  0
  1  2  1  0
  2  3  1  0
  4  3  1  0
  4  5  1  0
  5  6  1  6
  7  8  2  0
  7  5  1  0
  9 10  1  0
 10 11  2  0
 11 12  1  0
 13 14  1  0
 13 12  2  0
 15 14  1  6
 15 16  1  0
 16  7  1  0
 17 15  1  0
 18 17  2  0
 19 13  1  0
 20 19  2  0
 20 10  1  0
 22 24  1  0
 22 21  1  6
 23 22  1  0
 24 25  1  6
 25 17  1  0
 26 28  1  0
 26 24  1  0
 27 26  2  0
M  END
$$$$
