MYV.pdb
     RDKit          3D

 28 28  0  0  1  0  0  0  0  0999 V2000
   28.9652  -19.1191  -19.4770 C   0  0  0  0  0  0  0  0  0  0  0  0
   30.0150  -20.5595  -19.2945 S   0  0  0  0  0  0  0  0  0  0  0  0
   29.1286  -22.1164  -19.4817 C   0  0  0  0  0  0  0  0  0  0  0  0
   27.9702  -22.2423  -18.5130 C   0  0  0  0  0  0  0  0  0  0  0  0
   28.5422  -22.6997  -17.1900 C   0  0  2  0  0  0  0  0  0  0  0  0
   28.9138  -24.0914  -17.3544 N   0  0  0  0  0  0  0  0  0  0  0  0
   27.5478  -22.6259  -16.0927 C   0  0  0  0  0  0  0  0  0  0  0  0
   26.7465  -23.5587  -15.8885 O   0  0  0  0  0  0  0  0  0  0  0  0
   23.6833  -20.2739   -8.5179 O   0  0  0  0  0  0  0  0  0  0  0  0
   24.4970  -20.3030   -9.6610 C   0  0  0  0  0  0  0  0  0  0  0  0
   24.1842  -19.5891  -10.7956 C   0  0  0  0  0  0  0  0  0  0  0  0
   25.0091  -19.6423  -11.9014 C   0  0  0  0  0  0  0  0  0  0  0  0
   26.1673  -20.4005  -11.9229 C   0  0  0  0  0  0  0  0  0  0  0  0
   27.0452  -20.4517  -13.1115 C   0  0  0  0  0  0  0  0  0  0  0  0
   26.4582  -21.3600  -14.1973 C   0  0  2  0  0  0  0  0  0  0  0  0
   27.4578  -21.4951  -15.2228 N   0  0  0  0  0  0  0  0  0  0  0  0
   25.2188  -20.7088  -14.7001 C   0  0  0  0  0  0  0  0  0  0  0  0
   25.3077  -19.6224  -15.3276 O   0  0  0  0  0  0  0  0  0  0  0  0
   26.4724  -21.1173  -10.7702 C   0  0  0  0  0  0  0  0  0  0  0  0
   25.6461  -21.0600   -9.6715 C   0  0  0  0  0  0  0  0  0  0  0  0
   22.9752  -21.7734  -17.1331 C   0  0  0  0  0  0  0  0  0  0  0  0
   22.0351  -21.5321  -15.9720 C   0  0  2  0  0  0  0  0  0  0  0  0
   20.7683  -20.9340  -16.4936 C   0  0  0  0  0  0  0  0  0  0  0  0
   22.7530  -20.6432  -14.9790 C   0  0  2  0  0  0  0  0  0  0  0  0
   23.9486  -21.2910  -14.4835 N   0  0  0  0  0  0  0  0  0  0  0  0
   21.8659  -20.2074  -13.8751 C   0  0  0  0  0  0  0  0  0  0  0  0
   21.7967  -20.8095  -12.7773 O   0  0  0  0  0  0  0  0  0  0  0  0
   21.0780  -19.0841  -14.0654 O   0  0  0  0  0  0  0  0  0  0  0  0
  1  2  1  0
  2  3  1  0
  4  3  1  0
  4  5  1  0
  5  6  1  6
  7  8  2  0
  7  5  1  0
  9 10  1  0
 10 11  2  0
 11 12  1  0
 13 14  1  0
 13 12  2  0
 15 14  1  1
 15 16  1  0
 16  7  1  0
 17 15  1  0
 18 17  2  0
 19 13  1  0
 20 19  2  0
 20 10  1  0
 22 24  1  0
 22 21  1  6
 23 22  1  0
 24 25  1  1
 25 17  1  0
 26 28  1  0
 26 24  1  0
 27 26  2  0
M  END
$$$$
