MYV.pdb
     RDKit          3D

 28 28  0  0  1  0  0  0  0  0999 V2000
   15.4683  -13.2851  -23.6408 C   0  0  0  0  0  0  0  0  0  0  0  0
   15.9664  -12.5613  -22.0794 S   0  0  0  0  0  0  0  0  0  0  0  0
   17.0988  -13.6008  -21.1404 C   0  0  0  0  0  0  0  0  0  0  0  0
   17.4402  -13.0090  -19.7878 C   0  0  0  0  0  0  0  0  0  0  0  0
   18.4804  -13.9073  -19.1571 C   0  0  2  0  0  0  0  0  0  0  0  0
   17.8107  -15.1473  -18.8168 N   0  0  0  0  0  0  0  0  0  0  0  0
   19.0318  -13.3353  -17.9052 C   0  0  0  0  0  0  0  0  0  0  0  0
   18.3765  -13.3597  -16.8450 O   0  0  0  0  0  0  0  0  0  0  0  0
   21.3923  -18.5134  -15.4313 O   0  0  0  0  0  0  0  0  0  0  0  0
   21.6051  -17.1533  -15.7043 C   0  0  0  0  0  0  0  0  0  0  0  0
   21.8160  -16.6920  -16.9839 C   0  0  0  0  0  0  0  0  0  0  0  0
   22.0218  -15.3465  -17.2141 C   0  0  0  0  0  0  0  0  0  0  0  0
   22.0262  -14.4144  -16.1905 C   0  0  0  0  0  0  0  0  0  0  0  0
   22.2474  -12.9750  -16.4458 C   0  0  0  0  0  0  0  0  0  0  0  0
   20.9197  -12.2342  -16.6382 C   0  0  2  0  0  0  0  0  0  0  0  0
   20.3274  -12.7337  -17.8500 N   0  0  0  0  0  0  0  0  0  0  0  0
   21.2284  -10.7811  -16.7185 C   0  0  0  0  0  0  0  0  0  0  0  0
   21.7204  -10.3161  -17.7786 O   0  0  0  0  0  0  0  0  0  0  0  0
   21.8120  -14.8931  -14.9018 C   0  0  0  0  0  0  0  0  0  0  0  0
   21.6075  -16.2354  -14.6791 C   0  0  0  0  0  0  0  0  0  0  0  0
   18.8566   -7.9974  -15.1573 C   0  0  0  0  0  0  0  0  0  0  0  0
   19.9008   -7.8223  -16.2385 C   0  0  2  0  0  0  0  0  0  0  0  0
   19.3741   -8.3953  -17.5147 C   0  0  0  0  0  0  0  0  0  0  0  0
   21.1714   -8.4919  -15.7603 C   0  0  2  0  0  0  0  0  0  0  0  0
   20.9777   -9.9199  -15.6256 N   0  0  0  0  0  0  0  0  0  0  0  0
   21.6863   -7.8864  -14.5099 C   0  0  0  0  0  0  0  0  0  0  0  0
   21.6923   -8.4910  -13.4112 O   0  0  0  0  0  0  0  0  0  0  0  0
   22.1832   -6.5942  -14.5577 O   0  0  0  0  0  0  0  0  0  0  0  0
  1  2  1  0
  2  3  1  0
  4  3  1  0
  4  5  1  0
  5  6  1  1
  7  8  2  0
  7  5  1  0
  9 10  1  0
 10 11  2  0
 11 12  1  0
 13 14  1  0
 13 12  2  0
 15 14  1  6
 15 16  1  0
 16  7  1  0
 17 15  1  0
 18 17  2  0
 19 13  1  0
 20 19  2  0
 20 10  1  0
 22 24  1  0
 22 21  1  1
 23 22  1  0
 24 25  1  1
 25 17  1  0
 26 28  1  0
 26 24  1  0
 27 26  2  0
M  END
$$$$
