MYV.pdb
     RDKit          3D

 28 28  0  0  1  0  0  0  0  0999 V2000
   19.6824  -16.4695  -15.4636 C   0  0  0  0  0  0  0  0  0  0  0  0
   20.9134  -15.9582  -16.6608 S   0  0  0  0  0  0  0  0  0  0  0  0
   22.0807  -17.2628  -17.0850 C   0  0  0  0  0  0  0  0  0  0  0  0
   22.1425  -18.3488  -16.0301 C   0  0  0  0  0  0  0  0  0  0  0  0
   23.2154  -19.3253  -16.4568 C   0  0  2  0  0  0  0  0  0  0  0  0
   22.6614  -20.1047  -17.5467 N   0  0  0  0  0  0  0  0  0  0  0  0
   23.5822  -20.2665  -15.3714 C   0  0  0  0  0  0  0  0  0  0  0  0
   22.7491  -21.0714  -14.9108 O   0  0  0  0  0  0  0  0  0  0  0  0
   24.1693  -26.3841  -17.2059 O   0  0  0  0  0  0  0  0  0  0  0  0
   24.7132  -25.3133  -16.4799 C   0  0  0  0  0  0  0  0  0  0  0  0
   25.2451  -24.2071  -17.1028 C   0  0  0  0  0  0  0  0  0  0  0  0
   25.7716  -23.1727  -16.3552 C   0  0  0  0  0  0  0  0  0  0  0  0
   25.7900  -23.1968  -14.9711 C   0  0  0  0  0  0  0  0  0  0  0  0
   26.3556  -22.0845  -14.1781 C   0  0  0  0  0  0  0  0  0  0  0  0
   25.2565  -21.1343  -13.6905 C   0  0  2  0  0  0  0  0  0  0  0  0
   24.8938  -20.2991  -14.8040 N   0  0  0  0  0  0  0  0  0  0  0  0
   25.8164  -20.3508  -12.5566 C   0  0  0  0  0  0  0  0  0  0  0  0
   26.6765  -19.4632  -12.7897 O   0  0  0  0  0  0  0  0  0  0  0  0
   25.2494  -24.3202  -14.3535 C   0  0  0  0  0  0  0  0  0  0  0  0
   24.7263  -25.3477  -15.1043 C   0  0  0  0  0  0  0  0  0  0  0  0
   25.8532  -19.1214   -7.8241 C   0  0  0  0  0  0  0  0  0  0  0  0
   25.2100  -20.0070   -8.8691 C   0  0  2  0  0  0  0  0  0  0  0  0
   25.0994  -21.3942   -8.3235 C   0  0  0  0  0  0  0  0  0  0  0  0
   26.0535  -19.9218  -10.1232 C   0  0  2  0  0  0  0  0  0  0  0  0
   25.3972  -20.5886  -11.2274 N   0  0  0  0  0  0  0  0  0  0  0  0
   27.4271  -20.4345   -9.9092 C   0  0  0  0  0  0  0  0  0  0  0  0
   27.8279  -21.5273  -10.3758 O   0  0  0  0  0  0  0  0  0  0  0  0
   28.3076  -19.6714   -9.1599 O   0  0  0  0  0  0  0  0  0  0  0  0
  1  2  1  0
  2  3  1  0
  4  3  1  0
  4  5  1  0
  5  6  1  6
  7  8  2  0
  7  5  1  0
  9 10  1  0
 10 11  2  0
 11 12  1  0
 13 14  1  0
 13 12  2  0
 15 14  1  6
 15 16  1  0
 16  7  1  0
 17 15  1  0
 18 17  2  0
 19 13  1  0
 20 19  2  0
 20 10  1  0
 22 24  1  0
 22 21  1  1
 23 22  1  0
 24 25  1  6
 25 17  1  0
 26 28  1  0
 26 24  1  0
 27 26  2  0
M  END
$$$$
