MYV.pdb
     RDKit          3D

 28 28  0  0  1  0  0  0  0  0999 V2000
   26.9921  -16.9880  -21.4353 C   0  0  0  0  0  0  0  0  0  0  0  0
   28.0662  -18.4206  -21.5018 S   0  0  0  0  0  0  0  0  0  0  0  0
   28.0256  -19.4127  -19.9988 C   0  0  0  0  0  0  0  0  0  0  0  0
   27.6656  -18.5943  -18.7754 C   0  0  0  0  0  0  0  0  0  0  0  0
   27.7842  -19.5080  -17.5763 C   0  0  2  0  0  0  0  0  0  0  0  0
   27.6685  -20.8654  -18.0724 N   0  0  0  0  0  0  0  0  0  0  0  0
   26.6931  -19.2926  -16.5958 C   0  0  0  0  0  0  0  0  0  0  0  0
   26.5902  -18.2159  -15.9759 O   0  0  0  0  0  0  0  0  0  0  0  0
   18.8100  -19.9432  -12.7053 O   0  0  0  0  0  0  0  0  0  0  0  0
   19.9314  -20.1164  -13.5312 C   0  0  0  0  0  0  0  0  0  0  0  0
   20.6492  -21.2908  -13.5473 C   0  0  0  0  0  0  0  0  0  0  0  0
   21.7473  -21.4246  -14.3733 C   0  0  0  0  0  0  0  0  0  0  0  0
   22.1715  -20.4053  -15.2086 C   0  0  0  0  0  0  0  0  0  0  0  0
   23.3486  -20.5570  -16.0903 C   0  0  0  0  0  0  0  0  0  0  0  0
   24.6335  -20.1115  -15.3836 C   0  0  2  0  0  0  0  0  0  0  0  0
   25.7147  -20.2960  -16.3141 N   0  0  0  0  0  0  0  0  0  0  0  0
   24.7868  -20.9531  -14.1666 C   0  0  0  0  0  0  0  0  0  0  0  0
   24.9375  -22.1953  -14.2946 O   0  0  0  0  0  0  0  0  0  0  0  0
   21.4377  -19.2236  -15.1832 C   0  0  0  0  0  0  0  0  0  0  0  0
   20.3443  -19.0966  -14.3577 C   0  0  0  0  0  0  0  0  0  0  0  0
   26.0651  -19.5949  -10.3340 C   0  0  0  0  0  0  0  0  0  0  0  0
   26.1531  -20.9693  -10.9610 C   0  0  2  0  0  0  0  0  0  0  0  0
   27.3568  -21.0194  -11.8458 C   0  0  0  0  0  0  0  0  0  0  0  0
   24.8556  -21.2195  -11.6995 C   0  0  2  0  0  0  0  0  0  0  0  0
   24.7656  -20.3793  -12.8745 N   0  0  0  0  0  0  0  0  0  0  0  0
   23.6729  -21.0644  -10.8207 C   0  0  0  0  0  0  0  0  0  0  0  0
   22.8066  -20.1743  -10.9933 O   0  0  0  0  0  0  0  0  0  0  0  0
   23.5180  -21.9428   -9.7608 O   0  0  0  0  0  0  0  0  0  0  0  0
  1  2  1  0
  2  3  1  0
  4  3  1  0
  4  5  1  0
  5  6  1  6
  7  8  2  0
  7  5  1  0
  9 10  1  0
 10 11  2  0
 11 12  1  0
 13 14  1  0
 13 12  2  0
 15 14  1  6
 15 16  1  0
 16  7  1  0
 17 15  1  0
 18 17  2  0
 19 13  1  0
 20 19  2  0
 20 10  1  0
 22 24  1  0
 22 21  1  6
 23 22  1  0
 24 25  1  6
 25 17  1  0
 26 28  1  0
 26 24  1  0
 27 26  2  0
M  END
$$$$
