MYV.pdb
     RDKit          3D

 28 28  0  0  1  0  0  0  0  0999 V2000
   20.0446  -18.4652  -15.2415 C   0  0  0  0  0  0  0  0  0  0  0  0
   20.4947  -17.3457  -16.5661 S   0  0  0  0  0  0  0  0  0  0  0  0
   22.1924  -17.5549  -17.1308 C   0  0  0  0  0  0  0  0  0  0  0  0
   22.8723  -18.7475  -16.4892 C   0  0  0  0  0  0  0  0  0  0  0  0
   24.3148  -18.7363  -16.9427 C   0  0  2  0  0  0  0  0  0  0  0  0
   24.3300  -19.2455  -18.3001 N   0  0  0  0  0  0  0  0  0  0  0  0
   25.1694  -19.6251  -16.1191 C   0  0  0  0  0  0  0  0  0  0  0  0
   25.0843  -20.8652  -16.2131 O   0  0  0  0  0  0  0  0  0  0  0  0
   30.2726  -22.1574  -19.1963 O   0  0  0  0  0  0  0  0  0  0  0  0
   29.7945  -21.5195  -18.0412 C   0  0  0  0  0  0  0  0  0  0  0  0
   29.4946  -20.1762  -18.0227 C   0  0  0  0  0  0  0  0  0  0  0  0
   29.0263  -19.5831  -16.8673 C   0  0  0  0  0  0  0  0  0  0  0  0
   28.8391  -20.2954  -15.6950 C   0  0  0  0  0  0  0  0  0  0  0  0
   28.3370  -19.6523  -14.4621 C   0  0  0  0  0  0  0  0  0  0  0  0
   26.8454  -19.9366  -14.2547 C   0  0  2  0  0  0  0  0  0  0  0  0
   26.1234  -19.1121  -15.1862 N   0  0  0  0  0  0  0  0  0  0  0  0
   26.5218  -19.6065  -12.8407 C   0  0  0  0  0  0  0  0  0  0  0  0
   26.6385  -18.4180  -12.4460 O   0  0  0  0  0  0  0  0  0  0  0  0
   29.1458  -21.6521  -15.7267 C   0  0  0  0  0  0  0  0  0  0  0  0
   29.6122  -22.2372  -16.8814 C   0  0  0  0  0  0  0  0  0  0  0  0
   23.3983  -20.7314  -11.1013 C   0  0  0  0  0  0  0  0  0  0  0  0
   24.5161  -21.0317  -10.1265 C   0  0  2  0  0  0  0  0  0  0  0  0
   24.0638  -20.6709   -8.7482 C   0  0  0  0  0  0  0  0  0  0  0  0
   25.7370  -20.2589  -10.5779 C   0  0  2  0  0  0  0  0  0  0  0  0
   26.0871  -20.6049  -11.9389 N   0  0  0  0  0  0  0  0  0  0  0  0
   26.8824  -20.4332   -9.6542 C   0  0  0  0  0  0  0  0  0  0  0  0
   27.8322  -21.2186   -9.8857 O   0  0  0  0  0  0  0  0  0  0  0  0
   26.9039  -19.6948   -8.4823 O   0  0  0  0  0  0  0  0  0  0  0  0
  1  2  1  0
  2  3  1  0
  4  3  1  0
  4  5  1  0
  5  6  1  6
  7  8  2  0
  7  5  1  0
  9 10  1  0
 10 11  2  0
 11 12  1  0
 13 14  1  0
 13 12  2  0
 15 14  1  1
 15 16  1  0
 16  7  1  0
 17 15  1  0
 18 17  2  0
 19 13  1  0
 20 19  2  0
 20 10  1  0
 22 24  1  0
 22 21  1  6
 23 22  1  0
 24 25  1  6
 25 17  1  0
 26 28  1  0
 26 24  1  0
 27 26  2  0
M  END
$$$$
