GSV.pdb
     RDKit          3D

 18 17  0  0  1  0  0  0  0  0999 V2000
    8.7444  -12.6782   18.0548 N   0  0  0  0  0  0  0  0  0  0  0  0
    8.8648  -13.8418   18.8503 C   0  0  0  0  0  0  0  0  0  0  0  0
    8.0656  -13.8476   20.0842 C   0  0  0  0  0  0  0  0  0  0  0  0
    7.6133  -12.7562   20.5013 O   0  0  0  0  0  0  0  0  0  0  0  0
    7.0244  -17.3522   22.3799 O   0  0  0  0  0  0  0  0  0  0  0  0
    6.1524  -16.2797   22.1983 C   0  0  0  0  0  0  0  0  0  0  0  0
    6.8726  -14.9876   21.9517 C   0  0  2  0  0  0  0  0  0  0  0  0
    7.7634  -15.0021   20.8470 N   0  0  0  0  0  0  0  0  0  0  0  0
    7.6354  -14.6553   23.1831 C   0  0  0  0  0  0  0  0  0  0  0  0
    8.8604  -14.8704   23.2622 O   0  0  0  0  0  0  0  0  0  0  0  0
    5.6599  -13.0514   26.8375 C   0  0  0  0  0  0  0  0  0  0  0  0
    7.0012  -12.6385   26.3122 C   0  0  1  0  0  0  0  0  0  0  0  0
    7.8771  -12.2442   27.4665 C   0  0  0  0  0  0  0  0  0  0  0  0
    7.6857  -13.7423   25.5394 C   0  0  2  0  0  0  0  0  0  0  0  0
    6.9774  -14.0727   24.3247 N   0  0  0  0  0  0  0  0  0  0  0  0
    7.8797  -14.9579   26.3398 C   0  0  0  0  0  0  0  0  0  0  0  0
    7.1174  -15.9408   26.2174 O   0  0  0  0  0  0  0  0  0  0  0  0
    8.9182  -15.0678   27.2669 O   0  0  0  0  0  0  0  0  0  0  0  0
  2  3  1  0
  2  1  1  0
  3  4  2  0
  6  5  1  0
  7  6  1  1
  7  9  1  0
  8  7  1  0
  8  3  1  0
  9 15  1  0
 10  9  2  0
 12 11  1  1
 12 14  1  0
 13 12  1  0
 14 16  1  0
 14 15  1  6
 16 17  2  0
 16 18  1  0
M  END
$$$$
