GSV.pdb
     RDKit          3D

 18 17  0  0  1  0  0  0  0  0999 V2000
   10.3367  -17.1040   19.5015 N   0  0  0  0  0  0  0  0  0  0  0  0
    9.7870  -17.8015   20.6027 C   0  0  0  0  0  0  0  0  0  0  0  0
    8.8320  -17.0384   21.4194 C   0  0  0  0  0  0  0  0  0  0  0  0
    8.5445  -15.8732   21.0597 O   0  0  0  0  0  0  0  0  0  0  0  0
    6.8443  -18.5114   24.9395 O   0  0  0  0  0  0  0  0  0  0  0  0
    6.2328  -17.6168   24.0623 C   0  0  0  0  0  0  0  0  0  0  0  0
    7.2241  -16.7834   23.3063 C   0  0  2  0  0  0  0  0  0  0  0  0
    8.2045  -17.5218   22.5935 N   0  0  0  0  0  0  0  0  0  0  0  0
    7.9047  -15.8955   24.2846 C   0  0  0  0  0  0  0  0  0  0  0  0
    9.0728  -16.1194   24.6567 O   0  0  0  0  0  0  0  0  0  0  0  0
    5.8048  -12.9906   26.8604 C   0  0  0  0  0  0  0  0  0  0  0  0
    7.0133  -12.6306   26.0508 C   0  0  1  0  0  0  0  0  0  0  0  0
    7.8318  -11.6298   26.8145 C   0  0  0  0  0  0  0  0  0  0  0  0
    7.8802  -13.8289   25.7394 C   0  0  2  0  0  0  0  0  0  0  0  0
    7.2304  -14.7464   24.8324 N   0  0  0  0  0  0  0  0  0  0  0  0
    8.3041  -14.5502   26.9460 C   0  0  0  0  0  0  0  0  0  0  0  0
    7.6659  -15.5398   27.3652 O   0  0  0  0  0  0  0  0  0  0  0  0
    9.4320  -14.1641   27.6732 O   0  0  0  0  0  0  0  0  0  0  0  0
  2  3  1  0
  2  1  1  0
  3  4  2  0
  6  5  1  0
  7  6  1  1
  7  9  1  0
  8  7  1  0
  8  3  1  0
  9 15  1  0
 10  9  2  0
 12 11  1  1
 12 14  1  0
 13 12  1  0
 14 16  1  0
 14 15  1  6
 16 17  2  0
 16 18  1  0
M  END
$$$$
