GSV.pdb
     RDKit          3D

 18 17  0  0  1  0  0  0  0  0999 V2000
    9.6209  -16.8925   18.2760 N   0  0  0  0  0  0  0  0  0  0  0  0
    9.8850  -16.9218   19.6655 C   0  0  0  0  0  0  0  0  0  0  0  0
    8.8470  -16.3232   20.5174 C   0  0  0  0  0  0  0  0  0  0  0  0
    8.0182  -15.5493   19.9847 O   0  0  0  0  0  0  0  0  0  0  0  0
    7.4514  -18.0226   24.0506 O   0  0  0  0  0  0  0  0  0  0  0  0
    6.7391  -17.1099   23.2740 C   0  0  0  0  0  0  0  0  0  0  0  0
    7.6199  -16.0571   22.6700 C   0  0  2  0  0  0  0  0  0  0  0  0
    8.7087  -16.5549   21.9077 N   0  0  0  0  0  0  0  0  0  0  0  0
    8.1489  -15.2218   23.7796 C   0  0  0  0  0  0  0  0  0  0  0  0
    9.3125  -15.3688   24.2009 O   0  0  0  0  0  0  0  0  0  0  0  0
    5.5348  -12.7526   26.3747 C   0  0  0  0  0  0  0  0  0  0  0  0
    6.8495  -12.2819   25.8312 C   0  0  1  0  0  0  0  0  0  0  0  0
    7.5022  -11.3839   26.8424 C   0  0  0  0  0  0  0  0  0  0  0  0
    7.7895  -13.4234   25.5186 C   0  0  2  0  0  0  0  0  0  0  0  0
    7.3280  -14.2147   24.4018 N   0  0  0  0  0  0  0  0  0  0  0  0
    8.0235  -14.2973   26.6751 C   0  0  0  0  0  0  0  0  0  0  0  0
    7.3182  -15.3100   26.8731 O   0  0  0  0  0  0  0  0  0  0  0  0
    9.0382  -14.0363   27.5983 O   0  0  0  0  0  0  0  0  0  0  0  0
  2  3  1  0
  2  1  1  0
  3  4  2  0
  6  5  1  0
  7  6  1  1
  7  9  1  0
  8  7  1  0
  8  3  1  0
  9 15  1  0
 10  9  2  0
 12 11  1  1
 12 14  1  0
 13 12  1  0
 14 16  1  0
 14 15  1  6
 16 17  2  0
 16 18  1  0
M  END
$$$$
