GSV.pdb
     RDKit          3D

 18 17  0  0  1  0  0  0  0  0999 V2000
   11.0540  -16.3728   18.6378 N   0  0  0  0  0  0  0  0  0  0  0  0
   10.8582  -16.5922   20.0216 C   0  0  0  0  0  0  0  0  0  0  0  0
    9.8095  -15.7740   20.6477 C   0  0  0  0  0  0  0  0  0  0  0  0
    9.7855  -14.5473   20.3936 O   0  0  0  0  0  0  0  0  0  0  0  0
    6.4661  -17.3264   22.7992 O   0  0  0  0  0  0  0  0  0  0  0  0
    6.4377  -16.0972   22.1421 C   0  0  0  0  0  0  0  0  0  0  0  0
    7.7892  -15.4512   22.0707 C   0  0  2  0  0  0  0  0  0  0  0  0
    8.8133  -16.2683   21.5247 N   0  0  0  0  0  0  0  0  0  0  0  0
    8.1721  -15.0545   23.4508 C   0  0  0  0  0  0  0  0  0  0  0  0
    9.0964  -15.6311   24.0560 O   0  0  0  0  0  0  0  0  0  0  0  0
    5.5647  -12.7435   26.1590 C   0  0  0  0  0  0  0  0  0  0  0  0
    7.0042  -12.3951   25.9312 C   0  0  1  0  0  0  0  0  0  0  0  0
    7.5883  -11.8723   27.2120 C   0  0  0  0  0  0  0  0  0  0  0  0
    7.8222  -13.5810   25.4742 C   0  0  2  0  0  0  0  0  0  0  0  0
    7.4825  -13.9878   24.1305 N   0  0  0  0  0  0  0  0  0  0  0  0
    7.7058  -14.7317   26.3789 C   0  0  0  0  0  0  0  0  0  0  0  0
    6.8341  -15.6093   26.1995 O   0  0  0  0  0  0  0  0  0  0  0  0
    8.5589  -14.8944   27.4724 O   0  0  0  0  0  0  0  0  0  0  0  0
  2  3  1  0
  2  1  1  0
  3  4  2  0
  6  5  1  0
  7  6  1  1
  7  9  1  0
  8  7  1  0
  8  3  1  0
  9 15  1  0
 10  9  2  0
 12 11  1  1
 12 14  1  0
 13 12  1  0
 14 16  1  0
 14 15  1  6
 16 17  2  0
 16 18  1  0
M  END
$$$$
