GSV.pdb
     RDKit          3D

 18 17  0  0  1  0  0  0  0  0999 V2000
    9.0189  -17.8921   16.7559 N   0  0  0  0  0  0  0  0  0  0  0  0
    7.8835  -17.7894   17.5935 C   0  0  0  0  0  0  0  0  0  0  0  0
    8.0689  -16.9876   18.8117 C   0  0  0  0  0  0  0  0  0  0  0  0
    9.2374  -16.7928   19.2196 O   0  0  0  0  0  0  0  0  0  0  0  0
    4.9354  -15.7226   21.4138 O   0  0  0  0  0  0  0  0  0  0  0  0
    6.0417  -14.8925   21.2389 C   0  0  0  0  0  0  0  0  0  0  0  0
    7.2437  -15.6338   20.7344 C   0  0  2  0  0  0  0  0  0  0  0  0
    7.0195  -16.4118   19.5687 N   0  0  0  0  0  0  0  0  0  0  0  0
    7.7143  -16.5248   21.8268 C   0  0  0  0  0  0  0  0  0  0  0  0
    7.3400  -17.7113   21.8993 O   0  0  0  0  0  0  0  0  0  0  0  0
   11.3923  -15.9934   23.4155 C   0  0  0  0  0  0  0  0  0  0  0  0
   10.4081  -16.3738   24.4796 C   0  0  1  0  0  0  0  0  0  0  0  0
   10.1258  -15.1724   25.3351 C   0  0  0  0  0  0  0  0  0  0  0  0
    9.1034  -16.8793   23.9083 C   0  0  2  0  0  0  0  0  0  0  0  0
    8.6201  -16.0400   22.8366 N   0  0  0  0  0  0  0  0  0  0  0  0
    8.0567  -17.0236   24.9280 C   0  0  0  0  0  0  0  0  0  0  0  0
    7.0677  -16.2598   24.9516 O   0  0  0  0  0  0  0  0  0  0  0  0
    8.1207  -18.0147   25.9097 O   0  0  0  0  0  0  0  0  0  0  0  0
  2  3  1  0
  2  1  1  0
  3  4  2  0
  6  5  1  0
  7  6  1  1
  7  9  1  0
  8  7  1  0
  8  3  1  0
  9 15  1  0
 10  9  2  0
 12 11  1  6
 12 14  1  0
 13 12  1  0
 14 16  1  0
 14 15  1  6
 16 17  2  0
 16 18  1  0
M  END
$$$$
