GSV.pdb
     RDKit          3D

 18 17  0  0  1  0  0  0  0  0999 V2000
    8.3363  -12.4191   18.4603 N   0  0  0  0  0  0  0  0  0  0  0  0
    8.7712  -13.4919   19.2734 C   0  0  0  0  0  0  0  0  0  0  0  0
    8.0331  -13.6684   20.5325 C   0  0  0  0  0  0  0  0  0  0  0  0
    7.4443  -12.6744   21.0175 O   0  0  0  0  0  0  0  0  0  0  0  0
    7.7036  -17.3372   22.8391 O   0  0  0  0  0  0  0  0  0  0  0  0
    6.6552  -16.4339   22.6710 C   0  0  0  0  0  0  0  0  0  0  0  0
    7.1348  -15.0369   22.4115 C   0  0  2  0  0  0  0  0  0  0  0  0
    7.9339  -14.8865   21.2482 N   0  0  0  0  0  0  0  0  0  0  0  0
    7.9200  -14.6032   23.5964 C   0  0  0  0  0  0  0  0  0  0  0  0
    9.1649  -14.6614   23.6032 O   0  0  0  0  0  0  0  0  0  0  0  0
    7.1360  -11.3103   25.8222 C   0  0  0  0  0  0  0  0  0  0  0  0
    7.2812  -12.5407   26.6652 C   0  0  1  0  0  0  0  0  0  0  0  0
    5.9163  -13.0197   27.0683 C   0  0  0  0  0  0  0  0  0  0  0  0
    7.9928  -13.6595   25.9399 C   0  0  2  0  0  0  0  0  0  0  0  0
    7.2614  -14.1013   24.7753 N   0  0  0  0  0  0  0  0  0  0  0  0
    8.2726  -14.8098   26.8086 C   0  0  0  0  0  0  0  0  0  0  0  0
    7.6692  -15.8942   26.6594 O   0  0  0  0  0  0  0  0  0  0  0  0
    9.2193  -14.7423   27.8329 O   0  0  0  0  0  0  0  0  0  0  0  0
  2  3  1  0
  2  1  1  0
  3  4  2  0
  6  5  1  0
  7  6  1  1
  7  9  1  0
  8  7  1  0
  8  3  1  0
  9 15  1  0
 10  9  2  0
 12 11  1  6
 12 14  1  0
 13 12  1  0
 14 16  1  0
 14 15  1  6
 16 17  2  0
 16 18  1  0
M  END
$$$$
