GSV.pdb
     RDKit          3D

 18 17  0  0  1  0  0  0  0  0999 V2000
    4.3014  -18.5525   22.6685 N   0  0  0  0  0  0  0  0  0  0  0  0
    4.5837  -17.2422   22.2162 C   0  0  0  0  0  0  0  0  0  0  0  0
    6.0030  -16.8596   22.2378 C   0  0  0  0  0  0  0  0  0  0  0  0
    6.8305  -17.6820   22.6946 O   0  0  0  0  0  0  0  0  0  0  0  0
    8.2519  -15.1049   19.4095 O   0  0  0  0  0  0  0  0  0  0  0  0
    8.3548  -14.4529   20.6375 C   0  0  0  0  0  0  0  0  0  0  0  0
    7.8982  -15.3067   21.7827 C   0  0  2  0  0  0  0  0  0  0  0  0
    6.5142  -15.6214   21.7780 N   0  0  0  0  0  0  0  0  0  0  0  0
    8.2253  -14.5854   23.0402 C   0  0  0  0  0  0  0  0  0  0  0  0
    8.3066  -13.3422   23.0696 O   0  0  0  0  0  0  0  0  0  0  0  0
    7.1660  -12.7443   25.0903 C   0  0  0  0  0  0  0  0  0  0  0  0
    7.5645  -13.8485   26.0216 C   0  0  1  0  0  0  0  0  0  0  0  0
    6.4025  -14.7836   26.1951 C   0  0  0  0  0  0  0  0  0  0  0  0
    8.7491  -14.6369   25.5122 C   0  0  2  0  0  0  0  0  0  0  0  0
    8.4587  -15.3062   24.2655 N   0  0  0  0  0  0  0  0  0  0  0  0
    9.2414  -15.6150   26.4905 C   0  0  0  0  0  0  0  0  0  0  0  0
    9.2347  -16.8395   26.2398 O   0  0  0  0  0  0  0  0  0  0  0  0
    9.7355  -15.2218   27.7360 O   0  0  0  0  0  0  0  0  0  0  0  0
  2  3  1  0
  2  1  1  0
  3  4  2  0
  6  5  1  0
  7  6  1  6
  7  9  1  0
  8  7  1  0
  8  3  1  0
  9 15  1  0
 10  9  2  0
 12 11  1  6
 12 14  1  0
 13 12  1  0
 14 16  1  0
 14 15  1  6
 16 17  2  0
 16 18  1  0
M  END
$$$$
