GSV.pdb
     RDKit          3D

 18 17  0  0  1  0  0  0  0  0999 V2000
    3.6731  -19.3942   21.0025 N   0  0  0  0  0  0  0  0  0  0  0  0
    4.4659  -18.2360   21.1790 C   0  0  0  0  0  0  0  0  0  0  0  0
    4.8329  -17.9287   22.5690 C   0  0  0  0  0  0  0  0  0  0  0  0
    3.9201  -17.8859   23.4262 O   0  0  0  0  0  0  0  0  0  0  0  0
    8.4328  -18.7735   24.3910 O   0  0  0  0  0  0  0  0  0  0  0  0
    7.2625  -18.4476   25.0749 C   0  0  0  0  0  0  0  0  0  0  0  0
    6.4627  -17.3893   24.3754 C   0  0  2  0  0  0  0  0  0  0  0  0
    6.1510  -17.6745   23.0205 N   0  0  0  0  0  0  0  0  0  0  0  0
    7.2397  -16.1239   24.4364 C   0  0  0  0  0  0  0  0  0  0  0  0
    7.9493  -15.7547   23.4808 O   0  0  0  0  0  0  0  0  0  0  0  0
    6.1477  -12.5330   25.4282 C   0  0  0  0  0  0  0  0  0  0  0  0
    7.2923  -12.9382   26.3066 C   0  0  1  0  0  0  0  0  0  0  0  0
    6.7633  -13.2841   27.6687 C   0  0  0  0  0  0  0  0  0  0  0  0
    8.0466  -14.1295   25.7627 C   0  0  2  0  0  0  0  0  0  0  0  0
    7.1942  -15.2852   25.6068 N   0  0  0  0  0  0  0  0  0  0  0  0
    9.2104  -14.4861   26.5840 C   0  0  0  0  0  0  0  0  0  0  0  0
    9.2430  -15.5564   27.2286 O   0  0  0  0  0  0  0  0  0  0  0  0
   10.3245  -13.6497   26.6799 O   0  0  0  0  0  0  0  0  0  0  0  0
  2  3  1  0
  2  1  1  0
  3  4  2  0
  6  5  1  0
  7  6  1  6
  7  9  1  0
  8  7  1  0
  8  3  1  0
  9 15  1  0
 10  9  2  0
 12 11  1  6
 12 14  1  0
 13 12  1  0
 14 16  1  0
 14 15  1  1
 16 17  2  0
 16 18  1  0
M  END
$$$$
