DHM.pdb
     RDKit          3D

 27 27  0  0  1  0  0  0  0  0999 V2000
   12.2869  -19.6948   19.9590 N   0  0  0  0  0  0  0  0  0  0  0  0
   12.7377  -18.3576   20.3618 C   0  0  1  0  0  0  0  0  0  0  0  0
   12.7548  -17.5381   19.0635 C   0  0  0  0  0  0  0  0  0  0  0  0
   14.0477  -17.7647   18.3811 C   0  0  0  0  0  0  0  0  0  0  0  0
   14.8964  -18.5666   18.8036 O   0  0  0  0  0  0  0  0  0  0  0  0
   11.7312  -17.7072   21.2265 C   0  0  0  0  0  0  0  0  0  0  0  0
   11.7149  -16.4689   21.3332 O   0  0  0  0  0  0  0  0  0  0  0  0
   14.3138  -17.0486   17.2205 O   0  0  0  0  0  0  0  0  0  0  0  0
   10.7972  -18.4953   21.9264 N   0  0  0  0  0  0  0  0  0  0  0  0
    9.7494  -17.9108   22.7494 C   0  0  1  0  0  0  0  0  0  0  0  0
    8.6594  -18.9368   22.9129 C   0  0  0  0  0  0  0  0  0  0  0  0
    7.7836  -19.0485   21.7187 C   0  0  0  0  0  0  0  0  0  0  0  0
    7.7555  -18.2884   20.5685 C   0  0  0  0  0  0  0  0  0  0  0  0
    6.7875  -18.7580   19.7889 N   0  0  0  0  0  0  0  0  0  0  0  0
    6.1734  -19.8125   20.4007 C   0  0  0  0  0  0  0  0  0  0  0  0
    6.7918  -19.9806   21.5799 N   0  0  0  0  0  0  0  0  0  0  0  0
   10.2729  -17.4775   24.0597 C   0  0  0  0  0  0  0  0  0  0  0  0
   11.4077  -17.8651   24.4210 O   0  0  0  0  0  0  0  0  0  0  0  0
    7.6915  -12.8083   27.7915 C   0  0  0  0  0  0  0  0  0  0  0  0
    9.3360  -12.9302   28.5346 S   0  0  0  0  0  0  0  0  0  0  0  0
   10.0194  -14.5734   28.0456 C   0  0  0  0  0  0  0  0  0  0  0  0
    9.5495  -14.9237   26.6737 C   0  0  0  0  0  0  0  0  0  0  0  0
   10.1758  -16.1797   26.1793 C   0  0  2  0  0  0  0  0  0  0  0  0
    9.5427  -16.6371   24.9386 N   0  0  0  0  0  0  0  0  0  0  0  0
    9.9274  -17.2919   27.1527 C   0  0  0  0  0  0  0  0  0  0  0  0
    9.0078  -18.0938   27.0127 O   0  0  0  0  0  0  0  0  0  0  0  0
   10.7599  -17.4352   28.2645 O   0  0  0  0  0  0  0  0  0  0  0  0
  2  1  1  6
  2  3  1  0
  3  4  1  0
  4  8  1  0
  5  4  2  0
  6  2  1  0
  7  6  2  0
  9  6  1  0
 10  9  1  0
 11 12  1  0
 10 11  1  1
 12 13  2  0
 14 13  1  0
 15 14  1  0
 16 15  2  0
 16 12  1  0
 17 18  2  0
 17 10  1  0
 20 19  1  0
 21 20  1  0
 23 22  1  1
 22 21  1  0
 23 24  1  0
 24 17  1  0
 25 23  1  0
 26 25  2  0
 27 25  1  0
M  END
$$$$
