DHM.pdb
     RDKit          3D

 27 27  0  0  1  0  0  0  0  0999 V2000
   12.9322  -15.8794   18.2403 N   0  0  0  0  0  0  0  0  0  0  0  0
   13.2335  -15.1124   19.4546 C   0  0  1  0  0  0  0  0  0  0  0  0
   14.0897  -13.9318   18.9745 C   0  0  0  0  0  0  0  0  0  0  0  0
   15.3845  -14.4566   18.4883 C   0  0  0  0  0  0  0  0  0  0  0  0
   15.8722  -14.1279   17.3947 O   0  0  0  0  0  0  0  0  0  0  0  0
   12.0033  -14.5091   20.0082 C   0  0  0  0  0  0  0  0  0  0  0  0
   11.8976  -13.2726   20.0771 O   0  0  0  0  0  0  0  0  0  0  0  0
   16.0767  -15.3514   19.2949 O   0  0  0  0  0  0  0  0  0  0  0  0
   10.9583  -15.3399   20.4566 N   0  0  0  0  0  0  0  0  0  0  0  0
    9.6950  -14.8056   20.9420 C   0  0  1  0  0  0  0  0  0  0  0  0
    8.5861  -15.4272   20.1349 C   0  0  0  0  0  0  0  0  0  0  0  0
    8.3283  -14.7147   18.8576 C   0  0  0  0  0  0  0  0  0  0  0  0
    8.9776  -13.6327   18.3020 C   0  0  0  0  0  0  0  0  0  0  0  0
    8.3785  -13.3391   17.1530 N   0  0  0  0  0  0  0  0  0  0  0  0
    7.3446  -14.2042   16.9379 C   0  0  0  0  0  0  0  0  0  0  0  0
    7.3245  -15.0408   17.9871 N   0  0  0  0  0  0  0  0  0  0  0  0
    9.5168  -15.0705   22.3832 C   0  0  0  0  0  0  0  0  0  0  0  0
   10.2629  -15.9039   22.9464 O   0  0  0  0  0  0  0  0  0  0  0  0
    5.2848  -12.0761   26.5470 C   0  0  0  0  0  0  0  0  0  0  0  0
    6.6861  -12.5259   27.5987 S   0  0  0  0  0  0  0  0  0  0  0  0
    7.5408  -13.9363   26.7700 C   0  0  0  0  0  0  0  0  0  0  0  0
    7.5910  -13.6974   25.2983 C   0  0  0  0  0  0  0  0  0  0  0  0
    8.4914  -14.6632   24.6123 C   0  0  2  0  0  0  0  0  0  0  0  0
    8.5288  -14.4212   23.1668 N   0  0  0  0  0  0  0  0  0  0  0  0
    7.9433  -16.0523   24.7404 C   0  0  0  0  0  0  0  0  0  0  0  0
    7.3086  -16.5933   23.8388 O   0  0  0  0  0  0  0  0  0  0  0  0
    8.1504  -16.7703   25.9198 O   0  0  0  0  0  0  0  0  0  0  0  0
  2  1  1  6
  2  3  1  0
  3  4  1  0
  4  8  1  0
  5  4  2  0
  6  2  1  0
  7  6  2  0
  9  6  1  0
 10  9  1  0
 11 12  1  0
 10 11  1  6
 12 13  2  0
 14 13  1  0
 15 14  1  0
 16 15  2  0
 16 12  1  0
 17 18  2  0
 17 10  1  0
 20 19  1  0
 21 20  1  0
 23 22  1  1
 22 21  1  0
 23 24  1  0
 24 17  1  0
 25 23  1  0
 26 25  2  0
 27 25  1  0
M  END
$$$$
