DHM.pdb
     RDKit          3D

 27 27  0  0  1  0  0  0  0  0999 V2000
    8.0160  -16.8733   18.0787 N   0  0  0  0  0  0  0  0  0  0  0  0
    8.7654  -16.0098   18.9986 C   0  0  1  0  0  0  0  0  0  0  0  0
    7.9581  -14.7053   19.0628 C   0  0  0  0  0  0  0  0  0  0  0  0
    8.0229  -14.0464   17.7399 C   0  0  0  0  0  0  0  0  0  0  0  0
    8.6329  -14.5375   16.7763 O   0  0  0  0  0  0  0  0  0  0  0  0
    8.7365  -16.5603   20.3698 C   0  0  0  0  0  0  0  0  0  0  0  0
    7.6478  -16.7342   20.9437 O   0  0  0  0  0  0  0  0  0  0  0  0
    7.3708  -12.8302   17.5776 O   0  0  0  0  0  0  0  0  0  0  0  0
    9.9440  -16.8829   21.0188 N   0  0  0  0  0  0  0  0  0  0  0  0
    9.9787  -17.4437   22.3609 C   0  0  1  0  0  0  0  0  0  0  0  0
   11.0970  -18.4507   22.4156 C   0  0  0  0  0  0  0  0  0  0  0  0
   10.7814  -19.7083   21.6914 C   0  0  0  0  0  0  0  0  0  0  0  0
    9.5695  -20.3368   21.4976 C   0  0  0  0  0  0  0  0  0  0  0  0
    9.7884  -21.4453   20.7984 N   0  0  0  0  0  0  0  0  0  0  0  0
   11.1210  -21.5638   20.5270 C   0  0  0  0  0  0  0  0  0  0  0  0
   11.7175  -20.4952   21.0781 N   0  0  0  0  0  0  0  0  0  0  0  0
   10.1606  -16.3911   23.3796 C   0  0  0  0  0  0  0  0  0  0  0  0
   10.4268  -15.2246   23.0097 O   0  0  0  0  0  0  0  0  0  0  0  0
    6.7332  -11.3161   26.9970 C   0  0  0  0  0  0  0  0  0  0  0  0
    6.8483  -12.7415   25.8893 S   0  0  0  0  0  0  0  0  0  0  0  0
    8.4085  -13.6268   26.3234 C   0  0  0  0  0  0  0  0  0  0  0  0
    8.6091  -14.7751   25.3923 C   0  0  0  0  0  0  0  0  0  0  0  0
    9.8674  -15.5124   25.6879 C   0  0  2  0  0  0  0  0  0  0  0  0
   10.0498  -16.6419   24.7712 N   0  0  0  0  0  0  0  0  0  0  0  0
    9.7816  -16.1465   27.0432 C   0  0  0  0  0  0  0  0  0  0  0  0
    9.4472  -17.3178   27.2000 O   0  0  0  0  0  0  0  0  0  0  0  0
   10.0874  -15.3934   28.1785 O   0  0  0  0  0  0  0  0  0  0  0  0
  2  1  1  6
  2  3  1  0
  3  4  1  0
  4  8  1  0
  5  4  2  0
  6  2  1  0
  7  6  2  0
  9  6  1  0
 10  9  1  0
 11 12  1  0
 10 11  1  6
 12 13  2  0
 14 13  1  0
 15 14  1  0
 16 15  2  0
 16 12  1  0
 17 18  2  0
 17 10  1  0
 20 19  1  0
 21 20  1  0
 23 22  1  6
 22 21  1  0
 23 24  1  0
 24 17  1  0
 25 23  1  0
 26 25  2  0
 27 25  1  0
M  END
$$$$
