DHM.pdb
     RDKit          3D

 27 27  0  0  1  0  0  0  0  0999 V2000
   10.3395  -18.3889   19.3561 N   0  0  0  0  0  0  0  0  0  0  0  0
   11.4218  -17.5408   19.8688 C   0  0  1  0  0  0  0  0  0  0  0  0
   12.1613  -17.0440   18.6182 C   0  0  0  0  0  0  0  0  0  0  0  0
   12.7386  -18.2122   17.9180 C   0  0  0  0  0  0  0  0  0  0  0  0
   13.4667  -19.0415   18.4871 O   0  0  0  0  0  0  0  0  0  0  0  0
   10.8734  -16.3283   20.5114 C   0  0  0  0  0  0  0  0  0  0  0  0
   11.6333  -15.3945   20.8205 O   0  0  0  0  0  0  0  0  0  0  0  0
   12.4479  -18.3813   16.5698 O   0  0  0  0  0  0  0  0  0  0  0  0
    9.4922  -16.2392   20.7715 N   0  0  0  0  0  0  0  0  0  0  0  0
    8.9056  -15.1091   21.4756 C   0  0  1  0  0  0  0  0  0  0  0  0
    7.6167  -14.7490   20.7853 C   0  0  0  0  0  0  0  0  0  0  0  0
    7.8131  -14.3163   19.3783 C   0  0  0  0  0  0  0  0  0  0  0  0
    8.2545  -13.1097   18.8776 C   0  0  0  0  0  0  0  0  0  0  0  0
    8.2513  -13.1890   17.5513 N   0  0  0  0  0  0  0  0  0  0  0  0
    7.8151  -14.4232   17.1641 C   0  0  0  0  0  0  0  0  0  0  0  0
    7.5507  -15.1034   18.2905 N   0  0  0  0  0  0  0  0  0  0  0  0
    8.6768  -15.4222   22.8998 C   0  0  0  0  0  0  0  0  0  0  0  0
    7.7512  -16.2066   23.2102 O   0  0  0  0  0  0  0  0  0  0  0  0
    5.5348  -11.5489   28.0081 C   0  0  0  0  0  0  0  0  0  0  0  0
    6.2249  -11.8049   26.3558 S   0  0  0  0  0  0  0  0  0  0  0  0
    6.8414  -13.5436   26.3013 C   0  0  0  0  0  0  0  0  0  0  0  0
    7.5614  -13.7803   25.0162 C   0  0  0  0  0  0  0  0  0  0  0  0
    8.8223  -14.5432   25.2220 C   0  0  2  0  0  0  0  0  0  0  0  0
    9.4617  -14.8686   23.9435 N   0  0  0  0  0  0  0  0  0  0  0  0
    8.5181  -15.8774   25.8332 C   0  0  0  0  0  0  0  0  0  0  0  0
    8.3437  -16.8860   25.1545 O   0  0  0  0  0  0  0  0  0  0  0  0
    8.4243  -15.9958   27.2213 O   0  0  0  0  0  0  0  0  0  0  0  0
  2  1  1  6
  2  3  1  0
  3  4  1  0
  4  8  1  0
  5  4  2  0
  6  2  1  0
  7  6  2  0
  9  6  1  0
 10  9  1  0
 11 12  1  0
 10 11  1  6
 12 13  2  0
 14 13  1  0
 15 14  1  0
 16 15  2  0
 16 12  1  0
 17 18  2  0
 17 10  1  0
 20 19  1  0
 21 20  1  0
 23 22  1  6
 22 21  1  0
 23 24  1  0
 24 17  1  0
 25 23  1  0
 26 25  2  0
 27 25  1  0
M  END
$$$$
