DHM.pdb
     RDKit          3D

 27 27  0  0  1  0  0  0  0  0999 V2000
   11.2174  -15.1608   18.1508 N   0  0  0  0  0  0  0  0  0  0  0  0
   11.7388  -15.4385   19.4940 C   0  0  1  0  0  0  0  0  0  0  0  0
   12.5624  -14.1965   19.8633 C   0  0  0  0  0  0  0  0  0  0  0  0
   13.8388  -14.2393   19.1167 C   0  0  0  0  0  0  0  0  0  0  0  0
   14.5964  -15.2228   19.1415 O   0  0  0  0  0  0  0  0  0  0  0  0
   10.6386  -15.4905   20.4793 C   0  0  0  0  0  0  0  0  0  0  0  0
    9.7058  -14.6720   20.4087 O   0  0  0  0  0  0  0  0  0  0  0  0
   14.1955  -13.1309   18.3585 O   0  0  0  0  0  0  0  0  0  0  0  0
   10.6549  -16.4667   21.4942 N   0  0  0  0  0  0  0  0  0  0  0  0
    9.5252  -16.6789   22.3862 C   0  0  1  0  0  0  0  0  0  0  0  0
    9.1381  -18.1321   22.3092 C   0  0  0  0  0  0  0  0  0  0  0  0
    8.1320  -18.5196   23.3305 C   0  0  0  0  0  0  0  0  0  0  0  0
    7.5194  -17.7569   24.3023 C   0  0  0  0  0  0  0  0  0  0  0  0
    6.7017  -18.5466   24.9901 N   0  0  0  0  0  0  0  0  0  0  0  0
    6.7620  -19.8169   24.4940 C   0  0  0  0  0  0  0  0  0  0  0  0
    7.6398  -19.7874   23.4792 N   0  0  0  0  0  0  0  0  0  0  0  0
    9.8525  -16.2883   23.7715 C   0  0  0  0  0  0  0  0  0  0  0  0
   10.9327  -16.6740   24.2744 O   0  0  0  0  0  0  0  0  0  0  0  0
    6.6249  -11.4679   27.3465 C   0  0  0  0  0  0  0  0  0  0  0  0
    6.2945  -12.6471   26.0153 S   0  0  0  0  0  0  0  0  0  0  0  0
    7.1751  -14.2077   26.4575 C   0  0  0  0  0  0  0  0  0  0  0  0
    8.6483  -13.9730   26.4454 C   0  0  0  0  0  0  0  0  0  0  0  0
    9.3922  -15.1578   25.9386 C   0  0  2  0  0  0  0  0  0  0  0  0
    8.9913  -15.4916   24.5686 N   0  0  0  0  0  0  0  0  0  0  0  0
    9.0248  -16.3717   26.7373 C   0  0  0  0  0  0  0  0  0  0  0  0
    8.3465  -17.2834   26.2715 O   0  0  0  0  0  0  0  0  0  0  0  0
    9.4587  -16.4856   28.0595 O   0  0  0  0  0  0  0  0  0  0  0  0
  2  1  1  6
  2  3  1  0
  3  4  1  0
  4  8  1  0
  5  4  2  0
  6  2  1  0
  7  6  2  0
  9  6  1  0
 10  9  1  0
 11 12  1  0
 10 11  1  1
 12 13  2  0
 14 13  1  0
 15 14  1  0
 16 15  2  0
 16 12  1  0
 17 18  2  0
 17 10  1  0
 20 19  1  0
 21 20  1  0
 23 22  1  1
 22 21  1  0
 23 24  1  0
 24 17  1  0
 25 23  1  0
 26 25  2  0
 27 25  1  0
M  END
$$$$
