DHM.pdb
     RDKit          3D

 27 27  0  0  1  0  0  0  0  0999 V2000
   10.2133  -16.8252   18.6839 N   0  0  0  0  0  0  0  0  0  0  0  0
    8.9001  -16.1773   18.5883 C   0  0  1  0  0  0  0  0  0  0  0  0
    8.1149  -17.0223   17.5749 C   0  0  0  0  0  0  0  0  0  0  0  0
    8.7507  -16.8759   16.2473 C   0  0  0  0  0  0  0  0  0  0  0  0
    8.3300  -16.0858   15.3868 O   0  0  0  0  0  0  0  0  0  0  0  0
    8.1632  -16.3032   19.8631 C   0  0  0  0  0  0  0  0  0  0  0  0
    7.0055  -15.8601   19.9547 O   0  0  0  0  0  0  0  0  0  0  0  0
    9.8640  -17.6564   15.9609 O   0  0  0  0  0  0  0  0  0  0  0  0
    8.7786  -16.9231   20.9677 N   0  0  0  0  0  0  0  0  0  0  0  0
    8.1061  -17.0718   22.2493 C   0  0  1  0  0  0  0  0  0  0  0  0
    8.0488  -18.5404   22.5771 C   0  0  0  0  0  0  0  0  0  0  0  0
    9.2731  -19.2746   22.1679 C   0  0  0  0  0  0  0  0  0  0  0  0
   10.4097  -18.8159   21.5363 C   0  0  0  0  0  0  0  0  0  0  0  0
   11.2293  -19.8475   21.3643 N   0  0  0  0  0  0  0  0  0  0  0  0
   10.6572  -20.9799   21.8680 C   0  0  0  0  0  0  0  0  0  0  0  0
    9.4613  -20.6165   22.3570 N   0  0  0  0  0  0  0  0  0  0  0  0
    8.7989  -16.3164   23.3115 C   0  0  0  0  0  0  0  0  0  0  0  0
   10.0029  -16.0093   23.1546 O   0  0  0  0  0  0  0  0  0  0  0  0
    6.1072  -10.5590   25.9107 C   0  0  0  0  0  0  0  0  0  0  0  0
    6.3548  -12.1779   26.6787 S   0  0  0  0  0  0  0  0  0  0  0  0
    7.6554  -13.0399   25.6930 C   0  0  0  0  0  0  0  0  0  0  0  0
    8.0149  -14.3278   26.3548 C   0  0  0  0  0  0  0  0  0  0  0  0
    8.9174  -15.1518   25.5060 C   0  0  2  0  0  0  0  0  0  0  0  0
    8.1596  -15.9208   24.5142 N   0  0  0  0  0  0  0  0  0  0  0  0
    9.5948  -16.1944   26.3430 C   0  0  0  0  0  0  0  0  0  0  0  0
    9.2553  -17.3745   26.3233 O   0  0  0  0  0  0  0  0  0  0  0  0
   10.6495  -15.8286   27.1816 O   0  0  0  0  0  0  0  0  0  0  0  0
  2  1  1  1
  2  3  1  0
  3  4  1  0
  4  8  1  0
  5  4  2  0
  6  2  1  0
  7  6  2  0
  9  6  1  0
 10  9  1  0
 11 12  1  0
 10 11  1  1
 12 13  2  0
 14 13  1  0
 15 14  1  0
 16 15  2  0
 16 12  1  0
 17 18  2  0
 17 10  1  0
 20 19  1  0
 21 20  1  0
 23 22  1  1
 22 21  1  0
 23 24  1  0
 24 17  1  0
 25 23  1  0
 26 25  2  0
 27 25  1  0
M  END
$$$$
