DHM.pdb
     RDKit          3D

 27 27  0  0  1  0  0  0  0  0999 V2000
    8.6255  -19.3262   19.3338 N   0  0  0  0  0  0  0  0  0  0  0  0
    8.2295  -17.9237   19.5061 C   0  0  1  0  0  0  0  0  0  0  0  0
    7.2248  -17.6547   18.3766 C   0  0  0  0  0  0  0  0  0  0  0  0
    7.9445  -17.7040   17.0851 C   0  0  0  0  0  0  0  0  0  0  0  0
    9.1477  -17.9984   16.9998 O   0  0  0  0  0  0  0  0  0  0  0  0
    7.4697  -17.7474   20.7612 C   0  0  0  0  0  0  0  0  0  0  0  0
    6.4896  -16.9834   20.7889 O   0  0  0  0  0  0  0  0  0  0  0  0
    7.2374  -17.4092   15.9258 O   0  0  0  0  0  0  0  0  0  0  0  0
    7.8624  -18.4452   21.9197 N   0  0  0  0  0  0  0  0  0  0  0  0
    7.2437  -18.2102   23.2154 C   0  0  1  0  0  0  0  0  0  0  0  0
    7.2337  -19.5135   23.9695 C   0  0  0  0  0  0  0  0  0  0  0  0
    6.0909  -20.3879   23.6021 C   0  0  0  0  0  0  0  0  0  0  0  0
    5.0182  -20.1391   22.7723 C   0  0  0  0  0  0  0  0  0  0  0  0
    4.2447  -21.2195   22.7650 N   0  0  0  0  0  0  0  0  0  0  0  0
    4.7833  -22.1776   23.5745 C   0  0  0  0  0  0  0  0  0  0  0  0
    5.9123  -21.6572   24.0804 N   0  0  0  0  0  0  0  0  0  0  0  0
    7.9589  -17.1636   23.9715 C   0  0  0  0  0  0  0  0  0  0  0  0
    9.1786  -16.9805   23.7540 O   0  0  0  0  0  0  0  0  0  0  0  0
    5.9113  -11.3506   25.9598 C   0  0  0  0  0  0  0  0  0  0  0  0
    6.7950  -11.8638   27.4524 S   0  0  0  0  0  0  0  0  0  0  0  0
    7.9306  -13.2306   26.9537 C   0  0  0  0  0  0  0  0  0  0  0  0
    7.2006  -14.1962   26.0819 C   0  0  0  0  0  0  0  0  0  0  0  0
    8.0921  -15.2830   25.5939 C   0  0  2  0  0  0  0  0  0  0  0  0
    7.3242  -16.3497   24.9444 N   0  0  0  0  0  0  0  0  0  0  0  0
    8.7553  -15.9598   26.7552 C   0  0  0  0  0  0  0  0  0  0  0  0
    8.3853  -17.0521   27.1773 O   0  0  0  0  0  0  0  0  0  0  0  0
    9.8319  -15.3400   27.3927 O   0  0  0  0  0  0  0  0  0  0  0  0
  2  1  1  6
  2  3  1  0
  3  4  1  0
  4  8  1  0
  5  4  2  0
  6  2  1  0
  7  6  2  0
  9  6  1  0
 10  9  1  0
 11 12  1  0
 10 11  1  1
 12 13  2  0
 14 13  1  0
 15 14  1  0
 16 15  2  0
 16 12  1  0
 17 18  2  0
 17 10  1  0
 20 19  1  0
 21 20  1  0
 23 22  1  1
 22 21  1  0
 23 24  1  0
 24 17  1  0
 25 23  1  0
 26 25  2  0
 27 25  1  0
M  END
$$$$
