DHM.pdb
     RDKit          3D

 27 27  0  0  1  0  0  0  0  0999 V2000
    8.9382  -18.4689   19.2341 N   0  0  0  0  0  0  0  0  0  0  0  0
    9.7850  -17.3090   18.9323 C   0  0  1  0  0  0  0  0  0  0  0  0
    9.5458  -17.0213   17.4432 C   0  0  0  0  0  0  0  0  0  0  0  0
   10.0461  -18.1694   16.6559 C   0  0  0  0  0  0  0  0  0  0  0  0
   11.0850  -18.7820   16.9511 O   0  0  0  0  0  0  0  0  0  0  0  0
    9.3015  -16.1106   19.6491 C   0  0  0  0  0  0  0  0  0  0  0  0
    9.1065  -15.0533   19.0252 O   0  0  0  0  0  0  0  0  0  0  0  0
    9.3169  -18.5728   15.5440 O   0  0  0  0  0  0  0  0  0  0  0  0
    9.0662  -16.1734   21.0362 N   0  0  0  0  0  0  0  0  0  0  0  0
    8.5965  -15.0258   21.7972 C   0  0  1  0  0  0  0  0  0  0  0  0
    7.2866  -14.5787   21.2042 C   0  0  0  0  0  0  0  0  0  0  0  0
    7.4152  -14.1073   19.8018 C   0  0  0  0  0  0  0  0  0  0  0  0
    8.0072  -12.9660   19.3034 C   0  0  0  0  0  0  0  0  0  0  0  0
    7.8596  -12.9693   17.9829 N   0  0  0  0  0  0  0  0  0  0  0  0
    7.1804  -14.0890   17.5976 C   0  0  0  0  0  0  0  0  0  0  0  0
    6.9146  -14.7770   18.7189 N   0  0  0  0  0  0  0  0  0  0  0  0
    8.4481  -15.3534   23.2288 C   0  0  0  0  0  0  0  0  0  0  0  0
    7.4931  -14.8594   23.8711 O   0  0  0  0  0  0  0  0  0  0  0  0
   10.0773  -13.2934   29.8153 C   0  0  0  0  0  0  0  0  0  0  0  0
    9.0513  -14.2865   28.7050 S   0  0  0  0  0  0  0  0  0  0  0  0
   10.1497  -14.8591   27.3368 C   0  0  0  0  0  0  0  0  0  0  0  0
    9.3234  -15.2230   26.1492 C   0  0  0  0  0  0  0  0  0  0  0  0
   10.1659  -15.6560   25.0018 C   0  0  2  0  0  0  0  0  0  0  0  0
    9.3465  -16.2073   23.9183 N   0  0  0  0  0  0  0  0  0  0  0  0
   11.0463  -16.7961   25.4160 C   0  0  0  0  0  0  0  0  0  0  0  0
   11.8809  -16.6896   26.3107 O   0  0  0  0  0  0  0  0  0  0  0  0
   10.9282  -18.0292   24.7717 O   0  0  0  0  0  0  0  0  0  0  0  0
  2  1  1  1
  2  3  1  0
  3  4  1  0
  4  8  1  0
  5  4  2  0
  6  2  1  0
  7  6  2  0
  9  6  1  0
 10  9  1  0
 11 12  1  0
 10 11  1  6
 12 13  2  0
 14 13  1  0
 15 14  1  0
 16 15  2  0
 16 12  1  0
 17 18  2  0
 17 10  1  0
 20 19  1  0
 21 20  1  0
 23 22  1  1
 22 21  1  0
 23 24  1  0
 24 17  1  0
 25 23  1  0
 26 25  2  0
 27 25  1  0
M  END
$$$$
