DHM.pdb
     RDKit          3D

 27 27  0  0  1  0  0  0  0  0999 V2000
   10.0429  -12.9425   19.4163 N   0  0  0  0  0  0  0  0  0  0  0  0
    8.5905  -12.8611   19.6102 C   0  0  1  0  0  0  0  0  0  0  0  0
    7.9937  -13.0351   18.2063 C   0  0  0  0  0  0  0  0  0  0  0  0
    8.8218  -14.0079   17.4602 C   0  0  0  0  0  0  0  0  0  0  0  0
    9.7381  -14.6547   17.9929 O   0  0  0  0  0  0  0  0  0  0  0  0
    8.1040  -14.0166   20.3925 C   0  0  0  0  0  0  0  0  0  0  0  0
    6.8848  -14.1646   20.5841 O   0  0  0  0  0  0  0  0  0  0  0  0
    8.5554  -14.2003   16.1102 O   0  0  0  0  0  0  0  0  0  0  0  0
    9.0257  -14.9425   20.9182 N   0  0  0  0  0  0  0  0  0  0  0  0
    8.6175  -16.0403   21.7813 C   0  0  1  0  0  0  0  0  0  0  0  0
    9.3386  -17.2819   21.3275 C   0  0  0  0  0  0  0  0  0  0  0  0
    8.5757  -18.0602   20.3186 C   0  0  0  0  0  0  0  0  0  0  0  0
    7.3348  -17.8179   19.7685 C   0  0  0  0  0  0  0  0  0  0  0  0
    7.0625  -18.8022   18.9185 N   0  0  0  0  0  0  0  0  0  0  0  0
    8.0977  -19.6918   18.8963 C   0  0  0  0  0  0  0  0  0  0  0  0
    9.0170  -19.2268   19.7564 N   0  0  0  0  0  0  0  0  0  0  0  0
    8.9053  -15.7462   23.1989 C   0  0  0  0  0  0  0  0  0  0  0  0
   10.0072  -15.2350   23.5036 O   0  0  0  0  0  0  0  0  0  0  0  0
    6.5859  -10.8265   26.9396 C   0  0  0  0  0  0  0  0  0  0  0  0
    6.1517  -12.5815   26.9995 S   0  0  0  0  0  0  0  0  0  0  0  0
    7.5061  -13.4934   26.1390 C   0  0  0  0  0  0  0  0  0  0  0  0
    7.3277  -14.9611   26.3380 C   0  0  0  0  0  0  0  0  0  0  0  0
    8.3742  -15.7459   25.6287 C   0  0  2  0  0  0  0  0  0  0  0  0
    7.9847  -16.0208   24.2424 N   0  0  0  0  0  0  0  0  0  0  0  0
    8.5053  -17.1027   26.2517 C   0  0  0  0  0  0  0  0  0  0  0  0
    8.0842  -18.1192   25.7060 O   0  0  0  0  0  0  0  0  0  0  0  0
    9.1235  -17.2341   27.4968 O   0  0  0  0  0  0  0  0  0  0  0  0
  2  1  1  6
  2  3  1  0
  3  4  1  0
  4  8  1  0
  5  4  2  0
  6  2  1  0
  7  6  2  0
  9  6  1  0
 10  9  1  0
 11 12  1  0
 10 11  1  6
 12 13  2  0
 14 13  1  0
 15 14  1  0
 16 15  2  0
 16 12  1  0
 17 18  2  0
 17 10  1  0
 20 19  1  0
 21 20  1  0
 23 22  1  1
 22 21  1  0
 23 24  1  0
 24 17  1  0
 25 23  1  0
 26 25  2  0
 27 25  1  0
M  END
$$$$
