DHM.pdb
     RDKit          3D

 27 27  0  0  1  0  0  0  0  0999 V2000
    9.0816  -17.8322   17.7365 N   0  0  0  0  0  0  0  0  0  0  0  0
    9.3116  -16.7399   18.6891 C   0  0  1  0  0  0  0  0  0  0  0  0
    8.1618  -15.7524   18.4437 C   0  0  0  0  0  0  0  0  0  0  0  0
    8.2619  -15.2492   17.0561 C   0  0  0  0  0  0  0  0  0  0  0  0
    9.1219  -15.6542   16.2574 O   0  0  0  0  0  0  0  0  0  0  0  0
    9.1356  -17.2141   20.0777 C   0  0  0  0  0  0  0  0  0  0  0  0
    8.0840  -17.7895   20.4062 O   0  0  0  0  0  0  0  0  0  0  0  0
    7.3518  -14.2862   16.6379 O   0  0  0  0  0  0  0  0  0  0  0  0
   10.1608  -17.0092   21.0212 N   0  0  0  0  0  0  0  0  0  0  0  0
   10.0777  -17.5187   22.3816 C   0  0  1  0  0  0  0  0  0  0  0  0
   11.3532  -18.2619   22.6788 C   0  0  0  0  0  0  0  0  0  0  0  0
   11.4391  -19.5697   21.9805 C   0  0  0  0  0  0  0  0  0  0  0  0
   12.1773  -19.9348   20.8746 C   0  0  0  0  0  0  0  0  0  0  0  0
   11.9157  -21.2100   20.6083 N   0  0  0  0  0  0  0  0  0  0  0  0
   11.0180  -21.6957   21.5148 C   0  0  0  0  0  0  0  0  0  0  0  0
   10.7346  -20.6831   22.3489 N   0  0  0  0  0  0  0  0  0  0  0  0
    9.8587  -16.4285   23.3523 C   0  0  0  0  0  0  0  0  0  0  0  0
   10.3352  -15.2952   23.1135 O   0  0  0  0  0  0  0  0  0  0  0  0
    6.9358  -10.9957   26.6078 C   0  0  0  0  0  0  0  0  0  0  0  0
    7.3405  -12.2270   25.3460 S   0  0  0  0  0  0  0  0  0  0  0  0
    7.0472  -13.8829   26.1064 C   0  0  0  0  0  0  0  0  0  0  0  0
    7.4361  -14.9532   25.1427 C   0  0  0  0  0  0  0  0  0  0  0  0
    8.8223  -15.4370   25.3843 C   0  0  2  0  0  0  0  0  0  0  0  0
    9.1295  -16.6068   24.5557 N   0  0  0  0  0  0  0  0  0  0  0  0
    8.9510  -15.9368   26.7914 C   0  0  0  0  0  0  0  0  0  0  0  0
    9.0921  -15.1785   27.7471 O   0  0  0  0  0  0  0  0  0  0  0  0
    8.9131  -17.3098   27.0427 O   0  0  0  0  0  0  0  0  0  0  0  0
  2  1  1  6
  2  3  1  0
  3  4  1  0
  4  8  1  0
  5  4  2  0
  6  2  1  0
  7  6  2  0
  9  6  1  0
 10  9  1  0
 11 12  1  0
 10 11  1  1
 12 13  2  0
 14 13  1  0
 15 14  1  0
 16 15  2  0
 16 12  1  0
 17 18  2  0
 17 10  1  0
 20 19  1  0
 21 20  1  0
 23 22  1  6
 22 21  1  0
 23 24  1  0
 24 17  1  0
 25 23  1  0
 26 25  2  0
 27 25  1  0
M  END
$$$$
