DHM.pdb
     RDKit          3D

 27 27  0  0  1  0  0  0  0  0999 V2000
   10.5594  -18.7753   19.9884 N   0  0  0  0  0  0  0  0  0  0  0  0
   11.5428  -17.9571   20.7073 C   0  0  1  0  0  0  0  0  0  0  0  0
   12.5161  -17.4671   19.6256 C   0  0  0  0  0  0  0  0  0  0  0  0
   13.7089  -16.8969   20.2893 C   0  0  0  0  0  0  0  0  0  0  0  0
   14.4253  -16.0353   19.7543 O   0  0  0  0  0  0  0  0  0  0  0  0
   10.9087  -16.7377   21.2501 C   0  0  0  0  0  0  0  0  0  0  0  0
   11.6093  -15.8629   21.7876 O   0  0  0  0  0  0  0  0  0  0  0  0
   14.0321  -17.3479   21.5632 O   0  0  0  0  0  0  0  0  0  0  0  0
    9.5129  -16.5751   21.1566 N   0  0  0  0  0  0  0  0  0  0  0  0
    8.8440  -15.3511   21.5703 C   0  0  1  0  0  0  0  0  0  0  0  0
    7.5836  -15.2123   20.7581 C   0  0  0  0  0  0  0  0  0  0  0  0
    7.8324  -14.7152   19.3810 C   0  0  0  0  0  0  0  0  0  0  0  0
    6.9395  -14.4216   18.3721 C   0  0  0  0  0  0  0  0  0  0  0  0
    7.6337  -14.0223   17.3119 N   0  0  0  0  0  0  0  0  0  0  0  0
    8.9682  -14.0472   17.5984 C   0  0  0  0  0  0  0  0  0  0  0  0
    9.0767  -14.4723   18.8668 N   0  0  0  0  0  0  0  0  0  0  0  0
    8.5465  -15.3625   23.0161 C   0  0  0  0  0  0  0  0  0  0  0  0
    9.0613  -16.2477   23.7372 O   0  0  0  0  0  0  0  0  0  0  0  0
    6.5170  -11.2047   29.3219 C   0  0  0  0  0  0  0  0  0  0  0  0
    6.4481  -11.2674   27.5155 S   0  0  0  0  0  0  0  0  0  0  0  0
    6.8822  -12.9935   27.0270 C   0  0  0  0  0  0  0  0  0  0  0  0
    6.9320  -13.0962   25.5395 C   0  0  0  0  0  0  0  0  0  0  0  0
    7.6916  -14.2956   25.0939 C   0  0  2  0  0  0  0  0  0  0  0  0
    7.6946  -14.4106   23.6323 N   0  0  0  0  0  0  0  0  0  0  0  0
    7.0005  -15.5407   25.5611 C   0  0  0  0  0  0  0  0  0  0  0  0
    6.1334  -16.0997   24.8947 O   0  0  0  0  0  0  0  0  0  0  0  0
    7.3406  -16.0975   26.7956 O   0  0  0  0  0  0  0  0  0  0  0  0
  2  1  1  6
  2  3  1  0
  3  4  1  0
  4  8  1  0
  5  4  2  0
  6  2  1  0
  7  6  2  0
  9  6  1  0
 10  9  1  0
 11 12  1  0
 10 11  1  6
 12 13  2  0
 14 13  1  0
 15 14  1  0
 16 15  2  0
 16 12  1  0
 17 18  2  0
 17 10  1  0
 20 19  1  0
 21 20  1  0
 23 22  1  6
 22 21  1  0
 23 24  1  0
 24 17  1  0
 25 23  1  0
 26 25  2  0
 27 25  1  0
M  END
$$$$
