YLS.pdb
     RDKit          3D

 27 27  0  0  1  0  0  0  0  0999 V2000
    8.6201  -23.4214   15.3771 O   0  0  0  0  0  0  0  0  0  0  0  0
    8.8429  -22.4377   16.3078 C   0  0  0  0  0  0  0  0  0  0  0  0
    9.7586  -22.6337   17.3492 C   0  0  0  0  0  0  0  0  0  0  0  0
    9.9758  -21.6413   18.2785 C   0  0  0  0  0  0  0  0  0  0  0  0
    9.2977  -20.4489   18.1950 C   0  0  0  0  0  0  0  0  0  0  0  0
    9.5303  -19.4073   19.1719 C   0  0  0  0  0  0  0  0  0  0  0  0
    9.9342  -18.0666   18.6267 C   0  0  2  0  0  0  0  0  0  0  0  0
   11.1743  -18.2035   17.8335 N   0  0  0  0  0  0  0  0  0  0  0  0
   10.0758  -17.0050   19.6359 C   0  0  0  0  0  0  0  0  0  0  0  0
   11.2357  -16.7800   20.0918 O   0  0  0  0  0  0  0  0  0  0  0  0
    8.3930  -20.2391   17.1765 C   0  0  0  0  0  0  0  0  0  0  0  0
    8.1679  -21.2467   16.2272 C   0  0  0  0  0  0  0  0  0  0  0  0
    9.1244  -12.4626   19.6391 C   0  0  0  0  0  0  0  0  0  0  0  0
    8.0149  -13.4234   19.8475 C   0  0  2  0  0  0  0  0  0  0  0  0
    6.6976  -12.6080   19.8841 C   0  0  0  0  0  0  0  0  0  0  0  0
    8.0325  -14.2664   21.0591 C   0  0  0  0  0  0  0  0  0  0  0  0
    9.1562  -15.2091   21.1988 C   0  0  2  0  0  0  0  0  0  0  0  0
    9.0297  -16.2337   20.1192 N   0  0  0  0  0  0  0  0  0  0  0  0
    9.3075  -15.9837   22.4136 C   0  0  0  0  0  0  0  0  0  0  0  0
    8.2696  -16.5548   22.9148 O   0  0  0  0  0  0  0  0  0  0  0  0
   12.5518  -17.9282   23.7733 O   0  0  0  0  0  0  0  0  0  0  0  0
   11.2960  -18.1681   24.3094 C   0  0  0  0  0  0  0  0  0  0  0  0
   10.4845  -16.8740   24.4497 C   0  0  2  0  0  0  0  0  0  0  0  0
   10.4996  -16.2250   23.1638 N   0  0  0  0  0  0  0  0  0  0  0  0
   11.0936  -16.1237   25.5495 C   0  0  0  0  0  0  0  0  0  0  0  0
   11.5781  -14.9860   25.5046 O   0  0  0  0  0  0  0  0  0  0  0  0
   11.1231  -16.7883   26.7943 O   0  0  0  0  0  0  0  0  0  0  0  0
  2  1  1  0
  3  2  2  0
  4  3  1  0
  5 11  1  0
  5  4  2  0
  6  5  1  0
  7  9  1  0
  7  6  1  0
  7  8  1  1
  9 10  2  0
 11 12  2  0
 12  2  1  0
 14 13  1  1
 15 14  1  0
 16 14  1  0
 17 16  1  1
 18  9  1  0
 18 17  1  0
 19 24  1  0
 19 17  1  0
 20 19  2  0
 22 21  1  0
 23 22  1  6
 23 24  1  0
 25 23  1  0
 25 27  1  0
 26 25  2  0
M  END
$$$$
