YLS.pdb
     RDKit          3D

 27 27  0  0  1  0  0  0  0  0999 V2000
    7.3680  -14.0906   14.8823 O   0  0  0  0  0  0  0  0  0  0  0  0
    7.4656  -14.3016   16.2348 C   0  0  0  0  0  0  0  0  0  0  0  0
    7.6023  -13.2234   17.1181 C   0  0  0  0  0  0  0  0  0  0  0  0
    7.6995  -13.4445   18.4736 C   0  0  0  0  0  0  0  0  0  0  0  0
    7.6637  -14.7236   18.9745 C   0  0  0  0  0  0  0  0  0  0  0  0
    7.7638  -14.9521   20.3997 C   0  0  0  0  0  0  0  0  0  0  0  0
    9.0371  -14.4974   21.0552 C   0  0  2  0  0  0  0  0  0  0  0  0
   10.1892  -15.1935   20.4439 N   0  0  0  0  0  0  0  0  0  0  0  0
    9.0628  -14.6351   22.5201 C   0  0  0  0  0  0  0  0  0  0  0  0
   10.0121  -15.3002   23.0302 O   0  0  0  0  0  0  0  0  0  0  0  0
    7.5296  -15.7964   18.1196 C   0  0  0  0  0  0  0  0  0  0  0  0
    7.4301  -15.5769   16.7379 C   0  0  0  0  0  0  0  0  0  0  0  0
    5.8726  -12.3901   27.4256 C   0  0  0  0  0  0  0  0  0  0  0  0
    7.0034  -13.1655   26.8619 C   0  0  2  0  0  0  0  0  0  0  0  0
    8.3102  -12.5607   27.4348 C   0  0  0  0  0  0  0  0  0  0  0  0
    7.1599  -13.2157   25.3949 C   0  0  0  0  0  0  0  0  0  0  0  0
    8.2357  -14.0739   24.8685 C   0  0  2  0  0  0  0  0  0  0  0  0
    8.1228  -14.0859   23.3790 N   0  0  0  0  0  0  0  0  0  0  0  0
    8.2931  -15.4740   25.2359 C   0  0  0  0  0  0  0  0  0  0  0  0
    7.2316  -16.1893   25.1096 O   0  0  0  0  0  0  0  0  0  0  0  0
   11.2828  -17.8109   24.9807 O   0  0  0  0  0  0  0  0  0  0  0  0
   10.1677  -18.4673   25.4783 C   0  0  0  0  0  0  0  0  0  0  0  0
    9.2791  -17.5269   26.3023 C   0  0  2  0  0  0  0  0  0  0  0  0
    9.4127  -16.2115   25.7308 N   0  0  0  0  0  0  0  0  0  0  0  0
    9.7136  -17.6645   27.6936 C   0  0  0  0  0  0  0  0  0  0  0  0
   10.1067  -16.7673   28.4497 O   0  0  0  0  0  0  0  0  0  0  0  0
    9.6731  -18.9753   28.2152 O   0  0  0  0  0  0  0  0  0  0  0  0
  2  1  1  0
  3  2  2  0
  4  3  1  0
  5 11  1  0
  5  4  2  0
  6  5  1  0
  7  9  1  0
  7  6  1  0
  7  8  1  6
  9 10  2  0
 11 12  2  0
 12  2  1  0
 14 13  1  6
 15 14  1  0
 16 14  1  0
 17 16  1  1
 18  9  1  0
 18 17  1  0
 19 24  1  0
 19 17  1  0
 20 19  2  0
 22 21  1  0
 23 22  1  6
 23 24  1  0
 25 23  1  0
 25 27  1  0
 26 25  2  0
M  END
$$$$
