YLS.pdb
     RDKit          3D

 27 27  0  0  1  0  0  0  0  0999 V2000
    6.6433  -18.9854   16.0817 O   0  0  0  0  0  0  0  0  0  0  0  0
    6.9795  -18.5262   17.3304 C   0  0  0  0  0  0  0  0  0  0  0  0
    6.2166  -17.5317   17.9553 C   0  0  0  0  0  0  0  0  0  0  0  0
    6.5613  -17.0769   19.2083 C   0  0  0  0  0  0  0  0  0  0  0  0
    7.6562  -17.5927   19.8592 C   0  0  0  0  0  0  0  0  0  0  0  0
    8.0140  -17.1141   21.1768 C   0  0  0  0  0  0  0  0  0  0  0  0
    8.6410  -15.7499   21.2379 C   0  0  2  0  0  0  0  0  0  0  0  0
    9.8764  -15.7318   20.4260 N   0  0  0  0  0  0  0  0  0  0  0  0
    8.9033  -15.2493   22.5966 C   0  0  0  0  0  0  0  0  0  0  0  0
   10.1117  -15.0875   22.9391 O   0  0  0  0  0  0  0  0  0  0  0  0
    8.4182  -18.5720   19.2590 C   0  0  0  0  0  0  0  0  0  0  0  0
    8.0715  -19.0389   17.9827 C   0  0  0  0  0  0  0  0  0  0  0  0
    5.9667  -11.8043   26.7682 C   0  0  0  0  0  0  0  0  0  0  0  0
    7.1271  -12.6587   26.4200 C   0  0  2  0  0  0  0  0  0  0  0  0
    8.4003  -11.7848   26.5493 C   0  0  0  0  0  0  0  0  0  0  0  0
    7.1665  -13.2804   25.0818 C   0  0  0  0  0  0  0  0  0  0  0  0
    8.1771  -14.3303   24.8642 C   0  0  2  0  0  0  0  0  0  0  0  0
    7.9207  -14.9407   23.5252 N   0  0  0  0  0  0  0  0  0  0  0  0
    8.2549  -15.4614   25.7659 C   0  0  0  0  0  0  0  0  0  0  0  0
    8.4303  -15.2396   27.0207 O   0  0  0  0  0  0  0  0  0  0  0  0
   11.2602  -18.5751   24.7156 O   0  0  0  0  0  0  0  0  0  0  0  0
   10.1701  -17.7392   24.5284 C   0  0  0  0  0  0  0  0  0  0  0  0
    9.2089  -17.7877   25.7228 C   0  0  2  0  0  0  0  0  0  0  0  0
    8.1492  -16.8510   25.4499 N   0  0  0  0  0  0  0  0  0  0  0  0
   10.0159  -17.5084   26.9119 C   0  0  0  0  0  0  0  0  0  0  0  0
   10.1785  -18.2386   27.8975 O   0  0  0  0  0  0  0  0  0  0  0  0
   10.6760  -16.2609   26.9179 O   0  0  0  0  0  0  0  0  0  0  0  0
  2  1  1  0
  3  2  2  0
  4  3  1  0
  5 11  1  0
  5  4  2  0
  6  5  1  0
  7  9  1  0
  7  6  1  0
  7  8  1  6
  9 10  2  0
 11 12  2  0
 12  2  1  0
 14 13  1  6
 15 14  1  0
 16 14  1  0
 17 16  1  1
 18  9  1  0
 18 17  1  0
 19 24  1  0
 19 17  1  0
 20 19  2  0
 22 21  1  0
 23 22  1  6
 23 24  1  0
 25 23  1  0
 25 27  1  0
 26 25  2  0
M  END
$$$$
