YLS.pdb
     RDKit          3D

 27 27  0  0  1  0  0  0  0  0999 V2000
   10.8371  -14.7944   31.3877 O   0  0  0  0  0  0  0  0  0  0  0  0
   10.5237  -15.0308   30.0727 C   0  0  0  0  0  0  0  0  0  0  0  0
   10.1072  -13.9858   29.2385 C   0  0  0  0  0  0  0  0  0  0  0  0
    9.7947  -14.2322   27.9204 C   0  0  0  0  0  0  0  0  0  0  0  0
    9.8877  -15.5043   27.4090 C   0  0  0  0  0  0  0  0  0  0  0  0
    9.5608  -15.7591   26.0228 C   0  0  0  0  0  0  0  0  0  0  0  0
    8.1015  -15.9286   25.7072 C   0  0  2  0  0  0  0  0  0  0  0  0
    7.5836  -17.1404   26.3772 N   0  0  0  0  0  0  0  0  0  0  0  0
    7.7767  -15.9477   24.2720 C   0  0  0  0  0  0  0  0  0  0  0  0
    7.3097  -17.0219   23.7905 O   0  0  0  0  0  0  0  0  0  0  0  0
   10.2959  -16.5446   28.2159 C   0  0  0  0  0  0  0  0  0  0  0  0
   10.6155  -16.2992   29.5593 C   0  0  0  0  0  0  0  0  0  0  0  0
    7.9002  -12.0778   19.3483 C   0  0  0  0  0  0  0  0  0  0  0  0
    7.6761  -13.4186   19.9396 C   0  0  2  0  0  0  0  0  0  0  0  0
    6.2351  -13.8524   19.5697 C   0  0  0  0  0  0  0  0  0  0  0  0
    7.8101  -13.5742   21.4014 C   0  0  0  0  0  0  0  0  0  0  0  0
    7.8547  -14.9512   21.9237 C   0  0  2  0  0  0  0  0  0  0  0  0
    7.9436  -14.8722   23.4127 N   0  0  0  0  0  0  0  0  0  0  0  0
    8.9371  -15.8366   21.5454 C   0  0  0  0  0  0  0  0  0  0  0  0
    8.7504  -16.6603   20.5753 O   0  0  0  0  0  0  0  0  0  0  0  0
   13.0964  -16.6383   19.9788 O   0  0  0  0  0  0  0  0  0  0  0  0
   12.0689  -15.9150   20.5644 C   0  0  0  0  0  0  0  0  0  0  0  0
   11.2727  -16.7684   21.5598 C   0  0  2  0  0  0  0  0  0  0  0  0
   10.2457  -15.9235   22.1130 N   0  0  0  0  0  0  0  0  0  0  0  0
   12.2454  -17.2992   22.5166 C   0  0  0  0  0  0  0  0  0  0  0  0
   12.3243  -17.0467   23.7254 O   0  0  0  0  0  0  0  0  0  0  0  0
   13.1926  -18.1992   21.9829 O   0  0  0  0  0  0  0  0  0  0  0  0
  2  1  1  0
  3  2  2  0
  4  3  1  0
  5 11  1  0
  5  4  2  0
  6  5  1  0
  7  9  1  0
  7  6  1  0
  7  8  1  6
  9 10  2  0
 11 12  2  0
 12  2  1  0
 14 13  1  1
 15 14  1  0
 16 14  1  0
 17 16  1  6
 18  9  1  0
 18 17  1  0
 19 24  1  0
 19 17  1  0
 20 19  2  0
 22 21  1  0
 23 22  1  6
 23 24  1  0
 25 23  1  0
 25 27  1  0
 26 25  2  0
M  END
$$$$
