YLS.pdb
     RDKit          3D

 27 27  0  0  1  0  0  0  0  0999 V2000
    7.4286  -11.1129   26.8554 O   0  0  0  0  0  0  0  0  0  0  0  0
    7.3265  -12.4637   26.6357 C   0  0  0  0  0  0  0  0  0  0  0  0
    6.0916  -13.0453   26.3222 C   0  0  0  0  0  0  0  0  0  0  0  0
    5.9986  -14.4014   26.1034 C   0  0  0  0  0  0  0  0  0  0  0  0
    7.1145  -15.1987   26.1899 C   0  0  0  0  0  0  0  0  0  0  0  0
    7.0134  -16.6230   25.9569 C   0  0  0  0  0  0  0  0  0  0  0  0
    6.7497  -17.0448   24.5390 C   0  0  2  0  0  0  0  0  0  0  0  0
    6.4294  -18.4875   24.4989 N   0  0  0  0  0  0  0  0  0  0  0  0
    7.8251  -16.7233   23.5873 C   0  0  0  0  0  0  0  0  0  0  0  0
    8.5494  -17.6775   23.1764 O   0  0  0  0  0  0  0  0  0  0  0  0
    8.3378  -14.6430   26.4974 C   0  0  0  0  0  0  0  0  0  0  0  0
    8.4383  -13.2620   26.7213 C   0  0  0  0  0  0  0  0  0  0  0  0
    7.1093  -14.2571   19.8301 C   0  0  0  0  0  0  0  0  0  0  0  0
    7.5407  -13.4885   21.0220 C   0  0  2  0  0  0  0  0  0  0  0  0
    7.5148  -11.9872   20.6387 C   0  0  0  0  0  0  0  0  0  0  0  0
    8.8742  -13.7638   21.5919 C   0  0  0  0  0  0  0  0  0  0  0  0
    9.1245  -15.1348   22.0701 C   0  0  2  0  0  0  0  0  0  0  0  0
    8.0980  -15.4509   23.1082 N   0  0  0  0  0  0  0  0  0  0  0  0
   10.3865  -15.4650   22.7002 C   0  0  0  0  0  0  0  0  0  0  0  0
   11.4607  -15.4140   21.9945 O   0  0  0  0  0  0  0  0  0  0  0  0
   10.9652  -17.4327   26.3949 O   0  0  0  0  0  0  0  0  0  0  0  0
   11.8147  -16.3901   26.0584 C   0  0  0  0  0  0  0  0  0  0  0  0
   11.9274  -16.2211   24.5380 C   0  0  2  0  0  0  0  0  0  0  0  0
   10.6225  -15.8461   24.0571 N   0  0  0  0  0  0  0  0  0  0  0  0
   12.4581  -17.4843   24.0219 C   0  0  0  0  0  0  0  0  0  0  0  0
   11.9376  -18.2307   23.1834 O   0  0  0  0  0  0  0  0  0  0  0  0
   13.7051  -17.8800   24.5515 O   0  0  0  0  0  0  0  0  0  0  0  0
  2  1  1  0
  3  2  2  0
  4  3  1  0
  5 11  1  0
  5  4  2  0
  6  5  1  0
  7  9  1  0
  7  6  1  0
  7  8  1  1
  9 10  2  0
 11 12  2  0
 12  2  1  0
 14 13  1  6
 15 14  1  0
 16 14  1  0
 17 16  1  1
 18  9  1  0
 18 17  1  0
 19 24  1  0
 19 17  1  0
 20 19  2  0
 22 21  1  0
 23 22  1  1
 23 24  1  0
 25 23  1  0
 25 27  1  0
 26 25  2  0
M  END
$$$$
