YLS.pdb
     RDKit          3D

 27 27  0  0  1  0  0  0  0  0999 V2000
   10.9887  -14.1298   30.6037 O   0  0  0  0  0  0  0  0  0  0  0  0
   10.5497  -15.0492   29.6844 C   0  0  0  0  0  0  0  0  0  0  0  0
   10.3727  -16.3910   30.0443 C   0  0  0  0  0  0  0  0  0  0  0  0
    9.9319  -17.3067   29.1154 C   0  0  0  0  0  0  0  0  0  0  0  0
    9.6610  -16.9151   27.8263 C   0  0  0  0  0  0  0  0  0  0  0  0
    9.1956  -17.8796   26.8534 C   0  0  0  0  0  0  0  0  0  0  0  0
    7.7683  -17.7335   26.4070 C   0  0  2  0  0  0  0  0  0  0  0  0
    7.2096  -19.0624   26.0788 N   0  0  0  0  0  0  0  0  0  0  0  0
    7.5606  -16.7922   25.2951 C   0  0  0  0  0  0  0  0  0  0  0  0
    7.1737  -17.2688   24.1874 O   0  0  0  0  0  0  0  0  0  0  0  0
    9.8296  -15.5985   27.4548 C   0  0  0  0  0  0  0  0  0  0  0  0
   10.2783  -14.6616   28.3971 C   0  0  0  0  0  0  0  0  0  0  0  0
    5.1595  -13.1773   26.1997 C   0  0  0  0  0  0  0  0  0  0  0  0
    6.6353  -13.0387   26.1765 C   0  0  2  0  0  0  0  0  0  0  0  0
    6.9799  -11.6580   26.7900 C   0  0  0  0  0  0  0  0  0  0  0  0
    7.3289  -13.1164   24.8758 C   0  0  0  0  0  0  0  0  0  0  0  0
    7.4706  -14.4543   24.2751 C   0  0  2  0  0  0  0  0  0  0  0  0
    7.7562  -15.4218   25.3769 N   0  0  0  0  0  0  0  0  0  0  0  0
    8.5103  -14.7052   23.2980 C   0  0  0  0  0  0  0  0  0  0  0  0
    8.3829  -14.2062   22.1193 O   0  0  0  0  0  0  0  0  0  0  0  0
   11.7241  -17.4329   23.6430 O   0  0  0  0  0  0  0  0  0  0  0  0
   11.9355  -16.2201   23.0056 C   0  0  0  0  0  0  0  0  0  0  0  0
   10.6431  -15.6750   22.3847 C   0  0  2  0  0  0  0  0  0  0  0  0
    9.7172  -15.4518   23.4653 N   0  0  0  0  0  0  0  0  0  0  0  0
   10.2252  -16.6536   21.3791 C   0  0  0  0  0  0  0  0  0  0  0  0
    9.1491  -17.2620   21.3252 O   0  0  0  0  0  0  0  0  0  0  0  0
   11.1686  -16.9212   20.3640 O   0  0  0  0  0  0  0  0  0  0  0  0
  2  1  1  0
  3  2  2  0
  4  3  1  0
  5 11  1  0
  5  4  2  0
  6  5  1  0
  7  9  1  0
  7  6  1  0
  7  8  1  6
  9 10  2  0
 11 12  2  0
 12  2  1  0
 14 13  1  6
 15 14  1  0
 16 14  1  0
 17 16  1  1
 18  9  1  0
 18 17  1  0
 19 24  1  0
 19 17  1  0
 20 19  2  0
 22 21  1  0
 23 22  1  1
 23 24  1  0
 25 23  1  0
 25 27  1  0
 26 25  2  0
M  END
$$$$
