YLS.pdb
     RDKit          3D

 27 27  0  0  1  0  0  0  0  0999 V2000
   10.4564  -14.1918   31.1051 O   0  0  0  0  0  0  0  0  0  0  0  0
   10.3361  -14.6010   29.8007 C   0  0  0  0  0  0  0  0  0  0  0  0
   10.6759  -15.9074   29.4275 C   0  0  0  0  0  0  0  0  0  0  0  0
   10.5520  -16.3093   28.1165 C   0  0  0  0  0  0  0  0  0  0  0  0
   10.0942  -15.4346   27.1606 C   0  0  0  0  0  0  0  0  0  0  0  0
    9.9630  -15.8611   25.7843 C   0  0  0  0  0  0  0  0  0  0  0  0
    8.5864  -15.7646   25.1897 C   0  0  2  0  0  0  0  0  0  0  0  0
    7.6552  -16.6300   25.9444 N   0  0  0  0  0  0  0  0  0  0  0  0
    8.5129  -16.0525   23.7484 C   0  0  0  0  0  0  0  0  0  0  0  0
    8.0204  -17.1649   23.3968 O   0  0  0  0  0  0  0  0  0  0  0  0
    9.7552  -14.1452   27.5103 C   0  0  0  0  0  0  0  0  0  0  0  0
    9.8795  -13.7305   28.8444 C   0  0  0  0  0  0  0  0  0  0  0  0
    6.2072  -14.0072   20.2575 C   0  0  0  0  0  0  0  0  0  0  0  0
    7.4637  -13.4166   20.7773 C   0  0  2  0  0  0  0  0  0  0  0  0
    7.6512  -12.0437   20.0833 C   0  0  0  0  0  0  0  0  0  0  0  0
    8.7220  -14.1663   20.5941 C   0  0  0  0  0  0  0  0  0  0  0  0
    8.8322  -15.4625   21.2859 C   0  0  2  0  0  0  0  0  0  0  0  0
    8.9423  -15.1905   22.7506 N   0  0  0  0  0  0  0  0  0  0  0  0
    9.9439  -16.3461   20.9998 C   0  0  0  0  0  0  0  0  0  0  0  0
   11.1075  -16.0416   21.4557 O   0  0  0  0  0  0  0  0  0  0  0  0
   11.8027  -20.4945   19.1959 O   0  0  0  0  0  0  0  0  0  0  0  0
   10.7093  -19.7082   19.5248 C   0  0  0  0  0  0  0  0  0  0  0  0
   11.1357  -18.2994   19.9567 C   0  0  2  0  0  0  0  0  0  0  0  0
    9.9320  -17.5686   20.2598 N   0  0  0  0  0  0  0  0  0  0  0  0
   11.9490  -17.7627   18.8640 C   0  0  0  0  0  0  0  0  0  0  0  0
   11.6799  -16.8052   18.1279 O   0  0  0  0  0  0  0  0  0  0  0  0
   13.1753  -18.4242   18.6389 O   0  0  0  0  0  0  0  0  0  0  0  0
  2  1  1  0
  3  2  2  0
  4  3  1  0
  5 11  1  0
  5  4  2  0
  6  5  1  0
  7  9  1  0
  7  6  1  0
  7  8  1  1
  9 10  2  0
 11 12  2  0
 12  2  1  0
 14 13  1  6
 15 14  1  0
 16 14  1  0
 17 16  1  6
 18  9  1  0
 18 17  1  0
 19 24  1  0
 19 17  1  0
 20 19  2  0
 22 21  1  0
 23 22  1  6
 23 24  1  0
 25 23  1  0
 25 27  1  0
 26 25  2  0
M  END
$$$$
