YLS.pdb
     RDKit          3D

 27 27  0  0  1  0  0  0  0  0999 V2000
    7.2321  -14.1647   16.0389 O   0  0  0  0  0  0  0  0  0  0  0  0
    7.6904  -14.0842   17.3299 C   0  0  0  0  0  0  0  0  0  0  0  0
    7.4049  -12.9643   18.1209 C   0  0  0  0  0  0  0  0  0  0  0  0
    7.8690  -12.8920   19.4152 C   0  0  0  0  0  0  0  0  0  0  0  0
    8.6164  -13.9163   19.9449 C   0  0  0  0  0  0  0  0  0  0  0  0
    9.1003  -13.8380   21.3062 C   0  0  0  0  0  0  0  0  0  0  0  0
    9.0936  -15.1224   22.0860 C   0  0  2  0  0  0  0  0  0  0  0  0
    7.8338  -15.8534   21.8326 N   0  0  0  0  0  0  0  0  0  0  0  0
    9.3260  -14.9705   23.5312 C   0  0  0  0  0  0  0  0  0  0  0  0
   10.4655  -14.5610   23.9022 O   0  0  0  0  0  0  0  0  0  0  0  0
    8.9067  -15.0259   19.1806 C   0  0  0  0  0  0  0  0  0  0  0  0
    8.4365  -15.1047   17.8615 C   0  0  0  0  0  0  0  0  0  0  0  0
    8.2576  -11.9879   26.6750 C   0  0  0  0  0  0  0  0  0  0  0  0
    7.2055  -12.9270   26.2181 C   0  0  2  0  0  0  0  0  0  0  0  0
    5.8749  -12.4890   26.8810 C   0  0  0  0  0  0  0  0  0  0  0  0
    7.3745  -14.3655   26.5027 C   0  0  0  0  0  0  0  0  0  0  0  0
    8.5890  -15.0111   25.9743 C   0  0  2  0  0  0  0  0  0  0  0  0
    8.3846  -15.2416   24.5127 N   0  0  0  0  0  0  0  0  0  0  0  0
    9.0076  -16.3000   26.4864 C   0  0  0  0  0  0  0  0  0  0  0  0
    9.0191  -16.4843   27.7593 O   0  0  0  0  0  0  0  0  0  0  0  0
    8.8684  -19.6718   24.4470 O   0  0  0  0  0  0  0  0  0  0  0  0
    9.9510  -19.7429   25.3102 C   0  0  0  0  0  0  0  0  0  0  0  0
    9.8866  -18.6540   26.3886 C   0  0  2  0  0  0  0  0  0  0  0  0
    9.4178  -17.4523   25.7475 N   0  0  0  0  0  0  0  0  0  0  0  0
   11.2240  -18.5809   26.9797 C   0  0  0  0  0  0  0  0  0  0  0  0
   11.9786  -17.6007   27.0111 O   0  0  0  0  0  0  0  0  0  0  0  0
   11.6894  -19.7720   27.5770 O   0  0  0  0  0  0  0  0  0  0  0  0
  2  1  1  0
  3  2  2  0
  4  3  1  0
  5 11  1  0
  5  4  2  0
  6  5  1  0
  7  9  1  0
  7  6  1  0
  7  8  1  1
  9 10  2  0
 11 12  2  0
 12  2  1  0
 14 13  1  1
 15 14  1  0
 16 14  1  0
 17 16  1  1
 18  9  1  0
 18 17  1  0
 19 24  1  0
 19 17  1  0
 20 19  2  0
 22 21  1  0
 23 22  1  6
 23 24  1  0
 25 23  1  0
 25 27  1  0
 26 25  2  0
M  END
$$$$
