YLS.pdb
     RDKit          3D

 27 27  0  0  1  0  0  0  0  0999 V2000
   11.9576  -19.5136   31.6392 O   0  0  0  0  0  0  0  0  0  0  0  0
   11.0221  -19.0728   30.7370 C   0  0  0  0  0  0  0  0  0  0  0  0
   10.2938  -19.9829   29.9606 C   0  0  0  0  0  0  0  0  0  0  0  0
    9.3573  -19.5316   29.0579 C   0  0  0  0  0  0  0  0  0  0  0  0
    9.1268  -18.1852   28.9085 C   0  0  0  0  0  0  0  0  0  0  0  0
    8.1401  -17.7147   27.9606 C   0  0  0  0  0  0  0  0  0  0  0  0
    8.5992  -17.5873   26.5355 C   0  0  2  0  0  0  0  0  0  0  0  0
   10.0322  -17.2250   26.5035 N   0  0  0  0  0  0  0  0  0  0  0  0
    7.8088  -16.6594   25.7110 C   0  0  0  0  0  0  0  0  0  0  0  0
    6.5816  -16.9236   25.5432 O   0  0  0  0  0  0  0  0  0  0  0  0
    9.8345  -17.2755   29.6644 C   0  0  0  0  0  0  0  0  0  0  0  0
   10.7897  -17.7298   30.5855 C   0  0  0  0  0  0  0  0  0  0  0  0
    5.7699  -12.9794   26.4787 C   0  0  0  0  0  0  0  0  0  0  0  0
    7.2245  -13.0247   26.1966 C   0  0  2  0  0  0  0  0  0  0  0  0
    7.8293  -11.6781   26.6683 C   0  0  0  0  0  0  0  0  0  0  0  0
    7.6648  -13.2288   24.8025 C   0  0  0  0  0  0  0  0  0  0  0  0
    7.5196  -14.5869   24.2498 C   0  0  2  0  0  0  0  0  0  0  0  0
    8.3130  -15.5167   25.1086 N   0  0  0  0  0  0  0  0  0  0  0  0
    7.9656  -14.8739   22.9018 C   0  0  0  0  0  0  0  0  0  0  0  0
    7.4255  -14.2361   21.9240 O   0  0  0  0  0  0  0  0  0  0  0  0
   11.5844  -15.7506   21.7181 O   0  0  0  0  0  0  0  0  0  0  0  0
   10.6175  -15.3759   20.7981 C   0  0  0  0  0  0  0  0  0  0  0  0
    9.2674  -16.0410   21.0944 C   0  0  2  0  0  0  0  0  0  0  0  0
    8.9726  -15.7973   22.4831 N   0  0  0  0  0  0  0  0  0  0  0  0
    9.4081  -17.4466   20.7098 C   0  0  0  0  0  0  0  0  0  0  0  0
    9.2267  -18.4419   21.4223 O   0  0  0  0  0  0  0  0  0  0  0  0
    9.7948  -17.6738   19.3715 O   0  0  0  0  0  0  0  0  0  0  0  0
  2  1  1  0
  3  2  2  0
  4  3  1  0
  5 11  1  0
  5  4  2  0
  6  5  1  0
  7  9  1  0
  7  6  1  0
  7  8  1  1
  9 10  2  0
 11 12  2  0
 12  2  1  0
 14 13  1  6
 15 14  1  0
 16 14  1  0
 17 16  1  1
 18  9  1  0
 18 17  1  0
 19 24  1  0
 19 17  1  0
 20 19  2  0
 22 21  1  0
 23 22  1  1
 23 24  1  0
 25 23  1  0
 25 27  1  0
 26 25  2  0
M  END
$$$$
