YLS.pdb
     RDKit          3D

 27 27  0  0  1  0  0  0  0  0999 V2000
   12.6238  -21.0983   31.5775 O   0  0  0  0  0  0  0  0  0  0  0  0
   12.0040  -20.5734   30.4713 C   0  0  0  0  0  0  0  0  0  0  0  0
   11.3845  -21.4104   29.5348 C   0  0  0  0  0  0  0  0  0  0  0  0
   10.7652  -20.8750   28.4278 C   0  0  0  0  0  0  0  0  0  0  0  0
   10.7478  -19.5153   28.2294 C   0  0  0  0  0  0  0  0  0  0  0  0
   10.0939  -18.9560   27.0662 C   0  0  0  0  0  0  0  0  0  0  0  0
    8.6246  -18.6735   27.2047 C   0  0  2  0  0  0  0  0  0  0  0  0
    7.8586  -19.9286   27.0508 N   0  0  0  0  0  0  0  0  0  0  0  0
    8.1065  -17.6331   26.3021 C   0  0  0  0  0  0  0  0  0  0  0  0
    7.5325  -18.0117   25.2387 O   0  0  0  0  0  0  0  0  0  0  0  0
   11.3525  -18.6768   29.1410 C   0  0  0  0  0  0  0  0  0  0  0  0
   11.9849  -19.2169   30.2704 C   0  0  0  0  0  0  0  0  0  0  0  0
    7.8017  -11.4367   26.1170 C   0  0  0  0  0  0  0  0  0  0  0  0
    7.3422  -12.7314   25.5602 C   0  0  2  0  0  0  0  0  0  0  0  0
    5.8100  -12.6278   25.3520 C   0  0  0  0  0  0  0  0  0  0  0  0
    7.5878  -13.9599   26.3409 C   0  0  0  0  0  0  0  0  0  0  0  0
    7.7612  -15.2096   25.5800 C   0  0  2  0  0  0  0  0  0  0  0  0
    8.2006  -16.2695   26.5365 N   0  0  0  0  0  0  0  0  0  0  0  0
    8.7269  -15.2754   24.5021 C   0  0  0  0  0  0  0  0  0  0  0  0
    9.9777  -15.1843   24.7876 O   0  0  0  0  0  0  0  0  0  0  0  0
    8.5831  -17.4853   21.3668 O   0  0  0  0  0  0  0  0  0  0  0  0
    9.7739  -16.8337   21.6485 C   0  0  0  0  0  0  0  0  0  0  0  0
    9.5324  -15.3951   22.1230 C   0  0  2  0  0  0  0  0  0  0  0  0
    8.4798  -15.4456   23.1049 N   0  0  0  0  0  0  0  0  0  0  0  0
    9.2464  -14.6083   20.9219 C   0  0  0  0  0  0  0  0  0  0  0  0
    8.2449  -13.9170   20.6980 O   0  0  0  0  0  0  0  0  0  0  0  0
   10.2354  -14.6551   19.9160 O   0  0  0  0  0  0  0  0  0  0  0  0
  2  1  1  0
  3  2  2  0
  4  3  1  0
  5 11  1  0
  5  4  2  0
  6  5  1  0
  7  9  1  0
  7  6  1  0
  7  8  1  6
  9 10  2  0
 11 12  2  0
 12  2  1  0
 14 13  1  1
 15 14  1  0
 16 14  1  0
 17 16  1  1
 18  9  1  0
 18 17  1  0
 19 24  1  0
 19 17  1  0
 20 19  2  0
 22 21  1  0
 23 22  1  6
 23 24  1  0
 25 23  1  0
 25 27  1  0
 26 25  2  0
M  END
$$$$
