YLS.pdb
     RDKit          3D

 27 27  0  0  1  0  0  0  0  0999 V2000
   11.1811  -14.5964   30.1923 O   0  0  0  0  0  0  0  0  0  0  0  0
   10.4106  -14.7382   29.0656 C   0  0  0  0  0  0  0  0  0  0  0  0
    9.9028  -15.9911   28.7002 C   0  0  0  0  0  0  0  0  0  0  0  0
    9.1306  -16.1240   27.5681 C   0  0  0  0  0  0  0  0  0  0  0  0
    8.8497  -15.0303   26.7848 C   0  0  0  0  0  0  0  0  0  0  0  0
    8.0359  -15.1732   25.5971 C   0  0  0  0  0  0  0  0  0  0  0  0
    8.5849  -16.0684   24.5223 C   0  0  2  0  0  0  0  0  0  0  0  0
   10.0120  -15.7569   24.2943 N   0  0  0  0  0  0  0  0  0  0  0  0
    7.8375  -16.0442   23.2549 C   0  0  0  0  0  0  0  0  0  0  0  0
    6.6208  -16.3945   23.2845 O   0  0  0  0  0  0  0  0  0  0  0  0
    9.3413  -13.7896   27.1296 C   0  0  0  0  0  0  0  0  0  0  0  0
   10.1284  -13.6487   28.2819 C   0  0  0  0  0  0  0  0  0  0  0  0
    7.1282  -12.9728   22.2584 C   0  0  0  0  0  0  0  0  0  0  0  0
    7.9172  -13.2993   21.0466 C   0  0  2  0  0  0  0  0  0  0  0  0
    7.9400  -12.0326   20.1542 C   0  0  0  0  0  0  0  0  0  0  0  0
    7.4674  -14.4175   20.1945 C   0  0  0  0  0  0  0  0  0  0  0  0
    7.6648  -15.7789   20.7223 C   0  0  2  0  0  0  0  0  0  0  0  0
    8.3713  -15.6625   22.0333 N   0  0  0  0  0  0  0  0  0  0  0  0
    8.4494  -16.7407   19.9754 C   0  0  0  0  0  0  0  0  0  0  0  0
    8.1215  -16.9918   18.7572 O   0  0  0  0  0  0  0  0  0  0  0  0
   11.9753  -18.2844   17.7921 O   0  0  0  0  0  0  0  0  0  0  0  0
   11.2242  -17.5098   18.6625 C   0  0  0  0  0  0  0  0  0  0  0  0
   10.3134  -18.3729   19.5449 C   0  0  2  0  0  0  0  0  0  0  0  0
    9.5938  -17.4763   20.4128 N   0  0  0  0  0  0  0  0  0  0  0  0
   11.1848  -19.3424   20.2112 C   0  0  0  0  0  0  0  0  0  0  0  0
   11.9198  -20.1826   19.6772 O   0  0  0  0  0  0  0  0  0  0  0  0
   11.1729  -19.3000   21.6219 O   0  0  0  0  0  0  0  0  0  0  0  0
  2  1  1  0
  3  2  2  0
  4  3  1  0
  5 11  1  0
  5  4  2  0
  6  5  1  0
  7  9  1  0
  7  6  1  0
  7  8  1  6
  9 10  2  0
 11 12  2  0
 12  2  1  0
 14 13  1  1
 15 14  1  0
 16 14  1  0
 17 16  1  6
 18  9  1  0
 18 17  1  0
 19 24  1  0
 19 17  1  0
 20 19  2  0
 22 21  1  0
 23 22  1  6
 23 24  1  0
 25 23  1  0
 25 27  1  0
 26 25  2  0
M  END
$$$$
