YLS.pdb
     RDKit          3D

 27 27  0  0  1  0  0  0  0  0999 V2000
   10.8386  -14.7677   31.1922 O   0  0  0  0  0  0  0  0  0  0  0  0
   10.5600  -15.0102   29.8705 C   0  0  0  0  0  0  0  0  0  0  0  0
   10.7065  -16.2954   29.3336 C   0  0  0  0  0  0  0  0  0  0  0  0
   10.4247  -16.5295   28.0064 C   0  0  0  0  0  0  0  0  0  0  0  0
    9.9972  -15.5065   27.1946 C   0  0  0  0  0  0  0  0  0  0  0  0
    9.6997  -15.7568   25.8009 C   0  0  0  0  0  0  0  0  0  0  0  0
    8.2458  -15.7444   25.4219 C   0  0  2  0  0  0  0  0  0  0  0  0
    7.5380  -16.8365   26.1232 N   0  0  0  0  0  0  0  0  0  0  0  0
    7.9827  -15.7980   23.9750 C   0  0  0  0  0  0  0  0  0  0  0  0
    7.4005  -16.8276   23.5223 O   0  0  0  0  0  0  0  0  0  0  0  0
    9.8474  -14.2355   27.7064 C   0  0  0  0  0  0  0  0  0  0  0  0
   10.1330  -13.9915   29.0577 C   0  0  0  0  0  0  0  0  0  0  0  0
    8.0399  -11.9866   19.0371 C   0  0  0  0  0  0  0  0  0  0  0  0
    7.8914  -13.3410   19.6211 C   0  0  2  0  0  0  0  0  0  0  0  0
    6.4709  -13.8463   19.2625 C   0  0  0  0  0  0  0  0  0  0  0  0
    8.0482  -13.4990   21.0804 C   0  0  0  0  0  0  0  0  0  0  0  0
    8.1135  -14.8768   21.5984 C   0  0  2  0  0  0  0  0  0  0  0  0
    8.3251  -14.8000   23.0751 N   0  0  0  0  0  0  0  0  0  0  0  0
    9.1472  -15.7791   21.1336 C   0  0  0  0  0  0  0  0  0  0  0  0
    8.8183  -16.7407   20.3452 O   0  0  0  0  0  0  0  0  0  0  0  0
   12.2858  -15.1541   19.4397 O   0  0  0  0  0  0  0  0  0  0  0  0
   12.6640  -16.1023   20.3776 C   0  0  0  0  0  0  0  0  0  0  0  0
   11.4468  -16.7890   21.0097 C   0  0  2  0  0  0  0  0  0  0  0  0
   10.5449  -15.7471   21.4291 N   0  0  0  0  0  0  0  0  0  0  0  0
   11.9665  -17.6490   22.0746 C   0  0  0  0  0  0  0  0  0  0  0  0
   11.6815  -17.6095   23.2780 O   0  0  0  0  0  0  0  0  0  0  0  0
   12.8966  -18.6280   21.6642 O   0  0  0  0  0  0  0  0  0  0  0  0
  2  1  1  0
  3  2  2  0
  4  3  1  0
  5 11  1  0
  5  4  2  0
  6  5  1  0
  7  9  1  0
  7  6  1  0
  7  8  1  1
  9 10  2  0
 11 12  2  0
 12  2  1  0
 14 13  1  1
 15 14  1  0
 16 14  1  0
 17 16  1  6
 18  9  1  0
 18 17  1  0
 19 24  1  0
 19 17  1  0
 20 19  2  0
 22 21  1  0
 23 22  1  1
 23 24  1  0
 25 23  1  0
 25 27  1  0
 26 25  2  0
M  END
$$$$
