INI.pdb
     RDKit          3D

 25 24  0  0  1  0  0  0  0  0999 V2000
    8.2536  -12.1101   18.0237 C   0  0  0  0  0  0  0  0  0  0  0  0
    8.3986  -13.5570   18.3292 C   0  0  0  0  0  0  0  0  0  0  0  0
    7.7800  -14.0450   19.5887 C   0  0  2  0  0  0  0  0  0  0  0  0
    8.4719  -13.3392   20.7623 C   0  0  0  0  0  0  0  0  0  0  0  0
    7.8959  -15.5088   19.8310 C   0  0  2  0  0  0  0  0  0  0  0  0
    7.4333  -16.2541   18.7182 N   0  0  0  0  0  0  0  0  0  0  0  0
    7.3706  -15.9464   21.1616 C   0  0  0  0  0  0  0  0  0  0  0  0
    6.1560  -15.7068   21.3913 O   0  0  0  0  0  0  0  0  0  0  0  0
    6.2702  -18.6204   25.7977 N   0  0  0  0  0  0  0  0  0  0  0  0
    7.5810  -18.6503   25.2682 C   0  0  0  0  0  0  0  0  0  0  0  0
    8.5468  -18.8900   26.0289 O   0  0  0  0  0  0  0  0  0  0  0  0
    7.8169  -18.4020   23.8310 C   0  0  0  0  0  0  0  0  0  0  0  0
    7.8224  -16.9347   23.4921 C   0  0  2  0  0  0  0  0  0  0  0  0
    8.1442  -16.5920   22.1388 N   0  0  0  0  0  0  0  0  0  0  0  0
    8.4414  -16.0411   24.4436 C   0  0  0  0  0  0  0  0  0  0  0  0
    9.7031  -15.8388   24.2955 O   0  0  0  0  0  0  0  0  0  0  0  0
    5.8508  -11.9089   27.4458 C   0  0  0  0  0  0  0  0  0  0  0  0
    6.4836  -13.2661   27.1761 C   0  0  0  0  0  0  0  0  0  0  0  0
    7.7813  -13.1247   26.4290 C   0  0  2  0  0  0  0  0  0  0  0  0
    7.4814  -12.4733   25.0979 C   0  0  0  0  0  0  0  0  0  0  0  0
    8.5499  -14.4026   26.3097 C   0  0  2  0  0  0  0  0  0  0  0  0
    7.8198  -15.3764   25.5020 N   0  0  0  0  0  0  0  0  0  0  0  0
    8.9735  -15.0047   27.5935 C   0  0  0  0  0  0  0  0  0  0  0  0
    9.8910  -14.3974   28.4531 O   0  0  0  0  0  0  0  0  0  0  0  0
    8.5111  -16.1027   27.9570 O   0  0  0  0  0  0  0  0  0  0  0  0
  2  1  1  0
  2  3  1  0
  3  5  1  0
  3  4  1  1
  5  6  1  6
  7  5  1  0
  7  8  2  0
 10 12  1  0
 10  9  1  0
 11 10  2  0
 13 12  1  1
 13 14  1  0
 14  7  1  0
 15 13  1  0
 16 15  2  0
 18 17  1  0
 18 19  1  0
 19 21  1  0
 19 20  1  6
 21 22  1  1
 21 23  1  0
 22 15  1  0
 23 25  2  0
 23 24  1  0
M  END
$$$$
