INI.pdb
     RDKit          3D

 25 24  0  0  1  0  0  0  0  0999 V2000
    7.4227  -11.8381   19.2041 C   0  0  0  0  0  0  0  0  0  0  0  0
    7.6603  -13.3047   19.1784 C   0  0  0  0  0  0  0  0  0  0  0  0
    7.6206  -14.0167   20.4817 C   0  0  2  0  0  0  0  0  0  0  0  0
    8.7611  -13.4753   21.3536 C   0  0  0  0  0  0  0  0  0  0  0  0
    7.7919  -15.4932   20.4076 C   0  0  2  0  0  0  0  0  0  0  0  0
    6.9265  -16.0651   19.4423 N   0  0  0  0  0  0  0  0  0  0  0  0
    7.8042  -16.1698   21.7418 C   0  0  0  0  0  0  0  0  0  0  0  0
    6.7002  -16.2447   22.3426 O   0  0  0  0  0  0  0  0  0  0  0  0
   11.1696  -19.7997   25.4545 N   0  0  0  0  0  0  0  0  0  0  0  0
    9.9811  -19.1488   25.0506 C   0  0  0  0  0  0  0  0  0  0  0  0
    9.0426  -19.0171   25.8695 O   0  0  0  0  0  0  0  0  0  0  0  0
    9.8406  -18.6259   23.6759 C   0  0  0  0  0  0  0  0  0  0  0  0
    9.1311  -17.2982   23.6333 C   0  0  2  0  0  0  0  0  0  0  0  0
    8.9540  -16.7089   22.3395 N   0  0  0  0  0  0  0  0  0  0  0  0
    9.4997  -16.3218   24.6321 C   0  0  0  0  0  0  0  0  0  0  0  0
   10.6437  -15.7544   24.4772 O   0  0  0  0  0  0  0  0  0  0  0  0
    6.7359  -12.2068   26.1485 C   0  0  0  0  0  0  0  0  0  0  0  0
    7.8329  -13.2023   25.8008 C   0  0  0  0  0  0  0  0  0  0  0  0
    8.3442  -13.9025   27.0298 C   0  0  2  0  0  0  0  0  0  0  0  0
    8.9026  -12.8523   27.9633 C   0  0  0  0  0  0  0  0  0  0  0  0
    9.3037  -15.0120   26.7356 C   0  0  2  0  0  0  0  0  0  0  0  0
    8.7506  -15.9297   25.7428 N   0  0  0  0  0  0  0  0  0  0  0  0
    9.7875  -15.7564   27.9197 C   0  0  0  0  0  0  0  0  0  0  0  0
   10.9464  -15.4084   28.6164 O   0  0  0  0  0  0  0  0  0  0  0  0
    9.1575  -16.7440   28.3432 O   0  0  0  0  0  0  0  0  0  0  0  0
  2  1  1  0
  2  3  1  0
  3  5  1  0
  3  4  1  1
  5  6  1  6
  7  5  1  0
  7  8  2  0
 10 12  1  0
 10  9  1  0
 11 10  2  0
 13 12  1  6
 13 14  1  0
 14  7  1  0
 15 13  1  0
 16 15  2  0
 18 17  1  0
 18 19  1  0
 19 21  1  0
 19 20  1  1
 21 22  1  6
 21 23  1  0
 22 15  1  0
 23 25  2  0
 23 24  1  0
M  END
$$$$
