INI.pdb
     RDKit          3D

 25 24  0  0  1  0  0  0  0  0999 V2000
    7.6723  -11.6074   18.5747 C   0  0  0  0  0  0  0  0  0  0  0  0
    8.0455  -13.0433   18.4907 C   0  0  0  0  0  0  0  0  0  0  0  0
    7.9932  -13.8280   19.7510 C   0  0  2  0  0  0  0  0  0  0  0  0
    9.0092  -13.2238   20.7292 C   0  0  0  0  0  0  0  0  0  0  0  0
    8.3233  -15.2729   19.6171 C   0  0  2  0  0  0  0  0  0  0  0  0
    7.6302  -15.8619   18.5305 N   0  0  0  0  0  0  0  0  0  0  0  0
    8.2623  -16.0306   20.9056 C   0  0  0  0  0  0  0  0  0  0  0  0
    7.1130  -16.2856   21.3523 O   0  0  0  0  0  0  0  0  0  0  0  0
   10.9486  -19.5114   21.0267 N   0  0  0  0  0  0  0  0  0  0  0  0
   10.1395  -19.2904   22.1651 C   0  0  0  0  0  0  0  0  0  0  0  0
    9.1622  -20.0433   22.3812 O   0  0  0  0  0  0  0  0  0  0  0  0
   10.4386  -18.1828   23.0960 C   0  0  0  0  0  0  0  0  0  0  0  0
    9.4935  -17.0216   22.9340 C   0  0  2  0  0  0  0  0  0  0  0  0
    9.3919  -16.4580   21.6207 N   0  0  0  0  0  0  0  0  0  0  0  0
    9.5127  -16.0078   23.9630 C   0  0  0  0  0  0  0  0  0  0  0  0
   10.4946  -15.1776   23.9246 O   0  0  0  0  0  0  0  0  0  0  0  0
    6.6871  -11.6605   26.7805 C   0  0  0  0  0  0  0  0  0  0  0  0
    7.7529  -12.7244   26.9986 C   0  0  0  0  0  0  0  0  0  0  0  0
    7.6030  -13.8561   26.0194 C   0  0  2  0  0  0  0  0  0  0  0  0
    6.2823  -14.5377   26.2972 C   0  0  0  0  0  0  0  0  0  0  0  0
    8.7679  -14.7945   26.0006 C   0  0  2  0  0  0  0  0  0  0  0  0
    8.5840  -15.8334   24.9903 N   0  0  0  0  0  0  0  0  0  0  0  0
    9.1132  -15.3957   27.3081 C   0  0  0  0  0  0  0  0  0  0  0  0
    8.9423  -16.7522   27.5911 O   0  0  0  0  0  0  0  0  0  0  0  0
    9.5804  -14.6899   28.2219 O   0  0  0  0  0  0  0  0  0  0  0  0
  2  1  1  0
  2  3  1  0
  3  5  1  0
  3  4  1  1
  5  6  1  6
  7  5  1  0
  7  8  2  0
 10 12  1  0
 10  9  1  0
 11 10  2  0
 13 12  1  6
 13 14  1  0
 14  7  1  0
 15 13  1  0
 16 15  2  0
 18 17  1  0
 18 19  1  0
 19 21  1  0
 19 20  1  1
 21 22  1  6
 21 23  1  0
 22 15  1  0
 23 25  2  0
 23 24  1  0
M  END
$$$$
