INI.pdb
     RDKit          3D

 25 24  0  0  1  0  0  0  0  0999 V2000
    7.5836  -11.7843   19.3165 C   0  0  0  0  0  0  0  0  0  0  0  0
    7.8671  -13.2424   19.2734 C   0  0  0  0  0  0  0  0  0  0  0  0
    7.8313  -13.9742   20.5657 C   0  0  2  0  0  0  0  0  0  0  0  0
    8.9200  -13.3879   21.4740 C   0  0  0  0  0  0  0  0  0  0  0  0
    8.0803  -15.4388   20.4766 C   0  0  2  0  0  0  0  0  0  0  0  0
    7.2514  -16.0445   19.4998 N   0  0  0  0  0  0  0  0  0  0  0  0
    8.1206  -16.1287   21.8034 C   0  0  0  0  0  0  0  0  0  0  0  0
    7.0090  -16.4214   22.3172 O   0  0  0  0  0  0  0  0  0  0  0  0
   11.5464  -19.4711   25.5963 N   0  0  0  0  0  0  0  0  0  0  0  0
   10.3074  -19.0229   25.0828 C   0  0  0  0  0  0  0  0  0  0  0  0
    9.2715  -19.1512   25.7752 O   0  0  0  0  0  0  0  0  0  0  0  0
   10.2280  -18.4073   23.7421 C   0  0  0  0  0  0  0  0  0  0  0  0
    9.4918  -17.0937   23.7529 C   0  0  2  0  0  0  0  0  0  0  0  0
    9.3038  -16.4553   22.4842 N   0  0  0  0  0  0  0  0  0  0  0  0
    9.8398  -16.1519   24.7916 C   0  0  0  0  0  0  0  0  0  0  0  0
   10.8800  -15.4265   24.5758 O   0  0  0  0  0  0  0  0  0  0  0  0
    6.6087  -12.5894   26.4866 C   0  0  0  0  0  0  0  0  0  0  0  0
    7.8225  -13.4129   26.0819 C   0  0  0  0  0  0  0  0  0  0  0  0
    8.5222  -13.9819   27.2855 C   0  0  2  0  0  0  0  0  0  0  0  0
    8.9636  -12.8262   28.1547 C   0  0  0  0  0  0  0  0  0  0  0  0
    9.6274  -14.9316   26.9467 C   0  0  2  0  0  0  0  0  0  0  0  0
    9.1712  -15.9456   25.9994 N   0  0  0  0  0  0  0  0  0  0  0  0
   10.2909  -15.5654   28.1079 C   0  0  0  0  0  0  0  0  0  0  0  0
   11.3655  -14.9823   28.7823 O   0  0  0  0  0  0  0  0  0  0  0  0
    9.8996  -16.6695   28.5313 O   0  0  0  0  0  0  0  0  0  0  0  0
  2  1  1  0
  2  3  1  0
  3  5  1  0
  3  4  1  1
  5  6  1  6
  7  5  1  0
  7  8  2  0
 10 12  1  0
 10  9  1  0
 11 10  2  0
 13 12  1  6
 13 14  1  0
 14  7  1  0
 15 13  1  0
 16 15  2  0
 18 17  1  0
 18 19  1  0
 19 21  1  0
 19 20  1  6
 21 22  1  6
 21 23  1  0
 22 15  1  0
 23 25  2  0
 23 24  1  0
M  END
$$$$
