INI.pdb
     RDKit          3D

 25 24  0  0  1  0  0  0  0  0999 V2000
    7.4421  -11.8142   19.3972 C   0  0  0  0  0  0  0  0  0  0  0  0
    7.6381  -13.2869   19.4284 C   0  0  0  0  0  0  0  0  0  0  0  0
    7.7963  -13.9175   20.7642 C   0  0  2  0  0  0  0  0  0  0  0  0
    9.0536  -13.3318   21.4201 C   0  0  0  0  0  0  0  0  0  0  0  0
    7.9577  -15.3969   20.7562 C   0  0  2  0  0  0  0  0  0  0  0  0
    6.9503  -16.0216   19.9798 N   0  0  0  0  0  0  0  0  0  0  0  0
    8.1857  -15.9891   22.1110 C   0  0  0  0  0  0  0  0  0  0  0  0
    7.1759  -16.0889   22.8564 O   0  0  0  0  0  0  0  0  0  0  0  0
   10.8544  -19.8116   25.6469 N   0  0  0  0  0  0  0  0  0  0  0  0
   11.2394  -18.5479   25.1425 C   0  0  0  0  0  0  0  0  0  0  0  0
   11.9450  -17.7920   25.8494 O   0  0  0  0  0  0  0  0  0  0  0  0
   10.8170  -18.1164   23.7941 C   0  0  0  0  0  0  0  0  0  0  0  0
    9.7973  -17.0090   23.8356 C   0  0  2  0  0  0  0  0  0  0  0  0
    9.4352  -16.4255   22.5783 N   0  0  0  0  0  0  0  0  0  0  0  0
    9.9438  -16.0172   24.8757 C   0  0  0  0  0  0  0  0  0  0  0  0
   10.8025  -15.0851   24.6553 O   0  0  0  0  0  0  0  0  0  0  0  0
    6.3381  -12.8871   26.3830 C   0  0  0  0  0  0  0  0  0  0  0  0
    7.6874  -13.5224   26.0814 C   0  0  0  0  0  0  0  0  0  0  0  0
    8.3154  -14.0869   27.3260 C   0  0  2  0  0  0  0  0  0  0  0  0
    8.5529  -12.9427   28.2854 C   0  0  0  0  0  0  0  0  0  0  0  0
    9.5364  -14.9108   27.0640 C   0  0  2  0  0  0  0  0  0  0  0  0
    9.2564  -15.9621   26.0893 N   0  0  0  0  0  0  0  0  0  0  0  0
   10.1840  -15.4769   28.2683 C   0  0  0  0  0  0  0  0  0  0  0  0
   10.1632  -16.8389   28.5747 O   0  0  0  0  0  0  0  0  0  0  0  0
   10.7850  -14.7345   29.0679 O   0  0  0  0  0  0  0  0  0  0  0  0
  2  1  1  0
  2  3  1  0
  3  5  1  0
  3  4  1  6
  5  6  1  1
  7  5  1  0
  7  8  2  0
 10 12  1  0
 10  9  1  0
 11 10  2  0
 13 12  1  6
 13 14  1  0
 14  7  1  0
 15 13  1  0
 16 15  2  0
 18 17  1  0
 18 19  1  0
 19 21  1  0
 19 20  1  1
 21 22  1  6
 21 23  1  0
 22 15  1  0
 23 25  2  0
 23 24  1  0
M  END
$$$$
