INI.pdb
     RDKit          3D

 25 24  0  0  1  0  0  0  0  0999 V2000
    7.2390  -12.5468   18.0358 C   0  0  0  0  0  0  0  0  0  0  0  0
    7.9904  -13.6716   18.6508 C   0  0  0  0  0  0  0  0  0  0  0  0
    7.6831  -13.9917   20.0686 C   0  0  2  0  0  0  0  0  0  0  0  0
    8.0329  -12.7638   20.9194 C   0  0  0  0  0  0  0  0  0  0  0  0
    8.4316  -15.1447   20.6390 C   0  0  2  0  0  0  0  0  0  0  0  0
    8.4441  -16.2444   19.7455 N   0  0  0  0  0  0  0  0  0  0  0  0
    8.0618  -15.4681   22.0521 C   0  0  0  0  0  0  0  0  0  0  0  0
    7.6050  -14.5199   22.7432 O   0  0  0  0  0  0  0  0  0  0  0  0
    6.2175  -19.2016   26.0571 N   0  0  0  0  0  0  0  0  0  0  0  0
    7.5360  -19.0271   25.5769 C   0  0  0  0  0  0  0  0  0  0  0  0
    8.5016  -19.1801   26.3600 O   0  0  0  0  0  0  0  0  0  0  0  0
    7.7802  -18.6678   24.1648 C   0  0  0  0  0  0  0  0  0  0  0  0
    7.9230  -17.1822   23.9638 C   0  0  2  0  0  0  0  0  0  0  0  0
    8.1964  -16.7407   22.6285 N   0  0  0  0  0  0  0  0  0  0  0  0
    8.6918  -16.4551   24.9473 C   0  0  0  0  0  0  0  0  0  0  0  0
    9.9438  -16.3053   24.6926 O   0  0  0  0  0  0  0  0  0  0  0  0
    6.7779  -12.0391   26.8578 C   0  0  0  0  0  0  0  0  0  0  0  0
    7.7394  -13.0876   26.3179 C   0  0  0  0  0  0  0  0  0  0  0  0
    8.4038  -13.8454   27.4343 C   0  0  2  0  0  0  0  0  0  0  0  0
    9.3062  -12.8841   28.1744 C   0  0  0  0  0  0  0  0  0  0  0  0
    9.0981  -15.0925   26.9861 C   0  0  2  0  0  0  0  0  0  0  0  0
    8.2237  -15.9001   26.1395 N   0  0  0  0  0  0  0  0  0  0  0  0
    9.6767  -15.9156   28.0714 C   0  0  0  0  0  0  0  0  0  0  0  0
   10.9260  -15.6576   28.6391 O   0  0  0  0  0  0  0  0  0  0  0  0
    9.0489  -16.8912   28.5247 O   0  0  0  0  0  0  0  0  0  0  0  0
  2  1  1  0
  2  3  1  0
  3  5  1  0
  3  4  1  1
  5  6  1  6
  7  5  1  0
  7  8  2  0
 10 12  1  0
 10  9  1  0
 11 10  2  0
 13 12  1  6
 13 14  1  0
 14  7  1  0
 15 13  1  0
 16 15  2  0
 18 17  1  0
 18 19  1  0
 19 21  1  0
 19 20  1  6
 21 22  1  1
 21 23  1  0
 22 15  1  0
 23 25  2  0
 23 24  1  0
M  END
$$$$
