INI.pdb
     RDKit          3D

 25 24  0  0  1  0  0  0  0  0999 V2000
    7.5085  -11.9546   19.0658 C   0  0  0  0  0  0  0  0  0  0  0  0
    7.7990  -13.4108   19.1220 C   0  0  0  0  0  0  0  0  0  0  0  0
    7.7087  -14.0651   20.4528 C   0  0  2  0  0  0  0  0  0  0  0  0
    8.7646  -13.4299   21.3670 C   0  0  0  0  0  0  0  0  0  0  0  0
    7.9524  -15.5332   20.4598 C   0  0  2  0  0  0  0  0  0  0  0  0
    7.1527  -16.1935   19.4942 N   0  0  0  0  0  0  0  0  0  0  0  0
    7.9455  -16.1423   21.8262 C   0  0  0  0  0  0  0  0  0  0  0  0
    6.8158  -16.3435   22.3446 O   0  0  0  0  0  0  0  0  0  0  0  0
   11.2689  -19.2041   25.8781 N   0  0  0  0  0  0  0  0  0  0  0  0
   10.0141  -18.9380   25.2831 C   0  0  0  0  0  0  0  0  0  0  0  0
    8.9661  -19.1527   25.9346 O   0  0  0  0  0  0  0  0  0  0  0  0
    9.9323  -18.4110   23.9053 C   0  0  0  0  0  0  0  0  0  0  0  0
    9.2474  -17.0714   23.8395 C   0  0  2  0  0  0  0  0  0  0  0  0
    9.1041  -16.4895   22.5382 N   0  0  0  0  0  0  0  0  0  0  0  0
    9.6154  -16.0936   24.8372 C   0  0  0  0  0  0  0  0  0  0  0  0
   10.6382  -15.3621   24.5659 O   0  0  0  0  0  0  0  0  0  0  0  0
    6.4471  -12.4836   26.6879 C   0  0  0  0  0  0  0  0  0  0  0  0
    7.6554  -13.2819   26.2208 C   0  0  0  0  0  0  0  0  0  0  0  0
    8.3803  -13.9046   27.3821 C   0  0  2  0  0  0  0  0  0  0  0  0
    8.8394  -12.7895   28.2942 C   0  0  0  0  0  0  0  0  0  0  0  0
    9.4787  -14.8362   26.9770 C   0  0  2  0  0  0  0  0  0  0  0  0
    8.9828  -15.8586   26.0591 N   0  0  0  0  0  0  0  0  0  0  0  0
   10.2216  -15.4578   28.0959 C   0  0  0  0  0  0  0  0  0  0  0  0
   11.2730  -14.8211   28.7583 O   0  0  0  0  0  0  0  0  0  0  0  0
    9.9230  -16.6002   28.4923 O   0  0  0  0  0  0  0  0  0  0  0  0
  2  1  1  0
  2  3  1  0
  3  5  1  0
  3  4  1  1
  5  6  1  6
  7  5  1  0
  7  8  2  0
 10 12  1  0
 10  9  1  0
 11 10  2  0
 13 12  1  6
 13 14  1  0
 14  7  1  0
 15 13  1  0
 16 15  2  0
 18 17  1  0
 18 19  1  0
 19 21  1  0
 19 20  1  1
 21 22  1  1
 21 23  1  0
 22 15  1  0
 23 25  2  0
 23 24  1  0
M  END
$$$$
