INI.pdb
     RDKit          3D

 25 24  0  0  1  0  0  0  0  0999 V2000
    7.6737  -11.9731   19.1450 C   0  0  0  0  0  0  0  0  0  0  0  0
    7.7963  -13.4511   19.2375 C   0  0  0  0  0  0  0  0  0  0  0  0
    7.5664  -14.0641   20.5710 C   0  0  2  0  0  0  0  0  0  0  0  0
    8.6191  -13.5064   21.5380 C   0  0  0  0  0  0  0  0  0  0  0  0
    7.6739  -15.5478   20.6183 C   0  0  2  0  0  0  0  0  0  0  0  0
    6.8817  -16.1546   19.6123 N   0  0  0  0  0  0  0  0  0  0  0  0
    7.5222  -16.1231   21.9909 C   0  0  0  0  0  0  0  0  0  0  0  0
    6.3871  -16.0101   22.5239 O   0  0  0  0  0  0  0  0  0  0  0  0
    8.0103  -19.7585   26.3039 N   0  0  0  0  0  0  0  0  0  0  0  0
    9.0608  -19.0660   25.6586 C   0  0  0  0  0  0  0  0  0  0  0  0
   10.0916  -18.7699   26.3056 O   0  0  0  0  0  0  0  0  0  0  0  0
    8.9505  -18.6920   24.2335 C   0  0  0  0  0  0  0  0  0  0  0  0
    8.5936  -17.2414   24.0436 C   0  0  2  0  0  0  0  0  0  0  0  0
    8.5547  -16.7637   22.6935 N   0  0  0  0  0  0  0  0  0  0  0  0
    9.2047  -16.2894   24.9421 C   0  0  0  0  0  0  0  0  0  0  0  0
   10.2907  -15.7360   24.5309 O   0  0  0  0  0  0  0  0  0  0  0  0
    6.4690  -12.4480   27.0975 C   0  0  0  0  0  0  0  0  0  0  0  0
    7.5415  -13.3251   26.4683 C   0  0  0  0  0  0  0  0  0  0  0  0
    8.4823  -13.8680   27.5086 C   0  0  2  0  0  0  0  0  0  0  0  0
    9.1558  -12.6940   28.1826 C   0  0  0  0  0  0  0  0  0  0  0  0
    9.4431  -14.8854   26.9794 C   0  0  2  0  0  0  0  0  0  0  0  0
    8.7450  -15.9074   26.2035 N   0  0  0  0  0  0  0  0  0  0  0  0
   10.3196  -15.5112   27.9944 C   0  0  0  0  0  0  0  0  0  0  0  0
   11.4856  -14.9076   28.4695 O   0  0  0  0  0  0  0  0  0  0  0  0
   10.0358  -16.6271   28.4697 O   0  0  0  0  0  0  0  0  0  0  0  0
  2  1  1  0
  2  3  1  0
  3  5  1  0
  3  4  1  1
  5  6  1  6
  7  5  1  0
  7  8  2  0
 10 12  1  0
 10  9  1  0
 11 10  2  0
 13 12  1  6
 13 14  1  0
 14  7  1  0
 15 13  1  0
 16 15  2  0
 18 17  1  0
 18 19  1  0
 19 21  1  0
 19 20  1  6
 21 22  1  1
 21 23  1  0
 22 15  1  0
 23 25  2  0
 23 24  1  0
M  END
$$$$
