INI.pdb
     RDKit          3D

 25 24  0  0  1  0  0  0  0  0999 V2000
    7.6392  -11.9241   18.7110 C   0  0  0  0  0  0  0  0  0  0  0  0
    7.8043  -13.3948   18.8451 C   0  0  0  0  0  0  0  0  0  0  0  0
    7.8768  -13.9417   20.2245 C   0  0  2  0  0  0  0  0  0  0  0  0
    9.1079  -13.3363   20.9115 C   0  0  0  0  0  0  0  0  0  0  0  0
    8.0088  -15.4211   20.3181 C   0  0  2  0  0  0  0  0  0  0  0  0
    7.0398  -16.0771   19.5190 N   0  0  0  0  0  0  0  0  0  0  0  0
    8.1396  -15.9306   21.7186 C   0  0  0  0  0  0  0  0  0  0  0  0
    7.1050  -15.8757   22.4341 O   0  0  0  0  0  0  0  0  0  0  0  0
   10.0393  -19.7902   25.4914 N   0  0  0  0  0  0  0  0  0  0  0  0
   10.7551  -18.6947   24.9559 C   0  0  0  0  0  0  0  0  0  0  0  0
   11.6202  -18.1222   25.6579 O   0  0  0  0  0  0  0  0  0  0  0  0
   10.4904  -18.2240   23.5806 C   0  0  0  0  0  0  0  0  0  0  0  0
    9.5794  -17.0254   23.5463 C   0  0  2  0  0  0  0  0  0  0  0  0
    9.3260  -16.4512   22.2584 N   0  0  0  0  0  0  0  0  0  0  0  0
    9.7763  -16.0187   24.5635 C   0  0  0  0  0  0  0  0  0  0  0  0
   10.6354  -15.0997   24.2948 O   0  0  0  0  0  0  0  0  0  0  0  0
    6.0074  -13.2144   26.7548 C   0  0  0  0  0  0  0  0  0  0  0  0
    7.3331  -13.6958   26.1838 C   0  0  0  0  0  0  0  0  0  0  0  0
    8.2393  -14.2116   27.2677 C   0  0  2  0  0  0  0  0  0  0  0  0
    8.5218  -13.0702   28.2181 C   0  0  0  0  0  0  0  0  0  0  0  0
    9.4744  -14.8804   26.7525 C   0  0  2  0  0  0  0  0  0  0  0  0
    9.1371  -15.9368   25.8017 N   0  0  0  0  0  0  0  0  0  0  0  0
   10.3942  -15.3915   27.7932 C   0  0  0  0  0  0  0  0  0  0  0  0
   10.4370  -16.7326   28.1793 O   0  0  0  0  0  0  0  0  0  0  0  0
   11.1808  -14.6190   28.3728 O   0  0  0  0  0  0  0  0  0  0  0  0
  2  1  1  0
  2  3  1  0
  3  5  1  0
  3  4  1  6
  5  6  1  1
  7  5  1  0
  7  8  2  0
 10 12  1  0
 10  9  1  0
 11 10  2  0
 13 12  1  6
 13 14  1  0
 14  7  1  0
 15 13  1  0
 16 15  2  0
 18 17  1  0
 18 19  1  0
 19 21  1  0
 19 20  1  1
 21 22  1  6
 21 23  1  0
 22 15  1  0
 23 25  2  0
 23 24  1  0
M  END
$$$$
