INI.pdb
     RDKit          3D

 25 24  0  0  1  0  0  0  0  0999 V2000
    8.1190  -11.6823   19.6462 C   0  0  0  0  0  0  0  0  0  0  0  0
    7.9996  -13.1495   19.4429 C   0  0  0  0  0  0  0  0  0  0  0  0
    9.1747  -13.9790   19.8143 C   0  0  2  0  0  0  0  0  0  0  0  0
   10.3228  -13.6315   18.8576 C   0  0  0  0  0  0  0  0  0  0  0  0
    8.9686  -15.4506   19.7314 C   0  0  2  0  0  0  0  0  0  0  0  0
    8.7537  -15.8669   18.3941 N   0  0  0  0  0  0  0  0  0  0  0  0
    7.9962  -15.9840   20.7354 C   0  0  0  0  0  0  0  0  0  0  0  0
    6.9870  -16.5808   20.2763 O   0  0  0  0  0  0  0  0  0  0  0  0
    7.4516  -19.4639   24.4119 N   0  0  0  0  0  0  0  0  0  0  0  0
    8.7184  -19.1746   23.8541 C   0  0  0  0  0  0  0  0  0  0  0  0
    9.7279  -19.7900   24.2673 O   0  0  0  0  0  0  0  0  0  0  0  0
    8.8573  -18.1564   22.7925 C   0  0  0  0  0  0  0  0  0  0  0  0
    8.1822  -16.8577   23.1466 C   0  0  2  0  0  0  0  0  0  0  0  0
    8.1496  -15.8543   22.1245 N   0  0  0  0  0  0  0  0  0  0  0  0
    8.4663  -16.3011   24.4491 C   0  0  0  0  0  0  0  0  0  0  0  0
    8.5234  -17.1379   25.4245 O   0  0  0  0  0  0  0  0  0  0  0  0
    5.5378  -12.6954   26.2268 C   0  0  0  0  0  0  0  0  0  0  0  0
    6.6867  -13.4991   25.6355 C   0  0  0  0  0  0  0  0  0  0  0  0
    7.8039  -13.6661   26.6284 C   0  0  2  0  0  0  0  0  0  0  0  0
    8.2557  -12.2875   27.0544 C   0  0  0  0  0  0  0  0  0  0  0  0
    8.9186  -14.5363   26.1401 C   0  0  2  0  0  0  0  0  0  0  0  0
    8.6846  -14.9583   24.7614 N   0  0  0  0  0  0  0  0  0  0  0  0
    9.2272  -15.7035   26.9961 C   0  0  0  0  0  0  0  0  0  0  0  0
   10.0218  -15.6188   28.1411 O   0  0  0  0  0  0  0  0  0  0  0  0
    8.7745  -16.8289   26.7134 O   0  0  0  0  0  0  0  0  0  0  0  0
  2  1  1  0
  2  3  1  0
  3  5  1  0
  3  4  1  6
  5  6  1  6
  7  5  1  0
  7  8  2  0
 10 12  1  0
 10  9  1  0
 11 10  2  0
 13 12  1  6
 13 14  1  0
 14  7  1  0
 15 13  1  0
 16 15  2  0
 18 17  1  0
 18 19  1  0
 19 21  1  0
 19 20  1  6
 21 22  1  6
 21 23  1  0
 22 15  1  0
 23 25  2  0
 23 24  1  0
M  END
$$$$
