INI.pdb
     RDKit          3D

 25 24  0  0  1  0  0  0  0  0999 V2000
    7.6172  -11.8822   19.0046 C   0  0  0  0  0  0  0  0  0  0  0  0
    7.9781  -13.3231   19.0445 C   0  0  0  0  0  0  0  0  0  0  0  0
    7.8277  -14.0196   20.3480 C   0  0  2  0  0  0  0  0  0  0  0  0
    8.7748  -13.3534   21.3546 C   0  0  0  0  0  0  0  0  0  0  0  0
    8.1545  -15.4715   20.3371 C   0  0  2  0  0  0  0  0  0  0  0  0
    7.5046  -16.1385   19.2691 N   0  0  0  0  0  0  0  0  0  0  0  0
    8.0344  -16.1300   21.6750 C   0  0  0  0  0  0  0  0  0  0  0  0
    6.8660  -16.3102   22.1084 O   0  0  0  0  0  0  0  0  0  0  0  0
    8.3883  -20.3717   22.9032 N   0  0  0  0  0  0  0  0  0  0  0  0
    9.3837  -19.3821   22.7320 C   0  0  0  0  0  0  0  0  0  0  0  0
    9.9358  -19.2511   21.6154 O   0  0  0  0  0  0  0  0  0  0  0  0
    9.7740  -18.5064   23.8562 C   0  0  0  0  0  0  0  0  0  0  0  0
    9.1670  -17.1320   23.7547 C   0  0  2  0  0  0  0  0  0  0  0  0
    9.1298  -16.5439   22.4489 N   0  0  0  0  0  0  0  0  0  0  0  0
    9.5292  -16.1748   24.7743 C   0  0  0  0  0  0  0  0  0  0  0  0
   10.6235  -15.5265   24.5820 O   0  0  0  0  0  0  0  0  0  0  0  0
    6.5507  -12.3477   26.6139 C   0  0  0  0  0  0  0  0  0  0  0  0
    7.6856  -13.2532   26.1587 C   0  0  0  0  0  0  0  0  0  0  0  0
    8.3418  -13.9356   27.3274 C   0  0  2  0  0  0  0  0  0  0  0  0
    8.8807  -12.8635   28.2474 C   0  0  0  0  0  0  0  0  0  0  0  0
    9.3638  -14.9547   26.9336 C   0  0  2  0  0  0  0  0  0  0  0  0
    8.8221  -15.8794   25.9410 N   0  0  0  0  0  0  0  0  0  0  0  0
    9.9769  -15.6979   28.0570 C   0  0  0  0  0  0  0  0  0  0  0  0
   11.0652  -15.2143   28.7858 O   0  0  0  0  0  0  0  0  0  0  0  0
    9.5279  -16.8091   28.3965 O   0  0  0  0  0  0  0  0  0  0  0  0
  2  1  1  0
  2  3  1  0
  3  5  1  0
  3  4  1  1
  5  6  1  6
  7  5  1  0
  7  8  2  0
 10 12  1  0
 10  9  1  0
 11 10  2  0
 13 12  1  6
 13 14  1  0
 14  7  1  0
 15 13  1  0
 16 15  2  0
 18 17  1  0
 18 19  1  0
 19 21  1  0
 19 20  1  1
 21 22  1  6
 21 23  1  0
 22 15  1  0
 23 25  2  0
 23 24  1  0
M  END
$$$$
