INI.pdb
     RDKit          3D

 25 24  0  0  1  0  0  0  0  0999 V2000
    7.7356  -11.9198   20.8885 C   0  0  0  0  0  0  0  0  0  0  0  0
    7.4835  -13.3811   20.7913 C   0  0  0  0  0  0  0  0  0  0  0  0
    8.6180  -14.2327   20.3504 C   0  0  2  0  0  0  0  0  0  0  0  0
    8.9687  -13.8471   18.9074 C   0  0  0  0  0  0  0  0  0  0  0  0
    8.3569  -15.6978   20.3589 C   0  0  2  0  0  0  0  0  0  0  0  0
    7.3609  -16.0497   19.4144 N   0  0  0  0  0  0  0  0  0  0  0  0
    8.1774  -16.2737   21.7279 C   0  0  0  0  0  0  0  0  0  0  0  0
    7.0114  -16.2402   22.2018 O   0  0  0  0  0  0  0  0  0  0  0  0
   10.6799  -19.9501   25.8565 N   0  0  0  0  0  0  0  0  0  0  0  0
    9.5248  -19.3552   25.2986 C   0  0  0  0  0  0  0  0  0  0  0  0
    8.4919  -19.2419   25.9979 O   0  0  0  0  0  0  0  0  0  0  0  0
    9.5292  -18.8689   23.9034 C   0  0  0  0  0  0  0  0  0  0  0  0
    9.1938  -17.4044   23.8017 C   0  0  2  0  0  0  0  0  0  0  0  0
    9.2164  -16.8327   22.4882 N   0  0  0  0  0  0  0  0  0  0  0  0
    9.7749  -16.5252   24.7898 C   0  0  0  0  0  0  0  0  0  0  0  0
   10.8943  -15.9759   24.4735 O   0  0  0  0  0  0  0  0  0  0  0  0
    7.8801  -12.2151   26.6843 C   0  0  0  0  0  0  0  0  0  0  0  0
    8.8077  -13.3333   26.2321 C   0  0  0  0  0  0  0  0  0  0  0  0
    9.2476  -14.1811   27.3939 C   0  0  2  0  0  0  0  0  0  0  0  0
    9.9902  -13.2896   28.3635 C   0  0  0  0  0  0  0  0  0  0  0  0
   10.0168  -15.4000   26.9930 C   0  0  2  0  0  0  0  0  0  0  0  0
    9.2542  -16.2093   26.0457 N   0  0  0  0  0  0  0  0  0  0  0  0
   10.5049  -16.2334   28.1143 C   0  0  0  0  0  0  0  0  0  0  0  0
   11.7224  -16.0051   28.7586 O   0  0  0  0  0  0  0  0  0  0  0  0
    9.8252  -17.1909   28.5296 O   0  0  0  0  0  0  0  0  0  0  0  0
  2  1  1  0
  2  3  1  0
  3  5  1  0
  3  4  1  6
  5  6  1  6
  7  5  1  0
  7  8  2  0
 10 12  1  0
 10  9  1  0
 11 10  2  0
 13 12  1  6
 13 14  1  0
 14  7  1  0
 15 13  1  0
 16 15  2  0
 18 17  1  0
 18 19  1  0
 19 21  1  0
 19 20  1  1
 21 22  1  6
 21 23  1  0
 22 15  1  0
 23 25  2  0
 23 24  1  0
M  END
$$$$
