WII.pdb
     RDKit          3D

 31 32  0  0  1  0  0  0  0  0999 V2000
   25.5132  -20.9622  -17.0973 N   0  0  0  0  0  0  0  0  0  0  0  0
   26.0850  -20.0764  -16.1454 C   0  0  1  0  0  0  0  0  0  0  0  0
   25.4041  -18.7647  -15.9607 C   0  0  0  0  0  0  0  0  0  0  0  0
   25.4951  -17.9978  -17.2429 C   0  0  0  0  0  0  0  0  0  0  0  0
   24.4246  -17.6504  -18.0695 C   0  0  0  0  0  0  0  0  0  0  0  0
   24.8922  -16.9481  -19.1107 N   0  0  0  0  0  0  0  0  0  0  0  0
   26.2248  -16.8106  -19.0182 C   0  0  0  0  0  0  0  0  0  0  0  0
   27.1631  -16.1817  -19.8379 C   0  0  0  0  0  0  0  0  0  0  0  0
   28.4876  -16.2161  -19.4783 C   0  0  0  0  0  0  0  0  0  0  0  0
   28.8532  -16.8666  -18.3254 C   0  0  0  0  0  0  0  0  0  0  0  0
   27.9495  -17.4964  -17.4961 C   0  0  0  0  0  0  0  0  0  0  0  0
   26.6096  -17.4648  -17.8528 C   0  0  0  0  0  0  0  0  0  0  0  0
   26.2525  -20.7987  -14.8325 C   0  0  0  0  0  0  0  0  0  0  0  0
   25.3846  -21.6350  -14.4867 O   0  0  0  0  0  0  0  0  0  0  0  0
   30.8505  -22.0194  -11.0713 C   0  0  0  0  0  0  0  0  0  0  0  0
   29.3128  -22.0519  -11.1358 C   0  0  0  0  0  0  0  0  0  0  0  0
   28.9033  -21.3481  -12.3818 C   0  0  2  0  0  0  0  0  0  0  0  0
   29.5589  -20.0103  -12.5597 C   0  0  0  0  0  0  0  0  0  0  0  0
   27.4441  -21.2793  -12.6697 C   0  0  2  0  0  0  0  0  0  0  0  0
   27.3398  -20.5771  -13.9747 N   0  0  0  0  0  0  0  0  0  0  0  0
   26.6764  -20.4861  -11.6974 C   0  0  0  0  0  0  0  0  0  0  0  0
   26.7517  -19.2095  -11.6726 O   0  0  0  0  0  0  0  0  0  0  0  0
   21.7693  -22.0251   -9.8055 C   0  0  0  0  0  0  0  0  0  0  0  0
   23.2399  -21.7611   -9.6833 C   0  0  0  0  0  0  0  0  0  0  0  0
   23.6131  -20.3162   -9.9220 C   0  0  2  0  0  0  0  0  0  0  0  0
   23.2115  -19.8342  -11.2871 C   0  0  0  0  0  0  0  0  0  0  0  0
   25.1306  -20.2341   -9.7362 C   0  0  2  0  0  0  0  0  0  0  0  0
   25.8072  -21.0457  -10.7324 N   0  0  0  0  0  0  0  0  0  0  0  0
   25.4190  -20.7344   -8.3749 C   0  0  0  0  0  0  0  0  0  0  0  0
   25.0311  -19.9626   -7.2920 O   0  0  0  0  0  0  0  0  0  0  0  0
   26.0044  -21.8369   -8.1843 O   0  0  0  0  0  0  0  0  0  0  0  0
  2  1  1  6
  2  3  1  0
  3  4  1  0
  4  5  2  0
  6  5  1  0
  7  6  1  0
  8  7  2  0
  9  8  1  0
 10 11  1  0
 10  9  2  0
 11 12  2  0
 12  7  1  0
 12  4  1  0
 13  2  1  0
 14 13  2  0
 16 15  1  0
 17 16  1  0
 17 18  1  1
 19 20  1  6
 19 17  1  0
 20 13  1  0
 21 19  1  0
 22 21  2  0
 23 24  1  0
 24 25  1  0
 25 27  1  0
 25 26  1  6
 27 29  1  0
 27 28  1  6
 28 21  1  0
 29 30  1  0
 31 29  2  0
M  END
$$$$
