WII.pdb
     RDKit          3D

 31 32  0  0  1  0  0  0  0  0999 V2000
   28.1167  -20.2640  -10.1486 N   0  0  0  0  0  0  0  0  0  0  0  0
   26.8549  -20.7630   -9.7285 C   0  0  1  0  0  0  0  0  0  0  0  0
   26.3433  -20.2684   -8.4200 C   0  0  0  0  0  0  0  0  0  0  0  0
   27.5132  -19.9161   -7.5555 C   0  0  0  0  0  0  0  0  0  0  0  0
   28.6548  -19.2221   -7.9619 C   0  0  0  0  0  0  0  0  0  0  0  0
   29.4697  -19.0751   -6.9081 N   0  0  0  0  0  0  0  0  0  0  0  0
   28.9259  -19.6387   -5.8173 C   0  0  0  0  0  0  0  0  0  0  0  0
   29.3718  -19.7572   -4.5001 C   0  0  0  0  0  0  0  0  0  0  0  0
   28.5806  -20.4100   -3.5876 C   0  0  0  0  0  0  0  0  0  0  0  0
   27.3751  -20.9278   -3.9938 C   0  0  0  0  0  0  0  0  0  0  0  0
   26.9083  -20.8263   -5.2872 C   0  0  0  0  0  0  0  0  0  0  0  0
   27.7022  -20.1672   -6.2141 C   0  0  0  0  0  0  0  0  0  0  0  0
   25.8458  -20.5518  -10.8288 C   0  0  0  0  0  0  0  0  0  0  0  0
   25.8016  -19.4385  -11.4040 O   0  0  0  0  0  0  0  0  0  0  0  0
   26.0987  -21.7950  -14.7393 C   0  0  0  0  0  0  0  0  0  0  0  0
   25.7490  -22.9081  -13.7349 C   0  0  0  0  0  0  0  0  0  0  0  0
   24.3667  -22.6503  -13.2465 C   0  0  2  0  0  0  0  0  0  0  0  0
   23.3123  -22.8436  -14.2964 C   0  0  0  0  0  0  0  0  0  0  0  0
   24.1450  -21.3929  -12.4806 C   0  0  2  0  0  0  0  0  0  0  0  0
   24.9486  -21.5480  -11.2408 N   0  0  0  0  0  0  0  0  0  0  0  0
   22.7510  -21.1830  -12.0604 C   0  0  0  0  0  0  0  0  0  0  0  0
   22.2307  -21.8689  -11.1145 O   0  0  0  0  0  0  0  0  0  0  0  0
   19.6823  -17.0494  -14.3894 C   0  0  0  0  0  0  0  0  0  0  0  0
   20.1584  -18.3997  -13.9448 C   0  0  0  0  0  0  0  0  0  0  0  0
   20.0543  -18.6122  -12.4522 C   0  0  2  0  0  0  0  0  0  0  0  0
   20.8835  -17.6333  -11.6704 C   0  0  0  0  0  0  0  0  0  0  0  0
   20.5159  -20.0494  -12.1956 C   0  0  2  0  0  0  0  0  0  0  0  0
   21.8855  -20.2288  -12.6436 N   0  0  0  0  0  0  0  0  0  0  0  0
   19.6014  -20.9304  -12.9532 C   0  0  0  0  0  0  0  0  0  0  0  0
   18.3279  -21.1469  -12.4529 O   0  0  0  0  0  0  0  0  0  0  0  0
   19.9553  -21.4813  -14.0330 O   0  0  0  0  0  0  0  0  0  0  0  0
  2  1  1  6
  2  3  1  0
  3  4  1  0
  4  5  2  0
  6  5  1  0
  7  6  1  0
  8  7  2  0
  9  8  1  0
 10 11  1  0
 10  9  2  0
 11 12  2  0
 12  7  1  0
 12  4  1  0
 13  2  1  0
 14 13  2  0
 16 15  1  0
 17 16  1  0
 17 18  1  6
 19 20  1  1
 19 17  1  0
 20 13  1  0
 21 19  1  0
 22 21  2  0
 23 24  1  0
 24 25  1  0
 25 27  1  0
 25 26  1  1
 27 29  1  0
 27 28  1  6
 28 21  1  0
 29 30  1  0
 31 29  2  0
M  END
$$$$
