WII.pdb
     RDKit          3D

 31 32  0  0  1  0  0  0  0  0999 V2000
   23.2892  -19.7342  -16.5065 N   0  0  0  0  0  0  0  0  0  0  0  0
   23.7328  -18.9449  -15.4120 C   0  0  1  0  0  0  0  0  0  0  0  0
   22.6806  -18.2445  -14.6241 C   0  0  0  0  0  0  0  0  0  0  0  0
   22.1564  -17.1046  -15.4403 C   0  0  0  0  0  0  0  0  0  0  0  0
   20.9002  -17.0385  -16.0466 C   0  0  0  0  0  0  0  0  0  0  0  0
   20.7820  -15.8575  -16.6690 N   0  0  0  0  0  0  0  0  0  0  0  0
   21.9003  -15.1322  -16.5070 C   0  0  0  0  0  0  0  0  0  0  0  0
   22.2701  -13.8634  -16.9558 C   0  0  0  0  0  0  0  0  0  0  0  0
   23.5126  -13.3797  -16.6289 C   0  0  0  0  0  0  0  0  0  0  0  0
   24.3565  -14.1547  -15.8716 C   0  0  0  0  0  0  0  0  0  0  0  0
   24.0193  -15.4109  -15.4141 C   0  0  0  0  0  0  0  0  0  0  0  0
   22.7651  -15.9055  -15.7399 C   0  0  0  0  0  0  0  0  0  0  0  0
   24.6198  -19.7807  -14.5241 C   0  0  0  0  0  0  0  0  0  0  0  0
   24.2792  -20.9595  -14.2655 O   0  0  0  0  0  0  0  0  0  0  0  0
   28.5035  -21.7318  -15.0625 C   0  0  0  0  0  0  0  0  0  0  0  0
   28.4378  -20.1972  -14.9599 C   0  0  0  0  0  0  0  0  0  0  0  0
   28.0710  -19.8589  -13.5576 C   0  0  2  0  0  0  0  0  0  0  0  0
   29.0707  -20.3324  -12.5438 C   0  0  0  0  0  0  0  0  0  0  0  0
   26.6784  -20.1679  -13.1309 C   0  0  2  0  0  0  0  0  0  0  0  0
   25.8145  -19.2981  -13.9700 N   0  0  0  0  0  0  0  0  0  0  0  0
   26.3899  -19.8283  -11.7290 C   0  0  0  0  0  0  0  0  0  0  0  0
   26.2552  -18.6133  -11.3528 O   0  0  0  0  0  0  0  0  0  0  0  0
   23.3552  -21.5766   -6.7446 C   0  0  0  0  0  0  0  0  0  0  0  0
   24.4473  -20.8053   -7.4227 C   0  0  0  0  0  0  0  0  0  0  0  0
   24.7786  -21.3208   -8.8041 C   0  0  2  0  0  0  0  0  0  0  0  0
   25.2167  -22.7578   -8.7945 C   0  0  0  0  0  0  0  0  0  0  0  0
   25.8889  -20.4129   -9.3402 C   0  0  2  0  0  0  0  0  0  0  0  0
   26.2355  -20.7861  -10.7001 N   0  0  0  0  0  0  0  0  0  0  0  0
   27.0501  -20.5867   -8.4414 C   0  0  0  0  0  0  0  0  0  0  0  0
   27.1683  -19.7475   -7.3457 O   0  0  0  0  0  0  0  0  0  0  0  0
   27.9238  -21.4739   -8.6515 O   0  0  0  0  0  0  0  0  0  0  0  0
  2  1  1  6
  2  3  1  0
  3  4  1  0
  4  5  2  0
  6  5  1  0
  7  6  1  0
  8  7  2  0
  9  8  1  0
 10 11  1  0
 10  9  2  0
 11 12  2  0
 12  7  1  0
 12  4  1  0
 13  2  1  0
 14 13  2  0
 16 15  1  0
 17 16  1  0
 17 18  1  1
 19 20  1  6
 19 17  1  0
 20 13  1  0
 21 19  1  0
 22 21  2  0
 23 24  1  0
 24 25  1  0
 25 27  1  0
 25 26  1  1
 27 29  1  0
 27 28  1  6
 28 21  1  0
 29 30  1  0
 31 29  2  0
M  END
$$$$
