WII.pdb
     RDKit          3D

 31 32  0  0  1  0  0  0  0  0999 V2000
   16.4171  -17.2539    4.9333 N   0  0  0  0  0  0  0  0  0  0  0  0
   17.5258  -17.1148    5.8102 C   0  0  1  0  0  0  0  0  0  0  0  0
   17.5006  -15.9508    6.7390 C   0  0  0  0  0  0  0  0  0  0  0  0
   17.7037  -14.7015    5.9401 C   0  0  0  0  0  0  0  0  0  0  0  0
   16.8643  -14.2277    4.9296 C   0  0  0  0  0  0  0  0  0  0  0  0
   17.3584  -13.0725    4.4631 N   0  0  0  0  0  0  0  0  0  0  0  0
   18.4885  -12.7531    5.1144 C   0  0  0  0  0  0  0  0  0  0  0  0
   19.3668  -11.6748    4.9978 C   0  0  0  0  0  0  0  0  0  0  0  0
   20.4683  -11.6244    5.8157 C   0  0  0  0  0  0  0  0  0  0  0  0
   20.6763  -12.6333    6.7240 C   0  0  0  0  0  0  0  0  0  0  0  0
   19.8267  -13.7105    6.8621 C   0  0  0  0  0  0  0  0  0  0  0  0
   18.7114  -13.7673    6.0396 C   0  0  0  0  0  0  0  0  0  0  0  0
   17.7349  -18.4087    6.5557 C   0  0  0  0  0  0  0  0  0  0  0  0
   16.7438  -18.9759    7.0737 O   0  0  0  0  0  0  0  0  0  0  0  0
   20.4726  -23.5381    6.3085 C   0  0  0  0  0  0  0  0  0  0  0  0
   20.0477  -22.5468    7.4071 C   0  0  0  0  0  0  0  0  0  0  0  0
   19.6652  -21.2743    6.7364 C   0  0  2  0  0  0  0  0  0  0  0  0
   20.6783  -20.7915    5.7405 C   0  0  0  0  0  0  0  0  0  0  0  0
   19.1940  -20.1654    7.6112 C   0  0  2  0  0  0  0  0  0  0  0  0
   18.9937  -19.0106    6.6983 N   0  0  0  0  0  0  0  0  0  0  0  0
   20.1726  -19.7418    8.6244 C   0  0  0  0  0  0  0  0  0  0  0  0
   21.2903  -19.2164    8.2914 O   0  0  0  0  0  0  0  0  0  0  0  0
   18.6609  -17.4205   13.1090 C   0  0  0  0  0  0  0  0  0  0  0  0
   19.4298  -17.9532   11.9375 C   0  0  0  0  0  0  0  0  0  0  0  0
   20.3779  -19.0730   12.2997 C   0  0  2  0  0  0  0  0  0  0  0  0
   21.4348  -18.6414   13.2762 C   0  0  0  0  0  0  0  0  0  0  0  0
   21.0054  -19.5394   10.9834 C   0  0  2  0  0  0  0  0  0  0  0  0
   19.9715  -19.8689   10.0184 N   0  0  0  0  0  0  0  0  0  0  0  0
   21.8195  -20.7324   11.3007 C   0  0  0  0  0  0  0  0  0  0  0  0
   23.1994  -20.6108   11.2944 O   0  0  0  0  0  0  0  0  0  0  0  0
   21.2871  -21.8445   11.5736 O   0  0  0  0  0  0  0  0  0  0  0  0
  2  1  1  1
  2  3  1  0
  3  4  1  0
  4  5  2  0
  6  5  1  0
  7  6  1  0
  8  7  2  0
  9  8  1  0
 10 11  1  0
 10  9  2  0
 11 12  2  0
 12  7  1  0
 12  4  1  0
 13  2  1  0
 14 13  2  0
 16 15  1  0
 17 16  1  0
 17 18  1  1
 19 20  1  6
 19 17  1  0
 20 13  1  0
 21 19  1  0
 22 21  2  0
 23 24  1  0
 24 25  1  0
 25 27  1  0
 25 26  1  1
 27 29  1  0
 27 28  1  6
 28 21  1  0
 29 30  1  0
 31 29  2  0
M  END
$$$$
