WII.pdb
     RDKit          3D

 31 32  0  0  1  0  0  0  0  0999 V2000
   24.2000  -22.1858  -13.0547 N   0  0  0  0  0  0  0  0  0  0  0  0
   24.2671  -21.2029  -12.0314 C   0  0  1  0  0  0  0  0  0  0  0  0
   23.0072  -20.9276  -11.2864 C   0  0  0  0  0  0  0  0  0  0  0  0
   22.0979  -20.1316  -12.1694 C   0  0  0  0  0  0  0  0  0  0  0  0
   22.3438  -19.7817  -13.4988 C   0  0  0  0  0  0  0  0  0  0  0  0
   21.2944  -19.0909  -13.9654 N   0  0  0  0  0  0  0  0  0  0  0  0
   20.3596  -18.9628  -13.0100 C   0  0  0  0  0  0  0  0  0  0  0  0
   19.1121  -18.3373  -12.9945 C   0  0  0  0  0  0  0  0  0  0  0  0
   18.3686  -18.3675  -11.8408 C   0  0  0  0  0  0  0  0  0  0  0  0
   18.8706  -19.0101  -10.7357 C   0  0  0  0  0  0  0  0  0  0  0  0
   20.0988  -19.6366  -10.7208 C   0  0  0  0  0  0  0  0  0  0  0  0
   20.8549  -19.6108  -11.8834 C   0  0  0  0  0  0  0  0  0  0  0  0
   25.3985  -21.5394  -11.0931 C   0  0  0  0  0  0  0  0  0  0  0  0
   25.3180  -22.5784  -10.3959 O   0  0  0  0  0  0  0  0  0  0  0  0
   30.3326  -22.5081   -9.9125 C   0  0  0  0  0  0  0  0  0  0  0  0
   30.1556  -20.9794   -9.9531 C   0  0  0  0  0  0  0  0  0  0  0  0
   28.8869  -20.6961  -10.6781 C   0  0  2  0  0  0  0  0  0  0  0  0
   28.8038  -19.3000  -11.2215 C   0  0  0  0  0  0  0  0  0  0  0  0
   27.6205  -21.0908  -10.0020 C   0  0  2  0  0  0  0  0  0  0  0  0
   26.5430  -20.7393  -10.9625 N   0  0  0  0  0  0  0  0  0  0  0  0
   27.3442  -20.3484   -8.7625 C   0  0  0  0  0  0  0  0  0  0  0  0
   26.6980  -19.2446   -8.7780 O   0  0  0  0  0  0  0  0  0  0  0  0
   30.5674  -21.2067   -4.2657 C   0  0  0  0  0  0  0  0  0  0  0  0
   29.7460  -20.6588   -5.3938 C   0  0  0  0  0  0  0  0  0  0  0  0
   28.2668  -20.6037   -5.0887 C   0  0  2  0  0  0  0  0  0  0  0  0
   27.6785  -21.9627   -4.8356 C   0  0  0  0  0  0  0  0  0  0  0  0
   27.6087  -19.9385   -6.3006 C   0  0  2  0  0  0  0  0  0  0  0  0
   27.7520  -20.7765   -7.4779 N   0  0  0  0  0  0  0  0  0  0  0  0
   28.2941  -18.6432   -6.4978 C   0  0  0  0  0  0  0  0  0  0  0  0
   27.9301  -17.5746   -5.6951 O   0  0  0  0  0  0  0  0  0  0  0  0
   29.1928  -18.4955   -7.3726 O   0  0  0  0  0  0  0  0  0  0  0  0
  2  1  1  6
  2  3  1  0
  3  4  1  0
  4  5  2  0
  6  5  1  0
  7  6  1  0
  8  7  2  0
  9  8  1  0
 10 11  1  0
 10  9  2  0
 11 12  2  0
 12  7  1  0
 12  4  1  0
 13  2  1  0
 14 13  2  0
 16 15  1  0
 17 16  1  0
 17 18  1  1
 19 20  1  6
 19 17  1  0
 20 13  1  0
 21 19  1  0
 22 21  2  0
 23 24  1  0
 24 25  1  0
 25 27  1  0
 25 26  1  6
 27 29  1  0
 27 28  1  6
 28 21  1  0
 29 30  1  0
 31 29  2  0
M  END
$$$$
