WII.pdb
     RDKit          3D

 31 32  0  0  1  0  0  0  0  0999 V2000
   27.1309  -20.3227  -16.7508 N   0  0  0  0  0  0  0  0  0  0  0  0
   26.8381  -19.5801  -15.5759 C   0  0  1  0  0  0  0  0  0  0  0  0
   26.2040  -18.2464  -15.7697 C   0  0  0  0  0  0  0  0  0  0  0  0
   27.0133  -17.4762  -16.7657 C   0  0  0  0  0  0  0  0  0  0  0  0
   26.5071  -16.6729  -17.7896 C   0  0  0  0  0  0  0  0  0  0  0  0
   27.5323  -16.1284  -18.4593 N   0  0  0  0  0  0  0  0  0  0  0  0
   28.6993  -16.5308  -17.9308 C   0  0  0  0  0  0  0  0  0  0  0  0
   30.0261  -16.2554  -18.2648 C   0  0  0  0  0  0  0  0  0  0  0  0
   31.0299  -16.8336  -17.5280 C   0  0  0  0  0  0  0  0  0  0  0  0
   30.7031  -17.6654  -16.4852 C   0  0  0  0  0  0  0  0  0  0  0  0
   29.4024  -17.9559  -16.1316 C   0  0  0  0  0  0  0  0  0  0  0  0
   28.3833  -17.3744  -16.8712 C   0  0  0  0  0  0  0  0  0  0  0  0
   26.0346  -20.4392  -14.6325 C   0  0  0  0  0  0  0  0  0  0  0  0
   25.5137  -21.4932  -15.0685 O   0  0  0  0  0  0  0  0  0  0  0  0
   27.3626  -20.6661   -9.3836 C   0  0  0  0  0  0  0  0  0  0  0  0
   27.0036  -21.0645  -10.8267 C   0  0  0  0  0  0  0  0  0  0  0  0
   25.5610  -20.7583  -11.0284 C   0  0  2  0  0  0  0  0  0  0  0  0
   24.6673  -21.3572   -9.9825 C   0  0  0  0  0  0  0  0  0  0  0  0
   25.0113  -20.9684  -12.3961 C   0  0  2  0  0  0  0  0  0  0  0  0
   25.8409  -20.1122  -13.2825 N   0  0  0  0  0  0  0  0  0  0  0  0
   23.6183  -20.5249  -12.5587 C   0  0  0  0  0  0  0  0  0  0  0  0
   23.2673  -19.3235  -12.2949 O   0  0  0  0  0  0  0  0  0  0  0  0
   21.2519  -20.5100  -16.9497 C   0  0  0  0  0  0  0  0  0  0  0  0
   21.6044  -20.3626  -15.5001 C   0  0  0  0  0  0  0  0  0  0  0  0
   20.6994  -21.1475  -14.5787 C   0  0  2  0  0  0  0  0  0  0  0  0
   19.2558  -20.7547  -14.7150 C   0  0  0  0  0  0  0  0  0  0  0  0
   21.2077  -20.8829  -13.1589 C   0  0  2  0  0  0  0  0  0  0  0  0
   22.5713  -21.3604  -13.0122 N   0  0  0  0  0  0  0  0  0  0  0  0
   20.3017  -21.6075  -12.2420 C   0  0  0  0  0  0  0  0  0  0  0  0
   19.3056  -20.8930  -11.5970 O   0  0  0  0  0  0  0  0  0  0  0  0
   20.4180  -22.8484  -12.0391 O   0  0  0  0  0  0  0  0  0  0  0  0
  2  1  1  6
  2  3  1  0
  3  4  1  0
  4  5  2  0
  6  5  1  0
  7  6  1  0
  8  7  2  0
  9  8  1  0
 10 11  1  0
 10  9  2  0
 11 12  2  0
 12  7  1  0
 12  4  1  0
 13  2  1  0
 14 13  2  0
 16 15  1  0
 17 16  1  0
 17 18  1  1
 19 20  1  6
 19 17  1  0
 20 13  1  0
 21 19  1  0
 22 21  2  0
 23 24  1  0
 24 25  1  0
 25 27  1  0
 25 26  1  1
 27 29  1  0
 27 28  1  6
 28 21  1  0
 29 30  1  0
 31 29  2  0
M  END
$$$$
