WII.pdb
     RDKit          3D

 31 32  0  0  1  0  0  0  0  0999 V2000
   24.6251  -20.1881  -17.6909 N   0  0  0  0  0  0  0  0  0  0  0  0
   24.3848  -19.5978  -16.4214 C   0  0  1  0  0  0  0  0  0  0  0  0
   22.9690  -19.5584  -15.9607 C   0  0  0  0  0  0  0  0  0  0  0  0
   22.1837  -18.7104  -16.9118 C   0  0  0  0  0  0  0  0  0  0  0  0
   21.3922  -19.1749  -17.9643 C   0  0  0  0  0  0  0  0  0  0  0  0
   20.8278  -18.1251  -18.5770 N   0  0  0  0  0  0  0  0  0  0  0  0
   21.2056  -16.9815  -17.9833 C   0  0  0  0  0  0  0  0  0  0  0  0
   20.9037  -15.6440  -18.2434 C   0  0  0  0  0  0  0  0  0  0  0  0
   21.4604  -14.6714  -17.4503 C   0  0  0  0  0  0  0  0  0  0  0  0
   22.2974  -15.0391  -16.4254 C   0  0  0  0  0  0  0  0  0  0  0  0
   22.6138  -16.3513  -16.1443 C   0  0  0  0  0  0  0  0  0  0  0  0
   22.0541  -17.3391  -16.9410 C   0  0  0  0  0  0  0  0  0  0  0  0
   25.2793  -20.2458  -15.3950 C   0  0  0  0  0  0  0  0  0  0  0  0
   25.1608  -21.4753  -15.1788 O   0  0  0  0  0  0  0  0  0  0  0  0
   28.9981  -18.6783  -15.8594 C   0  0  0  0  0  0  0  0  0  0  0  0
   29.1241  -19.9217  -14.9605 C   0  0  0  0  0  0  0  0  0  0  0  0
   28.3933  -19.6341  -13.6960 C   0  0  2  0  0  0  0  0  0  0  0  0
   29.1999  -19.9059  -12.4603 C   0  0  0  0  0  0  0  0  0  0  0  0
   27.0140  -20.1814  -13.5742 C   0  0  2  0  0  0  0  0  0  0  0  0
   26.2426  -19.5334  -14.6660 N   0  0  0  0  0  0  0  0  0  0  0  0
   26.3393  -19.8355  -12.3136 C   0  0  0  0  0  0  0  0  0  0  0  0
   26.0641  -18.6221  -12.0173 O   0  0  0  0  0  0  0  0  0  0  0  0
   21.7385  -20.9256  -11.2416 C   0  0  0  0  0  0  0  0  0  0  0  0
   23.1477  -20.4208  -11.1575 C   0  0  0  0  0  0  0  0  0  0  0  0
   23.9153  -20.9751   -9.9796 C   0  0  2  0  0  0  0  0  0  0  0  0
   23.2869  -20.6197   -8.6621 C   0  0  0  0  0  0  0  0  0  0  0  0
   25.3294  -20.3978  -10.0858 C   0  0  2  0  0  0  0  0  0  0  0  0
   25.9411  -20.7854  -11.3445 N   0  0  0  0  0  0  0  0  0  0  0  0
   26.0969  -20.9427   -8.9453 C   0  0  0  0  0  0  0  0  0  0  0  0
   26.4572  -22.2800   -8.9707 O   0  0  0  0  0  0  0  0  0  0  0  0
   26.4252  -20.2211   -7.9624 O   0  0  0  0  0  0  0  0  0  0  0  0
  2  1  1  6
  2  3  1  0
  3  4  1  0
  4  5  2  0
  6  5  1  0
  7  6  1  0
  8  7  2  0
  9  8  1  0
 10 11  1  0
 10  9  2  0
 11 12  2  0
 12  7  1  0
 12  4  1  0
 13  2  1  0
 14 13  2  0
 16 15  1  0
 17 16  1  0
 17 18  1  1
 19 20  1  6
 19 17  1  0
 20 13  1  0
 21 19  1  0
 22 21  2  0
 23 24  1  0
 24 25  1  0
 25 27  1  0
 25 26  1  1
 27 29  1  0
 27 28  1  6
 28 21  1  0
 29 30  1  0
 31 29  2  0
M  END
$$$$
