WII.pdb
     RDKit          3D

 31 32  0  0  1  0  0  0  0  0999 V2000
   24.7981  -18.7665  -17.4422 N   0  0  0  0  0  0  0  0  0  0  0  0
   25.0363  -18.2212  -16.1524 C   0  0  1  0  0  0  0  0  0  0  0  0
   23.9619  -17.3619  -15.5820 C   0  0  0  0  0  0  0  0  0  0  0  0
   24.0106  -16.0283  -16.2597 C   0  0  0  0  0  0  0  0  0  0  0  0
   23.0471  -15.5139  -17.1299 C   0  0  0  0  0  0  0  0  0  0  0  0
   23.4241  -14.2872  -17.5163 N   0  0  0  0  0  0  0  0  0  0  0  0
   24.5941  -13.9586  -16.9452 C   0  0  0  0  0  0  0  0  0  0  0  0
   25.3926  -12.8171  -17.0299 C   0  0  0  0  0  0  0  0  0  0  0  0
   26.5667  -12.7741  -16.3197 C   0  0  0  0  0  0  0  0  0  0  0  0
   26.9236  -13.8522  -15.5474 C   0  0  0  0  0  0  0  0  0  0  0  0
   26.1558  -14.9927  -15.4439 C   0  0  0  0  0  0  0  0  0  0  0  0
   24.9678  -15.0426  -16.1581 C   0  0  0  0  0  0  0  0  0  0  0  0
   25.4128  -19.3323  -15.2051 C   0  0  0  0  0  0  0  0  0  0  0  0
   24.7267  -20.3819  -15.1999 O   0  0  0  0  0  0  0  0  0  0  0  0
   30.6173  -20.3327  -13.7919 C   0  0  0  0  0  0  0  0  0  0  0  0
   29.1665  -20.3930  -14.3030 C   0  0  0  0  0  0  0  0  0  0  0  0
   28.2711  -20.2459  -13.1231 C   0  0  2  0  0  0  0  0  0  0  0  0
   28.6833  -21.0822  -11.9476 C   0  0  0  0  0  0  0  0  0  0  0  0
   26.8062  -20.3440  -13.3710 C   0  0  2  0  0  0  0  0  0  0  0  0
   26.5006  -19.2460  -14.3239 N   0  0  0  0  0  0  0  0  0  0  0  0
   25.9779  -20.1141  -12.1775 C   0  0  0  0  0  0  0  0  0  0  0  0
   26.0011  -18.9961  -11.5565 O   0  0  0  0  0  0  0  0  0  0  0  0
   20.9867  -21.1462  -12.2731 C   0  0  0  0  0  0  0  0  0  0  0  0
   22.3849  -20.7346  -11.9225 C   0  0  0  0  0  0  0  0  0  0  0  0
   22.8803  -21.3327  -10.6260 C   0  0  2  0  0  0  0  0  0  0  0  0
   22.0167  -20.9646   -9.4531 C   0  0  0  0  0  0  0  0  0  0  0  0
   24.3088  -20.8146  -10.4388 C   0  0  2  0  0  0  0  0  0  0  0  0
   25.1026  -21.0782  -11.6259 N   0  0  0  0  0  0  0  0  0  0  0  0
   24.8688  -21.5270   -9.2702 C   0  0  0  0  0  0  0  0  0  0  0  0
   24.7532  -20.9393   -8.0212 O   0  0  0  0  0  0  0  0  0  0  0  0
   25.4426  -22.6457   -9.3887 O   0  0  0  0  0  0  0  0  0  0  0  0
  2  1  1  6
  2  3  1  0
  3  4  1  0
  4  5  2  0
  6  5  1  0
  7  6  1  0
  8  7  2  0
  9  8  1  0
 10 11  1  0
 10  9  2  0
 11 12  2  0
 12  7  1  0
 12  4  1  0
 13  2  1  0
 14 13  2  0
 16 15  1  0
 17 16  1  0
 17 18  1  1
 19 20  1  6
 19 17  1  0
 20 13  1  0
 21 19  1  0
 22 21  2  0
 23 24  1  0
 24 25  1  0
 25 27  1  0
 25 26  1  1
 27 29  1  0
 27 28  1  6
 28 21  1  0
 29 30  1  0
 31 29  2  0
M  END
$$$$
