WII.pdb
     RDKit          3D

 31 32  0  0  1  0  0  0  0  0999 V2000
   25.2372  -19.7496  -17.1516 N   0  0  0  0  0  0  0  0  0  0  0  0
   25.6020  -19.0958  -15.9445 C   0  0  1  0  0  0  0  0  0  0  0  0
   24.6103  -18.1405  -15.3766 C   0  0  0  0  0  0  0  0  0  0  0  0
   24.4244  -17.0164  -16.3472 C   0  0  0  0  0  0  0  0  0  0  0  0
   23.3047  -16.8054  -17.1544 C   0  0  0  0  0  0  0  0  0  0  0  0
   23.4921  -15.6884  -17.8708 N   0  0  0  0  0  0  0  0  0  0  0  0
   24.6846  -15.1439  -17.5800 C   0  0  0  0  0  0  0  0  0  0  0  0
   25.3364  -14.0035  -18.0518 C   0  0  0  0  0  0  0  0  0  0  0  0
   26.5823  -13.7002  -17.5612 C   0  0  0  0  0  0  0  0  0  0  0  0
   27.1526  -14.5244  -16.6223 C   0  0  0  0  0  0  0  0  0  0  0  0
   26.5334  -15.6569  -16.1374 C   0  0  0  0  0  0  0  0  0  0  0  0
   25.2741  -15.9688  -16.6281 C   0  0  0  0  0  0  0  0  0  0  0  0
   26.0169  -20.1277  -14.9264 C   0  0  0  0  0  0  0  0  0  0  0  0
   25.3225  -21.1638  -14.7971 O   0  0  0  0  0  0  0  0  0  0  0  0
   30.8257  -21.2760  -11.3461 C   0  0  0  0  0  0  0  0  0  0  0  0
   29.3148  -21.5452  -11.4671 C   0  0  0  0  0  0  0  0  0  0  0  0
   28.8110  -20.7510  -12.6207 C   0  0  2  0  0  0  0  0  0  0  0  0
   29.2766  -19.3246  -12.6178 C   0  0  0  0  0  0  0  0  0  0  0  0
   27.3557  -20.8455  -12.9211 C   0  0  2  0  0  0  0  0  0  0  0  0
   27.1494  -19.9817  -14.1120 N   0  0  0  0  0  0  0  0  0  0  0  0
   26.4870  -20.3181  -11.8577 C   0  0  0  0  0  0  0  0  0  0  0  0
   26.3211  -19.0601  -11.6965 O   0  0  0  0  0  0  0  0  0  0  0  0
   21.6642  -20.9780  -11.8279 C   0  0  0  0  0  0  0  0  0  0  0  0
   23.0532  -20.5551  -11.4547 C   0  0  0  0  0  0  0  0  0  0  0  0
   23.4806  -21.0355  -10.0870 C   0  0  2  0  0  0  0  0  0  0  0  0
   22.6038  -20.5048   -8.9886 C   0  0  0  0  0  0  0  0  0  0  0  0
   24.9277  -20.5687   -9.9070 C   0  0  2  0  0  0  0  0  0  0  0  0
   25.7734  -21.1298  -10.9456 N   0  0  0  0  0  0  0  0  0  0  0  0
   25.3619  -21.0373   -8.5734 C   0  0  0  0  0  0  0  0  0  0  0  0
   26.0813  -22.2181   -8.4905 O   0  0  0  0  0  0  0  0  0  0  0  0
   25.0925  -20.3895   -7.5234 O   0  0  0  0  0  0  0  0  0  0  0  0
  2  1  1  6
  2  3  1  0
  3  4  1  0
  4  5  2  0
  6  5  1  0
  7  6  1  0
  8  7  2  0
  9  8  1  0
 10 11  1  0
 10  9  2  0
 11 12  2  0
 12  7  1  0
 12  4  1  0
 13  2  1  0
 14 13  2  0
 16 15  1  0
 17 16  1  0
 17 18  1  1
 19 20  1  6
 19 17  1  0
 20 13  1  0
 21 19  1  0
 22 21  2  0
 23 24  1  0
 24 25  1  0
 25 27  1  0
 25 26  1  1
 27 29  1  0
 27 28  1  6
 28 21  1  0
 29 30  1  0
 31 29  2  0
M  END
$$$$
