WII.pdb
     RDKit          3D

 31 32  0  0  1  0  0  0  0  0999 V2000
   25.1254  -20.9044  -13.7891 N   0  0  0  0  0  0  0  0  0  0  0  0
   23.9158  -20.5551  -13.1315 C   0  0  1  0  0  0  0  0  0  0  0  0
   22.6540  -20.7834  -13.8891 C   0  0  0  0  0  0  0  0  0  0  0  0
   22.7240  -20.0139  -15.1709 C   0  0  0  0  0  0  0  0  0  0  0  0
   23.3143  -20.4499  -16.3590 C   0  0  0  0  0  0  0  0  0  0  0  0
   23.1598  -19.5008  -17.2925 N   0  0  0  0  0  0  0  0  0  0  0  0
   22.4944  -18.4514  -16.7833 C   0  0  0  0  0  0  0  0  0  0  0  0
   22.0962  -17.2336  -17.3367 C   0  0  0  0  0  0  0  0  0  0  0  0
   21.4211  -16.3352  -16.5481 C   0  0  0  0  0  0  0  0  0  0  0  0
   21.1566  -16.6573  -15.2395 C   0  0  0  0  0  0  0  0  0  0  0  0
   21.5370  -17.8517  -14.6653 C   0  0  0  0  0  0  0  0  0  0  0  0
   22.2186  -18.7645  -15.4566 C   0  0  0  0  0  0  0  0  0  0  0  0
   23.8744  -21.2228  -11.7801 C   0  0  0  0  0  0  0  0  0  0  0  0
   23.9580  -22.4725  -11.7196 O   0  0  0  0  0  0  0  0  0  0  0  0
   26.5308  -19.2869   -7.6456 C   0  0  0  0  0  0  0  0  0  0  0  0
   25.8970  -20.1871   -8.7217 C   0  0  0  0  0  0  0  0  0  0  0  0
   24.4763  -20.4094   -8.3375 C   0  0  2  0  0  0  0  0  0  0  0  0
   24.3020  -20.8720   -6.9208 C   0  0  0  0  0  0  0  0  0  0  0  0
   23.6406  -21.2087   -9.2754 C   0  0  2  0  0  0  0  0  0  0  0  0
   23.7453  -20.5073  -10.5808 N   0  0  0  0  0  0  0  0  0  0  0  0
   22.2123  -21.2453   -8.9257 C   0  0  0  0  0  0  0  0  0  0  0  0
   21.4818  -20.1979   -9.0002 O   0  0  0  0  0  0  0  0  0  0  0  0
   18.7917  -23.4641  -11.5467 C   0  0  0  0  0  0  0  0  0  0  0  0
   19.4551  -22.6685  -10.4630 C   0  0  0  0  0  0  0  0  0  0  0  0
   19.3331  -23.2982   -9.0946 C   0  0  2  0  0  0  0  0  0  0  0  0
   17.9056  -23.4316   -8.6456 C   0  0  0  0  0  0  0  0  0  0  0  0
   20.1256  -22.3989   -8.1420 C   0  0  2  0  0  0  0  0  0  0  0  0
   21.5349  -22.4084   -8.4919 N   0  0  0  0  0  0  0  0  0  0  0  0
   19.9241  -22.9406   -6.7810 C   0  0  0  0  0  0  0  0  0  0  0  0
   18.7691  -22.5970   -6.0979 O   0  0  0  0  0  0  0  0  0  0  0  0
   20.7741  -23.7003   -6.2376 O   0  0  0  0  0  0  0  0  0  0  0  0
  2  1  1  6
  2  3  1  0
  3  4  1  0
  4  5  2  0
  6  5  1  0
  7  6  1  0
  8  7  2  0
  9  8  1  0
 10 11  1  0
 10  9  2  0
 11 12  2  0
 12  7  1  0
 12  4  1  0
 13  2  1  0
 14 13  2  0
 16 15  1  0
 17 16  1  0
 17 18  1  1
 19 20  1  6
 19 17  1  0
 20 13  1  0
 21 19  1  0
 22 21  2  0
 23 24  1  0
 24 25  1  0
 25 27  1  0
 25 26  1  1
 27 29  1  0
 27 28  1  6
 28 21  1  0
 29 30  1  0
 31 29  2  0
M  END
$$$$
