WII.pdb
     RDKit          3D

 31 32  0  0  1  0  0  0  0  0999 V2000
   28.2193  -21.5668  -10.8578 N   0  0  0  0  0  0  0  0  0  0  0  0
   27.0795  -21.0059  -10.2222 C   0  0  1  0  0  0  0  0  0  0  0  0
   27.3338  -19.9330   -9.2210 C   0  0  0  0  0  0  0  0  0  0  0  0
   28.4055  -20.4002   -8.2864 C   0  0  0  0  0  0  0  0  0  0  0  0
   29.6373  -20.9442   -8.6561 C   0  0  0  0  0  0  0  0  0  0  0  0
   30.3382  -21.2208   -7.5478 N   0  0  0  0  0  0  0  0  0  0  0  0
   29.6319  -20.8874   -6.4554 C   0  0  0  0  0  0  0  0  0  0  0  0
   29.9117  -20.9815   -5.0913 C   0  0  0  0  0  0  0  0  0  0  0  0
   28.9678  -20.5572   -4.1893 C   0  0  0  0  0  0  0  0  0  0  0  0
   27.7768  -20.0532   -4.6515 C   0  0  0  0  0  0  0  0  0  0  0  0
   27.4722  -19.9478   -5.9921 C   0  0  0  0  0  0  0  0  0  0  0  0
   28.4217  -20.3738   -6.9090 C   0  0  0  0  0  0  0  0  0  0  0  0
   26.0962  -20.5557  -11.2729 C   0  0  0  0  0  0  0  0  0  0  0  0
   26.2490  -19.4292  -11.8020 O   0  0  0  0  0  0  0  0  0  0  0  0
   24.9545  -22.1326  -16.4010 C   0  0  0  0  0  0  0  0  0  0  0  0
   24.1488  -21.3525  -15.3464 C   0  0  0  0  0  0  0  0  0  0  0  0
   24.7832  -21.6046  -14.0238 C   0  0  2  0  0  0  0  0  0  0  0  0
   25.0549  -23.0553  -13.7540 C   0  0  0  0  0  0  0  0  0  0  0  0
   24.1678  -20.9395  -12.8423 C   0  0  2  0  0  0  0  0  0  0  0  0
   25.0118  -21.3425  -11.6881 N   0  0  0  0  0  0  0  0  0  0  0  0
   22.7988  -21.3884  -12.5453 C   0  0  0  0  0  0  0  0  0  0  0  0
   22.5632  -22.5741  -12.1274 O   0  0  0  0  0  0  0  0  0  0  0  0
   17.3668  -19.6529  -10.3713 C   0  0  0  0  0  0  0  0  0  0  0  0
   18.1988  -20.5187  -11.2689 C   0  0  0  0  0  0  0  0  0  0  0  0
   19.5869  -19.9730  -11.5124 C   0  0  2  0  0  0  0  0  0  0  0  0
   19.5709  -18.6553  -12.2337 C   0  0  0  0  0  0  0  0  0  0  0  0
   20.3229  -21.0371  -12.3311 C   0  0  2  0  0  0  0  0  0  0  0  0
   21.6522  -20.5727  -12.6863 N   0  0  0  0  0  0  0  0  0  0  0  0
   19.5131  -21.2734  -13.5455 C   0  0  0  0  0  0  0  0  0  0  0  0
   18.4267  -22.1285  -13.4586 O   0  0  0  0  0  0  0  0  0  0  0  0
   19.7899  -20.7177  -14.6452 O   0  0  0  0  0  0  0  0  0  0  0  0
  2  1  1  6
  2  3  1  0
  3  4  1  0
  4  5  2  0
  6  5  1  0
  7  6  1  0
  8  7  2  0
  9  8  1  0
 10 11  1  0
 10  9  2  0
 11 12  2  0
 12  7  1  0
 12  4  1  0
 13  2  1  0
 14 13  2  0
 16 15  1  0
 17 16  1  0
 17 18  1  1
 19 20  1  1
 19 17  1  0
 20 13  1  0
 21 19  1  0
 22 21  2  0
 23 24  1  0
 24 25  1  0
 25 27  1  0
 25 26  1  6
 27 29  1  0
 27 28  1  6
 28 21  1  0
 29 30  1  0
 31 29  2  0
M  END
$$$$
