WII.pdb
     RDKit          3D

 31 32  0  0  1  0  0  0  0  0999 V2000
   23.9205  -22.0069  -13.7814 N   0  0  0  0  0  0  0  0  0  0  0  0
   23.7314  -21.3348  -12.5444 C   0  0  1  0  0  0  0  0  0  0  0  0
   22.4377  -21.5731  -11.8460 C   0  0  0  0  0  0  0  0  0  0  0  0
   21.3520  -20.8795  -12.6079 C   0  0  0  0  0  0  0  0  0  0  0  0
   20.7108  -21.3654  -13.7492 C   0  0  0  0  0  0  0  0  0  0  0  0
   19.7816  -20.4794  -14.1335 N   0  0  0  0  0  0  0  0  0  0  0  0
   19.7727  -19.4246  -13.3026 C   0  0  0  0  0  0  0  0  0  0  0  0
   19.0099  -18.2561  -13.2764 C   0  0  0  0  0  0  0  0  0  0  0  0
   19.2396  -17.3355  -12.2842 C   0  0  0  0  0  0  0  0  0  0  0  0
   20.2110  -17.5877  -11.3467 C   0  0  0  0  0  0  0  0  0  0  0  0
   20.9798  -18.7323  -11.3467 C   0  0  0  0  0  0  0  0  0  0  0  0
   20.7524  -19.6671  -12.3458 C   0  0  0  0  0  0  0  0  0  0  0  0
   24.9047  -21.6182  -11.6406 C   0  0  0  0  0  0  0  0  0  0  0  0
   25.0997  -22.7945  -11.2528 O   0  0  0  0  0  0  0  0  0  0  0  0
   29.5456  -20.3729  -13.1163 C   0  0  0  0  0  0  0  0  0  0  0  0
   28.2610  -20.9801  -12.5239 C   0  0  0  0  0  0  0  0  0  0  0  0
   28.1494  -20.5040  -11.1181 C   0  0  2  0  0  0  0  0  0  0  0  0
   29.4098  -20.6775  -10.3227 C   0  0  0  0  0  0  0  0  0  0  0  0
   26.9563  -20.9500  -10.3471 C   0  0  2  0  0  0  0  0  0  0  0  0
   25.7927  -20.6215  -11.2104 N   0  0  0  0  0  0  0  0  0  0  0  0
   26.7592  -20.2342   -9.0773 C   0  0  0  0  0  0  0  0  0  0  0  0
   26.1304  -19.1213   -9.0313 O   0  0  0  0  0  0  0  0  0  0  0  0
   29.8722  -21.3468   -4.4543 C   0  0  0  0  0  0  0  0  0  0  0  0
   29.1368  -20.6714   -5.5725 C   0  0  0  0  0  0  0  0  0  0  0  0
   27.6346  -20.7057   -5.4109 C   0  0  2  0  0  0  0  0  0  0  0  0
   27.0908  -22.1053   -5.3639 C   0  0  0  0  0  0  0  0  0  0  0  0
   27.0624  -19.9351   -6.6038 C   0  0  2  0  0  0  0  0  0  0  0  0
   27.2293  -20.6994   -7.8273 N   0  0  0  0  0  0  0  0  0  0  0  0
   27.8069  -18.6599   -6.6818 C   0  0  0  0  0  0  0  0  0  0  0  0
   27.4402  -17.6283   -5.8332 O   0  0  0  0  0  0  0  0  0  0  0  0
   28.7577  -18.4965   -7.4966 O   0  0  0  0  0  0  0  0  0  0  0  0
  2  1  1  6
  2  3  1  0
  3  4  1  0
  4  5  2  0
  6  5  1  0
  7  6  1  0
  8  7  2  0
  9  8  1  0
 10 11  1  0
 10  9  2  0
 11 12  2  0
 12  7  1  0
 12  4  1  0
 13  2  1  0
 14 13  2  0
 16 15  1  0
 17 16  1  0
 17 18  1  1
 19 20  1  6
 19 17  1  0
 20 13  1  0
 21 19  1  0
 22 21  2  0
 23 24  1  0
 24 25  1  0
 25 27  1  0
 25 26  1  6
 27 29  1  0
 27 28  1  6
 28 21  1  0
 29 30  1  0
 31 29  2  0
M  END
$$$$
