WII.pdb
     RDKit          3D

 31 32  0  0  1  0  0  0  0  0999 V2000
   23.5518  -22.0819  -12.9573 N   0  0  0  0  0  0  0  0  0  0  0  0
   23.8194  -21.0852  -11.9813 C   0  0  1  0  0  0  0  0  0  0  0  0
   22.6809  -20.6811  -11.1102 C   0  0  0  0  0  0  0  0  0  0  0  0
   21.5249  -20.3057  -11.9836 C   0  0  0  0  0  0  0  0  0  0  0  0
   20.2087  -20.7494  -11.8391 C   0  0  0  0  0  0  0  0  0  0  0  0
   19.4540  -20.1819  -12.7902 N   0  0  0  0  0  0  0  0  0  0  0  0
   20.2046  -19.3804  -13.5631 C   0  0  0  0  0  0  0  0  0  0  0  0
   19.8978  -18.5859  -14.6688 C   0  0  0  0  0  0  0  0  0  0  0  0
   20.9019  -17.8673  -15.2690 C   0  0  0  0  0  0  0  0  0  0  0  0
   22.1778  -17.9492  -14.7673 C   0  0  0  0  0  0  0  0  0  0  0  0
   22.5110  -18.7248  -13.6771 C   0  0  0  0  0  0  0  0  0  0  0  0
   21.5013  -19.4527  -13.0653 C   0  0  0  0  0  0  0  0  0  0  0  0
   25.0172  -21.4991  -11.1641 C   0  0  0  0  0  0  0  0  0  0  0  0
   25.0292  -22.6392  -10.6422 O   0  0  0  0  0  0  0  0  0  0  0  0
   30.0316  -19.2024  -12.0200 C   0  0  0  0  0  0  0  0  0  0  0  0
   28.7332  -19.3140  -11.2006 C   0  0  0  0  0  0  0  0  0  0  0  0
   28.4840  -20.7606  -10.9540 C   0  0  2  0  0  0  0  0  0  0  0  0
   28.5742  -21.6055  -12.1907 C   0  0  0  0  0  0  0  0  0  0  0  0
   27.2841  -21.1105  -10.1449 C   0  0  2  0  0  0  0  0  0  0  0  0
   26.1245  -20.6632  -10.9587 N   0  0  0  0  0  0  0  0  0  0  0  0
   27.1992  -20.4022   -8.8585 C   0  0  0  0  0  0  0  0  0  0  0  0
   26.4134  -19.4059   -8.6979 O   0  0  0  0  0  0  0  0  0  0  0  0
   27.2457  -21.4319   -3.9426 C   0  0  0  0  0  0  0  0  0  0  0  0
   28.3904  -21.7116   -4.8694 C   0  0  0  0  0  0  0  0  0  0  0  0
   28.9691  -20.4672   -5.5023 C   0  0  2  0  0  0  0  0  0  0  0  0
   29.3044  -19.4078   -4.4913 C   0  0  0  0  0  0  0  0  0  0  0  0
   27.9146  -19.9658   -6.4926 C   0  0  2  0  0  0  0  0  0  0  0  0
   27.9535  -20.7504   -7.7140 N   0  0  0  0  0  0  0  0  0  0  0  0
   28.2358  -18.5500   -6.7738 C   0  0  0  0  0  0  0  0  0  0  0  0
   29.1039  -18.2642   -7.8148 O   0  0  0  0  0  0  0  0  0  0  0  0
   27.7400  -17.6100   -6.0917 O   0  0  0  0  0  0  0  0  0  0  0  0
  2  1  1  1
  2  3  1  0
  3  4  1  0
  4  5  2  0
  6  5  1  0
  7  6  1  0
  8  7  2  0
  9  8  1  0
 10 11  1  0
 10  9  2  0
 11 12  2  0
 12  7  1  0
 12  4  1  0
 13  2  1  0
 14 13  2  0
 16 15  1  0
 17 16  1  0
 17 18  1  6
 19 20  1  6
 19 17  1  0
 20 13  1  0
 21 19  1  0
 22 21  2  0
 23 24  1  0
 24 25  1  0
 25 27  1  0
 25 26  1  1
 27 29  1  0
 27 28  1  6
 28 21  1  0
 29 30  1  0
 31 29  2  0
M  END
$$$$
