WII.pdb
     RDKit          3D

 31 32  0  0  1  0  0  0  0  0999 V2000
   24.4530  -20.8502  -14.1152 N   0  0  0  0  0  0  0  0  0  0  0  0
   23.9961  -21.1259  -12.7988 C   0  0  1  0  0  0  0  0  0  0  0  0
   22.9099  -22.1365  -12.6670 C   0  0  0  0  0  0  0  0  0  0  0  0
   21.5943  -21.4228  -12.6723 C   0  0  0  0  0  0  0  0  0  0  0  0
   20.6847  -21.3857  -13.7312 C   0  0  0  0  0  0  0  0  0  0  0  0
   19.6144  -20.6710  -13.3572 N   0  0  0  0  0  0  0  0  0  0  0  0
   19.7670  -20.2288  -12.0985 C   0  0  0  0  0  0  0  0  0  0  0  0
   18.9540  -19.4533  -11.2705 C   0  0  0  0  0  0  0  0  0  0  0  0
   19.3924  -19.1498  -10.0054 C   0  0  0  0  0  0  0  0  0  0  0  0
   20.6156  -19.6155   -9.5894 C   0  0  0  0  0  0  0  0  0  0  0  0
   21.4401  -20.3832  -10.3842 C   0  0  0  0  0  0  0  0  0  0  0  0
   21.0031  -20.6945  -11.6632 C   0  0  0  0  0  0  0  0  0  0  0  0
   25.1761  -21.4697  -11.9253 C   0  0  0  0  0  0  0  0  0  0  0  0
   25.5510  -22.6643  -11.8571 O   0  0  0  0  0  0  0  0  0  0  0  0
   29.4631  -20.0805  -13.5039 C   0  0  0  0  0  0  0  0  0  0  0  0
   28.2819  -20.7796  -12.8067 C   0  0  0  0  0  0  0  0  0  0  0  0
   28.2137  -20.2584  -11.4141 C   0  0  2  0  0  0  0  0  0  0  0  0
   29.5464  -20.2032  -10.7270 C   0  0  0  0  0  0  0  0  0  0  0  0
   27.1697  -20.8401  -10.5261 C   0  0  2  0  0  0  0  0  0  0  0  0
   25.8774  -20.5103  -11.1805 N   0  0  0  0  0  0  0  0  0  0  0  0
   27.1279  -20.2486   -9.1800 C   0  0  0  0  0  0  0  0  0  0  0  0
   26.5171  -19.1474   -8.9557 O   0  0  0  0  0  0  0  0  0  0  0  0
   29.1386  -20.9405   -3.2903 C   0  0  0  0  0  0  0  0  0  0  0  0
   28.3140  -20.3411   -4.3895 C   0  0  0  0  0  0  0  0  0  0  0  0
   28.5398  -20.9931   -5.7341 C   0  0  2  0  0  0  0  0  0  0  0  0
   29.9891  -21.0147   -6.1291 C   0  0  0  0  0  0  0  0  0  0  0  0
   27.7097  -20.1901   -6.7392 C   0  0  2  0  0  0  0  0  0  0  0  0
   27.7376  -20.8283   -8.0433 N   0  0  0  0  0  0  0  0  0  0  0  0
   28.3134  -18.8420   -6.8071 C   0  0  0  0  0  0  0  0  0  0  0  0
   29.2377  -18.5820   -7.8056 O   0  0  0  0  0  0  0  0  0  0  0  0
   28.0060  -17.9360   -5.9829 O   0  0  0  0  0  0  0  0  0  0  0  0
  2  1  1  6
  2  3  1  0
  3  4  1  0
  4  5  2  0
  6  5  1  0
  7  6  1  0
  8  7  2  0
  9  8  1  0
 10 11  1  0
 10  9  2  0
 11 12  2  0
 12  7  1  0
 12  4  1  0
 13  2  1  0
 14 13  2  0
 16 15  1  0
 17 16  1  0
 17 18  1  1
 19 20  1  6
 19 17  1  0
 20 13  1  0
 21 19  1  0
 22 21  2  0
 23 24  1  0
 24 25  1  0
 25 27  1  0
 25 26  1  6
 27 29  1  0
 27 28  1  6
 28 21  1  0
 29 30  1  0
 31 29  2  0
M  END
$$$$
