WII.pdb
     RDKit          3D

 31 32  0  0  1  0  0  0  0  0999 V2000
   27.2395  -19.4488  -10.1655 N   0  0  0  0  0  0  0  0  0  0  0  0
   26.3727  -20.5061   -9.7806 C   0  0  1  0  0  0  0  0  0  0  0  0
   26.0600  -20.6181   -8.3286 C   0  0  0  0  0  0  0  0  0  0  0  0
   27.2264  -20.0948   -7.5502 C   0  0  0  0  0  0  0  0  0  0  0  0
   28.2531  -19.2912   -8.0502 C   0  0  0  0  0  0  0  0  0  0  0  0
   29.1024  -19.0047   -7.0539 N   0  0  0  0  0  0  0  0  0  0  0  0
   28.6911  -19.5797   -5.9122 C   0  0  0  0  0  0  0  0  0  0  0  0
   29.2209  -19.5880   -4.6210 C   0  0  0  0  0  0  0  0  0  0  0  0
   28.5649  -20.2880   -3.6389 C   0  0  0  0  0  0  0  0  0  0  0  0
   27.4086  -20.9597   -3.9519 C   0  0  0  0  0  0  0  0  0  0  0  0
   26.8615  -20.9696   -5.2175 C   0  0  0  0  0  0  0  0  0  0  0  0
   27.5185  -20.2637   -6.2144 C   0  0  0  0  0  0  0  0  0  0  0  0
   25.1154  -20.4450  -10.6107 C   0  0  0  0  0  0  0  0  0  0  0  0
   24.3376  -19.4729  -10.4606 O   0  0  0  0  0  0  0  0  0  0  0  0
   22.7666  -19.8488  -15.0273 C   0  0  0  0  0  0  0  0  0  0  0  0
   23.2290  -21.3162  -14.9732 C   0  0  0  0  0  0  0  0  0  0  0  0
   24.1772  -21.4435  -13.8330 C   0  0  2  0  0  0  0  0  0  0  0  0
   25.0394  -22.6695  -13.9021 C   0  0  0  0  0  0  0  0  0  0  0  0
   23.6192  -21.2496  -12.4662 C   0  0  2  0  0  0  0  0  0  0  0  0
   24.7729  -21.4306  -11.5479 N   0  0  0  0  0  0  0  0  0  0  0  0
   22.6093  -22.2477  -12.0821 C   0  0  0  0  0  0  0  0  0  0  0  0
   22.9438  -23.4293  -11.7246 O   0  0  0  0  0  0  0  0  0  0  0  0
   17.8643  -23.7719   -8.8815 C   0  0  0  0  0  0  0  0  0  0  0  0
   18.5841  -23.8660  -10.1932 C   0  0  0  0  0  0  0  0  0  0  0  0
   19.5295  -22.7139  -10.4439 C   0  0  2  0  0  0  0  0  0  0  0  0
   18.8198  -21.3923  -10.5265 C   0  0  0  0  0  0  0  0  0  0  0  0
   20.2478  -23.0334  -11.7578 C   0  0  2  0  0  0  0  0  0  0  0  0
   21.2173  -21.9982  -12.0694 N   0  0  0  0  0  0  0  0  0  0  0  0
   19.2061  -23.1022  -12.8050 C   0  0  0  0  0  0  0  0  0  0  0  0
   18.6858  -24.3420  -13.1383 O   0  0  0  0  0  0  0  0  0  0  0  0
   18.7880  -22.0657  -13.3929 O   0  0  0  0  0  0  0  0  0  0  0  0
  2  1  1  1
  2  3  1  0
  3  4  1  0
  4  5  2  0
  6  5  1  0
  7  6  1  0
  8  7  2  0
  9  8  1  0
 10 11  1  0
 10  9  2  0
 11 12  2  0
 12  7  1  0
 12  4  1  0
 13  2  1  0
 14 13  2  0
 16 15  1  0
 17 16  1  0
 17 18  1  1
 19 20  1  1
 19 17  1  0
 20 13  1  0
 21 19  1  0
 22 21  2  0
 23 24  1  0
 24 25  1  0
 25 27  1  0
 25 26  1  6
 27 29  1  0
 27 28  1  6
 28 21  1  0
 29 30  1  0
 31 29  2  0
M  END
$$$$
