WII.pdb
     RDKit          3D

 31 32  0  0  1  0  0  0  0  0999 V2000
   26.5795  -20.2554  -11.6656 N   0  0  0  0  0  0  0  0  0  0  0  0
   25.7336  -20.3178  -10.5262 C   0  0  1  0  0  0  0  0  0  0  0  0
   24.4951  -21.1345  -10.6581 C   0  0  0  0  0  0  0  0  0  0  0  0
   23.6063  -20.4883  -11.6742 C   0  0  0  0  0  0  0  0  0  0  0  0
   23.6725  -20.6704  -13.0572 C   0  0  0  0  0  0  0  0  0  0  0  0
   22.7028  -19.9483  -13.6355 N   0  0  0  0  0  0  0  0  0  0  0  0
   21.9926  -19.2924  -12.7036 C   0  0  0  0  0  0  0  0  0  0  0  0
   20.9049  -18.4223  -12.7918 C   0  0  0  0  0  0  0  0  0  0  0  0
   20.3855  -17.8897  -11.6380 C   0  0  0  0  0  0  0  0  0  0  0  0
   20.9484  -18.2258  -10.4312 C   0  0  0  0  0  0  0  0  0  0  0  0
   22.0226  -19.0821  -10.3126 C   0  0  0  0  0  0  0  0  0  0  0  0
   22.5517  -19.6246  -11.4743 C   0  0  0  0  0  0  0  0  0  0  0  0
   26.5453  -20.7395   -9.3275 C   0  0  0  0  0  0  0  0  0  0  0  0
   26.9214  -21.9325   -9.2403 O   0  0  0  0  0  0  0  0  0  0  0  0
   30.3683  -17.9238   -6.7464 C   0  0  0  0  0  0  0  0  0  0  0  0
   29.5484  -19.0457   -7.4090 C   0  0  0  0  0  0  0  0  0  0  0  0
   28.3751  -19.3173   -6.5343 C   0  0  2  0  0  0  0  0  0  0  0  0
   28.7338  -19.5109   -5.0903 C   0  0  0  0  0  0  0  0  0  0  0  0
   27.4137  -20.3554   -6.9978 C   0  0  2  0  0  0  0  0  0  0  0  0
   26.9008  -19.8546   -8.2990 N   0  0  0  0  0  0  0  0  0  0  0  0
   26.2468  -20.5291   -6.1192 C   0  0  0  0  0  0  0  0  0  0  0  0
   25.2114  -19.7868   -6.2335 O   0  0  0  0  0  0  0  0  0  0  0  0
   22.3142  -24.2746   -3.6541 C   0  0  0  0  0  0  0  0  0  0  0  0
   23.1253  -23.0187   -3.5430 C   0  0  0  0  0  0  0  0  0  0  0  0
   24.3216  -22.9923   -4.4660 C   0  0  2  0  0  0  0  0  0  0  0  0
   25.2790  -24.1196   -4.2027 C   0  0  0  0  0  0  0  0  0  0  0  0
   24.9974  -21.6363   -4.2451 C   0  0  2  0  0  0  0  0  0  0  0  0
   26.1636  -21.5065   -5.1006 N   0  0  0  0  0  0  0  0  0  0  0  0
   25.3896  -21.5849   -2.8202 C   0  0  0  0  0  0  0  0  0  0  0  0
   24.6071  -20.8482   -1.9462 O   0  0  0  0  0  0  0  0  0  0  0  0
   26.4107  -22.1918   -2.3917 O   0  0  0  0  0  0  0  0  0  0  0  0
  2  1  1  6
  2  3  1  0
  3  4  1  0
  4  5  2  0
  6  5  1  0
  7  6  1  0
  8  7  2  0
  9  8  1  0
 10 11  1  0
 10  9  2  0
 11 12  2  0
 12  7  1  0
 12  4  1  0
 13  2  1  0
 14 13  2  0
 16 15  1  0
 17 16  1  0
 17 18  1  1
 19 20  1  6
 19 17  1  0
 20 13  1  0
 21 19  1  0
 22 21  2  0
 23 24  1  0
 24 25  1  0
 25 27  1  0
 25 26  1  1
 27 29  1  0
 27 28  1  6
 28 21  1  0
 29 30  1  0
 31 29  2  0
M  END
$$$$
