ARL.pdb
     RDKit          3D

 25 24  0  0  1  0  0  0  0  0999 V2000
   22.3943  -15.4890  -15.0598 C   0  0  0  0  0  0  0  0  0  0  0  0
   21.8989  -16.7488  -15.7370 C   0  0  2  0  0  0  0  0  0  0  0  0
   20.5130  -16.6660  -16.1030 N   0  0  0  0  0  0  0  0  0  0  0  0
   22.0956  -17.9485  -14.8691 C   0  0  0  0  0  0  0  0  0  0  0  0
   21.4422  -18.0710  -13.7786 O   0  0  0  0  0  0  0  0  0  0  0  0
   24.8525  -25.4693  -14.7266 N   0  0  0  0  0  0  0  0  0  0  0  0
   24.8358  -24.8934  -16.0229 C   0  0  0  0  0  0  0  0  0  0  0  0
   25.7947  -25.1476  -16.8637 N   0  0  0  0  0  0  0  0  0  0  0  0
   23.8013  -24.0292  -16.4693 N   0  0  0  0  0  0  0  0  0  0  0  0
   22.6520  -23.7095  -15.6096 C   0  0  0  0  0  0  0  0  0  0  0  0
   23.0566  -22.6795  -14.5696 C   0  0  0  0  0  0  0  0  0  0  0  0
   22.8905  -21.3389  -15.1780 C   0  0  0  0  0  0  0  0  0  0  0  0
   23.1850  -20.1574  -14.3118 C   0  0  2  0  0  0  0  0  0  0  0  0
   22.9855  -18.9901  -15.1856 N   0  0  0  0  0  0  0  0  0  0  0  0
   24.5113  -20.1314  -13.6940 C   0  0  0  0  0  0  0  0  0  0  0  0
   25.4577  -19.5682  -14.3251 O   0  0  0  0  0  0  0  0  0  0  0  0
   25.8143  -24.7388  -17.8206 C   0  0  0  0  0  0  0  0  0  0  0  0
   25.2522  -20.9437   -8.1452 C   0  0  2  0  0  0  0  0  0  0  0  0
   25.3746  -20.3726   -9.5294 C   0  0  0  0  0  0  0  0  0  0  0  0
   26.0694  -19.0126   -9.3710 C   0  0  0  0  0  0  0  0  0  0  0  0
   26.2108  -21.1636  -10.4720 C   0  0  2  0  0  0  0  0  0  0  0  0
   26.1896  -20.6902  -11.9021 N   0  0  0  0  0  0  0  0  0  0  0  0
   24.8404  -20.6821  -12.4386 C   0  0  0  0  0  0  0  0  0  0  0  0
   27.1283  -21.4083  -12.7890 O   0  0  0  0  0  0  0  0  0  0  0  0
   28.4537  -21.0389  -12.9521 O   0  0  0  0  0  0  0  0  0  0  0  0
  2  1  1  1
  3  2  1  0
  4  5  2  0
  4  2  1  0
  6  7  1  0
  7  8  2  0
  9  7  1  0
  9 10  1  0
 10 11  1  0
 11 12  1  0
 13 12  1  6
 13 14  1  0
 14  4  1  0
 15 22  1  0
 15 13  1  0
 16 15  2  0
 18 17  1  1
 19 18  1  0
 20 18  1  0
 21 20  1  1
 21 22  1  0
 21 23  1  0
 23 24  1  0
 25 23  2  0
M  END
$$$$
