ARL.pdb
     RDKit          3D

 25 24  0  0  1  0  0  0  0  0999 V2000
   24.3321  -14.4957  -18.5383 C   0  0  0  0  0  0  0  0  0  0  0  0
   25.4489  -15.3431  -17.9675 C   0  0  2  0  0  0  0  0  0  0  0  0
   26.4533  -15.6572  -18.9444 N   0  0  0  0  0  0  0  0  0  0  0  0
   24.9263  -16.6174  -17.3893 C   0  0  0  0  0  0  0  0  0  0  0  0
   24.6736  -17.6145  -18.1464 O   0  0  0  0  0  0  0  0  0  0  0  0
   27.4855  -21.1091  -10.7191 N   0  0  0  0  0  0  0  0  0  0  0  0
   28.1553  -21.1485  -11.9690 C   0  0  0  0  0  0  0  0  0  0  0  0
   29.0594  -22.0547  -12.1980 N   0  0  0  0  0  0  0  0  0  0  0  0
   27.8878  -20.2278  -13.0164 N   0  0  0  0  0  0  0  0  0  0  0  0
   26.7279  -19.3257  -12.9598 C   0  0  0  0  0  0  0  0  0  0  0  0
   26.0918  -19.2167  -14.3344 C   0  0  0  0  0  0  0  0  0  0  0  0
   24.9363  -18.2963  -14.2220 C   0  0  0  0  0  0  0  0  0  0  0  0
   24.1409  -18.0481  -15.4624 C   0  0  2  0  0  0  0  0  0  0  0  0
   24.6855  -16.7978  -16.0158 N   0  0  0  0  0  0  0  0  0  0  0  0
   22.6911  -17.9574  -15.2857 C   0  0  0  0  0  0  0  0  0  0  0  0
   22.2244  -16.9672  -14.6432 O   0  0  0  0  0  0  0  0  0  0  0  0
   29.6110  -22.0752  -13.0803 C   0  0  0  0  0  0  0  0  0  0  0  0
   18.8181  -18.6869  -18.9993 C   0  0  1  0  0  0  0  0  0  0  0  0
   19.5913  -18.2754  -17.7787 C   0  0  0  0  0  0  0  0  0  0  0  0
   19.0047  -16.9275  -17.3351 C   0  0  0  0  0  0  0  0  0  0  0  0
   19.4707  -19.1898  -16.6113 C   0  0  2  0  0  0  0  0  0  0  0  0
   20.3376  -18.8408  -15.4296 N   0  0  0  0  0  0  0  0  0  0  0  0
   21.7474  -18.8839  -15.7742 C   0  0  0  0  0  0  0  0  0  0  0  0
   20.0457  -19.6286  -14.2140 O   0  0  0  0  0  0  0  0  0  0  0  0
   18.9094  -19.4441  -13.4430 O   0  0  0  0  0  0  0  0  0  0  0  0
  2  1  1  6
  3  2  1  0
  4  5  2  0
  4  2  1  0
  6  7  1  0
  7  8  2  0
  9  7  1  0
  9 10  1  0
 10 11  1  0
 11 12  1  0
 13 12  1  1
 13 14  1  0
 14  4  1  0
 15 22  1  0
 15 13  1  0
 16 15  2  0
 18 17  1  6
 19 18  1  0
 20 18  1  0
 21 20  1  6
 21 22  1  0
 21 23  1  0
 23 24  1  0
 25 23  2  0
M  END
$$$$
