ARL.pdb
     RDKit          3D

 25 24  0  0  1  0  0  0  0  0999 V2000
   26.9446  -20.4040  -18.6151 C   0  0  0  0  0  0  0  0  0  0  0  0
   27.3763  -21.4302  -17.5897 C   0  0  2  0  0  0  0  0  0  0  0  0
   27.6124  -22.7214  -18.1718 N   0  0  0  0  0  0  0  0  0  0  0  0
   26.3643  -21.5724  -16.5002 C   0  0  0  0  0  0  0  0  0  0  0  0
   25.4062  -22.4093  -16.6137 O   0  0  0  0  0  0  0  0  0  0  0  0
   24.8701  -20.1329   -8.4516 N   0  0  0  0  0  0  0  0  0  0  0  0
   23.8918  -20.9715   -9.0451 C   0  0  0  0  0  0  0  0  0  0  0  0
   22.6746  -20.9814   -8.5877 N   0  0  0  0  0  0  0  0  0  0  0  0
   24.1732  -21.8268  -10.1432 N   0  0  0  0  0  0  0  0  0  0  0  0
   25.3685  -21.6284  -10.9763 C   0  0  0  0  0  0  0  0  0  0  0  0
   25.2196  -20.3600  -11.7980 C   0  0  0  0  0  0  0  0  0  0  0  0
   26.0605  -20.5088  -13.0087 C   0  0  0  0  0  0  0  0  0  0  0  0
   25.3752  -20.9418  -14.2640 C   0  0  2  0  0  0  0  0  0  0  0  0
   26.3985  -20.8175  -15.3145 N   0  0  0  0  0  0  0  0  0  0  0  0
   24.1639  -20.2018  -14.6198 C   0  0  0  0  0  0  0  0  0  0  0  0
   24.2835  -19.1624  -15.3385 O   0  0  0  0  0  0  0  0  0  0  0  0
   21.9213  -21.5457   -9.0318 C   0  0  0  0  0  0  0  0  0  0  0  0
   20.4486  -19.2842  -18.3952 C   0  0  2  0  0  0  0  0  0  0  0  0
   20.4116  -19.3774  -16.8962 C   0  0  0  0  0  0  0  0  0  0  0  0
   19.2382  -20.3068  -16.5544 C   0  0  0  0  0  0  0  0  0  0  0  0
   21.6188  -19.9770  -16.2663 C   0  0  1  0  0  0  0  0  0  0  0  0
   21.6695  -19.8899  -14.7631 N   0  0  0  0  0  0  0  0  0  0  0  0
   22.8522  -20.5445  -14.2330 C   0  0  0  0  0  0  0  0  0  0  0  0
   20.4381  -20.3531  -14.0904 O   0  0  0  0  0  0  0  0  0  0  0  0
   19.3468  -19.5330  -13.8531 O   0  0  0  0  0  0  0  0  0  0  0  0
  2  1  1  6
  3  2  1  0
  4  5  2  0
  4  2  1  0
  6  7  1  0
  7  8  2  0
  9  7  1  0
  9 10  1  0
 10 11  1  0
 11 12  1  0
 13 12  1  1
 13 14  1  0
 14  4  1  0
 15 22  1  0
 15 13  1  0
 16 15  2  0
 18 17  1  1
 19 18  1  0
 20 18  1  0
 21 20  1  6
 21 22  1  0
 21 23  1  0
 23 24  1  0
 25 23  2  0
M  END
$$$$
