ARL.pdb
     RDKit          3D

 25 24  0  0  1  0  0  0  0  0999 V2000
   18.3498   -8.4445  -15.2647 C   0  0  0  0  0  0  0  0  0  0  0  0
   18.8309   -9.3165  -16.4046 C   0  0  2  0  0  0  0  0  0  0  0  0
   18.9100   -8.6008  -17.6469 N   0  0  0  0  0  0  0  0  0  0  0  0
   17.9481  -10.5068  -16.5915 C   0  0  0  0  0  0  0  0  0  0  0  0
   16.8733  -10.4130  -17.2749 O   0  0  0  0  0  0  0  0  0  0  0  0
   19.5682  -18.0574  -19.0349 N   0  0  0  0  0  0  0  0  0  0  0  0
   18.6901  -18.5028  -18.0136 C   0  0  0  0  0  0  0  0  0  0  0  0
   18.0181  -19.6059  -18.1644 N   0  0  0  0  0  0  0  0  0  0  0  0
   18.4965  -17.7926  -16.7994 N   0  0  0  0  0  0  0  0  0  0  0  0
   18.9977  -16.4204  -16.6315 C   0  0  0  0  0  0  0  0  0  0  0  0
   17.8357  -15.4427  -16.6374 C   0  0  0  0  0  0  0  0  0  0  0  0
   18.3887  -14.0877  -16.4063 C   0  0  0  0  0  0  0  0  0  0  0  0
   17.4123  -12.9597  -16.3219 C   0  0  2  0  0  0  0  0  0  0  0  0
   18.2333  -11.7702  -16.0443 N   0  0  0  0  0  0  0  0  0  0  0  0
   16.3479  -13.1076  -15.3285 C   0  0  0  0  0  0  0  0  0  0  0  0
   16.6339  -12.9129  -14.1072 O   0  0  0  0  0  0  0  0  0  0  0  0
   17.3656  -19.9602  -17.4350 C   0  0  0  0  0  0  0  0  0  0  0  0
   10.9745  -11.6065  -15.7834 C   0  0  2  0  0  0  0  0  0  0  0  0
   12.3451  -11.9264  -15.2577 C   0  0  0  0  0  0  0  0  0  0  0  0
   12.4345  -11.2732  -13.8710 C   0  0  0  0  0  0  0  0  0  0  0  0
   12.6280  -13.3734  -15.0587 C   0  0  2  0  0  0  0  0  0  0  0  0
   14.0183  -13.6957  -14.5757 N   0  0  0  0  0  0  0  0  0  0  0  0
   15.0092  -13.4499  -15.6081 C   0  0  0  0  0  0  0  0  0  0  0  0
   14.1562  -15.0467  -13.9933 O   0  0  0  0  0  0  0  0  0  0  0  0
   13.6628  -15.3906  -12.7451 O   0  0  0  0  0  0  0  0  0  0  0  0
  2  1  1  1
  3  2  1  0
  4  5  2  0
  4  2  1  0
  6  7  1  0
  7  8  2  0
  9  7  1  0
  9 10  1  0
 10 11  1  0
 11 12  1  0
 13 12  1  1
 13 14  1  0
 14  4  1  0
 15 22  1  0
 15 13  1  0
 16 15  2  0
 18 17  1  6
 19 18  1  0
 20 18  1  0
 21 20  1  1
 21 22  1  0
 21 23  1  0
 23 24  1  0
 25 23  2  0
M  END
$$$$
