ARL.pdb
     RDKit          3D

 25 24  0  0  1  0  0  0  0  0999 V2000
   26.9555  -20.1109  -11.7687 C   0  0  0  0  0  0  0  0  0  0  0  0
   26.3118  -21.3164  -12.4195 C   0  0  2  0  0  0  0  0  0  0  0  0
   27.2796  -22.2476  -12.9274 N   0  0  0  0  0  0  0  0  0  0  0  0
   25.4015  -20.9143  -13.5335 C   0  0  0  0  0  0  0  0  0  0  0  0
   25.8241  -20.8970  -14.7387 O   0  0  0  0  0  0  0  0  0  0  0  0
   19.2204  -24.6894  -12.4967 N   0  0  0  0  0  0  0  0  0  0  0  0
   19.3215  -23.3765  -11.9689 C   0  0  0  0  0  0  0  0  0  0  0  0
   18.8664  -23.1133  -10.7794 N   0  0  0  0  0  0  0  0  0  0  0  0
   19.9085  -22.3004  -12.6856 N   0  0  0  0  0  0  0  0  0  0  0  0
   20.0106  -22.3280  -14.1523 C   0  0  0  0  0  0  0  0  0  0  0  0
   21.4441  -22.0584  -14.5746 C   0  0  0  0  0  0  0  0  0  0  0  0
   21.8266  -20.7304  -14.0407 C   0  0  0  0  0  0  0  0  0  0  0  0
   23.1604  -20.1925  -14.4463 C   0  0  2  0  0  0  0  0  0  0  0  0
   24.0609  -20.5398  -13.3351 N   0  0  0  0  0  0  0  0  0  0  0  0
   23.2112  -18.7590  -14.7360 C   0  0  0  0  0  0  0  0  0  0  0  0
   23.0539  -17.9453  -13.7746 O   0  0  0  0  0  0  0  0  0  0  0  0
   18.9272  -22.1618  -10.3620 C   0  0  0  0  0  0  0  0  0  0  0  0
   27.4069  -16.2665  -16.4666 C   0  0  1  0  0  0  0  0  0  0  0  0
   26.0488  -16.4681  -15.8565 C   0  0  0  0  0  0  0  0  0  0  0  0
   25.8429  -15.3039  -14.8769 C   0  0  0  0  0  0  0  0  0  0  0  0
   24.9091  -16.4192  -16.8116 C   0  0  2  0  0  0  0  0  0  0  0  0
   23.5639  -16.7591  -16.2245 N   0  0  0  0  0  0  0  0  0  0  0  0
   23.4252  -18.1879  -16.0071 C   0  0  0  0  0  0  0  0  0  0  0  0
   22.4198  -16.2052  -16.9780 O   0  0  0  0  0  0  0  0  0  0  0  0
   22.0456  -14.8724  -16.9213 O   0  0  0  0  0  0  0  0  0  0  0  0
  2  1  1  6
  3  2  1  0
  4  5  2  0
  4  2  1  0
  6  7  1  0
  7  8  2  0
  9  7  1  0
  9 10  1  0
 10 11  1  0
 11 12  1  0
 13 12  1  1
 13 14  1  0
 14  4  1  0
 15 22  1  0
 15 13  1  0
 16 15  2  0
 18 17  1  1
 19 18  1  0
 20 18  1  0
 21 20  1  1
 21 22  1  0
 21 23  1  0
 23 24  1  0
 25 23  2  0
M  END
$$$$
