ARL.pdb
     RDKit          3D

 25 24  0  0  1  0  0  0  0  0999 V2000
   26.4014  -16.7858  -17.4621 C   0  0  0  0  0  0  0  0  0  0  0  0
   25.7412  -16.3808  -18.7625 C   0  0  2  0  0  0  0  0  0  0  0  0
   26.6955  -16.1046  -19.7992 N   0  0  0  0  0  0  0  0  0  0  0  0
   24.8683  -15.1823  -18.5815 C   0  0  0  0  0  0  0  0  0  0  0  0
   25.3239  -14.0111  -18.8090 O   0  0  0  0  0  0  0  0  0  0  0  0
   17.2124  -14.2042  -15.3762 N   0  0  0  0  0  0  0  0  0  0  0  0
   16.9855  -13.3631  -16.4958 C   0  0  0  0  0  0  0  0  0  0  0  0
   16.0427  -12.4681  -16.4608 N   0  0  0  0  0  0  0  0  0  0  0  0
   17.7514  -13.4441  -17.6887 N   0  0  0  0  0  0  0  0  0  0  0  0
   18.8742  -14.3858  -17.8104 C   0  0  0  0  0  0  0  0  0  0  0  0
   20.1902  -13.6316  -17.7360 C   0  0  0  0  0  0  0  0  0  0  0  0
   21.2784  -14.6015  -18.0009 C   0  0  0  0  0  0  0  0  0  0  0  0
   22.6764  -14.0736  -17.9960 C   0  0  2  0  0  0  0  0  0  0  0  0
   23.5288  -15.2619  -18.1616 N   0  0  0  0  0  0  0  0  0  0  0  0
   23.0669  -13.3071  -16.8122 C   0  0  0  0  0  0  0  0  0  0  0  0
   23.5506  -13.9359  -15.8213 O   0  0  0  0  0  0  0  0  0  0  0  0
   15.8194  -11.8676  -17.2809 C   0  0  0  0  0  0  0  0  0  0  0  0
   27.5015  -11.0319  -14.8650 C   0  0  2  0  0  0  0  0  0  0  0  0
   26.0620  -10.6052  -14.9205 C   0  0  0  0  0  0  0  0  0  0  0  0
   26.0609   -9.1764  -15.4828 C   0  0  0  0  0  0  0  0  0  0  0  0
   25.1942  -11.4110  -15.8211 C   0  0  1  0  0  0  0  0  0  0  0  0
   23.7165  -11.1456  -15.6960 N   0  0  0  0  0  0  0  0  0  0  0  0
   22.9558  -11.9090  -16.6690 C   0  0  0  0  0  0  0  0  0  0  0  0
   23.3571   -9.7126  -15.7206 O   0  0  0  0  0  0  0  0  0  0  0  0
   23.3167   -8.9192  -14.5854 O   0  0  0  0  0  0  0  0  0  0  0  0
  2  1  1  1
  3  2  1  0
  4  5  2  0
  4  2  1  0
  6  7  1  0
  7  8  2  0
  9  7  1  0
  9 10  1  0
 10 11  1  0
 11 12  1  0
 13 12  1  1
 13 14  1  0
 14  4  1  0
 15 22  1  0
 15 13  1  0
 16 15  2  0
 18 17  1  1
 19 18  1  0
 20 18  1  0
 21 20  1  1
 21 22  1  0
 21 23  1  0
 23 24  1  0
 25 23  2  0
M  END
$$$$
