ARL.pdb
     RDKit          3D

 25 24  0  0  1  0  0  0  0  0999 V2000
   14.1198   -8.7891  -12.8220 C   0  0  0  0  0  0  0  0  0  0  0  0
   14.8636   -7.9785  -13.8615 C   0  0  2  0  0  0  0  0  0  0  0  0
   14.1443   -7.8833  -15.1005 N   0  0  0  0  0  0  0  0  0  0  0  0
   16.2164   -8.5503  -14.1342 C   0  0  0  0  0  0  0  0  0  0  0  0
   17.0908   -8.6117  -13.2054 O   0  0  0  0  0  0  0  0  0  0  0  0
   20.2697  -14.6627  -18.2833 N   0  0  0  0  0  0  0  0  0  0  0  0
   21.1346  -13.5546  -18.4745 C   0  0  0  0  0  0  0  0  0  0  0  0
   22.2215  -13.6870  -19.1761 N   0  0  0  0  0  0  0  0  0  0  0  0
   20.8745  -12.2702  -17.9277 N   0  0  0  0  0  0  0  0  0  0  0  0
   19.5977  -11.9697  -17.2632 C   0  0  0  0  0  0  0  0  0  0  0  0
   19.1225  -10.5836  -17.6621 C   0  0  0  0  0  0  0  0  0  0  0  0
   17.8725  -10.3064  -16.9165 C   0  0  0  0  0  0  0  0  0  0  0  0
   17.9847   -9.4569  -15.6923 C   0  0  2  0  0  0  0  0  0  0  0  0
   16.6044   -9.0434  -15.3925 N   0  0  0  0  0  0  0  0  0  0  0  0
   18.8702   -8.2965  -15.7974 C   0  0  0  0  0  0  0  0  0  0  0  0
   18.4428   -7.2670  -16.4044 O   0  0  0  0  0  0  0  0  0  0  0  0
   22.9267  -12.9254  -19.2526 C   0  0  0  0  0  0  0  0  0  0  0  0
   21.3598   -3.8668  -15.5825 C   0  0  2  0  0  0  0  0  0  0  0  0
   21.6993   -4.8288  -14.4795 C   0  0  0  0  0  0  0  0  0  0  0  0
   21.5104   -4.0570  -13.1656 C   0  0  0  0  0  0  0  0  0  0  0  0
   20.8242   -6.0288  -14.3906 C   0  0  1  0  0  0  0  0  0  0  0  0
   21.0394   -7.0619  -15.4659 N   0  0  0  0  0  0  0  0  0  0  0  0
   20.1770   -8.2143  -15.2750 C   0  0  0  0  0  0  0  0  0  0  0  0
   22.4514   -7.4575  -15.6481 O   0  0  0  0  0  0  0  0  0  0  0  0
   22.8784   -8.7755  -15.6434 O   0  0  0  0  0  0  0  0  0  0  0  0
  2  1  1  1
  3  2  1  0
  4  5  2  0
  4  2  1  0
  6  7  1  0
  7  8  2  0
  9  7  1  0
  9 10  1  0
 10 11  1  0
 11 12  1  0
 13 12  1  6
 13 14  1  0
 14  4  1  0
 15 22  1  0
 15 13  1  0
 16 15  2  0
 18 17  1  6
 19 18  1  0
 20 18  1  0
 21 20  1  6
 21 22  1  0
 21 23  1  0
 23 24  1  0
 25 23  2  0
M  END
$$$$
