ARL.pdb
     RDKit          3D

 25 24  0  0  1  0  0  0  0  0999 V2000
   20.8911  -19.9927  -16.4334 C   0  0  0  0  0  0  0  0  0  0  0  0
   22.0071  -20.8737  -16.9528 C   0  0  2  0  0  0  0  0  0  0  0  0
   21.5614  -22.2062  -17.2485 N   0  0  0  0  0  0  0  0  0  0  0  0
   23.1390  -20.9504  -15.9812 C   0  0  0  0  0  0  0  0  0  0  0  0
   23.1964  -21.9009  -15.1300 O   0  0  0  0  0  0  0  0  0  0  0  0
   29.2347  -20.6591  -18.4778 N   0  0  0  0  0  0  0  0  0  0  0  0
   28.5951  -19.4488  -18.8502 C   0  0  0  0  0  0  0  0  0  0  0  0
   28.3196  -19.2122  -20.0989 N   0  0  0  0  0  0  0  0  0  0  0  0
   28.2270  -18.4504  -17.9100 N   0  0  0  0  0  0  0  0  0  0  0  0
   28.4872  -18.6243  -16.4732 C   0  0  0  0  0  0  0  0  0  0  0  0
   27.6263  -19.7491  -15.9257 C   0  0  0  0  0  0  0  0  0  0  0  0
   26.3325  -19.1608  -15.5076 C   0  0  0  0  0  0  0  0  0  0  0  0
   25.2963  -20.1001  -14.9813 C   0  0  2  0  0  0  0  0  0  0  0  0
   24.1838  -20.0103  -15.9407 N   0  0  0  0  0  0  0  0  0  0  0  0
   24.8353  -19.8449  -13.6161 C   0  0  0  0  0  0  0  0  0  0  0  0
   23.8820  -19.0242  -13.4469 O   0  0  0  0  0  0  0  0  0  0  0  0
   27.8797  -18.3216  -20.4091 C   0  0  0  0  0  0  0  0  0  0  0  0
   20.8715  -20.9045  -12.0062 C   0  0  1  0  0  0  0  0  0  0  0  0
   22.1803  -20.2316  -11.7040 C   0  0  0  0  0  0  0  0  0  0  0  0
   21.9322  -19.3469  -10.4738 C   0  0  0  0  0  0  0  0  0  0  0  0
   23.2975  -21.1460  -11.3445 C   0  0  2  0  0  0  0  0  0  0  0  0
   24.6430  -20.4863  -11.1889 N   0  0  0  0  0  0  0  0  0  0  0  0
   25.3602  -20.4394  -12.4505 C   0  0  0  0  0  0  0  0  0  0  0  0
   25.4725  -21.0564  -10.1071 O   0  0  0  0  0  0  0  0  0  0  0  0
   25.3835  -20.6493   -8.7857 O   0  0  0  0  0  0  0  0  0  0  0  0
  2  1  1  1
  3  2  1  0
  4  5  2  0
  4  2  1  0
  6  7  1  0
  7  8  2  0
  9  7  1  0
  9 10  1  0
 10 11  1  0
 11 12  1  0
 13 12  1  6
 13 14  1  0
 14  4  1  0
 15 22  1  0
 15 13  1  0
 16 15  2  0
 18 17  1  6
 19 18  1  0
 20 18  1  0
 21 20  1  6
 21 22  1  0
 21 23  1  0
 23 24  1  0
 25 23  2  0
M  END
$$$$
