ARL.pdb
     RDKit          3D

 25 24  0  0  1  0  0  0  0  0999 V2000
   19.5726  -18.2163  -12.2501 C   0  0  0  0  0  0  0  0  0  0  0  0
   19.3216  -19.6088  -12.7877 C   0  0  2  0  0  0  0  0  0  0  0  0
   18.2652  -20.2845  -12.0882 N   0  0  0  0  0  0  0  0  0  0  0  0
   20.5547  -20.4493  -12.7233 C   0  0  0  0  0  0  0  0  0  0  0  0
   20.7122  -21.2938  -11.7783 O   0  0  0  0  0  0  0  0  0  0  0  0
   24.8666  -25.4180  -14.6753 N   0  0  0  0  0  0  0  0  0  0  0  0
   25.6070  -25.1137  -15.8465 C   0  0  0  0  0  0  0  0  0  0  0  0
   26.7210  -25.7366  -16.0959 N   0  0  0  0  0  0  0  0  0  0  0  0
   25.1898  -24.1390  -16.7910 N   0  0  0  0  0  0  0  0  0  0  0  0
   24.0354  -23.2674  -16.5264 C   0  0  0  0  0  0  0  0  0  0  0  0
   24.1005  -22.7431  -15.1027 C   0  0  0  0  0  0  0  0  0  0  0  0
   22.9871  -21.7816  -14.9276 C   0  0  0  0  0  0  0  0  0  0  0  0
   22.8196  -21.1740  -13.5727 C   0  0  2  0  0  0  0  0  0  0  0  0
   21.5915  -20.3688  -13.6696 N   0  0  0  0  0  0  0  0  0  0  0  0
   23.9409  -20.3668  -13.0902 C   0  0  0  0  0  0  0  0  0  0  0  0
   23.6862  -19.3547  -12.3679 O   0  0  0  0  0  0  0  0  0  0  0  0
   27.2679  -25.5655  -16.9647 C   0  0  0  0  0  0  0  0  0  0  0  0
   25.4651  -21.3435   -8.6756 C   0  0  2  0  0  0  0  0  0  0  0  0
   25.4124  -20.6298   -9.9966 C   0  0  0  0  0  0  0  0  0  0  0  0
   26.2375  -19.3466   -9.8226 C   0  0  0  0  0  0  0  0  0  0  0  0
   26.0160  -21.3645  -11.1409 C   0  0  2  0  0  0  0  0  0  0  0  0
   26.3414  -20.5211  -12.3461 N   0  0  0  0  0  0  0  0  0  0  0  0
   25.3028  -20.6158  -13.3563 C   0  0  0  0  0  0  0  0  0  0  0  0
   27.6827  -20.7717  -12.9131 O   0  0  0  0  0  0  0  0  0  0  0  0
   28.8136  -20.0690  -12.5298 O   0  0  0  0  0  0  0  0  0  0  0  0
  2  1  1  1
  3  2  1  0
  4  5  2  0
  4  2  1  0
  6  7  1  0
  7  8  2  0
  9  7  1  0
  9 10  1  0
 10 11  1  0
 11 12  1  0
 13 12  1  6
 13 14  1  0
 14  4  1  0
 15 22  1  0
 15 13  1  0
 16 15  2  0
 18 17  1  1
 19 18  1  0
 20 18  1  0
 21 20  1  1
 21 22  1  0
 21 23  1  0
 23 24  1  0
 25 23  2  0
M  END
$$$$
