ARL.pdb
     RDKit          3D

 25 24  0  0  1  0  0  0  0  0999 V2000
   24.8201  -15.6178  -16.3936 C   0  0  0  0  0  0  0  0  0  0  0  0
   23.5241  -15.5716  -17.1741 C   0  0  2  0  0  0  0  0  0  0  0  0
   23.6213  -16.2443  -18.4389 N   0  0  0  0  0  0  0  0  0  0  0  0
   23.0794  -14.1654  -17.4109 C   0  0  0  0  0  0  0  0  0  0  0  0
   23.7208  -13.4125  -18.2189 O   0  0  0  0  0  0  0  0  0  0  0  0
   14.8114  -11.4302  -17.1468 N   0  0  0  0  0  0  0  0  0  0  0  0
   15.5424  -10.2476  -17.4291 C   0  0  0  0  0  0  0  0  0  0  0  0
   14.9162   -9.1344  -17.6731 N   0  0  0  0  0  0  0  0  0  0  0  0
   16.9615  -10.2077  -17.4616 N   0  0  0  0  0  0  0  0  0  0  0  0
   17.7640  -11.4029  -17.1621 C   0  0  0  0  0  0  0  0  0  0  0  0
   19.2423  -11.0696  -17.2614 C   0  0  0  0  0  0  0  0  0  0  0  0
   20.0003  -12.3232  -17.0404 C   0  0  0  0  0  0  0  0  0  0  0  0
   21.4915  -12.2313  -17.0728 C   0  0  2  0  0  0  0  0  0  0  0  0
   21.9599  -13.5953  -16.7795 N   0  0  0  0  0  0  0  0  0  0  0  0
   22.0929  -11.2605  -16.1576 C   0  0  0  0  0  0  0  0  0  0  0  0
   21.9495  -11.4418  -14.9096 O   0  0  0  0  0  0  0  0  0  0  0  0
   15.4218   -8.2535  -17.9002 C   0  0  0  0  0  0  0  0  0  0  0  0
   27.1287   -9.6246  -16.2382 C   0  0  2  0  0  0  0  0  0  0  0  0
   25.7024   -9.9574  -15.9034 C   0  0  0  0  0  0  0  0  0  0  0  0
   25.7221  -10.5463  -14.4855 C   0  0  0  0  0  0  0  0  0  0  0  0
   24.7715   -8.7975  -15.8629 C   0  0  2  0  0  0  0  0  0  0  0  0
   23.3291   -9.1404  -15.5949 N   0  0  0  0  0  0  0  0  0  0  0  0
   22.8325  -10.1233  -16.5413 C   0  0  0  0  0  0  0  0  0  0  0  0
   22.4369   -7.9660  -15.5046 O   0  0  0  0  0  0  0  0  0  0  0  0
   22.3293   -7.1784  -14.3699 O   0  0  0  0  0  0  0  0  0  0  0  0
  2  1  1  6
  3  2  1  0
  4  5  2  0
  4  2  1  0
  6  7  1  0
  7  8  2  0
  9  7  1  0
  9 10  1  0
 10 11  1  0
 11 12  1  0
 13 12  1  1
 13 14  1  0
 14  4  1  0
 15 22  1  0
 15 13  1  0
 16 15  2  0
 18 17  1  6
 19 18  1  0
 20 18  1  0
 21 20  1  1
 21 22  1  0
 21 23  1  0
 23 24  1  0
 25 23  2  0
M  END
$$$$
