ARL.pdb
     RDKit          3D

 25 24  0  0  1  0  0  0  0  0999 V2000
   24.0712  -26.2046  -19.9695 C   0  0  0  0  0  0  0  0  0  0  0  0
   23.6975  -24.7379  -19.9531 C   0  0  2  0  0  0  0  0  0  0  0  0
   24.4646  -23.9660  -20.8898 N   0  0  0  0  0  0  0  0  0  0  0  0
   23.8663  -24.1468  -18.5917 C   0  0  0  0  0  0  0  0  0  0  0  0
   23.2535  -24.6481  -17.5895 O   0  0  0  0  0  0  0  0  0  0  0  0
   30.1088  -23.9801  -15.4275 N   0  0  0  0  0  0  0  0  0  0  0  0
   29.9344  -24.7226  -16.6237 C   0  0  0  0  0  0  0  0  0  0  0  0
   30.3173  -25.9639  -16.6844 N   0  0  0  0  0  0  0  0  0  0  0  0
   29.3481  -24.1724  -17.7941 N   0  0  0  0  0  0  0  0  0  0  0  0
   28.4745  -22.9916  -17.7255 C   0  0  0  0  0  0  0  0  0  0  0  0
   27.3151  -23.2620  -16.7827 C   0  0  0  0  0  0  0  0  0  0  0  0
   26.3498  -22.1475  -16.9280 C   0  0  0  0  0  0  0  0  0  0  0  0
   24.8997  -22.5053  -16.9750 C   0  0  2  0  0  0  0  0  0  0  0  0
   24.6855  -23.0341  -18.3316 N   0  0  0  0  0  0  0  0  0  0  0  0
   23.9630  -21.4205  -16.6794 C   0  0  0  0  0  0  0  0  0  0  0  0
   23.9900  -20.3858  -17.4142 O   0  0  0  0  0  0  0  0  0  0  0  0
   30.2054  -26.5358  -17.5467 C   0  0  0  0  0  0  0  0  0  0  0  0
   20.5518  -19.5509  -19.1016 C   0  0  1  0  0  0  0  0  0  0  0  0
   21.2727  -19.4300  -17.7890 C   0  0  0  0  0  0  0  0  0  0  0  0
   20.6991  -18.1839  -17.0992 C   0  0  0  0  0  0  0  0  0  0  0  0
   21.0701  -20.5624  -16.8455 C   0  0  2  0  0  0  0  0  0  0  0  0
   21.8907  -20.5018  -15.5835 N   0  0  0  0  0  0  0  0  0  0  0  0
   23.0145  -21.4196  -15.6364 C   0  0  0  0  0  0  0  0  0  0  0  0
   21.1037  -20.6689  -14.3441 O   0  0  0  0  0  0  0  0  0  0  0  0
   20.4342  -19.6273  -13.7222 O   0  0  0  0  0  0  0  0  0  0  0  0
  2  1  1  1
  3  2  1  0
  4  5  2  0
  4  2  1  0
  6  7  1  0
  7  8  2  0
  9  7  1  0
  9 10  1  0
 10 11  1  0
 11 12  1  0
 13 12  1  6
 13 14  1  0
 14  4  1  0
 15 22  1  0
 15 13  1  0
 16 15  2  0
 18 17  1  6
 19 18  1  0
 20 18  1  0
 21 20  1  6
 21 22  1  0
 21 23  1  0
 23 24  1  0
 25 23  2  0
M  END
$$$$
