ARL.pdb
     RDKit          3D

 25 24  0  0  1  0  0  0  0  0999 V2000
   22.2384  -18.9572  -18.6596 C   0  0  0  0  0  0  0  0  0  0  0  0
   22.8665  -18.4192  -17.3918 C   0  0  2  0  0  0  0  0  0  0  0  0
   23.9618  -17.5296  -17.6572 N   0  0  0  0  0  0  0  0  0  0  0  0
   23.3481  -19.5243  -16.5098 C   0  0  0  0  0  0  0  0  0  0  0  0
   22.5385  -20.4233  -16.1002 O   0  0  0  0  0  0  0  0  0  0  0  0
   30.0725  -23.7957  -15.9745 N   0  0  0  0  0  0  0  0  0  0  0  0
   29.6211  -23.6152  -17.3073 C   0  0  0  0  0  0  0  0  0  0  0  0
   29.8099  -24.5481  -18.1934 N   0  0  0  0  0  0  0  0  0  0  0  0
   28.9549  -22.4394  -17.7432 N   0  0  0  0  0  0  0  0  0  0  0  0
   28.4940  -21.4251  -16.7835 C   0  0  0  0  0  0  0  0  0  0  0  0
   26.9774  -21.4390  -16.7071 C   0  0  0  0  0  0  0  0  0  0  0  0
   26.5884  -20.8429  -15.4077 C   0  0  0  0  0  0  0  0  0  0  0  0
   25.1265  -20.6839  -15.1426 C   0  0  2  0  0  0  0  0  0  0  0  0
   24.6831  -19.6443  -16.0852 N   0  0  0  0  0  0  0  0  0  0  0  0
   24.7590  -20.3393  -13.7686 C   0  0  0  0  0  0  0  0  0  0  0  0
   24.0213  -19.3237  -13.5802 O   0  0  0  0  0  0  0  0  0  0  0  0
   29.5949  -24.4050  -19.2016 C   0  0  0  0  0  0  0  0  0  0  0  0
   20.8021  -20.3199  -12.1768 C   0  0  2  0  0  0  0  0  0  0  0  0
   22.1695  -19.9970  -11.6449 C   0  0  0  0  0  0  0  0  0  0  0  0
   21.9499  -19.3118  -10.2884 C   0  0  0  0  0  0  0  0  0  0  0  0
   23.0444  -21.1718  -11.3845 C   0  0  2  0  0  0  0  0  0  0  0  0
   24.5196  -20.8726  -11.3195 N   0  0  0  0  0  0  0  0  0  0  0  0
   25.1538  -21.0455  -12.6141 C   0  0  0  0  0  0  0  0  0  0  0  0
   25.2369  -21.6043  -10.2550 O   0  0  0  0  0  0  0  0  0  0  0  0
   25.0897  -21.3222   -8.9065 O   0  0  0  0  0  0  0  0  0  0  0  0
  2  1  1  6
  3  2  1  0
  4  5  2  0
  4  2  1  0
  6  7  1  0
  7  8  2  0
  9  7  1  0
  9 10  1  0
 10 11  1  0
 11 12  1  0
 13 12  1  1
 13 14  1  0
 14  4  1  0
 15 22  1  0
 15 13  1  0
 16 15  2  0
 18 17  1  6
 19 18  1  0
 20 18  1  0
 21 20  1  6
 21 22  1  0
 21 23  1  0
 23 24  1  0
 25 23  2  0
M  END
$$$$
