ARL.pdb
     RDKit          3D

 25 24  0  0  1  0  0  0  0  0999 V2000
   19.9478  -29.3406   -0.9631 C   0  0  0  0  0  0  0  0  0  0  0  0
   18.5660  -29.2234   -1.5697 C   0  0  2  0  0  0  0  0  0  0  0  0
   18.3224  -30.2187   -2.5756 N   0  0  0  0  0  0  0  0  0  0  0  0
   18.3451  -27.8724   -2.1673 C   0  0  0  0  0  0  0  0  0  0  0  0
   18.5373  -26.8189   -1.4713 O   0  0  0  0  0  0  0  0  0  0  0  0
   19.0497  -25.6246  -10.5901 N   0  0  0  0  0  0  0  0  0  0  0  0
   18.3849  -24.5108  -10.0155 C   0  0  0  0  0  0  0  0  0  0  0  0
   18.0935  -23.4752  -10.7460 N   0  0  0  0  0  0  0  0  0  0  0  0
   18.0078  -24.4596   -8.6475 N   0  0  0  0  0  0  0  0  0  0  0  0
   18.3707  -25.5385   -7.7166 C   0  0  0  0  0  0  0  0  0  0  0  0
   17.5945  -25.3841   -6.4205 C   0  0  0  0  0  0  0  0  0  0  0  0
   17.9759  -26.5074   -5.5329 C   0  0  0  0  0  0  0  0  0  0  0  0
   17.7111  -26.3402   -4.0718 C   0  0  2  0  0  0  0  0  0  0  0  0
   17.9239  -27.6771   -3.4945 N   0  0  0  0  0  0  0  0  0  0  0  0
   16.3912  -25.8177   -3.7162 C   0  0  0  0  0  0  0  0  0  0  0  0
   15.4168  -26.6296   -3.6659 O   0  0  0  0  0  0  0  0  0  0  0  0
   17.6348  -22.6296  -10.3488 C   0  0  0  0  0  0  0  0  0  0  0  0
   13.6421  -22.4830    0.4192 C   0  0  2  0  0  0  0  0  0  0  0  0
   13.6179  -22.8664   -1.0333 C   0  0  0  0  0  0  0  0  0  0  0  0
   13.3699  -21.5678   -1.8142 C   0  0  0  0  0  0  0  0  0  0  0  0
   14.8860  -23.4377   -1.5614 C   0  0  1  0  0  0  0  0  0  0  0  0
   14.7979  -24.0270   -2.9452 N   0  0  0  0  0  0  0  0  0  0  0  0
   16.0972  -24.4719   -3.4164 C   0  0  0  0  0  0  0  0  0  0  0  0
   14.1263  -23.1544   -3.9305 O   0  0  0  0  0  0  0  0  0  0  0  0
   12.7495  -23.0263   -4.0188 O   0  0  0  0  0  0  0  0  0  0  0  0
  2  1  1  6
  3  2  1  0
  4  5  2  0
  4  2  1  0
  6  7  1  0
  7  8  2  0
  9  7  1  0
  9 10  1  0
 10 11  1  0
 11 12  1  0
 13 12  1  6
 13 14  1  0
 14  4  1  0
 15 22  1  0
 15 13  1  0
 16 15  2  0
 18 17  1  1
 19 18  1  0
 20 18  1  0
 21 20  1  1
 21 22  1  0
 21 23  1  0
 23 24  1  0
 25 23  2  0
M  END
$$$$
