ARL.pdb
     RDKit          3D

 25 24  0  0  1  0  0  0  0  0999 V2000
   26.4136  -17.2930  -17.7967 C   0  0  0  0  0  0  0  0  0  0  0  0
   27.0542  -18.5371  -17.2197 C   0  0  2  0  0  0  0  0  0  0  0  0
   27.6842  -19.3461  -18.2248 N   0  0  0  0  0  0  0  0  0  0  0  0
   26.0582  -19.3732  -16.4849 C   0  0  0  0  0  0  0  0  0  0  0  0
   25.2386  -20.1140  -17.1257 O   0  0  0  0  0  0  0  0  0  0  0  0
   26.2239  -19.7877   -8.6928 N   0  0  0  0  0  0  0  0  0  0  0  0
   25.3477  -20.7352   -9.2819 C   0  0  0  0  0  0  0  0  0  0  0  0
   24.2144  -21.0206   -8.7117 N   0  0  0  0  0  0  0  0  0  0  0  0
   25.6455  -21.4108  -10.4949 N   0  0  0  0  0  0  0  0  0  0  0  0
   26.8695  -21.1114  -11.2527 C   0  0  0  0  0  0  0  0  0  0  0  0
   26.5703  -21.1234  -12.7415 C   0  0  0  0  0  0  0  0  0  0  0  0
   25.3909  -20.2559  -12.9687 C   0  0  0  0  0  0  0  0  0  0  0  0
   24.8983  -20.1318  -14.3740 C   0  0  2  0  0  0  0  0  0  0  0  0
   25.9600  -19.3991  -15.0825 N   0  0  0  0  0  0  0  0  0  0  0  0
   23.6025  -19.4730  -14.5421 C   0  0  0  0  0  0  0  0  0  0  0  0
   23.5868  -18.2201  -14.7454 O   0  0  0  0  0  0  0  0  0  0  0  0
   23.5722  -21.7470   -9.0900 C   0  0  0  0  0  0  0  0  0  0  0  0
   20.0814  -17.3953  -17.9761 C   0  0  2  0  0  0  0  0  0  0  0  0
   19.9254  -18.2268  -16.7346 C   0  0  0  0  0  0  0  0  0  0  0  0
   18.9190  -19.3326  -17.0840 C   0  0  0  0  0  0  0  0  0  0  0  0
   21.1603  -18.9149  -16.2708 C   0  0  1  0  0  0  0  0  0  0  0  0
   21.1055  -19.4550  -14.8654 N   0  0  0  0  0  0  0  0  0  0  0  0
   22.3472  -20.1134  -14.5009 C   0  0  0  0  0  0  0  0  0  0  0  0
   19.9310  -20.3094  -14.5932 O   0  0  0  0  0  0  0  0  0  0  0  0
   19.9559  -21.6910  -14.6947 O   0  0  0  0  0  0  0  0  0  0  0  0
  2  1  1  6
  3  2  1  0
  4  5  2  0
  4  2  1  0
  6  7  1  0
  7  8  2  0
  9  7  1  0
  9 10  1  0
 10 11  1  0
 11 12  1  0
 13 12  1  1
 13 14  1  0
 14  4  1  0
 15 22  1  0
 15 13  1  0
 16 15  2  0
 18 17  1  1
 19 18  1  0
 20 18  1  0
 21 20  1  1
 21 22  1  0
 21 23  1  0
 23 24  1  0
 25 23  2  0
M  END
$$$$
