TVH.pdb
     RDKit          3D

 25 25  0  0  1  0  0  0  0  0999 V2000
   13.3626  -25.3685    1.8928 C   0  0  0  0  0  0  0  0  0  0  0  0
   13.9929  -25.4194    0.5207 C   0  0  1  0  0  0  0  0  0  0  0  0
   13.2269  -26.1591   -0.3670 O   0  0  0  0  0  0  0  0  0  0  0  0
   14.3857  -24.0816    0.0011 C   0  0  2  0  0  0  0  0  0  0  0  0
   14.8728  -24.2399   -1.3623 N   0  0  0  0  0  0  0  0  0  0  0  0
   15.3347  -23.3353    0.8391 C   0  0  0  0  0  0  0  0  0  0  0  0
   16.5915  -23.5341    0.7496 O   0  0  0  0  0  0  0  0  0  0  0  0
   16.5122  -19.5029    3.6756 C   0  0  0  0  0  0  0  0  0  0  0  0
   15.5011  -20.1742    2.7705 C   0  0  1  0  0  0  0  0  0  0  0  0
   15.4745  -19.3891    1.4777 C   0  0  0  0  0  0  0  0  0  0  0  0
   15.8816  -21.6069    2.5795 C   0  0  2  0  0  0  0  0  0  0  0  0
   14.9507  -22.3617    1.7875 N   0  0  0  0  0  0  0  0  0  0  0  0
   16.0936  -22.2070    3.9275 C   0  0  0  0  0  0  0  0  0  0  0  0
   15.1363  -22.5469    4.6698 O   0  0  0  0  0  0  0  0  0  0  0  0
   17.4104  -22.4278    4.4480 N   0  0  0  0  0  0  0  0  0  0  0  0
   17.6146  -22.9429    5.7977 C   0  0  1  0  0  0  0  0  0  0  0  0
   18.9403  -23.6877    5.8162 C   0  0  0  0  0  0  0  0  0  0  0  0
   18.8052  -25.0338    5.2026 C   0  0  0  0  0  0  0  0  0  0  0  0
   17.6766  -25.6637    4.7406 C   0  0  0  0  0  0  0  0  0  0  0  0
   18.0469  -26.8696    4.2715 N   0  0  0  0  0  0  0  0  0  0  0  0
   19.3678  -27.0272    4.4190 C   0  0  0  0  0  0  0  0  0  0  0  0
   19.8266  -25.9080    4.9861 N   0  0  0  0  0  0  0  0  0  0  0  0
   17.6061  -21.8395    6.7886 C   0  0  0  0  0  0  0  0  0  0  0  0
   17.3560  -22.0612    8.1345 O   0  0  0  0  0  0  0  0  0  0  0  0
   17.8272  -20.6359    6.4556 O   0  0  0  0  0  0  0  0  0  0  0  0
  2  1  1  1
  2  3  1  0
  4  6  1  0
  4  2  1  0
  4  5  1  6
  6  7  2  0
  9  8  1  1
  9 10  1  0
 11  9  1  0
 12  6  1  0
 11 12  1  1
 13 11  1  0
 14 13  2  0
 15 13  1  0
 16 15  1  0
 16 17  1  6
 17 18  1  0
 18 22  1  0
 19 18  2  0
 19 20  1  0
 20 21  1  0
 22 21  2  0
 23 16  1  0
 23 24  1  0
 25 23  2  0
M  END
$$$$
