TVH.pdb
     RDKit          3D

 25 25  0  0  1  0  0  0  0  0999 V2000
   26.8697  -12.2367  -17.4361 C   0  0  0  0  0  0  0  0  0  0  0  0
   26.2196  -12.9583  -16.2788 C   0  0  1  0  0  0  0  0  0  0  0  0
   26.1808  -12.1684  -15.1402 O   0  0  0  0  0  0  0  0  0  0  0  0
   24.9093  -13.5718  -16.6262 C   0  0  2  0  0  0  0  0  0  0  0  0
   25.1335  -14.6040  -17.6289 N   0  0  0  0  0  0  0  0  0  0  0  0
   23.8616  -12.6267  -17.0372 C   0  0  0  0  0  0  0  0  0  0  0  0
   23.8389  -12.1386  -18.2154 O   0  0  0  0  0  0  0  0  0  0  0  0
   19.3701  -10.8752  -16.9188 C   0  0  0  0  0  0  0  0  0  0  0  0
   20.4109  -11.9347  -16.6246 C   0  0  1  0  0  0  0  0  0  0  0  0
   20.2645  -13.0048  -17.6838 C   0  0  0  0  0  0  0  0  0  0  0  0
   21.7668  -11.3062  -16.6087 C   0  0  2  0  0  0  0  0  0  0  0  0
   22.8193  -12.1897  -16.1901 N   0  0  0  0  0  0  0  0  0  0  0  0
   21.6913  -10.0782  -15.7669 C   0  0  0  0  0  0  0  0  0  0  0  0
   21.5211  -10.1268  -14.5213 O   0  0  0  0  0  0  0  0  0  0  0  0
   21.8103   -8.7706  -16.3412 N   0  0  0  0  0  0  0  0  0  0  0  0
   21.7417   -7.5710  -15.5136 C   0  0  1  0  0  0  0  0  0  0  0  0
   22.1767   -6.3905  -16.3679 C   0  0  0  0  0  0  0  0  0  0  0  0
   22.0649   -5.1156  -15.6138 C   0  0  0  0  0  0  0  0  0  0  0  0
   22.2485   -4.8854  -14.2731 C   0  0  0  0  0  0  0  0  0  0  0  0
   22.0397   -3.5742  -14.0531 N   0  0  0  0  0  0  0  0  0  0  0  0
   21.7307   -2.9650  -15.2041 C   0  0  0  0  0  0  0  0  0  0  0  0
   21.7469   -3.9060  -16.1523 N   0  0  0  0  0  0  0  0  0  0  0  0
   20.3698   -7.3739  -14.9859 C   0  0  0  0  0  0  0  0  0  0  0  0
   20.1258   -7.1358  -13.6416 O   0  0  0  0  0  0  0  0  0  0  0  0
   19.3490   -7.4130  -15.7374 O   0  0  0  0  0  0  0  0  0  0  0  0
  2  1  1  6
  2  3  1  0
  4  6  1  0
  4  2  1  0
  4  5  1  6
  6  7  2  0
  9  8  1  6
  9 10  1  0
 11  9  1  0
 12  6  1  0
 11 12  1  1
 13 11  1  0
 14 13  2  0
 15 13  1  0
 16 15  1  0
 16 17  1  6
 17 18  1  0
 18 22  1  0
 19 18  2  0
 19 20  1  0
 20 21  1  0
 22 21  2  0
 23 16  1  0
 23 24  1  0
 25 23  2  0
M  END
$$$$
