TVH.pdb
     RDKit          3D

 25 25  0  0  1  0  0  0  0  0999 V2000
   15.6644  -13.9189  -17.1315 C   0  0  0  0  0  0  0  0  0  0  0  0
   16.7549  -13.0215  -16.5947 C   0  0  1  0  0  0  0  0  0  0  0  0
   16.6892  -12.9060  -15.2147 O   0  0  0  0  0  0  0  0  0  0  0  0
   18.1096  -13.3697  -17.1019 C   0  0  2  0  0  0  0  0  0  0  0  0
   18.4080  -14.7427  -16.7184 N   0  0  0  0  0  0  0  0  0  0  0  0
   19.1839  -12.4458  -16.7121 C   0  0  0  0  0  0  0  0  0  0  0  0
   20.0116  -12.7483  -15.7898 O   0  0  0  0  0  0  0  0  0  0  0  0
   22.2296   -8.7201  -17.4923 C   0  0  0  0  0  0  0  0  0  0  0  0
   21.2872   -9.7845  -18.0132 C   0  0  1  0  0  0  0  0  0  0  0  0
   22.1431  -10.8797  -18.6099 C   0  0  0  0  0  0  0  0  0  0  0  0
   20.4152  -10.2630  -16.8975 C   0  0  2  0  0  0  0  0  0  0  0  0
   19.3887  -11.1809  -17.3063 N   0  0  0  0  0  0  0  0  0  0  0  0
   19.8595   -9.0650  -16.2059 C   0  0  0  0  0  0  0  0  0  0  0  0
   18.9628   -8.3479  -16.7201 O   0  0  0  0  0  0  0  0  0  0  0  0
   20.3242   -8.6686  -14.9095 N   0  0  0  0  0  0  0  0  0  0  0  0
   19.8043   -7.4750  -14.2510 C   0  0  1  0  0  0  0  0  0  0  0  0
   19.8381   -7.7190  -12.7504 C   0  0  0  0  0  0  0  0  0  0  0  0
   18.7419   -8.6303  -12.3326 C   0  0  0  0  0  0  0  0  0  0  0  0
   17.8032   -9.2651  -13.1071 C   0  0  0  0  0  0  0  0  0  0  0  0
   17.0175   -9.9855  -12.2855 N   0  0  0  0  0  0  0  0  0  0  0  0
   17.4232   -9.8308  -11.0195 C   0  0  0  0  0  0  0  0  0  0  0  0
   18.4730   -9.0053  -11.0514 N   0  0  0  0  0  0  0  0  0  0  0  0
   20.6041   -6.2812  -14.6179 C   0  0  0  0  0  0  0  0  0  0  0  0
   20.0774   -4.9993  -14.5692 O   0  0  0  0  0  0  0  0  0  0  0  0
   21.8115   -6.3718  -14.9953 O   0  0  0  0  0  0  0  0  0  0  0  0
  2  1  1  1
  2  3  1  0
  4  6  1  0
  4  2  1  0
  4  5  1  1
  6  7  2  0
  9  8  1  1
  9 10  1  0
 11  9  1  0
 12  6  1  0
 11 12  1  6
 13 11  1  0
 14 13  2  0
 15 13  1  0
 16 15  1  0
 16 17  1  1
 17 18  1  0
 18 22  1  0
 19 18  2  0
 19 20  1  0
 20 21  1  0
 22 21  2  0
 23 16  1  0
 23 24  1  0
 25 23  2  0
M  END
$$$$
