TVH.pdb
     RDKit          3D

 25 25  0  0  1  0  0  0  0  0999 V2000
   20.7794   -9.8799  -21.4571 C   0  0  0  0  0  0  0  0  0  0  0  0
   20.6753  -11.3871  -21.4701 C   0  0  1  0  0  0  0  0  0  0  0  0
   20.6841  -11.8893  -22.7623 O   0  0  0  0  0  0  0  0  0  0  0  0
   21.6473  -12.0542  -20.5624 C   0  0  2  0  0  0  0  0  0  0  0  0
   21.5394  -13.4948  -20.7478 N   0  0  0  0  0  0  0  0  0  0  0  0
   21.5480  -11.6749  -19.1461 C   0  0  0  0  0  0  0  0  0  0  0  0
   20.4156  -11.4681  -18.5966 O   0  0  0  0  0  0  0  0  0  0  0  0
   23.4946  -10.9473  -14.6657 C   0  0  0  0  0  0  0  0  0  0  0  0
   23.7181  -11.4603  -16.0725 C   0  0  1  0  0  0  0  0  0  0  0  0
   23.8801  -12.9612  -15.9756 C   0  0  0  0  0  0  0  0  0  0  0  0
   22.5714  -11.0483  -16.9381 C   0  0  2  0  0  0  0  0  0  0  0  0
   22.6631  -11.5115  -18.2948 N   0  0  0  0  0  0  0  0  0  0  0  0
   22.4456   -9.5652  -16.8545 C   0  0  0  0  0  0  0  0  0  0  0  0
   22.9797   -8.7970  -17.6955 O   0  0  0  0  0  0  0  0  0  0  0  0
   21.7031   -8.9370  -15.8020 N   0  0  0  0  0  0  0  0  0  0  0  0
   21.4830   -7.4947  -15.7871 C   0  0  1  0  0  0  0  0  0  0  0  0
   20.8086   -7.1131  -17.0956 C   0  0  0  0  0  0  0  0  0  0  0  0
   20.5567   -5.6506  -17.1600 C   0  0  0  0  0  0  0  0  0  0  0  0
   21.4489   -4.6140  -17.0440 C   0  0  0  0  0  0  0  0  0  0  0  0
   20.7575   -3.4661  -17.1691 N   0  0  0  0  0  0  0  0  0  0  0  0
   19.4607   -3.7367  -17.3601 C   0  0  0  0  0  0  0  0  0  0  0  0
   19.3417   -5.0673  -17.3540 N   0  0  0  0  0  0  0  0  0  0  0  0
   20.6538   -7.1013  -14.6221 C   0  0  0  0  0  0  0  0  0  0  0  0
   20.6656   -5.8115  -14.1128 O   0  0  0  0  0  0  0  0  0  0  0  0
   19.8910   -7.9248  -14.0319 O   0  0  0  0  0  0  0  0  0  0  0  0
  2  1  1  6
  2  3  1  0
  4  6  1  0
  4  2  1  0
  4  5  1  1
  6  7  2  0
  9  8  1  1
  9 10  1  0
 11  9  1  0
 12  6  1  0
 11 12  1  6
 13 11  1  0
 14 13  2  0
 15 13  1  0
 16 15  1  0
 16 17  1  6
 17 18  1  0
 18 22  1  0
 19 18  2  0
 19 20  1  0
 20 21  1  0
 22 21  2  0
 23 16  1  0
 23 24  1  0
 25 23  2  0
M  END
$$$$
