TVH.pdb
     RDKit          3D

 25 25  0  0  1  0  0  0  0  0999 V2000
  -59.9646   14.2634    9.1279 C   0  0  0  0  0  0  0  0  0  0  0  0
  -60.0133   15.4847   10.0160 C   0  0  1  0  0  0  0  0  0  0  0  0
  -59.0970   15.4000   11.0529 O   0  0  0  0  0  0  0  0  0  0  0  0
  -59.9472   16.7660    9.2624 C   0  0  2  0  0  0  0  0  0  0  0  0
  -58.5881   16.9431    8.7700 N   0  0  0  0  0  0  0  0  0  0  0  0
  -60.4249   17.9495    9.9910 C   0  0  0  0  0  0  0  0  0  0  0  0
  -60.2763   18.0512   11.2538 O   0  0  0  0  0  0  0  0  0  0  0  0
  -64.3262   19.3724   11.1990 C   0  0  0  0  0  0  0  0  0  0  0  0
  -62.8169   19.3505   11.0817 C   0  0  1  0  0  0  0  0  0  0  0  0
  -62.3385   18.0874   11.7630 C   0  0  0  0  0  0  0  0  0  0  0  0
  -62.4311   19.4217    9.6395 C   0  0  2  0  0  0  0  0  0  0  0  0
  -61.0700   19.0452    9.3760 N   0  0  0  0  0  0  0  0  0  0  0  0
  -62.7426   20.7950    9.1504 C   0  0  0  0  0  0  0  0  0  0  0  0
  -62.4681   21.1703    7.9814 O   0  0  0  0  0  0  0  0  0  0  0  0
  -63.3756   21.7633    9.9962 N   0  0  0  0  0  0  0  0  0  0  0  0
  -64.8277   21.9002   10.0357 C   0  0  1  0  0  0  0  0  0  0  0  0
  -65.3478   21.0216   11.1626 C   0  0  0  0  0  0  0  0  0  0  0  0
  -65.8942   19.7448   10.6358 C   0  0  0  0  0  0  0  0  0  0  0  0
  -67.1902   19.4263   10.3149 C   0  0  0  0  0  0  0  0  0  0  0  0
  -67.1999   18.1536    9.8770 N   0  0  0  0  0  0  0  0  0  0  0  0
  -65.9587   17.6540    9.9084 C   0  0  0  0  0  0  0  0  0  0  0  0
  -65.1661   18.6249   10.3708 N   0  0  0  0  0  0  0  0  0  0  0  0
  -65.2170   23.3169   10.2374 C   0  0  0  0  0  0  0  0  0  0  0  0
  -64.2986   24.3521   10.1487 O   0  0  0  0  0  0  0  0  0  0  0  0
  -66.4107   23.6544   10.5015 O   0  0  0  0  0  0  0  0  0  0  0  0
  2  1  1  6
  2  3  1  0
  4  6  1  0
  4  2  1  0
  4  5  1  1
  6  7  2  0
  9  8  1  6
  9 10  1  0
 11  9  1  0
 12  6  1  0
 11 12  1  1
 13 11  1  0
 14 13  2  0
 15 13  1  0
 16 15  1  0
 16 17  1  1
 17 18  1  0
 18 22  1  0
 19 18  2  0
 19 20  1  0
 20 21  1  0
 22 21  2  0
 23 16  1  0
 23 24  1  0
 25 23  2  0
M  END
$$$$
