TVH.pdb
     RDKit          3D

 25 25  0  0  1  0  0  0  0  0999 V2000
   21.5191  -11.4376  -19.9363 C   0  0  0  0  0  0  0  0  0  0  0  0
   21.3938  -12.8661  -19.4606 C   0  0  1  0  0  0  0  0  0  0  0  0
   20.9120  -13.6976  -20.4597 O   0  0  0  0  0  0  0  0  0  0  0  0
   22.6237  -13.3779  -18.7977 C   0  0  2  0  0  0  0  0  0  0  0  0
   22.3990  -14.7648  -18.4140 N   0  0  0  0  0  0  0  0  0  0  0  0
   23.1141  -12.5703  -17.6721 C   0  0  0  0  0  0  0  0  0  0  0  0
   22.5286  -12.5937  -16.5391 O   0  0  0  0  0  0  0  0  0  0  0  0
   26.4269   -9.7422  -15.4018 C   0  0  0  0  0  0  0  0  0  0  0  0
   26.1255  -10.6953  -16.5389 C   0  0  1  0  0  0  0  0  0  0  0  0
   26.8195  -12.0005  -16.2179 C   0  0  0  0  0  0  0  0  0  0  0  0
   24.6450  -10.8384  -16.6861 C   0  0  2  0  0  0  0  0  0  0  0  0
   24.2424  -11.7237  -17.7433 N   0  0  0  0  0  0  0  0  0  0  0  0
   24.0672   -9.4730  -16.8413 C   0  0  0  0  0  0  0  0  0  0  0  0
   24.2144   -8.7965  -17.8917 O   0  0  0  0  0  0  0  0  0  0  0  0
   23.3090   -8.8592  -15.7915 N   0  0  0  0  0  0  0  0  0  0  0  0
   22.5684   -7.6223  -16.0159 C   0  0  1  0  0  0  0  0  0  0  0  0
   21.5987   -7.8617  -17.1626 C   0  0  0  0  0  0  0  0  0  0  0  0
   20.8198   -6.6344  -17.4684 C   0  0  0  0  0  0  0  0  0  0  0  0
   20.6244   -5.5190  -16.6926 C   0  0  0  0  0  0  0  0  0  0  0  0
   19.8487   -4.6689  -17.3904 N   0  0  0  0  0  0  0  0  0  0  0  0
   19.5453   -5.2038  -18.5792 C   0  0  0  0  0  0  0  0  0  0  0  0
   20.1379   -6.4003  -18.6237 N   0  0  0  0  0  0  0  0  0  0  0  0
   21.8514   -7.2080  -14.7855 C   0  0  0  0  0  0  0  0  0  0  0  0
   21.6004   -5.8758  -14.4936 O   0  0  0  0  0  0  0  0  0  0  0  0
   21.4311   -8.0515  -13.9369 O   0  0  0  0  0  0  0  0  0  0  0  0
  2  1  1  6
  2  3  1  0
  4  6  1  0
  4  2  1  0
  4  5  1  1
  6  7  2  0
  9  8  1  1
  9 10  1  0
 11  9  1  0
 12  6  1  0
 11 12  1  6
 13 11  1  0
 14 13  2  0
 15 13  1  0
 16 15  1  0
 16 17  1  6
 17 18  1  0
 18 22  1  0
 19 18  2  0
 19 20  1  0
 20 21  1  0
 22 21  2  0
 23 16  1  0
 23 24  1  0
 25 23  2  0
M  END
$$$$
