TVH.pdb
     RDKit          3D

 25 25  0  0  1  0  0  0  0  0999 V2000
   19.3087  -22.7635  -11.7800 C   0  0  0  0  0  0  0  0  0  0  0  0
   20.3083  -21.7766  -12.3365 C   0  0  1  0  0  0  0  0  0  0  0  0
   19.6815  -20.7309  -12.9965 O   0  0  0  0  0  0  0  0  0  0  0  0
   21.3194  -21.3340  -11.3387 C   0  0  2  0  0  0  0  0  0  0  0  0
   20.6360  -20.6010  -10.2819 N   0  0  0  0  0  0  0  0  0  0  0  0
   22.4535  -20.5763  -11.8862 C   0  0  0  0  0  0  0  0  0  0  0  0
   22.5347  -19.3119  -11.7386 O   0  0  0  0  0  0  0  0  0  0  0  0
   27.0851  -20.2920  -13.4477 C   0  0  0  0  0  0  0  0  0  0  0  0
   25.9601  -21.1588  -12.9231 C   0  0  1  0  0  0  0  0  0  0  0  0
   26.2906  -21.4901  -11.4846 C   0  0  0  0  0  0  0  0  0  0  0  0
   24.6628  -20.4323  -13.0750 C   0  0  2  0  0  0  0  0  0  0  0  0
   23.5207  -21.1634  -12.6012 N   0  0  0  0  0  0  0  0  0  0  0  0
   24.5262  -20.0353  -14.5054 C   0  0  0  0  0  0  0  0  0  0  0  0
   24.2781  -20.8698  -15.4136 O   0  0  0  0  0  0  0  0  0  0  0  0
   24.6723  -18.6710  -14.9190 N   0  0  0  0  0  0  0  0  0  0  0  0
   24.3829  -18.2598  -16.2887 C   0  0  1  0  0  0  0  0  0  0  0  0
   23.8409  -16.8397  -16.2438 C   0  0  0  0  0  0  0  0  0  0  0  0
   22.4293  -16.8212  -15.7817 C   0  0  0  0  0  0  0  0  0  0  0  0
   21.6268  -17.8718  -15.4127 C   0  0  0  0  0  0  0  0  0  0  0  0
   20.4276  -17.3667  -15.0690 N   0  0  0  0  0  0  0  0  0  0  0  0
   20.4402  -16.0355  -15.2065 C   0  0  0  0  0  0  0  0  0  0  0  0
   21.6601  -15.7064  -15.6405 N   0  0  0  0  0  0  0  0  0  0  0  0
   25.6009  -18.3422  -17.1309 C   0  0  0  0  0  0  0  0  0  0  0  0
   25.5742  -18.8690  -18.4135 O   0  0  0  0  0  0  0  0  0  0  0  0
   26.7297  -17.9347  -16.7211 O   0  0  0  0  0  0  0  0  0  0  0  0
  2  1  1  1
  2  3  1  0
  4  6  1  0
  4  2  1  0
  4  5  1  1
  6  7  2  0
  9  8  1  1
  9 10  1  0
 11  9  1  0
 12  6  1  0
 11 12  1  6
 13 11  1  0
 14 13  2  0
 15 13  1  0
 16 15  1  0
 16 17  1  1
 17 18  1  0
 18 22  1  0
 19 18  2  0
 19 20  1  0
 20 21  1  0
 22 21  2  0
 23 16  1  0
 23 24  1  0
 25 23  2  0
M  END
$$$$
