TVH.pdb
     RDKit          3D

 25 25  0  0  1  0  0  0  0  0999 V2000
   20.5862  -16.9900  -16.9817 C   0  0  0  0  0  0  0  0  0  0  0  0
   21.2313  -18.1191  -16.2124 C   0  0  1  0  0  0  0  0  0  0  0  0
   20.9268  -19.3538  -16.7648 O   0  0  0  0  0  0  0  0  0  0  0  0
   22.6849  -17.9141  -15.9704 C   0  0  2  0  0  0  0  0  0  0  0  0
   23.1942  -19.0546  -15.2213 N   0  0  0  0  0  0  0  0  0  0  0  0
   23.0431  -16.6377  -15.3363 C   0  0  0  0  0  0  0  0  0  0  0  0
   22.9724  -16.4867  -14.0717 O   0  0  0  0  0  0  0  0  0  0  0  0
   26.0482  -14.7125  -14.8890 C   0  0  0  0  0  0  0  0  0  0  0  0
   25.1163  -13.7258  -15.5599 C   0  0  1  0  0  0  0  0  0  0  0  0
   25.5809  -13.5819  -16.9922 C   0  0  0  0  0  0  0  0  0  0  0  0
   23.7093  -14.2170  -15.4457 C   0  0  2  0  0  0  0  0  0  0  0  0
   23.4843  -15.5010  -16.0493 N   0  0  0  0  0  0  0  0  0  0  0  0
   22.8115  -13.1654  -16.0028 C   0  0  0  0  0  0  0  0  0  0  0  0
   22.4863  -13.1341  -17.2177 O   0  0  0  0  0  0  0  0  0  0  0  0
   22.2705  -12.1293  -15.1736 N   0  0  0  0  0  0  0  0  0  0  0  0
   21.3516  -11.1316  -15.7110 C   0  0  1  0  0  0  0  0  0  0  0  0
   20.1547  -11.0496  -14.7765 C   0  0  0  0  0  0  0  0  0  0  0  0
   19.2166   -9.9796  -15.2026 C   0  0  0  0  0  0  0  0  0  0  0  0
   19.0795   -8.7048  -14.7126 C   0  0  0  0  0  0  0  0  0  0  0  0
   18.0999   -8.1031  -15.4124 N   0  0  0  0  0  0  0  0  0  0  0  0
   17.6114   -8.9489  -16.3274 C   0  0  0  0  0  0  0  0  0  0  0  0
   18.2932  -10.0903  -16.1973 N   0  0  0  0  0  0  0  0  0  0  0  0
   22.0218   -9.8149  -15.8403 C   0  0  0  0  0  0  0  0  0  0  0  0
   21.5891   -8.8546  -16.7423 O   0  0  0  0  0  0  0  0  0  0  0  0
   23.0254   -9.4997  -15.1320 O   0  0  0  0  0  0  0  0  0  0  0  0
  2  1  1  6
  2  3  1  0
  4  6  1  0
  4  2  1  0
  4  5  1  1
  6  7  2  0
  9  8  1  1
  9 10  1  0
 11  9  1  0
 12  6  1  0
 11 12  1  6
 13 11  1  0
 14 13  2  0
 15 13  1  0
 16 15  1  0
 16 17  1  1
 17 18  1  0
 18 22  1  0
 19 18  2  0
 19 20  1  0
 20 21  1  0
 22 21  2  0
 23 16  1  0
 23 24  1  0
 25 23  2  0
M  END
$$$$
