TVH.pdb
     RDKit          3D

 25 25  0  0  1  0  0  0  0  0999 V2000
   15.9269  -11.1224  -12.0044 C   0  0  0  0  0  0  0  0  0  0  0  0
   14.6053  -11.5547  -11.4136 C   0  0  1  0  0  0  0  0  0  0  0  0
   14.4802  -12.9353  -11.3954 O   0  0  0  0  0  0  0  0  0  0  0  0
   14.3028  -10.9094  -10.1075 C   0  0  2  0  0  0  0  0  0  0  0  0
   13.0030  -11.3802   -9.6493 N   0  0  0  0  0  0  0  0  0  0  0  0
   14.3898   -9.4424  -10.0956 C   0  0  0  0  0  0  0  0  0  0  0  0
   13.5067   -8.7246  -10.6718 O   0  0  0  0  0  0  0  0  0  0  0  0
   15.6988   -5.1163   -8.4089 C   0  0  0  0  0  0  0  0  0  0  0  0
   15.4745   -6.6010   -8.2150 C   0  0  1  0  0  0  0  0  0  0  0  0
   14.1245   -6.7616   -7.5517 C   0  0  0  0  0  0  0  0  0  0  0  0
   15.5650   -7.2925   -9.5370 C   0  0  2  0  0  0  0  0  0  0  0  0
   15.4265   -8.7204   -9.4640 N   0  0  0  0  0  0  0  0  0  0  0  0
   16.8447   -6.8808  -10.1813 C   0  0  0  0  0  0  0  0  0  0  0  0
   17.9139   -7.5248  -10.0237 O   0  0  0  0  0  0  0  0  0  0  0  0
   16.9196   -5.7207  -11.0193 N   0  0  0  0  0  0  0  0  0  0  0  0
   17.8960   -5.6285  -12.0994 C   0  0  1  0  0  0  0  0  0  0  0  0
   17.7409   -6.8628  -12.9739 C   0  0  0  0  0  0  0  0  0  0  0  0
   19.0185   -7.6148  -13.0679 C   0  0  0  0  0  0  0  0  0  0  0  0
   20.2446   -7.3059  -12.5334 C   0  0  0  0  0  0  0  0  0  0  0  0
   21.0995   -8.2844  -12.8842 N   0  0  0  0  0  0  0  0  0  0  0  0
   20.4611   -9.2015  -13.6208 C   0  0  0  0  0  0  0  0  0  0  0  0
   19.1945   -8.7911  -13.7309 N   0  0  0  0  0  0  0  0  0  0  0  0
   17.6956   -4.3866  -12.8849 C   0  0  0  0  0  0  0  0  0  0  0  0
   16.4483   -3.7964  -13.0225 O   0  0  0  0  0  0  0  0  0  0  0  0
   18.6553   -3.8005  -13.4713 O   0  0  0  0  0  0  0  0  0  0  0  0
  2  1  1  1
  2  3  1  0
  4  6  1  0
  4  2  1  0
  4  5  1  6
  6  7  2  0
  9  8  1  6
  9 10  1  0
 11  9  1  0
 12  6  1  0
 11 12  1  1
 13 11  1  0
 14 13  2  0
 15 13  1  0
 16 15  1  0
 16 17  1  6
 17 18  1  0
 18 22  1  0
 19 18  2  0
 19 20  1  0
 20 21  1  0
 22 21  2  0
 23 16  1  0
 23 24  1  0
 25 23  2  0
M  END
$$$$
