TVH.pdb
     RDKit          3D

 25 25  0  0  1  0  0  0  0  0999 V2000
   23.2552  -23.7211  -17.4874 C   0  0  0  0  0  0  0  0  0  0  0  0
   24.5588  -22.9704  -17.6271 C   0  0  1  0  0  0  0  0  0  0  0  0
   25.2832  -23.4037  -18.7269 O   0  0  0  0  0  0  0  0  0  0  0  0
   24.3995  -21.4926  -17.5602 C   0  0  2  0  0  0  0  0  0  0  0  0
   25.7197  -20.8816  -17.6298 N   0  0  0  0  0  0  0  0  0  0  0  0
   23.6248  -20.9947  -16.4149 C   0  0  0  0  0  0  0  0  0  0  0  0
   24.1694  -20.8249  -15.2740 O   0  0  0  0  0  0  0  0  0  0  0  0
   20.1990  -18.4442  -14.2378 C   0  0  0  0  0  0  0  0  0  0  0  0
   21.0817  -18.7787  -15.4215 C   0  0  1  0  0  0  0  0  0  0  0  0
   22.2560  -17.8260  -15.3809 C   0  0  0  0  0  0  0  0  0  0  0  0
   21.4881  -20.2150  -15.3462 C   0  0  2  0  0  0  0  0  0  0  0  0
   22.2515  -20.6697  -16.4749 N   0  0  0  0  0  0  0  0  0  0  0  0
   20.2568  -21.0277  -15.1322 C   0  0  0  0  0  0  0  0  0  0  0  0
   19.4839  -21.3375  -16.0753 O   0  0  0  0  0  0  0  0  0  0  0  0
   19.8906  -21.4997  -13.8296 N   0  0  0  0  0  0  0  0  0  0  0  0
   18.6835  -22.2928  -13.6233 C   0  0  1  0  0  0  0  0  0  0  0  0
   18.9388  -23.2344  -12.4568 C   0  0  0  0  0  0  0  0  0  0  0  0
   19.8574  -24.3339  -12.8491 C   0  0  0  0  0  0  0  0  0  0  0  0
   20.4664  -24.5615  -14.0579 C   0  0  0  0  0  0  0  0  0  0  0  0
   21.2069  -25.6788  -13.9365 N   0  0  0  0  0  0  0  0  0  0  0  0
   21.0897  -26.1676  -12.6961 C   0  0  0  0  0  0  0  0  0  0  0  0
   20.2676  -25.3468  -12.0366 N   0  0  0  0  0  0  0  0  0  0  0  0
   17.5169  -21.4161  -13.3588 C   0  0  0  0  0  0  0  0  0  0  0  0
   16.2266  -21.7823  -13.7110 O   0  0  0  0  0  0  0  0  0  0  0  0
   17.6399  -20.2859  -12.7967 O   0  0  0  0  0  0  0  0  0  0  0  0
  2  1  1  6
  2  3  1  0
  4  6  1  0
  4  2  1  0
  4  5  1  1
  6  7  2  0
  9  8  1  1
  9 10  1  0
 11  9  1  0
 12  6  1  0
 11 12  1  6
 13 11  1  0
 14 13  2  0
 15 13  1  0
 16 15  1  0
 16 17  1  1
 17 18  1  0
 18 22  1  0
 19 18  2  0
 19 20  1  0
 20 21  1  0
 22 21  2  0
 23 16  1  0
 23 24  1  0
 25 23  2  0
M  END
$$$$
