TVH.pdb
     RDKit          3D

 25 25  0  0  1  0  0  0  0  0999 V2000
   25.5293  -12.0116  -15.7321 C   0  0  0  0  0  0  0  0  0  0  0  0
   25.1423  -13.2342  -16.5309 C   0  0  1  0  0  0  0  0  0  0  0  0
   26.1161  -14.2186  -16.4634 O   0  0  0  0  0  0  0  0  0  0  0  0
   23.7713  -13.7274  -16.2290 C   0  0  2  0  0  0  0  0  0  0  0  0
   23.5741  -14.9954  -16.9177 N   0  0  0  0  0  0  0  0  0  0  0  0
   22.6854  -12.7773  -16.5082 C   0  0  0  0  0  0  0  0  0  0  0  0
   22.4013  -12.4330  -17.7031 O   0  0  0  0  0  0  0  0  0  0  0  0
   18.5107  -10.5195  -15.4721 C   0  0  0  0  0  0  0  0  0  0  0  0
   19.4887  -11.6625  -15.3012 C   0  0  1  0  0  0  0  0  0  0  0  0
   18.9301  -12.8411  -16.0673 C   0  0  0  0  0  0  0  0  0  0  0  0
   20.8380  -11.2360  -15.7823 C   0  0  2  0  0  0  0  0  0  0  0  0
   21.8851  -12.1806  -15.5090 N   0  0  0  0  0  0  0  0  0  0  0  0
   21.1248   -9.8916  -15.2056 C   0  0  0  0  0  0  0  0  0  0  0  0
   21.6028   -9.7437  -14.0513 O   0  0  0  0  0  0  0  0  0  0  0  0
   20.8676   -8.6914  -15.9451 N   0  0  0  0  0  0  0  0  0  0  0  0
   21.1740   -7.3782  -15.3879 C   0  0  1  0  0  0  0  0  0  0  0  0
   21.7631   -6.5260  -16.5012 C   0  0  0  0  0  0  0  0  0  0  0  0
   22.1147   -5.1701  -16.0067 C   0  0  0  0  0  0  0  0  0  0  0  0
   22.2994   -4.7419  -14.7158 C   0  0  0  0  0  0  0  0  0  0  0  0
   22.6052   -3.4320  -14.7615 N   0  0  0  0  0  0  0  0  0  0  0  0
   22.6211   -3.0144  -16.0329 C   0  0  0  0  0  0  0  0  0  0  0  0
   22.3221   -4.0747  -16.7886 N   0  0  0  0  0  0  0  0  0  0  0  0
   19.9562   -6.7507  -14.8199 C   0  0  0  0  0  0  0  0  0  0  0  0
   18.7160   -6.8671  -15.4294 O   0  0  0  0  0  0  0  0  0  0  0  0
   19.9867   -6.0752  -13.7470 O   0  0  0  0  0  0  0  0  0  0  0  0
  2  1  1  1
  2  3  1  0
  4  6  1  0
  4  2  1  0
  4  5  1  6
  6  7  2  0
  9  8  1  6
  9 10  1  0
 11  9  1  0
 12  6  1  0
 11 12  1  1
 13 11  1  0
 14 13  2  0
 15 13  1  0
 16 15  1  0
 16 17  1  6
 17 18  1  0
 18 22  1  0
 19 18  2  0
 19 20  1  0
 20 21  1  0
 22 21  2  0
 23 16  1  0
 23 24  1  0
 25 23  2  0
M  END
$$$$
