TVH.pdb
     RDKit          3D

 25 25  0  0  1  0  0  0  0  0999 V2000
   21.4475  -14.6766  -16.9925 C   0  0  0  0  0  0  0  0  0  0  0  0
   20.1868  -15.4864  -17.1866 C   0  0  1  0  0  0  0  0  0  0  0  0
   20.3883  -16.8256  -16.8900 O   0  0  0  0  0  0  0  0  0  0  0  0
   18.9971  -14.8973  -16.5146 C   0  0  2  0  0  0  0  0  0  0  0  0
   17.8771  -15.8153  -16.6692 N   0  0  0  0  0  0  0  0  0  0  0  0
   18.6492  -13.5326  -16.9343 C   0  0  0  0  0  0  0  0  0  0  0  0
   18.3341  -13.2744  -18.1431 O   0  0  0  0  0  0  0  0  0  0  0  0
   15.9497  -11.4289  -16.7773 C   0  0  0  0  0  0  0  0  0  0  0  0
   17.0060  -10.5757  -16.1076 C   0  0  1  0  0  0  0  0  0  0  0  0
   16.7465  -10.6379  -14.6187 C   0  0  0  0  0  0  0  0  0  0  0  0
   18.3619  -11.0761  -16.4886 C   0  0  2  0  0  0  0  0  0  0  0  0
   18.6329  -12.4210  -16.0630 N   0  0  0  0  0  0  0  0  0  0  0  0
   19.3689  -10.1059  -15.9719 C   0  0  0  0  0  0  0  0  0  0  0  0
   19.9018  -10.2299  -14.8391 O   0  0  0  0  0  0  0  0  0  0  0  0
   19.7825   -8.9744  -16.7480 N   0  0  0  0  0  0  0  0  0  0  0  0
   20.7884   -8.0420  -16.2507 C   0  0  1  0  0  0  0  0  0  0  0  0
   21.4556   -7.3921  -17.4528 C   0  0  0  0  0  0  0  0  0  0  0  0
   22.4700   -6.3944  -17.0261 C   0  0  0  0  0  0  0  0  0  0  0  0
   23.1559   -6.3122  -15.8400 C   0  0  0  0  0  0  0  0  0  0  0  0
   23.9674   -5.2410  -15.9127 N   0  0  0  0  0  0  0  0  0  0  0  0
   23.8214   -4.6415  -17.1003 C   0  0  0  0  0  0  0  0  0  0  0  0
   22.9092   -5.3459  -17.7759 N   0  0  0  0  0  0  0  0  0  0  0  0
   20.1708   -7.0247  -15.3657 C   0  0  0  0  0  0  0  0  0  0  0  0
   18.9302   -6.4682  -15.6383 O   0  0  0  0  0  0  0  0  0  0  0  0
   20.7459   -6.6116  -14.3137 O   0  0  0  0  0  0  0  0  0  0  0  0
  2  1  1  1
  2  3  1  0
  4  6  1  0
  4  2  1  0
  4  5  1  6
  6  7  2  0
  9  8  1  6
  9 10  1  0
 11  9  1  0
 12  6  1  0
 11 12  1  1
 13 11  1  0
 14 13  2  0
 15 13  1  0
 16 15  1  0
 16 17  1  6
 17 18  1  0
 18 22  1  0
 19 18  2  0
 19 20  1  0
 20 21  1  0
 22 21  2  0
 23 16  1  0
 23 24  1  0
 25 23  2  0
M  END
$$$$
