TMW.pdb
     RDKit          3D

 30 31  0  0  1  0  0  0  0  0999 V2000
    5.2220  -20.7759   23.5712 C   0  0  0  0  0  0  0  0  0  0  0  0
    6.3608  -19.8177   23.2787 C   0  0  1  0  0  0  0  0  0  0  0  0
    7.5581  -20.1879   23.7956 O   0  0  0  0  0  0  0  0  0  0  0  0
    6.4151  -19.5010   21.7883 C   0  0  2  0  0  0  0  0  0  0  0  0
    6.6391  -20.8060   21.1549 N   0  0  0  0  0  0  0  0  0  0  0  0
    7.4931  -18.5636   21.4307 C   0  0  0  0  0  0  0  0  0  0  0  0
    8.6341  -18.9563   21.0422 O   0  0  0  0  0  0  0  0  0  0  0  0
    6.7796  -11.8074   21.6054 C   0  0  0  0  0  0  0  0  0  0  0  0
    7.5144  -12.3401   20.0315 S   0  0  0  0  0  0  0  0  0  0  0  0
    8.5300  -13.8304   20.3856 C   0  0  0  0  0  0  0  0  0  0  0  0
    7.5939  -14.9102   20.8418 C   0  0  0  0  0  0  0  0  0  0  0  0
    8.3429  -16.1827   21.2487 C   0  0  2  0  0  0  0  0  0  0  0  0
    7.2985  -17.1526   21.5069 N   0  0  0  0  0  0  0  0  0  0  0  0
    9.2227  -15.9139   22.3809 C   0  0  0  0  0  0  0  0  0  0  0  0
   10.2043  -15.1152   22.2575 O   0  0  0  0  0  0  0  0  0  0  0  0
    9.0786  -16.4811   23.6610 N   0  0  0  0  0  0  0  0  0  0  0  0
   10.0598  -16.2353   24.7416 C   0  0  1  0  0  0  0  0  0  0  0  0
    9.2958  -16.1406   26.0368 C   0  0  0  0  0  0  0  0  0  0  0  0
    8.0436  -15.3869   25.9507 C   0  0  0  0  0  0  0  0  0  0  0  0
    6.7686  -15.8797   25.6531 C   0  0  0  0  0  0  0  0  0  0  0  0
    5.9014  -14.8543   25.6186 N   0  0  0  0  0  0  0  0  0  0  0  0
    6.5154  -13.6895   25.8788 C   0  0  0  0  0  0  0  0  0  0  0  0
    6.0802  -12.3670   25.9869 C   0  0  0  0  0  0  0  0  0  0  0  0
    6.9922  -11.3967   26.3012 C   0  0  0  0  0  0  0  0  0  0  0  0
    8.3231  -11.6777   26.5152 C   0  0  0  0  0  0  0  0  0  0  0  0
    8.7336  -12.9717   26.4055 C   0  0  0  0  0  0  0  0  0  0  0  0
    7.8537  -14.0122   26.0876 C   0  0  0  0  0  0  0  0  0  0  0  0
   11.0731  -17.2621   24.6862 C   0  0  0  0  0  0  0  0  0  0  0  0
   12.2083  -17.1881   25.4760 O   0  0  0  0  0  0  0  0  0  0  0  0
   10.9570  -18.2493   23.9206 O   0  0  0  0  0  0  0  0  0  0  0  0
  2  1  1  6
  2  3  1  0
  4  2  1  0
  4  5  1  6
  6  4  1  0
  7  6  2  0
  9  8  1  0
  9 10  1  0
 10 11  1  0
 12 11  1  1
 12 13  1  0
 13  6  1  0
 14 12  1  0
 14 15  2  0
 16 14  1  0
 17 16  1  0
 18 19  1  0
 17 18  1  1
 19 20  2  0
 21 20  1  0
 22 21  1  0
 23 22  2  0
 24 23  1  0
 25 24  2  0
 25 26  1  0
 26 27  2  0
 27 22  1  0
 27 19  1  0
 28 17  1  0
 29 28  1  0
 30 28  2  0
M  END
$$$$
