TMW.pdb
     RDKit          3D

 30 31  0  0  1  0  0  0  0  0999 V2000
    6.0554  -20.7559   21.6622 C   0  0  0  0  0  0  0  0  0  0  0  0
    7.2035  -19.7829   21.8511 C   0  0  1  0  0  0  0  0  0  0  0  0
    8.3318  -20.3323   22.3640 O   0  0  0  0  0  0  0  0  0  0  0  0
    7.4421  -18.9922   20.5695 C   0  0  2  0  0  0  0  0  0  0  0  0
    7.7816  -20.0180   19.5762 N   0  0  0  0  0  0  0  0  0  0  0  0
    8.5317  -18.0083   20.6862 C   0  0  0  0  0  0  0  0  0  0  0  0
    9.7289  -18.2794   20.3697 O   0  0  0  0  0  0  0  0  0  0  0  0
    6.8722  -12.0153   20.8998 C   0  0  0  0  0  0  0  0  0  0  0  0
    7.4765  -12.7193   19.3376 S   0  0  0  0  0  0  0  0  0  0  0  0
    8.0811  -14.4152   19.7067 C   0  0  0  0  0  0  0  0  0  0  0  0
    8.7242  -14.3747   21.0614 C   0  0  0  0  0  0  0  0  0  0  0  0
    9.3311  -15.7268   21.4475 C   0  0  2  0  0  0  0  0  0  0  0  0
    8.2848  -16.6884   21.1673 N   0  0  0  0  0  0  0  0  0  0  0  0
    9.7854  -15.7023   22.8336 C   0  0  0  0  0  0  0  0  0  0  0  0
   10.7177  -14.9152   23.1913 O   0  0  0  0  0  0  0  0  0  0  0  0
    9.2611  -16.5053   23.8638 N   0  0  0  0  0  0  0  0  0  0  0  0
    9.8974  -16.5821   25.1979 C   0  0  1  0  0  0  0  0  0  0  0  0
    8.7986  -16.7312   26.2181 C   0  0  0  0  0  0  0  0  0  0  0  0
    7.6869  -15.7924   26.0563 C   0  0  0  0  0  0  0  0  0  0  0  0
    6.4505  -16.0294   25.4461 C   0  0  0  0  0  0  0  0  0  0  0  0
    5.7342  -14.8930   25.4553 N   0  0  0  0  0  0  0  0  0  0  0  0
    6.4141  -13.8947   26.0407 C   0  0  0  0  0  0  0  0  0  0  0  0
    6.1234  -12.5581   26.3220 C   0  0  0  0  0  0  0  0  0  0  0  0
    7.0593  -11.8035   26.9753 C   0  0  0  0  0  0  0  0  0  0  0  0
    8.2766  -12.3150   27.3656 C   0  0  0  0  0  0  0  0  0  0  0  0
    8.5469  -13.6198   27.0839 C   0  0  0  0  0  0  0  0  0  0  0  0
    7.6348  -14.4471   26.4193 C   0  0  0  0  0  0  0  0  0  0  0  0
   10.8815  -17.6382   25.1790 C   0  0  0  0  0  0  0  0  0  0  0  0
   11.0379  -18.4484   24.0668 O   0  0  0  0  0  0  0  0  0  0  0  0
   11.6217  -17.8548   26.1686 O   0  0  0  0  0  0  0  0  0  0  0  0
  2  1  1  6
  2  3  1  0
  4  2  1  0
  4  5  1  6
  6  4  1  0
  7  6  2  0
  9  8  1  0
  9 10  1  0
 10 11  1  0
 12 11  1  1
 12 13  1  0
 13  6  1  0
 14 12  1  0
 14 15  2  0
 16 14  1  0
 17 16  1  0
 18 19  1  0
 17 18  1  1
 19 20  2  0
 21 20  1  0
 22 21  1  0
 23 22  2  0
 24 23  1  0
 25 24  2  0
 25 26  1  0
 26 27  2  0
 27 22  1  0
 27 19  1  0
 28 17  1  0
 29 28  1  0
 30 28  2  0
M  END
$$$$
