TMW.pdb
     RDKit          3D

 30 31  0  0  1  0  0  0  0  0999 V2000
    7.3140  -20.2494   20.8363 C   0  0  0  0  0  0  0  0  0  0  0  0
    8.0682  -19.0255   21.3198 C   0  0  1  0  0  0  0  0  0  0  0  0
    9.4138  -19.0951   21.1708 O   0  0  0  0  0  0  0  0  0  0  0  0
    7.4568  -17.7603   20.7278 C   0  0  2  0  0  0  0  0  0  0  0  0
    7.5923  -17.9440   19.2780 N   0  0  0  0  0  0  0  0  0  0  0  0
    8.1394  -16.5278   21.1564 C   0  0  0  0  0  0  0  0  0  0  0  0
    9.0666  -15.9931   20.4771 O   0  0  0  0  0  0  0  0  0  0  0  0
    6.6726  -12.1697   25.7950 C   0  0  0  0  0  0  0  0  0  0  0  0
    6.3839  -13.9053   26.2483 S   0  0  0  0  0  0  0  0  0  0  0  0
    6.8519  -14.9288   24.7953 C   0  0  0  0  0  0  0  0  0  0  0  0
    7.4173  -14.0019   23.7601 C   0  0  0  0  0  0  0  0  0  0  0  0
    8.4598  -14.6961   22.8787 C   0  0  2  0  0  0  0  0  0  0  0  0
    7.7827  -15.8719   22.3718 N   0  0  0  0  0  0  0  0  0  0  0  0
    9.6713  -14.9691   23.6443 C   0  0  0  0  0  0  0  0  0  0  0  0
   10.0563  -14.1627   24.5487 O   0  0  0  0  0  0  0  0  0  0  0  0
   10.4930  -16.0985   23.4696 N   0  0  0  0  0  0  0  0  0  0  0  0
   11.0002  -16.8832   24.6174 C   0  0  1  0  0  0  0  0  0  0  0  0
    9.8536  -17.0823   25.5745 C   0  0  0  0  0  0  0  0  0  0  0  0
   10.2022  -16.9091   26.9858 C   0  0  0  0  0  0  0  0  0  0  0  0
   10.5046  -17.9059   27.9197 C   0  0  0  0  0  0  0  0  0  0  0  0
   10.7138  -17.3335   29.1168 N   0  0  0  0  0  0  0  0  0  0  0  0
   10.5726  -16.0004   29.0495 C   0  0  0  0  0  0  0  0  0  0  0  0
   10.7028  -14.9635   29.9758 C   0  0  0  0  0  0  0  0  0  0  0  0
   10.5109  -13.6759   29.5550 C   0  0  0  0  0  0  0  0  0  0  0  0
   10.1945  -13.3661   28.2512 C   0  0  0  0  0  0  0  0  0  0  0  0
   10.0698  -14.3874   27.3589 C   0  0  0  0  0  0  0  0  0  0  0  0
   10.2531  -15.7261   27.7223 C   0  0  0  0  0  0  0  0  0  0  0  0
   11.6135  -18.0899   24.1156 C   0  0  0  0  0  0  0  0  0  0  0  0
   12.5992  -18.7428   24.8367 O   0  0  0  0  0  0  0  0  0  0  0  0
   11.2741  -18.5812   23.0121 O   0  0  0  0  0  0  0  0  0  0  0  0
  2  1  1  6
  2  3  1  0
  4  2  1  0
  4  5  1  6
  6  4  1  0
  7  6  2  0
  9  8  1  0
  9 10  1  0
 10 11  1  0
 12 11  1  1
 12 13  1  0
 13  6  1  0
 14 12  1  0
 14 15  2  0
 16 14  1  0
 17 16  1  0
 18 19  1  0
 17 18  1  1
 19 20  2  0
 21 20  1  0
 22 21  1  0
 23 22  2  0
 24 23  1  0
 25 24  2  0
 25 26  1  0
 26 27  2  0
 27 22  1  0
 27 19  1  0
 28 17  1  0
 29 28  1  0
 30 28  2  0
M  END
$$$$
