TMW.pdb
     RDKit          3D

 30 31  0  0  1  0  0  0  0  0999 V2000
    8.1049  -19.7107   23.7740 C   0  0  0  0  0  0  0  0  0  0  0  0
    7.5058  -20.0154   22.4143 C   0  0  1  0  0  0  0  0  0  0  0  0
    6.8796  -21.2147   22.3282 O   0  0  0  0  0  0  0  0  0  0  0  0
    6.6473  -18.8473   21.9416 C   0  0  2  0  0  0  0  0  0  0  0  0
    6.1015  -19.3032   20.6576 N   0  0  0  0  0  0  0  0  0  0  0  0
    7.4086  -17.5994   21.7632 C   0  0  0  0  0  0  0  0  0  0  0  0
    8.2422  -17.4407   20.8214 O   0  0  0  0  0  0  0  0  0  0  0  0
    5.8196  -12.8700   25.5309 C   0  0  0  0  0  0  0  0  0  0  0  0
    6.9556  -11.8415   24.5548 S   0  0  0  0  0  0  0  0  0  0  0  0
    8.0187  -12.9828   23.5827 C   0  0  0  0  0  0  0  0  0  0  0  0
    7.2792  -14.2818   23.4554 C   0  0  0  0  0  0  0  0  0  0  0  0
    8.0549  -15.3022   22.6171 C   0  0  2  0  0  0  0  0  0  0  0  0
    7.2396  -16.4988   22.6547 N   0  0  0  0  0  0  0  0  0  0  0  0
    9.4072  -15.4657   23.1397 C   0  0  0  0  0  0  0  0  0  0  0  0
   10.2254  -14.4927   23.1231 O   0  0  0  0  0  0  0  0  0  0  0  0
    9.9156  -16.6570   23.6905 N   0  0  0  0  0  0  0  0  0  0  0  0
   11.3180  -16.7717   24.1496 C   0  0  1  0  0  0  0  0  0  0  0  0
   11.2981  -16.8657   25.6533 C   0  0  0  0  0  0  0  0  0  0  0  0
   10.4594  -15.8641   26.3143 C   0  0  0  0  0  0  0  0  0  0  0  0
    9.5451  -14.9883   25.7193 C   0  0  0  0  0  0  0  0  0  0  0  0
    9.0228  -14.1925   26.6672 N   0  0  0  0  0  0  0  0  0  0  0  0
    9.5295  -14.4797   27.8765 C   0  0  0  0  0  0  0  0  0  0  0  0
    9.3115  -13.9811   29.1625 C   0  0  0  0  0  0  0  0  0  0  0  0
    9.9960  -14.5358   30.2092 C   0  0  0  0  0  0  0  0  0  0  0  0
   10.8913  -15.5681   30.0399 C   0  0  0  0  0  0  0  0  0  0  0  0
   11.0947  -16.0438   28.7801 C   0  0  0  0  0  0  0  0  0  0  0  0
   10.4278  -15.5226   27.6659 C   0  0  0  0  0  0  0  0  0  0  0  0
   11.9391  -17.8783   23.4614 C   0  0  0  0  0  0  0  0  0  0  0  0
   11.7232  -19.1842   23.8688 O   0  0  0  0  0  0  0  0  0  0  0  0
   12.6936  -17.6904   22.4767 O   0  0  0  0  0  0  0  0  0  0  0  0
  2  1  1  1
  2  3  1  0
  4  2  1  0
  4  5  1  6
  6  4  1  0
  7  6  2  0
  9  8  1  0
  9 10  1  0
 10 11  1  0
 12 11  1  1
 12 13  1  0
 13  6  1  0
 14 12  1  0
 14 15  2  0
 16 14  1  0
 17 16  1  0
 18 19  1  0
 17 18  1  1
 19 20  2  0
 21 20  1  0
 22 21  1  0
 23 22  2  0
 24 23  1  0
 25 24  2  0
 25 26  1  0
 26 27  2  0
 27 22  1  0
 27 19  1  0
 28 17  1  0
 29 28  1  0
 30 28  2  0
M  END
$$$$
