TMW.pdb
     RDKit          3D

 30 31  0  0  1  0  0  0  0  0999 V2000
    8.4529  -20.1211   22.6296 C   0  0  0  0  0  0  0  0  0  0  0  0
    8.6139  -20.3943   21.1464 C   0  0  1  0  0  0  0  0  0  0  0  0
    7.9800  -21.5083   20.7046 O   0  0  0  0  0  0  0  0  0  0  0  0
    8.2780  -19.1449   20.3396 C   0  0  2  0  0  0  0  0  0  0  0  0
    8.3896  -19.5821   18.9430 N   0  0  0  0  0  0  0  0  0  0  0  0
    9.1911  -18.0195   20.6011 C   0  0  0  0  0  0  0  0  0  0  0  0
   10.3891  -18.0061   20.1869 O   0  0  0  0  0  0  0  0  0  0  0  0
    8.4696  -11.7578   19.8543 C   0  0  0  0  0  0  0  0  0  0  0  0
    7.1415  -12.9752   20.0898 S   0  0  0  0  0  0  0  0  0  0  0  0
    7.9431  -14.6146   20.3086 C   0  0  0  0  0  0  0  0  0  0  0  0
    8.8060  -14.5295   21.5328 C   0  0  0  0  0  0  0  0  0  0  0  0
    9.6425  -15.7968   21.7324 C   0  0  2  0  0  0  0  0  0  0  0  0
    8.7622  -16.8789   21.3425 N   0  0  0  0  0  0  0  0  0  0  0  0
   10.1332  -15.8704   23.1043 C   0  0  0  0  0  0  0  0  0  0  0  0
   11.0480  -15.0828   23.5036 O   0  0  0  0  0  0  0  0  0  0  0  0
    9.6643  -16.7737   24.0765 N   0  0  0  0  0  0  0  0  0  0  0  0
   10.1861  -16.7745   25.4615 C   0  0  1  0  0  0  0  0  0  0  0  0
    9.7379  -15.4941   26.1173 C   0  0  0  0  0  0  0  0  0  0  0  0
    8.2937  -15.2589   26.0686 C   0  0  0  0  0  0  0  0  0  0  0  0
    7.2852  -16.1899   25.7978 C   0  0  0  0  0  0  0  0  0  0  0  0
    6.0989  -15.5596   25.7939 N   0  0  0  0  0  0  0  0  0  0  0  0
    6.2435  -14.2499   26.0494 C   0  0  0  0  0  0  0  0  0  0  0  0
    5.3518  -13.1832   26.1800 C   0  0  0  0  0  0  0  0  0  0  0  0
    5.8466  -11.9435   26.4807 C   0  0  0  0  0  0  0  0  0  0  0  0
    7.1919  -11.7105   26.6594 C   0  0  0  0  0  0  0  0  0  0  0  0
    8.0501  -12.7599   26.5281 C   0  0  0  0  0  0  0  0  0  0  0  0
    7.6110  -14.0528   26.2225 C   0  0  0  0  0  0  0  0  0  0  0  0
    9.7642  -17.9921   26.1123 C   0  0  0  0  0  0  0  0  0  0  0  0
   10.2646  -18.3485   27.3534 O   0  0  0  0  0  0  0  0  0  0  0  0
    8.9348  -18.7637   25.5729 O   0  0  0  0  0  0  0  0  0  0  0  0
  2  1  1  1
  2  3  1  0
  4  2  1  0
  4  5  1  6
  6  4  1  0
  7  6  2  0
  9  8  1  0
  9 10  1  0
 10 11  1  0
 12 11  1  1
 12 13  1  0
 13  6  1  0
 14 12  1  0
 14 15  2  0
 16 14  1  0
 17 16  1  0
 18 19  1  0
 17 18  1  1
 19 20  2  0
 21 20  1  0
 22 21  1  0
 23 22  2  0
 24 23  1  0
 25 24  2  0
 25 26  1  0
 26 27  2  0
 27 22  1  0
 27 19  1  0
 28 17  1  0
 29 28  1  0
 30 28  2  0
M  END
$$$$
