TMW.pdb
     RDKit          3D

 30 31  0  0  1  0  0  0  0  0999 V2000
   10.5343  -20.6937   18.0729 C   0  0  0  0  0  0  0  0  0  0  0  0
    9.2728  -20.1542   18.7196 C   0  0  1  0  0  0  0  0  0  0  0  0
    8.1697  -20.9198   18.5327 O   0  0  0  0  0  0  0  0  0  0  0  0
    9.5337  -19.8129   20.1825 C   0  0  2  0  0  0  0  0  0  0  0  0
    8.2030  -19.5029   20.7186 N   0  0  0  0  0  0  0  0  0  0  0  0
   10.4402  -18.6660   20.3605 C   0  0  0  0  0  0  0  0  0  0  0  0
   11.7005  -18.7773   20.2813 O   0  0  0  0  0  0  0  0  0  0  0  0
    6.4572  -12.8591   20.7707 C   0  0  0  0  0  0  0  0  0  0  0  0
    7.9638  -13.3275   19.8698 S   0  0  0  0  0  0  0  0  0  0  0  0
    8.7821  -14.6576   20.8388 C   0  0  0  0  0  0  0  0  0  0  0  0
   10.0098  -15.0704   20.0819 C   0  0  0  0  0  0  0  0  0  0  0  0
   10.7720  -16.1911   20.7951 C   0  0  2  0  0  0  0  0  0  0  0  0
    9.9333  -17.3610   20.6339 N   0  0  0  0  0  0  0  0  0  0  0  0
   11.0447  -15.8189   22.1790 C   0  0  0  0  0  0  0  0  0  0  0  0
   11.5794  -14.6978   22.4503 O   0  0  0  0  0  0  0  0  0  0  0  0
   10.7546  -16.6223   23.2977 N   0  0  0  0  0  0  0  0  0  0  0  0
    9.9273  -16.1302   24.4220 C   0  0  1  0  0  0  0  0  0  0  0  0
    8.6795  -15.5216   23.8363 C   0  0  0  0  0  0  0  0  0  0  0  0
    7.7337  -15.0023   24.8259 C   0  0  0  0  0  0  0  0  0  0  0  0
    6.5593  -15.6081   25.2852 C   0  0  0  0  0  0  0  0  0  0  0  0
    5.9497  -14.7793   26.1488 N   0  0  0  0  0  0  0  0  0  0  0  0
    6.6456  -13.6423   26.3050 C   0  0  0  0  0  0  0  0  0  0  0  0
    6.4690  -12.4964   27.0835 C   0  0  0  0  0  0  0  0  0  0  0  0
    7.4116  -11.5067   27.0226 C   0  0  0  0  0  0  0  0  0  0  0  0
    8.5279  -11.6002   26.2220 C   0  0  0  0  0  0  0  0  0  0  0  0
    8.6867  -12.7229   25.4675 C   0  0  0  0  0  0  0  0  0  0  0  0
    7.7616  -13.7726   25.4826 C   0  0  0  0  0  0  0  0  0  0  0  0
    9.7179  -17.2162   25.3498 C   0  0  0  0  0  0  0  0  0  0  0  0
    9.4975  -16.9732   26.6953 O   0  0  0  0  0  0  0  0  0  0  0  0
    9.7316  -18.4107   24.9662 O   0  0  0  0  0  0  0  0  0  0  0  0
  2  1  1  1
  2  3  1  0
  4  2  1  0
  4  5  1  6
  6  4  1  0
  7  6  2  0
  9  8  1  0
  9 10  1  0
 10 11  1  0
 12 11  1  1
 12 13  1  0
 13  6  1  0
 14 12  1  0
 14 15  2  0
 16 14  1  0
 17 16  1  0
 18 19  1  0
 17 18  1  6
 19 20  2  0
 21 20  1  0
 22 21  1  0
 23 22  2  0
 24 23  1  0
 25 24  2  0
 25 26  1  0
 26 27  2  0
 27 22  1  0
 27 19  1  0
 28 17  1  0
 29 28  1  0
 30 28  2  0
M  END
$$$$
