TMW.pdb
     RDKit          3D

 30 31  0  0  1  0  0  0  0  0999 V2000
    7.9271  -17.8997   19.3941 C   0  0  0  0  0  0  0  0  0  0  0  0
    6.5698  -18.5509   19.2088 C   0  0  1  0  0  0  0  0  0  0  0  0
    6.3212  -18.9918   17.9511 O   0  0  0  0  0  0  0  0  0  0  0  0
    6.3425  -19.6122   20.2797 C   0  0  2  0  0  0  0  0  0  0  0  0
    5.0133  -20.1521   19.9695 N   0  0  0  0  0  0  0  0  0  0  0  0
    6.3720  -19.0730   21.6498 C   0  0  0  0  0  0  0  0  0  0  0  0
    5.4149  -18.3984   22.1353 O   0  0  0  0  0  0  0  0  0  0  0  0
    9.6596  -18.8482   28.6972 C   0  0  0  0  0  0  0  0  0  0  0  0
    9.4085  -19.7458   27.1376 S   0  0  0  0  0  0  0  0  0  0  0  0
    8.7527  -18.5376   25.9177 C   0  0  0  0  0  0  0  0  0  0  0  0
    8.4469  -19.2952   24.6595 C   0  0  0  0  0  0  0  0  0  0  0  0
    7.8810  -18.3842   23.5661 C   0  0  2  0  0  0  0  0  0  0  0  0
    7.4946  -19.2888   22.5030 N   0  0  0  0  0  0  0  0  0  0  0  0
    8.8647  -17.3763   23.1855 C   0  0  0  0  0  0  0  0  0  0  0  0
    9.8818  -17.6986   22.4942 O   0  0  0  0  0  0  0  0  0  0  0  0
    8.7885  -16.0126   23.5258 N   0  0  0  0  0  0  0  0  0  0  0  0
    9.7298  -15.3907   24.4839 C   0  0  1  0  0  0  0  0  0  0  0  0
    9.1258  -15.5122   25.8590 C   0  0  0  0  0  0  0  0  0  0  0  0
    7.8621  -14.7941   26.0339 C   0  0  0  0  0  0  0  0  0  0  0  0
    6.5804  -15.3396   26.1648 C   0  0  0  0  0  0  0  0  0  0  0  0
    5.6871  -14.3399   26.2489 N   0  0  0  0  0  0  0  0  0  0  0  0
    6.2901  -13.1425   26.1849 C   0  0  0  0  0  0  0  0  0  0  0  0
    5.8359  -11.8235   26.2487 C   0  0  0  0  0  0  0  0  0  0  0  0
    6.7497  -10.8077   26.1769 C   0  0  0  0  0  0  0  0  0  0  0  0
    8.1005  -11.0394   26.0446 C   0  0  0  0  0  0  0  0  0  0  0  0
    8.5291  -12.3307   25.9827 C   0  0  0  0  0  0  0  0  0  0  0  0
    7.6487  -13.4162   26.0506 C   0  0  0  0  0  0  0  0  0  0  0  0
   11.0282  -15.9984   24.3146 C   0  0  0  0  0  0  0  0  0  0  0  0
   12.1641  -15.2225   24.1543 O   0  0  0  0  0  0  0  0  0  0  0  0
   11.1661  -17.2454   24.3054 O   0  0  0  0  0  0  0  0  0  0  0  0
  2  1  1  6
  2  3  1  0
  4  2  1  0
  4  5  1  6
  6  4  1  0
  7  6  2  0
  9  8  1  0
  9 10  1  0
 10 11  1  0
 12 11  1  1
 12 13  1  0
 13  6  1  0
 14 12  1  0
 14 15  2  0
 16 14  1  0
 17 16  1  0
 18 19  1  0
 17 18  1  1
 19 20  2  0
 21 20  1  0
 22 21  1  0
 23 22  2  0
 24 23  1  0
 25 24  2  0
 25 26  1  0
 26 27  2  0
 27 22  1  0
 27 19  1  0
 28 17  1  0
 29 28  1  0
 30 28  2  0
M  END
$$$$
