TMW.pdb
     RDKit          3D

 30 31  0  0  1  0  0  0  0  0999 V2000
   10.6520  -19.8805   18.3566 C   0  0  0  0  0  0  0  0  0  0  0  0
    9.2282  -19.5042   18.7197 C   0  0  1  0  0  0  0  0  0  0  0  0
    8.2787  -20.3283   18.2127 O   0  0  0  0  0  0  0  0  0  0  0  0
    9.1057  -19.2909   20.2245 C   0  0  2  0  0  0  0  0  0  0  0  0
    7.6666  -19.1000   20.4411 N   0  0  0  0  0  0  0  0  0  0  0  0
    9.8588  -18.1224   20.7106 C   0  0  0  0  0  0  0  0  0  0  0  0
   11.1165  -18.0243   20.5849 O   0  0  0  0  0  0  0  0  0  0  0  0
    7.3363  -12.3017   21.2924 C   0  0  0  0  0  0  0  0  0  0  0  0
    7.3384  -13.2865   19.7655 S   0  0  0  0  0  0  0  0  0  0  0  0
    8.2132  -14.8594   20.1375 C   0  0  0  0  0  0  0  0  0  0  0  0
    8.8540  -14.7057   21.4853 C   0  0  0  0  0  0  0  0  0  0  0  0
    9.8675  -15.8187   21.7674 C   0  0  2  0  0  0  0  0  0  0  0  0
    9.1975  -17.0343   21.3533 N   0  0  0  0  0  0  0  0  0  0  0  0
   10.2757  -15.7908   23.1677 C   0  0  0  0  0  0  0  0  0  0  0  0
   11.0474  -14.8751   23.5947 O   0  0  0  0  0  0  0  0  0  0  0  0
    9.8735  -16.7265   24.1392 N   0  0  0  0  0  0  0  0  0  0  0  0
   10.4029  -16.6975   25.5211 C   0  0  1  0  0  0  0  0  0  0  0  0
   10.0351  -15.3652   26.1212 C   0  0  0  0  0  0  0  0  0  0  0  0
    8.5971  -15.0942   26.1657 C   0  0  0  0  0  0  0  0  0  0  0  0
    7.5501  -16.0118   26.0275 C   0  0  0  0  0  0  0  0  0  0  0  0
    6.3816  -15.3509   26.0734 N   0  0  0  0  0  0  0  0  0  0  0  0
    6.5747  -14.0328   26.2376 C   0  0  0  0  0  0  0  0  0  0  0  0
    5.7198  -12.9365   26.3691 C   0  0  0  0  0  0  0  0  0  0  0  0
    6.2639  -11.6952   26.5565 C   0  0  0  0  0  0  0  0  0  0  0  0
    7.6237  -11.4886   26.6204 C   0  0  0  0  0  0  0  0  0  0  0  0
    8.4456  -12.5668   26.4897 C   0  0  0  0  0  0  0  0  0  0  0  0
    7.9555  -13.8631   26.2964 C   0  0  0  0  0  0  0  0  0  0  0  0
    9.9137  -17.8581   26.2264 C   0  0  0  0  0  0  0  0  0  0  0  0
    9.1099  -18.7918   25.5937 O   0  0  0  0  0  0  0  0  0  0  0  0
   10.1996  -18.0544   27.4322 O   0  0  0  0  0  0  0  0  0  0  0  0
  2  1  1  1
  2  3  1  0
  4  2  1  0
  4  5  1  6
  6  4  1  0
  7  6  2  0
  9  8  1  0
  9 10  1  0
 10 11  1  0
 12 11  1  1
 12 13  1  0
 13  6  1  0
 14 12  1  0
 14 15  2  0
 16 14  1  0
 17 16  1  0
 18 19  1  0
 17 18  1  1
 19 20  2  0
 21 20  1  0
 22 21  1  0
 23 22  2  0
 24 23  1  0
 25 24  2  0
 25 26  1  0
 26 27  2  0
 27 22  1  0
 27 19  1  0
 28 17  1  0
 29 28  1  0
 30 28  2  0
M  END
$$$$
