TMW.pdb
     RDKit          3D

 30 31  0  0  1  0  0  0  0  0999 V2000
   10.3388  -20.8292   19.1603 C   0  0  0  0  0  0  0  0  0  0  0  0
    8.9253  -20.3674   19.4589 C   0  0  1  0  0  0  0  0  0  0  0  0
    7.9545  -21.2292   19.0679 O   0  0  0  0  0  0  0  0  0  0  0  0
    8.8061  -19.9406   20.9177 C   0  0  2  0  0  0  0  0  0  0  0  0
    7.3746  -19.6676   21.0931 N   0  0  0  0  0  0  0  0  0  0  0  0
    9.6016  -18.7444   21.2417 C   0  0  0  0  0  0  0  0  0  0  0  0
   10.8667  -18.7276   21.1621 O   0  0  0  0  0  0  0  0  0  0  0  0
    7.2630  -12.5001   21.1159 C   0  0  0  0  0  0  0  0  0  0  0  0
    6.3038  -14.0051   21.4561 S   0  0  0  0  0  0  0  0  0  0  0  0
    7.4500  -15.2127   22.2345 C   0  0  0  0  0  0  0  0  0  0  0  0
    8.7191  -15.2028   21.4346 C   0  0  0  0  0  0  0  0  0  0  0  0
    9.6908  -16.2957   21.8895 C   0  0  2  0  0  0  0  0  0  0  0  0
    8.9753  -17.5349   21.6654 N   0  0  0  0  0  0  0  0  0  0  0  0
   10.1020  -16.0668   23.2704 C   0  0  0  0  0  0  0  0  0  0  0  0
   10.9260  -15.1402   23.5512 O   0  0  0  0  0  0  0  0  0  0  0  0
    9.6477  -16.8099   24.3761 N   0  0  0  0  0  0  0  0  0  0  0  0
   10.3161  -16.7398   25.6949 C   0  0  1  0  0  0  0  0  0  0  0  0
    9.9316  -15.4289   26.3306 C   0  0  0  0  0  0  0  0  0  0  0  0
    8.5087  -15.0989   26.2314 C   0  0  0  0  0  0  0  0  0  0  0  0
    7.4289  -15.9857   26.1616 C   0  0  0  0  0  0  0  0  0  0  0  0
    6.2937  -15.2810   26.0231 N   0  0  0  0  0  0  0  0  0  0  0  0
    6.5405  -13.9619   25.9970 C   0  0  0  0  0  0  0  0  0  0  0  0
    5.7338  -12.8263   25.8984 C   0  0  0  0  0  0  0  0  0  0  0  0
    6.3252  -11.5930   25.9316 C   0  0  0  0  0  0  0  0  0  0  0  0
    7.6866  -11.4316   26.0591 C   0  0  0  0  0  0  0  0  0  0  0  0
    8.4612  -12.5480   26.1533 C   0  0  0  0  0  0  0  0  0  0  0  0
    7.9214  -13.8386   26.1265 C   0  0  0  0  0  0  0  0  0  0  0  0
    9.9761  -17.9239   26.4473 C   0  0  0  0  0  0  0  0  0  0  0  0
   10.6156  -18.2204   27.6394 O   0  0  0  0  0  0  0  0  0  0  0  0
    9.0942  -18.7198   26.0435 O   0  0  0  0  0  0  0  0  0  0  0  0
  2  1  1  1
  2  3  1  0
  4  2  1  0
  4  5  1  6
  6  4  1  0
  7  6  2  0
  9  8  1  0
  9 10  1  0
 10 11  1  0
 12 11  1  1
 12 13  1  0
 13  6  1  0
 14 12  1  0
 14 15  2  0
 16 14  1  0
 17 16  1  0
 18 19  1  0
 17 18  1  1
 19 20  2  0
 21 20  1  0
 22 21  1  0
 23 22  2  0
 24 23  1  0
 25 24  2  0
 25 26  1  0
 26 27  2  0
 27 22  1  0
 27 19  1  0
 28 17  1  0
 29 28  1  0
 30 28  2  0
M  END
$$$$
