TMW.pdb
     RDKit          3D

 30 31  0  0  1  0  0  0  0  0999 V2000
-2371.5918-76679.1797 5234.8237 C   0  0  0  0  0  0  0  0  0  0  0  0
-2372.3667-76679.8125 5235.9648 C   0  0  1  0  0  0  0  0  0  0  0  0
-2373.6851-76679.4297 5236.0366 O   0  0  0  0  0  0  0  0  0  0  0  0
-2372.1753-76681.3203 5235.9951 C   0  0  2  0  0  0  0  0  0  0  0  0
-2373.3359-76681.8203 5236.7358 N   0  0  0  0  0  0  0  0  0  0  0  0
-2370.9148-76681.7266 5236.6646 C   0  0  0  0  0  0  0  0  0  0  0  0
-2370.6951-76681.4609 5237.8911 O   0  0  0  0  0  0  0  0  0  0  0  0
-2367.7849-76684.4688 5231.3247 C   0  0  0  0  0  0  0  0  0  0  0  0
-2367.1672-76684.2188 5233.0034 S   0  0  0  0  0  0  0  0  0  0  0  0
-2368.5178-76683.3125 5233.9272 C   0  0  0  0  0  0  0  0  0  0  0  0
-2367.9011-76682.1875 5234.7100 C   0  0  0  0  0  0  0  0  0  0  0  0
-2368.4700-76682.1172 5236.1221 C   0  0  2  0  0  0  0  0  0  0  0  0
-2369.8794-76682.4141 5235.9604 N   0  0  0  0  0  0  0  0  0  0  0  0
-2368.1760-76680.8047 5236.6997 C   0  0  0  0  0  0  0  0  0  0  0  0
-2368.9666-76680.2500 5237.5474 O   0  0  0  0  0  0  0  0  0  0  0  0
-2367.0466-76680.0234 5236.3901 N   0  0  0  0  0  0  0  0  0  0  0  0
-2366.8098-76679.4688 5235.0601 C   0  0  1  0  0  0  0  0  0  0  0  0
-2366.1541-76678.1641 5235.2627 C   0  0  0  0  0  0  0  0  0  0  0  0
-2366.3452-76677.5234 5236.5869 C   0  0  0  0  0  0  0  0  0  0  0  0
-2365.9250-76678.0312 5237.8057 C   0  0  0  0  0  0  0  0  0  0  0  0
-2366.3567-76677.2266 5238.7832 N   0  0  0  0  0  0  0  0  0  0  0  0
-2367.0085-76676.1875 5238.2866 C   0  0  0  0  0  0  0  0  0  0  0  0
-2367.6438-76675.0547 5238.8525 C   0  0  0  0  0  0  0  0  0  0  0  0
-2368.2551-76674.1875 5238.0322 C   0  0  0  0  0  0  0  0  0  0  0  0
-2368.3020-76674.2656 5236.6494 C   0  0  0  0  0  0  0  0  0  0  0  0
-2367.6792-76675.3984 5236.1279 C   0  0  0  0  0  0  0  0  0  0  0  0
-2367.0417-76676.3906 5236.8999 C   0  0  0  0  0  0  0  0  0  0  0  0
-2366.0547-76680.4219 5234.2778 C   0  0  0  0  0  0  0  0  0  0  0  0
-2364.7056-76680.2109 5234.0112 O   0  0  0  0  0  0  0  0  0  0  0  0
-2366.5969-76681.4766 5233.8491 O   0  0  0  0  0  0  0  0  0  0  0  0
  2  1  1  6
  2  3  1  0
  4  2  1  0
  4  5  1  1
  6  4  1  0
  7  6  2  0
  9  8  1  0
  9 10  1  0
 10 11  1  0
 12 11  1  6
 12 13  1  0
 13  6  1  0
 14 12  1  0
 14 15  2  0
 16 14  1  0
 17 16  1  0
 18 19  1  0
 17 18  1  1
 19 20  2  0
 21 20  1  0
 22 21  1  0
 23 22  2  0
 24 23  1  0
 25 24  2  0
 25 26  1  0
 26 27  2  0
 27 22  1  0
 27 19  1  0
 28 17  1  0
 29 28  1  0
 30 28  2  0
M  END
$$$$
