TMW.pdb
     RDKit          3D

 30 31  0  0  1  0  0  0  0  0999 V2000
   11.6026  -19.0211   20.1248 C   0  0  0  0  0  0  0  0  0  0  0  0
   11.2128  -17.9497   19.1244 C   0  0  1  0  0  0  0  0  0  0  0  0
   11.2360  -18.3501   17.8294 O   0  0  0  0  0  0  0  0  0  0  0  0
    9.8970  -17.2977   19.5344 C   0  0  2  0  0  0  0  0  0  0  0  0
    9.6183  -16.3466   18.4519 N   0  0  0  0  0  0  0  0  0  0  0  0
    9.9718  -16.5978   20.8280 C   0  0  0  0  0  0  0  0  0  0  0  0
   10.7090  -15.5826   21.0096 O   0  0  0  0  0  0  0  0  0  0  0  0
    6.2884  -12.7222   24.3022 C   0  0  0  0  0  0  0  0  0  0  0  0
    7.3319  -14.1379   24.7580 S   0  0  0  0  0  0  0  0  0  0  0  0
    7.0066  -15.4670   23.5310 C   0  0  0  0  0  0  0  0  0  0  0  0
    7.9071  -16.6178   23.8704 C   0  0  0  0  0  0  0  0  0  0  0  0
    9.3051  -16.4474   23.2687 C   0  0  2  0  0  0  0  0  0  0  0  0
    9.2077  -17.0373   21.9494 N   0  0  0  0  0  0  0  0  0  0  0  0
   10.3091  -17.0520   24.1374 C   0  0  0  0  0  0  0  0  0  0  0  0
   10.5957  -18.2859   24.0279 O   0  0  0  0  0  0  0  0  0  0  0  0
   11.0280  -16.3636   25.1326 N   0  0  0  0  0  0  0  0  0  0  0  0
   12.0642  -17.0301   25.9528 C   0  0  1  0  0  0  0  0  0  0  0  0
   12.5937  -16.0134   26.9308 C   0  0  0  0  0  0  0  0  0  0  0  0
   11.6436  -15.6191   27.9725 C   0  0  0  0  0  0  0  0  0  0  0  0
   11.5492  -16.1183   29.2760 C   0  0  0  0  0  0  0  0  0  0  0  0
   10.5093  -15.5333   29.8932 N   0  0  0  0  0  0  0  0  0  0  0  0
    9.8910  -14.6606   29.0822 C   0  0  0  0  0  0  0  0  0  0  0  0
    8.8043  -13.7971   29.2352 C   0  0  0  0  0  0  0  0  0  0  0  0
    8.4430  -12.9997   28.1837 C   0  0  0  0  0  0  0  0  0  0  0  0
    9.1128  -13.0179   26.9808 C   0  0  0  0  0  0  0  0  0  0  0  0
   10.1702  -13.8657   26.8455 C   0  0  0  0  0  0  0  0  0  0  0  0
   10.5925  -14.7074   27.8804 C   0  0  0  0  0  0  0  0  0  0  0  0
   11.4946  -18.2217   26.5356 C   0  0  0  0  0  0  0  0  0  0  0  0
   10.1239  -18.3651   26.6710 O   0  0  0  0  0  0  0  0  0  0  0  0
   12.2231  -19.1605   26.9382 O   0  0  0  0  0  0  0  0  0  0  0  0
  2  1  1  1
  2  3  1  0
  4  2  1  0
  4  5  1  6
  6  4  1  0
  7  6  2  0
  9  8  1  0
  9 10  1  0
 10 11  1  0
 12 11  1  1
 12 13  1  0
 13  6  1  0
 14 12  1  0
 14 15  2  0
 16 14  1  0
 17 16  1  0
 18 19  1  0
 17 18  1  1
 19 20  2  0
 21 20  1  0
 22 21  1  0
 23 22  2  0
 24 23  1  0
 25 24  2  0
 25 26  1  0
 26 27  2  0
 27 22  1  0
 27 19  1  0
 28 17  1  0
 29 28  1  0
 30 28  2  0
M  END
$$$$
