TMW.pdb
     RDKit          3D

 30 31  0  0  1  0  0  0  0  0999 V2000
    8.9830  -13.0474   21.2935 C   0  0  0  0  0  0  0  0  0  0  0  0
    7.8612  -13.5459   20.4027 C   0  0  1  0  0  0  0  0  0  0  0  0
    7.5282  -12.7079   19.3904 O   0  0  0  0  0  0  0  0  0  0  0  0
    8.1463  -14.9710   19.9416 C   0  0  2  0  0  0  0  0  0  0  0  0
    6.9323  -15.3595   19.2141 N   0  0  0  0  0  0  0  0  0  0  0  0
    8.4008  -15.9030   21.0531 C   0  0  0  0  0  0  0  0  0  0  0  0
    7.4686  -16.3752   21.7708 O   0  0  0  0  0  0  0  0  0  0  0  0
   13.5280  -19.1502   20.6504 C   0  0  0  0  0  0  0  0  0  0  0  0
   13.3671  -19.6452   22.3911 S   0  0  0  0  0  0  0  0  0  0  0  0
   11.7780  -18.9554   23.0050 C   0  0  0  0  0  0  0  0  0  0  0  0
   11.3765  -17.8562   22.0663 C   0  0  0  0  0  0  0  0  0  0  0  0
   10.0404  -17.2227   22.4652 C   0  0  2  0  0  0  0  0  0  0  0  0
    9.7256  -16.3214   21.3759 N   0  0  0  0  0  0  0  0  0  0  0  0
   10.1502  -16.5872   23.7738 C   0  0  0  0  0  0  0  0  0  0  0  0
   10.7109  -15.4524   23.8929 O   0  0  0  0  0  0  0  0  0  0  0  0
    9.6675  -17.1378   24.9758 N   0  0  0  0  0  0  0  0  0  0  0  0
    9.8532  -16.4596   26.2782 C   0  0  1  0  0  0  0  0  0  0  0  0
    8.4994  -16.3483   26.9302 C   0  0  0  0  0  0  0  0  0  0  0  0
    7.5517  -15.4867   26.2212 C   0  0  0  0  0  0  0  0  0  0  0  0
    6.5389  -15.8758   25.3380 C   0  0  0  0  0  0  0  0  0  0  0  0
    5.9304  -14.7776   24.8604 N   0  0  0  0  0  0  0  0  0  0  0  0
    6.4718  -13.6608   25.3716 C   0  0  0  0  0  0  0  0  0  0  0  0
    6.2016  -12.2983   25.2273 C   0  0  0  0  0  0  0  0  0  0  0  0
    6.9501  -11.3993   25.9367 C   0  0  0  0  0  0  0  0  0  0  0  0
    7.9596  -11.7898   26.7878 C   0  0  0  0  0  0  0  0  0  0  0  0
    8.2126  -13.1217   26.9181 C   0  0  0  0  0  0  0  0  0  0  0  0
    7.4851  -14.0938   26.2227 C   0  0  0  0  0  0  0  0  0  0  0  0
   10.8542  -17.1760   27.0322 C   0  0  0  0  0  0  0  0  0  0  0  0
   11.4831  -18.2913   26.5045 O   0  0  0  0  0  0  0  0  0  0  0  0
   11.1824  -16.8118   28.1872 O   0  0  0  0  0  0  0  0  0  0  0  0
  2  1  1  6
  2  3  1  0
  4  2  1  0
  4  5  1  1
  6  4  1  0
  7  6  2  0
  9  8  1  0
  9 10  1  0
 10 11  1  0
 12 11  1  6
 12 13  1  0
 13  6  1  0
 14 12  1  0
 14 15  2  0
 16 14  1  0
 17 16  1  0
 18 19  1  0
 17 18  1  1
 19 20  2  0
 21 20  1  0
 22 21  1  0
 23 22  2  0
 24 23  1  0
 25 24  2  0
 25 26  1  0
 26 27  2  0
 27 22  1  0
 27 19  1  0
 28 17  1  0
 29 28  1  0
 30 28  2  0
M  END
$$$$
