TMW.pdb
     RDKit          3D

 30 31  0  0  1  0  0  0  0  0999 V2000
    7.7384  -19.9940   24.2373 C   0  0  0  0  0  0  0  0  0  0  0  0
    7.4928  -20.7529   22.9472 C   0  0  1  0  0  0  0  0  0  0  0  0
    6.8051  -21.9119   23.0950 O   0  0  0  0  0  0  0  0  0  0  0  0
    6.8984  -19.8250   21.8934 C   0  0  2  0  0  0  0  0  0  0  0  0
    6.6899  -20.6948   20.7297 N   0  0  0  0  0  0  0  0  0  0  0  0
    7.7815  -18.6997   21.5432 C   0  0  0  0  0  0  0  0  0  0  0  0
    8.8647  -18.8594   20.9042 O   0  0  0  0  0  0  0  0  0  0  0  0
    7.8323  -10.9889   20.3099 C   0  0  0  0  0  0  0  0  0  0  0  0
    6.9134  -12.5132   20.6747 S   0  0  0  0  0  0  0  0  0  0  0  0
    8.1486  -13.7896   21.1468 C   0  0  0  0  0  0  0  0  0  0  0  0
    7.3947  -15.0526   21.4418 C   0  0  0  0  0  0  0  0  0  0  0  0
    8.3352  -16.2318   21.7070 C   0  0  2  0  0  0  0  0  0  0  0  0
    7.4527  -17.3618   21.9126 N   0  0  0  0  0  0  0  0  0  0  0  0
    9.2200  -15.9336   22.8279 C   0  0  0  0  0  0  0  0  0  0  0  0
   10.1069  -15.0285   22.7244 O   0  0  0  0  0  0  0  0  0  0  0  0
    9.1805  -16.5833   24.0758 N   0  0  0  0  0  0  0  0  0  0  0  0
   10.1870  -16.3197   25.1285 C   0  0  1  0  0  0  0  0  0  0  0  0
    9.4447  -16.0760   26.4169 C   0  0  0  0  0  0  0  0  0  0  0  0
    8.1155  -15.4852   26.2507 C   0  0  0  0  0  0  0  0  0  0  0  0
    6.9307  -16.1353   25.8889 C   0  0  0  0  0  0  0  0  0  0  0  0
    5.9462  -15.2265   25.7922 N   0  0  0  0  0  0  0  0  0  0  0  0
    6.3947  -13.9925   26.0706 C   0  0  0  0  0  0  0  0  0  0  0  0
    5.7930  -12.7340   26.1363 C   0  0  0  0  0  0  0  0  0  0  0  0
    6.5578  -11.6554   26.4880 C   0  0  0  0  0  0  0  0  0  0  0  0
    7.8989  -11.7666   26.7799 C   0  0  0  0  0  0  0  0  0  0  0  0
    8.4726  -12.9999   26.7108 C   0  0  0  0  0  0  0  0  0  0  0  0
    7.7486  -14.1442   26.3582 C   0  0  0  0  0  0  0  0  0  0  0  0
   11.1313  -17.4114   25.1469 C   0  0  0  0  0  0  0  0  0  0  0  0
   12.2933  -17.3376   25.8968 O   0  0  0  0  0  0  0  0  0  0  0  0
   10.9292  -18.4570   24.4836 O   0  0  0  0  0  0  0  0  0  0  0  0
  2  1  1  1
  2  3  1  0
  4  2  1  0
  4  5  1  6
  6  4  1  0
  7  6  2  0
  9  8  1  0
  9 10  1  0
 10 11  1  0
 12 11  1  1
 12 13  1  0
 13  6  1  0
 14 12  1  0
 14 15  2  0
 16 14  1  0
 17 16  1  0
 18 19  1  0
 17 18  1  1
 19 20  2  0
 21 20  1  0
 22 21  1  0
 23 22  2  0
 24 23  1  0
 25 24  2  0
 25 26  1  0
 26 27  2  0
 27 22  1  0
 27 19  1  0
 28 17  1  0
 29 28  1  0
 30 28  2  0
M  END
$$$$
