YNK.pdb
     RDKit          3D

 30 30  0  0  1  0  0  0  0  0999 V2000
    5.2816  -10.7633   27.8394 O   0  0  0  0  0  0  0  0  0  0  0  0
    6.0231  -11.6983   27.1176 C   0  0  0  0  0  0  0  0  0  0  0  0
    5.4660  -12.4605   26.1146 C   0  0  0  0  0  0  0  0  0  0  0  0
    6.2125  -13.3908   25.3996 C   0  0  0  0  0  0  0  0  0  0  0  0
    7.5510  -13.5829   25.6748 C   0  0  0  0  0  0  0  0  0  0  0  0
    8.3102  -14.5601   24.9201 C   0  0  0  0  0  0  0  0  0  0  0  0
    7.5542  -15.6861   24.2987 C   0  0  2  0  0  0  0  0  0  0  0  0
    6.8723  -16.4613   25.3171 N   0  0  0  0  0  0  0  0  0  0  0  0
    8.3189  -16.5189   23.3622 C   0  0  0  0  0  0  0  0  0  0  0  0
    8.5746  -17.7043   23.7383 O   0  0  0  0  0  0  0  0  0  0  0  0
    8.0918  -12.8108   26.6827 C   0  0  0  0  0  0  0  0  0  0  0  0
    7.3621  -11.8888   27.3949 C   0  0  0  0  0  0  0  0  0  0  0  0
    8.0809  -17.5251   18.8612 N   0  0  0  0  0  0  0  0  0  0  0  0
    8.7069  -16.3174   19.2275 C   0  0  0  0  0  0  0  0  0  0  0  0
    8.1718  -15.2296   18.9458 O   0  0  0  0  0  0  0  0  0  0  0  0
    9.9926  -16.3450   19.9433 C   0  0  0  0  0  0  0  0  0  0  0  0
    9.8309  -16.8191   21.3646 C   0  0  2  0  0  0  0  0  0  0  0  0
    8.7965  -16.1341   22.0911 N   0  0  0  0  0  0  0  0  0  0  0  0
   11.1542  -16.7163   22.0267 C   0  0  0  0  0  0  0  0  0  0  0  0
   11.5825  -15.5751   22.3149 O   0  0  0  0  0  0  0  0  0  0  0  0
   11.9501  -17.8375   22.3471 N   0  0  0  0  0  0  0  0  0  0  0  0
   12.7926  -17.9190   23.5290 C   0  0  1  0  0  0  0  0  0  0  0  0
   11.8354  -17.9042   24.7121 C   0  0  0  0  0  0  0  0  0  0  0  0
   12.4964  -18.0571   26.0361 C   0  0  0  0  0  0  0  0  0  0  0  0
   11.4616  -18.0748   27.1279 C   0  0  0  0  0  0  0  0  0  0  0  0
   12.0434  -18.2601   28.5070 C   0  0  0  0  0  0  0  0  0  0  0  0
   10.9418  -18.2957   29.4560 N   0  0  0  0  0  0  0  0  0  0  0  0
   13.6080  -19.1476   23.5306 C   0  0  0  0  0  0  0  0  0  0  0  0
   14.7390  -19.2319   24.0574 O   0  0  0  0  0  0  0  0  0  0  0  0
   13.0831  -20.2786   22.9083 O   0  0  0  0  0  0  0  0  0  0  0  0
  2  1  1  0
  3  2  2  0
  4  3  1  0
  5  4  2  0
  5 11  1  0
  6  5  1  0
  7  6  1  0
  7  9  1  0
  7  8  1  1
  9 10  2  0
 11 12  2  0
 12  2  1  0
 13 14  1  0
 14 16  1  0
 14 15  2  0
 17 16  1  6
 18 17  1  0
 18  9  1  0
 19 17  1  0
 19 20  2  0
 21 19  1  0
 22 21  1  0
 22 28  1  0
 22 23  1  1
 24 23  1  0
 25 24  1  0
 26 25  1  0
 26 27  1  0
 28 29  2  0
 28 30  1  0
M  END
$$$$
