YNK.pdb
     RDKit          3D

 30 30  0  0  1  0  0  0  0  0999 V2000
    5.0408  -10.4039   26.6448 O   0  0  0  0  0  0  0  0  0  0  0  0
    5.8293  -11.4419   26.1489 C   0  0  0  0  0  0  0  0  0  0  0  0
    6.2622  -11.4746   24.8417 C   0  0  0  0  0  0  0  0  0  0  0  0
    7.0483  -12.5134   24.3552 C   0  0  0  0  0  0  0  0  0  0  0  0
    7.4244  -13.5574   25.1754 C   0  0  0  0  0  0  0  0  0  0  0  0
    8.2411  -14.6322   24.6474 C   0  0  0  0  0  0  0  0  0  0  0  0
    7.5383  -15.8611   24.1768 C   0  0  2  0  0  0  0  0  0  0  0  0
    6.6826  -16.3871   25.2228 N   0  0  0  0  0  0  0  0  0  0  0  0
    8.3970  -16.8861   23.5707 C   0  0  0  0  0  0  0  0  0  0  0  0
    7.8492  -18.0019   23.3115 O   0  0  0  0  0  0  0  0  0  0  0  0
    6.9814  -13.5080   26.4815 C   0  0  0  0  0  0  0  0  0  0  0  0
    6.2042  -12.4854   26.9716 C   0  0  0  0  0  0  0  0  0  0  0  0
    9.7386  -18.1164   18.6343 N   0  0  0  0  0  0  0  0  0  0  0  0
   10.4453  -17.3817   19.6067 C   0  0  0  0  0  0  0  0  0  0  0  0
   11.6657  -17.1809   19.4683 O   0  0  0  0  0  0  0  0  0  0  0  0
    9.7382  -16.8526   20.7840 C   0  0  0  0  0  0  0  0  0  0  0  0
   10.3837  -17.2983   22.0707 C   0  0  2  0  0  0  0  0  0  0  0  0
    9.7650  -16.7553   23.2494 N   0  0  0  0  0  0  0  0  0  0  0  0
   11.8283  -16.9732   21.9858 C   0  0  0  0  0  0  0  0  0  0  0  0
   12.4785  -17.4249   21.0152 O   0  0  0  0  0  0  0  0  0  0  0  0
   12.5026  -16.1821   22.9411 N   0  0  0  0  0  0  0  0  0  0  0  0
   13.2671  -16.7304   24.0496 C   0  0  1  0  0  0  0  0  0  0  0  0
   12.2422  -17.3809   24.9675 C   0  0  0  0  0  0  0  0  0  0  0  0
   12.8324  -18.1824   26.0732 C   0  0  0  0  0  0  0  0  0  0  0  0
   11.7402  -18.7276   26.9522 C   0  0  0  0  0  0  0  0  0  0  0  0
   12.2479  -19.5950   28.0769 C   0  0  0  0  0  0  0  0  0  0  0  0
   11.1061  -19.9931   28.8850 N   0  0  0  0  0  0  0  0  0  0  0  0
   14.2590  -17.7190   23.5883 C   0  0  0  0  0  0  0  0  0  0  0  0
   15.4936  -17.5889   23.7387 O   0  0  0  0  0  0  0  0  0  0  0  0
   13.7885  -18.8642   22.9486 O   0  0  0  0  0  0  0  0  0  0  0  0
  2  1  1  0
  3  2  2  0
  4  3  1  0
  5  4  2  0
  5 11  1  0
  6  5  1  0
  7  6  1  0
  7  9  1  0
  7  8  1  1
  9 10  2  0
 11 12  2  0
 12  2  1  0
 13 14  1  0
 14 16  1  0
 14 15  2  0
 17 16  1  6
 18 17  1  0
 18  9  1  0
 19 17  1  0
 19 20  2  0
 21 19  1  0
 22 21  1  0
 22 28  1  0
 22 23  1  1
 24 23  1  0
 25 24  1  0
 26 25  1  0
 26 27  1  0
 28 29  2  0
 28 30  1  0
M  END
$$$$
