YNK.pdb
     RDKit          3D

 30 30  0  0  1  0  0  0  0  0999 V2000
    5.0321  -10.3976   27.2096 O   0  0  0  0  0  0  0  0  0  0  0  0
    5.8639  -11.4025   26.7166 C   0  0  0  0  0  0  0  0  0  0  0  0
    5.5903  -12.0724   25.5445 C   0  0  0  0  0  0  0  0  0  0  0  0
    6.4251  -13.0734   25.0597 C   0  0  0  0  0  0  0  0  0  0  0  0
    7.5677  -13.4325   25.7450 C   0  0  0  0  0  0  0  0  0  0  0  0
    8.4224  -14.4810   25.2243 C   0  0  0  0  0  0  0  0  0  0  0  0
    7.7605  -15.6322   24.5444 C   0  0  2  0  0  0  0  0  0  0  0  0
    6.8366  -16.2907   25.4476 N   0  0  0  0  0  0  0  0  0  0  0  0
    8.6647  -16.5697   23.8670 C   0  0  0  0  0  0  0  0  0  0  0  0
    8.9082  -17.6585   24.4731 O   0  0  0  0  0  0  0  0  0  0  0  0
    7.8255  -12.7510   26.9171 C   0  0  0  0  0  0  0  0  0  0  0  0
    7.0065  -11.7602   27.4042 C   0  0  0  0  0  0  0  0  0  0  0  0
    8.7654  -18.4990   19.5713 N   0  0  0  0  0  0  0  0  0  0  0  0
    9.2896  -17.2095   19.7888 C   0  0  0  0  0  0  0  0  0  0  0  0
    8.7124  -16.2155   19.3118 O   0  0  0  0  0  0  0  0  0  0  0  0
   10.5188  -17.0411   20.5805 C   0  0  0  0  0  0  0  0  0  0  0  0
   10.2719  -17.2647   22.0503 C   0  0  2  0  0  0  0  0  0  0  0  0
    9.2878  -16.3816   22.6147 N   0  0  0  0  0  0  0  0  0  0  0  0
   11.5795  -17.1768   22.7448 C   0  0  0  0  0  0  0  0  0  0  0  0
   12.2076  -16.0948   22.6852 O   0  0  0  0  0  0  0  0  0  0  0  0
   12.1474  -18.2486   23.4672 N   0  0  0  0  0  0  0  0  0  0  0  0
   13.4145  -18.1645   24.1751 C   0  0  1  0  0  0  0  0  0  0  0  0
   13.3894  -19.2992   25.1890 C   0  0  0  0  0  0  0  0  0  0  0  0
   12.5666  -19.0223   26.3972 C   0  0  0  0  0  0  0  0  0  0  0  0
   12.1629  -20.3155   27.0512 C   0  0  0  0  0  0  0  0  0  0  0  0
   11.2847  -20.1296   28.2632 C   0  0  0  0  0  0  0  0  0  0  0  0
   10.9282  -21.4480   28.7635 N   0  0  0  0  0  0  0  0  0  0  0  0
   14.5595  -18.3077   23.2571 C   0  0  0  0  0  0  0  0  0  0  0  0
   14.4541  -18.6613   22.0624 O   0  0  0  0  0  0  0  0  0  0  0  0
   15.8316  -18.0307   23.7543 O   0  0  0  0  0  0  0  0  0  0  0  0
  2  1  1  0
  3  2  2  0
  4  3  1  0
  5  4  2  0
  5 11  1  0
  6  5  1  0
  7  6  1  0
  7  9  1  0
  7  8  1  1
  9 10  2  0
 11 12  2  0
 12  2  1  0
 13 14  1  0
 14 16  1  0
 14 15  2  0
 17 16  1  6
 18 17  1  0
 18  9  1  0
 19 17  1  0
 19 20  2  0
 21 19  1  0
 22 21  1  0
 22 28  1  0
 22 23  1  1
 24 23  1  0
 25 24  1  0
 26 25  1  0
 26 27  1  0
 28 29  2  0
 28 30  1  0
M  END
$$$$
