YNK.pdb
     RDKit          3D

 30 30  0  0  1  0  0  0  0  0999 V2000
    7.0403  -11.7628   18.7991 O   0  0  0  0  0  0  0  0  0  0  0  0
    7.6670  -12.9973   18.6308 C   0  0  0  0  0  0  0  0  0  0  0  0
    8.9343  -13.1111   18.1034 C   0  0  0  0  0  0  0  0  0  0  0  0
    9.5522  -14.3461   17.9389 C   0  0  0  0  0  0  0  0  0  0  0  0
    8.9083  -15.5111   18.3024 C   0  0  0  0  0  0  0  0  0  0  0  0
    9.5686  -16.7884   18.1193 C   0  0  0  0  0  0  0  0  0  0  0  0
   10.2444  -17.3884   19.3063 C   0  0  2  0  0  0  0  0  0  0  0  0
    9.4775  -17.1307   20.5098 N   0  0  0  0  0  0  0  0  0  0  0  0
   11.6681  -17.0615   19.4541 C   0  0  0  0  0  0  0  0  0  0  0  0
   12.4734  -17.6852   18.6960 O   0  0  0  0  0  0  0  0  0  0  0  0
    7.6394  -15.3778   18.8286 C   0  0  0  0  0  0  0  0  0  0  0  0
    7.0206  -14.1617   18.9952 C   0  0  0  0  0  0  0  0  0  0  0  0
   13.6546  -13.4933   18.7032 N   0  0  0  0  0  0  0  0  0  0  0  0
   14.4066  -14.5857   19.1785 C   0  0  0  0  0  0  0  0  0  0  0  0
   15.0989  -15.2540   18.3891 O   0  0  0  0  0  0  0  0  0  0  0  0
   14.3723  -14.9337   20.6081 C   0  0  0  0  0  0  0  0  0  0  0  0
   13.5717  -16.1854   20.8596 C   0  0  2  0  0  0  0  0  0  0  0  0
   12.2280  -16.1272   20.3515 N   0  0  0  0  0  0  0  0  0  0  0  0
   13.6173  -16.4640   22.3157 C   0  0  0  0  0  0  0  0  0  0  0  0
   14.7369  -16.4882   22.8768 O   0  0  0  0  0  0  0  0  0  0  0  0
   12.4652  -16.7012   23.0963 N   0  0  0  0  0  0  0  0  0  0  0  0
   12.5019  -17.0297   24.5120 C   0  0  1  0  0  0  0  0  0  0  0  0
   11.0516  -17.0047   24.9726 C   0  0  0  0  0  0  0  0  0  0  0  0
   10.3492  -15.7192   24.7132 C   0  0  0  0  0  0  0  0  0  0  0  0
    8.9050  -15.8320   25.1188 C   0  0  0  0  0  0  0  0  0  0  0  0
    8.1111  -14.5723   24.8784 C   0  0  0  0  0  0  0  0  0  0  0  0
    6.7348  -14.8289   25.2727 N   0  0  0  0  0  0  0  0  0  0  0  0
   13.1029  -18.3558   24.7460 C   0  0  0  0  0  0  0  0  0  0  0  0
   13.8135  -18.6331   25.7368 O   0  0  0  0  0  0  0  0  0  0  0  0
   12.8611  -19.3556   23.8057 O   0  0  0  0  0  0  0  0  0  0  0  0
  2  1  1  0
  3  2  2  0
  4  3  1  0
  5  4  2  0
  5 11  1  0
  6  5  1  0
  7  6  1  0
  7  9  1  0
  7  8  1  1
  9 10  2  0
 11 12  2  0
 12  2  1  0
 13 14  1  0
 14 16  1  0
 14 15  2  0
 17 16  1  1
 18 17  1  0
 18  9  1  0
 19 17  1  0
 19 20  2  0
 21 19  1  0
 22 21  1  0
 22 28  1  0
 22 23  1  6
 24 23  1  0
 25 24  1  0
 26 25  1  0
 26 27  1  0
 28 29  2  0
 28 30  1  0
M  END
$$$$
