YNK.pdb
     RDKit          3D

 30 30  0  0  1  0  0  0  0  0999 V2000
    9.6330  -13.1910   27.6986 O   0  0  0  0  0  0  0  0  0  0  0  0
    8.6792  -13.8735   26.9440 C   0  0  0  0  0  0  0  0  0  0  0  0
    8.2577  -15.1438   27.2694 C   0  0  0  0  0  0  0  0  0  0  0  0
    7.3060  -15.8174   26.5116 C   0  0  0  0  0  0  0  0  0  0  0  0
    6.7467  -15.2287   25.3959 C   0  0  0  0  0  0  0  0  0  0  0  0
    5.7589  -15.9495   24.6177 C   0  0  0  0  0  0  0  0  0  0  0  0
    6.2350  -17.1087   23.8082 C   0  0  2  0  0  0  0  0  0  0  0  0
    6.4803  -18.2555   24.6614 N   0  0  0  0  0  0  0  0  0  0  0  0
    7.3496  -16.8258   22.8955 C   0  0  0  0  0  0  0  0  0  0  0  0
    7.9934  -17.8301   22.4606 O   0  0  0  0  0  0  0  0  0  0  0  0
    7.1812  -13.9562   25.0851 C   0  0  0  0  0  0  0  0  0  0  0  0
    8.1212  -13.2823   25.8280 C   0  0  0  0  0  0  0  0  0  0  0  0
    7.7763  -14.7343   19.1049 N   0  0  0  0  0  0  0  0  0  0  0  0
    8.4029  -13.6685   19.7804 C   0  0  0  0  0  0  0  0  0  0  0  0
    8.4494  -12.5413   19.2550 O   0  0  0  0  0  0  0  0  0  0  0  0
    9.0005  -13.8907   21.1069 C   0  0  0  0  0  0  0  0  0  0  0  0
    8.8657  -15.3255   21.5475 C   0  0  2  0  0  0  0  0  0  0  0  0
    7.7751  -15.5540   22.4560 N   0  0  0  0  0  0  0  0  0  0  0  0
   10.1716  -15.7485   22.1092 C   0  0  0  0  0  0  0  0  0  0  0  0
   11.1911  -15.6206   21.3928 O   0  0  0  0  0  0  0  0  0  0  0  0
   10.3206  -16.2850   23.4066 N   0  0  0  0  0  0  0  0  0  0  0  0
   11.5667  -16.2559   24.1548 C   0  0  1  0  0  0  0  0  0  0  0  0
   11.1761  -16.5055   25.6044 C   0  0  0  0  0  0  0  0  0  0  0  0
   12.3296  -16.6681   26.5297 C   0  0  0  0  0  0  0  0  0  0  0  0
   11.8354  -16.9547   27.9213 C   0  0  0  0  0  0  0  0  0  0  0  0
   12.9419  -17.1039   28.9353 C   0  0  0  0  0  0  0  0  0  0  0  0
   12.3331  -17.4141   30.2192 N   0  0  0  0  0  0  0  0  0  0  0  0
   12.5083  -17.2870   23.6811 C   0  0  0  0  0  0  0  0  0  0  0  0
   13.7250  -17.3038   23.9691 O   0  0  0  0  0  0  0  0  0  0  0  0
   12.0083  -18.3007   22.8660 O   0  0  0  0  0  0  0  0  0  0  0  0
  2  1  1  0
  3  2  2  0
  4  3  1  0
  5  4  2  0
  5 11  1  0
  6  5  1  0
  7  6  1  0
  7  9  1  0
  7  8  1  1
  9 10  2  0
 11 12  2  0
 12  2  1  0
 13 14  1  0
 14 16  1  0
 14 15  2  0
 17 16  1  1
 18 17  1  0
 18  9  1  0
 19 17  1  0
 19 20  2  0
 21 19  1  0
 22 21  1  0
 22 28  1  0
 22 23  1  1
 24 23  1  0
 25 24  1  0
 26 25  1  0
 26 27  1  0
 28 29  2  0
 28 30  1  0
M  END
$$$$
