YNK.pdb
     RDKit          3D

 30 30  0  0  1  0  0  0  0  0999 V2000
    5.4804  -10.1247   26.6980 O   0  0  0  0  0  0  0  0  0  0  0  0
    6.0481  -11.3618   26.3941 C   0  0  0  0  0  0  0  0  0  0  0  0
    5.5681  -12.5395   26.9231 C   0  0  0  0  0  0  0  0  0  0  0  0
    6.1401  -13.7690   26.6149 C   0  0  0  0  0  0  0  0  0  0  0  0
    7.2197  -13.8503   25.7594 C   0  0  0  0  0  0  0  0  0  0  0  0
    7.8033  -15.1414   25.4539 C   0  0  0  0  0  0  0  0  0  0  0  0
    7.1034  -15.9903   24.4464 C   0  0  2  0  0  0  0  0  0  0  0  0
    6.1952  -16.9107   25.1029 N   0  0  0  0  0  0  0  0  0  0  0  0
    7.9722  -16.6479   23.4625 C   0  0  0  0  0  0  0  0  0  0  0  0
    8.2814  -17.8564   23.6993 O   0  0  0  0  0  0  0  0  0  0  0  0
    7.6871  -12.6605   25.2392 C   0  0  0  0  0  0  0  0  0  0  0  0
    7.1284  -11.4405   25.5379 C   0  0  0  0  0  0  0  0  0  0  0  0
   10.3253  -17.7843   18.4203 N   0  0  0  0  0  0  0  0  0  0  0  0
   10.6798  -16.7433   19.3008 C   0  0  0  0  0  0  0  0  0  0  0  0
   11.8696  -16.3924   19.4013 O   0  0  0  0  0  0  0  0  0  0  0  0
    9.6416  -16.0724   20.0997 C   0  0  0  0  0  0  0  0  0  0  0  0
    9.5419  -16.6524   21.4870 C   0  0  2  0  0  0  0  0  0  0  0  0
    8.4960  -16.0726   22.2851 N   0  0  0  0  0  0  0  0  0  0  0  0
   10.8763  -16.5303   22.1229 C   0  0  0  0  0  0  0  0  0  0  0  0
   11.1659  -15.4480   22.6831 O   0  0  0  0  0  0  0  0  0  0  0  0
   11.8310  -17.5703   22.1280 N   0  0  0  0  0  0  0  0  0  0  0  0
   12.7100  -17.8546   23.2505 C   0  0  1  0  0  0  0  0  0  0  0  0
   11.8465  -18.5870   24.2674 C   0  0  0  0  0  0  0  0  0  0  0  0
   12.5887  -19.0787   25.4594 C   0  0  0  0  0  0  0  0  0  0  0  0
   11.6464  -19.7836   26.3965 C   0  0  0  0  0  0  0  0  0  0  0  0
   12.3175  -20.3183   27.6369 C   0  0  0  0  0  0  0  0  0  0  0  0
   11.7265  -19.6528   28.7872 N   0  0  0  0  0  0  0  0  0  0  0  0
   13.8584  -18.6853   22.8437 C   0  0  0  0  0  0  0  0  0  0  0  0
   14.9178  -18.7787   23.5014 O   0  0  0  0  0  0  0  0  0  0  0  0
   13.7519  -19.4075   21.6566 O   0  0  0  0  0  0  0  0  0  0  0  0
  2  1  1  0
  3  2  2  0
  4  3  1  0
  5  4  2  0
  5 11  1  0
  6  5  1  0
  7  6  1  0
  7  9  1  0
  7  8  1  1
  9 10  2  0
 11 12  2  0
 12  2  1  0
 13 14  1  0
 14 16  1  0
 14 15  2  0
 17 16  1  6
 18 17  1  0
 18  9  1  0
 19 17  1  0
 19 20  2  0
 21 19  1  0
 22 21  1  0
 22 28  1  0
 22 23  1  1
 24 23  1  0
 25 24  1  0
 26 25  1  0
 26 27  1  0
 28 29  2  0
 28 30  1  0
M  END
$$$$
