YNK.pdb
     RDKit          3D

 30 30  0  0  1  0  0  0  0  0999 V2000
    8.4059  -11.5591   20.5464 O   0  0  0  0  0  0  0  0  0  0  0  0
    7.7791  -12.8049   20.5609 C   0  0  0  0  0  0  0  0  0  0  0  0
    7.4995  -13.4721   21.7330 C   0  0  0  0  0  0  0  0  0  0  0  0
    6.8741  -14.7142   21.7388 C   0  0  0  0  0  0  0  0  0  0  0  0
    6.5094  -15.3259   20.5569 C   0  0  0  0  0  0  0  0  0  0  0  0
    5.8618  -16.6223   20.5848 C   0  0  0  0  0  0  0  0  0  0  0  0
    6.5616  -17.7541   19.9104 C   0  0  2  0  0  0  0  0  0  0  0  0
    5.7932  -18.9767   20.0444 N   0  0  0  0  0  0  0  0  0  0  0  0
    7.9753  -17.9249   20.2679 C   0  0  0  0  0  0  0  0  0  0  0  0
    8.2154  -18.5814   21.3279 O   0  0  0  0  0  0  0  0  0  0  0  0
    6.7977  -14.6430   19.3928 C   0  0  0  0  0  0  0  0  0  0  0  0
    7.4153  -13.4150   19.3770 C   0  0  0  0  0  0  0  0  0  0  0  0
   13.2062  -19.0931   19.1640 N   0  0  0  0  0  0  0  0  0  0  0  0
   12.8156  -17.7400   19.1993 C   0  0  0  0  0  0  0  0  0  0  0  0
   13.6307  -16.8668   19.5489 O   0  0  0  0  0  0  0  0  0  0  0  0
   11.4443  -17.3620   18.8218 C   0  0  0  0  0  0  0  0  0  0  0  0
   10.4604  -17.6532   19.9255 C   0  0  2  0  0  0  0  0  0  0  0  0
    9.0890  -17.4334   19.5539 N   0  0  0  0  0  0  0  0  0  0  0  0
   10.8633  -16.8560   21.1095 C   0  0  0  0  0  0  0  0  0  0  0  0
   10.9464  -15.6126   20.9830 O   0  0  0  0  0  0  0  0  0  0  0  0
   11.1554  -17.4281   22.3667 N   0  0  0  0  0  0  0  0  0  0  0  0
   11.6099  -16.6633   23.5165 C   0  0  1  0  0  0  0  0  0  0  0  0
   11.0090  -17.3583   24.7299 C   0  0  0  0  0  0  0  0  0  0  0  0
    9.5384  -17.5682   24.6490 C   0  0  0  0  0  0  0  0  0  0  0  0
    9.0481  -18.2540   25.8949 C   0  0  0  0  0  0  0  0  0  0  0  0
    7.5933  -18.6472   25.8338 C   0  0  0  0  0  0  0  0  0  0  0  0
    7.2588  -19.3184   27.0800 N   0  0  0  0  0  0  0  0  0  0  0  0
   13.0816  -16.6370   23.6036 C   0  0  0  0  0  0  0  0  0  0  0  0
   13.8317  -17.3882   22.9427 O   0  0  0  0  0  0  0  0  0  0  0  0
   13.6664  -15.7191   24.4739 O   0  0  0  0  0  0  0  0  0  0  0  0
  2  1  1  0
  3  2  2  0
  4  3  1  0
  5  4  2  0
  5 11  1  0
  6  5  1  0
  7  6  1  0
  7  9  1  0
  7  8  1  1
  9 10  2  0
 11 12  2  0
 12  2  1  0
 13 14  1  0
 14 16  1  0
 14 15  2  0
 17 16  1  6
 18 17  1  0
 18  9  1  0
 19 17  1  0
 19 20  2  0
 21 19  1  0
 22 21  1  0
 22 28  1  0
 22 23  1  1
 24 23  1  0
 25 24  1  0
 26 25  1  0
 26 27  1  0
 28 29  2  0
 28 30  1  0
M  END
$$$$
