YNK.pdb
     RDKit          3D

 30 30  0  0  1  0  0  0  0  0999 V2000
    5.2897  -10.1414   26.6491 O   0  0  0  0  0  0  0  0  0  0  0  0
    5.9758  -11.3001   26.2864 C   0  0  0  0  0  0  0  0  0  0  0  0
    7.0586  -11.2759   25.4354 C   0  0  0  0  0  0  0  0  0  0  0  0
    7.7374  -12.4361   25.0787 C   0  0  0  0  0  0  0  0  0  0  0  0
    7.3436  -13.6635   25.5712 C   0  0  0  0  0  0  0  0  0  0  0  0
    8.0625  -14.8611   25.1841 C   0  0  0  0  0  0  0  0  0  0  0  0
    7.8733  -15.3549   23.7892 C   0  0  2  0  0  0  0  0  0  0  0  0
    6.4854  -15.7078   23.5608 N   0  0  0  0  0  0  0  0  0  0  0  0
    8.8082  -16.4015   23.3580 C   0  0  0  0  0  0  0  0  0  0  0  0
    8.3947  -17.5991   23.4422 O   0  0  0  0  0  0  0  0  0  0  0  0
    6.2570  -13.6685   26.4220 C   0  0  0  0  0  0  0  0  0  0  0  0
    5.5798  -12.5271   26.7803 C   0  0  0  0  0  0  0  0  0  0  0  0
   11.5097  -17.6901   19.6367 N   0  0  0  0  0  0  0  0  0  0  0  0
   11.8937  -16.6118   20.4580 C   0  0  0  0  0  0  0  0  0  0  0  0
   11.9092  -15.4553   19.9984 O   0  0  0  0  0  0  0  0  0  0  0  0
   12.2751  -16.8555   21.8585 C   0  0  0  0  0  0  0  0  0  0  0  0
   11.0898  -17.2543   22.6992 C   0  0  2  0  0  0  0  0  0  0  0  0
   10.1154  -16.2097   22.8618 N   0  0  0  0  0  0  0  0  0  0  0  0
   11.6062  -17.7568   23.9957 C   0  0  0  0  0  0  0  0  0  0  0  0
   11.9776  -16.9174   24.8480 O   0  0  0  0  0  0  0  0  0  0  0  0
   11.6980  -19.1290   24.3144 N   0  0  0  0  0  0  0  0  0  0  0  0
   12.1241  -19.6307   25.6107 C   0  0  1  0  0  0  0  0  0  0  0  0
   11.5602  -21.0411   25.7057 C   0  0  0  0  0  0  0  0  0  0  0  0
   11.9538  -21.7758   26.9381 C   0  0  0  0  0  0  0  0  0  0  0  0
   11.2716  -23.1160   26.9772 C   0  0  0  0  0  0  0  0  0  0  0  0
   11.4553  -23.8481   28.2830 C   0  0  0  0  0  0  0  0  0  0  0  0
   10.5890  -25.0162   28.2664 N   0  0  0  0  0  0  0  0  0  0  0  0
   13.5936  -19.6452   25.7307 C   0  0  0  0  0  0  0  0  0  0  0  0
   14.3710  -19.7354   24.7554 O   0  0  0  0  0  0  0  0  0  0  0  0
   14.1439  -19.5516   27.0076 O   0  0  0  0  0  0  0  0  0  0  0  0
  2  1  1  0
  3  2  2  0
  4  3  1  0
  5  4  2  0
  5 11  1  0
  6  5  1  0
  7  6  1  0
  7  9  1  0
  7  8  1  1
  9 10  2  0
 11 12  2  0
 12  2  1  0
 13 14  1  0
 14 16  1  0
 14 15  2  0
 17 16  1  6
 18 17  1  0
 18  9  1  0
 19 17  1  0
 19 20  2  0
 21 19  1  0
 22 21  1  0
 22 28  1  0
 22 23  1  6
 24 23  1  0
 25 24  1  0
 26 25  1  0
 26 27  1  0
 28 29  2  0
 28 30  1  0
M  END
$$$$
