YNK.pdb
     RDKit          3D

 30 30  0  0  1  0  0  0  0  0999 V2000
    5.4662  -12.2263   18.1454 O   0  0  0  0  0  0  0  0  0  0  0  0
    6.6994  -12.7288   18.5600 C   0  0  0  0  0  0  0  0  0  0  0  0
    6.8403  -14.0016   19.0672 C   0  0  0  0  0  0  0  0  0  0  0  0
    8.0737  -14.4950   19.4784 C   0  0  0  0  0  0  0  0  0  0  0  0
    9.2097  -13.7165   19.3909 C   0  0  0  0  0  0  0  0  0  0  0  0
   10.4850  -14.2486   19.8283 C   0  0  0  0  0  0  0  0  0  0  0  0
   11.4883  -14.5801   18.7751 C   0  0  2  0  0  0  0  0  0  0  0  0
   10.8987  -15.4392   17.7664 N   0  0  0  0  0  0  0  0  0  0  0  0
   12.7789  -15.0778   19.2672 C   0  0  0  0  0  0  0  0  0  0  0  0
   12.8216  -16.3008   19.6057 O   0  0  0  0  0  0  0  0  0  0  0  0
    9.0495  -12.4443   18.8806 C   0  0  0  0  0  0  0  0  0  0  0  0
    7.8346  -11.9478   18.4716 C   0  0  0  0  0  0  0  0  0  0  0  0
   17.6669  -15.8961   20.5232 N   0  0  0  0  0  0  0  0  0  0  0  0
   17.6318  -14.5234   20.2081 C   0  0  0  0  0  0  0  0  0  0  0  0
   18.6815  -13.8550   20.2249 O   0  0  0  0  0  0  0  0  0  0  0  0
   16.3535  -13.8831   19.8590 C   0  0  0  0  0  0  0  0  0  0  0  0
   15.2045  -14.8559   19.9258 C   0  0  2  0  0  0  0  0  0  0  0  0
   13.9713  -14.3351   19.4013 N   0  0  0  0  0  0  0  0  0  0  0  0
   15.0781  -15.3072   21.3330 C   0  0  0  0  0  0  0  0  0  0  0  0
   14.9718  -14.4344   22.2251 O   0  0  0  0  0  0  0  0  0  0  0  0
   15.0709  -16.6667   21.7137 N   0  0  0  0  0  0  0  0  0  0  0  0
   14.8720  -17.1221   23.0799 C   0  0  1  0  0  0  0  0  0  0  0  0
   14.1005  -18.4289   22.9642 C   0  0  0  0  0  0  0  0  0  0  0  0
   13.7844  -19.0706   24.2687 C   0  0  0  0  0  0  0  0  0  0  0  0
   12.9078  -20.2735   24.0505 C   0  0  0  0  0  0  0  0  0  0  0  0
   12.4240  -20.9071   25.3308 C   0  0  0  0  0  0  0  0  0  0  0  0
   11.5044  -21.9779   24.9801 N   0  0  0  0  0  0  0  0  0  0  0  0
   16.1557  -17.3318   23.7745 C   0  0  0  0  0  0  0  0  0  0  0  0
   16.3466  -17.0635   24.9808 O   0  0  0  0  0  0  0  0  0  0  0  0
   17.2151  -17.8609   23.0398 O   0  0  0  0  0  0  0  0  0  0  0  0
  2  1  1  0
  3  2  2  0
  4  3  1  0
  5  4  2  0
  5 11  1  0
  6  5  1  0
  7  6  1  0
  7  9  1  0
  7  8  1  6
  9 10  2  0
 11 12  2  0
 12  2  1  0
 13 14  1  0
 14 16  1  0
 14 15  2  0
 17 16  1  1
 18 17  1  0
 18  9  1  0
 19 17  1  0
 19 20  2  0
 21 19  1  0
 22 21  1  0
 22 28  1  0
 22 23  1  6
 24 23  1  0
 25 24  1  0
 26 25  1  0
 26 27  1  0
 28 29  2  0
 28 30  1  0
M  END
$$$$
