YNK.pdb
     RDKit          3D

 30 30  0  0  1  0  0  0  0  0999 V2000
    2.9172  -27.6751   21.0548 O   0  0  0  0  0  0  0  0  0  0  0  0
    4.1379  -27.0214   20.8889 C   0  0  0  0  0  0  0  0  0  0  0  0
    4.3411  -25.7272   21.3142 C   0  0  0  0  0  0  0  0  0  0  0  0
    5.5617  -25.0826   21.1449 C   0  0  0  0  0  0  0  0  0  0  0  0
    6.6211  -25.7257   20.5381 C   0  0  0  0  0  0  0  0  0  0  0  0
    7.8838  -25.0346   20.3683 C   0  0  0  0  0  0  0  0  0  0  0  0
    7.8892  -23.8160   19.5078 C   0  0  2  0  0  0  0  0  0  0  0  0
    7.4334  -24.1390   18.1695 N   0  0  0  0  0  0  0  0  0  0  0  0
    9.1374  -23.0432   19.5161 C   0  0  0  0  0  0  0  0  0  0  0  0
   10.0871  -23.4948   18.8045 O   0  0  0  0  0  0  0  0  0  0  0  0
    6.3991  -27.0216   20.1184 C   0  0  0  0  0  0  0  0  0  0  0  0
    5.1964  -27.6671   20.2814 C   0  0  0  0  0  0  0  0  0  0  0  0
    9.8788  -18.7160   18.0146 N   0  0  0  0  0  0  0  0  0  0  0  0
   10.8782  -19.0740   18.9407 C   0  0  0  0  0  0  0  0  0  0  0  0
   12.0778  -18.9000   18.6587 O   0  0  0  0  0  0  0  0  0  0  0  0
   10.5010  -19.6526   20.2404 C   0  0  0  0  0  0  0  0  0  0  0  0
   10.6412  -21.1530   20.2460 C   0  0  2  0  0  0  0  0  0  0  0  0
    9.3858  -21.8536   20.2337 N   0  0  0  0  0  0  0  0  0  0  0  0
   11.4865  -21.5218   21.4076 C   0  0  0  0  0  0  0  0  0  0  0  0
   10.9434  -21.5906   22.5342 O   0  0  0  0  0  0  0  0  0  0  0  0
   12.8671  -21.7985   21.3052 N   0  0  0  0  0  0  0  0  0  0  0  0
   13.6812  -22.2696   22.4137 C   0  0  1  0  0  0  0  0  0  0  0  0
   14.8747  -22.9648   21.7746 C   0  0  0  0  0  0  0  0  0  0  0  0
   14.6136  -24.3686   21.3568 C   0  0  0  0  0  0  0  0  0  0  0  0
   15.8132  -24.9220   20.6373 C   0  0  0  0  0  0  0  0  0  0  0  0
   15.5935  -26.3033   20.0728 C   0  0  0  0  0  0  0  0  0  0  0  0
   16.7761  -26.6673   19.3085 N   0  0  0  0  0  0  0  0  0  0  0  0
   14.1227  -21.1565   23.2742 C   0  0  0  0  0  0  0  0  0  0  0  0
   14.3522  -20.0010   22.8549 O   0  0  0  0  0  0  0  0  0  0  0  0
   14.2917  -21.4116   24.6338 O   0  0  0  0  0  0  0  0  0  0  0  0
  2  1  1  0
  3  2  2  0
  4  3  1  0
  5  4  2  0
  5 11  1  0
  6  5  1  0
  7  6  1  0
  7  9  1  0
  7  8  1  6
  9 10  2  0
 11 12  2  0
 12  2  1  0
 13 14  1  0
 14 16  1  0
 14 15  2  0
 17 16  1  1
 18 17  1  0
 18  9  1  0
 19 17  1  0
 19 20  2  0
 21 19  1  0
 22 21  1  0
 22 28  1  0
 22 23  1  6
 24 23  1  0
 25 24  1  0
 26 25  1  0
 26 27  1  0
 28 29  2  0
 28 30  1  0
M  END
$$$$
