YNK.pdb
     RDKit          3D

 30 30  0  0  1  0  0  0  0  0999 V2000
    7.7732  -13.4008   15.7550 O   0  0  0  0  0  0  0  0  0  0  0  0
    7.6642  -13.5982   17.1313 C   0  0  0  0  0  0  0  0  0  0  0  0
    6.9988  -12.7121   17.9494 C   0  0  0  0  0  0  0  0  0  0  0  0
    6.8947  -12.9165   19.3210 C   0  0  0  0  0  0  0  0  0  0  0  0
    7.4613  -14.0261   19.9140 C   0  0  0  0  0  0  0  0  0  0  0  0
    7.3443  -14.2185   21.3459 C   0  0  0  0  0  0  0  0  0  0  0  0
    6.8427  -15.5402   21.8224 C   0  0  2  0  0  0  0  0  0  0  0  0
    5.4097  -15.6397   21.6236 N   0  0  0  0  0  0  0  0  0  0  0  0
    7.2603  -15.9225   23.1770 C   0  0  0  0  0  0  0  0  0  0  0  0
    6.4932  -15.5712   24.1258 O   0  0  0  0  0  0  0  0  0  0  0  0
    8.1240  -14.9026   19.0791 C   0  0  0  0  0  0  0  0  0  0  0  0
    8.2321  -14.7093   17.7224 C   0  0  0  0  0  0  0  0  0  0  0  0
    9.3795  -17.8668   27.4039 N   0  0  0  0  0  0  0  0  0  0  0  0
    8.1561  -18.3248   26.8762 C   0  0  0  0  0  0  0  0  0  0  0  0
    7.4112  -19.0430   27.5677 O   0  0  0  0  0  0  0  0  0  0  0  0
    7.7615  -17.9521   25.5082 C   0  0  0  0  0  0  0  0  0  0  0  0
    8.7695  -17.0339   24.8664 C   0  0  2  0  0  0  0  0  0  0  0  0
    8.4250  -16.6383   23.5279 N   0  0  0  0  0  0  0  0  0  0  0  0
   10.0939  -17.6975   24.9400 C   0  0  0  0  0  0  0  0  0  0  0  0
   10.1297  -18.9096   25.2535 O   0  0  0  0  0  0  0  0  0  0  0  0
   11.3104  -17.0323   24.6741 N   0  0  0  0  0  0  0  0  0  0  0  0
   12.5727  -17.7167   24.4470 C   0  0  1  0  0  0  0  0  0  0  0  0
   13.4004  -16.7690   23.5908 C   0  0  0  0  0  0  0  0  0  0  0  0
   12.8593  -16.5500   22.2223 C   0  0  0  0  0  0  0  0  0  0  0  0
   13.7140  -15.5555   21.4851 C   0  0  0  0  0  0  0  0  0  0  0  0
   13.1603  -15.1672   20.1369 C   0  0  0  0  0  0  0  0  0  0  0  0
   14.1112  -14.2655   19.5059 N   0  0  0  0  0  0  0  0  0  0  0  0
   13.2638  -18.0158   25.7148 C   0  0  0  0  0  0  0  0  0  0  0  0
   12.8862  -17.5941   26.8298 O   0  0  0  0  0  0  0  0  0  0  0  0
   14.4033  -18.8162   25.6625 O   0  0  0  0  0  0  0  0  0  0  0  0
  2  1  1  0
  3  2  2  0
  4  3  1  0
  5  4  2  0
  5 11  1  0
  6  5  1  0
  7  6  1  0
  7  9  1  0
  7  8  1  1
  9 10  2  0
 11 12  2  0
 12  2  1  0
 13 14  1  0
 14 16  1  0
 14 15  2  0
 17 16  1  6
 18 17  1  0
 18  9  1  0
 19 17  1  0
 19 20  2  0
 21 19  1  0
 22 21  1  0
 22 28  1  0
 22 23  1  6
 24 23  1  0
 25 24  1  0
 26 25  1  0
 26 27  1  0
 28 29  2  0
 28 30  1  0
M  END
$$$$
