YNK.pdb
     RDKit          3D

 30 30  0  0  1  0  0  0  0  0999 V2000
   10.8835  -22.9541   19.4319 O   0  0  0  0  0  0  0  0  0  0  0  0
   11.3253  -22.3886   20.6278 C   0  0  0  0  0  0  0  0  0  0  0  0
   10.6035  -21.4228   21.2936 C   0  0  0  0  0  0  0  0  0  0  0  0
   11.0513  -20.8640   22.4857 C   0  0  0  0  0  0  0  0  0  0  0  0
   12.2471  -21.2633   23.0468 C   0  0  0  0  0  0  0  0  0  0  0  0
   12.6973  -20.6656   24.2882 C   0  0  0  0  0  0  0  0  0  0  0  0
   12.6541  -21.5145   25.5142 C   0  0  2  0  0  0  0  0  0  0  0  0
   11.5169  -22.4131   25.4682 N   0  0  0  0  0  0  0  0  0  0  0  0
   12.7602  -20.7905   26.7870 C   0  0  0  0  0  0  0  0  0  0  0  0
   13.3318  -19.6574   26.7474 O   0  0  0  0  0  0  0  0  0  0  0  0
   12.9566  -22.2315   22.3658 C   0  0  0  0  0  0  0  0  0  0  0  0
   12.5222  -22.7897   21.1871 C   0  0  0  0  0  0  0  0  0  0  0  0
   12.5783  -19.0135   31.5749 N   0  0  0  0  0  0  0  0  0  0  0  0
   11.3318  -19.0030   30.9184 C   0  0  0  0  0  0  0  0  0  0  0  0
   10.3906  -18.3343   31.3828 O   0  0  0  0  0  0  0  0  0  0  0  0
   11.1459  -19.7827   29.6841 C   0  0  0  0  0  0  0  0  0  0  0  0
   12.4150  -20.4804   29.2672 C   0  0  2  0  0  0  0  0  0  0  0  0
   12.2925  -21.2273   28.0449 N   0  0  0  0  0  0  0  0  0  0  0  0
   12.8611  -21.3210   30.4049 C   0  0  0  0  0  0  0  0  0  0  0  0
   13.1563  -20.7501   31.4800 O   0  0  0  0  0  0  0  0  0  0  0  0
   12.9676  -22.7270   30.3351 N   0  0  0  0  0  0  0  0  0  0  0  0
   13.5308  -23.5482   31.3944 C   0  0  1  0  0  0  0  0  0  0  0  0
   14.8374  -24.0927   30.8352 C   0  0  0  0  0  0  0  0  0  0  0  0
   14.7705  -24.4939   29.4042 C   0  0  0  0  0  0  0  0  0  0  0  0
   16.0475  -25.1805   29.0030 C   0  0  0  0  0  0  0  0  0  0  0  0
   16.1270  -25.4927   27.5295 C   0  0  0  0  0  0  0  0  0  0  0  0
   17.3849  -26.1807   27.2855 N   0  0  0  0  0  0  0  0  0  0  0  0
   13.7721  -22.7635   32.6193 C   0  0  0  0  0  0  0  0  0  0  0  0
   13.4899  -21.5509   32.7362 O   0  0  0  0  0  0  0  0  0  0  0  0
   14.3476  -23.4158   33.7080 O   0  0  0  0  0  0  0  0  0  0  0  0
  2  1  1  0
  3  2  2  0
  4  3  1  0
  5  4  2  0
  5 11  1  0
  6  5  1  0
  7  6  1  0
  7  9  1  0
  7  8  1  1
  9 10  2  0
 11 12  2  0
 12  2  1  0
 13 14  1  0
 14 16  1  0
 14 15  2  0
 17 16  1  1
 18 17  1  0
 18  9  1  0
 19 17  1  0
 19 20  2  0
 21 19  1  0
 22 21  1  0
 22 28  1  0
 22 23  1  6
 24 23  1  0
 25 24  1  0
 26 25  1  0
 26 27  1  0
 28 29  2  0
 28 30  1  0
M  END
$$$$
