YNK.pdb
     RDKit          3D

 30 30  0  0  1  0  0  0  0  0999 V2000
    7.7506  -13.1508   15.6729 O   0  0  0  0  0  0  0  0  0  0  0  0
    7.9692  -13.6515   16.9561 C   0  0  0  0  0  0  0  0  0  0  0  0
    8.7686  -14.7487   17.1894 C   0  0  0  0  0  0  0  0  0  0  0  0
    8.9815  -15.2417   18.4722 C   0  0  0  0  0  0  0  0  0  0  0  0
    8.3918  -14.6411   19.5657 C   0  0  0  0  0  0  0  0  0  0  0  0
    8.6239  -15.1729   20.8940 C   0  0  0  0  0  0  0  0  0  0  0  0
    8.5109  -16.6497   21.0717 C   0  0  2  0  0  0  0  0  0  0  0  0
    7.1831  -17.1038   20.7060 N   0  0  0  0  0  0  0  0  0  0  0  0
    8.9532  -17.1643   22.3736 C   0  0  0  0  0  0  0  0  0  0  0  0
    8.0563  -17.3013   23.2620 O   0  0  0  0  0  0  0  0  0  0  0  0
    7.5943  -13.5435   19.3128 C   0  0  0  0  0  0  0  0  0  0  0  0
    7.3780  -13.0489   18.0486 C   0  0  0  0  0  0  0  0  0  0  0  0
   13.6726  -19.2400   25.8524 N   0  0  0  0  0  0  0  0  0  0  0  0
   12.3297  -19.0994   25.4504 C   0  0  0  0  0  0  0  0  0  0  0  0
   11.4114  -19.3936   26.2371 O   0  0  0  0  0  0  0  0  0  0  0  0
   12.0159  -18.6041   24.1004 C   0  0  0  0  0  0  0  0  0  0  0  0
   10.6789  -17.9101   24.0565 C   0  0  2  0  0  0  0  0  0  0  0  0
   10.2704  -17.5198   22.7345 N   0  0  0  0  0  0  0  0  0  0  0  0
   10.7358  -16.7636   24.9957 C   0  0  0  0  0  0  0  0  0  0  0  0
   11.7586  -16.0407   24.9829 O   0  0  0  0  0  0  0  0  0  0  0  0
    9.6973  -16.4485   25.8987 N   0  0  0  0  0  0  0  0  0  0  0  0
    9.7156  -15.2923   26.7797 C   0  0  1  0  0  0  0  0  0  0  0  0
    8.4079  -14.5597   26.5159 C   0  0  0  0  0  0  0  0  0  0  0  0
    8.1724  -13.3891   27.4033 C   0  0  0  0  0  0  0  0  0  0  0  0
    6.8446  -12.7595   27.0815 C   0  0  0  0  0  0  0  0  0  0  0  0
    6.5840  -11.4815   27.8391 C   0  0  0  0  0  0  0  0  0  0  0  0
    5.2476  -11.0224   27.4950 N   0  0  0  0  0  0  0  0  0  0  0  0
    9.8162  -15.6906   28.1959 C   0  0  0  0  0  0  0  0  0  0  0  0
   10.4669  -15.0543   29.0535 O   0  0  0  0  0  0  0  0  0  0  0  0
    9.1445  -16.8436   28.5976 O   0  0  0  0  0  0  0  0  0  0  0  0
  2  1  1  0
  3  2  2  0
  4  3  1  0
  5  4  2  0
  5 11  1  0
  6  5  1  0
  7  6  1  0
  7  9  1  0
  7  8  1  1
  9 10  2  0
 11 12  2  0
 12  2  1  0
 13 14  1  0
 14 16  1  0
 14 15  2  0
 17 16  1  6
 18 17  1  0
 18  9  1  0
 19 17  1  0
 19 20  2  0
 21 19  1  0
 22 21  1  0
 22 28  1  0
 22 23  1  1
 24 23  1  0
 25 24  1  0
 26 25  1  0
 26 27  1  0
 28 29  2  0
 28 30  1  0
M  END
$$$$
