PDV.pdb
     RDKit          3D

 23 23  0  0  1  0  0  0  0  0999 V2000
   14.9474  -22.2018    2.9058 N   0  0  0  0  0  0  0  0  0  0  0  0
   13.8171  -22.0128    2.0308 C   0  0  0  0  0  0  0  0  0  0  0  0
   14.3741  -21.6905    0.6655 C   0  0  0  0  0  0  0  0  0  0  0  0
   15.7273  -21.1401    0.9570 C   0  0  0  0  0  0  0  0  0  0  0  0
   16.0654  -21.5206    2.3378 C   0  0  1  0  0  0  0  0  0  0  0  0
   16.5538  -20.4063    3.1878 C   0  0  0  0  0  0  0  0  0  0  0  0
   17.6789  -19.9275    2.9055 O   0  0  0  0  0  0  0  0  0  0  0  0
   15.8402  -19.8621    4.2766 N   0  0  0  0  0  0  0  0  0  0  0  0
   16.2661  -18.7431    5.0772 C   0  0  1  0  0  0  0  0  0  0  0  0
   15.0666  -18.0918    5.7059 C   0  0  0  0  0  0  0  0  0  0  0  0
   15.4992  -16.8815    6.4401 C   0  0  0  0  0  0  0  0  0  0  0  0
   16.6795  -16.4569    6.4051 O   0  0  0  0  0  0  0  0  0  0  0  0
   17.2054  -19.1604    6.1551 C   0  0  0  0  0  0  0  0  0  0  0  0
   16.8646  -20.1325    6.8712 O   0  0  0  0  0  0  0  0  0  0  0  0
   14.5773  -16.1657    7.2096 O   0  0  0  0  0  0  0  0  0  0  0  0
   21.3350  -18.5234    6.0733 C   0  0  0  0  0  0  0  0  0  0  0  0
   20.6067  -19.6122    6.8279 C   0  0  1  0  0  0  0  0  0  0  0  0
   21.5233  -20.1708    7.8669 C   0  0  0  0  0  0  0  0  0  0  0  0
   19.3066  -19.0911    7.4439 C   0  0  2  0  0  0  0  0  0  0  0  0
   18.4447  -18.5360    6.4193 N   0  0  0  0  0  0  0  0  0  0  0  0
   19.6059  -18.0851    8.4963 C   0  0  0  0  0  0  0  0  0  0  0  0
   19.9988  -18.4409    9.7740 O   0  0  0  0  0  0  0  0  0  0  0  0
   19.5028  -16.8396    8.2328 O   0  0  0  0  0  0  0  0  0  0  0  0
  1  5  1  0
  1  2  1  0
  2  3  1  0
  3  4  1  0
  5  6  1  1
  5  4  1  0
  6  7  2  0
  6  8  1  0
  8  9  1  0
  9 13  1  0
 10 11  1  0
  9 10  1  1
 11 15  1  0
 12 11  2  0
 13 14  2  0
 13 20  1  0
 17 18  1  1
 17 16  1  0
 19 21  1  0
 19 17  1  0
 19 20  1  6
 21 22  1  0
 23 21  2  0
M  END
$$$$
