PDV.pdb
     RDKit          3D

 23 23  0  0  1  0  0  0  0  0999 V2000
   19.7632  -13.1240  -16.0995 N   0  0  0  0  0  0  0  0  0  0  0  0
   18.7331  -14.1297  -16.0202 C   0  0  0  0  0  0  0  0  0  0  0  0
   18.2451  -14.3633  -17.4293 C   0  0  0  0  0  0  0  0  0  0  0  0
   18.5856  -13.0966  -18.1355 C   0  0  0  0  0  0  0  0  0  0  0  0
   19.5652  -12.3816  -17.3020 C   0  0  1  0  0  0  0  0  0  0  0  0
   19.2444  -10.9543  -17.0518 C   0  0  0  0  0  0  0  0  0  0  0  0
   19.1907  -10.2001  -18.0533 O   0  0  0  0  0  0  0  0  0  0  0  0
   19.0001  -10.4038  -15.7758 N   0  0  0  0  0  0  0  0  0  0  0  0
   18.6723   -9.0266  -15.5106 C   0  0  1  0  0  0  0  0  0  0  0  0
   17.6166   -8.9598  -14.4431 C   0  0  0  0  0  0  0  0  0  0  0  0
   16.3049   -8.6869  -15.0726 C   0  0  0  0  0  0  0  0  0  0  0  0
   16.1740   -8.5039  -16.3071 O   0  0  0  0  0  0  0  0  0  0  0  0
   19.8616   -8.2526  -15.0580 C   0  0  0  0  0  0  0  0  0  0  0  0
   20.5391   -8.7350  -14.1187 O   0  0  0  0  0  0  0  0  0  0  0  0
   15.1522   -8.6252  -14.2841 O   0  0  0  0  0  0  0  0  0  0  0  0
   21.2958   -4.6828  -16.9542 C   0  0  0  0  0  0  0  0  0  0  0  0
   22.2088   -5.6707  -16.2644 C   0  0  1  0  0  0  0  0  0  0  0  0
   23.4171   -4.9435  -15.7716 C   0  0  0  0  0  0  0  0  0  0  0  0
   21.4870   -6.3996  -15.1291 C   0  0  2  0  0  0  0  0  0  0  0  0
   20.2709   -7.0206  -15.6150 N   0  0  0  0  0  0  0  0  0  0  0  0
   21.2006   -5.4571  -14.0160 C   0  0  0  0  0  0  0  0  0  0  0  0
   22.1629   -5.0773  -13.0977 O   0  0  0  0  0  0  0  0  0  0  0  0
   20.0284   -4.9673  -13.8837 O   0  0  0  0  0  0  0  0  0  0  0  0
  1  5  1  0
  1  2  1  0
  2  3  1  0
  3  4  1  0
  5  6  1  1
  5  4  1  0
  6  7  2  0
  6  8  1  0
  8  9  1  0
  9 13  1  0
 10 11  1  0
  9 10  1  1
 11 15  1  0
 12 11  2  0
 13 14  2  0
 13 20  1  0
 17 18  1  1
 17 16  1  0
 19 21  1  0
 19 17  1  0
 19 20  1  6
 21 22  1  0
 23 21  2  0
M  END
$$$$
