PDV.pdb
     RDKit          3D

 23 23  0  0  1  0  0  0  0  0999 V2000
   27.3327  -21.2373  -14.7514 N   0  0  0  0  0  0  0  0  0  0  0  0
   26.9943  -20.5726  -15.9853 C   0  0  0  0  0  0  0  0  0  0  0  0
   27.9390  -19.4032  -16.1217 C   0  0  0  0  0  0  0  0  0  0  0  0
   28.3525  -19.1179  -14.7192 C   0  0  0  0  0  0  0  0  0  0  0  0
   28.0036  -20.2980  -13.9123 C   0  0  1  0  0  0  0  0  0  0  0  0
   27.2538  -19.9998  -12.6667 C   0  0  0  0  0  0  0  0  0  0  0  0
   27.7129  -19.0930  -11.9306 O   0  0  0  0  0  0  0  0  0  0  0  0
   26.0748  -20.6642  -12.2672 N   0  0  0  0  0  0  0  0  0  0  0  0
   25.2800  -20.3309  -11.1133 C   0  0  1  0  0  0  0  0  0  0  0  0
   23.8901  -20.8747  -11.2887 C   0  0  0  0  0  0  0  0  0  0  0  0
   23.1656  -20.0477  -12.2798 C   0  0  0  0  0  0  0  0  0  0  0  0
   23.6315  -18.9740  -12.7321 O   0  0  0  0  0  0  0  0  0  0  0  0
   25.8602  -20.8921   -9.8616 C   0  0  0  0  0  0  0  0  0  0  0  0
   26.2373  -22.0885   -9.8878 O   0  0  0  0  0  0  0  0  0  0  0  0
   21.9125  -20.4560  -12.7463 O   0  0  0  0  0  0  0  0  0  0  0  0
   28.8156  -19.8364   -7.7783 C   0  0  0  0  0  0  0  0  0  0  0  0
   27.6457  -20.0235   -6.8393 C   0  0  1  0  0  0  0  0  0  0  0  0
   27.1546  -18.6791   -6.4115 C   0  0  0  0  0  0  0  0  0  0  0  0
   26.5340  -20.8494   -7.4899 C   0  0  2  0  0  0  0  0  0  0  0  0
   26.0112  -20.1686   -8.6578 N   0  0  0  0  0  0  0  0  0  0  0  0
   25.4574  -21.1261   -6.5033 C   0  0  0  0  0  0  0  0  0  0  0  0
   24.1405  -20.7615   -6.7186 O   0  0  0  0  0  0  0  0  0  0  0  0
   25.7364  -21.7222   -5.4086 O   0  0  0  0  0  0  0  0  0  0  0  0
  1  5  1  0
  1  2  1  0
  2  3  1  0
  3  4  1  0
  5  6  1  1
  5  4  1  0
  6  7  2  0
  6  8  1  0
  8  9  1  0
  9 13  1  0
 10 11  1  0
  9 10  1  6
 11 15  1  0
 12 11  2  0
 13 14  2  0
 13 20  1  0
 17 18  1  6
 17 16  1  0
 19 21  1  0
 19 17  1  0
 19 20  1  6
 21 22  1  0
 23 21  2  0
M  END
$$$$
