PDV.pdb
     RDKit          3D

 23 23  0  0  1  0  0  0  0  0999 V2000
   23.5139  -13.8891  -16.8542 N   0  0  0  0  0  0  0  0  0  0  0  0
   24.9412  -14.0537  -16.9763 C   0  0  0  0  0  0  0  0  0  0  0  0
   25.5409  -13.6351  -15.6559 C   0  0  0  0  0  0  0  0  0  0  0  0
   24.5184  -12.7185  -15.0783 C   0  0  0  0  0  0  0  0  0  0  0  0
   23.2649  -12.9420  -15.8162 C   0  0  1  0  0  0  0  0  0  0  0  0
   22.6049  -11.7074  -16.3089 C   0  0  0  0  0  0  0  0  0  0  0  0
   22.6855  -11.4723  -17.5390 O   0  0  0  0  0  0  0  0  0  0  0  0
   21.9037  -10.7970  -15.4901 N   0  0  0  0  0  0  0  0  0  0  0  0
   21.1802   -9.6422  -15.9565 C   0  0  1  0  0  0  0  0  0  0  0  0
   19.7155   -9.8203  -15.6716 C   0  0  0  0  0  0  0  0  0  0  0  0
   18.9673   -8.6750  -16.2369 C   0  0  0  0  0  0  0  0  0  0  0  0
   19.0124   -8.3744  -17.4544 O   0  0  0  0  0  0  0  0  0  0  0  0
   21.6489   -8.3924  -15.2959 C   0  0  0  0  0  0  0  0  0  0  0  0
   22.0304   -8.4794  -14.1038 O   0  0  0  0  0  0  0  0  0  0  0  0
   18.1724   -7.8817  -15.4042 O   0  0  0  0  0  0  0  0  0  0  0  0
   22.6955   -4.8972  -17.4918 C   0  0  0  0  0  0  0  0  0  0  0  0
   23.3965   -5.4000  -16.2503 C   0  0  1  0  0  0  0  0  0  0  0  0
   24.1283   -4.2612  -15.6186 C   0  0  0  0  0  0  0  0  0  0  0  0
   22.4104   -6.0470  -15.2756 C   0  0  2  0  0  0  0  0  0  0  0  0
   21.6904   -7.1265  -15.9215 N   0  0  0  0  0  0  0  0  0  0  0  0
   21.4753   -5.0240  -14.7388 C   0  0  0  0  0  0  0  0  0  0  0  0
   21.8682   -4.0673  -13.8202 O   0  0  0  0  0  0  0  0  0  0  0  0
   20.2584   -5.0093  -15.1266 O   0  0  0  0  0  0  0  0  0  0  0  0
  1  5  1  0
  1  2  1  0
  2  3  1  0
  3  4  1  0
  5  6  1  6
  5  4  1  0
  6  7  2  0
  6  8  1  0
  8  9  1  0
  9 13  1  0
 10 11  1  0
  9 10  1  1
 11 15  1  0
 12 11  2  0
 13 14  2  0
 13 20  1  0
 17 18  1  1
 17 16  1  0
 19 21  1  0
 19 17  1  0
 19 20  1  6
 21 22  1  0
 23 21  2  0
M  END
$$$$
