PDV.pdb
     RDKit          3D

 23 23  0  0  1  0  0  0  0  0999 V2000
   17.2993  -14.3764  -16.3672 N   0  0  0  0  0  0  0  0  0  0  0  0
   16.2174  -14.9148  -17.1537 C   0  0  0  0  0  0  0  0  0  0  0  0
   16.8473  -15.6901  -18.2852 C   0  0  0  0  0  0  0  0  0  0  0  0
   18.1973  -15.0761  -18.4256 C   0  0  0  0  0  0  0  0  0  0  0  0
   18.4590  -14.3109  -17.1961 C   0  0  1  0  0  0  0  0  0  0  0  0
   18.9314  -12.9214  -17.4174 C   0  0  0  0  0  0  0  0  0  0  0  0
   19.9867  -12.7792  -18.0814 O   0  0  0  0  0  0  0  0  0  0  0  0
   18.2754  -11.7696  -16.9336 N   0  0  0  0  0  0  0  0  0  0  0  0
   18.7231  -10.4138  -17.1222 C   0  0  1  0  0  0  0  0  0  0  0  0
   17.5531   -9.5473  -17.4945 C   0  0  0  0  0  0  0  0  0  0  0  0
   18.0444   -8.2040  -17.8756 C   0  0  0  0  0  0  0  0  0  0  0  0
   19.1792   -8.0180  -18.3778 O   0  0  0  0  0  0  0  0  0  0  0  0
   19.3545   -9.8638  -15.8905 C   0  0  0  0  0  0  0  0  0  0  0  0
   18.6968   -9.9368  -14.8246 O   0  0  0  0  0  0  0  0  0  0  0  0
   17.2328   -7.0828  -17.6791 O   0  0  0  0  0  0  0  0  0  0  0  0
   22.2148  -11.0525  -14.0158 C   0  0  0  0  0  0  0  0  0  0  0  0
   22.4648   -9.5797  -14.2478 C   0  0  1  0  0  0  0  0  0  0  0  0
   23.4709   -9.4307  -15.3419 C   0  0  0  0  0  0  0  0  0  0  0  0
   21.1665   -8.8369  -14.5703 C   0  0  2  0  0  0  0  0  0  0  0  0
   20.6358   -9.2705  -15.8474 N   0  0  0  0  0  0  0  0  0  0  0  0
   21.3994   -7.3690  -14.5564 C   0  0  0  0  0  0  0  0  0  0  0  0
   21.7073   -6.6764  -13.3992 O   0  0  0  0  0  0  0  0  0  0  0  0
   21.3172   -6.7021  -15.6426 O   0  0  0  0  0  0  0  0  0  0  0  0
  1  5  1  0
  1  2  1  0
  2  3  1  0
  3  4  1  0
  5  6  1  6
  5  4  1  0
  6  7  2  0
  6  8  1  0
  8  9  1  0
  9 13  1  0
 10 11  1  0
  9 10  1  1
 11 15  1  0
 12 11  2  0
 13 14  2  0
 13 20  1  0
 17 18  1  6
 17 16  1  0
 19 21  1  0
 19 17  1  0
 19 20  1  6
 21 22  1  0
 23 21  2  0
M  END
$$$$
