PDV.pdb
     RDKit          3D

 23 23  0  0  1  0  0  0  0  0999 V2000
   26.4688  -20.3138  -16.8416 N   0  0  0  0  0  0  0  0  0  0  0  0
   27.5671  -20.6589  -15.9735 C   0  0  0  0  0  0  0  0  0  0  0  0
   27.3418  -22.0854  -15.5345 C   0  0  0  0  0  0  0  0  0  0  0  0
   25.8717  -22.2733  -15.6855 C   0  0  0  0  0  0  0  0  0  0  0  0
   25.3776  -21.1831  -16.5417 C   0  0  1  0  0  0  0  0  0  0  0  0
   24.1954  -20.4613  -16.0089 C   0  0  0  0  0  0  0  0  0  0  0  0
   24.3975  -19.3236  -15.5194 O   0  0  0  0  0  0  0  0  0  0  0  0
   22.8791  -20.9696  -16.0199 N   0  0  0  0  0  0  0  0  0  0  0  0
   21.7135  -20.2766  -15.5346 C   0  0  1  0  0  0  0  0  0  0  0  0
   20.6376  -20.3113  -16.5832 C   0  0  0  0  0  0  0  0  0  0  0  0
   20.9802  -19.3588  -17.6633 C   0  0  0  0  0  0  0  0  0  0  0  0
   21.3468  -18.1810  -17.4330 O   0  0  0  0  0  0  0  0  0  0  0  0
   21.1853  -20.8914  -14.2850 C   0  0  0  0  0  0  0  0  0  0  0  0
   21.1473  -22.1442  -14.2313 O   0  0  0  0  0  0  0  0  0  0  0  0
   20.9005  -19.7615  -18.9997 O   0  0  0  0  0  0  0  0  0  0  0  0
   20.3246  -18.6804  -10.7189 C   0  0  0  0  0  0  0  0  0  0  0  0
   20.8738  -20.0889  -10.7227 C   0  0  1  0  0  0  0  0  0  0  0  0
   20.4747  -20.7624   -9.4504 C   0  0  0  0  0  0  0  0  0  0  0  0
   20.3972  -20.8708  -11.9485 C   0  0  2  0  0  0  0  0  0  0  0  0
   20.7286  -20.1589  -13.1667 N   0  0  0  0  0  0  0  0  0  0  0  0
   18.9358  -21.1260  -11.8567 C   0  0  0  0  0  0  0  0  0  0  0  0
   18.4027  -22.1068  -11.0399 O   0  0  0  0  0  0  0  0  0  0  0  0
   18.1234  -20.4249  -12.5495 O   0  0  0  0  0  0  0  0  0  0  0  0
  1  5  1  0
  1  2  1  0
  2  3  1  0
  3  4  1  0
  5  6  1  1
  5  4  1  0
  6  7  2  0
  6  8  1  0
  8  9  1  0
  9 13  1  0
 10 11  1  0
  9 10  1  6
 11 15  1  0
 12 11  2  0
 13 14  2  0
 13 20  1  0
 17 18  1  1
 17 16  1  0
 19 21  1  0
 19 17  1  0
 19 20  1  6
 21 22  1  0
 23 21  2  0
M  END
$$$$
