PDV.pdb
     RDKit          3D

 23 23  0  0  1  0  0  0  0  0999 V2000
   16.3379  -22.4554    1.0536 N   0  0  0  0  0  0  0  0  0  0  0  0
   15.3199  -23.4662    0.9095 C   0  0  0  0  0  0  0  0  0  0  0  0
   14.4477  -23.0420   -0.2471 C   0  0  0  0  0  0  0  0  0  0  0  0
   14.6434  -21.5668   -0.3146 C   0  0  0  0  0  0  0  0  0  0  0  0
   15.8519  -21.2505    0.4633 C   0  0  1  0  0  0  0  0  0  0  0  0
   15.6877  -20.1520    1.4477 C   0  0  0  0  0  0  0  0  0  0  0  0
   15.3956  -19.0198    0.9919 O   0  0  0  0  0  0  0  0  0  0  0  0
   15.8380  -20.3022    2.8426 N   0  0  0  0  0  0  0  0  0  0  0  0
   15.5969  -19.2748    3.8227 C   0  0  1  0  0  0  0  0  0  0  0  0
   15.3716  -19.9080    5.1668 C   0  0  0  0  0  0  0  0  0  0  0  0
   15.0156  -18.8567    6.1462 C   0  0  0  0  0  0  0  0  0  0  0  0
   14.4513  -17.7868    5.8125 O   0  0  0  0  0  0  0  0  0  0  0  0
   16.7423  -18.3282    3.9245 C   0  0  0  0  0  0  0  0  0  0  0  0
   17.8805  -18.8202    4.1157 O   0  0  0  0  0  0  0  0  0  0  0  0
   15.3082  -19.0379    7.5013 O   0  0  0  0  0  0  0  0  0  0  0  0
   18.4532  -16.3178    1.4914 C   0  0  0  0  0  0  0  0  0  0  0  0
   18.0764  -15.3666    2.6044 C   0  0  1  0  0  0  0  0  0  0  0  0
   16.8779  -14.5825    2.1797 C   0  0  0  0  0  0  0  0  0  0  0  0
   17.8263  -16.1133    3.9163 C   0  0  2  0  0  0  0  0  0  0  0  0
   16.6287  -16.9240    3.8201 N   0  0  0  0  0  0  0  0  0  0  0  0
   17.7329  -15.1497    5.0441 C   0  0  0  0  0  0  0  0  0  0  0  0
   16.6333  -15.0898    5.8812 O   0  0  0  0  0  0  0  0  0  0  0  0
   18.6929  -14.3371    5.2670 O   0  0  0  0  0  0  0  0  0  0  0  0
  1  5  1  0
  1  2  1  0
  2  3  1  0
  3  4  1  0
  5  6  1  1
  5  4  1  0
  6  7  2  0
  6  8  1  0
  8  9  1  0
  9 13  1  0
 10 11  1  0
  9 10  1  1
 11 15  1  0
 12 11  2  0
 13 14  2  0
 13 20  1  0
 17 18  1  6
 17 16  1  0
 19 21  1  0
 19 17  1  0
 19 20  1  6
 21 22  1  0
 23 21  2  0
M  END
$$$$
