PDV.pdb
     RDKit          3D

 23 23  0  0  1  0  0  0  0  0999 V2000
   26.3745  -10.6894  -15.7257 N   0  0  0  0  0  0  0  0  0  0  0  0
   26.4273  -12.1189  -15.5449 C   0  0  0  0  0  0  0  0  0  0  0  0
   26.5267  -12.7272  -16.9227 C   0  0  0  0  0  0  0  0  0  0  0  0
   25.9405  -11.6856  -17.8119 C   0  0  0  0  0  0  0  0  0  0  0  0
   25.9089  -10.4276  -17.0490 C   0  0  1  0  0  0  0  0  0  0  0  0
   24.6047   -9.7195  -17.0715 C   0  0  0  0  0  0  0  0  0  0  0  0
   24.1554   -9.3922  -18.1965 O   0  0  0  0  0  0  0  0  0  0  0  0
   23.8522   -9.3977  -15.9221 N   0  0  0  0  0  0  0  0  0  0  0  0
   22.5817   -8.7194  -15.9201 C   0  0  1  0  0  0  0  0  0  0  0  0
   21.5936   -9.5094  -15.1089 C   0  0  0  0  0  0  0  0  0  0  0  0
   21.1238  -10.6652  -15.9055 C   0  0  0  0  0  0  0  0  0  0  0  0
   20.6766  -10.5439  -17.0717 O   0  0  0  0  0  0  0  0  0  0  0  0
   22.6874   -7.3494  -15.3456 C   0  0  0  0  0  0  0  0  0  0  0  0
   23.3453   -7.2189  -14.2853 O   0  0  0  0  0  0  0  0  0  0  0  0
   21.1693  -11.9521  -15.3613 O   0  0  0  0  0  0  0  0  0  0  0  0
   23.7060   -4.1914  -17.3654 C   0  0  0  0  0  0  0  0  0  0  0  0
   22.5581   -3.8507  -16.4423 C   0  0  1  0  0  0  0  0  0  0  0  0
   21.3136   -3.7107  -17.2566 C   0  0  0  0  0  0  0  0  0  0  0  0
   22.3967   -4.9006  -15.3410 C   0  0  2  0  0  0  0  0  0  0  0  0
   22.0988   -6.1980  -15.9144 N   0  0  0  0  0  0  0  0  0  0  0  0
   21.3393   -4.4810  -14.3845 C   0  0  0  0  0  0  0  0  0  0  0  0
   21.5325   -3.4707  -13.4596 O   0  0  0  0  0  0  0  0  0  0  0  0
   20.2017   -5.0616  -14.3997 O   0  0  0  0  0  0  0  0  0  0  0  0
  1  5  1  0
  1  2  1  0
  2  3  1  0
  3  4  1  0
  5  6  1  1
  5  4  1  0
  6  7  2  0
  6  8  1  0
  8  9  1  0
  9 13  1  0
 10 11  1  0
  9 10  1  1
 11 15  1  0
 12 11  2  0
 13 14  2  0
 13 20  1  0
 17 18  1  6
 17 16  1  0
 19 21  1  0
 19 17  1  0
 19 20  1  6
 21 22  1  0
 23 21  2  0
M  END
$$$$
