PDV.pdb
     RDKit          3D

 23 23  0  0  1  0  0  0  0  0999 V2000
   19.2053  -12.8523  -17.9859 N   0  0  0  0  0  0  0  0  0  0  0  0
   20.3484  -13.7130  -17.8086 C   0  0  0  0  0  0  0  0  0  0  0  0
   20.3837  -14.0926  -16.3482 C   0  0  0  0  0  0  0  0  0  0  0  0
   19.6405  -12.9888  -15.6783 C   0  0  0  0  0  0  0  0  0  0  0  0
   18.8854  -12.2752  -16.7205 C   0  0  1  0  0  0  0  0  0  0  0  0
   19.0444  -10.7997  -16.7034 C   0  0  0  0  0  0  0  0  0  0  0  0
   19.8762  -10.3087  -17.5045 O   0  0  0  0  0  0  0  0  0  0  0  0
   18.3278   -9.9304  -15.8539 N   0  0  0  0  0  0  0  0  0  0  0  0
   18.4565   -8.4961  -15.8280 C   0  0  1  0  0  0  0  0  0  0  0  0
   17.1555   -7.8844  -15.3905 C   0  0  0  0  0  0  0  0  0  0  0  0
   16.1298   -8.1277  -16.4297 C   0  0  0  0  0  0  0  0  0  0  0  0
   16.2751   -7.7595  -17.6204 O   0  0  0  0  0  0  0  0  0  0  0  0
   19.5314   -8.0543  -14.8965 C   0  0  0  0  0  0  0  0  0  0  0  0
   19.5051   -8.5120  -13.7286 O   0  0  0  0  0  0  0  0  0  0  0  0
   14.9446   -8.7909  -16.0982 O   0  0  0  0  0  0  0  0  0  0  0  0
   22.9877   -8.9048  -14.9511 C   0  0  0  0  0  0  0  0  0  0  0  0
   22.9693   -7.3993  -14.8151 C   0  0  1  0  0  0  0  0  0  0  0  0
   23.2926   -6.7942  -16.1421 C   0  0  0  0  0  0  0  0  0  0  0  0
   21.6237   -6.9032  -14.2817 C   0  0  2  0  0  0  0  0  0  0  0  0
   20.5693   -7.1605  -15.2422 N   0  0  0  0  0  0  0  0  0  0  0  0
   21.7063   -5.4567  -13.9501 C   0  0  0  0  0  0  0  0  0  0  0  0
   20.9858   -4.4949  -14.6353 O   0  0  0  0  0  0  0  0  0  0  0  0
   22.4649   -5.0646  -13.0002 O   0  0  0  0  0  0  0  0  0  0  0  0
  1  5  1  0
  1  2  1  0
  2  3  1  0
  3  4  1  0
  5  6  1  6
  5  4  1  0
  6  7  2  0
  6  8  1  0
  8  9  1  0
  9 13  1  0
 10 11  1  0
  9 10  1  1
 11 15  1  0
 12 11  2  0
 13 14  2  0
 13 20  1  0
 17 18  1  6
 17 16  1  0
 19 21  1  0
 19 17  1  0
 19 20  1  6
 21 22  1  0
 23 21  2  0
M  END
$$$$
