PDV.pdb
     RDKit          3D

 23 23  0  0  1  0  0  0  0  0999 V2000
   18.1251  -13.5976  -18.8015 N   0  0  0  0  0  0  0  0  0  0  0  0
   17.9195  -13.9818  -20.1759 C   0  0  0  0  0  0  0  0  0  0  0  0
   19.1388  -14.7671  -20.5942 C   0  0  0  0  0  0  0  0  0  0  0  0
   20.2004  -14.2938  -19.6625 C   0  0  0  0  0  0  0  0  0  0  0  0
   19.5281  -13.6176  -18.5416 C   0  0  1  0  0  0  0  0  0  0  0  0
   20.0715  -12.2774  -18.2080 C   0  0  0  0  0  0  0  0  0  0  0  0
   21.2883  -12.2167  -17.9071 O   0  0  0  0  0  0  0  0  0  0  0  0
   19.3140  -11.0870  -18.2089 N   0  0  0  0  0  0  0  0  0  0  0  0
   19.8275   -9.7716  -17.9258 C   0  0  1  0  0  0  0  0  0  0  0  0
   18.9858   -8.7436  -18.6280 C   0  0  0  0  0  0  0  0  0  0  0  0
   19.3193   -8.7446  -20.0702 C   0  0  0  0  0  0  0  0  0  0  0  0
   20.4823   -8.9509  -20.4937 O   0  0  0  0  0  0  0  0  0  0  0  0
   19.8229   -9.4789  -16.4654 C   0  0  0  0  0  0  0  0  0  0  0  0
   18.8069   -9.8200  -15.8131 O   0  0  0  0  0  0  0  0  0  0  0  0
   18.3185   -8.5094  -21.0177 O   0  0  0  0  0  0  0  0  0  0  0  0
   21.9869  -10.6610  -13.6971 C   0  0  0  0  0  0  0  0  0  0  0  0
   21.9243   -9.1550  -13.5804 C   0  0  1  0  0  0  0  0  0  0  0  0
   23.2198   -8.5831  -14.0560 C   0  0  0  0  0  0  0  0  0  0  0  0
   20.7364   -8.5836  -14.3571 C   0  0  2  0  0  0  0  0  0  0  0  0
   20.8811   -8.8471  -15.7750 N   0  0  0  0  0  0  0  0  0  0  0  0
   20.6046   -7.1270  -14.0927 C   0  0  0  0  0  0  0  0  0  0  0  0
   20.2058   -6.6275  -12.8658 O   0  0  0  0  0  0  0  0  0  0  0  0
   20.8642   -6.2868  -15.0190 O   0  0  0  0  0  0  0  0  0  0  0  0
  1  5  1  0
  1  2  1  0
  2  3  1  0
  3  4  1  0
  5  6  1  6
  5  4  1  0
  6  7  2  0
  6  8  1  0
  8  9  1  0
  9 13  1  0
 10 11  1  0
  9 10  1  6
 11 15  1  0
 12 11  2  0
 13 14  2  0
 13 20  1  0
 17 18  1  6
 17 16  1  0
 19 21  1  0
 19 17  1  0
 19 20  1  6
 21 22  1  0
 23 21  2  0
M  END
$$$$
