PDV.pdb
     RDKit          3D

 23 23  0  0  1  0  0  0  0  0999 V2000
   17.4341  -14.0483  -17.2069 N   0  0  0  0  0  0  0  0  0  0  0  0
   16.4410  -14.4319  -18.1792 C   0  0  0  0  0  0  0  0  0  0  0  0
   17.1706  -14.6490  -19.4826 C   0  0  0  0  0  0  0  0  0  0  0  0
   18.4037  -13.8256  -19.3384 C   0  0  0  0  0  0  0  0  0  0  0  0
   18.5572  -13.5158  -17.9080 C   0  0  1  0  0  0  0  0  0  0  0  0
   18.7996  -12.0833  -17.6047 C   0  0  0  0  0  0  0  0  0  0  0  0
   19.8418  -11.5705  -18.0798 O   0  0  0  0  0  0  0  0  0  0  0  0
   17.9421  -11.2768  -16.8268 N   0  0  0  0  0  0  0  0  0  0  0  0
   18.1638   -9.8900  -16.5076 C   0  0  1  0  0  0  0  0  0  0  0  0
   16.8790   -9.2748  -16.0288 C   0  0  0  0  0  0  0  0  0  0  0  0
   17.0850   -7.8250  -15.8122 C   0  0  0  0  0  0  0  0  0  0  0  0
   17.8848   -7.1468  -16.5013 O   0  0  0  0  0  0  0  0  0  0  0  0
   19.1983   -9.7249  -15.4490 C   0  0  0  0  0  0  0  0  0  0  0  0
   18.9375  -10.1869  -14.3120 O   0  0  0  0  0  0  0  0  0  0  0  0
   16.3736   -7.1618  -14.8079 O   0  0  0  0  0  0  0  0  0  0  0  0
   23.3594   -9.3969  -16.0724 C   0  0  0  0  0  0  0  0  0  0  0  0
   22.6129   -9.9164  -14.8648 C   0  0  1  0  0  0  0  0  0  0  0  0
   23.5572   -9.9817  -13.7091 C   0  0  0  0  0  0  0  0  0  0  0  0
   21.3922   -9.0500  -14.5476 C   0  0  2  0  0  0  0  0  0  0  0  0
   20.4436   -9.0867  -15.6429 N   0  0  0  0  0  0  0  0  0  0  0  0
   21.8162   -7.6566  -14.2514 C   0  0  0  0  0  0  0  0  0  0  0  0
   21.3835   -6.5741  -14.9958 O   0  0  0  0  0  0  0  0  0  0  0  0
   22.6098   -7.4273  -13.2772 O   0  0  0  0  0  0  0  0  0  0  0  0
  1  5  1  0
  1  2  1  0
  2  3  1  0
  3  4  1  0
  5  6  1  6
  5  4  1  0
  6  7  2  0
  6  8  1  0
  8  9  1  0
  9 13  1  0
 10 11  1  0
  9 10  1  1
 11 15  1  0
 12 11  2  0
 13 14  2  0
 13 20  1  0
 17 18  1  1
 17 16  1  0
 19 21  1  0
 19 17  1  0
 19 20  1  6
 21 22  1  0
 23 21  2  0
M  END
$$$$
