EGH.pdb
     RDKit          3D

 24 24  0  0  1  0  0  0  0  0999 V2000
   25.5271  -21.1963  -16.6424 N   0  0  0  0  0  0  0  0  0  0  0  0
   26.6075  -21.5963  -15.7286 C   0  0  1  0  0  0  0  0  0  0  0  0
   27.8464  -20.8179  -16.0689 C   0  0  0  0  0  0  0  0  0  0  0  0
   28.4270  -21.2144  -17.3848 C   0  0  0  0  0  0  0  0  0  0  0  0
   28.1768  -20.1500  -18.4217 C   0  0  0  0  0  0  0  0  0  0  0  0
   27.6145  -19.0930  -18.1130 O   0  0  0  0  0  0  0  0  0  0  0  0
   26.1068  -21.3860  -14.3647 C   0  0  0  0  0  0  0  0  0  0  0  0
   26.7863  -21.7270  -13.3359 O   0  0  0  0  0  0  0  0  0  0  0  0
   28.6061  -20.4236  -19.7123 O   0  0  0  0  0  0  0  0  0  0  0  0
   24.8379  -20.7913  -14.0999 N   0  0  0  0  0  0  0  0  0  0  0  0
   24.3769  -20.5856  -12.7450 C   0  0  0  0  0  0  0  0  0  0  0  0
   22.8850  -20.5442  -12.6833 C   0  0  0  0  0  0  0  0  0  0  0  0
   22.3533  -20.2608  -11.5834 O   0  0  0  0  0  0  0  0  0  0  0  0
   22.0691  -20.8074  -13.7964 N   0  0  0  0  0  0  0  0  0  0  0  0
   20.5863  -20.7262  -13.7647 C   0  0  1  0  0  0  0  0  0  0  0  0
   20.0684  -20.1725  -15.0333 C   0  0  0  0  0  0  0  0  0  0  0  0
   20.4230  -18.7428  -15.1849 C   0  0  0  0  0  0  0  0  0  0  0  0
   21.4305  -18.3050  -16.0689 C   0  0  0  0  0  0  0  0  0  0  0  0
   21.5152  -16.9725  -15.9811 N   0  0  0  0  0  0  0  0  0  0  0  0
   20.6042  -16.5675  -15.0815 C   0  0  0  0  0  0  0  0  0  0  0  0
   19.9576  -17.6317  -14.6122 N   0  0  0  0  0  0  0  0  0  0  0  0
   20.1474  -22.1432  -13.5393 C   0  0  0  0  0  0  0  0  0  0  0  0
   20.8272  -23.1069  -13.9962 O   0  0  0  0  0  0  0  0  0  0  0  0
   19.0067  -22.4054  -12.8360 O   0  0  0  0  0  0  0  0  0  0  0  0
  2  1  1  6
  2  3  1  0
  3  4  1  0
  5  4  1  0
  5  9  1  0
  6  5  2  0
  7  2  1  0
  7  8  2  0
 10  7  1  0
 11 10  1  0
 11 12  1  0
 12 14  1  0
 13 12  2  0
 14 15  1  0
 15 16  1  6
 15 22  1  0
 16 17  1  0
 17 18  2  0
 18 19  1  0
 20 19  1  0
 21 17  1  0
 21 20  2  0
 22 24  1  0
 23 22  2  0
M  END
$$$$
