EGH.pdb
     RDKit          3D

 24 24  0  0  1  0  0  0  0  0999 V2000
   19.3783  -10.1244  -17.2850 N   0  0  0  0  0  0  0  0  0  0  0  0
   19.9758   -9.3895  -18.4098 C   0  0  1  0  0  0  0  0  0  0  0  0
   19.5283  -10.0213  -19.6971 C   0  0  0  0  0  0  0  0  0  0  0  0
   20.0070  -11.4272  -19.8403 C   0  0  0  0  0  0  0  0  0  0  0  0
   19.2241  -12.3520  -18.9444 C   0  0  0  0  0  0  0  0  0  0  0  0
   19.1856  -12.1594  -17.7236 O   0  0  0  0  0  0  0  0  0  0  0  0
   19.5869   -7.9829  -18.2496 C   0  0  0  0  0  0  0  0  0  0  0  0
   19.9826   -7.0765  -19.0610 O   0  0  0  0  0  0  0  0  0  0  0  0
   18.5657  -13.4067  -19.5598 O   0  0  0  0  0  0  0  0  0  0  0  0
   18.7479   -7.5386  -17.1855 N   0  0  0  0  0  0  0  0  0  0  0  0
   18.4487   -6.1356  -17.0055 C   0  0  0  0  0  0  0  0  0  0  0  0
   19.0107   -5.6250  -15.7191 C   0  0  0  0  0  0  0  0  0  0  0  0
   18.3473   -4.7651  -15.0920 O   0  0  0  0  0  0  0  0  0  0  0  0
   20.2370   -6.0670  -15.1950 N   0  0  0  0  0  0  0  0  0  0  0  0
   20.7799   -5.6188  -13.8871 C   0  0  1  0  0  0  0  0  0  0  0  0
   21.1123   -6.7805  -13.0360 C   0  0  0  0  0  0  0  0  0  0  0  0
   19.8935   -7.5043  -12.6079 C   0  0  0  0  0  0  0  0  0  0  0  0
   18.5973   -7.0686  -12.9514 C   0  0  0  0  0  0  0  0  0  0  0  0
   17.7138   -7.9230  -12.4225 N   0  0  0  0  0  0  0  0  0  0  0  0
   18.4071   -8.8679  -11.7670 C   0  0  0  0  0  0  0  0  0  0  0  0
   19.7072   -8.6089  -11.8837 N   0  0  0  0  0  0  0  0  0  0  0  0
   21.9922   -4.8131  -14.2515 C   0  0  0  0  0  0  0  0  0  0  0  0
   22.7103   -4.2897  -13.3515 O   0  0  0  0  0  0  0  0  0  0  0  0
   22.3319   -4.6379  -15.5624 O   0  0  0  0  0  0  0  0  0  0  0  0
  2  1  1  1
  2  3  1  0
  3  4  1  0
  5  4  1  0
  5  9  1  0
  6  5  2  0
  7  2  1  0
  7  8  2  0
 10  7  1  0
 11 10  1  0
 11 12  1  0
 12 14  1  0
 13 12  2  0
 14 15  1  0
 15 16  1  1
 15 22  1  0
 16 17  1  0
 17 18  2  0
 18 19  1  0
 20 19  1  0
 21 17  1  0
 21 20  2  0
 22 24  1  0
 23 22  2  0
M  END
$$$$
