EGH.pdb
     RDKit          3D

 24 24  0  0  1  0  0  0  0  0999 V2000
   16.8030  -11.8046  -17.8682 N   0  0  0  0  0  0  0  0  0  0  0  0
   16.5891  -10.4424  -17.3571 C   0  0  1  0  0  0  0  0  0  0  0  0
   15.9660  -10.5264  -15.9928 C   0  0  0  0  0  0  0  0  0  0  0  0
   15.8269  -11.9326  -15.5136 C   0  0  0  0  0  0  0  0  0  0  0  0
   15.1859  -11.9714  -14.1504 C   0  0  0  0  0  0  0  0  0  0  0  0
   13.9994  -12.2954  -14.0237 O   0  0  0  0  0  0  0  0  0  0  0  0
   17.8923   -9.7675  -17.3953 C   0  0  0  0  0  0  0  0  0  0  0  0
   18.8519  -10.1932  -18.1263 O   0  0  0  0  0  0  0  0  0  0  0  0
   15.9905  -11.6293  -13.0732 O   0  0  0  0  0  0  0  0  0  0  0  0
   18.1711   -8.6004  -16.6246 N   0  0  0  0  0  0  0  0  0  0  0  0
   19.4722   -7.9711  -16.6651 C   0  0  0  0  0  0  0  0  0  0  0  0
   19.4832   -6.7038  -15.8745 C   0  0  0  0  0  0  0  0  0  0  0  0
   18.3946   -6.0995  -15.7239 O   0  0  0  0  0  0  0  0  0  0  0  0
   20.6515   -6.1730  -15.3026 N   0  0  0  0  0  0  0  0  0  0  0  0
   20.7284   -5.6753  -13.9052 C   0  0  1  0  0  0  0  0  0  0  0  0
   20.3836   -6.7496  -12.9506 C   0  0  0  0  0  0  0  0  0  0  0  0
   20.4820   -6.2810  -11.5494 C   0  0  0  0  0  0  0  0  0  0  0  0
   20.9190   -4.9823  -11.2171 C   0  0  0  0  0  0  0  0  0  0  0  0
   20.8994   -4.8615   -9.8846 N   0  0  0  0  0  0  0  0  0  0  0  0
   20.4695   -6.0287   -9.3787 C   0  0  0  0  0  0  0  0  0  0  0  0
   20.2230   -6.8692  -10.3805 N   0  0  0  0  0  0  0  0  0  0  0  0
   22.1493   -5.2161  -13.7585 C   0  0  0  0  0  0  0  0  0  0  0  0
   23.0610   -5.7050  -14.4860 O   0  0  0  0  0  0  0  0  0  0  0  0
   22.4712   -4.2627  -12.8355 O   0  0  0  0  0  0  0  0  0  0  0  0
  2  1  1  1
  2  3  1  0
  3  4  1  0
  5  4  1  0
  5  9  1  0
  6  5  2  0
  7  2  1  0
  7  8  2  0
 10  7  1  0
 11 10  1  0
 11 12  1  0
 12 14  1  0
 13 12  2  0
 14 15  1  0
 15 16  1  1
 15 22  1  0
 16 17  1  0
 17 18  2  0
 18 19  1  0
 20 19  1  0
 21 17  1  0
 21 20  2  0
 22 24  1  0
 23 22  2  0
M  END
$$$$
