EGH.pdb
     RDKit          3D

 24 24  0  0  1  0  0  0  0  0999 V2000
   17.4740  -10.5601  -18.3709 N   0  0  0  0  0  0  0  0  0  0  0  0
   17.9345  -11.0135  -17.0499 C   0  0  1  0  0  0  0  0  0  0  0  0
   18.2560  -12.4790  -17.1228 C   0  0  0  0  0  0  0  0  0  0  0  0
   17.0900  -13.3384  -16.7652 C   0  0  0  0  0  0  0  0  0  0  0  0
   17.4722  -14.7958  -16.7924 C   0  0  0  0  0  0  0  0  0  0  0  0
   17.5542  -15.4428  -15.7419 O   0  0  0  0  0  0  0  0  0  0  0  0
   19.0665  -10.1552  -16.6797 C   0  0  0  0  0  0  0  0  0  0  0  0
   19.6934  -10.3038  -15.5745 O   0  0  0  0  0  0  0  0  0  0  0  0
   17.7202  -15.3522  -18.0388 O   0  0  0  0  0  0  0  0  0  0  0  0
   19.5379   -9.1063  -17.5231 N   0  0  0  0  0  0  0  0  0  0  0  0
   20.7369   -8.3669  -17.1974 C   0  0  0  0  0  0  0  0  0  0  0  0
   20.4685   -7.3399  -16.1464 C   0  0  0  0  0  0  0  0  0  0  0  0
   19.4649   -6.6022  -16.2931 O   0  0  0  0  0  0  0  0  0  0  0  0
   21.2875   -7.1737  -15.0171 N   0  0  0  0  0  0  0  0  0  0  0  0
   21.0685   -6.1213  -13.9920 C   0  0  1  0  0  0  0  0  0  0  0  0
   21.1426   -6.6958  -12.6324 C   0  0  0  0  0  0  0  0  0  0  0  0
   20.0033   -7.6033  -12.3652 C   0  0  0  0  0  0  0  0  0  0  0  0
   18.9837   -7.8331  -13.3116 C   0  0  0  0  0  0  0  0  0  0  0  0
   18.1053   -8.6920  -12.7813 N   0  0  0  0  0  0  0  0  0  0  0  0
   18.5374   -9.0032  -11.5485 C   0  0  0  0  0  0  0  0  0  0  0  0
   19.6709   -8.3482  -11.3098 N   0  0  0  0  0  0  0  0  0  0  0  0
   22.1610   -5.1259  -14.2511 C   0  0  0  0  0  0  0  0  0  0  0  0
   23.0034   -5.3219  -15.1739 O   0  0  0  0  0  0  0  0  0  0  0  0
   22.2551   -3.9958  -13.4906 O   0  0  0  0  0  0  0  0  0  0  0  0
  2  1  1  6
  2  3  1  0
  3  4  1  0
  5  4  1  0
  5  9  1  0
  6  5  2  0
  7  2  1  0
  7  8  2  0
 10  7  1  0
 11 10  1  0
 11 12  1  0
 12 14  1  0
 13 12  2  0
 14 15  1  0
 15 16  1  1
 15 22  1  0
 16 17  1  0
 17 18  2  0
 18 19  1  0
 20 19  1  0
 21 17  1  0
 21 20  2  0
 22 24  1  0
 23 22  2  0
M  END
$$$$
