EGH.pdb
     RDKit          3D

 24 24  0  0  1  0  0  0  0  0999 V2000
   21.9037  -18.5002  -18.9286 N   0  0  0  0  0  0  0  0  0  0  0  0
   23.2800  -18.9978  -19.0716 C   0  0  1  0  0  0  0  0  0  0  0  0
   24.2226  -18.0099  -18.4455 C   0  0  0  0  0  0  0  0  0  0  0  0
   23.8965  -16.5999  -18.8081 C   0  0  0  0  0  0  0  0  0  0  0  0
   24.8456  -15.6421  -18.1354 C   0  0  0  0  0  0  0  0  0  0  0  0
   24.6325  -15.2543  -16.9809 O   0  0  0  0  0  0  0  0  0  0  0  0
   23.3092  -20.3377  -18.4723 C   0  0  0  0  0  0  0  0  0  0  0  0
   24.4047  -20.9735  -18.2934 O   0  0  0  0  0  0  0  0  0  0  0  0
   25.9462  -15.2328  -18.8744 O   0  0  0  0  0  0  0  0  0  0  0  0
   22.1252  -21.0132  -18.0533 N   0  0  0  0  0  0  0  0  0  0  0  0
   22.1716  -22.3780  -17.5784 C   0  0  0  0  0  0  0  0  0  0  0  0
   22.0900  -22.4335  -16.0879 C   0  0  0  0  0  0  0  0  0  0  0  0
   22.0897  -23.5638  -15.5444 O   0  0  0  0  0  0  0  0  0  0  0  0
   22.0149  -21.2825  -15.2858 N   0  0  0  0  0  0  0  0  0  0  0  0
   21.9972  -21.3165  -13.8010 C   0  0  1  0  0  0  0  0  0  0  0  0
   22.9526  -20.3346  -13.2466 C   0  0  0  0  0  0  0  0  0  0  0  0
   24.3541  -20.7417  -13.4974 C   0  0  0  0  0  0  0  0  0  0  0  0
   24.6848  -21.9560  -14.1330 C   0  0  0  0  0  0  0  0  0  0  0  0
   26.0180  -22.0375  -14.2139 N   0  0  0  0  0  0  0  0  0  0  0  0
   26.5258  -20.9265  -13.6560 C   0  0  0  0  0  0  0  0  0  0  0  0
   25.5245  -20.1597  -13.2315 N   0  0  0  0  0  0  0  0  0  0  0  0
   20.5758  -20.9932  -13.4450 C   0  0  0  0  0  0  0  0  0  0  0  0
   19.7803  -20.5447  -14.3200 O   0  0  0  0  0  0  0  0  0  0  0  0
   20.1274  -21.1816  -12.1691 O   0  0  0  0  0  0  0  0  0  0  0  0
  2  1  1  1
  2  3  1  0
  3  4  1  0
  5  4  1  0
  5  9  1  0
  6  5  2  0
  7  2  1  0
  7  8  2  0
 10  7  1  0
 11 10  1  0
 11 12  1  0
 12 14  1  0
 13 12  2  0
 14 15  1  0
 15 16  1  1
 15 22  1  0
 16 17  1  0
 17 18  2  0
 18 19  1  0
 20 19  1  0
 21 17  1  0
 21 20  2  0
 22 24  1  0
 23 22  2  0
M  END
$$$$
