EGH.pdb
     RDKit          3D

 24 24  0  0  1  0  0  0  0  0999 V2000
   25.3973  -19.9335  -16.8082 N   0  0  0  0  0  0  0  0  0  0  0  0
   24.4088  -18.8722  -16.5652 C   0  0  1  0  0  0  0  0  0  0  0  0
   23.4824  -18.7903  -17.7448 C   0  0  0  0  0  0  0  0  0  0  0  0
   23.3029  -20.1070  -18.4232 C   0  0  0  0  0  0  0  0  0  0  0  0
   21.9024  -20.6253  -18.2216 C   0  0  0  0  0  0  0  0  0  0  0  0
   20.9487  -19.8423  -18.1427 O   0  0  0  0  0  0  0  0  0  0  0  0
   23.7524  -19.1900  -15.2911 C   0  0  0  0  0  0  0  0  0  0  0  0
   22.8761  -18.4162  -14.7717 O   0  0  0  0  0  0  0  0  0  0  0  0
   21.7538  -22.0018  -18.1323 O   0  0  0  0  0  0  0  0  0  0  0  0
   24.0475  -20.3748  -14.5542 N   0  0  0  0  0  0  0  0  0  0  0  0
   23.3709  -20.6698  -13.3110 C   0  0  0  0  0  0  0  0  0  0  0  0
   22.0334  -21.2873  -13.5583 C   0  0  0  0  0  0  0  0  0  0  0  0
   21.9445  -22.1431  -14.4707 O   0  0  0  0  0  0  0  0  0  0  0  0
   20.8893  -20.9486  -12.8165 N   0  0  0  0  0  0  0  0  0  0  0  0
   19.5650  -21.5927  -13.0105 C   0  0  1  0  0  0  0  0  0  0  0  0
   18.7517  -21.4907  -11.7806 C   0  0  0  0  0  0  0  0  0  0  0  0
   19.0954  -22.5585  -10.8141 C   0  0  0  0  0  0  0  0  0  0  0  0
   20.1078  -23.5070  -11.0660 C   0  0  0  0  0  0  0  0  0  0  0  0
   20.1801  -24.3323  -10.0152 N   0  0  0  0  0  0  0  0  0  0  0  0
   19.2565  -23.9355   -9.1248 C   0  0  0  0  0  0  0  0  0  0  0  0
   18.6146  -22.8762   -9.6111 N   0  0  0  0  0  0  0  0  0  0  0  0
   18.9584  -20.8422  -14.1595 C   0  0  0  0  0  0  0  0  0  0  0  0
   19.2105  -19.6146  -14.3299 O   0  0  0  0  0  0  0  0  0  0  0  0
   18.1267  -21.4805  -15.0343 O   0  0  0  0  0  0  0  0  0  0  0  0
  2  1  1  6
  2  3  1  0
  3  4  1  0
  5  4  1  0
  5  9  1  0
  6  5  2  0
  7  2  1  0
  7  8  2  0
 10  7  1  0
 11 10  1  0
 11 12  1  0
 12 14  1  0
 13 12  2  0
 14 15  1  0
 15 16  1  1
 15 22  1  0
 16 17  1  0
 17 18  2  0
 18 19  1  0
 20 19  1  0
 21 17  1  0
 21 20  2  0
 22 24  1  0
 23 22  2  0
M  END
$$$$
