EGH.pdb
     RDKit          3D

 24 24  0  0  1  0  0  0  0  0999 V2000
   23.7586  -11.8233  -17.7616 N   0  0  0  0  0  0  0  0  0  0  0  0
   23.7730  -10.7515  -18.7684 C   0  0  1  0  0  0  0  0  0  0  0  0
   22.6958  -11.0194  -19.7805 C   0  0  0  0  0  0  0  0  0  0  0  0
   21.5547  -11.7927  -19.2095 C   0  0  0  0  0  0  0  0  0  0  0  0
   20.4611  -11.9644  -20.2319 C   0  0  0  0  0  0  0  0  0  0  0  0
   20.1064  -13.0942  -20.5878 O   0  0  0  0  0  0  0  0  0  0  0  0
   23.6282   -9.4854  -18.0396 C   0  0  0  0  0  0  0  0  0  0  0  0
   23.7279   -8.3532  -18.6266 O   0  0  0  0  0  0  0  0  0  0  0  0
   19.8913  -10.8044  -20.7363 O   0  0  0  0  0  0  0  0  0  0  0  0
   23.3685   -9.4358  -16.6382 N   0  0  0  0  0  0  0  0  0  0  0  0
   23.1310   -8.1780  -15.9659 C   0  0  0  0  0  0  0  0  0  0  0  0
   21.7544   -8.1267  -15.3884 C   0  0  0  0  0  0  0  0  0  0  0  0
   20.7918   -8.3900  -16.1480 O   0  0  0  0  0  0  0  0  0  0  0  0
   21.5035   -7.7989  -14.0455 N   0  0  0  0  0  0  0  0  0  0  0  0
   20.1437   -7.7657  -13.4489 C   0  0  1  0  0  0  0  0  0  0  0  0
   20.2200   -7.8453  -11.9751 C   0  0  0  0  0  0  0  0  0  0  0  0
   18.8745   -7.7885  -11.3594 C   0  0  0  0  0  0  0  0  0  0  0  0
   17.7402   -8.3608  -11.9707 C   0  0  0  0  0  0  0  0  0  0  0  0
   16.6837   -8.1466  -11.1780 N   0  0  0  0  0  0  0  0  0  0  0  0
   17.1153   -7.4667  -10.1034 C   0  0  0  0  0  0  0  0  0  0  0  0
   18.4242   -7.2580  -10.2213 N   0  0  0  0  0  0  0  0  0  0  0  0
   19.5693   -6.4623  -13.9209 C   0  0  0  0  0  0  0  0  0  0  0  0
   20.3092   -5.4455  -14.0561 O   0  0  0  0  0  0  0  0  0  0  0  0
   18.2386   -6.3627  -14.2101 O   0  0  0  0  0  0  0  0  0  0  0  0
  2  1  1  1
  2  3  1  0
  3  4  1  0
  5  4  1  0
  5  9  1  0
  6  5  2  0
  7  2  1  0
  7  8  2  0
 10  7  1  0
 11 10  1  0
 11 12  1  0
 12 14  1  0
 13 12  2  0
 14 15  1  0
 15 16  1  1
 15 22  1  0
 16 17  1  0
 17 18  2  0
 18 19  1  0
 20 19  1  0
 21 17  1  0
 21 20  2  0
 22 24  1  0
 23 22  2  0
M  END
$$$$
