EGH.pdb
     RDKit          3D

 24 24  0  0  1  0  0  0  0  0999 V2000
   20.1871  -10.6668  -16.4331 N   0  0  0  0  0  0  0  0  0  0  0  0
   18.9164  -10.6717  -15.6931 C   0  0  1  0  0  0  0  0  0  0  0  0
   18.4796  -12.0938  -15.4847 C   0  0  0  0  0  0  0  0  0  0  0  0
   17.0082  -12.2709  -15.6574 C   0  0  0  0  0  0  0  0  0  0  0  0
   16.6281  -13.7246  -15.5435 C   0  0  0  0  0  0  0  0  0  0  0  0
   15.6006  -14.0594  -14.9425 O   0  0  0  0  0  0  0  0  0  0  0  0
   19.1444   -9.9131  -14.4570 C   0  0  0  0  0  0  0  0  0  0  0  0
   20.3216   -9.6129  -14.0566 O   0  0  0  0  0  0  0  0  0  0  0  0
   17.4818  -14.6409  -16.1402 O   0  0  0  0  0  0  0  0  0  0  0  0
   18.0746   -9.4644  -13.6276 N   0  0  0  0  0  0  0  0  0  0  0  0
   18.3242   -8.6399  -12.4665 C   0  0  0  0  0  0  0  0  0  0  0  0
   17.0530   -8.3151  -11.7523 C   0  0  0  0  0  0  0  0  0  0  0  0
   16.0213   -8.9495  -12.0778 O   0  0  0  0  0  0  0  0  0  0  0  0
   16.9735   -7.3393  -10.7447 N   0  0  0  0  0  0  0  0  0  0  0  0
   15.7319   -7.0432   -9.9849 C   0  0  1  0  0  0  0  0  0  0  0  0
   15.3408   -8.2021   -9.1553 C   0  0  0  0  0  0  0  0  0  0  0  0
   14.1136   -7.9205   -8.3759 C   0  0  0  0  0  0  0  0  0  0  0  0
   12.8331   -7.9011   -8.9658 C   0  0  0  0  0  0  0  0  0  0  0  0
   11.9367   -7.6204   -8.0128 N   0  0  0  0  0  0  0  0  0  0  0  0
   12.6072   -7.4654   -6.8596 C   0  0  0  0  0  0  0  0  0  0  0  0
   13.9057   -7.6466   -7.0871 N   0  0  0  0  0  0  0  0  0  0  0  0
   16.0873   -5.8431   -9.1574 C   0  0  0  0  0  0  0  0  0  0  0  0
   17.2600   -5.6978   -8.7065 O   0  0  0  0  0  0  0  0  0  0  0  0
   15.1446   -4.8940   -8.8837 O   0  0  0  0  0  0  0  0  0  0  0  0
  2  1  1  1
  2  3  1  0
  3  4  1  0
  5  4  1  0
  5  9  1  0
  6  5  2  0
  7  2  1  0
  7  8  2  0
 10  7  1  0
 11 10  1  0
 11 12  1  0
 12 14  1  0
 13 12  2  0
 14 15  1  0
 15 16  1  1
 15 22  1  0
 16 17  1  0
 17 18  2  0
 18 19  1  0
 20 19  1  0
 21 17  1  0
 21 20  2  0
 22 24  1  0
 23 22  2  0
M  END
$$$$
