GEM.pdb
     RDKit          3D

 22 21  0  0  1  0  0  0  0  0999 V2000
    6.0967  -20.2996   22.5541 N   0  0  0  0  0  0  0  0  0  0  0  0
    5.4457  -19.0069   22.6263 C   0  0  0  0  0  0  0  0  0  0  0  0
    6.4418  -17.9646   22.3105 C   0  0  0  0  0  0  0  0  0  0  0  0
    7.6744  -18.2631   22.2773 O   0  0  0  0  0  0  0  0  0  0  0  0
    6.1364  -16.6172   22.0307 N   0  0  0  0  0  0  0  0  0  0  0  0
    7.1310  -15.5683   21.8308 C   0  0  1  0  0  0  0  0  0  0  0  0
    6.4509  -14.4587   21.0914 C   0  0  0  0  0  0  0  0  0  0  0  0
    7.2897  -13.3326   20.6074 C   0  0  0  0  0  0  0  0  0  0  0  0
    8.0586  -13.5956   19.3755 C   0  0  0  0  0  0  0  0  0  0  0  0
    7.7306  -14.5753   18.6342 O   0  0  0  0  0  0  0  0  0  0  0  0
    7.9516  -15.2647   22.9777 C   0  0  0  0  0  0  0  0  0  0  0  0
    8.6160  -14.1665   23.0394 O   0  0  0  0  0  0  0  0  0  0  0  0
    9.1339  -12.8253   18.9740 O   0  0  0  0  0  0  0  0  0  0  0  0
    7.1713  -10.7029   27.6783 C   0  0  0  0  0  0  0  0  0  0  0  0
    6.4939  -12.2020   26.9308 S   0  0  0  0  0  0  0  0  0  0  0  0
    7.8372  -13.2665   26.3813 C   0  0  0  0  0  0  0  0  0  0  0  0
    7.4284  -14.5753   25.8236 C   0  0  0  0  0  0  0  0  0  0  0  0
    8.4665  -15.5729   25.4459 C   0  0  2  0  0  0  0  0  0  0  0  0
    8.0961  -16.1198   24.1047 N   0  0  0  0  0  0  0  0  0  0  0  0
    8.6747  -16.6707   26.3757 C   0  0  0  0  0  0  0  0  0  0  0  0
    8.0623  -17.7584   26.3206 O   0  0  0  0  0  0  0  0  0  0  0  0
    9.6219  -16.5260   27.4165 O   0  0  0  0  0  0  0  0  0  0  0  0
  1  2  1  0
  3  5  1  0
  3  2  1  0
  4  3  2  0
  6  5  1  0
  6 11  1  0
  6  7  1  1
  8  7  1  0
  9  8  1  0
 10  9  2  0
 11 19  1  0
 11 12  2  0
 13  9  1  0
 14 15  1  0
 15 16  1  0
 16 17  1  0
 18 17  1  1
 19 18  1  0
 20 18  1  0
 20 22  1  0
 21 20  2  0
M  END
$$$$
