GEM.pdb
     RDKit          3D

 22 21  0  0  1  0  0  0  0  0999 V2000
    4.1371  -18.9388   21.8926 N   0  0  0  0  0  0  0  0  0  0  0  0
    4.6912  -17.7221   21.3335 C   0  0  0  0  0  0  0  0  0  0  0  0
    6.1050  -17.6211   21.7449 C   0  0  0  0  0  0  0  0  0  0  0  0
    6.5743  -18.4448   22.5881 O   0  0  0  0  0  0  0  0  0  0  0  0
    7.0158  -16.6572   21.2671 N   0  0  0  0  0  0  0  0  0  0  0  0
    8.3928  -16.5198   21.7302 C   0  0  1  0  0  0  0  0  0  0  0  0
    9.2228  -16.1778   20.5324 C   0  0  0  0  0  0  0  0  0  0  0  0
   10.6914  -16.0570   20.7188 C   0  0  0  0  0  0  0  0  0  0  0  0
   11.5120  -16.9994   19.9338 C   0  0  0  0  0  0  0  0  0  0  0  0
   11.0196  -17.5339   18.8903 O   0  0  0  0  0  0  0  0  0  0  0  0
    8.5645  -15.7759   22.9542 C   0  0  0  0  0  0  0  0  0  0  0  0
    8.6062  -14.4917   22.9435 O   0  0  0  0  0  0  0  0  0  0  0  0
   12.8078  -17.3410   20.2732 O   0  0  0  0  0  0  0  0  0  0  0  0
    7.8223  -11.2423   25.4758 C   0  0  0  0  0  0  0  0  0  0  0  0
    6.6396  -12.2147   26.4352 S   0  0  0  0  0  0  0  0  0  0  0  0
    7.3036  -13.8618   26.7275 C   0  0  0  0  0  0  0  0  0  0  0  0
    7.5891  -14.6605   25.5144 C   0  0  0  0  0  0  0  0  0  0  0  0
    8.7942  -15.5331   25.4722 C   0  0  2  0  0  0  0  0  0  0  0  0
    8.6978  -16.3718   24.2385 N   0  0  0  0  0  0  0  0  0  0  0  0
    9.0098  -16.3913   26.6255 C   0  0  0  0  0  0  0  0  0  0  0  0
    9.4176  -15.9828   27.7336 O   0  0  0  0  0  0  0  0  0  0  0  0
    8.7508  -17.7776   26.5147 O   0  0  0  0  0  0  0  0  0  0  0  0
  1  2  1  0
  3  5  1  0
  3  2  1  0
  4  3  2  0
  6  5  1  0
  6 11  1  0
  6  7  1  6
  8  7  1  0
  9  8  1  0
 10  9  2  0
 11 19  1  0
 11 12  2  0
 13  9  1  0
 14 15  1  0
 15 16  1  0
 16 17  1  0
 18 17  1  1
 19 18  1  0
 20 18  1  0
 20 22  1  0
 21 20  2  0
M  END
$$$$
