GEM.pdb
     RDKit          3D

 22 21  0  0  1  0  0  0  0  0999 V2000
    5.7119  -14.5900   20.0414 N   0  0  0  0  0  0  0  0  0  0  0  0
    7.1481  -14.5151   19.8626 C   0  0  0  0  0  0  0  0  0  0  0  0
    7.7887  -15.3972   20.8575 C   0  0  0  0  0  0  0  0  0  0  0  0
    7.0791  -15.9659   21.7422 O   0  0  0  0  0  0  0  0  0  0  0  0
    9.1691  -15.6767   20.9155 N   0  0  0  0  0  0  0  0  0  0  0  0
    9.7936  -16.5593   21.8955 C   0  0  1  0  0  0  0  0  0  0  0  0
   10.9164  -17.2605   21.1967 C   0  0  0  0  0  0  0  0  0  0  0  0
   10.6052  -17.9809   19.9357 C   0  0  0  0  0  0  0  0  0  0  0  0
   11.7641  -18.5688   19.2362 C   0  0  0  0  0  0  0  0  0  0  0  0
   11.9437  -19.8269   19.2778 O   0  0  0  0  0  0  0  0  0  0  0  0
   10.0130  -15.9822   23.1992 C   0  0  0  0  0  0  0  0  0  0  0  0
   10.5625  -14.8274   23.3237 O   0  0  0  0  0  0  0  0  0  0  0  0
   12.6820  -17.8177   18.5261 O   0  0  0  0  0  0  0  0  0  0  0  0
    6.3933  -11.6589   27.5365 C   0  0  0  0  0  0  0  0  0  0  0  0
    6.8557  -12.6041   26.0676 S   0  0  0  0  0  0  0  0  0  0  0  0
    7.9661  -13.9424   26.5317 C   0  0  0  0  0  0  0  0  0  0  0  0
    8.4913  -14.7549   25.4114 C   0  0  0  0  0  0  0  0  0  0  0  0
    9.4931  -15.8223   25.6805 C   0  0  2  0  0  0  0  0  0  0  0  0
    9.6547  -16.6133   24.4222 N   0  0  0  0  0  0  0  0  0  0  0  0
    9.1968  -16.7219   26.7831 C   0  0  0  0  0  0  0  0  0  0  0  0
    9.1033  -16.3588   27.9750 O   0  0  0  0  0  0  0  0  0  0  0  0
    8.9981  -18.0976   26.5198 O   0  0  0  0  0  0  0  0  0  0  0  0
  1  2  1  0
  3  5  1  0
  3  2  1  0
  4  3  2  0
  6  5  1  0
  6 11  1  0
  6  7  1  6
  8  7  1  0
  9  8  1  0
 10  9  2  0
 11 19  1  0
 11 12  2  0
 13  9  1  0
 14 15  1  0
 15 16  1  0
 16 17  1  0
 18 17  1  6
 19 18  1  0
 20 18  1  0
 20 22  1  0
 21 20  2  0
M  END
$$$$
