GEM.pdb
     RDKit          3D

 22 21  0  0  1  0  0  0  0  0999 V2000
    9.0235  -20.4561   20.8743 N   0  0  0  0  0  0  0  0  0  0  0  0
    8.0500  -19.3845   20.8100 C   0  0  0  0  0  0  0  0  0  0  0  0
    8.7221  -18.1212   21.1710 C   0  0  0  0  0  0  0  0  0  0  0  0
    9.8754  -18.1517   21.6988 O   0  0  0  0  0  0  0  0  0  0  0  0
    8.1792  -16.8353   20.9741 N   0  0  0  0  0  0  0  0  0  0  0  0
    8.7553  -15.6043   21.5053 C   0  0  1  0  0  0  0  0  0  0  0  0
    8.8263  -14.6315   20.3700 C   0  0  0  0  0  0  0  0  0  0  0  0
    7.6518  -14.5351   19.4659 C   0  0  0  0  0  0  0  0  0  0  0  0
    7.9554  -14.5724   18.0222 C   0  0  0  0  0  0  0  0  0  0  0  0
    7.0026  -14.4973   17.1835 O   0  0  0  0  0  0  0  0  0  0  0  0
    8.2359  -15.1765   22.7813 C   0  0  0  0  0  0  0  0  0  0  0  0
    7.0394  -15.4783   23.1395 O   0  0  0  0  0  0  0  0  0  0  0  0
    9.2383  -14.6865   17.5200 O   0  0  0  0  0  0  0  0  0  0  0  0
    5.9286  -11.6862   28.5360 C   0  0  0  0  0  0  0  0  0  0  0  0
    6.7487  -11.7602   26.9276 S   0  0  0  0  0  0  0  0  0  0  0  0
    6.1852  -13.2120   26.0253 C   0  0  0  0  0  0  0  0  0  0  0  0
    7.0108  -13.6005   24.8597 C   0  0  0  0  0  0  0  0  0  0  0  0
    8.4016  -14.0873   25.0701 C   0  0  2  0  0  0  0  0  0  0  0  0
    8.9720  -14.4101   23.7264 N   0  0  0  0  0  0  0  0  0  0  0  0
    8.5575  -15.2334   25.9504 C   0  0  0  0  0  0  0  0  0  0  0  0
    8.1605  -16.3855   25.6741 O   0  0  0  0  0  0  0  0  0  0  0  0
    9.1934  -15.0630   27.2026 O   0  0  0  0  0  0  0  0  0  0  0  0
  1  2  1  0
  3  5  1  0
  3  2  1  0
  4  3  2  0
  6  5  1  0
  6 11  1  0
  6  7  1  6
  8  7  1  0
  9  8  1  0
 10  9  2  0
 11 19  1  0
 11 12  2  0
 13  9  1  0
 14 15  1  0
 15 16  1  0
 16 17  1  0
 18 17  1  6
 19 18  1  0
 20 18  1  0
 20 22  1  0
 21 20  2  0
M  END
$$$$
