GEM.pdb
     RDKit          3D

 22 21  0  0  1  0  0  0  0  0999 V2000
    2.7530  -19.2890   21.3568 N   0  0  0  0  0  0  0  0  0  0  0  0
    3.6234  -18.1595   21.0986 C   0  0  0  0  0  0  0  0  0  0  0  0
    4.8326  -18.3021   21.9326 C   0  0  0  0  0  0  0  0  0  0  0  0
    4.7183  -18.6184   23.1559 O   0  0  0  0  0  0  0  0  0  0  0  0
    6.1527  -18.1128   21.4760 N   0  0  0  0  0  0  0  0  0  0  0  0
    7.3376  -18.1686   22.3260 C   0  0  1  0  0  0  0  0  0  0  0  0
    8.3388  -19.0296   21.6212 C   0  0  0  0  0  0  0  0  0  0  0  0
    9.0592  -18.4463   20.4607 C   0  0  0  0  0  0  0  0  0  0  0  0
   10.4935  -18.7813   20.3684 C   0  0  0  0  0  0  0  0  0  0  0  0
   11.2665  -18.4801   21.3321 O   0  0  0  0  0  0  0  0  0  0  0  0
    7.7528  -16.9097   22.8950 C   0  0  0  0  0  0  0  0  0  0  0  0
    7.7277  -15.8315   22.1963 O   0  0  0  0  0  0  0  0  0  0  0  0
   11.0553  -19.4145   19.2755 O   0  0  0  0  0  0  0  0  0  0  0  0
    6.4446  -10.9989   27.1773 C   0  0  0  0  0  0  0  0  0  0  0  0
    6.0750  -12.5592   26.3445 S   0  0  0  0  0  0  0  0  0  0  0  0
    7.6094  -13.3839   25.8919 C   0  0  0  0  0  0  0  0  0  0  0  0
    7.4565  -14.6703   25.1757 C   0  0  0  0  0  0  0  0  0  0  0  0
    8.6661  -15.4192   24.7380 C   0  0  2  0  0  0  0  0  0  0  0  0
    8.2108  -16.7502   24.2318 N   0  0  0  0  0  0  0  0  0  0  0  0
    9.7033  -15.6107   25.7383 C   0  0  0  0  0  0  0  0  0  0  0  0
   10.2687  -14.6766   26.3457 O   0  0  0  0  0  0  0  0  0  0  0  0
   10.1178  -16.9237   26.0630 O   0  0  0  0  0  0  0  0  0  0  0  0
  1  2  1  0
  3  5  1  0
  3  2  1  0
  4  3  2  0
  6  5  1  0
  6 11  1  0
  6  7  1  6
  8  7  1  0
  9  8  1  0
 10  9  2  0
 11 19  1  0
 11 12  2  0
 13  9  1  0
 14 15  1  0
 15 16  1  0
 16 17  1  0
 18 17  1  1
 19 18  1  0
 20 18  1  0
 20 22  1  0
 21 20  2  0
M  END
$$$$
