GEM.pdb
     RDKit          3D

 22 21  0  0  1  0  0  0  0  0999 V2000
   12.8987  -14.5905   18.5463 N   0  0  0  0  0  0  0  0  0  0  0  0
   13.0243  -14.9794   19.9366 C   0  0  0  0  0  0  0  0  0  0  0  0
   11.6746  -15.2484   20.4697 C   0  0  0  0  0  0  0  0  0  0  0  0
   10.7999  -14.3295   20.4580 O   0  0  0  0  0  0  0  0  0  0  0  0
   11.2528  -16.4803   21.0097 N   0  0  0  0  0  0  0  0  0  0  0  0
    9.9366  -16.7204   21.5923 C   0  0  1  0  0  0  0  0  0  0  0  0
    9.6332  -18.1733   21.3985 C   0  0  0  0  0  0  0  0  0  0  0  0
    9.4444  -18.6621   20.0088 C   0  0  0  0  0  0  0  0  0  0  0  0
    8.1620  -18.2988   19.3752 C   0  0  0  0  0  0  0  0  0  0  0  0
    8.1690  -17.7222   18.2419 O   0  0  0  0  0  0  0  0  0  0  0  0
    9.7061  -16.1077   22.8777 C   0  0  0  0  0  0  0  0  0  0  0  0
   10.6403  -16.0541   23.7583 O   0  0  0  0  0  0  0  0  0  0  0  0
    6.9322  -18.5531   19.9527 O   0  0  0  0  0  0  0  0  0  0  0  0
    6.5632  -11.0549   27.5924 C   0  0  0  0  0  0  0  0  0  0  0  0
    7.3168  -11.7871   26.1225 S   0  0  0  0  0  0  0  0  0  0  0  0
    6.5859  -13.4010   25.8055 C   0  0  0  0  0  0  0  0  0  0  0  0
    7.0539  -14.0850   24.5790 C   0  0  0  0  0  0  0  0  0  0  0  0
    8.3220  -14.8639   24.6068 C   0  0  2  0  0  0  0  0  0  0  0  0
    8.4702  -15.5273   23.2753 N   0  0  0  0  0  0  0  0  0  0  0  0
    8.4451  -15.8585   25.6597 C   0  0  0  0  0  0  0  0  0  0  0  0
    7.8675  -16.9663   25.6450 O   0  0  0  0  0  0  0  0  0  0  0  0
    9.2616  -15.5816   26.7813 O   0  0  0  0  0  0  0  0  0  0  0  0
  1  2  1  0
  3  5  1  0
  3  2  1  0
  4  3  2  0
  6  5  1  0
  6 11  1  0
  6  7  1  1
  8  7  1  0
  9  8  1  0
 10  9  2  0
 11 19  1  0
 11 12  2  0
 13  9  1  0
 14 15  1  0
 15 16  1  0
 16 17  1  0
 18 17  1  6
 19 18  1  0
 20 18  1  0
 20 22  1  0
 21 20  2  0
M  END
$$$$
