GEM.pdb
     RDKit          3D

 22 21  0  0  1  0  0  0  0  0999 V2000
    7.0385  -12.5793   18.8552 N   0  0  0  0  0  0  0  0  0  0  0  0
    8.3876  -13.0822   19.0201 C   0  0  0  0  0  0  0  0  0  0  0  0
    8.3789  -14.0996   20.0892 C   0  0  0  0  0  0  0  0  0  0  0  0
    7.3597  -14.2181   20.8354 O   0  0  0  0  0  0  0  0  0  0  0  0
    9.4395  -14.9859   20.3661 N   0  0  0  0  0  0  0  0  0  0  0  0
    9.3999  -16.0300   21.3847 C   0  0  1  0  0  0  0  0  0  0  0  0
   10.2201  -17.1715   20.8702 C   0  0  0  0  0  0  0  0  0  0  0  0
   10.3265  -18.3859   21.7186 C   0  0  0  0  0  0  0  0  0  0  0  0
   11.2011  -19.4532   21.1952 C   0  0  0  0  0  0  0  0  0  0  0  0
   10.7658  -20.2222   20.2808 O   0  0  0  0  0  0  0  0  0  0  0  0
    9.5769  -15.5785   22.7433 C   0  0  0  0  0  0  0  0  0  0  0  0
   10.6393  -14.9459   23.0934 O   0  0  0  0  0  0  0  0  0  0  0  0
   12.4885  -19.6693   21.6497 O   0  0  0  0  0  0  0  0  0  0  0  0
    6.6639  -11.0035   25.7899 C   0  0  0  0  0  0  0  0  0  0  0  0
    6.3428  -12.3797   26.9157 S   0  0  0  0  0  0  0  0  0  0  0  0
    7.6407  -13.6155   26.7493 C   0  0  0  0  0  0  0  0  0  0  0  0
    7.7448  -14.2583   25.4200 C   0  0  0  0  0  0  0  0  0  0  0  0
    8.8480  -15.2203   25.1501 C   0  0  2  0  0  0  0  0  0  0  0  0
    8.6280  -15.7828   23.7825 N   0  0  0  0  0  0  0  0  0  0  0  0
    9.0026  -16.3080   26.1019 C   0  0  0  0  0  0  0  0  0  0  0  0
    8.6084  -17.4760   25.8979 O   0  0  0  0  0  0  0  0  0  0  0  0
    9.6336  -16.0573   27.3430 O   0  0  0  0  0  0  0  0  0  0  0  0
  1  2  1  0
  3  5  1  0
  3  2  1  0
  4  3  2  0
  6  5  1  0
  6 11  1  0
  6  7  1  6
  8  7  1  0
  9  8  1  0
 10  9  2  0
 11 19  1  0
 11 12  2  0
 13  9  1  0
 14 15  1  0
 15 16  1  0
 16 17  1  0
 18 17  1  1
 19 18  1  0
 20 18  1  0
 20 22  1  0
 21 20  2  0
M  END
$$$$
