GEM.pdb
     RDKit          3D

 22 21  0  0  1  0  0  0  0  0999 V2000
    7.1652  -12.7011   18.6181 N   0  0  0  0  0  0  0  0  0  0  0  0
    8.4118  -13.4287   18.7471 C   0  0  0  0  0  0  0  0  0  0  0  0
    8.3032  -14.3391   19.9036 C   0  0  0  0  0  0  0  0  0  0  0  0
    7.3421  -14.2048   20.7208 O   0  0  0  0  0  0  0  0  0  0  0  0
    9.2035  -15.3845   20.1928 N   0  0  0  0  0  0  0  0  0  0  0  0
    9.0954  -16.2737   21.3448 C   0  0  1  0  0  0  0  0  0  0  0  0
    9.7957  -17.5454   20.9803 C   0  0  0  0  0  0  0  0  0  0  0  0
    9.8601  -18.6189   22.0047 C   0  0  0  0  0  0  0  0  0  0  0  0
   10.5062  -19.8732   21.5722 C   0  0  0  0  0  0  0  0  0  0  0  0
   11.5681  -19.8182   20.8749 O   0  0  0  0  0  0  0  0  0  0  0  0
    9.3470  -15.6618   22.6267 C   0  0  0  0  0  0  0  0  0  0  0  0
   10.4441  -15.0317   22.8512 O   0  0  0  0  0  0  0  0  0  0  0  0
   10.0150  -21.1266   21.8863 O   0  0  0  0  0  0  0  0  0  0  0  0
    6.3231  -10.8275   27.8106 C   0  0  0  0  0  0  0  0  0  0  0  0
    6.1467  -11.9179   26.3807 S   0  0  0  0  0  0  0  0  0  0  0  0
    7.5462  -13.0469   26.3020 C   0  0  0  0  0  0  0  0  0  0  0  0
    7.5791  -13.9432   25.1244 C   0  0  0  0  0  0  0  0  0  0  0  0
    8.6984  -14.9113   24.9652 C   0  0  2  0  0  0  0  0  0  0  0  0
    8.4384  -15.6968   23.7201 N   0  0  0  0  0  0  0  0  0  0  0  0
    8.9254  -15.8230   26.0743 C   0  0  0  0  0  0  0  0  0  0  0  0
    8.5568  -17.0168   26.0838 O   0  0  0  0  0  0  0  0  0  0  0  0
    9.6018  -15.3569   27.2261 O   0  0  0  0  0  0  0  0  0  0  0  0
  1  2  1  0
  3  5  1  0
  3  2  1  0
  4  3  2  0
  6  5  1  0
  6 11  1  0
  6  7  1  6
  8  7  1  0
  9  8  1  0
 10  9  2  0
 11 19  1  0
 11 12  2  0
 13  9  1  0
 14 15  1  0
 15 16  1  0
 16 17  1  0
 18 17  1  1
 19 18  1  0
 20 18  1  0
 20 22  1  0
 21 20  2  0
M  END
$$$$
