GEM.pdb
     RDKit          3D

 22 21  0  0  1  0  0  0  0  0999 V2000
    3.7151  -19.7543   22.1951 N   0  0  0  0  0  0  0  0  0  0  0  0
    3.8632  -18.3153   22.2807 C   0  0  0  0  0  0  0  0  0  0  0  0
    5.2972  -17.9860   22.1640 C   0  0  0  0  0  0  0  0  0  0  0  0
    6.1525  -18.6670   22.8076 O   0  0  0  0  0  0  0  0  0  0  0  0
    5.8226  -16.9454   21.3715 N   0  0  0  0  0  0  0  0  0  0  0  0
    7.2107  -16.4971   21.4098 C   0  0  1  0  0  0  0  0  0  0  0  0
    7.5640  -16.0554   20.0240 C   0  0  0  0  0  0  0  0  0  0  0  0
    8.9935  -15.7823   19.7272 C   0  0  0  0  0  0  0  0  0  0  0  0
    9.7419  -16.8998   19.1197 C   0  0  0  0  0  0  0  0  0  0  0  0
   10.7032  -17.4279   19.7632 O   0  0  0  0  0  0  0  0  0  0  0  0
    7.5638  -15.6673   22.5358 C   0  0  0  0  0  0  0  0  0  0  0  0
    7.0758  -14.4852   22.6609 O   0  0  0  0  0  0  0  0  0  0  0  0
    9.4537  -17.4144   17.8696 O   0  0  0  0  0  0  0  0  0  0  0  0
    6.6924  -11.4964   28.0585 C   0  0  0  0  0  0  0  0  0  0  0  0
    6.4210  -12.4655   26.5579 S   0  0  0  0  0  0  0  0  0  0  0  0
    7.5134  -13.8959   26.5532 C   0  0  0  0  0  0  0  0  0  0  0  0
    7.4977  -14.7083   25.3160 C   0  0  0  0  0  0  0  0  0  0  0  0
    8.7823  -15.1422   24.7019 C   0  0  2  0  0  0  0  0  0  0  0  0
    8.4509  -16.0653   23.5736 N   0  0  0  0  0  0  0  0  0  0  0  0
    9.7366  -15.7857   25.5896 C   0  0  0  0  0  0  0  0  0  0  0  0
   10.0841  -16.9819   25.4926 O   0  0  0  0  0  0  0  0  0  0  0  0
   10.3230  -15.0358   26.6362 O   0  0  0  0  0  0  0  0  0  0  0  0
  1  2  1  0
  3  5  1  0
  3  2  1  0
  4  3  2  0
  6  5  1  0
  6 11  1  0
  6  7  1  6
  8  7  1  0
  9  8  1  0
 10  9  2  0
 11 19  1  0
 11 12  2  0
 13  9  1  0
 14 15  1  0
 15 16  1  0
 16 17  1  0
 18 17  1  1
 19 18  1  0
 20 18  1  0
 20 22  1  0
 21 20  2  0
M  END
$$$$
