GEM.pdb
     RDKit          3D

 22 21  0  0  1  0  0  0  0  0999 V2000
    7.3142  -12.5026   18.5836 N   0  0  0  0  0  0  0  0  0  0  0  0
    8.6465  -12.9846   18.8881 C   0  0  0  0  0  0  0  0  0  0  0  0
    8.5389  -14.0302   19.9242 C   0  0  0  0  0  0  0  0  0  0  0  0
    7.4350  -14.2100   20.5231 O   0  0  0  0  0  0  0  0  0  0  0  0
    9.5905  -14.8800   20.3229 N   0  0  0  0  0  0  0  0  0  0  0  0
    9.4978  -15.8613   21.3989 C   0  0  1  0  0  0  0  0  0  0  0  0
   10.2878  -17.0570   20.9668 C   0  0  0  0  0  0  0  0  0  0  0  0
   10.3080  -17.3877   19.5189 C   0  0  0  0  0  0  0  0  0  0  0  0
   11.3829  -18.3035   19.0903 C   0  0  0  0  0  0  0  0  0  0  0  0
   11.0877  -19.4904   18.7425 O   0  0  0  0  0  0  0  0  0  0  0  0
    9.6662  -15.3377   22.7324 C   0  0  0  0  0  0  0  0  0  0  0  0
   10.0998  -14.1427   22.9204 O   0  0  0  0  0  0  0  0  0  0  0  0
   12.7157  -17.9394   19.0446 O   0  0  0  0  0  0  0  0  0  0  0  0
    5.9476  -11.9627   27.4835 C   0  0  0  0  0  0  0  0  0  0  0  0
    7.1667  -12.6035   26.3139 S   0  0  0  0  0  0  0  0  0  0  0  0
    6.5554  -14.1255   25.5729 C   0  0  0  0  0  0  0  0  0  0  0  0
    7.4680  -14.7780   24.6072 C   0  0  0  0  0  0  0  0  0  0  0  0
    8.7269  -15.4075   25.0915 C   0  0  2  0  0  0  0  0  0  0  0  0
    9.3785  -16.0671   23.9188 N   0  0  0  0  0  0  0  0  0  0  0  0
    8.5927  -16.3679   26.1743 C   0  0  0  0  0  0  0  0  0  0  0  0
    8.0549  -17.4889   26.0510 O   0  0  0  0  0  0  0  0  0  0  0  0
    9.0919  -16.0395   27.4566 O   0  0  0  0  0  0  0  0  0  0  0  0
  1  2  1  0
  3  5  1  0
  3  2  1  0
  4  3  2  0
  6  5  1  0
  6 11  1  0
  6  7  1  6
  8  7  1  0
  9  8  1  0
 10  9  2  0
 11 19  1  0
 11 12  2  0
 13  9  1  0
 14 15  1  0
 15 16  1  0
 16 17  1  0
 18 17  1  6
 19 18  1  0
 20 18  1  0
 20 22  1  0
 21 20  2  0
M  END
$$$$
