GEM.pdb
     RDKit          3D

 22 21  0  0  1  0  0  0  0  0999 V2000
    6.7286  -12.8688   18.6932 N   0  0  0  0  0  0  0  0  0  0  0  0
    8.1111  -13.2470   18.9067 C   0  0  0  0  0  0  0  0  0  0  0  0
    8.1568  -14.2651   19.9742 C   0  0  0  0  0  0  0  0  0  0  0  0
    7.1066  -14.5301   20.6350 O   0  0  0  0  0  0  0  0  0  0  0  0
    9.3040  -14.9984   20.3392 N   0  0  0  0  0  0  0  0  0  0  0  0
    9.3565  -15.9600   21.4355 C   0  0  1  0  0  0  0  0  0  0  0  0
   10.3747  -16.9915   21.0614 C   0  0  0  0  0  0  0  0  0  0  0  0
   10.6017  -18.1151   22.0058 C   0  0  0  0  0  0  0  0  0  0  0  0
   11.6100  -19.1069   21.5841 C   0  0  0  0  0  0  0  0  0  0  0  0
   12.2270  -19.7817   22.4677 O   0  0  0  0  0  0  0  0  0  0  0  0
    9.3705  -15.3901   22.7606 C   0  0  0  0  0  0  0  0  0  0  0  0
   10.2743  -14.5433   23.1033 O   0  0  0  0  0  0  0  0  0  0  0  0
   11.9284  -19.3486   20.2608 O   0  0  0  0  0  0  0  0  0  0  0  0
    6.8996  -11.1821   28.0162 C   0  0  0  0  0  0  0  0  0  0  0  0
    7.3458  -11.9977   26.4668 S   0  0  0  0  0  0  0  0  0  0  0  0
    6.6104  -13.6394   26.4114 C   0  0  0  0  0  0  0  0  0  0  0  0
    6.9649  -14.4592   25.2309 C   0  0  0  0  0  0  0  0  0  0  0  0
    8.3685  -14.9191   25.0467 C   0  0  2  0  0  0  0  0  0  0  0  0
    8.4212  -15.7000   23.7730 N   0  0  0  0  0  0  0  0  0  0  0  0
    8.9340  -15.7129   26.1251 C   0  0  0  0  0  0  0  0  0  0  0  0
    8.9200  -16.9620   26.1544 O   0  0  0  0  0  0  0  0  0  0  0  0
    9.5429  -15.0577   27.2211 O   0  0  0  0  0  0  0  0  0  0  0  0
  1  2  1  0
  3  5  1  0
  3  2  1  0
  4  3  2  0
  6  5  1  0
  6 11  1  0
  6  7  1  6
  8  7  1  0
  9  8  1  0
 10  9  2  0
 11 19  1  0
 11 12  2  0
 13  9  1  0
 14 15  1  0
 15 16  1  0
 16 17  1  0
 18 17  1  1
 19 18  1  0
 20 18  1  0
 20 22  1  0
 21 20  2  0
M  END
$$$$
