GEM.pdb
     RDKit          3D

 22 21  0  0  1  0  0  0  0  0999 V2000
    7.5350  -12.7186   18.9663 N   0  0  0  0  0  0  0  0  0  0  0  0
    8.7002  -13.5780   19.0284 C   0  0  0  0  0  0  0  0  0  0  0  0
    8.5843  -14.4356   20.2240 C   0  0  0  0  0  0  0  0  0  0  0  0
    7.6441  -14.2354   21.0519 O   0  0  0  0  0  0  0  0  0  0  0  0
    9.4553  -15.4977   20.5407 N   0  0  0  0  0  0  0  0  0  0  0  0
    9.3359  -16.3392   21.7269 C   0  0  1  0  0  0  0  0  0  0  0  0
    9.9644  -17.6557   21.3917 C   0  0  0  0  0  0  0  0  0  0  0  0
   10.7454  -17.7497   20.1318 C   0  0  0  0  0  0  0  0  0  0  0  0
   12.1094  -18.2962   20.2681 C   0  0  0  0  0  0  0  0  0  0  0  0
   13.0999  -17.4991   20.2921 O   0  0  0  0  0  0  0  0  0  0  0  0
    9.6510  -15.6953   22.9787 C   0  0  0  0  0  0  0  0  0  0  0  0
   10.6410  -14.8810   23.0691 O   0  0  0  0  0  0  0  0  0  0  0  0
   12.3775  -19.6482   20.3725 O   0  0  0  0  0  0  0  0  0  0  0  0
    5.2031  -12.3765   26.9186 C   0  0  0  0  0  0  0  0  0  0  0  0
    6.8437  -11.7640   26.4734 S   0  0  0  0  0  0  0  0  0  0  0  0
    8.0455  -13.0974   26.6043 C   0  0  0  0  0  0  0  0  0  0  0  0
    8.1566  -13.9765   25.4186 C   0  0  0  0  0  0  0  0  0  0  0  0
    9.1851  -15.0522   25.3915 C   0  0  2  0  0  0  0  0  0  0  0  0
    8.9227  -15.8935   24.1839 N   0  0  0  0  0  0  0  0  0  0  0  0
    9.2596  -15.9032   26.5676 C   0  0  0  0  0  0  0  0  0  0  0  0
    8.9202  -17.1055   26.5823 O   0  0  0  0  0  0  0  0  0  0  0  0
    9.7413  -15.3633   27.7833 O   0  0  0  0  0  0  0  0  0  0  0  0
  1  2  1  0
  3  5  1  0
  3  2  1  0
  4  3  2  0
  6  5  1  0
  6 11  1  0
  6  7  1  6
  8  7  1  0
  9  8  1  0
 10  9  2  0
 11 19  1  0
 11 12  2  0
 13  9  1  0
 14 15  1  0
 15 16  1  0
 16 17  1  0
 18 17  1  1
 19 18  1  0
 20 18  1  0
 20 22  1  0
 21 20  2  0
M  END
$$$$
