GEM.pdb
     RDKit          3D

 22 21  0  0  1  0  0  0  0  0999 V2000
   13.3259  -17.3993   18.8958 N   0  0  0  0  0  0  0  0  0  0  0  0
   13.1909  -17.3070   20.3358 C   0  0  0  0  0  0  0  0  0  0  0  0
   11.8419  -16.7951   20.6461 C   0  0  0  0  0  0  0  0  0  0  0  0
   11.5458  -15.5939   20.3650 O   0  0  0  0  0  0  0  0  0  0  0  0
   10.8135  -17.5482   21.2479 N   0  0  0  0  0  0  0  0  0  0  0  0
    9.5222  -17.0056   21.6571 C   0  0  1  0  0  0  0  0  0  0  0  0
    8.4789  -17.9831   21.2139 C   0  0  0  0  0  0  0  0  0  0  0  0
    8.3125  -18.2047   19.7547 C   0  0  0  0  0  0  0  0  0  0  0  0
    7.3075  -19.2166   19.3754 C   0  0  0  0  0  0  0  0  0  0  0  0
    6.6758  -19.8389   20.2868 O   0  0  0  0  0  0  0  0  0  0  0  0
    9.4721  -16.4640   22.9932 C   0  0  0  0  0  0  0  0  0  0  0  0
   10.3068  -16.8491   23.8911 O   0  0  0  0  0  0  0  0  0  0  0  0
    7.0080  -19.5330   18.0635 O   0  0  0  0  0  0  0  0  0  0  0  0
    6.1533  -10.9590   27.7494 C   0  0  0  0  0  0  0  0  0  0  0  0
    6.1751  -11.7958   26.1481 S   0  0  0  0  0  0  0  0  0  0  0  0
    7.3454  -13.1625   26.1934 C   0  0  0  0  0  0  0  0  0  0  0  0
    7.5856  -13.8415   24.9002 C   0  0  0  0  0  0  0  0  0  0  0  0
    8.5222  -14.9966   24.8363 C   0  0  2  0  0  0  0  0  0  0  0  0
    8.5304  -15.4899   23.4250 N   0  0  0  0  0  0  0  0  0  0  0  0
    8.2423  -16.1045   25.7347 C   0  0  0  0  0  0  0  0  0  0  0  0
    8.7470  -16.2268   26.8711 O   0  0  0  0  0  0  0  0  0  0  0  0
    7.3481  -17.1206   25.3231 O   0  0  0  0  0  0  0  0  0  0  0  0
  1  2  1  0
  3  5  1  0
  3  2  1  0
  4  3  2  0
  6  5  1  0
  6 11  1  0
  6  7  1  1
  8  7  1  0
  9  8  1  0
 10  9  2  0
 11 19  1  0
 11 12  2  0
 13  9  1  0
 14 15  1  0
 15 16  1  0
 16 17  1  0
 18 17  1  6
 19 18  1  0
 20 18  1  0
 20 22  1  0
 21 20  2  0
M  END
$$$$
