GEM.pdb
     RDKit          3D

 22 21  0  0  1  0  0  0  0  0999 V2000
    7.4956  -12.3591   18.9986 N   0  0  0  0  0  0  0  0  0  0  0  0
    8.7408  -13.0904   19.1211 C   0  0  0  0  0  0  0  0  0  0  0  0
    8.5946  -14.0823   20.2041 C   0  0  0  0  0  0  0  0  0  0  0  0
    7.5752  -14.0434   20.9584 O   0  0  0  0  0  0  0  0  0  0  0  0
    9.5190  -15.1084   20.4864 N   0  0  0  0  0  0  0  0  0  0  0  0
    9.3781  -16.0723   21.5729 C   0  0  1  0  0  0  0  0  0  0  0  0
    9.9939  -17.3526   21.1016 C   0  0  0  0  0  0  0  0  0  0  0  0
    9.9700  -18.5145   22.0265 C   0  0  0  0  0  0  0  0  0  0  0  0
   10.5820  -19.7532   21.5080 C   0  0  0  0  0  0  0  0  0  0  0  0
   10.7537  -19.8855   20.2550 O   0  0  0  0  0  0  0  0  0  0  0  0
    9.6888  -15.5725   22.8899 C   0  0  0  0  0  0  0  0  0  0  0  0
   10.7982  -14.9657   23.1187 O   0  0  0  0  0  0  0  0  0  0  0  0
   10.9860  -20.7966   22.3198 O   0  0  0  0  0  0  0  0  0  0  0  0
    5.5616  -12.1779   26.0012 C   0  0  0  0  0  0  0  0  0  0  0  0
    7.0557  -11.8543   26.9644 S   0  0  0  0  0  0  0  0  0  0  0  0
    8.1592  -13.2729   26.8676 C   0  0  0  0  0  0  0  0  0  0  0  0
    8.1474  -14.0054   25.5814 C   0  0  0  0  0  0  0  0  0  0  0  0
    9.1681  -15.0573   25.3221 C   0  0  2  0  0  0  0  0  0  0  0  0
    8.8288  -15.6992   24.0153 N   0  0  0  0  0  0  0  0  0  0  0  0
    9.3113  -16.0826   26.3425 C   0  0  0  0  0  0  0  0  0  0  0  0
    9.6367  -15.8496   27.5261 O   0  0  0  0  0  0  0  0  0  0  0  0
    9.0745  -17.4353   26.0024 O   0  0  0  0  0  0  0  0  0  0  0  0
  1  2  1  0
  3  5  1  0
  3  2  1  0
  4  3  2  0
  6  5  1  0
  6 11  1  0
  6  7  1  6
  8  7  1  0
  9  8  1  0
 10  9  2  0
 11 19  1  0
 11 12  2  0
 13  9  1  0
 14 15  1  0
 15 16  1  0
 16 17  1  0
 18 17  1  1
 19 18  1  0
 20 18  1  0
 20 22  1  0
 21 20  2  0
M  END
$$$$
