GEM.pdb
     RDKit          3D

 22 21  0  0  1  0  0  0  0  0999 V2000
   11.7482  -18.1973   18.7898 N   0  0  0  0  0  0  0  0  0  0  0  0
   10.8808  -18.5365   19.9001 C   0  0  0  0  0  0  0  0  0  0  0  0
   10.7369  -17.3459   20.7604 C   0  0  0  0  0  0  0  0  0  0  0  0
   11.7658  -16.6804   21.0893 O   0  0  0  0  0  0  0  0  0  0  0  0
    9.5141  -16.8621   21.2678 N   0  0  0  0  0  0  0  0  0  0  0  0
    9.3941  -15.8167   22.2789 C   0  0  1  0  0  0  0  0  0  0  0  0
    8.2371  -14.9552   21.8792 C   0  0  0  0  0  0  0  0  0  0  0  0
    8.3060  -14.2695   20.5635 C   0  0  0  0  0  0  0  0  0  0  0  0
    7.7310  -15.0147   19.4268 C   0  0  0  0  0  0  0  0  0  0  0  0
    7.0693  -14.3862   18.5413 O   0  0  0  0  0  0  0  0  0  0  0  0
    9.5163  -16.2594   23.6464 C   0  0  0  0  0  0  0  0  0  0  0  0
    8.5701  -16.9203   24.2113 O   0  0  0  0  0  0  0  0  0  0  0  0
    7.8723  -16.3804   19.2663 O   0  0  0  0  0  0  0  0  0  0  0  0
   11.1017  -13.6508   29.7099 C   0  0  0  0  0  0  0  0  0  0  0  0
    9.7225  -13.3405   28.5846 S   0  0  0  0  0  0  0  0  0  0  0  0
    9.2182  -14.8814   27.8031 C   0  0  0  0  0  0  0  0  0  0  0  0
    9.5773  -15.0207   26.3739 C   0  0  0  0  0  0  0  0  0  0  0  0
   10.5536  -16.0640   25.9568 C   0  0  2  0  0  0  0  0  0  0  0  0
   10.6526  -16.0154   24.4659 N   0  0  0  0  0  0  0  0  0  0  0  0
   10.2635  -17.4244   26.3787 C   0  0  0  0  0  0  0  0  0  0  0  0
    9.3505  -18.1263   25.8941 O   0  0  0  0  0  0  0  0  0  0  0  0
   11.0464  -18.0146   27.3986 O   0  0  0  0  0  0  0  0  0  0  0  0
  1  2  1  0
  3  5  1  0
  3  2  1  0
  4  3  2  0
  6  5  1  0
  6 11  1  0
  6  7  1  1
  8  7  1  0
  9  8  1  0
 10  9  2  0
 11 19  1  0
 11 12  2  0
 13  9  1  0
 14 15  1  0
 15 16  1  0
 16 17  1  0
 18 17  1  6
 19 18  1  0
 20 18  1  0
 20 22  1  0
 21 20  2  0
M  END
$$$$
