GEM.pdb
     RDKit          3D

 22 21  0  0  1  0  0  0  0  0999 V2000
    4.9486  -18.9468   21.6213 N   0  0  0  0  0  0  0  0  0  0  0  0
    5.6874  -17.7343   21.3312 C   0  0  0  0  0  0  0  0  0  0  0  0
    6.9894  -17.8046   22.0226 C   0  0  0  0  0  0  0  0  0  0  0  0
    7.0713  -18.3783   23.1512 O   0  0  0  0  0  0  0  0  0  0  0  0
    8.1959  -17.2735   21.5234 N   0  0  0  0  0  0  0  0  0  0  0  0
    9.4393  -17.1901   22.2827 C   0  0  1  0  0  0  0  0  0  0  0  0
   10.5519  -17.0894   21.2864 C   0  0  0  0  0  0  0  0  0  0  0  0
   10.8682  -18.2941   20.4772 C   0  0  0  0  0  0  0  0  0  0  0  0
   11.9297  -18.1211   19.4667 C   0  0  0  0  0  0  0  0  0  0  0  0
   13.1139  -18.4974   19.7371 O   0  0  0  0  0  0  0  0  0  0  0  0
    9.4145  -16.3005   23.4180 C   0  0  0  0  0  0  0  0  0  0  0  0
    9.4025  -15.0259   23.2553 O   0  0  0  0  0  0  0  0  0  0  0  0
   11.7075  -17.5635   18.2215 O   0  0  0  0  0  0  0  0  0  0  0  0
    6.8116  -11.3576   26.0916 C   0  0  0  0  0  0  0  0  0  0  0  0
    6.1295  -13.0232   26.2506 S   0  0  0  0  0  0  0  0  0  0  0  0
    7.4267  -14.1648   26.7539 C   0  0  0  0  0  0  0  0  0  0  0  0
    7.9620  -15.0362   25.6837 C   0  0  0  0  0  0  0  0  0  0  0  0
    9.2463  -15.7586   25.8940 C   0  0  2  0  0  0  0  0  0  0  0  0
    9.4009  -16.7346   24.7721 N   0  0  0  0  0  0  0  0  0  0  0  0
    9.3964  -16.4516   27.1628 C   0  0  0  0  0  0  0  0  0  0  0  0
    9.2529  -15.9063   28.2778 O   0  0  0  0  0  0  0  0  0  0  0  0
    9.7251  -17.8277   27.1653 O   0  0  0  0  0  0  0  0  0  0  0  0
  1  2  1  0
  3  5  1  0
  3  2  1  0
  4  3  2  0
  6  5  1  0
  6 11  1  0
  6  7  1  6
  8  7  1  0
  9  8  1  0
 10  9  2  0
 11 19  1  0
 11 12  2  0
 13  9  1  0
 14 15  1  0
 15 16  1  0
 16 17  1  0
 18 17  1  1
 19 18  1  0
 20 18  1  0
 20 22  1  0
 21 20  2  0
M  END
$$$$
