PDG.pdb
     RDKit          3D

 20 20  0  0  1  0  0  0  0  0999 V2000
   24.7560  -22.4952  -14.7673 N   0  0  0  0  0  0  0  0  0  0  0  0
   26.0800  -22.5730  -15.3727 C   0  0  0  0  0  0  0  0  0  0  0  0
   26.6205  -21.1710  -15.4520 C   0  0  0  0  0  0  0  0  0  0  0  0
   25.4023  -20.3366  -15.0814 C   0  0  0  0  0  0  0  0  0  0  0  0
   24.7883  -21.2543  -14.0075 C   0  0  1  0  0  0  0  0  0  0  0  0
   23.4658  -20.8096  -13.5846 C   0  0  0  0  0  0  0  0  0  0  0  0
   23.3281  -19.7180  -12.9905 O   0  0  0  0  0  0  0  0  0  0  0  0
   22.3318  -21.6064  -13.8426 N   0  0  0  0  0  0  0  0  0  0  0  0
   20.9812  -21.0492  -13.4587 C   0  0  1  0  0  0  0  0  0  0  0  0
   20.0990  -21.2934  -14.6647 C   0  0  0  0  0  0  0  0  0  0  0  0
   20.3256  -20.4190  -15.7877 C   0  0  0  0  0  0  0  0  0  0  0  0
   20.2598  -19.1829  -15.7555 O   0  0  0  0  0  0  0  0  0  0  0  0
   20.5751  -21.9132  -12.3404 C   0  0  0  0  0  0  0  0  0  0  0  0
   20.9277  -23.1404  -12.3799 O   0  0  0  0  0  0  0  0  0  0  0  0
   20.6506  -20.9990  -17.0323 O   0  0  0  0  0  0  0  0  0  0  0  0
   19.8278  -21.5341  -11.1995 N   0  0  0  0  0  0  0  0  0  0  0  0
   19.5997  -22.5345  -10.1384 C   0  0  0  0  0  0  0  0  0  0  0  0
   18.4452  -23.3869  -10.4345 C   0  0  0  0  0  0  0  0  0  0  0  0
   17.8876  -23.3066  -11.5532 O   0  0  0  0  0  0  0  0  0  0  0  0
   17.9668  -24.2731   -9.5002 O   0  0  0  0  0  0  0  0  0  0  0  0
  1  5  1  0
  2  1  1  0
  2  3  1  0
  3  4  1  0
  5  4  1  0
  6  7  2  0
  5  6  1  6
  8  6  1  0
  9  8  1  0
  9 10  1  6
 10 11  1  0
 11 12  2  0
 11 15  1  0
 13  9  1  0
 14 13  2  0
 16 13  1  0
 17 16  1  0
 18 20  1  0
 18 17  1  0
 19 18  2  0
M  END
$$$$
