PDG.pdb
     RDKit          3D

 20 20  0  0  1  0  0  0  0  0999 V2000
   26.6291  -20.7495  -15.3636 N   0  0  0  0  0  0  0  0  0  0  0  0
   28.0837  -20.8257  -15.3004 C   0  0  0  0  0  0  0  0  0  0  0  0
   28.5812  -19.4989  -14.7946 C   0  0  0  0  0  0  0  0  0  0  0  0
   27.3199  -18.6474  -14.8345 C   0  0  0  0  0  0  0  0  0  0  0  0
   26.2888  -19.7082  -14.4055 C   0  0  1  0  0  0  0  0  0  0  0  0
   24.9158  -19.2365  -14.5390 C   0  0  0  0  0  0  0  0  0  0  0  0
   24.4582  -18.3934  -13.7369 O   0  0  0  0  0  0  0  0  0  0  0  0
   24.0932  -19.7267  -15.5737 N   0  0  0  0  0  0  0  0  0  0  0  0
   22.7327  -19.0936  -15.7475 C   0  0  1  0  0  0  0  0  0  0  0  0
   22.5795  -18.8972  -17.2409 C   0  0  0  0  0  0  0  0  0  0  0  0
   23.4050  -17.8679  -17.8203 C   0  0  0  0  0  0  0  0  0  0  0  0
   23.3799  -16.6705  -17.5061 O   0  0  0  0  0  0  0  0  0  0  0  0
   21.8191  -20.1419  -15.2696 C   0  0  0  0  0  0  0  0  0  0  0  0
   22.0256  -21.3372  -15.6702 O   0  0  0  0  0  0  0  0  0  0  0  0
   24.3227  -18.2343  -18.8277 O   0  0  0  0  0  0  0  0  0  0  0  0
   20.7178  -19.9777  -14.3955 N   0  0  0  0  0  0  0  0  0  0  0  0
   19.9014  -21.1596  -14.0561 C   0  0  0  0  0  0  0  0  0  0  0  0
   20.3054  -21.7500  -12.7772 C   0  0  0  0  0  0  0  0  0  0  0  0
   21.3210  -21.3138  -12.1879 O   0  0  0  0  0  0  0  0  0  0  0  0
   19.5841  -22.7759  -12.2167 O   0  0  0  0  0  0  0  0  0  0  0  0
  1  5  1  0
  2  1  1  0
  2  3  1  0
  3  4  1  0
  5  4  1  0
  6  7  2  0
  5  6  1  6
  8  6  1  0
  9  8  1  0
  9 10  1  6
 10 11  1  0
 11 12  2  0
 11 15  1  0
 13  9  1  0
 14 13  2  0
 16 13  1  0
 17 16  1  0
 18 20  1  0
 18 17  1  0
 19 18  2  0
M  END
$$$$
