PDG.pdb
     RDKit          3D

 20 20  0  0  1  0  0  0  0  0999 V2000
   19.1273  -28.4307  -11.9272 N   0  0  0  0  0  0  0  0  0  0  0  0
   19.7015  -29.4107  -12.8413 C   0  0  0  0  0  0  0  0  0  0  0  0
   21.1983  -29.2855  -12.7512 C   0  0  0  0  0  0  0  0  0  0  0  0
   21.3646  -28.0181  -11.9247 C   0  0  0  0  0  0  0  0  0  0  0  0
   20.1829  -28.1966  -10.9530 C   0  0  1  0  0  0  0  0  0  0  0  0
   19.9513  -27.0129  -10.1341 C   0  0  0  0  0  0  0  0  0  0  0  0
   20.8611  -26.5646   -9.4028 O   0  0  0  0  0  0  0  0  0  0  0  0
   18.7000  -26.3639  -10.1606 N   0  0  0  0  0  0  0  0  0  0  0  0
   18.5774  -25.0472   -9.4303 C   0  0  1  0  0  0  0  0  0  0  0  0
   17.4800  -24.2973  -10.1555 C   0  0  0  0  0  0  0  0  0  0  0  0
   17.9253  -23.2954  -11.0907 C   0  0  0  0  0  0  0  0  0  0  0  0
   18.9577  -22.6211  -10.9778 O   0  0  0  0  0  0  0  0  0  0  0  0
   18.1247  -25.4548   -8.0920 C   0  0  0  0  0  0  0  0  0  0  0  0
   17.2419  -26.3751   -8.0185 O   0  0  0  0  0  0  0  0  0  0  0  0
   17.1354  -23.0489  -12.2337 O   0  0  0  0  0  0  0  0  0  0  0  0
   18.5664  -24.9385   -6.8501 N   0  0  0  0  0  0  0  0  0  0  0  0
   18.0778  -25.5683   -5.6078 C   0  0  0  0  0  0  0  0  0  0  0  0
   16.8683  -24.9113   -5.1049 C   0  0  0  0  0  0  0  0  0  0  0  0
   16.3603  -23.9690   -5.7552 O   0  0  0  0  0  0  0  0  0  0  0  0
   16.2848  -25.3162   -3.9291 O   0  0  0  0  0  0  0  0  0  0  0  0
  1  5  1  0
  2  1  1  0
  2  3  1  0
  3  4  1  0
  5  4  1  0
  6  7  2  0
  5  6  1  6
  8  6  1  0
  9  8  1  0
  9 10  1  6
 10 11  1  0
 11 12  2  0
 11 15  1  0
 13  9  1  0
 14 13  2  0
 16 13  1  0
 17 16  1  0
 18 20  1  0
 18 17  1  0
 19 18  2  0
M  END
$$$$
