PDG.pdb
     RDKit          3D

 20 20  0  0  1  0  0  0  0  0999 V2000
   24.3323  -11.0661  -15.7018 N   0  0  0  0  0  0  0  0  0  0  0  0
   25.2160  -12.1787  -16.0288 C   0  0  0  0  0  0  0  0  0  0  0  0
   24.9380  -12.5684  -17.4553 C   0  0  0  0  0  0  0  0  0  0  0  0
   23.6882  -11.7586  -17.7710 C   0  0  0  0  0  0  0  0  0  0  0  0
   24.0215  -10.4715  -16.9933 C   0  0  1  0  0  0  0  0  0  0  0  0
   22.8963   -9.5460  -16.9395 C   0  0  0  0  0  0  0  0  0  0  0  0
   22.5271   -8.9421  -17.9702 O   0  0  0  0  0  0  0  0  0  0  0  0
   22.2153   -9.3249  -15.7250 N   0  0  0  0  0  0  0  0  0  0  0  0
   21.0808   -8.3274  -15.7288 C   0  0  1  0  0  0  0  0  0  0  0  0
   19.9252   -9.0453  -15.0642 C   0  0  0  0  0  0  0  0  0  0  0  0
   19.2572  -10.0316  -15.8753 C   0  0  0  0  0  0  0  0  0  0  0  0
   18.5807   -9.7884  -16.8835 O   0  0  0  0  0  0  0  0  0  0  0  0
   21.5858   -7.2523  -14.8621 C   0  0  0  0  0  0  0  0  0  0  0  0
   22.1150   -7.5865  -13.7485 O   0  0  0  0  0  0  0  0  0  0  0  0
   19.3721  -11.3892  -15.5079 O   0  0  0  0  0  0  0  0  0  0  0  0
   21.5575   -5.8619  -15.1262 N   0  0  0  0  0  0  0  0  0  0  0  0
   22.1533   -4.9415  -14.1379 C   0  0  0  0  0  0  0  0  0  0  0  0
   22.1121   -3.5505  -14.5969 C   0  0  0  0  0  0  0  0  0  0  0  0
   22.5448   -2.6405  -13.8529 O   0  0  0  0  0  0  0  0  0  0  0  0
   21.6049   -3.2322  -15.8332 O   0  0  0  0  0  0  0  0  0  0  0  0
  1  5  1  0
  2  1  1  0
  2  3  1  0
  3  4  1  0
  5  4  1  0
  6  7  2  0
  5  6  1  1
  8  6  1  0
  9  8  1  0
  9 10  1  1
 10 11  1  0
 11 12  2  0
 11 15  1  0
 13  9  1  0
 14 13  2  0
 16 13  1  0
 17 16  1  0
 18 20  1  0
 18 17  1  0
 19 18  2  0
M  END
$$$$
