PDG.pdb
     RDKit          3D

 20 20  0  0  1  0  0  0  0  0999 V2000
   28.5810  -22.1760  -11.7893 N   0  0  0  0  0  0  0  0  0  0  0  0
   30.0145  -22.1415  -11.5257 C   0  0  0  0  0  0  0  0  0  0  0  0
   30.3383  -20.7761  -10.9829 C   0  0  0  0  0  0  0  0  0  0  0  0
   29.0355  -20.0228  -11.2122 C   0  0  0  0  0  0  0  0  0  0  0  0
   28.0359  -21.1544  -10.9077 C   0  0  1  0  0  0  0  0  0  0  0  0
   26.6635  -20.7891  -11.2376 C   0  0  0  0  0  0  0  0  0  0  0  0
   26.0506  -19.9491  -10.5432 O   0  0  0  0  0  0  0  0  0  0  0  0
   26.0167  -21.3797  -12.3423 N   0  0  0  0  0  0  0  0  0  0  0  0
   25.6255  -20.4785  -13.4899 C   0  0  1  0  0  0  0  0  0  0  0  0
   26.5267  -20.8885  -14.6353 C   0  0  0  0  0  0  0  0  0  0  0  0
   26.3887  -20.1139  -15.8427 C   0  0  0  0  0  0  0  0  0  0  0  0
   26.4553  -18.8794  -15.9111 O   0  0  0  0  0  0  0  0  0  0  0  0
   24.2359  -20.8757  -13.7605 C   0  0  0  0  0  0  0  0  0  0  0  0
   23.8126  -20.7744  -14.9615 O   0  0  0  0  0  0  0  0  0  0  0  0
   26.1596  -20.7992  -17.0548 O   0  0  0  0  0  0  0  0  0  0  0  0
   23.2952  -21.3721  -12.8264 N   0  0  0  0  0  0  0  0  0  0  0  0
   21.9239  -21.6622  -13.2892 C   0  0  0  0  0  0  0  0  0  0  0  0
   21.0393  -20.5055  -13.1260 C   0  0  0  0  0  0  0  0  0  0  0  0
   21.5204  -19.4032  -12.7761 O   0  0  0  0  0  0  0  0  0  0  0  0
   19.6887  -20.6150  -13.3521 O   0  0  0  0  0  0  0  0  0  0  0  0
  1  5  1  0
  2  1  1  0
  2  3  1  0
  3  4  1  0
  5  4  1  0
  6  7  2  0
  5  6  1  6
  8  6  1  0
  9  8  1  0
  9 10  1  6
 10 11  1  0
 11 12  2  0
 11 15  1  0
 13  9  1  0
 14 13  2  0
 16 13  1  0
 17 16  1  0
 18 20  1  0
 18 17  1  0
 19 18  2  0
M  END
$$$$
