PDG.pdb
     RDKit          3D

 20 20  0  0  1  0  0  0  0  0999 V2000
   18.7458  -10.4154  -16.0010 N   0  0  0  0  0  0  0  0  0  0  0  0
   18.0500  -11.6961  -16.0376 C   0  0  0  0  0  0  0  0  0  0  0  0
   19.0723  -12.7535  -16.3551 C   0  0  0  0  0  0  0  0  0  0  0  0
   20.2911  -11.9199  -16.7253 C   0  0  0  0  0  0  0  0  0  0  0  0
   20.1265  -10.7727  -15.7108 C   0  0  1  0  0  0  0  0  0  0  0  0
   21.0611   -9.6795  -15.9496 C   0  0  0  0  0  0  0  0  0  0  0  0
   22.2896   -9.8562  -15.7983 O   0  0  0  0  0  0  0  0  0  0  0  0
   20.5872   -8.4147  -16.3537 N   0  0  0  0  0  0  0  0  0  0  0  0
   21.6115   -7.3520  -16.6753 C   0  0  1  0  0  0  0  0  0  0  0  0
   21.0933   -6.6735  -17.9257 C   0  0  0  0  0  0  0  0  0  0  0  0
   21.0994   -7.4814  -19.1191 C   0  0  0  0  0  0  0  0  0  0  0  0
   20.1483   -7.6069  -19.9019 O   0  0  0  0  0  0  0  0  0  0  0  0
   21.5179   -6.4456  -15.5213 C   0  0  0  0  0  0  0  0  0  0  0  0
   20.3645   -6.2590  -15.0049 O   0  0  0  0  0  0  0  0  0  0  0  0
   22.2748   -8.1938  -19.4388 O   0  0  0  0  0  0  0  0  0  0  0  0
   22.5801   -5.7453  -14.9006 N   0  0  0  0  0  0  0  0  0  0  0  0
   22.2932   -4.9551  -13.6873 C   0  0  0  0  0  0  0  0  0  0  0  0
   21.6621   -3.6728  -14.0106 C   0  0  0  0  0  0  0  0  0  0  0  0
   21.4227   -2.8528  -13.0945 O   0  0  0  0  0  0  0  0  0  0  0  0
   21.3298   -3.3589  -15.3060 O   0  0  0  0  0  0  0  0  0  0  0  0
  1  5  1  0
  2  1  1  0
  2  3  1  0
  3  4  1  0
  5  4  1  0
  6  7  2  0
  5  6  1  6
  8  6  1  0
  9  8  1  0
  9 10  1  6
 10 11  1  0
 11 12  2  0
 11 15  1  0
 13  9  1  0
 14 13  2  0
 16 13  1  0
 17 16  1  0
 18 20  1  0
 18 17  1  0
 19 18  2  0
M  END
$$$$
