PDG.pdb
     RDKit          3D

 20 20  0  0  1  0  0  0  0  0999 V2000
   33.0574  -36.5657   -5.7127 N   0  0  0  0  0  0  0  0  0  0  0  0
   33.2010  -35.7863   -6.9365 C   0  0  0  0  0  0  0  0  0  0  0  0
   33.5519  -34.3796   -6.5343 C   0  0  0  0  0  0  0  0  0  0  0  0
   33.3392  -34.4148   -5.0273 C   0  0  0  0  0  0  0  0  0  0  0  0
   33.8529  -35.8373   -4.7357 C   0  0  1  0  0  0  0  0  0  0  0  0
   33.5918  -36.2533   -3.3630 C   0  0  0  0  0  0  0  0  0  0  0  0
   32.6535  -37.0404   -3.1106 O   0  0  0  0  0  0  0  0  0  0  0  0
   34.3953  -35.7720   -2.3093 N   0  0  0  0  0  0  0  0  0  0  0  0
   34.0799  -36.2509   -0.9118 C   0  0  1  0  0  0  0  0  0  0  0  0
   35.3220  -35.9436   -0.1023 C   0  0  0  0  0  0  0  0  0  0  0  0
   36.4007  -36.8899   -0.2359 C   0  0  0  0  0  0  0  0  0  0  0  0
   36.2651  -38.1112   -0.3883 O   0  0  0  0  0  0  0  0  0  0  0  0
   32.9713  -35.3742   -0.5064 C   0  0  0  0  0  0  0  0  0  0  0  0
   32.9244  -34.2029   -1.0141 O   0  0  0  0  0  0  0  0  0  0  0  0
   37.7252  -36.4050   -0.1930 O   0  0  0  0  0  0  0  0  0  0  0  0
   31.9259  -35.6856    0.3958 N   0  0  0  0  0  0  0  0  0  0  0  0
   30.8567  -34.6909    0.6106 C   0  0  0  0  0  0  0  0  0  0  0  0
   29.8648  -35.1604    1.5817 C   0  0  0  0  0  0  0  0  0  0  0  0
   28.9819  -34.3733    1.9939 O   0  0  0  0  0  0  0  0  0  0  0  0
   29.8914  -36.4532    2.0455 O   0  0  0  0  0  0  0  0  0  0  0  0
  1  5  1  0
  2  1  1  0
  2  3  1  0
  3  4  1  0
  5  4  1  0
  6  7  2  0
  5  6  1  1
  8  6  1  0
  9  8  1  0
  9 10  1  1
 10 11  1  0
 11 12  2  0
 11 15  1  0
 13  9  1  0
 14 13  2  0
 16 13  1  0
 17 16  1  0
 18 20  1  0
 18 17  1  0
 19 18  2  0
M  END
$$$$
