PDG.pdb
     RDKit          3D

 20 20  0  0  1  0  0  0  0  0999 V2000
   18.8571   -8.5768  -15.7351 N   0  0  0  0  0  0  0  0  0  0  0  0
   17.9921   -9.7156  -16.0190 C   0  0  0  0  0  0  0  0  0  0  0  0
   18.7330  -10.9570  -15.6021 C   0  0  0  0  0  0  0  0  0  0  0  0
   20.1273  -10.4171  -15.3160 C   0  0  0  0  0  0  0  0  0  0  0  0
   19.7469   -9.0619  -14.6906 C   0  0  1  0  0  0  0  0  0  0  0  0
   20.9044   -8.2003  -14.4815 C   0  0  0  0  0  0  0  0  0  0  0  0
   21.7498   -8.4825  -13.6046 O   0  0  0  0  0  0  0  0  0  0  0  0
   21.0798   -7.0426  -15.2667 N   0  0  0  0  0  0  0  0  0  0  0  0
   22.3987   -6.3142  -15.1570 C   0  0  1  0  0  0  0  0  0  0  0  0
   22.8885   -6.1731  -16.5827 C   0  0  0  0  0  0  0  0  0  0  0  0
   23.0830   -7.4089  -17.2981 C   0  0  0  0  0  0  0  0  0  0  0  0
   23.8386   -8.3255  -16.9487 O   0  0  0  0  0  0  0  0  0  0  0  0
   22.0066   -5.0047  -14.6154 C   0  0  0  0  0  0  0  0  0  0  0  0
   22.9381   -4.1857  -14.3094 O   0  0  0  0  0  0  0  0  0  0  0  0
   22.3628   -7.6097  -18.4949 O   0  0  0  0  0  0  0  0  0  0  0  0
   20.6898   -4.5348  -14.3937 N   0  0  0  0  0  0  0  0  0  0  0  0
   20.5069   -3.1983  -13.7944 C   0  0  0  0  0  0  0  0  0  0  0  0
   19.0897   -2.8446  -13.6777 C   0  0  0  0  0  0  0  0  0  0  0  0
   18.2168   -3.6436  -14.0884 O   0  0  0  0  0  0  0  0  0  0  0  0
   18.7066   -1.6476  -13.1232 O   0  0  0  0  0  0  0  0  0  0  0  0
  1  5  1  0
  2  1  1  0
  2  3  1  0
  3  4  1  0
  5  4  1  0
  6  7  2  0
  5  6  1  6
  8  6  1  0
  9  8  1  0
  9 10  1  6
 10 11  1  0
 11 12  2  0
 11 15  1  0
 13  9  1  0
 14 13  2  0
 16 13  1  0
 17 16  1  0
 18 20  1  0
 18 17  1  0
 19 18  2  0
M  END
$$$$
