PDG.pdb
     RDKit          3D

 20 20  0  0  1  0  0  0  0  0999 V2000
   18.3149  -11.4196  -17.1540 N   0  0  0  0  0  0  0  0  0  0  0  0
   17.5527  -12.6555  -17.2857 C   0  0  0  0  0  0  0  0  0  0  0  0
   18.2738  -13.7139  -16.4960 C   0  0  0  0  0  0  0  0  0  0  0  0
   19.5839  -13.0195  -16.1512 C   0  0  0  0  0  0  0  0  0  0  0  0
   19.0551  -11.5925  -15.9130 C   0  0  1  0  0  0  0  0  0  0  0  0
   20.1293  -10.6205  -15.7491 C   0  0  0  0  0  0  0  0  0  0  0  0
   20.8666  -10.6601  -14.7399 O   0  0  0  0  0  0  0  0  0  0  0  0
   20.3457   -9.6286  -16.7273 N   0  0  0  0  0  0  0  0  0  0  0  0
   21.5103   -8.6877  -16.5261 C   0  0  1  0  0  0  0  0  0  0  0  0
   22.2732   -8.7229  -17.8334 C   0  0  0  0  0  0  0  0  0  0  0  0
   23.4048   -7.8344  -17.9168 C   0  0  0  0  0  0  0  0  0  0  0  0
   24.1004   -7.4715  -16.9589 O   0  0  0  0  0  0  0  0  0  0  0  0
   20.8528   -7.3845  -16.3488 C   0  0  0  0  0  0  0  0  0  0  0  0
   19.8431   -7.1236  -17.0865 O   0  0  0  0  0  0  0  0  0  0  0  0
   23.7653   -7.3272  -19.1833 O   0  0  0  0  0  0  0  0  0  0  0  0
   21.2133   -6.3668  -15.4333 N   0  0  0  0  0  0  0  0  0  0  0  0
   20.3954   -5.1391  -15.3817 C   0  0  0  0  0  0  0  0  0  0  0  0
   20.8396   -4.2345  -14.3180 C   0  0  0  0  0  0  0  0  0  0  0  0
   21.7875   -4.5741  -13.5729 O   0  0  0  0  0  0  0  0  0  0  0  0
   20.2294   -3.0186  -14.1278 O   0  0  0  0  0  0  0  0  0  0  0  0
  1  5  1  0
  2  1  1  0
  2  3  1  0
  3  4  1  0
  5  4  1  0
  6  7  2  0
  5  6  1  6
  8  6  1  0
  9  8  1  0
  9 10  1  6
 10 11  1  0
 11 12  2  0
 11 15  1  0
 13  9  1  0
 14 13  2  0
 16 13  1  0
 17 16  1  0
 18 20  1  0
 18 17  1  0
 19 18  2  0
M  END
$$$$
