PDG.pdb
     RDKit          3D

 20 20  0  0  1  0  0  0  0  0999 V2000
   26.2047  -32.6230   -3.0849 N   0  0  0  0  0  0  0  0  0  0  0  0
   25.1715  -32.4831   -4.1040 C   0  0  0  0  0  0  0  0  0  0  0  0
   24.0756  -33.4581   -3.7690 C   0  0  0  0  0  0  0  0  0  0  0  0
   24.7105  -34.2851   -2.6598 C   0  0  0  0  0  0  0  0  0  0  0  0
   25.4969  -33.1740   -1.9389 C   0  0  1  0  0  0  0  0  0  0  0  0
   26.3914  -33.6996   -0.9145 C   0  0  0  0  0  0  0  0  0  0  0  0
   27.5757  -33.9839   -1.1975 O   0  0  0  0  0  0  0  0  0  0  0  0
   25.9284  -33.8910    0.4033 N   0  0  0  0  0  0  0  0  0  0  0  0
   26.9264  -34.3596    1.4360 C   0  0  1  0  0  0  0  0  0  0  0  0
   26.4985  -33.6922    2.7259 C   0  0  0  0  0  0  0  0  0  0  0  0
   26.8369  -32.2965    2.8455 C   0  0  0  0  0  0  0  0  0  0  0  0
   27.7416  -31.7247    2.2228 O   0  0  0  0  0  0  0  0  0  0  0  0
   26.6787  -35.8076    1.4987 C   0  0  0  0  0  0  0  0  0  0  0  0
   27.4121  -36.5021    2.2808 O   0  0  0  0  0  0  0  0  0  0  0  0
   26.0879  -31.5006    3.7381 O   0  0  0  0  0  0  0  0  0  0  0  0
   25.6986  -36.5354    0.7821 N   0  0  0  0  0  0  0  0  0  0  0  0
   25.6614  -38.0040    0.9264 C   0  0  0  0  0  0  0  0  0  0  0  0
   26.3951  -38.6744   -0.1503 C   0  0  0  0  0  0  0  0  0  0  0  0
   27.0472  -37.9914   -0.9733 O   0  0  0  0  0  0  0  0  0  0  0  0
   26.3768  -40.0429   -0.2683 O   0  0  0  0  0  0  0  0  0  0  0  0
  1  5  1  0
  2  1  1  0
  2  3  1  0
  3  4  1  0
  5  4  1  0
  6  7  2  0
  5  6  1  1
  8  6  1  0
  9  8  1  0
  9 10  1  1
 10 11  1  0
 11 12  2  0
 11 15  1  0
 13  9  1  0
 14 13  2  0
 16 13  1  0
 17 16  1  0
 18 20  1  0
 18 17  1  0
 19 18  2  0
M  END
$$$$
