PDG.pdb
     RDKit          3D

 20 20  0  0  1  0  0  0  0  0999 V2000
   27.5490  -22.1621  -15.7100 N   0  0  0  0  0  0  0  0  0  0  0  0
   28.7001  -22.4903  -16.5425 C   0  0  0  0  0  0  0  0  0  0  0  0
   28.8507  -21.3877  -17.5551 C   0  0  0  0  0  0  0  0  0  0  0  0
   27.5659  -20.5951  -17.3593 C   0  0  0  0  0  0  0  0  0  0  0  0
   27.4280  -20.7168  -15.8300 C   0  0  1  0  0  0  0  0  0  0  0  0
   26.1509  -20.2088  -15.3436 C   0  0  0  0  0  0  0  0  0  0  0  0
   25.9026  -18.9840  -15.3856 O   0  0  0  0  0  0  0  0  0  0  0  0
   25.1856  -21.0944  -14.8226 N   0  0  0  0  0  0  0  0  0  0  0  0
   23.8736  -20.5072  -14.3579 C   0  0  1  0  0  0  0  0  0  0  0  0
   22.8087  -21.3135  -15.0709 C   0  0  0  0  0  0  0  0  0  0  0  0
   22.1873  -20.6638  -16.1972 C   0  0  0  0  0  0  0  0  0  0  0  0
   22.3644  -20.9674  -17.3845 O   0  0  0  0  0  0  0  0  0  0  0  0
   23.8702  -20.8086  -12.9188 C   0  0  0  0  0  0  0  0  0  0  0  0
   24.1847  -21.9935  -12.5596 O   0  0  0  0  0  0  0  0  0  0  0  0
   21.3017  -19.5939  -15.9474 O   0  0  0  0  0  0  0  0  0  0  0  0
   23.5573  -19.9186  -11.8634 N   0  0  0  0  0  0  0  0  0  0  0  0
   23.6359  -20.4122  -10.4746 C   0  0  0  0  0  0  0  0  0  0  0  0
   22.3460  -20.9265  -10.0069 C   0  0  0  0  0  0  0  0  0  0  0  0
   21.3903  -21.0232  -10.8108 O   0  0  0  0  0  0  0  0  0  0  0  0
   22.1719  -21.3039   -8.6975 O   0  0  0  0  0  0  0  0  0  0  0  0
  1  5  1  0
  2  1  1  0
  2  3  1  0
  3  4  1  0
  5  4  1  0
  6  7  2  0
  5  6  1  6
  8  6  1  0
  9  8  1  0
  9 10  1  6
 10 11  1  0
 11 12  2  0
 11 15  1  0
 13  9  1  0
 14 13  2  0
 16 13  1  0
 17 16  1  0
 18 20  1  0
 18 17  1  0
 19 18  2  0
M  END
$$$$
