PDG.pdb
     RDKit          3D

 20 20  0  0  1  0  0  0  0  0999 V2000
   22.0940  -12.2468  -16.9782 N   0  0  0  0  0  0  0  0  0  0  0  0
   22.5878  -13.3833  -17.7465 C   0  0  0  0  0  0  0  0  0  0  0  0
   22.2136  -13.1493  -19.1849 C   0  0  0  0  0  0  0  0  0  0  0  0
   21.2825  -11.9492  -19.0827 C   0  0  0  0  0  0  0  0  0  0  0  0
   21.9955  -11.1751  -17.9580 C   0  0  1  0  0  0  0  0  0  0  0  0
   21.2160  -10.0381  -17.4836 C   0  0  0  0  0  0  0  0  0  0  0  0
   21.0276   -9.0495  -18.2257 O   0  0  0  0  0  0  0  0  0  0  0  0
   20.6680  -10.0443  -16.1846 N   0  0  0  0  0  0  0  0  0  0  0  0
   19.8355   -8.8543  -15.7691 C   0  0  1  0  0  0  0  0  0  0  0  0
   18.6616   -9.4413  -15.0143 C   0  0  0  0  0  0  0  0  0  0  0  0
   17.6752  -10.1119  -15.8232 C   0  0  0  0  0  0  0  0  0  0  0  0
   17.1268   -9.6328  -16.8246 O   0  0  0  0  0  0  0  0  0  0  0  0
   20.7290   -8.1328  -14.8510 C   0  0  0  0  0  0  0  0  0  0  0  0
   21.4034   -8.8230  -14.0140 O   0  0  0  0  0  0  0  0  0  0  0  0
   17.2909  -11.4206  -15.4616 O   0  0  0  0  0  0  0  0  0  0  0  0
   20.9366   -6.7338  -14.7891 N   0  0  0  0  0  0  0  0  0  0  0  0
   21.8908   -6.2032  -13.7958 C   0  0  0  0  0  0  0  0  0  0  0  0
   22.0520   -4.7520  -13.9184 C   0  0  0  0  0  0  0  0  0  0  0  0
   21.4320   -4.1342  -14.8145 O   0  0  0  0  0  0  0  0  0  0  0  0
   22.8747   -4.0606  -13.0627 O   0  0  0  0  0  0  0  0  0  0  0  0
  1  5  1  0
  2  1  1  0
  2  3  1  0
  3  4  1  0
  5  4  1  0
  6  7  2  0
  5  6  1  1
  8  6  1  0
  9  8  1  0
  9 10  1  1
 10 11  1  0
 11 12  2  0
 11 15  1  0
 13  9  1  0
 14 13  2  0
 16 13  1  0
 17 16  1  0
 18 20  1  0
 18 17  1  0
 19 18  2  0
M  END
$$$$
