PDG.pdb
     RDKit          3D

 20 20  0  0  1  0  0  0  0  0999 V2000
   28.6218  -21.8051  -12.2491 N   0  0  0  0  0  0  0  0  0  0  0  0
   29.9125  -22.0844  -11.6312 C   0  0  0  0  0  0  0  0  0  0  0  0
   30.6320  -20.7715  -11.4815 C   0  0  0  0  0  0  0  0  0  0  0  0
   29.7457  -19.8273  -12.2817 C   0  0  0  0  0  0  0  0  0  0  0  0
   28.3673  -20.4108  -11.9186 C   0  0  1  0  0  0  0  0  0  0  0  0
   27.2894  -19.8252  -12.7066 C   0  0  0  0  0  0  0  0  0  0  0  0
   26.9868  -18.6204  -12.5634 O   0  0  0  0  0  0  0  0  0  0  0  0
   26.5801  -20.6124  -13.6365 N   0  0  0  0  0  0  0  0  0  0  0  0
   25.5369  -19.9250  -14.4857 C   0  0  1  0  0  0  0  0  0  0  0  0
   25.7576  -20.4579  -15.8856 C   0  0  0  0  0  0  0  0  0  0  0  0
   26.6376  -19.6757  -16.7168 C   0  0  0  0  0  0  0  0  0  0  0  0
   26.4769  -18.4816  -17.0021 O   0  0  0  0  0  0  0  0  0  0  0  0
   24.2741  -20.4369  -13.9332 C   0  0  0  0  0  0  0  0  0  0  0  0
   24.3172  -21.5210  -13.2589 O   0  0  0  0  0  0  0  0  0  0  0  0
   27.7801  -20.3030  -17.2576 O   0  0  0  0  0  0  0  0  0  0  0  0
   22.9907  -19.8532  -14.0603 N   0  0  0  0  0  0  0  0  0  0  0  0
   21.8528  -20.4876  -13.3664 C   0  0  0  0  0  0  0  0  0  0  0  0
   20.5919  -19.7953  -13.6453 C   0  0  0  0  0  0  0  0  0  0  0  0
   20.5942  -18.7737  -14.3700 O   0  0  0  0  0  0  0  0  0  0  0  0
   19.4071  -20.2530  -13.1218 O   0  0  0  0  0  0  0  0  0  0  0  0
  1  5  1  0
  2  1  1  0
  2  3  1  0
  3  4  1  0
  5  4  1  0
  6  7  2  0
  5  6  1  6
  8  6  1  0
  9  8  1  0
  9 10  1  6
 10 11  1  0
 11 12  2  0
 11 15  1  0
 13  9  1  0
 14 13  2  0
 16 13  1  0
 17 16  1  0
 18 20  1  0
 18 17  1  0
 19 18  2  0
M  END
$$$$
