PDG.pdb
     RDKit          3D

 20 20  0  0  1  0  0  0  0  0999 V2000
   24.1644  -11.6708  -15.4417 N   0  0  0  0  0  0  0  0  0  0  0  0
   24.8406  -12.9603  -15.5172 C   0  0  0  0  0  0  0  0  0  0  0  0
   24.6852  -13.4668  -16.9255 C   0  0  0  0  0  0  0  0  0  0  0  0
   23.6795  -12.4848  -17.5101 C   0  0  0  0  0  0  0  0  0  0  0  0
   24.1580  -11.1951  -16.8171 C   0  0  1  0  0  0  0  0  0  0  0  0
   23.2466  -10.0773  -17.0301 C   0  0  0  0  0  0  0  0  0  0  0  0
   23.1790   -9.5236  -18.1492 O   0  0  0  0  0  0  0  0  0  0  0  0
   22.4339   -9.6120  -15.9762 N   0  0  0  0  0  0  0  0  0  0  0  0
   21.5222   -8.4410  -16.2582 C   0  0  1  0  0  0  0  0  0  0  0  0
   20.1216   -8.9732  -16.0401 C   0  0  0  0  0  0  0  0  0  0  0  0
   19.0608   -8.0085  -16.1844 C   0  0  0  0  0  0  0  0  0  0  0  0
   18.2743   -7.6720  -15.2893 O   0  0  0  0  0  0  0  0  0  0  0  0
   21.8798   -7.4841  -15.2007 C   0  0  0  0  0  0  0  0  0  0  0  0
   21.8966   -7.9092  -13.9962 O   0  0  0  0  0  0  0  0  0  0  0  0
   18.8889   -7.3857  -17.4390 O   0  0  0  0  0  0  0  0  0  0  0  0
   22.2193   -6.1199  -15.3664 N   0  0  0  0  0  0  0  0  0  0  0  0
   22.5449   -5.3211  -14.1686 C   0  0  0  0  0  0  0  0  0  0  0  0
   21.5790   -4.2396  -13.9576 C   0  0  0  0  0  0  0  0  0  0  0  0
   21.9712   -3.0501  -13.9625 O   0  0  0  0  0  0  0  0  0  0  0  0
   20.2484   -4.5144  -13.7545 O   0  0  0  0  0  0  0  0  0  0  0  0
  1  5  1  0
  2  1  1  0
  2  3  1  0
  3  4  1  0
  5  4  1  0
  6  7  2  0
  5  6  1  1
  8  6  1  0
  9  8  1  0
  9 10  1  1
 10 11  1  0
 11 12  2  0
 11 15  1  0
 13  9  1  0
 14 13  2  0
 16 13  1  0
 17 16  1  0
 18 20  1  0
 18 17  1  0
 19 18  2  0
M  END
$$$$
