HKG.pdb
     RDKit          3D

 24 24  0  0  1  0  0  0  0  0999 V2000
    8.8007  -15.7227   21.1698 N   0  0  0  0  0  0  0  0  0  0  0  0
    7.9403  -14.8229   21.8985 C   0  0  1  0  0  0  0  0  0  0  0  0
    6.8050  -14.4462   20.9790 C   0  0  0  0  0  0  0  0  0  0  0  0
    7.3331  -13.9313   19.6903 C   0  0  0  0  0  0  0  0  0  0  0  0
    8.3399  -13.0167   19.4991 C   0  0  0  0  0  0  0  0  0  0  0  0
    8.5229  -12.8130   18.1718 N   0  0  0  0  0  0  0  0  0  0  0  0
    7.6370  -13.5945   17.5324 C   0  0  0  0  0  0  0  0  0  0  0  0
    6.9094  -14.2778   18.4386 N   0  0  0  0  0  0  0  0  0  0  0  0
    7.5072  -15.3434   23.2017 C   0  0  0  0  0  0  0  0  0  0  0  0
    6.7649  -14.5916   23.9036 O   0  0  0  0  0  0  0  0  0  0  0  0
    7.8648  -16.6049   23.6989 N   0  0  0  0  0  0  0  0  0  0  0  0
    7.5660  -17.0790   25.0397 C   0  0  1  0  0  0  0  0  0  0  0  0
    6.3873  -18.0191   24.9724 C   0  0  0  0  0  0  0  0  0  0  0  0
    6.1519  -18.6411   23.6435 C   0  0  0  0  0  0  0  0  0  0  0  0
    5.0382  -19.6414   23.6007 C   0  0  0  0  0  0  0  0  0  0  0  0
    4.9632  -20.1716   22.1715 C   0  0  0  0  0  0  0  0  0  0  0  0
    3.9120  -21.1561   22.0315 N   0  0  0  0  0  0  0  0  0  0  0  0
    8.7338  -17.9214   25.4675 C   0  0  0  0  0  0  0  0  0  0  0  0
    8.8454  -18.3768   26.6348 O   0  0  0  0  0  0  0  0  0  0  0  0
    9.7808  -18.2490   24.5664 N   0  0  0  0  0  0  0  0  0  0  0  0
   11.1033  -17.6321   24.6797 C   0  0  0  0  0  0  0  0  0  0  0  0
   11.9391  -18.3154   25.6723 C   0  0  0  0  0  0  0  0  0  0  0  0
   13.2473  -17.8819   25.8308 O   0  0  0  0  0  0  0  0  0  0  0  0
   11.5511  -19.2698   26.3920 O   0  0  0  0  0  0  0  0  0  0  0  0
  2  1  1  6
  2  9  1  0
  3  2  1  0
  3  4  1  0
  4  8  1  0
  4  5  2  0
  5  6  1  0
  7  6  1  0
  8  7  2  0
  9 10  2  0
 11 12  1  0
 11  9  1  0
 12 18  1  0
 13 14  1  0
 12 13  1  6
 14 15  1  0
 16 15  1  0
 16 17  1  0
 18 19  2  0
 20 18  1  0
 20 21  1  0
 22 23  1  0
 22 21  1  0
 24 22  2  0
M  END
$$$$
