HKG.pdb
     RDKit          3D

 24 24  0  0  1  0  0  0  0  0999 V2000
    7.7115  -15.9774   20.2548 N   0  0  0  0  0  0  0  0  0  0  0  0
    8.8675  -15.1285   20.4087 C   0  0  1  0  0  0  0  0  0  0  0  0
    8.5936  -13.8566   19.6447 C   0  0  0  0  0  0  0  0  0  0  0  0
    8.2342  -14.1663   18.2376 C   0  0  0  0  0  0  0  0  0  0  0  0
    8.1210  -15.4032   17.6511 C   0  0  0  0  0  0  0  0  0  0  0  0
    7.7735  -15.2588   16.3492 N   0  0  0  0  0  0  0  0  0  0  0  0
    7.6688  -13.9396   16.1184 C   0  0  0  0  0  0  0  0  0  0  0  0
    7.9449  -13.2650   17.2526 N   0  0  0  0  0  0  0  0  0  0  0  0
    9.2622  -14.9134   21.8068 C   0  0  0  0  0  0  0  0  0  0  0  0
   10.3478  -14.2893   22.0087 O   0  0  0  0  0  0  0  0  0  0  0  0
    8.5137  -15.3533   22.9080 N   0  0  0  0  0  0  0  0  0  0  0  0
    8.9432  -15.2504   24.2925 C   0  0  1  0  0  0  0  0  0  0  0  0
    7.7490  -14.9054   25.1484 C   0  0  0  0  0  0  0  0  0  0  0  0
    7.6577  -13.4800   25.5584 C   0  0  0  0  0  0  0  0  0  0  0  0
    6.5033  -13.1512   26.4540 C   0  0  0  0  0  0  0  0  0  0  0  0
    6.5865  -11.6599   26.7676 C   0  0  0  0  0  0  0  0  0  0  0  0
    5.5100  -11.2467   27.6419 N   0  0  0  0  0  0  0  0  0  0  0  0
    9.3618  -16.6295   24.7159 C   0  0  0  0  0  0  0  0  0  0  0  0
    9.1555  -17.6456   24.0035 O   0  0  0  0  0  0  0  0  0  0  0  0
   10.0180  -16.8574   25.9540 N   0  0  0  0  0  0  0  0  0  0  0  0
   10.4402  -18.2001   26.3558 C   0  0  0  0  0  0  0  0  0  0  0  0
   11.0149  -18.2087   27.7051 C   0  0  0  0  0  0  0  0  0  0  0  0
   11.4695  -19.4177   28.2112 O   0  0  0  0  0  0  0  0  0  0  0  0
   11.1247  -17.1933   28.4373 O   0  0  0  0  0  0  0  0  0  0  0  0
  2  1  1  1
  2  9  1  0
  3  2  1  0
  3  4  1  0
  4  8  1  0
  4  5  2  0
  5  6  1  0
  7  6  1  0
  8  7  2  0
  9 10  2  0
 11 12  1  0
 11  9  1  0
 12 18  1  0
 13 14  1  0
 12 13  1  1
 14 15  1  0
 16 15  1  0
 16 17  1  0
 18 19  2  0
 20 18  1  0
 20 21  1  0
 22 23  1  0
 22 21  1  0
 24 22  2  0
M  END
$$$$
