HKG.pdb
     RDKit          3D

 24 24  0  0  1  0  0  0  0  0999 V2000
    9.9250  -12.5529   19.2540 N   0  0  0  0  0  0  0  0  0  0  0  0
    9.6966  -13.9193   19.6561 C   0  0  1  0  0  0  0  0  0  0  0  0
   10.0480  -14.7967   18.4801 C   0  0  0  0  0  0  0  0  0  0  0  0
    9.0214  -14.6687   17.4150 C   0  0  0  0  0  0  0  0  0  0  0  0
    8.6457  -13.5324   16.7409 C   0  0  0  0  0  0  0  0  0  0  0  0
    7.6758  -13.8354   15.8443 N   0  0  0  0  0  0  0  0  0  0  0  0
    7.4429  -15.1538   15.9538 C   0  0  0  0  0  0  0  0  0  0  0  0
    8.2502  -15.6723   16.9009 N   0  0  0  0  0  0  0  0  0  0  0  0
   10.3762  -14.2907   20.9039 C   0  0  0  0  0  0  0  0  0  0  0  0
   11.4436  -13.6662   21.1856 O   0  0  0  0  0  0  0  0  0  0  0  0
    9.9131  -15.2806   21.7827 N   0  0  0  0  0  0  0  0  0  0  0  0
   10.6292  -15.7387   22.9614 C   0  0  1  0  0  0  0  0  0  0  0  0
    9.6323  -16.2792   23.9573 C   0  0  0  0  0  0  0  0  0  0  0  0
   10.2228  -16.8341   25.2029 C   0  0  0  0  0  0  0  0  0  0  0  0
    9.2420  -17.4645   26.1427 C   0  0  0  0  0  0  0  0  0  0  0  0
   10.0052  -17.8293   27.4130 C   0  0  0  0  0  0  0  0  0  0  0  0
    9.1243  -18.4005   28.4088 N   0  0  0  0  0  0  0  0  0  0  0  0
   11.4540  -16.9182   22.5312 C   0  0  0  0  0  0  0  0  0  0  0  0
   10.9692  -18.0728   22.4116 O   0  0  0  0  0  0  0  0  0  0  0  0
   12.8363  -16.7873   22.2352 N   0  0  0  0  0  0  0  0  0  0  0  0
   13.8042  -16.4166   23.2688 C   0  0  0  0  0  0  0  0  0  0  0  0
   15.1508  -16.2405   22.7151 C   0  0  0  0  0  0  0  0  0  0  0  0
   16.1777  -15.9194   23.5909 O   0  0  0  0  0  0  0  0  0  0  0  0
   15.4401  -16.3607   21.4981 O   0  0  0  0  0  0  0  0  0  0  0  0
  2  1  1  6
  2  9  1  0
  3  2  1  0
  3  4  1  0
  4  8  1  0
  4  5  2  0
  5  6  1  0
  7  6  1  0
  8  7  2  0
  9 10  2  0
 11 12  1  0
 11  9  1  0
 12 18  1  0
 13 14  1  0
 12 13  1  1
 14 15  1  0
 16 15  1  0
 16 17  1  0
 18 19  2  0
 20 18  1  0
 20 21  1  0
 22 23  1  0
 22 21  1  0
 24 22  2  0
M  END
$$$$
