HKG.pdb
     RDKit          3D

 24 24  0  0  1  0  0  0  0  0999 V2000
    8.2740  -16.0172   19.8759 N   0  0  0  0  0  0  0  0  0  0  0  0
    8.7041  -14.6600   20.1076 C   0  0  1  0  0  0  0  0  0  0  0  0
    7.7474  -13.7554   19.3708 C   0  0  0  0  0  0  0  0  0  0  0  0
    7.7666  -14.0574   17.9172 C   0  0  0  0  0  0  0  0  0  0  0  0
    8.1905  -13.2441   16.8946 C   0  0  0  0  0  0  0  0  0  0  0  0
    8.0470  -13.8892   15.7114 N   0  0  0  0  0  0  0  0  0  0  0  0
    7.5362  -15.1004   15.9881 C   0  0  0  0  0  0  0  0  0  0  0  0
    7.3608  -15.2170   17.3197 N   0  0  0  0  0  0  0  0  0  0  0  0
    8.8697  -14.3257   21.5281 C   0  0  0  0  0  0  0  0  0  0  0  0
    9.4531  -13.2323   21.7977 O   0  0  0  0  0  0  0  0  0  0  0  0
    8.4231  -15.1379   22.5805 N   0  0  0  0  0  0  0  0  0  0  0  0
    8.6347  -14.8535   23.9899 C   0  0  1  0  0  0  0  0  0  0  0  0
    7.3568  -14.3009   24.5723 C   0  0  0  0  0  0  0  0  0  0  0  0
    7.4909  -13.6890   25.9198 C   0  0  0  0  0  0  0  0  0  0  0  0
    6.3585  -12.7972   26.3261 C   0  0  0  0  0  0  0  0  0  0  0  0
    6.8133  -12.0254   27.5617 C   0  0  0  0  0  0  0  0  0  0  0  0
    5.7366  -11.2280   28.1083 N   0  0  0  0  0  0  0  0  0  0  0  0
    8.8510  -16.1768   24.6672 C   0  0  0  0  0  0  0  0  0  0  0  0
    7.8978  -16.8959   25.0627 O   0  0  0  0  0  0  0  0  0  0  0  0
   10.1558  -16.6871   24.8970 N   0  0  0  0  0  0  0  0  0  0  0  0
   10.8845  -16.3856   26.1301 C   0  0  0  0  0  0  0  0  0  0  0  0
   10.5221  -17.3041   27.2145 C   0  0  0  0  0  0  0  0  0  0  0  0
   11.5483  -17.8963   27.9361 O   0  0  0  0  0  0  0  0  0  0  0  0
    9.3422  -17.5930   27.5367 O   0  0  0  0  0  0  0  0  0  0  0  0
  2  1  1  1
  2  9  1  0
  3  2  1  0
  3  4  1  0
  4  8  1  0
  4  5  2  0
  5  6  1  0
  7  6  1  0
  8  7  2  0
  9 10  2  0
 11 12  1  0
 11  9  1  0
 12 18  1  0
 13 14  1  0
 12 13  1  1
 14 15  1  0
 16 15  1  0
 16 17  1  0
 18 19  2  0
 20 18  1  0
 20 21  1  0
 22 23  1  0
 22 21  1  0
 24 22  2  0
M  END
$$$$
