HKG.pdb
     RDKit          3D

 24 24  0  0  1  0  0  0  0  0999 V2000
    8.1992  -17.0971   20.2911 N   0  0  0  0  0  0  0  0  0  0  0  0
    9.1034  -16.5528   21.2744 C   0  0  1  0  0  0  0  0  0  0  0  0
    8.4312  -15.3459   21.8810 C   0  0  0  0  0  0  0  0  0  0  0  0
    8.2625  -14.2809   20.8602 C   0  0  0  0  0  0  0  0  0  0  0  0
    8.6775  -14.2974   19.5509 C   0  0  0  0  0  0  0  0  0  0  0  0
    8.3320  -13.1329   18.9498 N   0  0  0  0  0  0  0  0  0  0  0  0
    7.7037  -12.3889   19.8751 C   0  0  0  0  0  0  0  0  0  0  0  0
    7.6539  -13.0707   21.0371 N   0  0  0  0  0  0  0  0  0  0  0  0
    9.5685  -17.5371   22.2602 C   0  0  0  0  0  0  0  0  0  0  0  0
    8.7419  -18.4316   22.6141 O   0  0  0  0  0  0  0  0  0  0  0  0
   10.8552  -17.5385   22.8179 N   0  0  0  0  0  0  0  0  0  0  0  0
   11.3697  -18.5688   23.7041 C   0  0  1  0  0  0  0  0  0  0  0  0
   12.7322  -18.9957   23.2152 C   0  0  0  0  0  0  0  0  0  0  0  0
   12.7258  -20.0719   22.1905 C   0  0  0  0  0  0  0  0  0  0  0  0
   13.5057  -21.2975   22.5542 C   0  0  0  0  0  0  0  0  0  0  0  0
   13.4178  -22.2559   21.3697 C   0  0  0  0  0  0  0  0  0  0  0  0
   14.0509  -23.5218   21.6707 N   0  0  0  0  0  0  0  0  0  0  0  0
   11.6029  -17.9130   25.0354 C   0  0  0  0  0  0  0  0  0  0  0  0
   12.0945  -16.7601   25.1425 O   0  0  0  0  0  0  0  0  0  0  0  0
   11.2765  -18.5686   26.2516 N   0  0  0  0  0  0  0  0  0  0  0  0
   11.4609  -17.9086   27.5451 C   0  0  0  0  0  0  0  0  0  0  0  0
   11.2771  -18.8406   28.6624 C   0  0  0  0  0  0  0  0  0  0  0  0
   11.5429  -18.3808   29.9440 O   0  0  0  0  0  0  0  0  0  0  0  0
   10.8941  -20.0312   28.5392 O   0  0  0  0  0  0  0  0  0  0  0  0
  2  1  1  6
  2  9  1  0
  3  2  1  0
  3  4  1  0
  4  8  1  0
  4  5  2  0
  5  6  1  0
  7  6  1  0
  8  7  2  0
  9 10  2  0
 11 12  1  0
 11  9  1  0
 12 18  1  0
 13 14  1  0
 12 13  1  6
 14 15  1  0
 16 15  1  0
 16 17  1  0
 18 19  2  0
 20 18  1  0
 20 21  1  0
 22 23  1  0
 22 21  1  0
 24 22  2  0
M  END
$$$$
