HKG.pdb
     RDKit          3D

 24 24  0  0  1  0  0  0  0  0999 V2000
    9.5644  -17.9083   27.8967 N   0  0  0  0  0  0  0  0  0  0  0  0
   10.8794  -17.7386   28.4649 C   0  0  1  0  0  0  0  0  0  0  0  0
   10.7708  -16.6825   29.5369 C   0  0  0  0  0  0  0  0  0  0  0  0
   10.2640  -15.4114   28.9605 C   0  0  0  0  0  0  0  0  0  0  0  0
    9.8454  -15.1796   27.6730 C   0  0  0  0  0  0  0  0  0  0  0  0
    9.4565  -13.8875   27.5472 N   0  0  0  0  0  0  0  0  0  0  0  0
    9.6295  -13.3104   28.7478 C   0  0  0  0  0  0  0  0  0  0  0  0
   10.1179  -14.2207   29.6141 N   0  0  0  0  0  0  0  0  0  0  0  0
   11.4938  -18.9924   28.9202 C   0  0  0  0  0  0  0  0  0  0  0  0
   10.8549  -19.6656   29.7846 O   0  0  0  0  0  0  0  0  0  0  0  0
   12.7264  -19.4738   28.4559 N   0  0  0  0  0  0  0  0  0  0  0  0
   13.3127  -20.7472   28.8389 C   0  0  1  0  0  0  0  0  0  0  0  0
   14.1105  -21.2853   27.6763 C   0  0  0  0  0  0  0  0  0  0  0  0
   13.3053  -21.7101   26.5018 C   0  0  0  0  0  0  0  0  0  0  0  0
   14.1004  -22.2189   25.3392 C   0  0  0  0  0  0  0  0  0  0  0  0
   13.1069  -22.5952   24.2435 C   0  0  0  0  0  0  0  0  0  0  0  0
   13.7888  -23.0212   23.0405 N   0  0  0  0  0  0  0  0  0  0  0  0
   14.3156  -20.4510   29.9174 C   0  0  0  0  0  0  0  0  0  0  0  0
   15.1571  -19.5213   29.8192 O   0  0  0  0  0  0  0  0  0  0  0  0
   14.3640  -21.2137   31.1139 N   0  0  0  0  0  0  0  0  0  0  0  0
   15.3869  -20.9685   32.1317 C   0  0  0  0  0  0  0  0  0  0  0  0
   15.3262  -21.9573   33.2132 C   0  0  0  0  0  0  0  0  0  0  0  0
   16.2526  -21.8555   34.2409 O   0  0  0  0  0  0  0  0  0  0  0  0
   14.4904  -22.8937   33.2739 O   0  0  0  0  0  0  0  0  0  0  0  0
  2  1  1  1
  2  9  1  0
  3  2  1  0
  3  4  1  0
  4  8  1  0
  4  5  2  0
  5  6  1  0
  7  6  1  0
  8  7  2  0
  9 10  2  0
 11 12  1  0
 11  9  1  0
 12 18  1  0
 13 14  1  0
 12 13  1  6
 14 15  1  0
 16 15  1  0
 16 17  1  0
 18 19  2  0
 20 18  1  0
 20 21  1  0
 22 23  1  0
 22 21  1  0
 24 22  2  0
M  END
$$$$
