HKG.pdb
     RDKit          3D

 24 24  0  0  1  0  0  0  0  0999 V2000
    9.7086  -12.3807   19.5747 N   0  0  0  0  0  0  0  0  0  0  0  0
    9.4053  -13.5984   20.2862 C   0  0  1  0  0  0  0  0  0  0  0  0
    9.4612  -14.7268   19.2862 C   0  0  0  0  0  0  0  0  0  0  0  0
    8.4181  -14.5465   18.2449 C   0  0  0  0  0  0  0  0  0  0  0  0
    7.5929  -13.4642   18.0594 C   0  0  0  0  0  0  0  0  0  0  0  0
    6.7799  -13.6890   16.9988 N   0  0  0  0  0  0  0  0  0  0  0  0
    7.0917  -14.9048   16.5202 C   0  0  0  0  0  0  0  0  0  0  0  0
    8.0821  -15.4366   17.2645 N   0  0  0  0  0  0  0  0  0  0  0  0
   10.2387  -13.8119   21.4764 C   0  0  0  0  0  0  0  0  0  0  0  0
   11.4481  -13.4359   21.4070 O   0  0  0  0  0  0  0  0  0  0  0  0
    9.7738  -14.3978   22.6627 N   0  0  0  0  0  0  0  0  0  0  0  0
   10.5710  -14.5716   23.8652 C   0  0  1  0  0  0  0  0  0  0  0  0
    9.6487  -14.6124   25.0591 C   0  0  0  0  0  0  0  0  0  0  0  0
   10.3215  -14.8097   26.3693 C   0  0  0  0  0  0  0  0  0  0  0  0
    9.4065  -14.8298   27.5546 C   0  0  0  0  0  0  0  0  0  0  0  0
   10.2844  -14.9049   28.8008 C   0  0  0  0  0  0  0  0  0  0  0  0
    9.4864  -14.8764   30.0075 N   0  0  0  0  0  0  0  0  0  0  0  0
   11.1851  -15.9398   23.7792 C   0  0  0  0  0  0  0  0  0  0  0  0
   10.5008  -16.9745   23.5704 O   0  0  0  0  0  0  0  0  0  0  0  0
   12.5831  -16.1355   23.9310 N   0  0  0  0  0  0  0  0  0  0  0  0
   13.1746  -17.4732   23.8762 C   0  0  0  0  0  0  0  0  0  0  0  0
   14.6239  -17.4366   24.0977 C   0  0  0  0  0  0  0  0  0  0  0  0
   15.3173  -18.6379   24.0689 O   0  0  0  0  0  0  0  0  0  0  0  0
   15.2838  -16.3889   24.3124 O   0  0  0  0  0  0  0  0  0  0  0  0
  2  1  1  6
  2  9  1  0
  3  2  1  0
  3  4  1  0
  4  8  1  0
  4  5  2  0
  5  6  1  0
  7  6  1  0
  8  7  2  0
  9 10  2  0
 11 12  1  0
 11  9  1  0
 12 18  1  0
 13 14  1  0
 12 13  1  1
 14 15  1  0
 16 15  1  0
 16 17  1  0
 18 19  2  0
 20 18  1  0
 20 21  1  0
 22 23  1  0
 22 21  1  0
 24 22  2  0
M  END
$$$$
