HKG.pdb
     RDKit          3D

 24 24  0  0  1  0  0  0  0  0999 V2000
    5.7404  -16.2014   20.9442 N   0  0  0  0  0  0  0  0  0  0  0  0
    6.7738  -15.9478   21.9182 C   0  0  1  0  0  0  0  0  0  0  0  0
    6.9607  -14.4525   21.9935 C   0  0  0  0  0  0  0  0  0  0  0  0
    7.7994  -13.9792   20.8633 C   0  0  0  0  0  0  0  0  0  0  0  0
    8.3642  -14.7313   19.8622 C   0  0  0  0  0  0  0  0  0  0  0  0
    9.0561  -13.9238   19.0222 N   0  0  0  0  0  0  0  0  0  0  0  0
    8.9275  -12.6719   19.4919 C   0  0  0  0  0  0  0  0  0  0  0  0
    8.1691  -12.6894   20.6064 N   0  0  0  0  0  0  0  0  0  0  0  0
    6.5316  -16.5866   23.2183 C   0  0  0  0  0  0  0  0  0  0  0  0
    5.4102  -16.3656   23.7680 O   0  0  0  0  0  0  0  0  0  0  0  0
    7.4589  -17.4131   23.8691 N   0  0  0  0  0  0  0  0  0  0  0  0
    7.2159  -18.0937   25.1299 C   0  0  1  0  0  0  0  0  0  0  0  0
    7.2520  -19.5839   24.8937 C   0  0  0  0  0  0  0  0  0  0  0  0
    7.0187  -20.4194   26.1002 C   0  0  0  0  0  0  0  0  0  0  0  0
    7.0367  -21.8975   25.8603 C   0  0  0  0  0  0  0  0  0  0  0  0
    6.7385  -22.5747   27.1951 C   0  0  0  0  0  0  0  0  0  0  0  0
    6.8318  -24.0145   27.0856 N   0  0  0  0  0  0  0  0  0  0  0  0
    8.3931  -17.7938   26.0136 C   0  0  0  0  0  0  0  0  0  0  0  0
    9.5752  -17.7875   25.5836 O   0  0  0  0  0  0  0  0  0  0  0  0
    8.2284  -17.4994   27.3927 N   0  0  0  0  0  0  0  0  0  0  0  0
    9.3662  -17.1168   28.2303 C   0  0  0  0  0  0  0  0  0  0  0  0
    9.9265  -18.2680   28.9456 C   0  0  0  0  0  0  0  0  0  0  0  0
   10.9574  -18.0367   29.8448 O   0  0  0  0  0  0  0  0  0  0  0  0
    9.5364  -19.4537   28.8002 O   0  0  0  0  0  0  0  0  0  0  0  0
  2  1  1  6
  2  9  1  0
  3  2  1  0
  3  4  1  0
  4  8  1  0
  4  5  2  0
  5  6  1  0
  7  6  1  0
  8  7  2  0
  9 10  2  0
 11 12  1  0
 11  9  1  0
 12 18  1  0
 13 14  1  0
 12 13  1  6
 14 15  1  0
 16 15  1  0
 16 17  1  0
 18 19  2  0
 20 18  1  0
 20 21  1  0
 22 23  1  0
 22 21  1  0
 24 22  2  0
M  END
$$$$
