HKG.pdb
     RDKit          3D

 24 24  0  0  1  0  0  0  0  0999 V2000
    9.0871  -16.2565   19.9871 N   0  0  0  0  0  0  0  0  0  0  0  0
    8.9599  -14.9999   20.6841 C   0  0  1  0  0  0  0  0  0  0  0  0
    7.5927  -14.4473   20.3646 C   0  0  0  0  0  0  0  0  0  0  0  0
    7.4285  -14.2915   18.8971 C   0  0  0  0  0  0  0  0  0  0  0  0
    7.6613  -13.1700   18.1390 C   0  0  0  0  0  0  0  0  0  0  0  0
    7.3927  -13.4371   16.8378 N   0  0  0  0  0  0  0  0  0  0  0  0
    6.9935  -14.7183   16.7779 C   0  0  0  0  0  0  0  0  0  0  0  0
    7.0099  -15.2490   18.0171 N   0  0  0  0  0  0  0  0  0  0  0  0
    9.2486  -15.0882   22.1213 C   0  0  0  0  0  0  0  0  0  0  0  0
    9.0265  -14.0515   22.8175 O   0  0  0  0  0  0  0  0  0  0  0  0
    9.7464  -16.2383   22.7505 N   0  0  0  0  0  0  0  0  0  0  0  0
   10.2168  -16.2896   24.1245 C   0  0  1  0  0  0  0  0  0  0  0  0
    9.7127  -17.5600   24.7647 C   0  0  0  0  0  0  0  0  0  0  0  0
   10.1835  -17.7958   26.1542 C   0  0  0  0  0  0  0  0  0  0  0  0
    9.7938  -19.1181   26.7393 C   0  0  0  0  0  0  0  0  0  0  0  0
   10.3879  -19.1825   28.1436 C   0  0  0  0  0  0  0  0  0  0  0  0
   10.1232  -20.4611   28.7673 N   0  0  0  0  0  0  0  0  0  0  0  0
   11.7110  -16.4314   24.0618 C   0  0  0  0  0  0  0  0  0  0  0  0
   12.4473  -16.2641   25.0679 O   0  0  0  0  0  0  0  0  0  0  0  0
   12.3735  -16.7648   22.8513 N   0  0  0  0  0  0  0  0  0  0  0  0
   13.4504  -15.9291   22.3180 C   0  0  0  0  0  0  0  0  0  0  0  0
   14.7141  -16.1516   23.0281 C   0  0  0  0  0  0  0  0  0  0  0  0
   15.8480  -15.5061   22.5566 O   0  0  0  0  0  0  0  0  0  0  0  0
   14.8418  -16.8890   24.0377 O   0  0  0  0  0  0  0  0  0  0  0  0
  2  1  1  1
  2  9  1  0
  3  2  1  0
  3  4  1  0
  4  8  1  0
  4  5  2  0
  5  6  1  0
  7  6  1  0
  8  7  2  0
  9 10  2  0
 11 12  1  0
 11  9  1  0
 12 18  1  0
 13 14  1  0
 12 13  1  6
 14 15  1  0
 16 15  1  0
 16 17  1  0
 18 19  2  0
 20 18  1  0
 20 21  1  0
 22 23  1  0
 22 21  1  0
 24 22  2  0
M  END
$$$$
