HKG.pdb
     RDKit          3D

 24 24  0  0  1  0  0  0  0  0999 V2000
    8.5556  -15.7925   20.9613 N   0  0  0  0  0  0  0  0  0  0  0  0
    7.9661  -14.7269   21.7345 C   0  0  1  0  0  0  0  0  0  0  0  0
    6.7448  -14.2534   20.9859 C   0  0  0  0  0  0  0  0  0  0  0  0
    7.1059  -13.8708   19.5974 C   0  0  0  0  0  0  0  0  0  0  0  0
    8.3370  -13.9571   18.9943 C   0  0  0  0  0  0  0  0  0  0  0  0
    8.2508  -13.5080   17.7186 N   0  0  0  0  0  0  0  0  0  0  0  0
    6.9737  -13.1417   17.5206 C   0  0  0  0  0  0  0  0  0  0  0  0
    6.2681  -13.3556   18.6493 N   0  0  0  0  0  0  0  0  0  0  0  0
    7.7079  -15.0848   23.1353 C   0  0  0  0  0  0  0  0  0  0  0  0
    7.1665  -14.1997   23.8648 O   0  0  0  0  0  0  0  0  0  0  0  0
    8.0223  -16.3314   23.6954 N   0  0  0  0  0  0  0  0  0  0  0  0
    7.9895  -16.6294   25.1174 C   0  0  1  0  0  0  0  0  0  0  0  0
    7.5482  -18.0604   25.3049 C   0  0  0  0  0  0  0  0  0  0  0  0
    7.4981  -18.5252   26.7154 C   0  0  0  0  0  0  0  0  0  0  0  0
    7.1544  -19.9719   26.8938 C   0  0  0  0  0  0  0  0  0  0  0  0
    7.2208  -20.2700   28.3892 C   0  0  0  0  0  0  0  0  0  0  0  0
    6.7195  -21.5952   28.6829 N   0  0  0  0  0  0  0  0  0  0  0  0
    9.4110  -16.5761   25.6002 C   0  0  0  0  0  0  0  0  0  0  0  0
    9.7104  -16.6115   26.8215 O   0  0  0  0  0  0  0  0  0  0  0  0
   10.4988  -16.4821   24.6927 N   0  0  0  0  0  0  0  0  0  0  0  0
   11.8792  -16.3754   25.1679 C   0  0  0  0  0  0  0  0  0  0  0  0
   12.8276  -16.2384   24.0576 C   0  0  0  0  0  0  0  0  0  0  0  0
   14.1740  -16.1058   24.3644 O   0  0  0  0  0  0  0  0  0  0  0  0
   12.5042  -16.2327   22.8433 O   0  0  0  0  0  0  0  0  0  0  0  0
  2  1  1  6
  2  9  1  0
  3  2  1  0
  3  4  1  0
  4  8  1  0
  4  5  2  0
  5  6  1  0
  7  6  1  0
  8  7  2  0
  9 10  2  0
 11 12  1  0
 11  9  1  0
 12 18  1  0
 13 14  1  0
 12 13  1  6
 14 15  1  0
 16 15  1  0
 16 17  1  0
 18 19  2  0
 20 18  1  0
 20 21  1  0
 22 23  1  0
 22 21  1  0
 24 22  2  0
M  END
$$$$
