HKG.pdb
     RDKit          3D

 24 24  0  0  1  0  0  0  0  0999 V2000
    8.7651  -15.6350   21.7625 N   0  0  0  0  0  0  0  0  0  0  0  0
    7.7210  -14.9434   22.4782 C   0  0  1  0  0  0  0  0  0  0  0  0
    6.8175  -14.3094   21.4496 C   0  0  0  0  0  0  0  0  0  0  0  0
    7.6229  -13.6670   20.3803 C   0  0  0  0  0  0  0  0  0  0  0  0
    7.2642  -13.4504   19.0721 C   0  0  0  0  0  0  0  0  0  0  0  0
    8.2795  -12.8354   18.4183 N   0  0  0  0  0  0  0  0  0  0  0  0
    9.2703  -12.6663   19.3094 C   0  0  0  0  0  0  0  0  0  0  0  0
    8.8875  -13.1648   20.5021 N   0  0  0  0  0  0  0  0  0  0  0  0
    7.0173  -15.7831   23.4563 C   0  0  0  0  0  0  0  0  0  0  0  0
    5.9763  -15.2941   23.9911 O   0  0  0  0  0  0  0  0  0  0  0  0
    7.4294  -17.0730   23.8206 N   0  0  0  0  0  0  0  0  0  0  0  0
    6.7799  -17.8931   24.8293 C   0  0  1  0  0  0  0  0  0  0  0  0
    6.8756  -19.3412   24.4151 C   0  0  0  0  0  0  0  0  0  0  0  0
    6.2060  -20.3038   25.3280 C   0  0  0  0  0  0  0  0  0  0  0  0
    6.3018  -21.7401   24.9149 C   0  0  0  0  0  0  0  0  0  0  0  0
    5.5263  -22.5579   25.9440 C   0  0  0  0  0  0  0  0  0  0  0  0
    5.3512  -23.9251   25.5038 N   0  0  0  0  0  0  0  0  0  0  0  0
    7.6060  -17.7722   26.0781 C   0  0  0  0  0  0  0  0  0  0  0  0
    7.1911  -18.1578   27.2013 O   0  0  0  0  0  0  0  0  0  0  0  0
    8.9098  -17.2109   26.0527 N   0  0  0  0  0  0  0  0  0  0  0  0
    9.7063  -17.0810   27.2738 C   0  0  0  0  0  0  0  0  0  0  0  0
   10.3706  -18.3401   27.6265 C   0  0  0  0  0  0  0  0  0  0  0  0
   11.1752  -18.3572   28.7565 O   0  0  0  0  0  0  0  0  0  0  0  0
   10.2612  -19.4084   26.9739 O   0  0  0  0  0  0  0  0  0  0  0  0
  2  1  1  6
  2  9  1  0
  3  2  1  0
  3  4  1  0
  4  8  1  0
  4  5  2  0
  5  6  1  0
  7  6  1  0
  8  7  2  0
  9 10  2  0
 11 12  1  0
 11  9  1  0
 12 18  1  0
 13 14  1  0
 12 13  1  6
 14 15  1  0
 16 15  1  0
 16 17  1  0
 18 19  2  0
 20 18  1  0
 20 21  1  0
 22 23  1  0
 22 21  1  0
 24 22  2  0
M  END
$$$$
