HKG.pdb
     RDKit          3D

 24 24  0  0  1  0  0  0  0  0999 V2000
    6.2742  -20.9966   23.4688 N   0  0  0  0  0  0  0  0  0  0  0  0
    6.6878  -19.7986   24.1578 C   0  0  1  0  0  0  0  0  0  0  0  0
    7.4826  -20.2290   25.3659 C   0  0  0  0  0  0  0  0  0  0  0  0
    6.6744  -21.1361   26.2197 C   0  0  0  0  0  0  0  0  0  0  0  0
    5.3965  -21.5865   25.9944 C   0  0  0  0  0  0  0  0  0  0  0  0
    5.0149  -22.3983   27.0102 N   0  0  0  0  0  0  0  0  0  0  0  0
    6.0462  -22.4580   27.8688 C   0  0  0  0  0  0  0  0  0  0  0  0
    7.0585  -21.6988   27.4037 N   0  0  0  0  0  0  0  0  0  0  0  0
    7.3824  -18.8312   23.2984 C   0  0  0  0  0  0  0  0  0  0  0  0
    8.2002  -19.2992   22.4493 O   0  0  0  0  0  0  0  0  0  0  0  0
    7.1900  -17.4438   23.3671 N   0  0  0  0  0  0  0  0  0  0  0  0
    7.9023  -16.4704   22.5565 C   0  0  1  0  0  0  0  0  0  0  0  0
    7.1147  -15.1832   22.5372 C   0  0  0  0  0  0  0  0  0  0  0  0
    7.7400  -14.0727   21.7731 C   0  0  0  0  0  0  0  0  0  0  0  0
    7.2623  -13.9276   20.3612 C   0  0  0  0  0  0  0  0  0  0  0  0
    8.1019  -12.8311   19.7115 C   0  0  0  0  0  0  0  0  0  0  0  0
    7.6494  -12.5514   18.3658 N   0  0  0  0  0  0  0  0  0  0  0  0
    9.1775  -16.1556   23.2854 C   0  0  0  0  0  0  0  0  0  0  0  0
    9.2003  -15.8591   24.5077 O   0  0  0  0  0  0  0  0  0  0  0  0
   10.4337  -16.1772   22.6242 N   0  0  0  0  0  0  0  0  0  0  0  0
   11.6753  -15.8778   23.3393 C   0  0  0  0  0  0  0  0  0  0  0  0
   12.8375  -15.9028   22.4452 C   0  0  0  0  0  0  0  0  0  0  0  0
   14.0752  -15.5712   22.9771 O   0  0  0  0  0  0  0  0  0  0  0  0
   12.7901  -16.2047   21.2262 O   0  0  0  0  0  0  0  0  0  0  0  0
  2  1  1  6
  2  9  1  0
  3  2  1  0
  3  4  1  0
  4  8  1  0
  4  5  2  0
  5  6  1  0
  7  6  1  0
  8  7  2  0
  9 10  2  0
 11 12  1  0
 11  9  1  0
 12 18  1  0
 13 14  1  0
 12 13  1  1
 14 15  1  0
 16 15  1  0
 16 17  1  0
 18 19  2  0
 20 18  1  0
 20 21  1  0
 22 23  1  0
 22 21  1  0
 24 22  2  0
M  END
$$$$
