NGV.pdb
     RDKit          3D

 20 19  0  0  1  0  0  0  0  0999 V2000
   16.9879  -20.4918  -13.2642 N   0  0  0  0  0  0  0  0  0  0  0  0
   17.4791  -21.8159  -13.4378 C   0  0  0  0  0  0  0  0  0  0  0  0
   16.7263  -22.7352  -13.8546 O   0  0  0  0  0  0  0  0  0  0  0  0
   18.8914  -22.0876  -13.1182 C   0  0  0  0  0  0  0  0  0  0  0  0
   19.5564  -20.8550  -12.5231 C   0  0  2  0  0  0  0  0  0  0  0  0
   19.5683  -19.8456  -13.5408 N   0  0  0  0  0  0  0  0  0  0  0  0
   20.9609  -21.1916  -12.1236 C   0  0  0  0  0  0  0  0  0  0  0  0
   21.1802  -22.1259  -11.3005 O   0  0  0  0  0  0  0  0  0  0  0  0
   22.0404  -20.4641  -12.6676 N   0  0  0  0  0  0  0  0  0  0  0  0
   23.4225  -20.7642  -12.4213 C   0  0  0  0  0  0  0  0  0  0  0  0
   24.2351  -20.4302  -13.5918 C   0  0  0  0  0  0  0  0  0  0  0  0
   23.5994  -19.9640  -14.5964 O   0  0  0  0  0  0  0  0  0  0  0  0
   28.4613  -20.9244  -13.9442 C   0  0  0  0  0  0  0  0  0  0  0  0
   27.7599  -19.7009  -14.4727 C   0  0  2  0  0  0  0  0  0  0  0  0
   27.7633  -18.5923  -13.4593 C   0  0  0  0  0  0  0  0  0  0  0  0
   26.3184  -20.0447  -14.8407 C   0  0  2  0  0  0  0  0  0  0  0  0
   25.6422  -20.5919  -13.6743 N   0  0  0  0  0  0  0  0  0  0  0  0
   26.2859  -21.0306  -15.9571 C   0  0  0  0  0  0  0  0  0  0  0  0
   26.4679  -20.5925  -17.2611 O   0  0  0  0  0  0  0  0  0  0  0  0
   26.0992  -22.2626  -15.7840 O   0  0  0  0  0  0  0  0  0  0  0  0
  1  2  1  0
  2  3  2  0
  4  2  1  0
  4  5  1  0
  5  6  1  6
  7  5  1  0
  8  7  2  0
  9  7  1  0
 10  9  1  0
 11 17  1  0
 11 10  1  0
 12 11  2  0
 14 13  1  1
 14 15  1  0
 16 17  1  1
 16 14  1  0
 18 16  1  0
 19 18  1  0
 20 18  2  0
M  END
$$$$
