NGV.pdb
     RDKit          3D

 20 19  0  0  1  0  0  0  0  0999 V2000
   17.2472  -16.9787  -16.2505 N   0  0  0  0  0  0  0  0  0  0  0  0
   17.6526  -16.8290  -17.6062 C   0  0  0  0  0  0  0  0  0  0  0  0
   17.6839  -17.8183  -18.3846 O   0  0  0  0  0  0  0  0  0  0  0  0
   18.0357  -15.4875  -18.0797 C   0  0  0  0  0  0  0  0  0  0  0  0
   17.9141  -14.4651  -16.9591 C   0  0  2  0  0  0  0  0  0  0  0  0
   16.6225  -13.8551  -17.0789 N   0  0  0  0  0  0  0  0  0  0  0  0
   18.9836  -13.4271  -17.1148 C   0  0  0  0  0  0  0  0  0  0  0  0
   20.2010  -13.7472  -16.9960 O   0  0  0  0  0  0  0  0  0  0  0  0
   18.6307  -12.0901  -17.3945 N   0  0  0  0  0  0  0  0  0  0  0  0
   19.5764  -11.0460  -17.6715 C   0  0  0  0  0  0  0  0  0  0  0  0
   20.0547  -10.4450  -16.4258 C   0  0  0  0  0  0  0  0  0  0  0  0
   19.2901  -10.5817  -15.4120 O   0  0  0  0  0  0  0  0  0  0  0  0
   24.0083   -9.2230  -15.6744 C   0  0  0  0  0  0  0  0  0  0  0  0
   23.0505   -9.7103  -14.6193 C   0  0  2  0  0  0  0  0  0  0  0  0
   23.0833  -11.2076  -14.5053 C   0  0  0  0  0  0  0  0  0  0  0  0
   21.6309   -9.2601  -14.9561 C   0  0  2  0  0  0  0  0  0  0  0  0
   21.2771   -9.7393  -16.2837 N   0  0  0  0  0  0  0  0  0  0  0  0
   21.5292   -7.7746  -14.9073 C   0  0  0  0  0  0  0  0  0  0  0  0
   21.4039   -7.1382  -13.6806 O   0  0  0  0  0  0  0  0  0  0  0  0
   21.5505   -7.0477  -15.9338 O   0  0  0  0  0  0  0  0  0  0  0  0
  1  2  1  0
  2  3  2  0
  4  2  1  0
  4  5  1  0
  5  6  1  6
  7  5  1  0
  8  7  2  0
  9  7  1  0
 10  9  1  0
 11 17  1  0
 11 10  1  0
 12 11  2  0
 14 13  1  6
 14 15  1  0
 16 17  1  6
 16 14  1  0
 18 16  1  0
 19 18  1  0
 20 18  2  0
M  END
$$$$
