NGV.pdb
     RDKit          3D

 20 19  0  0  1  0  0  0  0  0999 V2000
   30.2198  -33.2619  -18.4721 N   0  0  0  0  0  0  0  0  0  0  0  0
   29.6913  -33.4382  -17.1628 C   0  0  0  0  0  0  0  0  0  0  0  0
   29.7460  -34.5577  -16.5889 O   0  0  0  0  0  0  0  0  0  0  0  0
   29.0773  -32.2789  -16.4923 C   0  0  0  0  0  0  0  0  0  0  0  0
   29.2048  -31.0293  -17.3513 C   0  0  2  0  0  0  0  0  0  0  0  0
   30.2982  -30.2640  -16.8283 N   0  0  0  0  0  0  0  0  0  0  0  0
   27.9382  -30.2335  -17.2626 C   0  0  0  0  0  0  0  0  0  0  0  0
   26.8560  -30.7106  -17.7097 O   0  0  0  0  0  0  0  0  0  0  0  0
   27.9538  -28.9492  -16.6789 N   0  0  0  0  0  0  0  0  0  0  0  0
   26.7765  -28.1893  -16.3665 C   0  0  0  0  0  0  0  0  0  0  0  0
   27.0328  -26.7578  -16.5309 C   0  0  0  0  0  0  0  0  0  0  0  0
   28.2353  -26.3802  -16.3258 O   0  0  0  0  0  0  0  0  0  0  0  0
   25.2834  -24.1894  -19.1367 C   0  0  0  0  0  0  0  0  0  0  0  0
   26.5995  -23.9944  -18.4310 C   0  0  2  0  0  0  0  0  0  0  0  0
   27.6882  -24.8017  -19.0785 C   0  0  0  0  0  0  0  0  0  0  0  0
   26.4707  -24.4034  -16.9656 C   0  0  2  0  0  0  0  0  0  0  0  0
   26.0542  -25.7955  -16.8900 N   0  0  0  0  0  0  0  0  0  0  0  0
   25.4801  -23.5370  -16.2673 C   0  0  0  0  0  0  0  0  0  0  0  0
   25.8243  -22.2336  -15.9383 O   0  0  0  0  0  0  0  0  0  0  0  0
   24.3259  -23.9253  -15.9516 O   0  0  0  0  0  0  0  0  0  0  0  0
  1  2  1  0
  2  3  2  0
  4  2  1  0
  4  5  1  0
  5  6  1  1
  7  5  1  0
  8  7  2  0
  9  7  1  0
 10  9  1  0
 11 17  1  0
 11 10  1  0
 12 11  2  0
 14 13  1  6
 14 15  1  0
 16 17  1  6
 16 14  1  0
 18 16  1  0
 19 18  1  0
 20 18  2  0
M  END
$$$$
