NGV.pdb
     RDKit          3D

 20 19  0  0  1  0  0  0  0  0999 V2000
   14.6999  -13.9046  -13.3518 N   0  0  0  0  0  0  0  0  0  0  0  0
   14.3240  -13.6710  -14.7041 C   0  0  0  0  0  0  0  0  0  0  0  0
   13.6563  -14.5240  -15.3461 O   0  0  0  0  0  0  0  0  0  0  0  0
   14.7345  -12.4059  -15.3376 C   0  0  0  0  0  0  0  0  0  0  0  0
   15.5430  -11.5552  -14.3689 C   0  0  2  0  0  0  0  0  0  0  0  0
   14.6149  -10.7349  -13.6474 N   0  0  0  0  0  0  0  0  0  0  0  0
   16.4935  -10.6907  -15.1401 C   0  0  0  0  0  0  0  0  0  0  0  0
   17.4331  -11.2155  -15.8037 O   0  0  0  0  0  0  0  0  0  0  0  0
   16.3391   -9.2885  -15.1252 N   0  0  0  0  0  0  0  0  0  0  0  0
   17.1679   -8.3766  -15.8620 C   0  0  0  0  0  0  0  0  0  0  0  0
   18.1226   -7.7178  -14.9696 C   0  0  0  0  0  0  0  0  0  0  0  0
   17.8443   -7.7642  -13.7241 O   0  0  0  0  0  0  0  0  0  0  0  0
   21.8820   -8.1886  -14.5480 C   0  0  0  0  0  0  0  0  0  0  0  0
   21.6016   -6.7150  -14.6823 C   0  0  2  0  0  0  0  0  0  0  0  0
   22.4682   -5.9103  -13.7564 C   0  0  0  0  0  0  0  0  0  0  0  0
   20.1332   -6.4336  -14.3722 C   0  0  2  0  0  0  0  0  0  0  0  0
   19.2998   -7.0492  -15.3938 N   0  0  0  0  0  0  0  0  0  0  0  0
   19.8816   -4.9659  -14.3262 C   0  0  0  0  0  0  0  0  0  0  0  0
   20.0834   -4.2749  -13.1400 O   0  0  0  0  0  0  0  0  0  0  0  0
   19.4889   -4.3022  -15.3201 O   0  0  0  0  0  0  0  0  0  0  0  0
  1  2  1  0
  2  3  2  0
  4  2  1  0
  4  5  1  0
  5  6  1  6
  7  5  1  0
  8  7  2  0
  9  7  1  0
 10  9  1  0
 11 17  1  0
 11 10  1  0
 12 11  2  0
 14 13  1  1
 14 15  1  0
 16 17  1  6
 16 14  1  0
 18 16  1  0
 19 18  1  0
 20 18  2  0
M  END
$$$$
