NGV.pdb
     RDKit          3D

 20 19  0  0  1  0  0  0  0  0999 V2000
   21.6714  -21.8525  -16.8655 N   0  0  0  0  0  0  0  0  0  0  0  0
   22.9651  -21.2599  -16.8612 C   0  0  0  0  0  0  0  0  0  0  0  0
   23.9710  -21.9009  -17.2647 O   0  0  0  0  0  0  0  0  0  0  0  0
   23.1013  -19.8766  -16.3730 C   0  0  0  0  0  0  0  0  0  0  0  0
   21.7897  -19.3822  -15.7806 C   0  0  2  0  0  0  0  0  0  0  0  0
   20.8335  -19.3330  -16.8474 N   0  0  0  0  0  0  0  0  0  0  0  0
   21.9872  -18.0106  -15.2104 C   0  0  0  0  0  0  0  0  0  0  0  0
   22.7529  -17.8395  -14.2189 O   0  0  0  0  0  0  0  0  0  0  0  0
   21.3172  -16.9082  -15.7817 N   0  0  0  0  0  0  0  0  0  0  0  0
   21.4900  -15.5483  -15.3553 C   0  0  0  0  0  0  0  0  0  0  0  0
   20.6902  -14.6463  -16.1851 C   0  0  0  0  0  0  0  0  0  0  0  0
   20.7073  -14.8821  -17.4401 O   0  0  0  0  0  0  0  0  0  0  0  0
   18.2156  -11.8029  -14.5735 C   0  0  0  0  0  0  0  0  0  0  0  0
   17.8907  -12.2536  -15.9733 C   0  0  2  0  0  0  0  0  0  0  0  0
   16.8353  -13.3223  -15.9689 C   0  0  0  0  0  0  0  0  0  0  0  0
   19.1486  -12.7883  -16.6538 C   0  0  2  0  0  0  0  0  0  0  0  0
   19.9243  -13.5581  -15.6932 N   0  0  0  0  0  0  0  0  0  0  0  0
   19.9697  -11.6661  -17.1886 C   0  0  0  0  0  0  0  0  0  0  0  0
   19.5947  -11.0495  -18.3738 O   0  0  0  0  0  0  0  0  0  0  0  0
   21.0045  -11.2356  -16.6174 O   0  0  0  0  0  0  0  0  0  0  0  0
  1  2  1  0
  2  3  2  0
  4  2  1  0
  4  5  1  0
  5  6  1  6
  7  5  1  0
  8  7  2  0
  9  7  1  0
 10  9  1  0
 11 17  1  0
 11 10  1  0
 12 11  2  0
 14 13  1  1
 14 15  1  0
 16 17  1  1
 16 14  1  0
 18 16  1  0
 19 18  1  0
 20 18  2  0
M  END
$$$$
