NGV.pdb
     RDKit          3D

 20 19  0  0  1  0  0  0  0  0999 V2000
   20.6973  -12.6519  -16.6530 N   0  0  0  0  0  0  0  0  0  0  0  0
   21.0481  -11.2928  -16.8865 C   0  0  0  0  0  0  0  0  0  0  0  0
   21.1737  -10.8498  -18.0585 O   0  0  0  0  0  0  0  0  0  0  0  0
   21.2615  -10.4137  -15.7237 C   0  0  0  0  0  0  0  0  0  0  0  0
   22.4611   -9.5046  -15.9479 C   0  0  2  0  0  0  0  0  0  0  0  0
   23.6246  -10.3405  -15.9956 N   0  0  0  0  0  0  0  0  0  0  0  0
   22.5740   -8.5398  -14.8069 C   0  0  0  0  0  0  0  0  0  0  0  0
   22.8810   -8.9547  -13.6527 O   0  0  0  0  0  0  0  0  0  0  0  0
   22.3373   -7.1657  -15.0217 N   0  0  0  0  0  0  0  0  0  0  0  0
   22.3811   -6.1675  -13.9908 C   0  0  0  0  0  0  0  0  0  0  0  0
   22.0559   -4.8503  -14.5397 C   0  0  0  0  0  0  0  0  0  0  0  0
   22.4195   -4.6446  -15.7464 O   0  0  0  0  0  0  0  0  0  0  0  0
   19.0518   -2.3469  -13.1729 C   0  0  0  0  0  0  0  0  0  0  0  0
   19.6052   -2.3380  -14.5735 C   0  0  2  0  0  0  0  0  0  0  0  0
   18.9523   -3.3910  -15.4225 C   0  0  0  0  0  0  0  0  0  0  0  0
   21.1126   -2.5791  -14.5397 C   0  0  2  0  0  0  0  0  0  0  0  0
   21.3849   -3.8205  -13.8312 N   0  0  0  0  0  0  0  0  0  0  0  0
   21.8073   -1.4460  -13.8668 C   0  0  0  0  0  0  0  0  0  0  0  0
   22.3262   -1.6228  -12.5921 O   0  0  0  0  0  0  0  0  0  0  0  0
   21.9544   -0.3147  -14.3969 O   0  0  0  0  0  0  0  0  0  0  0  0
  1  2  1  0
  2  3  2  0
  4  2  1  0
  4  5  1  0
  5  6  1  1
  7  5  1  0
  8  7  2  0
  9  7  1  0
 10  9  1  0
 11 17  1  0
 11 10  1  0
 12 11  2  0
 14 13  1  1
 14 15  1  0
 16 17  1  1
 16 14  1  0
 18 16  1  0
 19 18  1  0
 20 18  2  0
M  END
$$$$
