NGV.pdb
     RDKit          3D

 20 19  0  0  1  0  0  0  0  0999 V2000
   20.3274   -7.1718  -15.8392 N   0  0  0  0  0  0  0  0  0  0  0  0
   21.2984   -7.2281  -14.8006 C   0  0  0  0  0  0  0  0  0  0  0  0
   20.9672   -7.0663  -13.5966 O   0  0  0  0  0  0  0  0  0  0  0  0
   22.7030   -7.4806  -15.1666 C   0  0  0  0  0  0  0  0  0  0  0  0
   22.8439   -7.6626  -16.6708 C   0  0  2  0  0  0  0  0  0  0  0  0
   22.6898   -9.0609  -16.9458 N   0  0  0  0  0  0  0  0  0  0  0  0
   24.2046   -7.2061  -17.1017 C   0  0  0  0  0  0  0  0  0  0  0  0
   24.5475   -5.9989  -16.9474 O   0  0  0  0  0  0  0  0  0  0  0  0
   25.1044   -8.1256  -17.6805 N   0  0  0  0  0  0  0  0  0  0  0  0
   26.4622   -7.8166  -18.0298 C   0  0  0  0  0  0  0  0  0  0  0  0
   27.3141   -8.9950  -17.8642 C   0  0  0  0  0  0  0  0  0  0  0  0
   28.5428   -8.8423  -18.1769 O   0  0  0  0  0  0  0  0  0  0  0  0
   28.6549  -13.2175  -15.9235 C   0  0  0  0  0  0  0  0  0  0  0  0
   27.7501  -12.0142  -15.9621 C   0  0  2  0  0  0  0  0  0  0  0  0
   26.3231  -12.3984  -15.6939 C   0  0  0  0  0  0  0  0  0  0  0  0
   27.8428  -11.3360  -17.3270 C   0  0  2  0  0  0  0  0  0  0  0  0
   26.8685  -10.2575  -17.3949 N   0  0  0  0  0  0  0  0  0  0  0  0
   27.5899  -12.3199  -18.4168 C   0  0  0  0  0  0  0  0  0  0  0  0
   28.6508  -13.0406  -18.9465 O   0  0  0  0  0  0  0  0  0  0  0  0
   26.4476  -12.5406  -18.8951 O   0  0  0  0  0  0  0  0  0  0  0  0
  1  2  1  0
  2  3  2  0
  4  2  1  0
  4  5  1  0
  5  6  1  1
  7  5  1  0
  8  7  2  0
  9  7  1  0
 10  9  1  0
 11 17  1  0
 11 10  1  0
 12 11  2  0
 14 13  1  6
 14 15  1  0
 16 17  1  1
 16 14  1  0
 18 16  1  0
 19 18  1  0
 20 18  2  0
M  END
$$$$
