NGV.pdb
     RDKit          3D

 20 19  0  0  1  0  0  0  0  0999 V2000
   29.1056  -19.8092  -18.1436 N   0  0  0  0  0  0  0  0  0  0  0  0
   28.8645  -18.4242  -17.9240 C   0  0  0  0  0  0  0  0  0  0  0  0
   29.1417  -17.5715  -18.8081 O   0  0  0  0  0  0  0  0  0  0  0  0
   28.2818  -18.0093  -16.6360 C   0  0  0  0  0  0  0  0  0  0  0  0
   28.0861  -19.2096  -15.7212 C   0  0  2  0  0  0  0  0  0  0  0  0
   27.5453  -20.2694  -16.5206 N   0  0  0  0  0  0  0  0  0  0  0  0
   27.1223  -18.8519  -14.6308 C   0  0  0  0  0  0  0  0  0  0  0  0
   25.9434  -18.4959  -14.9172 O   0  0  0  0  0  0  0  0  0  0  0  0
   27.5319  -18.9127  -13.2822 N   0  0  0  0  0  0  0  0  0  0  0  0
   26.6816  -18.6118  -12.1653 C   0  0  0  0  0  0  0  0  0  0  0  0
   26.6253  -19.7478  -11.2443 C   0  0  0  0  0  0  0  0  0  0  0  0
   26.9873  -20.8737  -11.7260 O   0  0  0  0  0  0  0  0  0  0  0  0
   26.4214  -19.5755   -7.0275 C   0  0  0  0  0  0  0  0  0  0  0  0
   27.0202  -20.6930   -7.8403 C   0  0  2  0  0  0  0  0  0  0  0  0
   28.4466  -20.3957   -8.2051 C   0  0  0  0  0  0  0  0  0  0  0  0
   26.2063  -20.9045   -9.1148 C   0  0  2  0  0  0  0  0  0  0  0  0
   26.2024  -19.6745   -9.8921 N   0  0  0  0  0  0  0  0  0  0  0  0
   24.8093  -21.3009   -8.7820 C   0  0  0  0  0  0  0  0  0  0  0  0
   24.5764  -22.5081   -8.1386 O   0  0  0  0  0  0  0  0  0  0  0  0
   23.8074  -20.5911   -9.0554 O   0  0  0  0  0  0  0  0  0  0  0  0
  1  2  1  0
  2  3  2  0
  4  2  1  0
  4  5  1  0
  5  6  1  6
  7  5  1  0
  8  7  2  0
  9  7  1  0
 10  9  1  0
 11 17  1  0
 11 10  1  0
 12 11  2  0
 14 13  1  6
 14 15  1  0
 16 17  1  1
 16 14  1  0
 18 16  1  0
 19 18  1  0
 20 18  2  0
M  END
$$$$
