NGV.pdb
     RDKit          3D

 20 19  0  0  1  0  0  0  0  0999 V2000
   17.4880  -11.9043  -17.1742 N   0  0  0  0  0  0  0  0  0  0  0  0
   17.7050  -10.5014  -17.2700 C   0  0  0  0  0  0  0  0  0  0  0  0
   17.9722   -9.9626  -18.3763 O   0  0  0  0  0  0  0  0  0  0  0  0
   17.6097   -9.6915  -16.0430 C   0  0  0  0  0  0  0  0  0  0  0  0
   17.2166  -10.5570  -14.8547 C   0  0  2  0  0  0  0  0  0  0  0  0
   15.7846  -10.6137  -14.8257 N   0  0  0  0  0  0  0  0  0  0  0  0
   17.7269   -9.9306  -13.5927 C   0  0  0  0  0  0  0  0  0  0  0  0
   18.9445  -10.0479  -13.2730 O   0  0  0  0  0  0  0  0  0  0  0  0
   16.8463   -9.2085  -12.7600 N   0  0  0  0  0  0  0  0  0  0  0  0
   17.2577   -8.4565  -11.6083 C   0  0  0  0  0  0  0  0  0  0  0  0
   16.1779   -7.5766  -11.1591 C   0  0  0  0  0  0  0  0  0  0  0  0
   15.3978   -7.1418  -12.0718 O   0  0  0  0  0  0  0  0  0  0  0  0
   15.0299   -6.9804   -7.1517 C   0  0  0  0  0  0  0  0  0  0  0  0
   14.0764   -6.8402   -8.3089 C   0  0  2  0  0  0  0  0  0  0  0  0
   13.4261   -8.1532   -8.6393 C   0  0  0  0  0  0  0  0  0  0  0  0
   14.8204   -6.3215   -9.5373 C   0  0  2  0  0  0  0  0  0  0  0  0
   15.9561   -7.1883   -9.8127 N   0  0  0  0  0  0  0  0  0  0  0  0
   15.2885   -4.9251   -9.3127 C   0  0  0  0  0  0  0  0  0  0  0  0
   14.3865   -3.8763   -9.4216 O   0  0  0  0  0  0  0  0  0  0  0  0
   16.4779   -4.6345   -9.0243 O   0  0  0  0  0  0  0  0  0  0  0  0
  1  2  1  0
  2  3  2  0
  4  2  1  0
  4  5  1  0
  5  6  1  1
  7  5  1  0
  8  7  2  0
  9  7  1  0
 10  9  1  0
 11 17  1  0
 11 10  1  0
 12 11  2  0
 14 13  1  1
 14 15  1  0
 16 17  1  1
 16 14  1  0
 18 16  1  0
 19 18  1  0
 20 18  2  0
M  END
$$$$
