NGV.pdb
     RDKit          3D

 20 19  0  0  1  0  0  0  0  0999 V2000
   17.3149  -12.0844  -17.4975 N   0  0  0  0  0  0  0  0  0  0  0  0
   16.6874  -12.1802  -16.2240 C   0  0  0  0  0  0  0  0  0  0  0  0
   15.8696  -13.1045  -15.9742 O   0  0  0  0  0  0  0  0  0  0  0  0
   17.0169  -11.1713  -15.2022 C   0  0  0  0  0  0  0  0  0  0  0  0
   16.2638  -11.4477  -13.9091 C   0  0  2  0  0  0  0  0  0  0  0  0
   14.9182  -10.9898  -14.0949 N   0  0  0  0  0  0  0  0  0  0  0  0
   16.9082  -10.6919  -12.7870 C   0  0  0  0  0  0  0  0  0  0  0  0
   18.0522  -11.0304  -12.3683 O   0  0  0  0  0  0  0  0  0  0  0  0
   16.2365   -9.6006  -12.1970 N   0  0  0  0  0  0  0  0  0  0  0  0
   16.8267   -8.7130  -11.2353 C   0  0  0  0  0  0  0  0  0  0  0  0
   15.8501   -7.7177  -10.7906 C   0  0  0  0  0  0  0  0  0  0  0  0
   15.0858   -7.2437  -11.6972 O   0  0  0  0  0  0  0  0  0  0  0  0
   15.0402   -6.6590   -6.7559 C   0  0  0  0  0  0  0  0  0  0  0  0
   14.0055   -6.6030   -7.8488 C   0  0  2  0  0  0  0  0  0  0  0  0
   13.2694   -7.9068   -7.9676 C   0  0  0  0  0  0  0  0  0  0  0  0
   14.6733   -6.2764   -9.1825 C   0  0  2  0  0  0  0  0  0  0  0  0
   15.7095   -7.2609   -9.4549 N   0  0  0  0  0  0  0  0  0  0  0  0
   15.2658   -4.9099   -9.1486 C   0  0  0  0  0  0  0  0  0  0  0  0
   16.6456   -4.7636   -9.1342 O   0  0  0  0  0  0  0  0  0  0  0  0
   14.5748   -3.8588   -9.1319 O   0  0  0  0  0  0  0  0  0  0  0  0
  1  2  1  0
  2  3  2  0
  4  2  1  0
  4  5  1  0
  5  6  1  6
  7  5  1  0
  8  7  2  0
  9  7  1  0
 10  9  1  0
 11 17  1  0
 11 10  1  0
 12 11  2  0
 14 13  1  1
 14 15  1  0
 16 17  1  1
 16 14  1  0
 18 16  1  0
 19 18  1  0
 20 18  2  0
M  END
$$$$
