YME.pdb
     RDKit          3D

 30 30  0  0  1  0  0  0  0  0999 V2000
    6.5929  -20.5988   16.2314 O   0  0  0  0  0  0  0  0  0  0  0  0
    7.0540  -19.9581   17.3943 C   0  0  0  0  0  0  0  0  0  0  0  0
    6.2274  -19.1279   18.1296 C   0  0  0  0  0  0  0  0  0  0  0  0
    6.6440  -18.4784   19.2812 C   0  0  0  0  0  0  0  0  0  0  0  0
    7.9465  -18.6611   19.7266 C   0  0  0  0  0  0  0  0  0  0  0  0
    8.4101  -17.9923   20.9386 C   0  0  0  0  0  0  0  0  0  0  0  0
    8.6300  -16.4960   20.7851 C   0  0  2  0  0  0  0  0  0  0  0  0
    9.6666  -16.2547   19.7663 N   0  0  0  0  0  0  0  0  0  0  0  0
    9.0755  -15.8270   22.0071 C   0  0  0  0  0  0  0  0  0  0  0  0
   10.3144  -15.6622   22.2735 O   0  0  0  0  0  0  0  0  0  0  0  0
    8.7683  -19.4857   18.9966 C   0  0  0  0  0  0  0  0  0  0  0  0
    8.3441  -20.1315   17.8461 C   0  0  0  0  0  0  0  0  0  0  0  0
    6.6612  -11.0779   27.8213 C   0  0  0  0  0  0  0  0  0  0  0  0
    6.4928  -11.9349   26.2478 S   0  0  0  0  0  0  0  0  0  0  0  0
    7.8158  -13.2012   26.0562 C   0  0  0  0  0  0  0  0  0  0  0  0
    7.6689  -13.7617   24.6914 C   0  0  0  0  0  0  0  0  0  0  0  0
    8.6931  -14.8102   24.3019 C   0  0  2  0  0  0  0  0  0  0  0  0
    8.1865  -15.3029   22.9966 N   0  0  0  0  0  0  0  0  0  0  0  0
    8.7178  -15.9720   25.2089 C   0  0  0  0  0  0  0  0  0  0  0  0
    8.0101  -17.0190   24.9723 O   0  0  0  0  0  0  0  0  0  0  0  0
    9.5335  -15.9774   26.3816 N   0  0  0  0  0  0  0  0  0  0  0  0
   10.4384  -17.1157   26.6119 C   0  0  1  0  0  0  0  0  0  0  0  0
   11.3290  -17.2970   25.4095 C   0  0  0  0  0  0  0  0  0  0  0  0
   12.3197  -18.3997   25.6401 C   0  0  0  0  0  0  0  0  0  0  0  0
   12.5457  -19.0927   24.3423 C   0  0  0  0  0  0  0  0  0  0  0  0
   12.1166  -20.2604   24.2157 O   0  0  0  0  0  0  0  0  0  0  0  0
   11.1653  -16.9523   27.8865 C   0  0  0  0  0  0  0  0  0  0  0  0
   11.2859  -15.8685   28.5125 O   0  0  0  0  0  0  0  0  0  0  0  0
   13.2114  -18.4342   23.3357 O   0  0  0  0  0  0  0  0  0  0  0  0
   11.8030  -18.0421   28.5228 O   0  0  0  0  0  0  0  0  0  0  0  0
  2  1  1  0
  3  2  2  0
  4  3  1  0
  5  4  2  0
  5 11  1  0
  6  5  1  0
  7  9  1  0
  7  6  1  0
  7  8  1  6
  9 10  2  0
 11 12  2  0
 12  2  1  0
 14 13  1  0
 15 14  1  0
 16 15  1  0
 17 16  1  1
 17 19  1  0
 18 17  1  0
 18  9  1  0
 19 20  2  0
 21 22  1  0
 21 19  1  0
 22 27  1  0
 22 23  1  6
 24 23  1  0
 24 25  1  0
 25 26  2  0
 27 28  2  0
 27 30  1  0
 29 25  1  0
M  END
$$$$
