YME.pdb
     RDKit          3D

 30 30  0  0  1  0  0  0  0  0999 V2000
   10.6612  -14.5769   30.9401 O   0  0  0  0  0  0  0  0  0  0  0  0
   10.5851  -14.8874   29.5714 C   0  0  0  0  0  0  0  0  0  0  0  0
    9.9984  -14.0160   28.6715 C   0  0  0  0  0  0  0  0  0  0  0  0
    9.9039  -14.2852   27.3150 C   0  0  0  0  0  0  0  0  0  0  0  0
   10.4171  -15.4792   26.8255 C   0  0  0  0  0  0  0  0  0  0  0  0
   10.3345  -15.7861   25.4007 C   0  0  0  0  0  0  0  0  0  0  0  0
    8.9371  -16.1332   24.9132 C   0  0  2  0  0  0  0  0  0  0  0  0
    8.4381  -17.3072   25.6503 N   0  0  0  0  0  0  0  0  0  0  0  0
    8.8638  -16.4655   23.4906 C   0  0  0  0  0  0  0  0  0  0  0  0
    8.7090  -17.6674   23.0851 O   0  0  0  0  0  0  0  0  0  0  0  0
   11.0000  -16.3452   27.7189 C   0  0  0  0  0  0  0  0  0  0  0  0
   11.0905  -16.0687   29.0740 C   0  0  0  0  0  0  0  0  0  0  0  0
    8.8420  -11.4482   20.0702 C   0  0  0  0  0  0  0  0  0  0  0  0
    7.2588  -12.2934   19.9367 S   0  0  0  0  0  0  0  0  0  0  0  0
    7.3214  -13.9229   20.7919 C   0  0  0  0  0  0  0  0  0  0  0  0
    8.5447  -14.6067   20.3078 C   0  0  0  0  0  0  0  0  0  0  0  0
    8.8921  -15.9026   21.0150 C   0  0  2  0  0  0  0  0  0  0  0  0
    8.9536  -15.4980   22.4419 N   0  0  0  0  0  0  0  0  0  0  0  0
   10.2275  -16.4212   20.6673 C   0  0  0  0  0  0  0  0  0  0  0  0
   10.4426  -17.0140   19.5468 O   0  0  0  0  0  0  0  0  0  0  0  0
   11.3320  -16.2791   21.5619 N   0  0  0  0  0  0  0  0  0  0  0  0
   12.6930  -16.5168   21.0533 C   0  0  1  0  0  0  0  0  0  0  0  0
   12.9618  -15.5915   19.8942 C   0  0  0  0  0  0  0  0  0  0  0  0
   14.3517  -15.7880   19.3652 C   0  0  0  0  0  0  0  0  0  0  0  0
   14.5564  -14.8295   18.2450 C   0  0  0  0  0  0  0  0  0  0  0  0
   14.6072  -13.6097   18.5154 O   0  0  0  0  0  0  0  0  0  0  0  0
   13.6804  -16.4227   22.1468 C   0  0  0  0  0  0  0  0  0  0  0  0
   13.5166  -15.7723   23.2104 O   0  0  0  0  0  0  0  0  0  0  0  0
   14.6818  -15.3106   16.9633 O   0  0  0  0  0  0  0  0  0  0  0  0
   14.9296  -17.0813   22.0782 O   0  0  0  0  0  0  0  0  0  0  0  0
  2  1  1  0
  3  2  2  0
  4  3  1  0
  5  4  2  0
  5 11  1  0
  6  5  1  0
  7  9  1  0
  7  6  1  0
  7  8  1  1
  9 10  2  0
 11 12  2  0
 12  2  1  0
 14 13  1  0
 15 14  1  0
 16 15  1  0
 17 16  1  6
 17 19  1  0
 18 17  1  0
 18  9  1  0
 19 20  2  0
 21 22  1  0
 21 19  1  0
 22 27  1  0
 22 23  1  6
 24 23  1  0
 24 25  1  0
 25 26  2  0
 27 28  2  0
 27 30  1  0
 29 25  1  0
M  END
$$$$
