YME.pdb
     RDKit          3D

 30 30  0  0  1  0  0  0  0  0999 V2000
    8.7307  -11.4431   18.0045 O   0  0  0  0  0  0  0  0  0  0  0  0
    8.4635  -12.6999   18.5741 C   0  0  0  0  0  0  0  0  0  0  0  0
    9.0902  -13.8430   18.1117 C   0  0  0  0  0  0  0  0  0  0  0  0
    8.8542  -15.0999   18.6464 C   0  0  0  0  0  0  0  0  0  0  0  0
    7.9507  -15.2305   19.6928 C   0  0  0  0  0  0  0  0  0  0  0  0
    7.6864  -16.5419   20.2771 C   0  0  0  0  0  0  0  0  0  0  0  0
    6.6414  -16.5384   21.3811 C   0  0  2  0  0  0  0  0  0  0  0  0
    5.4800  -15.7385   20.9544 N   0  0  0  0  0  0  0  0  0  0  0  0
    7.1061  -15.9670   22.6447 C   0  0  0  0  0  0  0  0  0  0  0  0
    7.1794  -14.7045   22.8285 O   0  0  0  0  0  0  0  0  0  0  0  0
    7.3278  -14.0954   20.1527 C   0  0  0  0  0  0  0  0  0  0  0  0
    7.5692  -12.8420   19.6126 C   0  0  0  0  0  0  0  0  0  0  0  0
    7.7065  -11.6401   26.7832 C   0  0  0  0  0  0  0  0  0  0  0  0
    6.3800  -12.7785   26.3552 S   0  0  0  0  0  0  0  0  0  0  0  0
    6.8837  -14.5163   26.6972 C   0  0  0  0  0  0  0  0  0  0  0  0
    6.7586  -15.2518   25.4159 C   0  0  0  0  0  0  0  0  0  0  0  0
    7.9510  -16.1080   25.0349 C   0  0  2  0  0  0  0  0  0  0  0  0
    7.5109  -16.7495   23.7707 N   0  0  0  0  0  0  0  0  0  0  0  0
    8.2189  -17.1993   25.9890 C   0  0  0  0  0  0  0  0  0  0  0  0
    7.5266  -18.2826   25.9760 O   0  0  0  0  0  0  0  0  0  0  0  0
    9.2615  -17.0934   26.9597 N   0  0  0  0  0  0  0  0  0  0  0  0
   10.4818  -17.8975   26.7816 C   0  0  1  0  0  0  0  0  0  0  0  0
   11.0668  -17.6226   25.4199 C   0  0  0  0  0  0  0  0  0  0  0  0
   12.3337  -18.3998   25.2161 C   0  0  0  0  0  0  0  0  0  0  0  0
   12.8140  -18.1400   23.8314 C   0  0  0  0  0  0  0  0  0  0  0  0
   12.7463  -19.0716   23.0000 O   0  0  0  0  0  0  0  0  0  0  0  0
   11.4187  -17.6754   27.9008 C   0  0  0  0  0  0  0  0  0  0  0  0
   11.4227  -16.6626   28.6459 O   0  0  0  0  0  0  0  0  0  0  0  0
   13.3109  -16.8980   23.5143 O   0  0  0  0  0  0  0  0  0  0  0  0
   12.4178  -18.6197   28.2316 O   0  0  0  0  0  0  0  0  0  0  0  0
  2  1  1  0
  3  2  2  0
  4  3  1  0
  5  4  2  0
  5 11  1  0
  6  5  1  0
  7  9  1  0
  7  6  1  0
  7  8  1  6
  9 10  2  0
 11 12  2  0
 12  2  1  0
 14 13  1  0
 15 14  1  0
 16 15  1  0
 17 16  1  1
 17 19  1  0
 18 17  1  0
 18  9  1  0
 19 20  2  0
 21 22  1  0
 21 19  1  0
 22 27  1  0
 22 23  1  6
 24 23  1  0
 24 25  1  0
 25 26  2  0
 27 28  2  0
 27 30  1  0
 29 25  1  0
M  END
$$$$
