YME.pdb
     RDKit          3D

 30 30  0  0  1  0  0  0  0  0999 V2000
   12.4749  -17.2514   32.1129 O   0  0  0  0  0  0  0  0  0  0  0  0
   11.9568  -17.0346   30.8245 C   0  0  0  0  0  0  0  0  0  0  0  0
   11.9791  -18.0326   29.8669 C   0  0  0  0  0  0  0  0  0  0  0  0
   11.4784  -17.8585   28.5861 C   0  0  0  0  0  0  0  0  0  0  0  0
   10.9276  -16.6326   28.2365 C   0  0  0  0  0  0  0  0  0  0  0  0
   10.3895  -16.4235   26.8957 C   0  0  0  0  0  0  0  0  0  0  0  0
    8.8733  -16.4907   26.8100 C   0  0  2  0  0  0  0  0  0  0  0  0
    8.4229  -17.8521   27.1482 N   0  0  0  0  0  0  0  0  0  0  0  0
    8.3335  -16.1844   25.4855 C   0  0  0  0  0  0  0  0  0  0  0  0
    7.8974  -17.0984   24.7062 O   0  0  0  0  0  0  0  0  0  0  0  0
   10.9051  -15.6409   29.1873 C   0  0  0  0  0  0  0  0  0  0  0  0
   11.4078  -15.8228   30.4660 C   0  0  0  0  0  0  0  0  0  0  0  0
    6.6955  -11.5417   27.2804 C   0  0  0  0  0  0  0  0  0  0  0  0
    6.0888  -11.3977   25.5922 S   0  0  0  0  0  0  0  0  0  0  0  0
    5.9075  -13.0622   24.8260 C   0  0  0  0  0  0  0  0  0  0  0  0
    7.0098  -13.1968   23.8435 C   0  0  0  0  0  0  0  0  0  0  0  0
    7.5545  -14.6003   23.6606 C   0  0  2  0  0  0  0  0  0  0  0  0
    8.2421  -14.8620   24.9499 N   0  0  0  0  0  0  0  0  0  0  0  0
    8.5823  -14.6985   22.6085 C   0  0  0  0  0  0  0  0  0  0  0  0
    9.5264  -13.8309   22.5142 O   0  0  0  0  0  0  0  0  0  0  0  0
    8.5683  -15.7652   21.6585 N   0  0  0  0  0  0  0  0  0  0  0  0
    9.8200  -16.1177   20.9682 C   0  0  1  0  0  0  0  0  0  0  0  0
   10.9363  -16.2143   21.9763 C   0  0  0  0  0  0  0  0  0  0  0  0
   12.2203  -16.6190   21.3144 C   0  0  0  0  0  0  0  0  0  0  0  0
   13.2814  -16.6606   22.3574 C   0  0  0  0  0  0  0  0  0  0  0  0
   14.0720  -15.6947   22.4320 O   0  0  0  0  0  0  0  0  0  0  0  0
    9.6369  -17.3310   20.1471 C   0  0  0  0  0  0  0  0  0  0  0  0
    8.9495  -18.3293   20.4814 O   0  0  0  0  0  0  0  0  0  0  0  0
   13.3573  -17.7474   23.1959 O   0  0  0  0  0  0  0  0  0  0  0  0
   10.2423  -17.4662   18.8765 O   0  0  0  0  0  0  0  0  0  0  0  0
  2  1  1  0
  3  2  2  0
  4  3  1  0
  5  4  2  0
  5 11  1  0
  6  5  1  0
  7  9  1  0
  7  6  1  0
  7  8  1  6
  9 10  2  0
 11 12  2  0
 12  2  1  0
 14 13  1  0
 15 14  1  0
 16 15  1  0
 17 16  1  1
 17 19  1  0
 18 17  1  0
 18  9  1  0
 19 20  2  0
 21 22  1  0
 21 19  1  0
 22 27  1  0
 22 23  1  1
 24 23  1  0
 24 25  1  0
 25 26  2  0
 27 28  2  0
 27 30  1  0
 29 25  1  0
M  END
$$$$
