YME.pdb
     RDKit          3D

 30 30  0  0  1  0  0  0  0  0999 V2000
    6.8532  -13.9852   15.3076 O   0  0  0  0  0  0  0  0  0  0  0  0
    7.5288  -14.0478   16.5385 C   0  0  0  0  0  0  0  0  0  0  0  0
    8.5989  -14.9042   16.7247 C   0  0  0  0  0  0  0  0  0  0  0  0
    9.2910  -14.9953   17.9223 C   0  0  0  0  0  0  0  0  0  0  0  0
    8.9024  -14.1968   18.9899 C   0  0  0  0  0  0  0  0  0  0  0  0
    9.6163  -14.2698   20.2612 C   0  0  0  0  0  0  0  0  0  0  0  0
    9.3409  -15.5306   21.0645 C   0  0  2  0  0  0  0  0  0  0  0  0
    7.9750  -16.0043   20.7806 N   0  0  0  0  0  0  0  0  0  0  0  0
    9.4324  -15.3504   22.5132 C   0  0  0  0  0  0  0  0  0  0  0  0
   10.4954  -14.9160   23.0738 O   0  0  0  0  0  0  0  0  0  0  0  0
    7.8394  -13.3458   18.8057 C   0  0  0  0  0  0  0  0  0  0  0  0
    7.1525  -13.2606   17.6049 C   0  0  0  0  0  0  0  0  0  0  0  0
    7.4479  -11.9754   28.3258 C   0  0  0  0  0  0  0  0  0  0  0  0
    7.7397  -12.7023   26.7056 S   0  0  0  0  0  0  0  0  0  0  0  0
    6.7904  -14.2690   26.5192 C   0  0  0  0  0  0  0  0  0  0  0  0
    7.0297  -14.7453   25.1357 C   0  0  0  0  0  0  0  0  0  0  0  0
    8.4371  -15.2305   24.8458 C   0  0  2  0  0  0  0  0  0  0  0  0
    8.3638  -15.6345   23.4194 N   0  0  0  0  0  0  0  0  0  0  0  0
    8.8101  -16.4372   25.6059 C   0  0  0  0  0  0  0  0  0  0  0  0
    8.0032  -17.4320   25.7176 O   0  0  0  0  0  0  0  0  0  0  0  0
   10.0846  -16.5460   26.2419 N   0  0  0  0  0  0  0  0  0  0  0  0
   10.3869  -17.7561   27.0240 C   0  0  1  0  0  0  0  0  0  0  0  0
   11.7394  -18.2859   26.6216 C   0  0  0  0  0  0  0  0  0  0  0  0
   11.7845  -18.5725   25.1498 C   0  0  0  0  0  0  0  0  0  0  0  0
   13.1302  -19.1225   24.8301 C   0  0  0  0  0  0  0  0  0  0  0  0
   13.9152  -19.3463   25.7774 O   0  0  0  0  0  0  0  0  0  0  0  0
   10.2445  -17.4901   28.4692 C   0  0  0  0  0  0  0  0  0  0  0  0
   10.0805  -16.3524   28.9788 O   0  0  0  0  0  0  0  0  0  0  0  0
   13.4632  -19.3643   23.5184 O   0  0  0  0  0  0  0  0  0  0  0  0
   10.2826  -18.5326   29.4236 O   0  0  0  0  0  0  0  0  0  0  0  0
  2  1  1  0
  3  2  2  0
  4  3  1  0
  5  4  2  0
  5 11  1  0
  6  5  1  0
  7  9  1  0
  7  6  1  0
  7  8  1  1
  9 10  2  0
 11 12  2  0
 12  2  1  0
 14 13  1  0
 15 14  1  0
 16 15  1  0
 17 16  1  1
 17 19  1  0
 18 17  1  0
 18  9  1  0
 19 20  2  0
 21 22  1  0
 21 19  1  0
 22 27  1  0
 22 23  1  1
 24 23  1  0
 24 25  1  0
 25 26  2  0
 27 28  2  0
 27 30  1  0
 29 25  1  0
M  END
$$$$
