YME.pdb
     RDKit          3D

 30 30  0  0  1  0  0  0  0  0999 V2000
    7.5529  -11.0631   19.3283 O   0  0  0  0  0  0  0  0  0  0  0  0
    7.9839  -12.3900   19.4984 C   0  0  0  0  0  0  0  0  0  0  0  0
    7.0797  -13.4357   19.5463 C   0  0  0  0  0  0  0  0  0  0  0  0
    7.4645  -14.7570   19.7124 C   0  0  0  0  0  0  0  0  0  0  0  0
    8.8146  -15.0571   19.8375 C   0  0  0  0  0  0  0  0  0  0  0  0
    9.2477  -16.4406   20.0095 C   0  0  0  0  0  0  0  0  0  0  0  0
    8.8803  -17.0513   21.3523 C   0  0  2  0  0  0  0  0  0  0  0  0
    7.4243  -17.2688   21.4101 N   0  0  0  0  0  0  0  0  0  0  0  0
    9.2290  -16.2202   22.5043 C   0  0  0  0  0  0  0  0  0  0  0  0
   10.4272  -15.8310   22.7183 O   0  0  0  0  0  0  0  0  0  0  0  0
    9.7134  -14.0189   19.7900 C   0  0  0  0  0  0  0  0  0  0  0  0
    9.3205  -12.7002   19.6237 C   0  0  0  0  0  0  0  0  0  0  0  0
    6.9380  -11.0387   25.8948 C   0  0  0  0  0  0  0  0  0  0  0  0
    6.5179  -12.5266   26.8158 S   0  0  0  0  0  0  0  0  0  0  0  0
    7.8314  -13.8020   26.6182 C   0  0  0  0  0  0  0  0  0  0  0  0
    7.6734  -14.3626   25.2548 C   0  0  0  0  0  0  0  0  0  0  0  0
    8.7093  -15.3927   24.8477 C   0  0  2  0  0  0  0  0  0  0  0  0
    8.2825  -15.7720   23.4775 N   0  0  0  0  0  0  0  0  0  0  0  0
    8.6633  -16.6233   25.6581 C   0  0  0  0  0  0  0  0  0  0  0  0
    7.9628  -17.6376   25.2927 O   0  0  0  0  0  0  0  0  0  0  0  0
    9.4001  -16.7340   26.8769 N   0  0  0  0  0  0  0  0  0  0  0  0
   10.2654  -17.9078   27.0795 C   0  0  1  0  0  0  0  0  0  0  0  0
   11.2230  -18.0281   25.9218 C   0  0  0  0  0  0  0  0  0  0  0  0
   12.1857  -19.1577   26.1401 C   0  0  0  0  0  0  0  0  0  0  0  0
   13.0365  -19.2774   24.9247 C   0  0  0  0  0  0  0  0  0  0  0  0
   12.5929  -19.9340   23.9575 O   0  0  0  0  0  0  0  0  0  0  0  0
   10.9171  -17.8509   28.4030 C   0  0  0  0  0  0  0  0  0  0  0  0
   11.2251  -16.7930   29.0087 O   0  0  0  0  0  0  0  0  0  0  0  0
   14.2691  -18.6687   24.9046 O   0  0  0  0  0  0  0  0  0  0  0  0
   11.2556  -19.0245   29.1152 O   0  0  0  0  0  0  0  0  0  0  0  0
  2  1  1  0
  3  2  2  0
  4  3  1  0
  5  4  2  0
  5 11  1  0
  6  5  1  0
  7  9  1  0
  7  6  1  0
  7  8  1  6
  9 10  2  0
 11 12  2  0
 12  2  1  0
 14 13  1  0
 15 14  1  0
 16 15  1  0
 17 16  1  1
 17 19  1  0
 18 17  1  0
 18  9  1  0
 19 20  2  0
 21 22  1  0
 21 19  1  0
 22 27  1  0
 22 23  1  6
 24 23  1  0
 24 25  1  0
 25 26  2  0
 27 28  2  0
 27 30  1  0
 29 25  1  0
M  END
$$$$
