YME.pdb
     RDKit          3D

 30 30  0  0  1  0  0  0  0  0999 V2000
    5.1365  -10.3733   27.6447 O   0  0  0  0  0  0  0  0  0  0  0  0
    5.8178  -11.5129   27.1835 C   0  0  0  0  0  0  0  0  0  0  0  0
    6.7685  -12.1436   27.9655 C   0  0  0  0  0  0  0  0  0  0  0  0
    7.4616  -13.2689   27.5473 C   0  0  0  0  0  0  0  0  0  0  0  0
    7.1989  -13.7958   26.2896 C   0  0  0  0  0  0  0  0  0  0  0  0
    7.9116  -14.9825   25.8257 C   0  0  0  0  0  0  0  0  0  0  0  0
    7.1904  -15.7632   24.7390 C   0  0  2  0  0  0  0  0  0  0  0  0
    6.4839  -16.9063   25.3432 N   0  0  0  0  0  0  0  0  0  0  0  0
    8.0721  -16.3094   23.7076 C   0  0  0  0  0  0  0  0  0  0  0  0
    8.3397  -17.5571   23.6395 O   0  0  0  0  0  0  0  0  0  0  0  0
    6.2546  -13.1697   25.5122 C   0  0  0  0  0  0  0  0  0  0  0  0
    5.5659  -12.0448   25.9377 C   0  0  0  0  0  0  0  0  0  0  0  0
    6.3176  -12.8999   19.1969 C   0  0  0  0  0  0  0  0  0  0  0  0
    7.8132  -13.1958   20.1530 S   0  0  0  0  0  0  0  0  0  0  0  0
    8.5407  -14.8326   19.7257 C   0  0  0  0  0  0  0  0  0  0  0  0
    9.7000  -15.0279   20.6291 C   0  0  0  0  0  0  0  0  0  0  0  0
    9.5518  -16.1382   21.6516 C   0  0  2  0  0  0  0  0  0  0  0  0
    8.7023  -15.5169   22.6983 N   0  0  0  0  0  0  0  0  0  0  0  0
   10.8207  -16.5078   22.3046 C   0  0  0  0  0  0  0  0  0  0  0  0
   11.2898  -15.8242   23.2874 O   0  0  0  0  0  0  0  0  0  0  0  0
   11.5722  -17.6427   21.8713 N   0  0  0  0  0  0  0  0  0  0  0  0
   12.8440  -17.9517   22.5455 C   0  0  1  0  0  0  0  0  0  0  0  0
   13.1629  -19.4137   22.3647 C   0  0  0  0  0  0  0  0  0  0  0  0
   13.3427  -19.7456   20.9128 C   0  0  0  0  0  0  0  0  0  0  0  0
   13.7487  -21.1742   20.8153 C   0  0  0  0  0  0  0  0  0  0  0  0
   13.9169  -21.8126   21.8773 O   0  0  0  0  0  0  0  0  0  0  0  0
   13.9096  -17.0371   22.0896 C   0  0  0  0  0  0  0  0  0  0  0  0
   13.8369  -16.2952   21.0771 O   0  0  0  0  0  0  0  0  0  0  0  0
   13.9236  -21.7400   19.5746 O   0  0  0  0  0  0  0  0  0  0  0  0
   15.1365  -16.9220   22.7830 O   0  0  0  0  0  0  0  0  0  0  0  0
  2  1  1  0
  3  2  2  0
  4  3  1  0
  5  4  2  0
  5 11  1  0
  6  5  1  0
  7  9  1  0
  7  6  1  0
  7  8  1  1
  9 10  2  0
 11 12  2  0
 12  2  1  0
 14 13  1  0
 15 14  1  0
 16 15  1  0
 17 16  1  6
 17 19  1  0
 18 17  1  0
 18  9  1  0
 19 20  2  0
 21 22  1  0
 21 19  1  0
 22 27  1  0
 22 23  1  6
 24 23  1  0
 24 25  1  0
 25 26  2  0
 27 28  2  0
 27 30  1  0
 29 25  1  0
M  END
$$$$
