YME.pdb
     RDKit          3D

 30 30  0  0  1  0  0  0  0  0999 V2000
    7.0331  -13.8611   15.1004 O   0  0  0  0  0  0  0  0  0  0  0  0
    7.5357  -13.8777   16.4129 C   0  0  0  0  0  0  0  0  0  0  0  0
    6.8265  -13.3135   17.4579 C   0  0  0  0  0  0  0  0  0  0  0  0
    7.2874  -13.3095   18.7652 C   0  0  0  0  0  0  0  0  0  0  0  0
    8.5139  -13.8946   19.0513 C   0  0  0  0  0  0  0  0  0  0  0  0
    9.0211  -13.9079   20.4201 C   0  0  0  0  0  0  0  0  0  0  0  0
    9.1645  -15.2959   21.0232 C   0  0  2  0  0  0  0  0  0  0  0  0
    7.9313  -16.0651   20.7818 N   0  0  0  0  0  0  0  0  0  0  0  0
    9.3891  -15.3013   22.4685 C   0  0  0  0  0  0  0  0  0  0  0  0
   10.5074  -14.9530   22.9794 O   0  0  0  0  0  0  0  0  0  0  0  0
    9.2188  -14.4553   18.0137 C   0  0  0  0  0  0  0  0  0  0  0  0
    8.7511  -14.4552   16.7090 C   0  0  0  0  0  0  0  0  0  0  0  0
    7.3133  -11.9720   28.2009 C   0  0  0  0  0  0  0  0  0  0  0  0
    7.3419  -12.5810   26.5077 S   0  0  0  0  0  0  0  0  0  0  0  0
    6.6640  -14.2910   26.4239 C   0  0  0  0  0  0  0  0  0  0  0  0
    6.9698  -14.7999   25.0653 C   0  0  0  0  0  0  0  0  0  0  0  0
    8.4226  -15.1538   24.8117 C   0  0  2  0  0  0  0  0  0  0  0  0
    8.3996  -15.6858   23.4260 N   0  0  0  0  0  0  0  0  0  0  0  0
    8.9202  -16.2427   25.6718 C   0  0  0  0  0  0  0  0  0  0  0  0
    8.1535  -17.2075   26.0384 O   0  0  0  0  0  0  0  0  0  0  0  0
   10.2747  -16.2668   26.1248 N   0  0  0  0  0  0  0  0  0  0  0  0
   10.7646  -17.4595   26.8356 C   0  0  1  0  0  0  0  0  0  0  0  0
   12.2086  -17.6978   26.4752 C   0  0  0  0  0  0  0  0  0  0  0  0
   12.4090  -17.6163   24.9907 C   0  0  0  0  0  0  0  0  0  0  0  0
   13.8413  -17.9027   24.7044 C   0  0  0  0  0  0  0  0  0  0  0  0
   14.6008  -18.1317   25.6711 O   0  0  0  0  0  0  0  0  0  0  0  0
   10.5124  -17.3406   28.2854 C   0  0  0  0  0  0  0  0  0  0  0  0
   10.8041  -18.2148   29.1408 O   0  0  0  0  0  0  0  0  0  0  0  0
   14.2785  -17.9065   23.4010 O   0  0  0  0  0  0  0  0  0  0  0  0
    9.9023  -16.1926   28.8415 O   0  0  0  0  0  0  0  0  0  0  0  0
  2  1  1  0
  3  2  2  0
  4  3  1  0
  5  4  2  0
  5 11  1  0
  6  5  1  0
  7  9  1  0
  7  6  1  0
  7  8  1  1
  9 10  2  0
 11 12  2  0
 12  2  1  0
 14 13  1  0
 15 14  1  0
 16 15  1  0
 17 16  1  1
 17 19  1  0
 18 17  1  0
 18  9  1  0
 19 20  2  0
 21 22  1  0
 21 19  1  0
 22 27  1  0
 22 23  1  1
 24 23  1  0
 24 25  1  0
 25 26  2  0
 27 28  2  0
 27 30  1  0
 29 25  1  0
M  END
$$$$
