YME.pdb
     RDKit          3D

 30 30  0  0  1  0  0  0  0  0999 V2000
   10.5715  -14.4401   31.0684 O   0  0  0  0  0  0  0  0  0  0  0  0
   10.4481  -14.8295   29.7236 C   0  0  0  0  0  0  0  0  0  0  0  0
    9.8833  -13.9866   28.7834 C   0  0  0  0  0  0  0  0  0  0  0  0
    9.7439  -14.3332   27.4485 C   0  0  0  0  0  0  0  0  0  0  0  0
   10.1869  -15.5789   27.0238 C   0  0  0  0  0  0  0  0  0  0  0  0
   10.0559  -15.9679   25.6229 C   0  0  0  0  0  0  0  0  0  0  0  0
    8.6214  -16.1430   25.1513 C   0  0  2  0  0  0  0  0  0  0  0  0
    7.9878  -17.2390   25.9051 N   0  0  0  0  0  0  0  0  0  0  0  0
    8.4931  -16.4770   23.7331 C   0  0  0  0  0  0  0  0  0  0  0  0
    8.3644  -17.6836   23.3324 O   0  0  0  0  0  0  0  0  0  0  0  0
   10.7481  -16.4167   27.9572 C   0  0  0  0  0  0  0  0  0  0  0  0
   10.8839  -16.0627   29.2903 C   0  0  0  0  0  0  0  0  0  0  0  0
    7.8646  -11.5352   19.9661 C   0  0  0  0  0  0  0  0  0  0  0  0
    6.5105  -12.6983   19.7376 S   0  0  0  0  0  0  0  0  0  0  0  0
    6.7646  -14.1984   20.7748 C   0  0  0  0  0  0  0  0  0  0  0  0
    8.1518  -14.6566   20.5214 C   0  0  0  0  0  0  0  0  0  0  0  0
    8.5693  -15.9145   21.2584 C   0  0  2  0  0  0  0  0  0  0  0  0
    8.4966  -15.5061   22.6836 N   0  0  0  0  0  0  0  0  0  0  0  0
    9.9674  -16.3068   21.0044 C   0  0  0  0  0  0  0  0  0  0  0  0
   10.9233  -15.8997   21.7618 O   0  0  0  0  0  0  0  0  0  0  0  0
   10.3093  -17.1581   19.9094 N   0  0  0  0  0  0  0  0  0  0  0  0
   11.7270  -17.4787   19.6749 C   0  0  1  0  0  0  0  0  0  0  0  0
   12.3311  -18.0275   20.9421 C   0  0  0  0  0  0  0  0  0  0  0  0
   11.6229  -19.2777   21.3736 C   0  0  0  0  0  0  0  0  0  0  0  0
   12.3884  -19.8725   22.5031 C   0  0  0  0  0  0  0  0  0  0  0  0
   11.7460  -20.4114   23.4307 O   0  0  0  0  0  0  0  0  0  0  0  0
   11.8729  -18.3618   18.5008 C   0  0  0  0  0  0  0  0  0  0  0  0
   10.9185  -18.8287   17.8283 O   0  0  0  0  0  0  0  0  0  0  0  0
   13.7617  -19.8112   22.4903 O   0  0  0  0  0  0  0  0  0  0  0  0
   13.1430  -18.7631   18.0266 O   0  0  0  0  0  0  0  0  0  0  0  0
  2  1  1  0
  3  2  2  0
  4  3  1  0
  5  4  2  0
  5 11  1  0
  6  5  1  0
  7  9  1  0
  7  6  1  0
  7  8  1  1
  9 10  2  0
 11 12  2  0
 12  2  1  0
 14 13  1  0
 15 14  1  0
 16 15  1  0
 17 16  1  6
 17 19  1  0
 18 17  1  0
 18  9  1  0
 19 20  2  0
 21 22  1  0
 21 19  1  0
 22 27  1  0
 22 23  1  1
 24 23  1  0
 24 25  1  0
 25 26  2  0
 27 28  2  0
 27 30  1  0
 29 25  1  0
M  END
$$$$
