YME.pdb
     RDKit          3D

 30 30  0  0  1  0  0  0  0  0999 V2000
   10.4556  -14.4061   31.2016 O   0  0  0  0  0  0  0  0  0  0  0  0
   10.3785  -14.7469   29.8402 C   0  0  0  0  0  0  0  0  0  0  0  0
   10.8499  -15.9629   29.3791 C   0  0  0  0  0  0  0  0  0  0  0  0
   10.7920  -16.3361   28.0454 C   0  0  0  0  0  0  0  0  0  0  0  0
   10.2387  -15.4593   27.1215 C   0  0  0  0  0  0  0  0  0  0  0  0
   10.1617  -15.8288   25.7113 C   0  0  0  0  0  0  0  0  0  0  0  0
    8.7845  -16.2831   25.2555 C   0  0  2  0  0  0  0  0  0  0  0  0
    8.4345  -17.5434   25.9337 N   0  0  0  0  0  0  0  0  0  0  0  0
    8.6813  -16.5344   23.8183 C   0  0  0  0  0  0  0  0  0  0  0  0
    8.8943  -17.6909   23.3180 O   0  0  0  0  0  0  0  0  0  0  0  0
    9.7703  -14.2513   27.5789 C   0  0  0  0  0  0  0  0  0  0  0  0
    9.8318  -13.8854   28.9143 C   0  0  0  0  0  0  0  0  0  0  0  0
    6.2642  -12.1490   20.1985 C   0  0  0  0  0  0  0  0  0  0  0  0
    7.1756  -12.8619   18.8202 S   0  0  0  0  0  0  0  0  0  0  0  0
    7.9131  -14.4794   19.3001 C   0  0  0  0  0  0  0  0  0  0  0  0
    7.8834  -14.5337   20.7815 C   0  0  0  0  0  0  0  0  0  0  0  0
    8.4837  -15.7806   21.4019 C   0  0  2  0  0  0  0  0  0  0  0  0
    8.3371  -15.5327   22.8581 N   0  0  0  0  0  0  0  0  0  0  0  0
    9.9276  -15.9277   21.1438 C   0  0  0  0  0  0  0  0  0  0  0  0
   10.7938  -15.2098   21.7662 O   0  0  0  0  0  0  0  0  0  0  0  0
   10.4162  -16.8776   20.1953 N   0  0  0  0  0  0  0  0  0  0  0  0
   11.8667  -16.9619   19.9575 C   0  0  1  0  0  0  0  0  0  0  0  0
   12.5610  -17.3501   21.2378 C   0  0  0  0  0  0  0  0  0  0  0  0
   12.4284  -18.8226   21.4920 C   0  0  0  0  0  0  0  0  0  0  0  0
   13.3195  -19.1740   22.6312 C   0  0  0  0  0  0  0  0  0  0  0  0
   14.3360  -18.4712   22.8224 O   0  0  0  0  0  0  0  0  0  0  0  0
   12.1554  -17.8528   18.8162 C   0  0  0  0  0  0  0  0  0  0  0  0
   13.3022  -18.0829   18.3548 O   0  0  0  0  0  0  0  0  0  0  0  0
   13.0000  -20.2478   23.4280 O   0  0  0  0  0  0  0  0  0  0  0  0
   11.1266  -18.5398   18.1315 O   0  0  0  0  0  0  0  0  0  0  0  0
  2  1  1  0
  3  2  2  0
  4  3  1  0
  5  4  2  0
  5 11  1  0
  6  5  1  0
  7  9  1  0
  7  6  1  0
  7  8  1  1
  9 10  2  0
 11 12  2  0
 12  2  1  0
 14 13  1  0
 15 14  1  0
 16 15  1  0
 17 16  1  6
 17 19  1  0
 18 17  1  0
 18  9  1  0
 19 20  2  0
 21 22  1  0
 21 19  1  0
 22 27  1  0
 22 23  1  1
 24 23  1  0
 24 25  1  0
 25 26  2  0
 27 28  2  0
 27 30  1  0
 29 25  1  0
M  END
$$$$
