YME.pdb
     RDKit          3D

 30 30  0  0  1  0  0  0  0  0999 V2000
    9.7149  -21.3905   28.1006 O   0  0  0  0  0  0  0  0  0  0  0  0
    8.7582  -20.8484   27.2251 C   0  0  0  0  0  0  0  0  0  0  0  0
    7.7814  -19.9814   27.6805 C   0  0  0  0  0  0  0  0  0  0  0  0
    6.8209  -19.4259   26.8496 C   0  0  0  0  0  0  0  0  0  0  0  0
    6.8291  -19.7462   25.4984 C   0  0  0  0  0  0  0  0  0  0  0  0
    5.8315  -19.1722   24.6003 C   0  0  0  0  0  0  0  0  0  0  0  0
    6.4072  -18.2920   23.5027 C   0  0  2  0  0  0  0  0  0  0  0  0
    7.2849  -19.0988   22.6370 N   0  0  0  0  0  0  0  0  0  0  0  0
    7.2107  -17.1720   23.9919 C   0  0  0  0  0  0  0  0  0  0  0  0
    8.4346  -17.0217   23.6565 O   0  0  0  0  0  0  0  0  0  0  0  0
    7.7992  -20.6074   25.0454 C   0  0  0  0  0  0  0  0  0  0  0  0
    8.7562  -21.1588   25.8827 C   0  0  0  0  0  0  0  0  0  0  0  0
    5.8159  -11.2893   25.2762 C   0  0  0  0  0  0  0  0  0  0  0  0
    7.4359  -11.7239   25.9283 S   0  0  0  0  0  0  0  0  0  0  0  0
    7.3142  -13.1858   27.0413 C   0  0  0  0  0  0  0  0  0  0  0  0
    6.6668  -14.2626   26.2541 C   0  0  0  0  0  0  0  0  0  0  0  0
    7.5954  -15.0776   25.3746 C   0  0  2  0  0  0  0  0  0  0  0  0
    6.7133  -16.1598   24.8705 N   0  0  0  0  0  0  0  0  0  0  0  0
    8.6834  -15.7354   26.1206 C   0  0  0  0  0  0  0  0  0  0  0  0
    8.4351  -16.5892   27.0493 O   0  0  0  0  0  0  0  0  0  0  0  0
   10.0536  -15.4506   25.8345 N   0  0  0  0  0  0  0  0  0  0  0  0
   11.0973  -16.0833   26.6579 C   0  0  1  0  0  0  0  0  0  0  0  0
   12.4343  -15.9209   25.9811 C   0  0  0  0  0  0  0  0  0  0  0  0
   12.6656  -17.0184   24.9850 C   0  0  0  0  0  0  0  0  0  0  0  0
   13.9861  -16.7824   24.3400 C   0  0  0  0  0  0  0  0  0  0  0  0
   14.0097  -16.1535   23.2594 O   0  0  0  0  0  0  0  0  0  0  0  0
   11.0507  -15.5696   28.0412 C   0  0  0  0  0  0  0  0  0  0  0  0
   11.5963  -16.1192   29.0318 O   0  0  0  0  0  0  0  0  0  0  0  0
   15.1247  -17.2578   24.9461 O   0  0  0  0  0  0  0  0  0  0  0  0
   10.3647  -14.3772   28.3679 O   0  0  0  0  0  0  0  0  0  0  0  0
  2  1  1  0
  3  2  2  0
  4  3  1  0
  5  4  2  0
  5 11  1  0
  6  5  1  0
  7  9  1  0
  7  6  1  0
  7  8  1  6
  9 10  2  0
 11 12  2  0
 12  2  1  0
 14 13  1  0
 15 14  1  0
 16 15  1  0
 17 16  1  1
 17 19  1  0
 18 17  1  0
 18  9  1  0
 19 20  2  0
 21 22  1  0
 21 19  1  0
 22 27  1  0
 22 23  1  6
 24 23  1  0
 24 25  1  0
 25 26  2  0
 27 28  2  0
 27 30  1  0
 29 25  1  0
M  END
$$$$
