YME.pdb
     RDKit          3D

 30 30  0  0  1  0  0  0  0  0999 V2000
    6.1360  -12.2566   17.8121 O   0  0  0  0  0  0  0  0  0  0  0  0
    7.1230  -12.9966   18.4856 C   0  0  0  0  0  0  0  0  0  0  0  0
    6.8677  -13.5780   19.7144 C   0  0  0  0  0  0  0  0  0  0  0  0
    7.8135  -14.3149   20.4099 C   0  0  0  0  0  0  0  0  0  0  0  0
    9.0771  -14.4842   19.8593 C   0  0  0  0  0  0  0  0  0  0  0  0
   10.0909  -15.2589   20.5686 C   0  0  0  0  0  0  0  0  0  0  0  0
    9.5310  -16.3214   21.5005 C   0  0  2  0  0  0  0  0  0  0  0  0
    8.1446  -16.6335   21.1117 N   0  0  0  0  0  0  0  0  0  0  0  0
    9.4956  -15.9258   22.9082 C   0  0  0  0  0  0  0  0  0  0  0  0
   10.5340  -15.4929   23.5143 O   0  0  0  0  0  0  0  0  0  0  0  0
    9.3314  -13.9069   18.6386 C   0  0  0  0  0  0  0  0  0  0  0  0
    8.3802  -13.1714   17.9494 C   0  0  0  0  0  0  0  0  0  0  0  0
    6.9597  -11.1239   26.7346 C   0  0  0  0  0  0  0  0  0  0  0  0
    7.3239  -12.8848   26.8069 S   0  0  0  0  0  0  0  0  0  0  0  0
    6.7753  -13.7227   25.2616 C   0  0  0  0  0  0  0  0  0  0  0  0
    6.9812  -15.1756   25.4735 C   0  0  0  0  0  0  0  0  0  0  0  0
    8.3771  -15.6881   25.1751 C   0  0  2  0  0  0  0  0  0  0  0  0
    8.3209  -15.9821   23.7212 N   0  0  0  0  0  0  0  0  0  0  0  0
    8.6916  -16.9607   25.8495 C   0  0  0  0  0  0  0  0  0  0  0  0
    8.0244  -18.0311   25.6005 O   0  0  0  0  0  0  0  0  0  0  0  0
    9.7534  -17.0506   26.8009 N   0  0  0  0  0  0  0  0  0  0  0  0
   10.0971  -18.3689   27.3589 C   0  0  1  0  0  0  0  0  0  0  0  0
   10.7930  -19.1914   26.3049 C   0  0  0  0  0  0  0  0  0  0  0  0
   12.1450  -18.6226   25.9900 C   0  0  0  0  0  0  0  0  0  0  0  0
   12.7885  -19.5024   24.9763 C   0  0  0  0  0  0  0  0  0  0  0  0
   12.9039  -19.0694   23.8090 O   0  0  0  0  0  0  0  0  0  0  0  0
   10.8601  -18.2193   28.6140 C   0  0  0  0  0  0  0  0  0  0  0  0
   11.2644  -17.1256   29.0844 O   0  0  0  0  0  0  0  0  0  0  0  0
   13.2305  -20.7488   25.3519 O   0  0  0  0  0  0  0  0  0  0  0  0
   11.2055  -19.3351   29.4107 O   0  0  0  0  0  0  0  0  0  0  0  0
  2  1  1  0
  3  2  2  0
  4  3  1  0
  5  4  2  0
  5 11  1  0
  6  5  1  0
  7  9  1  0
  7  6  1  0
  7  8  1  6
  9 10  2  0
 11 12  2  0
 12  2  1  0
 14 13  1  0
 15 14  1  0
 16 15  1  0
 17 16  1  1
 17 19  1  0
 18 17  1  0
 18  9  1  0
 19 20  2  0
 21 22  1  0
 21 19  1  0
 22 27  1  0
 22 23  1  6
 24 23  1  0
 24 25  1  0
 25 26  2  0
 27 28  2  0
 27 30  1  0
 29 25  1  0
M  END
$$$$
