YME.pdb
     RDKit          3D

 30 30  0  0  1  0  0  0  0  0999 V2000
    7.1107  -13.5926   15.3162 O   0  0  0  0  0  0  0  0  0  0  0  0
    7.7990  -13.7536   16.5311 C   0  0  0  0  0  0  0  0  0  0  0  0
    7.6711  -12.8310   17.5537 C   0  0  0  0  0  0  0  0  0  0  0  0
    8.3323  -12.9538   18.7658 C   0  0  0  0  0  0  0  0  0  0  0  0
    9.1629  -14.0469   18.9748 C   0  0  0  0  0  0  0  0  0  0  0  0
    9.8682  -14.2029   20.2435 C   0  0  0  0  0  0  0  0  0  0  0  0
    9.4519  -15.4240   21.0474 C   0  0  2  0  0  0  0  0  0  0  0  0
    8.0273  -15.7096   20.8029 N   0  0  0  0  0  0  0  0  0  0  0  0
    9.6097  -15.2721   22.4935 C   0  0  0  0  0  0  0  0  0  0  0  0
   10.7604  -15.2528   23.0489 O   0  0  0  0  0  0  0  0  0  0  0  0
    9.2904  -14.9638   17.9594 C   0  0  0  0  0  0  0  0  0  0  0  0
    8.6258  -14.8338   16.7502 C   0  0  0  0  0  0  0  0  0  0  0  0
    6.6242  -10.9203   26.2787 C   0  0  0  0  0  0  0  0  0  0  0  0
    6.1912  -12.5305   26.9557 S   0  0  0  0  0  0  0  0  0  0  0  0
    7.5784  -13.7205   26.7317 C   0  0  0  0  0  0  0  0  0  0  0  0
    7.6172  -14.0564   25.2880 C   0  0  0  0  0  0  0  0  0  0  0  0
    8.7427  -14.9793   24.8619 C   0  0  2  0  0  0  0  0  0  0  0  0
    8.5155  -15.1311   23.4028 N   0  0  0  0  0  0  0  0  0  0  0  0
    8.6470  -16.3298   25.4450 C   0  0  0  0  0  0  0  0  0  0  0  0
    8.0555  -17.2860   24.8214 O   0  0  0  0  0  0  0  0  0  0  0  0
    9.2129  -16.6252   26.7229 N   0  0  0  0  0  0  0  0  0  0  0  0
    9.9169  -17.9048   26.9090 C   0  0  1  0  0  0  0  0  0  0  0  0
   10.9553  -18.0654   25.8284 C   0  0  0  0  0  0  0  0  0  0  0  0
   11.7306  -19.3358   26.0172 C   0  0  0  0  0  0  0  0  0  0  0  0
   12.7360  -19.4270   24.9235 C   0  0  0  0  0  0  0  0  0  0  0  0
   13.7628  -18.7182   25.0067 O   0  0  0  0  0  0  0  0  0  0  0  0
   10.4486  -18.0105   28.2823 C   0  0  0  0  0  0  0  0  0  0  0  0
   10.6889  -17.0348   29.0382 O   0  0  0  0  0  0  0  0  0  0  0  0
   12.5062  -20.2782   23.8686 O   0  0  0  0  0  0  0  0  0  0  0  0
   10.7376  -19.2624   28.8725 O   0  0  0  0  0  0  0  0  0  0  0  0
  2  1  1  0
  3  2  2  0
  4  3  1  0
  5  4  2  0
  5 11  1  0
  6  5  1  0
  7  9  1  0
  7  6  1  0
  7  8  1  1
  9 10  2  0
 11 12  2  0
 12  2  1  0
 14 13  1  0
 15 14  1  0
 16 15  1  0
 17 16  1  1
 17 19  1  0
 18 17  1  0
 18  9  1  0
 19 20  2  0
 21 22  1  0
 21 19  1  0
 22 27  1  0
 22 23  1  6
 24 23  1  0
 24 25  1  0
 25 26  2  0
 27 28  2  0
 27 30  1  0
 29 25  1  0
M  END
$$$$
