TRG.pdb
     RDKit          3D

 23 22  0  0  1  0  0  0  0  0999 V2000
   21.7751  -17.2714  -16.9607 C   0  0  0  0  0  0  0  0  0  0  0  0
   21.1213  -18.0301  -15.8221 C   0  0  1  0  0  0  0  0  0  0  0  0
   19.9562  -18.6238  -16.3100 O   0  0  0  0  0  0  0  0  0  0  0  0
   22.0625  -19.1194  -15.3828 C   0  0  2  0  0  0  0  0  0  0  0  0
   21.4007  -20.0018  -14.4704 N   0  0  0  0  0  0  0  0  0  0  0  0
   23.2527  -18.5022  -14.7205 C   0  0  0  0  0  0  0  0  0  0  0  0
   23.1523  -17.8734  -13.6408 O   0  0  0  0  0  0  0  0  0  0  0  0
   27.4102  -21.8884  -10.9816 N   0  0  0  0  0  0  0  0  0  0  0  0
   26.3095  -21.1231  -10.4675 C   0  0  0  0  0  0  0  0  0  0  0  0
   25.5750  -21.6441   -9.5751 N   0  0  0  0  0  0  0  0  0  0  0  0
   26.0510  -19.8082  -10.9501 N   0  0  0  0  0  0  0  0  0  0  0  0
   25.8351  -19.5686  -12.3489 C   0  0  0  0  0  0  0  0  0  0  0  0
   27.1022  -19.2852  -13.1245 C   0  0  0  0  0  0  0  0  0  0  0  0
   26.7896  -19.0201  -14.5795 C   0  0  0  0  0  0  0  0  0  0  0  0
   25.7108  -18.0042  -14.7654 C   0  0  2  0  0  0  0  0  0  0  0  0
   24.5380  -18.6211  -15.3164 N   0  0  0  0  0  0  0  0  0  0  0  0
   26.1276  -16.8626  -15.6044 C   0  0  0  0  0  0  0  0  0  0  0  0
   26.4642  -17.0793  -16.7916 O   0  0  0  0  0  0  0  0  0  0  0  0
   24.8033  -21.0951   -9.1476 N   0  0  0  0  0  0  0  0  0  0  0  0
   26.1601  -15.5191  -15.1100 C   0  0  0  0  0  0  0  0  0  0  0  0
   26.7465  -14.5030  -15.9591 C   0  0  0  0  0  0  0  0  0  0  0  0
   25.8117  -13.9937  -16.9643 O   0  0  0  0  0  0  0  0  0  0  0  0
   24.7145  -14.5619  -17.1470 O   0  0  0  0  0  0  0  0  0  0  0  0
  2  1  1  6
  2  3  1  0
  4  6  1  0
  4  2  1  0
  4  5  1  1
  6  7  2  0
  9 11  1  0
  9  8  1  0
 10  9  2  0
 12 11  1  0
 12 13  1  0
 13 14  1  0
 15 14  1  6
 15 17  1  0
 16 15  1  0
 16  6  1  0
 17 19  1  0
 17 18  2  0
 19 20  1  0
 20 21  1  0
 21 22  2  0
 21 23  1  0
M  END
$$$$
