TRG.pdb
     RDKit          3D

 23 22  0  0  1  0  0  0  0  0999 V2000
   27.7144  -10.1984  -15.8272 C   0  0  0  0  0  0  0  0  0  0  0  0
   28.0497  -10.7231  -17.2099 C   0  0  1  0  0  0  0  0  0  0  0  0
   29.3208  -11.2972  -17.1587 O   0  0  0  0  0  0  0  0  0  0  0  0
   27.0556  -11.7985  -17.5573 C   0  0  2  0  0  0  0  0  0  0  0  0
   27.4333  -12.4400  -18.7799 N   0  0  0  0  0  0  0  0  0  0  0  0
   25.6995  -11.1850  -17.7027 C   0  0  0  0  0  0  0  0  0  0  0  0
   25.3789  -10.5322  -18.7235 O   0  0  0  0  0  0  0  0  0  0  0  0
   18.2595  -12.6175  -14.3911 N   0  0  0  0  0  0  0  0  0  0  0  0
   17.8335  -12.0324  -15.6311 C   0  0  0  0  0  0  0  0  0  0  0  0
   16.7365  -11.3975  -15.6550 N   0  0  0  0  0  0  0  0  0  0  0  0
   18.6275  -12.1630  -16.8063 N   0  0  0  0  0  0  0  0  0  0  0  0
   20.0047  -12.5590  -16.7218 C   0  0  0  0  0  0  0  0  0  0  0  0
   20.9796  -11.4054  -16.7993 C   0  0  0  0  0  0  0  0  0  0  0  0
   22.4047  -11.9056  -16.7387 C   0  0  0  0  0  0  0  0  0  0  0  0
   23.4088  -10.8002  -16.7556 C   0  0  2  0  0  0  0  0  0  0  0  0
   24.7375  -11.3354  -16.6667 N   0  0  0  0  0  0  0  0  0  0  0  0
   23.1899   -9.8015  -15.6899 C   0  0  0  0  0  0  0  0  0  0  0  0
   23.5563  -10.0756  -14.5237 O   0  0  0  0  0  0  0  0  0  0  0  0
   16.4565  -10.8701  -16.5054 N   0  0  0  0  0  0  0  0  0  0  0  0
   22.5751   -8.5331  -15.9424 C   0  0  0  0  0  0  0  0  0  0  0  0
   22.4738   -7.6022  -14.8376 C   0  0  0  0  0  0  0  0  0  0  0  0
   21.1571   -7.6211  -14.1976 O   0  0  0  0  0  0  0  0  0  0  0  0
   20.9204   -6.8739  -13.2250 O   0  0  0  0  0  0  0  0  0  0  0  0
  2  1  1  1
  2  3  1  0
  4  6  1  0
  4  2  1  0
  4  5  1  6
  6  7  2  0
  9 11  1  0
  9  8  1  0
 10  9  2  0
 12 11  1  0
 12 13  1  0
 13 14  1  0
 15 14  1  1
 15 17  1  0
 16 15  1  0
 16  6  1  0
 17 19  1  0
 17 18  2  0
 19 20  1  0
 20 21  1  0
 21 22  2  0
 21 23  1  0
M  END
$$$$
