TRG.pdb
     RDKit          3D

 23 22  0  0  1  0  0  0  0  0999 V2000
   18.6843  -12.7265  -18.7860 C   0  0  0  0  0  0  0  0  0  0  0  0
   18.3305  -13.0972  -17.3588 C   0  0  1  0  0  0  0  0  0  0  0  0
   18.4078  -14.4857  -17.2401 O   0  0  0  0  0  0  0  0  0  0  0  0
   19.3581  -12.4836  -16.4462 C   0  0  2  0  0  0  0  0  0  0  0  0
   19.4693  -13.2530  -15.2442 N   0  0  0  0  0  0  0  0  0  0  0  0
   18.9491  -11.0832  -16.1177 C   0  0  0  0  0  0  0  0  0  0  0  0
   18.6970  -10.2442  -17.0141 O   0  0  0  0  0  0  0  0  0  0  0  0
   13.4134  -10.6167  -10.1111 N   0  0  0  0  0  0  0  0  0  0  0  0
   13.1305  -11.1265  -11.4231 C   0  0  0  0  0  0  0  0  0  0  0  0
   12.0347  -11.7354  -11.6122 N   0  0  0  0  0  0  0  0  0  0  0  0
   14.0610  -10.9502  -12.4869 N   0  0  0  0  0  0  0  0  0  0  0  0
   15.2899  -10.2386  -12.2772 C   0  0  0  0  0  0  0  0  0  0  0  0
   16.1436  -10.1112  -13.5192 C   0  0  0  0  0  0  0  0  0  0  0  0
   17.4743   -9.4744  -13.1895 C   0  0  0  0  0  0  0  0  0  0  0  0
   18.3780   -9.3726  -14.3742 C   0  0  2  0  0  0  0  0  0  0  0  0
   18.8389  -10.6757  -14.7600 N   0  0  0  0  0  0  0  0  0  0  0  0
   19.5266   -8.4715  -14.1515 C   0  0  0  0  0  0  0  0  0  0  0  0
   20.5531   -8.9301  -13.5988 O   0  0  0  0  0  0  0  0  0  0  0  0
   11.8115  -12.1312  -12.5466 N   0  0  0  0  0  0  0  0  0  0  0  0
   19.5087   -7.0947  -14.5449 C   0  0  0  0  0  0  0  0  0  0  0  0
   20.7069   -6.3137  -14.3175 C   0  0  0  0  0  0  0  0  0  0  0  0
   20.5526   -4.9103  -14.7050 O   0  0  0  0  0  0  0  0  0  0  0  0
   19.5193   -4.5316  -15.2959 O   0  0  0  0  0  0  0  0  0  0  0  0
  2  1  1  6
  2  3  1  0
  4  6  1  0
  4  2  1  0
  4  5  1  1
  6  7  2  0
  9 11  1  0
  9  8  1  0
 10  9  2  0
 12 11  1  0
 12 13  1  0
 13 14  1  0
 15 14  1  1
 15 17  1  0
 16 15  1  0
 16  6  1  0
 17 19  1  0
 17 18  2  0
 19 20  1  0
 20 21  1  0
 21 22  2  0
 21 23  1  0
M  END
$$$$
