TRG.pdb
     RDKit          3D

 23 22  0  0  1  0  0  0  0  0999 V2000
   18.8992   -7.4525  -12.1626 C   0  0  0  0  0  0  0  0  0  0  0  0
   18.0202   -8.4677  -12.8668 C   0  0  1  0  0  0  0  0  0  0  0  0
   18.8484   -9.3441  -13.5698 O   0  0  0  0  0  0  0  0  0  0  0  0
   17.2776   -9.2524  -11.8188 C   0  0  2  0  0  0  0  0  0  0  0  0
   16.5672  -10.3356  -12.4279 N   0  0  0  0  0  0  0  0  0  0  0  0
   16.3179   -8.3464  -11.1156 C   0  0  0  0  0  0  0  0  0  0  0  0
   15.2899   -7.9087  -11.6837 O   0  0  0  0  0  0  0  0  0  0  0  0
   11.1550   -8.0366   -9.4143 N   0  0  0  0  0  0  0  0  0  0  0  0
   11.0129   -8.8474   -8.2379 C   0  0  0  0  0  0  0  0  0  0  0  0
   10.2503   -9.8588   -8.2888 N   0  0  0  0  0  0  0  0  0  0  0  0
   11.7144   -8.5212   -7.0420 N   0  0  0  0  0  0  0  0  0  0  0  0
   12.9209   -7.7447   -7.0871 C   0  0  0  0  0  0  0  0  0  0  0  0
   14.0484   -8.4082   -7.8460 C   0  0  0  0  0  0  0  0  0  0  0  0
   15.3126   -7.5850   -7.7517 C   0  0  0  0  0  0  0  0  0  0  0  0
   15.7365   -7.0198   -9.0676 C   0  0  2  0  0  0  0  0  0  0  0  0
   16.5621   -7.9612   -9.7690 N   0  0  0  0  0  0  0  0  0  0  0  0
   16.4336   -5.7238   -8.9446 C   0  0  0  0  0  0  0  0  0  0  0  0
   17.4865   -5.6685   -8.2679 O   0  0  0  0  0  0  0  0  0  0  0  0
   10.1249  -10.4613   -7.4516 N   0  0  0  0  0  0  0  0  0  0  0  0
   15.9497   -4.5304   -9.5708 C   0  0  0  0  0  0  0  0  0  0  0  0
   16.7022   -3.3100   -9.3663 C   0  0  0  0  0  0  0  0  0  0  0  0
   16.1974   -2.1907  -10.1637 O   0  0  0  0  0  0  0  0  0  0  0  0
   16.6881   -1.0502  -10.0274 O   0  0  0  0  0  0  0  0  0  0  0  0
  2  1  1  1
  2  3  1  0
  4  6  1  0
  4  2  1  0
  4  5  1  6
  6  7  2  0
  9 11  1  0
  9  8  1  0
 10  9  2  0
 12 11  1  0
 12 13  1  0
 13 14  1  0
 15 14  1  1
 15 17  1  0
 16 15  1  0
 16  6  1  0
 17 19  1  0
 17 18  2  0
 19 20  1  0
 20 21  1  0
 21 22  2  0
 21 23  1  0
M  END
$$$$
