TRG.pdb
     RDKit          3D

 23 22  0  0  1  0  0  0  0  0999 V2000
   21.6336  -13.3854  -19.2440 C   0  0  0  0  0  0  0  0  0  0  0  0
   21.2380  -14.4920  -20.2024 C   0  0  1  0  0  0  0  0  0  0  0  0
   22.1976  -14.5524  -21.2140 O   0  0  0  0  0  0  0  0  0  0  0  0
   21.2585  -15.7948  -19.4488 C   0  0  2  0  0  0  0  0  0  0  0  0
   21.0054  -16.8835  -20.3430 N   0  0  0  0  0  0  0  0  0  0  0  0
   20.2124  -15.7604  -18.3806 C   0  0  0  0  0  0  0  0  0  0  0  0
   18.9942  -15.8834  -18.6487 O   0  0  0  0  0  0  0  0  0  0  0  0
   19.5180  -19.6164  -10.7271 N   0  0  0  0  0  0  0  0  0  0  0  0
   18.3011  -18.8618  -10.8329 C   0  0  0  0  0  0  0  0  0  0  0  0
   17.3973  -19.0465   -9.9633 N   0  0  0  0  0  0  0  0  0  0  0  0
   18.1162  -17.9268  -11.8912 N   0  0  0  0  0  0  0  0  0  0  0  0
   19.1060  -17.7768  -12.9200 C   0  0  0  0  0  0  0  0  0  0  0  0
   18.8206  -16.6476  -13.8847 C   0  0  0  0  0  0  0  0  0  0  0  0
   19.9053  -16.5542  -14.9334 C   0  0  0  0  0  0  0  0  0  0  0  0
   19.6366  -15.4969  -15.9534 C   0  0  2  0  0  0  0  0  0  0  0  0
   20.5911  -15.5840  -17.0216 N   0  0  0  0  0  0  0  0  0  0  0  0
   19.6294  -14.1331  -15.3869 C   0  0  0  0  0  0  0  0  0  0  0  0
   20.7229  -13.5998  -15.0877 O   0  0  0  0  0  0  0  0  0  0  0  0
   16.5368  -18.4641   -9.9724 N   0  0  0  0  0  0  0  0  0  0  0  0
   18.4190  -13.3998  -15.1685 C   0  0  0  0  0  0  0  0  0  0  0  0
   18.5270  -12.0832  -14.5752 C   0  0  0  0  0  0  0  0  0  0  0  0
   17.2269  -11.5122  -14.2184 O   0  0  0  0  0  0  0  0  0  0  0  0
   16.1725  -12.0851  -14.5651 O   0  0  0  0  0  0  0  0  0  0  0  0
  2  1  1  1
  2  3  1  0
  4  6  1  0
  4  2  1  0
  4  5  1  6
  6  7  2  0
  9 11  1  0
  9  8  1  0
 10  9  2  0
 12 11  1  0
 12 13  1  0
 13 14  1  0
 15 14  1  1
 15 17  1  0
 16 15  1  0
 16  6  1  0
 17 19  1  0
 17 18  2  0
 19 20  1  0
 20 21  1  0
 21 22  2  0
 21 23  1  0
M  END
$$$$
