TRG.pdb
     RDKit          3D

 23 22  0  0  1  0  0  0  0  0999 V2000
   28.7328  -19.1041  -17.6369 C   0  0  0  0  0  0  0  0  0  0  0  0
   27.5714  -19.5767  -16.7841 C   0  0  1  0  0  0  0  0  0  0  0  0
   26.4640  -19.7470  -17.6164 O   0  0  0  0  0  0  0  0  0  0  0  0
   27.9348  -20.9137  -16.1960 C   0  0  2  0  0  0  0  0  0  0  0  0
   28.0321  -21.8960  -17.2326 N   0  0  0  0  0  0  0  0  0  0  0  0
   26.8858  -21.3174  -15.2095 C   0  0  0  0  0  0  0  0  0  0  0  0
   26.0173  -22.1772  -15.4878 O   0  0  0  0  0  0  0  0  0  0  0  0
   22.8569  -20.3763   -9.0793 N   0  0  0  0  0  0  0  0  0  0  0  0
   23.5848  -21.0792   -8.0608 C   0  0  0  0  0  0  0  0  0  0  0  0
   22.9315  -21.6695   -7.1486 N   0  0  0  0  0  0  0  0  0  0  0  0
   25.0086  -21.1120   -8.0773 N   0  0  0  0  0  0  0  0  0  0  0  0
   25.7436  -20.5417   -9.1705 C   0  0  0  0  0  0  0  0  0  0  0  0
   25.2805  -21.0117  -10.5314 C   0  0  0  0  0  0  0  0  0  0  0  0
   26.2159  -20.5210  -11.6126 C   0  0  0  0  0  0  0  0  0  0  0  0
   25.7957  -20.9477  -12.9808 C   0  0  2  0  0  0  0  0  0  0  0  0
   26.8577  -20.7211  -13.9192 N   0  0  0  0  0  0  0  0  0  0  0  0
   24.5593  -20.2841  -13.4411 C   0  0  0  0  0  0  0  0  0  0  0  0
   24.6218  -19.0920  -13.8215 O   0  0  0  0  0  0  0  0  0  0  0  0
   23.4320  -22.1523   -6.3765 N   0  0  0  0  0  0  0  0  0  0  0  0
   23.2940  -20.9540  -13.4684 C   0  0  0  0  0  0  0  0  0  0  0  0
   22.1492  -20.2114  -13.9534 C   0  0  0  0  0  0  0  0  0  0  0  0
   20.9074  -20.9853  -13.9041 O   0  0  0  0  0  0  0  0  0  0  0  0
   20.9232  -22.1752  -13.5246 O   0  0  0  0  0  0  0  0  0  0  0  0
  2  1  1  6
  2  3  1  0
  4  6  1  0
  4  2  1  0
  4  5  1  6
  6  7  2  0
  9 11  1  0
  9  8  1  0
 10  9  2  0
 12 11  1  0
 12 13  1  0
 13 14  1  0
 15 14  1  1
 15 17  1  0
 16 15  1  0
 16  6  1  0
 17 19  1  0
 17 18  2  0
 19 20  1  0
 20 21  1  0
 21 22  2  0
 21 23  1  0
M  END
$$$$
