TRG.pdb
     RDKit          3D

 23 22  0  0  1  0  0  0  0  0999 V2000
   18.0528  -29.2198  -11.2542 C   0  0  0  0  0  0  0  0  0  0  0  0
   19.5691  -29.2359  -11.2701 C   0  0  1  0  0  0  0  0  0  0  0  0
   19.9826  -30.0083  -12.3566 O   0  0  0  0  0  0  0  0  0  0  0  0
   20.0511  -27.8253  -11.4782 C   0  0  2  0  0  0  0  0  0  0  0  0
   21.4786  -27.8045  -11.5822 N   0  0  0  0  0  0  0  0  0  0  0  0
   19.6128  -26.9815  -10.3239 C   0  0  0  0  0  0  0  0  0  0  0  0
   20.2621  -26.9444   -9.2524 O   0  0  0  0  0  0  0  0  0  0  0  0
   14.2143  -23.5934   -6.8224 N   0  0  0  0  0  0  0  0  0  0  0  0
   14.0230  -22.2352   -7.2470 C   0  0  0  0  0  0  0  0  0  0  0  0
   13.2491  -21.4932   -6.5703 N   0  0  0  0  0  0  0  0  0  0  0  0
   14.6891  -21.7349   -8.4022 N   0  0  0  0  0  0  0  0  0  0  0  0
   15.2612  -22.6316   -9.3661 C   0  0  0  0  0  0  0  0  0  0  0  0
   16.4060  -23.4604   -8.8279 C   0  0  0  0  0  0  0  0  0  0  0  0
   16.9368  -24.3931   -9.8925 C   0  0  0  0  0  0  0  0  0  0  0  0
   17.9839  -25.3252   -9.3776 C   0  0  2  0  0  0  0  0  0  0  0  0
   18.4323  -26.1959  -10.4266 N   0  0  0  0  0  0  0  0  0  0  0  0
   17.5342  -26.1177   -8.2154 C   0  0  0  0  0  0  0  0  0  0  0  0
   16.6848  -27.0209   -8.3953 O   0  0  0  0  0  0  0  0  0  0  0  0
   13.1029  -20.5020   -6.8457 N   0  0  0  0  0  0  0  0  0  0  0  0
   18.0342  -25.8910   -6.8929 C   0  0  0  0  0  0  0  0  0  0  0  0
   17.5548  -26.7554   -5.8344 C   0  0  0  0  0  0  0  0  0  0  0  0
   18.2551  -26.5431   -4.5664 O   0  0  0  0  0  0  0  0  0  0  0  0
   19.1942  -25.7225   -4.4969 O   0  0  0  0  0  0  0  0  0  0  0  0
  2  1  1  6
  2  3  1  0
  4  6  1  0
  4  2  1  0
  4  5  1  1
  6  7  2  0
  9 11  1  0
  9  8  1  0
 10  9  2  0
 12 11  1  0
 12 13  1  0
 13 14  1  0
 15 14  1  6
 15 17  1  0
 16 15  1  0
 16  6  1  0
 17 19  1  0
 17 18  2  0
 19 20  1  0
 20 21  1  0
 21 22  2  0
 21 23  1  0
M  END
$$$$
