TRG.pdb
     RDKit          3D

 23 22  0  0  1  0  0  0  0  0999 V2000
   27.2564  -17.3875  -21.3085 C   0  0  0  0  0  0  0  0  0  0  0  0
   27.7923  -18.5496  -20.4950 C   0  0  1  0  0  0  0  0  0  0  0  0
   28.9034  -19.0688  -21.1612 O   0  0  0  0  0  0  0  0  0  0  0  0
   28.2425  -18.0197  -19.1601 C   0  0  2  0  0  0  0  0  0  0  0  0
   28.9768  -19.0257  -18.4546 N   0  0  0  0  0  0  0  0  0  0  0  0
   27.0439  -17.6126  -18.3639 C   0  0  0  0  0  0  0  0  0  0  0  0
   26.1484  -16.8825  -18.8499 O   0  0  0  0  0  0  0  0  0  0  0  0
   24.2098  -24.9633  -14.8043 N   0  0  0  0  0  0  0  0  0  0  0  0
   24.5379  -23.6560  -14.3096 C   0  0  0  0  0  0  0  0  0  0  0  0
   24.6343  -23.4901  -13.0565 N   0  0  0  0  0  0  0  0  0  0  0  0
   24.7507  -22.5718  -15.2084 N   0  0  0  0  0  0  0  0  0  0  0  0
   25.0175  -21.2504  -14.7150 C   0  0  0  0  0  0  0  0  0  0  0  0
   25.1886  -20.2135  -15.8025 C   0  0  0  0  0  0  0  0  0  0  0  0
   25.5503  -18.8714  -15.2085 C   0  0  0  0  0  0  0  0  0  0  0  0
   25.7207  -17.8065  -16.2417 C   0  0  2  0  0  0  0  0  0  0  0  0
   26.9003  -18.0550  -17.0204 N   0  0  0  0  0  0  0  0  0  0  0  0
   25.7652  -16.4456  -15.6701 C   0  0  0  0  0  0  0  0  0  0  0  0
   26.8095  -16.0712  -15.0879 O   0  0  0  0  0  0  0  0  0  0  0  0
   24.8351  -22.5474  -12.6682 N   0  0  0  0  0  0  0  0  0  0  0  0
   24.6592  -15.5404  -15.7581 C   0  0  0  0  0  0  0  0  0  0  0  0
   24.8012  -14.2410  -15.1345 C   0  0  0  0  0  0  0  0  0  0  0  0
   23.6194  -13.3946  -15.3092 O   0  0  0  0  0  0  0  0  0  0  0  0
   23.5426  -12.2940  -14.7236 O   0  0  0  0  0  0  0  0  0  0  0  0
  2  1  1  6
  2  3  1  0
  4  6  1  0
  4  2  1  0
  4  5  1  1
  6  7  2  0
  9 11  1  0
  9  8  1  0
 10  9  2  0
 12 11  1  0
 12 13  1  0
 13 14  1  0
 15 14  1  1
 15 17  1  0
 16 15  1  0
 16  6  1  0
 17 19  1  0
 17 18  2  0
 19 20  1  0
 20 21  1  0
 21 22  2  0
 21 23  1  0
M  END
$$$$
