TRG.pdb
     RDKit          3D

 23 22  0  0  1  0  0  0  0  0999 V2000
   23.8813  -21.7415  -20.0120 C   0  0  0  0  0  0  0  0  0  0  0  0
   25.0065  -20.9947  -19.3223 C   0  0  1  0  0  0  0  0  0  0  0  0
   25.8469  -20.4725  -20.3067 O   0  0  0  0  0  0  0  0  0  0  0  0
   24.4065  -19.8492  -18.5522 C   0  0  2  0  0  0  0  0  0  0  0  0
   25.4430  -19.0044  -18.0414 N   0  0  0  0  0  0  0  0  0  0  0  0
   23.5895  -20.3913  -17.4230 C   0  0  0  0  0  0  0  0  0  0  0  0
   22.7641  -21.3189  -17.5944 O   0  0  0  0  0  0  0  0  0  0  0  0
   23.6684  -21.2561   -9.4571 N   0  0  0  0  0  0  0  0  0  0  0  0
   22.2507  -21.1157   -9.6354 C   0  0  0  0  0  0  0  0  0  0  0  0
   21.4802  -21.8820   -8.9825 N   0  0  0  0  0  0  0  0  0  0  0  0
   21.7242  -20.1366  -10.5256 N   0  0  0  0  0  0  0  0  0  0  0  0
   22.5019  -19.6567  -11.6326 C   0  0  0  0  0  0  0  0  0  0  0  0
   23.0180  -20.7518  -12.5391 C   0  0  0  0  0  0  0  0  0  0  0  0
   23.7336  -20.1634  -13.7335 C   0  0  0  0  0  0  0  0  0  0  0  0
   22.9512  -20.2907  -14.9992 C   0  0  2  0  0  0  0  0  0  0  0  0
   23.7393  -19.8527  -16.1158 N   0  0  0  0  0  0  0  0  0  0  0  0
   21.6682  -19.5603  -14.9638 C   0  0  0  0  0  0  0  0  0  0  0  0
   21.6883  -18.3077  -14.9700 O   0  0  0  0  0  0  0  0  0  0  0  0
   20.4549  -21.8575   -9.1493 N   0  0  0  0  0  0  0  0  0  0  0  0
   20.4043  -20.2322  -14.9233 C   0  0  0  0  0  0  0  0  0  0  0  0
   19.2073  -19.4180  -14.9653 C   0  0  0  0  0  0  0  0  0  0  0  0
   18.4824  -19.4073  -13.6933 O   0  0  0  0  0  0  0  0  0  0  0  0
   18.9341  -20.0270  -12.7074 O   0  0  0  0  0  0  0  0  0  0  0  0
  2  1  1  6
  2  3  1  0
  4  6  1  0
  4  2  1  0
  4  5  1  1
  6  7  2  0
  9 11  1  0
  9  8  1  0
 10  9  2  0
 12 11  1  0
 12 13  1  0
 13 14  1  0
 15 14  1  1
 15 17  1  0
 16 15  1  0
 16  6  1  0
 17 19  1  0
 17 18  2  0
 19 20  1  0
 20 21  1  0
 21 22  2  0
 21 23  1  0
M  END
$$$$
