TRG.pdb
     RDKit          3D

 23 22  0  0  1  0  0  0  0  0999 V2000
   28.7138  -18.8868  -15.7765 C   0  0  0  0  0  0  0  0  0  0  0  0
   27.3009  -19.3333  -15.4542 C   0  0  1  0  0  0  0  0  0  0  0  0
   26.5559  -19.2983  -16.6340 O   0  0  0  0  0  0  0  0  0  0  0  0
   27.3578  -20.7570  -14.9694 C   0  0  2  0  0  0  0  0  0  0  0  0
   27.7504  -21.6244  -16.0383 N   0  0  0  0  0  0  0  0  0  0  0  0
   26.0099  -21.1562  -14.4594 C   0  0  0  0  0  0  0  0  0  0  0  0
   25.3044  -22.0021  -15.0575 O   0  0  0  0  0  0  0  0  0  0  0  0
   21.8179  -22.8775   -7.7383 N   0  0  0  0  0  0  0  0  0  0  0  0
   20.9420  -21.8840   -8.2928 C   0  0  0  0  0  0  0  0  0  0  0  0
   19.7233  -22.1841   -8.4715 N   0  0  0  0  0  0  0  0  0  0  0  0
   21.4333  -20.5911   -8.6327 N   0  0  0  0  0  0  0  0  0  0  0  0
   22.7199  -20.4332   -9.2493 C   0  0  0  0  0  0  0  0  0  0  0  0
   22.7359  -20.7607  -10.7257 C   0  0  0  0  0  0  0  0  0  0  0  0
   24.1187  -20.5601  -11.3023 C   0  0  0  0  0  0  0  0  0  0  0  0
   24.1850  -20.8512  -12.7656 C   0  0  2  0  0  0  0  0  0  0  0  0
   25.4998  -20.5714  -13.2681 N   0  0  0  0  0  0  0  0  0  0  0  0
   23.1729  -20.1152  -13.5498 C   0  0  0  0  0  0  0  0  0  0  0  0
   23.2811  -18.8715  -13.6557 O   0  0  0  0  0  0  0  0  0  0  0  0
   19.0823  -21.5111   -8.9362 N   0  0  0  0  0  0  0  0  0  0  0  0
   22.0746  -20.7717  -14.1926 C   0  0  0  0  0  0  0  0  0  0  0  0
   21.1937  -19.9650  -15.0115 C   0  0  0  0  0  0  0  0  0  0  0  0
   19.9971  -19.5223  -14.2934 O   0  0  0  0  0  0  0  0  0  0  0  0
   19.9360  -19.6261  -13.0502 O   0  0  0  0  0  0  0  0  0  0  0  0
  2  1  1  6
  2  3  1  0
  4  6  1  0
  4  2  1  0
  4  5  1  6
  6  7  2  0
  9 11  1  0
  9  8  1  0
 10  9  2  0
 12 11  1  0
 12 13  1  0
 13 14  1  0
 15 14  1  1
 15 17  1  0
 16 15  1  0
 16  6  1  0
 17 19  1  0
 17 18  2  0
 19 20  1  0
 20 21  1  0
 21 22  2  0
 21 23  1  0
M  END
$$$$
