TRG.pdb
     RDKit          3D

 23 22  0  0  1  0  0  0  0  0999 V2000
   29.5935  -22.6007  -19.0096 C   0  0  0  0  0  0  0  0  0  0  0  0
   28.3426  -22.7732  -18.1699 C   0  0  1  0  0  0  0  0  0  0  0  0
   28.6597  -23.5894  -17.0831 O   0  0  0  0  0  0  0  0  0  0  0  0
   27.9382  -21.4208  -17.6473 C   0  0  2  0  0  0  0  0  0  0  0  0
   28.9845  -20.8743  -16.8376 N   0  0  0  0  0  0  0  0  0  0  0  0
   26.6888  -21.5610  -16.8374 C   0  0  0  0  0  0  0  0  0  0  0  0
   25.6679  -22.1257  -17.2956 O   0  0  0  0  0  0  0  0  0  0  0  0
   25.6156  -20.5486   -8.0521 N   0  0  0  0  0  0  0  0  0  0  0  0
   24.2856  -20.7939   -8.5341 C   0  0  0  0  0  0  0  0  0  0  0  0
   23.3332  -20.8141   -7.6977 N   0  0  0  0  0  0  0  0  0  0  0  0
   24.0439  -21.0086   -9.9213 N   0  0  0  0  0  0  0  0  0  0  0  0
   25.1258  -21.0015  -10.8648 C   0  0  0  0  0  0  0  0  0  0  0  0
   24.6864  -21.1737  -12.3017 C   0  0  0  0  0  0  0  0  0  0  0  0
   25.8686  -21.0688  -13.2378 C   0  0  0  0  0  0  0  0  0  0  0  0
   25.4792  -21.1609  -14.6767 C   0  0  2  0  0  0  0  0  0  0  0  0
   26.6398  -21.0463  -15.5131 N   0  0  0  0  0  0  0  0  0  0  0  0
   24.4678  -20.1588  -15.0691 C   0  0  0  0  0  0  0  0  0  0  0  0
   24.7923  -18.9488  -15.0805 O   0  0  0  0  0  0  0  0  0  0  0  0
   22.3567  -20.9606   -8.0212 N   0  0  0  0  0  0  0  0  0  0  0  0
   23.1321  -20.5208  -15.4367 C   0  0  0  0  0  0  0  0  0  0  0  0
   22.1973  -19.4507  -15.7168 C   0  0  0  0  0  0  0  0  0  0  0  0
   21.0526  -19.4428  -14.8041 O   0  0  0  0  0  0  0  0  0  0  0  0
   20.9748  -20.2863  -13.8862 O   0  0  0  0  0  0  0  0  0  0  0  0
  2  1  1  6
  2  3  1  0
  4  6  1  0
  4  2  1  0
  4  5  1  1
  6  7  2  0
  9 11  1  0
  9  8  1  0
 10  9  2  0
 12 11  1  0
 12 13  1  0
 13 14  1  0
 15 14  1  1
 15 17  1  0
 16 15  1  0
 16  6  1  0
 17 19  1  0
 17 18  2  0
 19 20  1  0
 20 21  1  0
 21 22  2  0
 21 23  1  0
M  END
$$$$
