TRG.pdb
     RDKit          3D

 23 22  0  0  1  0  0  0  0  0999 V2000
   20.2789  -22.5517  -15.4171 C   0  0  0  0  0  0  0  0  0  0  0  0
   19.8681  -21.3290  -14.6198 C   0  0  1  0  0  0  0  0  0  0  0  0
   18.7753  -21.6775  -13.8246 O   0  0  0  0  0  0  0  0  0  0  0  0
   21.0120  -20.9514  -13.7174 C   0  0  2  0  0  0  0  0  0  0  0  0
   20.5915  -19.9510  -12.7839 N   0  0  0  0  0  0  0  0  0  0  0  0
   22.1409  -20.4296  -14.5480 C   0  0  0  0  0  0  0  0  0  0  0  0
   22.0615  -19.3341  -15.1519 O   0  0  0  0  0  0  0  0  0  0  0  0
   26.5314  -21.4018   -9.7862 N   0  0  0  0  0  0  0  0  0  0  0  0
   25.3293  -20.9472  -10.4263 C   0  0  0  0  0  0  0  0  0  0  0  0
   24.2741  -20.8477   -9.7308 N   0  0  0  0  0  0  0  0  0  0  0  0
   25.3251  -20.6153  -11.8114 N   0  0  0  0  0  0  0  0  0  0  0  0
   26.5451  -20.6049  -12.5678 C   0  0  0  0  0  0  0  0  0  0  0  0
   26.3786  -20.1244  -13.9921 C   0  0  0  0  0  0  0  0  0  0  0  0
   25.7372  -21.1948  -14.8453 C   0  0  0  0  0  0  0  0  0  0  0  0
   24.4533  -20.7505  -15.4655 C   0  0  2  0  0  0  0  0  0  0  0  0
   23.3414  -21.1818  -14.6672 N   0  0  0  0  0  0  0  0  0  0  0  0
   24.2908  -21.2145  -16.8580 C   0  0  0  0  0  0  0  0  0  0  0  0
   23.7316  -22.3166  -17.0639 O   0  0  0  0  0  0  0  0  0  0  0  0
   23.3896  -20.5207  -10.1672 N   0  0  0  0  0  0  0  0  0  0  0  0
   24.7485  -20.4504  -17.9792 C   0  0  0  0  0  0  0  0  0  0  0  0
   24.4074  -20.9272  -19.3035 C   0  0  0  0  0  0  0  0  0  0  0  0
   25.4023  -21.8532  -19.8478 O   0  0  0  0  0  0  0  0  0  0  0  0
   26.1791  -22.4620  -19.0824 O   0  0  0  0  0  0  0  0  0  0  0  0
  2  1  1  1
  2  3  1  0
  4  6  1  0
  4  2  1  0
  4  5  1  1
  6  7  2  0
  9 11  1  0
  9  8  1  0
 10  9  2  0
 12 11  1  0
 12 13  1  0
 13 14  1  0
 15 14  1  1
 15 17  1  0
 16 15  1  0
 16  6  1  0
 17 19  1  0
 17 18  2  0
 19 20  1  0
 20 21  1  0
 21 22  2  0
 21 23  1  0
M  END
$$$$
