TRG.pdb
     RDKit          3D

 23 22  0  0  1  0  0  0  0  0999 V2000
   29.8355   -9.4438  -16.7951 C   0  0  0  0  0  0  0  0  0  0  0  0
   30.0882  -10.4333  -17.9160 C   0  0  1  0  0  0  0  0  0  0  0  0
   31.4543  -10.7185  -17.9422 O   0  0  0  0  0  0  0  0  0  0  0  0
   29.3432  -11.7020  -17.5986 C   0  0  2  0  0  0  0  0  0  0  0  0
   29.7540  -12.7477  -18.4856 N   0  0  0  0  0  0  0  0  0  0  0  0
   27.8749  -11.4587  -17.7446 C   0  0  0  0  0  0  0  0  0  0  0  0
   27.3210  -11.4332  -18.8687 O   0  0  0  0  0  0  0  0  0  0  0  0
   22.3223  -16.4073  -14.5979 N   0  0  0  0  0  0  0  0  0  0  0  0
   22.9917  -16.6423  -15.8462 C   0  0  0  0  0  0  0  0  0  0  0  0
   22.8217  -17.7584  -16.4230 N   0  0  0  0  0  0  0  0  0  0  0  0
   23.8267  -15.6424  -16.4220 N   0  0  0  0  0  0  0  0  0  0  0  0
   23.9594  -14.3526  -15.8060 C   0  0  0  0  0  0  0  0  0  0  0  0
   24.8010  -13.3784  -16.5998 C   0  0  0  0  0  0  0  0  0  0  0  0
   24.9314  -12.0636  -15.8655 C   0  0  0  0  0  0  0  0  0  0  0  0
   25.6558  -11.0257  -16.6582 C   0  0  2  0  0  0  0  0  0  0  0  0
   27.0719  -11.2484  -16.5904 N   0  0  0  0  0  0  0  0  0  0  0  0
   25.3364   -9.6467  -16.2372 C   0  0  0  0  0  0  0  0  0  0  0  0
   25.8863   -9.1888  -15.2089 O   0  0  0  0  0  0  0  0  0  0  0  0
   23.3053  -17.9620  -17.3198 N   0  0  0  0  0  0  0  0  0  0  0  0
   24.4224   -8.8160  -16.9618 C   0  0  0  0  0  0  0  0  0  0  0  0
   24.2247   -7.4611  -16.4899 C   0  0  0  0  0  0  0  0  0  0  0  0
   23.0877   -7.3381  -15.5757 O   0  0  0  0  0  0  0  0  0  0  0  0
   22.3950   -8.3391  -15.2962 O   0  0  0  0  0  0  0  0  0  0  0  0
  2  1  1  1
  2  3  1  0
  4  6  1  0
  4  2  1  0
  4  5  1  6
  6  7  2  0
  9 11  1  0
  9  8  1  0
 10  9  2  0
 12 11  1  0
 12 13  1  0
 13 14  1  0
 15 14  1  1
 15 17  1  0
 16 15  1  0
 16  6  1  0
 17 19  1  0
 17 18  2  0
 19 20  1  0
 20 21  1  0
 21 22  2  0
 21 23  1  0
M  END
$$$$
