TRG.pdb
     RDKit          3D

 23 22  0  0  1  0  0  0  0  0999 V2000
   25.2872  -23.4949  -15.8081 C   0  0  0  0  0  0  0  0  0  0  0  0
   26.4325  -22.5155  -15.6389 C   0  0  1  0  0  0  0  0  0  0  0  0
   27.5302  -23.0061  -16.3476 O   0  0  0  0  0  0  0  0  0  0  0  0
   26.0207  -21.2024  -16.2485 C   0  0  2  0  0  0  0  0  0  0  0  0
   27.1337  -20.3025  -16.2744 N   0  0  0  0  0  0  0  0  0  0  0  0
   24.9090  -20.6131  -15.4402 C   0  0  0  0  0  0  0  0  0  0  0  0
   25.1317  -19.8233  -14.4928 O   0  0  0  0  0  0  0  0  0  0  0  0
   18.6130  -15.8866  -17.0164 N   0  0  0  0  0  0  0  0  0  0  0  0
   17.7871  -16.7205  -16.1894 C   0  0  0  0  0  0  0  0  0  0  0  0
   16.7710  -16.2046  -15.6338 N   0  0  0  0  0  0  0  0  0  0  0  0
   18.1037  -18.0961  -15.9996 N   0  0  0  0  0  0  0  0  0  0  0  0
   19.3190  -18.6494  -16.5264 C   0  0  0  0  0  0  0  0  0  0  0  0
   20.3081  -19.0765  -15.4650 C   0  0  0  0  0  0  0  0  0  0  0  0
   21.5115  -19.7415  -16.0931 C   0  0  0  0  0  0  0  0  0  0  0  0
   22.4423  -20.3291  -15.0838 C   0  0  2  0  0  0  0  0  0  0  0  0
   23.5597  -20.9464  -15.7396 N   0  0  0  0  0  0  0  0  0  0  0  0
   21.7843  -21.2952  -14.1812 C   0  0  0  0  0  0  0  0  0  0  0  0
   21.5460  -22.4496  -14.6057 O   0  0  0  0  0  0  0  0  0  0  0  0
   16.1174  -16.7982  -15.0860 N   0  0  0  0  0  0  0  0  0  0  0  0
   21.4102  -20.9598  -12.8403 C   0  0  0  0  0  0  0  0  0  0  0  0
   20.7801  -21.9890  -12.0396 C   0  0  0  0  0  0  0  0  0  0  0  0
   19.3773  -21.6963  -11.7397 O   0  0  0  0  0  0  0  0  0  0  0  0
   18.8349  -20.6730  -12.2074 O   0  0  0  0  0  0  0  0  0  0  0  0
  2  1  1  6
  2  3  1  0
  4  6  1  0
  4  2  1  0
  4  5  1  1
  6  7  2  0
  9 11  1  0
  9  8  1  0
 10  9  2  0
 12 11  1  0
 12 13  1  0
 13 14  1  0
 15 14  1  6
 15 17  1  0
 16 15  1  0
 16  6  1  0
 17 19  1  0
 17 18  2  0
 19 20  1  0
 20 21  1  0
 21 22  2  0
 21 23  1  0
M  END
$$$$
