TRG.pdb
     RDKit          3D

 23 22  0  0  1  0  0  0  0  0999 V2000
   27.1217  -10.9978  -14.8162 C   0  0  0  0  0  0  0  0  0  0  0  0
   27.4935  -10.9104  -16.2837 C   0  0  1  0  0  0  0  0  0  0  0  0
   28.6992  -11.5895  -16.4661 O   0  0  0  0  0  0  0  0  0  0  0  0
   26.4268  -11.6123  -17.0805 C   0  0  2  0  0  0  0  0  0  0  0  0
   26.8529  -11.7721  -18.4377 N   0  0  0  0  0  0  0  0  0  0  0  0
   25.1686  -10.8053  -17.0341 C   0  0  0  0  0  0  0  0  0  0  0  0
   25.0825   -9.6883  -17.5963 O   0  0  0  0  0  0  0  0  0  0  0  0
   16.8336  -11.5137  -16.6745 N   0  0  0  0  0  0  0  0  0  0  0  0
   17.7354  -12.5564  -17.0757 C   0  0  0  0  0  0  0  0  0  0  0  0
   17.3220  -13.7547  -17.0552 N   0  0  0  0  0  0  0  0  0  0  0  0
   19.0637  -12.2491  -17.4876 N   0  0  0  0  0  0  0  0  0  0  0  0
   19.6207  -10.9461  -17.2583 C   0  0  0  0  0  0  0  0  0  0  0  0
   20.3273  -10.8074  -15.9284 C   0  0  0  0  0  0  0  0  0  0  0  0
   21.6682  -11.5045  -15.9609 C   0  0  0  0  0  0  0  0  0  0  0  0
   22.8004  -10.5717  -16.2409 C   0  0  2  0  0  0  0  0  0  0  0  0
   24.0321  -11.3017  -16.3390 N   0  0  0  0  0  0  0  0  0  0  0  0
   22.9255   -9.4943  -15.2386 C   0  0  0  0  0  0  0  0  0  0  0  0
   23.4454   -9.7607  -14.1303 O   0  0  0  0  0  0  0  0  0  0  0  0
   16.6659  -14.0684  -16.3130 N   0  0  0  0  0  0  0  0  0  0  0  0
   22.4749   -8.1583  -15.4887 C   0  0  0  0  0  0  0  0  0  0  0  0
   22.6274   -7.1862  -14.4260 C   0  0  0  0  0  0  0  0  0  0  0  0
   22.0450   -5.8848  -14.7585 O   0  0  0  0  0  0  0  0  0  0  0  0
   21.4742   -5.7138  -15.8562 O   0  0  0  0  0  0  0  0  0  0  0  0
  2  1  1  1
  2  3  1  0
  4  6  1  0
  4  2  1  0
  4  5  1  6
  6  7  2  0
  9 11  1  0
  9  8  1  0
 10  9  2  0
 12 11  1  0
 12 13  1  0
 13 14  1  0
 15 14  1  1
 15 17  1  0
 16 15  1  0
 16  6  1  0
 17 19  1  0
 17 18  2  0
 19 20  1  0
 20 21  1  0
 21 22  2  0
 21 23  1  0
M  END
$$$$
