LAW.pdb
     RDKit          3D

 28 29  0  0  1  0  0  0  0  0999 V2000
    8.8020  -13.2728   17.3632 C   0  0  0  0  0  0  0  0  0  0  0  0
    7.7536  -13.5848   18.4406 C   0  0  2  0  0  0  0  0  0  0  0  0
    6.5930  -12.6694   18.1887 C   0  0  0  0  0  0  0  0  0  0  0  0
    8.3705  -13.4147   19.8097 C   0  0  0  0  0  0  0  0  0  0  0  0
    9.3928  -14.4785   20.0284 C   0  0  2  0  0  0  0  0  0  0  0  0
    9.6193  -15.1763   18.7958 N   0  0  0  0  0  0  0  0  0  0  0  0
    9.0945  -15.3752   21.1600 C   0  0  0  0  0  0  0  0  0  0  0  0
    8.6585  -14.9083   22.2429 O   0  0  0  0  0  0  0  0  0  0  0  0
    9.4320  -19.0580   21.9704 C   0  0  0  0  0  0  0  0  0  0  0  0
    9.0288  -17.6406   22.2608 C   0  0  2  0  0  0  0  0  0  0  0  0
    9.2711  -16.7928   21.1159 N   0  0  0  0  0  0  0  0  0  0  0  0
    9.7809  -17.1738   23.4592 C   0  0  0  0  0  0  0  0  0  0  0  0
   10.9298  -16.6189   23.3482 O   0  0  0  0  0  0  0  0  0  0  0  0
    9.2917  -17.3071   24.7733 N   0  0  0  0  0  0  0  0  0  0  0  0
   10.0974  -16.8940   25.9354 C   0  0  1  0  0  0  0  0  0  0  0  0
    9.7885  -15.4314   26.0942 C   0  0  0  0  0  0  0  0  0  0  0  0
    8.4007  -15.0302   26.1311 C   0  0  0  0  0  0  0  0  0  0  0  0
    7.3271  -15.8726   25.9104 C   0  0  0  0  0  0  0  0  0  0  0  0
    6.1878  -15.1710   25.9854 N   0  0  0  0  0  0  0  0  0  0  0  0
    6.5006  -13.8969   26.2499 C   0  0  0  0  0  0  0  0  0  0  0  0
    5.7421  -12.7573   26.4465 C   0  0  0  0  0  0  0  0  0  0  0  0
    6.3226  -11.5364   26.7318 C   0  0  0  0  0  0  0  0  0  0  0  0
    7.7000  -11.4519   26.8231 C   0  0  0  0  0  0  0  0  0  0  0  0
    8.4634  -12.5546   26.6337 C   0  0  0  0  0  0  0  0  0  0  0  0
    7.8855  -13.7752   26.3480 C   0  0  0  0  0  0  0  0  0  0  0  0
    9.7365  -17.6739   27.1263 C   0  0  0  0  0  0  0  0  0  0  0  0
    8.6998  -18.6167   27.0974 O   0  0  0  0  0  0  0  0  0  0  0  0
   10.3171  -17.5571   28.2349 O   0  0  0  0  0  0  0  0  0  0  0  0
  2  3  1  1
  2  1  1  0
  4  2  1  0
  5  4  1  0
  5  6  1  6
  7  5  1  0
  8  7  2  0
 10  9  1  6
 10 12  1  0
 10 11  1  0
 11  7  1  0
 12 13  2  0
 14 15  1  0
 14 12  1  0
 16 17  1  0
 15 16  1  1
 17 18  2  0
 18 19  1  0
 20 19  1  0
 21 20  2  0
 22 21  1  0
 23 24  1  0
 23 22  2  0
 24 25  2  0
 25 17  1  0
 25 20  1  0
 26 27  1  0
 26 15  1  0
 28 26  2  0
M  END
$$$$
