LAW.pdb
     RDKit          3D

 28 29  0  0  1  0  0  0  0  0999 V2000
    7.9354  -13.8590   19.6567 C   0  0  0  0  0  0  0  0  0  0  0  0
    7.0664  -13.7851   20.9204 C   0  0  2  0  0  0  0  0  0  0  0  0
    7.0677  -12.3513   21.3595 C   0  0  0  0  0  0  0  0  0  0  0  0
    7.6087  -14.7360   21.9623 C   0  0  0  0  0  0  0  0  0  0  0  0
    7.8595  -16.0664   21.3365 C   0  0  2  0  0  0  0  0  0  0  0  0
    6.6348  -16.8125   21.3061 N   0  0  0  0  0  0  0  0  0  0  0  0
    8.9814  -16.8110   21.9368 C   0  0  0  0  0  0  0  0  0  0  0  0
    8.7613  -17.7883   22.6966 O   0  0  0  0  0  0  0  0  0  0  0  0
   12.7551  -16.8518   21.6601 C   0  0  0  0  0  0  0  0  0  0  0  0
   11.4353  -17.3136   22.2087 C   0  0  2  0  0  0  0  0  0  0  0  0
   10.3560  -16.4920   21.7103 N   0  0  0  0  0  0  0  0  0  0  0  0
   11.5077  -17.2825   23.6965 C   0  0  0  0  0  0  0  0  0  0  0  0
   12.3981  -17.9481   24.3325 O   0  0  0  0  0  0  0  0  0  0  0  0
   10.6198  -16.5340   24.4934 N   0  0  0  0  0  0  0  0  0  0  0  0
   10.7454  -16.5075   25.9610 C   0  0  1  0  0  0  0  0  0  0  0  0
   10.1750  -15.1733   26.3537 C   0  0  0  0  0  0  0  0  0  0  0  0
    8.7553  -14.9643   26.1826 C   0  0  0  0  0  0  0  0  0  0  0  0
    7.8407  -15.9549   25.8770 C   0  0  0  0  0  0  0  0  0  0  0  0
    6.6210  -15.4129   25.7571 N   0  0  0  0  0  0  0  0  0  0  0  0
    6.7267  -14.0973   25.9788 C   0  0  0  0  0  0  0  0  0  0  0  0
    5.8073  -13.0645   26.0013 C   0  0  0  0  0  0  0  0  0  0  0  0
    6.1799  -11.7639   26.2820 C   0  0  0  0  0  0  0  0  0  0  0  0
    7.5087  -11.4878   26.5477 C   0  0  0  0  0  0  0  0  0  0  0  0
    8.4271  -12.4832   26.5306 C   0  0  0  0  0  0  0  0  0  0  0  0
    8.0572  -13.7831   26.2497 C   0  0  0  0  0  0  0  0  0  0  0  0
   10.0160  -17.6279   26.5690 C   0  0  0  0  0  0  0  0  0  0  0  0
    9.3871  -18.6040   25.7840 O   0  0  0  0  0  0  0  0  0  0  0  0
    9.9041  -17.7915   27.8101 O   0  0  0  0  0  0  0  0  0  0  0  0
  2  3  1  1
  2  1  1  0
  4  2  1  0
  5  4  1  0
  5  6  1  1
  7  5  1  0
  8  7  2  0
 10  9  1  6
 10 12  1  0
 10 11  1  0
 11  7  1  0
 12 13  2  0
 14 15  1  0
 14 12  1  0
 16 17  1  0
 15 16  1  1
 17 18  2  0
 18 19  1  0
 20 19  1  0
 21 20  2  0
 22 21  1  0
 23 24  1  0
 23 22  2  0
 24 25  2  0
 25 17  1  0
 25 20  1  0
 26 27  1  0
 26 15  1  0
 28 26  2  0
M  END
$$$$
