LAW.pdb
     RDKit          3D

 28 29  0  0  1  0  0  0  0  0999 V2000
    7.6721  -21.7379   19.6351 C   0  0  0  0  0  0  0  0  0  0  0  0
    6.9177  -20.5363   19.0482 C   0  0  2  0  0  0  0  0  0  0  0  0
    6.5133  -20.9208   17.6565 C   0  0  0  0  0  0  0  0  0  0  0  0
    7.7999  -19.3104   19.1035 C   0  0  0  0  0  0  0  0  0  0  0  0
    7.9304  -18.8572   20.5185 C   0  0  2  0  0  0  0  0  0  0  0  0
    6.6615  -18.9865   21.1748 N   0  0  0  0  0  0  0  0  0  0  0  0
    8.5307  -17.5190   20.6680 C   0  0  0  0  0  0  0  0  0  0  0  0
    9.7118  -17.3068   20.2927 O   0  0  0  0  0  0  0  0  0  0  0  0
    7.4126  -14.0253   21.4840 C   0  0  0  0  0  0  0  0  0  0  0  0
    8.4566  -15.0984   21.3632 C   0  0  2  0  0  0  0  0  0  0  0  0
    7.8425  -16.3998   21.2304 N   0  0  0  0  0  0  0  0  0  0  0  0
    9.3432  -15.0285   22.5584 C   0  0  0  0  0  0  0  0  0  0  0  0
   10.1630  -14.0582   22.7219 O   0  0  0  0  0  0  0  0  0  0  0  0
    9.3431  -16.0051   23.5733 N   0  0  0  0  0  0  0  0  0  0  0  0
   10.3585  -15.9998   24.6406 C   0  0  1  0  0  0  0  0  0  0  0  0
    9.7647  -15.1223   25.7070 C   0  0  0  0  0  0  0  0  0  0  0  0
    8.3276  -14.9747   25.7431 C   0  0  0  0  0  0  0  0  0  0  0  0
    7.4214  -15.9942   25.5187 C   0  0  0  0  0  0  0  0  0  0  0  0
    6.1753  -15.5068   25.5941 N   0  0  0  0  0  0  0  0  0  0  0  0
    6.2560  -14.1982   25.8625 C   0  0  0  0  0  0  0  0  0  0  0  0
    5.3065  -13.2125   26.0612 C   0  0  0  0  0  0  0  0  0  0  0  0
    5.6601  -11.9085   26.3506 C   0  0  0  0  0  0  0  0  0  0  0  0
    7.0004  -11.5804   26.4440 C   0  0  0  0  0  0  0  0  0  0  0  0
    7.9480  -12.5290   26.2526 C   0  0  0  0  0  0  0  0  0  0  0  0
    7.5970  -13.8321   25.9627 C   0  0  0  0  0  0  0  0  0  0  0  0
   10.6206  -17.3629   25.1205 C   0  0  0  0  0  0  0  0  0  0  0  0
   11.7027  -17.6462   25.9650 O   0  0  0  0  0  0  0  0  0  0  0  0
    9.9103  -18.3543   24.8169 O   0  0  0  0  0  0  0  0  0  0  0  0
  2  3  1  6
  2  1  1  0
  4  2  1  0
  5  4  1  0
  5  6  1  6
  7  5  1  0
  8  7  2  0
 10  9  1  1
 10 12  1  0
 10 11  1  0
 11  7  1  0
 12 13  2  0
 14 15  1  0
 14 12  1  0
 16 17  1  0
 15 16  1  1
 17 18  2  0
 18 19  1  0
 20 19  1  0
 21 20  2  0
 22 21  1  0
 23 24  1  0
 23 22  2  0
 24 25  2  0
 25 17  1  0
 25 20  1  0
 26 27  1  0
 26 15  1  0
 28 26  2  0
M  END
$$$$
