LAW.pdb
     RDKit          3D

 28 29  0  0  1  0  0  0  0  0999 V2000
    8.5860  -13.6712   17.7706 C   0  0  0  0  0  0  0  0  0  0  0  0
    7.5158  -13.7397   18.8694 C   0  0  2  0  0  0  0  0  0  0  0  0
    7.1130  -12.3261   19.1657 C   0  0  0  0  0  0  0  0  0  0  0  0
    8.0699  -14.4735   20.0688 C   0  0  0  0  0  0  0  0  0  0  0  0
    8.3036  -15.9025   19.7110 C   0  0  2  0  0  0  0  0  0  0  0  0
    7.0957  -16.4583   19.1729 N   0  0  0  0  0  0  0  0  0  0  0  0
    8.8810  -16.7086   20.8020 C   0  0  0  0  0  0  0  0  0  0  0  0
    8.1484  -17.1449   21.7261 O   0  0  0  0  0  0  0  0  0  0  0  0
   12.2164  -18.2263   21.7231 C   0  0  0  0  0  0  0  0  0  0  0  0
   10.8224  -17.7533   22.0217 C   0  0  2  0  0  0  0  0  0  0  0  0
   10.2673  -17.0446   20.8913 N   0  0  0  0  0  0  0  0  0  0  0  0
   10.8674  -16.8963   23.2395 C   0  0  0  0  0  0  0  0  0  0  0  0
   11.0932  -15.6382   23.1587 O   0  0  0  0  0  0  0  0  0  0  0  0
   10.6687  -17.3986   24.5403 N   0  0  0  0  0  0  0  0  0  0  0  0
   10.6419  -16.5039   25.7103 C   0  0  1  0  0  0  0  0  0  0  0  0
    9.3014  -15.8291   25.6252 C   0  0  0  0  0  0  0  0  0  0  0  0
    8.9360  -14.9086   26.6777 C   0  0  0  0  0  0  0  0  0  0  0  0
    9.2591  -15.0644   28.0128 C   0  0  0  0  0  0  0  0  0  0  0  0
    8.7376  -14.0512   28.7181 N   0  0  0  0  0  0  0  0  0  0  0  0
    8.0869  -13.2457   27.8703 C   0  0  0  0  0  0  0  0  0  0  0  0
    7.3874  -12.0642   28.0358 C   0  0  0  0  0  0  0  0  0  0  0  0
    6.8109  -11.4036   26.9679 C   0  0  0  0  0  0  0  0  0  0  0  0
    6.9371  -11.9388   25.6989 C   0  0  0  0  0  0  0  0  0  0  0  0
    7.6171  -13.0953   25.5127 C   0  0  0  0  0  0  0  0  0  0  0  0
    8.1932  -13.7573   26.5782 C   0  0  0  0  0  0  0  0  0  0  0  0
   10.8062  -17.2654   26.9554 C   0  0  0  0  0  0  0  0  0  0  0  0
   10.3737  -18.5942   27.0632 O   0  0  0  0  0  0  0  0  0  0  0  0
   11.3351  -16.7933   27.9932 O   0  0  0  0  0  0  0  0  0  0  0  0
  2  3  1  1
  2  1  1  0
  4  2  1  0
  5  4  1  0
  5  6  1  1
  7  5  1  0
  8  7  2  0
 10  9  1  6
 10 12  1  0
 10 11  1  0
 11  7  1  0
 12 13  2  0
 14 15  1  0
 14 12  1  0
 16 17  1  0
 15 16  1  1
 17 18  2  0
 18 19  1  0
 20 19  1  0
 21 20  2  0
 22 21  1  0
 23 24  1  0
 23 22  2  0
 24 25  2  0
 25 17  1  0
 25 20  1  0
 26 27  1  0
 26 15  1  0
 28 26  2  0
M  END
$$$$
