LAW.pdb
     RDKit          3D

 28 29  0  0  1  0  0  0  0  0999 V2000
    8.7938  -13.2706   19.0723 C   0  0  0  0  0  0  0  0  0  0  0  0
    7.6227  -13.4115   20.0553 C   0  0  2  0  0  0  0  0  0  0  0  0
    7.1811  -12.0206   20.3997 C   0  0  0  0  0  0  0  0  0  0  0  0
    8.0642  -14.2190   21.2540 C   0  0  0  0  0  0  0  0  0  0  0  0
    8.4614  -15.5868   20.8113 C   0  0  2  0  0  0  0  0  0  0  0  0
    7.3931  -16.1650   20.0484 N   0  0  0  0  0  0  0  0  0  0  0  0
    8.9367  -16.4573   21.9021 C   0  0  0  0  0  0  0  0  0  0  0  0
    8.1176  -17.1157   22.5924 O   0  0  0  0  0  0  0  0  0  0  0  0
   11.8937  -18.3196   22.9455 C   0  0  0  0  0  0  0  0  0  0  0  0
   10.7480  -17.4381   23.3531 C   0  0  2  0  0  0  0  0  0  0  0  0
   10.3146  -16.6149   22.2473 N   0  0  0  0  0  0  0  0  0  0  0  0
   11.1798  -16.6133   24.5161 C   0  0  0  0  0  0  0  0  0  0  0  0
   12.3902  -16.6362   24.9341 O   0  0  0  0  0  0  0  0  0  0  0  0
   10.3052  -15.7666   25.2246 N   0  0  0  0  0  0  0  0  0  0  0  0
   10.1873  -15.8424   26.6911 C   0  0  1  0  0  0  0  0  0  0  0  0
    8.7676  -16.2786   26.9226 C   0  0  0  0  0  0  0  0  0  0  0  0
    7.7079  -15.4572   26.3834 C   0  0  0  0  0  0  0  0  0  0  0  0
    6.5335  -15.9392   25.8360 C   0  0  0  0  0  0  0  0  0  0  0  0
    5.7899  -14.9120   25.4026 N   0  0  0  0  0  0  0  0  0  0  0  0
    6.4558  -13.7796   25.6579 C   0  0  0  0  0  0  0  0  0  0  0  0
    6.1671  -12.4437   25.4464 C   0  0  0  0  0  0  0  0  0  0  0  0
    7.0374  -11.4412   25.8292 C   0  0  0  0  0  0  0  0  0  0  0  0
    8.2298  -11.7833   26.4406 C   0  0  0  0  0  0  0  0  0  0  0  0
    8.5343  -13.0851   26.6574 C   0  0  0  0  0  0  0  0  0  0  0  0
    7.6666  -14.0883   26.2751 C   0  0  0  0  0  0  0  0  0  0  0  0
   11.1611  -16.7915   27.2461 C   0  0  0  0  0  0  0  0  0  0  0  0
   11.9244  -17.6255   26.4177 O   0  0  0  0  0  0  0  0  0  0  0  0
   11.3780  -16.9233   28.4770 O   0  0  0  0  0  0  0  0  0  0  0  0
  2  3  1  1
  2  1  1  0
  4  2  1  0
  5  4  1  0
  5  6  1  1
  7  5  1  0
  8  7  2  0
 10  9  1  6
 10 12  1  0
 10 11  1  0
 11  7  1  0
 12 13  2  0
 14 15  1  0
 14 12  1  0
 16 17  1  0
 15 16  1  6
 17 18  2  0
 18 19  1  0
 20 19  1  0
 21 20  2  0
 22 21  1  0
 23 24  1  0
 23 22  2  0
 24 25  2  0
 25 17  1  0
 25 20  1  0
 26 27  1  0
 26 15  1  0
 28 26  2  0
M  END
$$$$
