LAW.pdb
     RDKit          3D

 28 29  0  0  1  0  0  0  0  0999 V2000
    8.9306  -21.5324   18.8293 C   0  0  0  0  0  0  0  0  0  0  0  0
    8.2775  -20.2147   18.3882 C   0  0  2  0  0  0  0  0  0  0  0  0
    8.0443  -20.3241   16.9110 C   0  0  0  0  0  0  0  0  0  0  0  0
    9.1674  -19.0559   18.7747 C   0  0  0  0  0  0  0  0  0  0  0  0
    8.8407  -18.6219   20.1637 C   0  0  2  0  0  0  0  0  0  0  0  0
    7.5074  -19.0400   20.4878 N   0  0  0  0  0  0  0  0  0  0  0  0
    9.0810  -17.1897   20.4181 C   0  0  0  0  0  0  0  0  0  0  0  0
   10.2024  -16.6793   20.1677 O   0  0  0  0  0  0  0  0  0  0  0  0
    7.0826  -14.1160   21.2365 C   0  0  0  0  0  0  0  0  0  0  0  0
    8.3608  -14.9036   21.1946 C   0  0  2  0  0  0  0  0  0  0  0  0
    8.0944  -16.3026   20.9493 N   0  0  0  0  0  0  0  0  0  0  0  0
    9.0818  -14.6989   22.4822 C   0  0  0  0  0  0  0  0  0  0  0  0
    9.4418  -13.5306   22.8638 O   0  0  0  0  0  0  0  0  0  0  0  0
    9.4122  -15.7547   23.3540 N   0  0  0  0  0  0  0  0  0  0  0  0
   10.1606  -15.5129   24.5996 C   0  0  1  0  0  0  0  0  0  0  0  0
    9.2234  -15.9656   25.6841 C   0  0  0  0  0  0  0  0  0  0  0  0
    7.9447  -15.3019   25.7979 C   0  0  0  0  0  0  0  0  0  0  0  0
    6.7212  -15.8919   25.5413 C   0  0  0  0  0  0  0  0  0  0  0  0
    5.7467  -14.9877   25.7104 N   0  0  0  0  0  0  0  0  0  0  0  0
    6.3120  -13.8293   26.0705 C   0  0  0  0  0  0  0  0  0  0  0  0
    5.7999  -12.5838   26.3853 C   0  0  0  0  0  0  0  0  0  0  0  0
    6.6172  -11.5323   26.7533 C   0  0  0  0  0  0  0  0  0  0  0  0
    7.9847  -11.7310   26.8081 C   0  0  0  0  0  0  0  0  0  0  0  0
    8.5090  -12.9420   26.5034 C   0  0  0  0  0  0  0  0  0  0  0  0
    7.6945  -13.9938   26.1349 C   0  0  0  0  0  0  0  0  0  0  0  0
   11.4243  -16.2613   24.6046 C   0  0  0  0  0  0  0  0  0  0  0  0
   11.7547  -17.1467   23.5696 O   0  0  0  0  0  0  0  0  0  0  0  0
   12.2842  -16.1656   25.5162 O   0  0  0  0  0  0  0  0  0  0  0  0
  2  3  1  6
  2  1  1  0
  4  2  1  0
  5  4  1  0
  5  6  1  6
  7  5  1  0
  8  7  2  0
 10  9  1  1
 10 12  1  0
 10 11  1  0
 11  7  1  0
 12 13  2  0
 14 15  1  0
 14 12  1  0
 16 17  1  0
 15 16  1  1
 17 18  2  0
 18 19  1  0
 20 19  1  0
 21 20  2  0
 22 21  1  0
 23 24  1  0
 23 22  2  0
 24 25  2  0
 25 17  1  0
 25 20  1  0
 26 27  1  0
 26 15  1  0
 28 26  2  0
M  END
$$$$
