LAW.pdb
     RDKit          3D

 28 29  0  0  1  0  0  0  0  0999 V2000
    8.6629  -12.1062   19.1215 C   0  0  0  0  0  0  0  0  0  0  0  0
    7.7378  -13.3281   19.0286 C   0  0  2  0  0  0  0  0  0  0  0  0
    6.4054  -12.8238   18.5608 C   0  0  0  0  0  0  0  0  0  0  0  0
    7.6833  -14.0232   20.3694 C   0  0  0  0  0  0  0  0  0  0  0  0
    9.0627  -14.4119   20.7826 C   0  0  2  0  0  0  0  0  0  0  0  0
    9.8206  -14.7713   19.6190 N   0  0  0  0  0  0  0  0  0  0  0  0
    9.1066  -15.4328   21.8454 C   0  0  0  0  0  0  0  0  0  0  0  0
    8.3053  -15.3777   22.8128 O   0  0  0  0  0  0  0  0  0  0  0  0
   11.0671  -18.5783   22.6270 C   0  0  0  0  0  0  0  0  0  0  0  0
   10.0294  -17.5271   22.8990 C   0  0  2  0  0  0  0  0  0  0  0  0
   10.0291  -16.5243   21.8586 N   0  0  0  0  0  0  0  0  0  0  0  0
   10.3030  -16.9311   24.2367 C   0  0  0  0  0  0  0  0  0  0  0  0
   11.1313  -15.9644   24.3766 O   0  0  0  0  0  0  0  0  0  0  0  0
    9.6829  -17.3796   25.4191 N   0  0  0  0  0  0  0  0  0  0  0  0
   10.0589  -16.8340   26.7348 C   0  0  1  0  0  0  0  0  0  0  0  0
    8.7492  -16.6840   27.4573 C   0  0  0  0  0  0  0  0  0  0  0  0
    7.7770  -15.7614   26.9171 C   0  0  0  0  0  0  0  0  0  0  0  0
    6.6384  -16.1275   26.2237 C   0  0  0  0  0  0  0  0  0  0  0  0
    5.9795  -15.0266   25.8368 N   0  0  0  0  0  0  0  0  0  0  0  0
    6.6649  -13.9597   26.2646 C   0  0  0  0  0  0  0  0  0  0  0  0
    6.4510  -12.5967   26.1688 C   0  0  0  0  0  0  0  0  0  0  0  0
    7.3231  -11.6818   26.7270 C   0  0  0  0  0  0  0  0  0  0  0  0
    8.4403  -12.1419   27.3998 C   0  0  0  0  0  0  0  0  0  0  0  0
    8.6707  -13.4724   27.5058 C   0  0  0  0  0  0  0  0  0  0  0  0
    7.8013  -14.3882   26.9483 C   0  0  0  0  0  0  0  0  0  0  0  0
   10.9815  -17.7390   27.4325 C   0  0  0  0  0  0  0  0  0  0  0  0
   11.6437  -17.3485   28.6044 O   0  0  0  0  0  0  0  0  0  0  0  0
   11.2401  -18.9046   27.0398 O   0  0  0  0  0  0  0  0  0  0  0  0
  2  3  1  1
  2  1  1  0
  4  2  1  0
  5  4  1  0
  5  6  1  6
  7  5  1  0
  8  7  2  0
 10  9  1  6
 10 12  1  0
 10 11  1  0
 11  7  1  0
 12 13  2  0
 14 15  1  0
 14 12  1  0
 16 17  1  0
 15 16  1  1
 17 18  2  0
 18 19  1  0
 20 19  1  0
 21 20  2  0
 22 21  1  0
 23 24  1  0
 23 22  2  0
 24 25  2  0
 25 17  1  0
 25 20  1  0
 26 27  1  0
 26 15  1  0
 28 26  2  0
M  END
$$$$
