LAW.pdb
     RDKit          3D

 28 29  0  0  1  0  0  0  0  0999 V2000
    9.3075  -12.8186   18.4181 C   0  0  0  0  0  0  0  0  0  0  0  0
    7.8492  -13.2896   18.5136 C   0  0  2  0  0  0  0  0  0  0  0  0
    7.0116  -12.0596   18.6977 C   0  0  0  0  0  0  0  0  0  0  0  0
    7.7135  -14.2868   19.6411 C   0  0  0  0  0  0  0  0  0  0  0  0
    8.6344  -15.4351   19.4007 C   0  0  2  0  0  0  0  0  0  0  0  0
    8.1799  -16.1739   18.2583 N   0  0  0  0  0  0  0  0  0  0  0  0
    8.8650  -16.2792   20.5872 C   0  0  0  0  0  0  0  0  0  0  0  0
    7.8950  -16.6834   21.2776 O   0  0  0  0  0  0  0  0  0  0  0  0
   10.9871  -18.7858   21.9277 C   0  0  0  0  0  0  0  0  0  0  0  0
   10.3622  -17.4556   22.2373 C   0  0  2  0  0  0  0  0  0  0  0  0
   10.1610  -16.6889   21.0289 N   0  0  0  0  0  0  0  0  0  0  0  0
   11.2393  -16.7375   23.2040 C   0  0  0  0  0  0  0  0  0  0  0  0
   12.3869  -17.2021   23.5319 O   0  0  0  0  0  0  0  0  0  0  0  0
   10.8762  -15.5210   23.8140 N   0  0  0  0  0  0  0  0  0  0  0  0
    9.9614  -15.4867   24.9681 C   0  0  1  0  0  0  0  0  0  0  0  0
    8.5911  -15.5128   24.3506 C   0  0  0  0  0  0  0  0  0  0  0  0
    7.5063  -14.8941   25.0778 C   0  0  0  0  0  0  0  0  0  0  0  0
    6.2818  -15.4853   25.3270 C   0  0  0  0  0  0  0  0  0  0  0  0
    5.4997  -14.6253   25.9938 N   0  0  0  0  0  0  0  0  0  0  0  0
    6.1903  -13.4945   26.1814 C   0  0  0  0  0  0  0  0  0  0  0  0
    5.8949  -12.2982   26.8093 C   0  0  0  0  0  0  0  0  0  0  0  0
    6.8131  -11.2683   26.8830 C   0  0  0  0  0  0  0  0  0  0  0  0
    8.0616  -11.4388   26.3131 C   0  0  0  0  0  0  0  0  0  0  0  0
    8.3731  -12.6015   25.6923 C   0  0  0  0  0  0  0  0  0  0  0  0
    7.4572  -13.6315   25.6169 C   0  0  0  0  0  0  0  0  0  0  0  0
   10.1961  -16.6327   25.8562 C   0  0  0  0  0  0  0  0  0  0  0  0
   10.1205  -17.9508   25.3859 O   0  0  0  0  0  0  0  0  0  0  0  0
   10.4762  -16.5195   27.0762 O   0  0  0  0  0  0  0  0  0  0  0  0
  2  3  1  1
  2  1  1  0
  4  2  1  0
  5  4  1  0
  5  6  1  6
  7  5  1  0
  8  7  2  0
 10  9  1  6
 10 12  1  0
 10 11  1  0
 11  7  1  0
 12 13  2  0
 14 15  1  0
 14 12  1  0
 16 17  1  0
 15 16  1  6
 17 18  2  0
 18 19  1  0
 20 19  1  0
 21 20  2  0
 22 21  1  0
 23 24  1  0
 23 22  2  0
 24 25  2  0
 25 17  1  0
 25 20  1  0
 26 27  1  0
 26 15  1  0
 28 26  2  0
M  END
$$$$
