LAW.pdb
     RDKit          3D

 28 29  0  0  1  0  0  0  0  0999 V2000
    9.1055  -13.4784   18.5663 C   0  0  0  0  0  0  0  0  0  0  0  0
    7.7936  -13.4607   19.3640 C   0  0  2  0  0  0  0  0  0  0  0  0
    7.3915  -12.0224   19.4977 C   0  0  0  0  0  0  0  0  0  0  0  0
    7.9996  -14.1558   20.6900 C   0  0  0  0  0  0  0  0  0  0  0  0
    8.2965  -15.5980   20.4527 C   0  0  2  0  0  0  0  0  0  0  0  0
    7.2110  -16.1903   19.7259 N   0  0  0  0  0  0  0  0  0  0  0  0
    8.6593  -16.3452   21.6708 C   0  0  0  0  0  0  0  0  0  0  0  0
    7.7729  -16.6859   22.4950 O   0  0  0  0  0  0  0  0  0  0  0  0
   11.6477  -18.2042   22.9878 C   0  0  0  0  0  0  0  0  0  0  0  0
   10.3129  -17.5357   23.1529 C   0  0  2  0  0  0  0  0  0  0  0  0
    9.9972  -16.7267   21.9977 N   0  0  0  0  0  0  0  0  0  0  0  0
   10.3453  -16.7227   24.4009 C   0  0  0  0  0  0  0  0  0  0  0  0
   10.8078  -15.5284   24.4042 O   0  0  0  0  0  0  0  0  0  0  0  0
    9.8790  -17.2001   25.6412 N   0  0  0  0  0  0  0  0  0  0  0  0
   10.1695  -16.4838   26.8952 C   0  0  1  0  0  0  0  0  0  0  0  0
    8.8273  -16.3458   27.5579 C   0  0  0  0  0  0  0  0  0  0  0  0
    7.8036  -15.5934   26.8690 C   0  0  0  0  0  0  0  0  0  0  0  0
    6.7603  -16.1491   26.1522 C   0  0  0  0  0  0  0  0  0  0  0  0
    6.0182  -15.1708   25.6154 N   0  0  0  0  0  0  0  0  0  0  0  0
    6.5572  -13.9980   25.9692 C   0  0  0  0  0  0  0  0  0  0  0  0
    6.2091  -12.6829   25.7201 C   0  0  0  0  0  0  0  0  0  0  0  0
    6.9400  -11.6272   26.2302 C   0  0  0  0  0  0  0  0  0  0  0  0
    8.0500  -11.8931   27.0111 C   0  0  0  0  0  0  0  0  0  0  0  0
    8.4104  -13.1732   27.2679 C   0  0  0  0  0  0  0  0  0  0  0  0
    7.6820  -14.2295   26.7588 C   0  0  0  0  0  0  0  0  0  0  0  0
   11.1246  -17.2366   27.7188 C   0  0  0  0  0  0  0  0  0  0  0  0
   11.5735  -18.5092   27.3403 O   0  0  0  0  0  0  0  0  0  0  0  0
   11.5999  -16.8055   28.7995 O   0  0  0  0  0  0  0  0  0  0  0  0
  2  3  1  1
  2  1  1  0
  4  2  1  0
  5  4  1  0
  5  6  1  1
  7  5  1  0
  8  7  2  0
 10  9  1  6
 10 12  1  0
 10 11  1  0
 11  7  1  0
 12 13  2  0
 14 15  1  0
 14 12  1  0
 16 17  1  0
 15 16  1  1
 17 18  2  0
 18 19  1  0
 20 19  1  0
 21 20  2  0
 22 21  1  0
 23 24  1  0
 23 22  2  0
 24 25  2  0
 25 17  1  0
 25 20  1  0
 26 27  1  0
 26 15  1  0
 28 26  2  0
M  END
$$$$
