LAW.pdb
     RDKit          3D

 28 29  0  0  1  0  0  0  0  0999 V2000
    9.3334  -13.5585   18.3426 C   0  0  0  0  0  0  0  0  0  0  0  0
    8.0926  -13.2155   19.1793 C   0  0  2  0  0  0  0  0  0  0  0  0
    8.0551  -11.7214   19.2997 C   0  0  0  0  0  0  0  0  0  0  0  0
    8.1690  -13.9267   20.5106 C   0  0  0  0  0  0  0  0  0  0  0  0
    8.1176  -15.4007   20.2888 C   0  0  2  0  0  0  0  0  0  0  0  0
    6.8918  -15.7357   19.6234 N   0  0  0  0  0  0  0  0  0  0  0  0
    8.3590  -16.2001   21.5038 C   0  0  0  0  0  0  0  0  0  0  0  0
    7.5140  -16.2123   22.4347 O   0  0  0  0  0  0  0  0  0  0  0  0
   10.8259  -18.7805   22.7181 C   0  0  0  0  0  0  0  0  0  0  0  0
    9.7456  -17.7566   22.9191 C   0  0  2  0  0  0  0  0  0  0  0  0
    9.5291  -16.9943   21.7106 N   0  0  0  0  0  0  0  0  0  0  0  0
   10.1345  -16.8802   24.0594 C   0  0  0  0  0  0  0  0  0  0  0  0
   10.9366  -15.8951   23.8969 O   0  0  0  0  0  0  0  0  0  0  0  0
    9.6574  -17.0690   25.3711 N   0  0  0  0  0  0  0  0  0  0  0  0
   10.4052  -16.5675   26.5370 C   0  0  1  0  0  0  0  0  0  0  0  0
    9.7596  -15.2455   26.8455 C   0  0  0  0  0  0  0  0  0  0  0  0
    8.3694  -15.0694   26.4924 C   0  0  0  0  0  0  0  0  0  0  0  0
    7.4789  -16.0978   26.2465 C   0  0  0  0  0  0  0  0  0  0  0  0
    6.2866  -15.5842   25.9139 N   0  0  0  0  0  0  0  0  0  0  0  0
    6.3864  -14.2499   25.9403 C   0  0  0  0  0  0  0  0  0  0  0  0
    5.4843  -13.2285   25.7043 C   0  0  0  0  0  0  0  0  0  0  0  0
    5.8430  -11.8992   25.8197 C   0  0  0  0  0  0  0  0  0  0  0  0
    7.1396  -11.5817   26.1811 C   0  0  0  0  0  0  0  0  0  0  0  0
    8.0405  -12.5652   26.4165 C   0  0  0  0  0  0  0  0  0  0  0  0
    7.6846  -13.8939   26.3012 C   0  0  0  0  0  0  0  0  0  0  0  0
   10.3156  -17.5089   27.6607 C   0  0  0  0  0  0  0  0  0  0  0  0
    9.5445  -18.6763   27.5779 O   0  0  0  0  0  0  0  0  0  0  0  0
   10.9102  -17.3419   28.7553 O   0  0  0  0  0  0  0  0  0  0  0  0
  2  3  1  1
  2  1  1  0
  4  2  1  0
  5  4  1  0
  5  6  1  1
  7  5  1  0
  8  7  2  0
 10  9  1  6
 10 12  1  0
 10 11  1  0
 11  7  1  0
 12 13  2  0
 14 15  1  0
 14 12  1  0
 16 17  1  0
 15 16  1  1
 17 18  2  0
 18 19  1  0
 20 19  1  0
 21 20  2  0
 22 21  1  0
 23 24  1  0
 23 22  2  0
 24 25  2  0
 25 17  1  0
 25 20  1  0
 26 27  1  0
 26 15  1  0
 28 26  2  0
M  END
$$$$
