LAW.pdb
     RDKit          3D

 28 29  0  0  1  0  0  0  0  0999 V2000
    9.1964  -13.3168   17.7562 C   0  0  0  0  0  0  0  0  0  0  0  0
    7.8876  -13.5668   18.5192 C   0  0  2  0  0  0  0  0  0  0  0  0
    7.3095  -12.2194   18.8338 C   0  0  0  0  0  0  0  0  0  0  0  0
    8.1701  -14.4037   19.7455 C   0  0  0  0  0  0  0  0  0  0  0  0
    8.7507  -15.7129   19.3290 C   0  0  2  0  0  0  0  0  0  0  0  0
    7.8295  -16.3819   18.4564 N   0  0  0  0  0  0  0  0  0  0  0  0
    9.2055  -16.5531   20.4518 C   0  0  0  0  0  0  0  0  0  0  0  0
    8.3701  -17.0847   21.2268 O   0  0  0  0  0  0  0  0  0  0  0  0
   12.4531  -17.9488   21.7876 C   0  0  0  0  0  0  0  0  0  0  0  0
   11.0003  -17.5818   21.8901 C   0  0  2  0  0  0  0  0  0  0  0  0
   10.5805  -16.8194   20.7365 N   0  0  0  0  0  0  0  0  0  0  0  0
   10.7952  -16.8223   23.1552 C   0  0  0  0  0  0  0  0  0  0  0  0
   11.0326  -15.5655   23.2217 O   0  0  0  0  0  0  0  0  0  0  0  0
   10.3350  -17.4203   24.3445 N   0  0  0  0  0  0  0  0  0  0  0  0
   10.2252  -16.6504   25.5955 C   0  0  1  0  0  0  0  0  0  0  0  0
    8.7694  -16.2846   25.6743 C   0  0  0  0  0  0  0  0  0  0  0  0
    8.3770  -15.2554   26.6100 C   0  0  0  0  0  0  0  0  0  0  0  0
    8.4023  -15.3855   27.9860 C   0  0  0  0  0  0  0  0  0  0  0  0
    7.9431  -14.2590   28.5482 N   0  0  0  0  0  0  0  0  0  0  0  0
    7.6233  -13.4055   27.5682 C   0  0  0  0  0  0  0  0  0  0  0  0
    7.1270  -12.1146   27.5619 C   0  0  0  0  0  0  0  0  0  0  0  0
    6.8956  -11.4292   26.3847 C   0  0  0  0  0  0  0  0  0  0  0  0
    7.1677  -12.0514   25.1800 C   0  0  0  0  0  0  0  0  0  0  0  0
    7.6536  -13.3155   25.1614 C   0  0  0  0  0  0  0  0  0  0  0  0
    7.8850  -14.0023   26.3362 C   0  0  0  0  0  0  0  0  0  0  0  0
   10.6626  -17.4538   26.7446 C   0  0  0  0  0  0  0  0  0  0  0  0
   11.3502  -16.8775   27.8214 O   0  0  0  0  0  0  0  0  0  0  0  0
   10.4573  -18.6896   26.8460 O   0  0  0  0  0  0  0  0  0  0  0  0
  2  3  1  1
  2  1  1  0
  4  2  1  0
  5  4  1  0
  5  6  1  1
  7  5  1  0
  8  7  2  0
 10  9  1  6
 10 12  1  0
 10 11  1  0
 11  7  1  0
 12 13  2  0
 14 15  1  0
 14 12  1  0
 16 17  1  0
 15 16  1  1
 17 18  2  0
 18 19  1  0
 20 19  1  0
 21 20  2  0
 22 21  1  0
 23 24  1  0
 23 22  2  0
 24 25  2  0
 25 17  1  0
 25 20  1  0
 26 27  1  0
 26 15  1  0
 28 26  2  0
M  END
$$$$
