LAW.pdb
     RDKit          3D

 28 29  0  0  1  0  0  0  0  0999 V2000
    8.6398  -13.5306   18.2687 C   0  0  0  0  0  0  0  0  0  0  0  0
    7.6852  -13.1931   19.4230 C   0  0  2  0  0  0  0  0  0  0  0  0
    7.6853  -11.6998   19.5580 C   0  0  0  0  0  0  0  0  0  0  0  0
    8.1323  -13.9125   20.6747 C   0  0  0  0  0  0  0  0  0  0  0  0
    7.9349  -15.3805   20.5000 C   0  0  2  0  0  0  0  0  0  0  0  0
    6.5648  -15.6356   20.1604 N   0  0  0  0  0  0  0  0  0  0  0  0
    8.4153  -16.1907   21.6341 C   0  0  0  0  0  0  0  0  0  0  0  0
    7.6729  -16.3961   22.6279 O   0  0  0  0  0  0  0  0  0  0  0  0
   11.4460  -18.2809   22.4953 C   0  0  0  0  0  0  0  0  0  0  0  0
   10.1542  -17.5829   22.8114 C   0  0  2  0  0  0  0  0  0  0  0  0
    9.7143  -16.7841   21.6904 N   0  0  0  0  0  0  0  0  0  0  0  0
   10.3546  -16.7531   24.0325 C   0  0  0  0  0  0  0  0  0  0  0  0
   10.8963  -15.5945   23.9670 O   0  0  0  0  0  0  0  0  0  0  0  0
    9.9703  -17.1755   25.3200 N   0  0  0  0  0  0  0  0  0  0  0  0
   10.2705  -16.3647   26.5128 C   0  0  1  0  0  0  0  0  0  0  0  0
    8.9728  -16.3333   27.2708 C   0  0  0  0  0  0  0  0  0  0  0  0
    7.8720  -15.5888   26.7028 C   0  0  0  0  0  0  0  0  0  0  0  0
    6.7448  -16.1525   26.1347 C   0  0  0  0  0  0  0  0  0  0  0  0
    5.9433  -15.1807   25.6775 N   0  0  0  0  0  0  0  0  0  0  0  0
    6.5257  -14.0043   25.9378 C   0  0  0  0  0  0  0  0  0  0  0  0
    6.1523  -12.6923   25.7098 C   0  0  0  0  0  0  0  0  0  0  0  0
    6.9447  -11.6309   26.1030 C   0  0  0  0  0  0  0  0  0  0  0  0
    8.1440  -11.8878   26.7420 C   0  0  0  0  0  0  0  0  0  0  0  0
    8.5307  -13.1646   26.9754 C   0  0  0  0  0  0  0  0  0  0  0  0
    7.7410  -14.2266   26.5829 C   0  0  0  0  0  0  0  0  0  0  0  0
   11.3595  -16.9658   27.2937 C   0  0  0  0  0  0  0  0  0  0  0  0
   11.9216  -18.1992   26.9372 O   0  0  0  0  0  0  0  0  0  0  0  0
   11.8574  -16.4312   28.3164 O   0  0  0  0  0  0  0  0  0  0  0  0
  2  3  1  1
  2  1  1  0
  4  2  1  0
  5  4  1  0
  5  6  1  1
  7  5  1  0
  8  7  2  0
 10  9  1  6
 10 12  1  0
 10 11  1  0
 11  7  1  0
 12 13  2  0
 14 15  1  0
 14 12  1  0
 16 17  1  0
 15 16  1  1
 17 18  2  0
 18 19  1  0
 20 19  1  0
 21 20  2  0
 22 21  1  0
 23 24  1  0
 23 22  2  0
 24 25  2  0
 25 17  1  0
 25 20  1  0
 26 27  1  0
 26 15  1  0
 28 26  2  0
M  END
$$$$
