LAW.pdb
     RDKit          3D

 28 29  0  0  1  0  0  0  0  0999 V2000
    9.3088  -12.9590   19.1260 C   0  0  0  0  0  0  0  0  0  0  0  0
    7.8219  -13.1031   19.4805 C   0  0  2  0  0  0  0  0  0  0  0  0
    7.2881  -11.7144   19.6672 C   0  0  0  0  0  0  0  0  0  0  0  0
    7.6773  -13.9753   20.7061 C   0  0  0  0  0  0  0  0  0  0  0  0
    8.2287  -15.3308   20.4177 C   0  0  2  0  0  0  0  0  0  0  0  0
    7.4323  -15.9586   19.4033 N   0  0  0  0  0  0  0  0  0  0  0  0
    8.4163  -16.1706   21.6149 C   0  0  0  0  0  0  0  0  0  0  0  0
    7.4374  -16.4560   22.3505 O   0  0  0  0  0  0  0  0  0  0  0  0
   10.8942  -18.5948   22.9354 C   0  0  0  0  0  0  0  0  0  0  0  0
    9.8242  -17.5670   23.1692 C   0  0  2  0  0  0  0  0  0  0  0  0
    9.6786  -16.7060   22.0177 N   0  0  0  0  0  0  0  0  0  0  0  0
   10.1746  -16.7933   24.3932 C   0  0  0  0  0  0  0  0  0  0  0  0
   10.9978  -15.8132   24.3468 O   0  0  0  0  0  0  0  0  0  0  0  0
    9.6365  -17.0790   25.6630 N   0  0  0  0  0  0  0  0  0  0  0  0
   10.3247  -16.6626   26.8972 C   0  0  1  0  0  0  0  0  0  0  0  0
    9.2821  -15.8893   27.6552 C   0  0  0  0  0  0  0  0  0  0  0  0
    8.1633  -15.3517   26.9153 C   0  0  0  0  0  0  0  0  0  0  0  0
    7.1899  -16.1092   26.2909 C   0  0  0  0  0  0  0  0  0  0  0  0
    6.3236  -15.2968   25.6700 N   0  0  0  0  0  0  0  0  0  0  0  0
    6.7142  -14.0340   25.8795 C   0  0  0  0  0  0  0  0  0  0  0  0
    6.1996  -12.8085   25.4975 C   0  0  0  0  0  0  0  0  0  0  0  0
    6.7973  -11.6198   25.8700 C   0  0  0  0  0  0  0  0  0  0  0  0
    7.9414  -11.6568   26.6461 C   0  0  0  0  0  0  0  0  0  0  0  0
    8.4639  -12.8454   27.0316 C   0  0  0  0  0  0  0  0  0  0  0  0
    7.8688  -14.0343   26.6600 C   0  0  0  0  0  0  0  0  0  0  0  0
   10.8089  -17.8298   27.6457 C   0  0  0  0  0  0  0  0  0  0  0  0
   11.6401  -17.6881   28.7652 O   0  0  0  0  0  0  0  0  0  0  0  0
   10.5205  -19.0156   27.3452 O   0  0  0  0  0  0  0  0  0  0  0  0
  2  3  1  1
  2  1  1  0
  4  2  1  0
  5  4  1  0
  5  6  1  6
  7  5  1  0
  8  7  2  0
 10  9  1  6
 10 12  1  0
 10 11  1  0
 11  7  1  0
 12 13  2  0
 14 15  1  0
 14 12  1  0
 16 17  1  0
 15 16  1  1
 17 18  2  0
 18 19  1  0
 20 19  1  0
 21 20  2  0
 22 21  1  0
 23 24  1  0
 23 22  2  0
 24 25  2  0
 25 17  1  0
 25 20  1  0
 26 27  1  0
 26 15  1  0
 28 26  2  0
M  END
$$$$
