MNC.pdb
     RDKit          3D

 23 22  0  0  1  0  0  0  0  0999 V2000
   25.7222  -16.1924  -14.8730 C   0  0  0  0  0  0  0  0  0  0  0  0
   24.6335  -14.8287  -15.3071 S   0  0  0  0  0  0  0  0  0  0  0  0
   25.6106  -13.4599  -15.9730 C   0  0  0  0  0  0  0  0  0  0  0  0
   24.7550  -12.2250  -16.1684 C   0  0  0  0  0  0  0  0  0  0  0  0
   23.5114  -12.6113  -16.9562 C   0  0  2  0  0  0  0  0  0  0  0  0
   23.9089  -13.0726  -18.2762 N   0  0  0  0  0  0  0  0  0  0  0  0
   22.6861  -11.3964  -17.0717 C   0  0  0  0  0  0  0  0  0  0  0  0
   22.8066  -10.6510  -18.0645 O   0  0  0  0  0  0  0  0  0  0  0  0
   18.2419  -10.6621  -17.8835 N   0  0  0  0  0  0  0  0  0  0  0  0
   18.9336  -11.1703  -16.7668 C   0  0  0  0  0  0  0  0  0  0  0  0
   19.0806  -12.4103  -16.6002 O   0  0  0  0  0  0  0  0  0  0  0  0
   19.5025  -10.2413  -15.7649 C   0  0  0  0  0  0  0  0  0  0  0  0
   20.9164   -9.9139  -16.2172 C   0  0  2  0  0  0  0  0  0  0  0  0
   21.7597  -11.0711  -16.0645 N   0  0  0  0  0  0  0  0  0  0  0  0
   21.4361   -8.7804  -15.4145 C   0  0  0  0  0  0  0  0  0  0  0  0
   21.7399   -8.9273  -14.2098 O   0  0  0  0  0  0  0  0  0  0  0  0
   21.5986   -7.4992  -16.0069 N   0  0  0  0  0  0  0  0  0  0  0  0
   22.2118   -6.4310  -15.2624 C   0  0  1  0  0  0  0  0  0  0  0  0
   23.0254   -5.5164  -16.1908 C   0  0  0  0  0  0  0  0  0  0  0  0
   23.6488   -4.1693  -15.1353 S   0  0  0  0  0  0  0  0  0  0  0  0
   21.1981   -5.5506  -14.6240 C   0  0  0  0  0  0  0  0  0  0  0  0
   20.1443   -5.2346  -15.1915 O   0  0  0  0  0  0  0  0  0  0  0  0
   21.4705   -5.0824  -13.3469 O   0  0  0  0  0  0  0  0  0  0  0  0
  2  1  1  0
  3  2  1  0
  4  3  1  0
  5  7  1  0
  5  4  1  0
  5  6  1  6
  7  8  2  0
 10  9  1  0
 11 10  2  0
 12 10  1  0
 13 12  1  1
 13 15  1  0
 14 13  1  0
 14  7  1  0
 15 16  2  0
 15 17  1  0
 17 18  1  0
 18 21  1  0
 18 19  1  6
 20 19  1  0
 21 22  2  0
 21 23  1  0
M  END
$$$$
