MNC.pdb
     RDKit          3D

 23 22  0  0  1  0  0  0  0  0999 V2000
   24.9117  -20.5183   -8.1322 C   0  0  0  0  0  0  0  0  0  0  0  0
   26.0820  -21.4490   -9.1310 S   0  0  0  0  0  0  0  0  0  0  0  0
   26.9381  -20.3291  -10.2646 C   0  0  0  0  0  0  0  0  0  0  0  0
   26.1281  -20.1069  -11.5254 C   0  0  0  0  0  0  0  0  0  0  0  0
   26.3491  -21.2854  -12.4628 C   0  0  2  0  0  0  0  0  0  0  0  0
   27.6394  -21.1380  -13.1160 N   0  0  0  0  0  0  0  0  0  0  0  0
   25.2677  -21.2431  -13.4624 C   0  0  0  0  0  0  0  0  0  0  0  0
   25.4109  -20.5821  -14.5104 O   0  0  0  0  0  0  0  0  0  0  0  0
   23.8293  -25.2904  -14.9264 N   0  0  0  0  0  0  0  0  0  0  0  0
   23.2496  -24.0693  -15.3219 C   0  0  0  0  0  0  0  0  0  0  0  0
   23.4295  -23.6073  -16.4800 O   0  0  0  0  0  0  0  0  0  0  0  0
   22.4122  -23.3065  -14.3694 C   0  0  0  0  0  0  0  0  0  0  0  0
   23.0342  -21.9255  -14.2405 C   0  0  2  0  0  0  0  0  0  0  0  0
   24.0700  -21.9463  -13.2403 N   0  0  0  0  0  0  0  0  0  0  0  0
   21.9803  -20.9467  -13.8792 C   0  0  0  0  0  0  0  0  0  0  0  0
   21.9038  -20.4768  -12.7222 O   0  0  0  0  0  0  0  0  0  0  0  0
   21.0333  -20.5237  -14.8504 N   0  0  0  0  0  0  0  0  0  0  0  0
   20.2059  -19.3730  -14.6003 C   0  0  1  0  0  0  0  0  0  0  0  0
   21.0555  -18.0948  -14.5326 C   0  0  0  0  0  0  0  0  0  0  0  0
   19.9027  -16.7583  -14.0830 S   0  0  0  0  0  0  0  0  0  0  0  0
   19.2305  -19.1455  -15.6989 C   0  0  0  0  0  0  0  0  0  0  0  0
   19.3760  -19.6370  -16.8257 O   0  0  0  0  0  0  0  0  0  0  0  0
   18.1283  -18.3501  -15.4216 O   0  0  0  0  0  0  0  0  0  0  0  0
  2  1  1  0
  3  2  1  0
  4  3  1  0
  5  7  1  0
  5  4  1  0
  5  6  1  6
  7  8  2  0
 10  9  1  0
 11 10  2  0
 12 10  1  0
 13 12  1  1
 13 15  1  0
 14 13  1  0
 14  7  1  0
 15 16  2  0
 15 17  1  0
 17 18  1  0
 18 21  1  0
 18 19  1  6
 20 19  1  0
 21 22  2  0
 21 23  1  0
M  END
$$$$
