MNC.pdb
     RDKit          3D

 23 22  0  0  1  0  0  0  0  0999 V2000
   22.2646  -18.3629   -0.0812 C   0  0  0  0  0  0  0  0  0  0  0  0
   21.4933  -17.6573    1.3818 S   0  0  0  0  0  0  0  0  0  0  0  0
   19.7362  -17.3691    1.0628 C   0  0  0  0  0  0  0  0  0  0  0  0
   19.1647  -16.3594    2.0369 C   0  0  0  0  0  0  0  0  0  0  0  0
   17.9862  -16.9926    2.7624 C   0  0  2  0  0  0  0  0  0  0  0  0
   16.9610  -17.3396    1.7919 N   0  0  0  0  0  0  0  0  0  0  0  0
   17.4718  -15.9817    3.7027 C   0  0  0  0  0  0  0  0  0  0  0  0
   16.6998  -15.0888    3.2997 O   0  0  0  0  0  0  0  0  0  0  0  0
   14.8936  -14.9701    5.1705 N   0  0  0  0  0  0  0  0  0  0  0  0
   15.1763  -15.6357    6.3791 C   0  0  0  0  0  0  0  0  0  0  0  0
   14.3118  -16.3580    6.9431 O   0  0  0  0  0  0  0  0  0  0  0  0
   16.5088  -15.4921    7.0072 C   0  0  0  0  0  0  0  0  0  0  0  0
   17.4460  -14.9527    5.9388 C   0  0  2  0  0  0  0  0  0  0  0  0
   17.8486  -16.0179    5.0574 N   0  0  0  0  0  0  0  0  0  0  0  0
   18.6289  -14.3402    6.5905 C   0  0  0  0  0  0  0  0  0  0  0  0
   19.6149  -15.0343    6.9240 O   0  0  0  0  0  0  0  0  0  0  0  0
   18.6607  -12.9432    6.8480 N   0  0  0  0  0  0  0  0  0  0  0  0
   19.8386  -12.3386    7.4121 C   0  0  1  0  0  0  0  0  0  0  0  0
   19.9771  -10.8798    6.9505 C   0  0  0  0  0  0  0  0  0  0  0  0
   20.6282  -10.9588    5.2513 S   0  0  0  0  0  0  0  0  0  0  0  0
   19.7732  -12.2824    8.8963 C   0  0  0  0  0  0  0  0  0  0  0  0
   18.7577  -12.6042    9.5267 O   0  0  0  0  0  0  0  0  0  0  0  0
   20.9058  -11.8504    9.5709 O   0  0  0  0  0  0  0  0  0  0  0  0
  2  1  1  0
  3  2  1  0
  4  3  1  0
  5  7  1  0
  5  4  1  0
  5  6  1  6
  7  8  2  0
 10  9  1  0
 11 10  2  0
 12 10  1  0
 13 12  1  1
 13 15  1  0
 14 13  1  0
 14  7  1  0
 15 16  2  0
 15 17  1  0
 17 18  1  0
 18 21  1  0
 18 19  1  6
 20 19  1  0
 21 22  2  0
 21 23  1  0
M  END
$$$$
