MNC.pdb
     RDKit          3D

 23 22  0  0  1  0  0  0  0  0999 V2000
   28.7352  -11.9121  -16.2014 C   0  0  0  0  0  0  0  0  0  0  0  0
   27.6632  -12.9540  -15.2020 S   0  0  0  0  0  0  0  0  0  0  0  0
   26.1435  -13.3139  -16.1146 C   0  0  0  0  0  0  0  0  0  0  0  0
   25.4536  -12.0368  -16.5483 C   0  0  0  0  0  0  0  0  0  0  0  0
   24.1527  -12.3979  -17.2508 C   0  0  2  0  0  0  0  0  0  0  0  0
   24.4579  -13.1215  -18.4741 N   0  0  0  0  0  0  0  0  0  0  0  0
   23.4740  -11.1295  -17.5686 C   0  0  0  0  0  0  0  0  0  0  0  0
   23.9124  -10.3968  -18.4779 O   0  0  0  0  0  0  0  0  0  0  0  0
   19.6468   -7.9896  -19.1095 N   0  0  0  0  0  0  0  0  0  0  0  0
   19.6166   -8.4098  -17.7655 C   0  0  0  0  0  0  0  0  0  0  0  0
   19.0990   -7.6913  -16.8695 O   0  0  0  0  0  0  0  0  0  0  0  0
   20.1997   -9.7164  -17.3870 C   0  0  0  0  0  0  0  0  0  0  0  0
   21.6853   -9.4888  -17.1584 C   0  0  2  0  0  0  0  0  0  0  0  0
   22.3303  -10.7386  -16.8492 N   0  0  0  0  0  0  0  0  0  0  0  0
   21.8664   -8.5205  -16.0499 C   0  0  0  0  0  0  0  0  0  0  0  0
   21.7589   -8.8776  -14.8557 O   0  0  0  0  0  0  0  0  0  0  0  0
   22.1678   -7.1605  -16.3300 N   0  0  0  0  0  0  0  0  0  0  0  0
   22.2877   -6.2104  -15.2556 C   0  0  1  0  0  0  0  0  0  0  0  0
   22.8923   -4.8910  -15.7594 C   0  0  0  0  0  0  0  0  0  0  0  0
   23.0251   -3.8170  -14.2944 S   0  0  0  0  0  0  0  0  0  0  0  0
   20.9621   -5.8499  -14.6872 C   0  0  0  0  0  0  0  0  0  0  0  0
   20.0271   -5.4476  -15.3917 O   0  0  0  0  0  0  0  0  0  0  0  0
   20.7971   -5.9795  -13.3159 O   0  0  0  0  0  0  0  0  0  0  0  0
  2  1  1  0
  3  2  1  0
  4  3  1  0
  5  7  1  0
  5  4  1  0
  5  6  1  6
  7  8  2  0
 10  9  1  0
 11 10  2  0
 12 10  1  0
 13 12  1  1
 13 15  1  0
 14 13  1  0
 14  7  1  0
 15 16  2  0
 15 17  1  0
 17 18  1  0
 18 21  1  0
 18 19  1  6
 20 19  1  0
 21 22  2  0
 21 23  1  0
M  END
$$$$
