MNC.pdb
     RDKit          3D

 23 22  0  0  1  0  0  0  0  0999 V2000
   27.6442  -14.8835  -16.9870 C   0  0  0  0  0  0  0  0  0  0  0  0
   28.0054  -15.3828  -18.6763 S   0  0  0  0  0  0  0  0  0  0  0  0
   27.7853  -17.1706  -18.8413 C   0  0  0  0  0  0  0  0  0  0  0  0
   26.8269  -17.7000  -17.7943 C   0  0  0  0  0  0  0  0  0  0  0  0
   27.4521  -18.9183  -17.1302 C   0  0  2  0  0  0  0  0  0  0  0  0
   27.8874  -19.8493  -18.1583 N   0  0  0  0  0  0  0  0  0  0  0  0
   26.4037  -19.5354  -16.2993 C   0  0  0  0  0  0  0  0  0  0  0  0
   25.2006  -19.3392  -16.5634 O   0  0  0  0  0  0  0  0  0  0  0  0
   24.5183  -24.4708  -14.0522 N   0  0  0  0  0  0  0  0  0  0  0  0
   24.4492  -23.0857  -14.2979 C   0  0  0  0  0  0  0  0  0  0  0  0
   23.4975  -22.3912  -13.8519 O   0  0  0  0  0  0  0  0  0  0  0  0
   25.5076  -22.4230  -15.0925 C   0  0  0  0  0  0  0  0  0  0  0  0
   25.7263  -21.0490  -14.4799 C   0  0  2  0  0  0  0  0  0  0  0  0
   26.7535  -20.3473  -15.2052 N   0  0  0  0  0  0  0  0  0  0  0  0
   26.1074  -21.2042  -13.0552 C   0  0  0  0  0  0  0  0  0  0  0  0
   27.2894  -21.4475  -12.7252 O   0  0  0  0  0  0  0  0  0  0  0  0
   25.1273  -21.0774  -12.0344 N   0  0  0  0  0  0  0  0  0  0  0  0
   25.5099  -21.1646  -10.6498 C   0  0  1  0  0  0  0  0  0  0  0  0
   26.4535  -20.0128  -10.2712 C   0  0  0  0  0  0  0  0  0  0  0  0
   26.8283  -20.2416   -8.5036 S   0  0  0  0  0  0  0  0  0  0  0  0
   24.3382  -21.0339   -9.7442 C   0  0  0  0  0  0  0  0  0  0  0  0
   23.2229  -20.6835  -10.1511 O   0  0  0  0  0  0  0  0  0  0  0  0
   24.5322  -21.3217   -8.4010 O   0  0  0  0  0  0  0  0  0  0  0  0
  2  1  1  0
  3  2  1  0
  4  3  1  0
  5  7  1  0
  5  4  1  0
  5  6  1  6
  7  8  2  0
 10  9  1  0
 11 10  2  0
 12 10  1  0
 13 12  1  6
 13 15  1  0
 14 13  1  0
 14  7  1  0
 15 16  2  0
 15 17  1  0
 17 18  1  0
 18 21  1  0
 18 19  1  1
 20 19  1  0
 21 22  2  0
 21 23  1  0
M  END
$$$$
