MNC.pdb
     RDKit          3D

 23 22  0  0  1  0  0  0  0  0999 V2000
   14.0053  -26.5840    0.3199 C   0  0  0  0  0  0  0  0  0  0  0  0
   14.4678  -25.9806   -1.3096 S   0  0  0  0  0  0  0  0  0  0  0  0
   14.9412  -24.2382   -1.2001 C   0  0  0  0  0  0  0  0  0  0  0  0
   14.1412  -23.5230   -0.1307 C   0  0  0  0  0  0  0  0  0  0  0  0
   14.5517  -22.0576   -0.1108 C   0  0  2  0  0  0  0  0  0  0  0  0
   15.1698  -21.7196   -1.3824 N   0  0  0  0  0  0  0  0  0  0  0  0
   15.5266  -21.9032    0.9829 C   0  0  0  0  0  0  0  0  0  0  0  0
   16.7484  -21.9913    0.7482 O   0  0  0  0  0  0  0  0  0  0  0  0
   16.9351  -18.8645    3.0861 N   0  0  0  0  0  0  0  0  0  0  0  0
   15.9504  -19.0477    4.0763 C   0  0  0  0  0  0  0  0  0  0  0  0
   15.5120  -18.0758    4.7472 O   0  0  0  0  0  0  0  0  0  0  0  0
   15.4133  -20.4009    4.3422 C   0  0  0  0  0  0  0  0  0  0  0  0
   16.0429  -21.3356    3.3220 C   0  0  2  0  0  0  0  0  0  0  0  0
   15.0853  -21.6567    2.2955 N   0  0  0  0  0  0  0  0  0  0  0  0
   16.5052  -22.5668    4.0072 C   0  0  0  0  0  0  0  0  0  0  0  0
   15.7531  -23.5590    4.1308 O   0  0  0  0  0  0  0  0  0  0  0  0
   17.8211  -22.6391    4.5381 N   0  0  0  0  0  0  0  0  0  0  0  0
   18.2778  -23.8450    5.1771 C   0  0  1  0  0  0  0  0  0  0  0  0
   19.7250  -24.1628    4.7713 C   0  0  0  0  0  0  0  0  0  0  0  0
   19.6561  -24.6143    3.0081 S   0  0  0  0  0  0  0  0  0  0  0  0
   18.2994  -23.7109    6.6576 C   0  0  0  0  0  0  0  0  0  0  0  0
   18.6170  -24.6471    7.4025 O   0  0  0  0  0  0  0  0  0  0  0  0
   17.9464  -22.4812    7.1939 O   0  0  0  0  0  0  0  0  0  0  0  0
  2  1  1  0
  3  2  1  0
  4  3  1  0
  5  7  1  0
  5  4  1  0
  5  6  1  6
  7  8  2  0
 10  9  1  0
 11 10  2  0
 12 10  1  0
 13 12  1  1
 13 15  1  0
 14 13  1  0
 14  7  1  0
 15 16  2  0
 15 17  1  0
 17 18  1  0
 18 21  1  0
 18 19  1  6
 20 19  1  0
 21 22  2  0
 21 23  1  0
M  END
$$$$
