MNC.pdb
     RDKit          3D

 23 22  0  0  1  0  0  0  0  0999 V2000
   19.3321  -11.6158    3.5318 C   0  0  0  0  0  0  0  0  0  0  0  0
   19.2630  -13.1340    4.4928 S   0  0  0  0  0  0  0  0  0  0  0  0
   18.0017  -14.2321    3.8035 C   0  0  0  0  0  0  0  0  0  0  0  0
   17.9384  -15.5372    4.5701 C   0  0  0  0  0  0  0  0  0  0  0  0
   16.9207  -16.4492    3.9000 C   0  0  2  0  0  0  0  0  0  0  0  0
   15.5827  -15.9537    4.1778 N   0  0  0  0  0  0  0  0  0  0  0  0
   17.0969  -17.7885    4.4880 C   0  0  0  0  0  0  0  0  0  0  0  0
   16.4841  -18.0997    5.5289 O   0  0  0  0  0  0  0  0  0  0  0  0
   17.6270  -23.1363    3.9091 N   0  0  0  0  0  0  0  0  0  0  0  0
   18.7559  -22.3134    4.0882 C   0  0  0  0  0  0  0  0  0  0  0  0
   19.7485  -22.7054    4.7576 O   0  0  0  0  0  0  0  0  0  0  0  0
   18.7887  -20.9628    3.4838 C   0  0  0  0  0  0  0  0  0  0  0  0
   18.1482  -20.0144    4.4844 C   0  0  2  0  0  0  0  0  0  0  0  0
   17.9560  -18.7216    3.8799 N   0  0  0  0  0  0  0  0  0  0  0  0
   19.0177  -19.9063    5.6809 C   0  0  0  0  0  0  0  0  0  0  0  0
   20.1058  -19.2906    5.6357 O   0  0  0  0  0  0  0  0  0  0  0  0
   18.6243  -20.5055    6.9077 N   0  0  0  0  0  0  0  0  0  0  0  0
   19.4770  -20.4137    8.0634 C   0  0  1  0  0  0  0  0  0  0  0  0
   18.7555  -19.7022    9.2182 C   0  0  0  0  0  0  0  0  0  0  0  0
   19.0122  -17.9208    8.9387 S   0  0  0  0  0  0  0  0  0  0  0  0
   19.8418  -21.7560    8.5881 C   0  0  0  0  0  0  0  0  0  0  0  0
   20.6474  -21.9077    9.5156 O   0  0  0  0  0  0  0  0  0  0  0  0
   19.2418  -22.8586    7.9976 O   0  0  0  0  0  0  0  0  0  0  0  0
  2  1  1  0
  3  2  1  0
  4  3  1  0
  5  7  1  0
  5  4  1  0
  5  6  1  1
  7  8  2  0
 10  9  1  0
 11 10  2  0
 12 10  1  0
 13 12  1  6
 13 15  1  0
 14 13  1  0
 14  7  1  0
 15 16  2  0
 15 17  1  0
 17 18  1  0
 18 21  1  0
 18 19  1  1
 20 19  1  0
 21 22  2  0
 21 23  1  0
M  END
$$$$
