MNC.pdb
     RDKit          3D

 23 22  0  0  1  0  0  0  0  0999 V2000
   18.0414  -18.1945  -14.2798 C   0  0  0  0  0  0  0  0  0  0  0  0
   19.0555  -16.7175  -14.4325 S   0  0  0  0  0  0  0  0  0  0  0  0
   19.3950  -16.3919  -16.1792 C   0  0  0  0  0  0  0  0  0  0  0  0
   20.1765  -15.1056  -16.3511 C   0  0  0  0  0  0  0  0  0  0  0  0
   20.3261  -14.8193  -17.8384 C   0  0  2  0  0  0  0  0  0  0  0  0
   21.2155  -15.8079  -18.4258 N   0  0  0  0  0  0  0  0  0  0  0  0
   20.9158  -13.4744  -17.9561 C   0  0  0  0  0  0  0  0  0  0  0  0
   22.1517  -13.3248  -17.8784 O   0  0  0  0  0  0  0  0  0  0  0  0
   21.9792  -10.2562  -21.2409 N   0  0  0  0  0  0  0  0  0  0  0  0
   20.8893  -10.9443  -20.6732 C   0  0  0  0  0  0  0  0  0  0  0  0
   20.5167  -12.0601  -21.1239 O   0  0  0  0  0  0  0  0  0  0  0  0
   20.1611  -10.3565  -19.5266 C   0  0  0  0  0  0  0  0  0  0  0  0
   20.6783  -11.0449  -18.2738 C   0  0  2  0  0  0  0  0  0  0  0  0
   20.0895  -12.3537  -18.1557 N   0  0  0  0  0  0  0  0  0  0  0  0
   20.3482  -10.2160  -17.0892 C   0  0  0  0  0  0  0  0  0  0  0  0
   19.2673  -10.3647  -16.4771 O   0  0  0  0  0  0  0  0  0  0  0  0
   21.2631   -9.2319  -16.6271 N   0  0  0  0  0  0  0  0  0  0  0  0
   20.9127   -8.3822  -15.5197 C   0  0  1  0  0  0  0  0  0  0  0  0
   22.1332   -8.1241  -14.6230 C   0  0  0  0  0  0  0  0  0  0  0  0
   21.5442   -7.0333  -13.2886 S   0  0  0  0  0  0  0  0  0  0  0  0
   20.4616   -7.0406  -15.9746 C   0  0  0  0  0  0  0  0  0  0  0  0
   21.0471   -6.4125  -16.8662 O   0  0  0  0  0  0  0  0  0  0  0  0
   19.3419   -6.4995  -15.3598 O   0  0  0  0  0  0  0  0  0  0  0  0
  2  1  1  0
  3  2  1  0
  4  3  1  0
  5  7  1  0
  5  4  1  0
  5  6  1  1
  7  8  2  0
 10  9  1  0
 11 10  2  0
 12 10  1  0
 13 12  1  6
 13 15  1  0
 14 13  1  0
 14  7  1  0
 15 16  2  0
 15 17  1  0
 17 18  1  0
 18 21  1  0
 18 19  1  1
 20 19  1  0
 21 22  2  0
 21 23  1  0
M  END
$$$$
