MNC.pdb
     RDKit          3D

 23 22  0  0  1  0  0  0  0  0999 V2000
   12.5710   -7.9837  -11.0455 C   0  0  0  0  0  0  0  0  0  0  0  0
   12.9571   -9.3187  -12.1866 S   0  0  0  0  0  0  0  0  0  0  0  0
   14.6562   -9.8769  -11.9156 C   0  0  0  0  0  0  0  0  0  0  0  0
   15.6139   -8.7039  -11.8708 C   0  0  0  0  0  0  0  0  0  0  0  0
   17.0184   -9.2288  -11.6097 C   0  0  2  0  0  0  0  0  0  0  0  0
   17.0899   -9.7399  -10.2507 N   0  0  0  0  0  0  0  0  0  0  0  0
   17.9362   -8.0877  -11.7705 C   0  0  0  0  0  0  0  0  0  0  0  0
   17.9681   -7.1852  -10.9102 O   0  0  0  0  0  0  0  0  0  0  0  0
   21.3313   -4.8570  -13.2179 N   0  0  0  0  0  0  0  0  0  0  0  0
   21.7188   -6.0235  -13.9055 C   0  0  0  0  0  0  0  0  0  0  0  0
   22.7998   -6.0710  -14.5506 O   0  0  0  0  0  0  0  0  0  0  0  0
   20.8494   -7.2209  -13.8768 C   0  0  0  0  0  0  0  0  0  0  0  0
   19.6062   -6.8466  -13.0861 C   0  0  2  0  0  0  0  0  0  0  0  0
   18.7797   -8.0100  -12.8934 N   0  0  0  0  0  0  0  0  0  0  0  0
   18.8611   -5.7930  -13.8168 C   0  0  0  0  0  0  0  0  0  0  0  0
   18.3513   -6.0203  -14.9365 O   0  0  0  0  0  0  0  0  0  0  0  0
   18.7135   -4.4980  -13.2512 N   0  0  0  0  0  0  0  0  0  0  0  0
   17.9709   -3.4834  -13.9516 C   0  0  1  0  0  0  0  0  0  0  0  0
   16.9722   -2.7917  -13.0112 C   0  0  0  0  0  0  0  0  0  0  0  0
   16.1299   -1.5336  -14.0237 S   0  0  0  0  0  0  0  0  0  0  0  0
   18.8565   -2.4018  -14.4576 C   0  0  0  0  0  0  0  0  0  0  0  0
   20.0607   -2.3461  -14.1759 O   0  0  0  0  0  0  0  0  0  0  0  0
   18.2850   -1.4353  -15.2721 O   0  0  0  0  0  0  0  0  0  0  0  0
  2  1  1  0
  3  2  1  0
  4  3  1  0
  5  7  1  0
  5  4  1  0
  5  6  1  1
  7  8  2  0
 10  9  1  0
 11 10  2  0
 12 10  1  0
 13 12  1  6
 13 15  1  0
 14 13  1  0
 14  7  1  0
 15 16  2  0
 15 17  1  0
 17 18  1  0
 18 21  1  0
 18 19  1  1
 20 19  1  0
 21 22  2  0
 21 23  1  0
M  END
$$$$
