MNC.pdb
     RDKit          3D

 23 22  0  0  1  0  0  0  0  0999 V2000
   26.9257  -16.6731  -14.8158 C   0  0  0  0  0  0  0  0  0  0  0  0
   25.5622  -15.5863  -15.2551 S   0  0  0  0  0  0  0  0  0  0  0  0
   25.9962  -14.6332  -16.7300 C   0  0  0  0  0  0  0  0  0  0  0  0
   24.9320  -13.6018  -17.0442 C   0  0  0  0  0  0  0  0  0  0  0  0
   23.5739  -14.2885  -17.0568 C   0  0  2  0  0  0  0  0  0  0  0  0
   23.5132  -15.2014  -18.1865 N   0  0  0  0  0  0  0  0  0  0  0  0
   22.5620  -13.2284  -17.2076 C   0  0  0  0  0  0  0  0  0  0  0  0
   22.2599  -12.8096  -18.3429 O   0  0  0  0  0  0  0  0  0  0  0  0
   18.6512  -14.4316  -15.9374 N   0  0  0  0  0  0  0  0  0  0  0  0
   19.0950  -13.2199  -16.5016 C   0  0  0  0  0  0  0  0  0  0  0  0
   19.0607  -13.0294  -17.7464 O   0  0  0  0  0  0  0  0  0  0  0  0
   19.6127  -12.1438  -15.6271 C   0  0  0  0  0  0  0  0  0  0  0  0
   20.9226  -11.6702  -16.2359 C   0  0  2  0  0  0  0  0  0  0  0  0
   21.9327  -12.6836  -16.0737 N   0  0  0  0  0  0  0  0  0  0  0  0
   21.3395  -10.4085  -15.5774 C   0  0  0  0  0  0  0  0  0  0  0  0
   21.6128  -10.3761  -14.3570 O   0  0  0  0  0  0  0  0  0  0  0  0
   21.4359   -9.2069  -16.3295 N   0  0  0  0  0  0  0  0  0  0  0  0
   21.8720   -7.9904  -15.6959 C   0  0  1  0  0  0  0  0  0  0  0  0
   22.4421   -7.0100  -16.7322 C   0  0  0  0  0  0  0  0  0  0  0  0
   23.9340   -7.8114  -17.4025 S   0  0  0  0  0  0  0  0  0  0  0  0
   20.7444   -7.2720  -15.0457 C   0  0  0  0  0  0  0  0  0  0  0  0
   19.5608   -7.5562  -15.2708 O   0  0  0  0  0  0  0  0  0  0  0  0
   21.0610   -6.2522  -14.1603 O   0  0  0  0  0  0  0  0  0  0  0  0
  2  1  1  0
  3  2  1  0
  4  3  1  0
  5  7  1  0
  5  4  1  0
  5  6  1  6
  7  8  2  0
 10  9  1  0
 11 10  2  0
 12 10  1  0
 13 12  1  1
 13 15  1  0
 14 13  1  0
 14  7  1  0
 15 16  2  0
 15 17  1  0
 17 18  1  0
 18 21  1  0
 18 19  1  6
 20 19  1  0
 21 22  2  0
 21 23  1  0
M  END
$$$$
