MNC.pdb
     RDKit          3D

 23 22  0  0  1  0  0  0  0  0999 V2000
   30.7504  -20.7922  -10.7138 C   0  0  0  0  0  0  0  0  0  0  0  0
   28.9926  -20.7736  -11.0923 S   0  0  0  0  0  0  0  0  0  0  0  0
   28.7567  -20.5311  -12.8693 C   0  0  0  0  0  0  0  0  0  0  0  0
   27.2897  -20.3563  -13.2047 C   0  0  0  0  0  0  0  0  0  0  0  0
   26.4827  -21.3780  -12.4165 C   0  0  2  0  0  0  0  0  0  0  0  0
   26.8984  -22.7153  -12.8062 N   0  0  0  0  0  0  0  0  0  0  0  0
   25.0677  -21.1653  -12.7673 C   0  0  0  0  0  0  0  0  0  0  0  0
   24.5670  -21.7677  -13.7379 O   0  0  0  0  0  0  0  0  0  0  0  0
   22.8524  -20.5104   -8.8032 N   0  0  0  0  0  0  0  0  0  0  0  0
   22.0997  -20.6527   -9.9850 C   0  0  0  0  0  0  0  0  0  0  0  0
   21.3655  -21.6589  -10.1730 O   0  0  0  0  0  0  0  0  0  0  0  0
   22.1638  -19.6081  -11.0316 C   0  0  0  0  0  0  0  0  0  0  0  0
   22.8540  -20.2291  -12.2353 C   0  0  2  0  0  0  0  0  0  0  0  0
   24.2754  -20.2829  -12.0109 N   0  0  0  0  0  0  0  0  0  0  0  0
   22.5470  -19.4254  -13.4431 C   0  0  0  0  0  0  0  0  0  0  0  0
   23.1679  -18.3679  -13.6909 O   0  0  0  0  0  0  0  0  0  0  0  0
   21.5342  -19.8482  -14.3455 N   0  0  0  0  0  0  0  0  0  0  0  0
   21.4313  -19.2482  -15.6496 C   0  0  1  0  0  0  0  0  0  0  0  0
   22.6261  -19.6472  -16.5291 C   0  0  0  0  0  0  0  0  0  0  0  0
   21.9766  -20.8568  -17.7260 S   0  0  0  0  0  0  0  0  0  0  0  0
   20.2245  -19.7183  -16.3797 C   0  0  0  0  0  0  0  0  0  0  0  0
   19.4755  -20.5933  -15.9261 O   0  0  0  0  0  0  0  0  0  0  0  0
   19.9540  -19.1371  -17.6099 O   0  0  0  0  0  0  0  0  0  0  0  0
  2  1  1  0
  3  2  1  0
  4  3  1  0
  5  7  1  0
  5  4  1  0
  5  6  1  6
  7  8  2  0
 10  9  1  0
 11 10  2  0
 12 10  1  0
 13 12  1  1
 13 15  1  0
 14 13  1  0
 14  7  1  0
 15 16  2  0
 15 17  1  0
 17 18  1  0
 18 21  1  0
 18 19  1  6
 20 19  1  0
 21 22  2  0
 21 23  1  0
M  END
$$$$
