MNC.pdb
     RDKit          3D

 23 22  0  0  1  0  0  0  0  0999 V2000
   26.5051  -17.3498  -14.9350 C   0  0  0  0  0  0  0  0  0  0  0  0
   27.4074  -18.8074  -15.4778 S   0  0  0  0  0  0  0  0  0  0  0  0
   27.2910  -20.0984  -14.2161 C   0  0  0  0  0  0  0  0  0  0  0  0
   25.8888  -20.6678  -14.1478 C   0  0  0  0  0  0  0  0  0  0  0  0
   25.4175  -20.6351  -12.7010 C   0  0  2  0  0  0  0  0  0  0  0  0
   26.1896  -21.5938  -11.9277 N   0  0  0  0  0  0  0  0  0  0  0  0
   23.9950  -21.0183  -12.7077 C   0  0  0  0  0  0  0  0  0  0  0  0
   23.6718  -22.2200  -12.7922 O   0  0  0  0  0  0  0  0  0  0  0  0
   19.2551  -21.0736  -10.7900 N   0  0  0  0  0  0  0  0  0  0  0  0
   19.4478  -19.9531  -11.6212 C   0  0  0  0  0  0  0  0  0  0  0  0
   18.4806  -19.4117  -12.2199 O   0  0  0  0  0  0  0  0  0  0  0  0
   20.8055  -19.3926  -11.8023 C   0  0  0  0  0  0  0  0  0  0  0  0
   21.6099  -20.4227  -12.5787 C   0  0  2  0  0  0  0  0  0  0  0  0
   22.9955  -20.0325  -12.6196 N   0  0  0  0  0  0  0  0  0  0  0  0
   21.0602  -20.5386  -13.9511 C   0  0  0  0  0  0  0  0  0  0  0  0
   21.2113  -19.6205  -14.7875 O   0  0  0  0  0  0  0  0  0  0  0  0
   20.3478  -21.7046  -14.3404 N   0  0  0  0  0  0  0  0  0  0  0  0
   19.8722  -21.8440  -15.6916 C   0  0  1  0  0  0  0  0  0  0  0  0
   19.9254  -23.3125  -16.1396 C   0  0  0  0  0  0  0  0  0  0  0  0
   21.6884  -23.7698  -16.1264 S   0  0  0  0  0  0  0  0  0  0  0  0
   18.4473  -21.4397  -15.8195 C   0  0  0  0  0  0  0  0  0  0  0  0
   17.8489  -21.4575  -16.9030 O   0  0  0  0  0  0  0  0  0  0  0  0
   17.7915  -21.0330  -14.6667 O   0  0  0  0  0  0  0  0  0  0  0  0
  2  1  1  0
  3  2  1  0
  4  3  1  0
  5  7  1  0
  5  4  1  0
  5  6  1  1
  7  8  2  0
 10  9  1  0
 11 10  2  0
 12 10  1  0
 13 12  1  1
 13 15  1  0
 14 13  1  0
 14  7  1  0
 15 16  2  0
 15 17  1  0
 17 18  1  0
 18 21  1  0
 18 19  1  1
 20 19  1  0
 21 22  2  0
 21 23  1  0
M  END
$$$$
