DHG.pdb
     RDKit          3D

 23 23  0  0  1  0  0  0  0  0999 V2000
   10.5935  -18.0667   18.4815 N   0  0  0  0  0  0  0  0  0  0  0  0
    9.5238  -18.0977   19.4542 C   0  0  1  0  0  0  0  0  0  0  0  0
    9.6209  -19.4062   20.2053 C   0  0  0  0  0  0  0  0  0  0  0  0
    9.2605  -20.5397   19.3154 C   0  0  0  0  0  0  0  0  0  0  0  0
    9.7831  -20.6630   18.1868 O   0  0  0  0  0  0  0  0  0  0  0  0
    9.6579  -16.9302   20.3577 C   0  0  0  0  0  0  0  0  0  0  0  0
   10.7997  -16.4754   20.6565 O   0  0  0  0  0  0  0  0  0  0  0  0
    8.3353  -21.4969   19.7050 O   0  0  0  0  0  0  0  0  0  0  0  0
    8.5345  -16.2712   20.9257 N   0  0  0  0  0  0  0  0  0  0  0  0
    8.6202  -15.1453   21.7982 C   0  0  1  0  0  0  0  0  0  0  0  0
    7.4762  -14.1997   21.4278 C   0  0  0  0  0  0  0  0  0  0  0  0
    7.6648  -13.7782   20.0247 C   0  0  0  0  0  0  0  0  0  0  0  0
    8.3450  -12.6622   19.5612 C   0  0  0  0  0  0  0  0  0  0  0  0
    8.2846  -12.6417   18.2229 N   0  0  0  0  0  0  0  0  0  0  0  0
    7.5763  -13.7311   17.8681 C   0  0  0  0  0  0  0  0  0  0  0  0
    7.2007  -14.4194   18.9551 N   0  0  0  0  0  0  0  0  0  0  0  0
    8.5170  -15.4587   23.2197 C   0  0  0  0  0  0  0  0  0  0  0  0
    7.4141  -15.4482   23.8022 O   0  0  0  0  0  0  0  0  0  0  0  0
    9.6870  -15.7803   23.9523 N   0  0  0  0  0  0  0  0  0  0  0  0
    9.6495  -16.1528   25.3560 C   0  0  0  0  0  0  0  0  0  0  0  0
   11.0377  -16.3923   25.7914 C   0  0  0  0  0  0  0  0  0  0  0  0
   11.9754  -16.3073   24.9514 O   0  0  0  0  0  0  0  0  0  0  0  0
   11.3669  -16.7115   27.0993 O   0  0  0  0  0  0  0  0  0  0  0  0
  2  1  1  6
  2  3  1  0
  3  4  1  0
  4  8  1  0
  5  4  2  0
  6  9  1  0
  6  2  1  0
  7  6  2  0
 10 17  1  0
 10  9  1  0
 11 12  1  0
 10 11  1  6
 12 16  1  0
 13 14  1  0
 13 12  2  0
 14 15  1  0
 15 16  2  0
 17 19  1  0
 18 17  2  0
 19 20  1  0
 20 21  1  0
 21 22  2  0
 21 23  1  0
M  END
$$$$
