DHG.pdb
     RDKit          3D

 23 23  0  0  1  0  0  0  0  0999 V2000
   12.0495  -16.5112   18.2811 N   0  0  0  0  0  0  0  0  0  0  0  0
   12.7754  -15.5121   19.0334 C   0  0  1  0  0  0  0  0  0  0  0  0
   13.1981  -14.4260   18.0703 C   0  0  0  0  0  0  0  0  0  0  0  0
   14.1533  -14.9671   17.0696 C   0  0  0  0  0  0  0  0  0  0  0  0
   14.5365  -14.2718   16.1044 O   0  0  0  0  0  0  0  0  0  0  0  0
   11.9013  -14.9874   20.1095 C   0  0  0  0  0  0  0  0  0  0  0  0
   12.2658  -13.9998   20.8106 O   0  0  0  0  0  0  0  0  0  0  0  0
   14.6512  -16.2577   17.1718 O   0  0  0  0  0  0  0  0  0  0  0  0
   10.6321  -15.5531   20.4063 N   0  0  0  0  0  0  0  0  0  0  0  0
    9.7977  -15.1326   21.4848 C   0  0  1  0  0  0  0  0  0  0  0  0
    8.3911  -14.9361   20.9166 C   0  0  0  0  0  0  0  0  0  0  0  0
    8.5054  -14.1561   19.6673 C   0  0  0  0  0  0  0  0  0  0  0  0
    8.5297  -12.7763   19.5312 C   0  0  0  0  0  0  0  0  0  0  0  0
    8.6448  -12.4701   18.2319 N   0  0  0  0  0  0  0  0  0  0  0  0
    8.6907  -13.6466   17.5776 C   0  0  0  0  0  0  0  0  0  0  0  0
    8.6067  -14.6668   18.4428 N   0  0  0  0  0  0  0  0  0  0  0  0
    9.7167  -16.0686   22.6015 C   0  0  0  0  0  0  0  0  0  0  0  0
    8.6713  -16.7099   22.8288 O   0  0  0  0  0  0  0  0  0  0  0  0
   10.8424  -16.2535   23.4428 N   0  0  0  0  0  0  0  0  0  0  0  0
   10.8234  -17.1535   24.5830 C   0  0  0  0  0  0  0  0  0  0  0  0
   12.1760  -17.1589   25.1699 C   0  0  0  0  0  0  0  0  0  0  0  0
   12.3708  -17.7346   26.2757 O   0  0  0  0  0  0  0  0  0  0  0  0
   13.2604  -16.5526   24.5556 O   0  0  0  0  0  0  0  0  0  0  0  0
  2  1  1  6
  2  3  1  0
  3  4  1  0
  4  8  1  0
  5  4  2  0
  6  9  1  0
  6  2  1  0
  7  6  2  0
 10 17  1  0
 10  9  1  0
 11 12  1  0
 10 11  1  6
 12 16  1  0
 13 14  1  0
 13 12  2  0
 14 15  1  0
 15 16  2  0
 17 19  1  0
 18 17  2  0
 19 20  1  0
 20 21  1  0
 21 22  2  0
 21 23  1  0
M  END
$$$$
