DHG.pdb
     RDKit          3D

 23 23  0  0  1  0  0  0  0  0999 V2000
   10.0020  -18.0162   19.2132 N   0  0  0  0  0  0  0  0  0  0  0  0
   11.1021  -17.0778   19.1964 C   0  0  1  0  0  0  0  0  0  0  0  0
   11.3086  -16.6344   17.7658 C   0  0  0  0  0  0  0  0  0  0  0  0
   12.1625  -17.6103   17.0414 C   0  0  0  0  0  0  0  0  0  0  0  0
   12.1940  -18.8131   17.3796 O   0  0  0  0  0  0  0  0  0  0  0  0
   10.7792  -15.9381   20.0875 C   0  0  0  0  0  0  0  0  0  0  0  0
   11.6256  -15.0207   20.2914 O   0  0  0  0  0  0  0  0  0  0  0  0
   12.9512  -17.2219   15.9684 O   0  0  0  0  0  0  0  0  0  0  0  0
    9.5269  -15.8159   20.7477 N   0  0  0  0  0  0  0  0  0  0  0  0
    9.1798  -14.7403   21.6188 C   0  0  1  0  0  0  0  0  0  0  0  0
    7.8165  -14.2150   21.1655 C   0  0  0  0  0  0  0  0  0  0  0  0
    7.9250  -13.8211   19.7460 C   0  0  0  0  0  0  0  0  0  0  0  0
    8.3369  -12.5987   19.2369 C   0  0  0  0  0  0  0  0  0  0  0  0
    8.2945  -12.6493   17.8987 N   0  0  0  0  0  0  0  0  0  0  0  0
    7.8620  -13.8868   17.5890 C   0  0  0  0  0  0  0  0  0  0  0  0
    7.6380  -14.5967   18.7036 N   0  0  0  0  0  0  0  0  0  0  0  0
    9.0899  -15.0964   23.0312 C   0  0  0  0  0  0  0  0  0  0  0  0
    8.0514  -14.8747   23.6855 O   0  0  0  0  0  0  0  0  0  0  0  0
   10.1988  -15.7038   23.6717 N   0  0  0  0  0  0  0  0  0  0  0  0
   10.1805  -16.0738   25.0765 C   0  0  0  0  0  0  0  0  0  0  0  0
   11.4723  -16.7133   25.3865 C   0  0  0  0  0  0  0  0  0  0  0  0
   12.3410  -16.8304   24.4788 O   0  0  0  0  0  0  0  0  0  0  0  0
   11.7830  -17.1997   26.6466 O   0  0  0  0  0  0  0  0  0  0  0  0
  2  1  1  6
  2  3  1  0
  3  4  1  0
  4  8  1  0
  5  4  2  0
  6  9  1  0
  6  2  1  0
  7  6  2  0
 10 17  1  0
 10  9  1  0
 11 12  1  0
 10 11  1  6
 12 16  1  0
 13 14  1  0
 13 12  2  0
 14 15  1  0
 15 16  2  0
 17 19  1  0
 18 17  2  0
 19 20  1  0
 20 21  1  0
 21 22  2  0
 21 23  1  0
M  END
$$$$
