DHG.pdb
     RDKit          3D

 23 23  0  0  1  0  0  0  0  0999 V2000
    9.0141  -18.2675   18.0613 N   0  0  0  0  0  0  0  0  0  0  0  0
   10.2236  -17.5642   17.6953 C   0  0  1  0  0  0  0  0  0  0  0  0
    9.9937  -16.9224   16.3458 C   0  0  0  0  0  0  0  0  0  0  0  0
    9.9143  -17.9615   15.2873 C   0  0  0  0  0  0  0  0  0  0  0  0
    9.9901  -19.1763   15.5712 O   0  0  0  0  0  0  0  0  0  0  0  0
   10.5335  -16.5593   18.7400 C   0  0  0  0  0  0  0  0  0  0  0  0
   11.5644  -15.8322   18.6479 O   0  0  0  0  0  0  0  0  0  0  0  0
    9.7535  -17.6207   13.9524 O   0  0  0  0  0  0  0  0  0  0  0  0
    9.7069  -16.3615   19.8786 N   0  0  0  0  0  0  0  0  0  0  0  0
    9.9797  -15.4199   20.9155 C   0  0  1  0  0  0  0  0  0  0  0  0
    8.7005  -14.6113   21.1384 C   0  0  0  0  0  0  0  0  0  0  0  0
    8.3418  -13.9584   19.8629 C   0  0  0  0  0  0  0  0  0  0  0  0
    8.7904  -12.7372   19.3828 C   0  0  0  0  0  0  0  0  0  0  0  0
    8.2278  -12.5069   18.1888 N   0  0  0  0  0  0  0  0  0  0  0  0
    7.4433  -13.5729   17.9381 C   0  0  0  0  0  0  0  0  0  0  0  0
    7.5106  -14.4512   18.9482 N   0  0  0  0  0  0  0  0  0  0  0  0
   10.3818  -16.0067   22.1897 C   0  0  0  0  0  0  0  0  0  0  0  0
    9.5782  -16.6717   22.8736 O   0  0  0  0  0  0  0  0  0  0  0  0
   11.7057  -15.8191   22.6599 N   0  0  0  0  0  0  0  0  0  0  0  0
   12.2017  -16.4577   23.8668 C   0  0  0  0  0  0  0  0  0  0  0  0
   13.6341  -16.1302   23.9888 C   0  0  0  0  0  0  0  0  0  0  0  0
   14.2168  -15.5311   23.0435 O   0  0  0  0  0  0  0  0  0  0  0  0
   14.3828  -16.4541   25.1093 O   0  0  0  0  0  0  0  0  0  0  0  0
  2  1  1  1
  2  3  1  0
  3  4  1  0
  4  8  1  0
  5  4  2  0
  6  9  1  0
  6  2  1  0
  7  6  2  0
 10 17  1  0
 10  9  1  0
 11 12  1  0
 10 11  1  1
 12 16  1  0
 13 14  1  0
 13 12  2  0
 14 15  1  0
 15 16  2  0
 17 19  1  0
 18 17  2  0
 19 20  1  0
 20 21  1  0
 21 22  2  0
 21 23  1  0
M  END
$$$$
