DHG.pdb
     RDKit          3D

 23 23  0  0  1  0  0  0  0  0999 V2000
   12.8258  -15.7486   17.3773 N   0  0  0  0  0  0  0  0  0  0  0  0
   11.9781  -16.4696   18.3007 C   0  0  1  0  0  0  0  0  0  0  0  0
   12.7970  -17.5905   18.8998 C   0  0  0  0  0  0  0  0  0  0  0  0
   13.0617  -18.6378   17.8802 C   0  0  0  0  0  0  0  0  0  0  0  0
   14.2284  -18.9056   17.5209 O   0  0  0  0  0  0  0  0  0  0  0  0
   11.4835  -15.5315   19.3363 C   0  0  0  0  0  0  0  0  0  0  0  0
   12.1858  -14.5437   19.6981 O   0  0  0  0  0  0  0  0  0  0  0  0
   12.0271  -19.3522   17.2943 O   0  0  0  0  0  0  0  0  0  0  0  0
   10.2194  -15.6868   19.9663 N   0  0  0  0  0  0  0  0  0  0  0  0
    9.6689  -14.7603   20.9016 C   0  0  1  0  0  0  0  0  0  0  0  0
    8.1892  -14.5921   20.5520 C   0  0  0  0  0  0  0  0  0  0  0  0
    8.0972  -14.1464   19.1467 C   0  0  0  0  0  0  0  0  0  0  0  0
    8.2069  -12.8520   18.6614 C   0  0  0  0  0  0  0  0  0  0  0  0
    8.0653  -12.8743   17.3293 N   0  0  0  0  0  0  0  0  0  0  0  0
    7.8711  -14.1659   16.9998 C   0  0  0  0  0  0  0  0  0  0  0  0
    7.8900  -14.9364   18.0963 N   0  0  0  0  0  0  0  0  0  0  0  0
    9.7688  -15.1647   22.3002 C   0  0  0  0  0  0  0  0  0  0  0  0
    9.2701  -14.4696   23.2079 O   0  0  0  0  0  0  0  0  0  0  0  0
   10.4426  -16.3659   22.6351 N   0  0  0  0  0  0  0  0  0  0  0  0
   10.6312  -16.7962   24.0098 C   0  0  0  0  0  0  0  0  0  0  0  0
   12.0733  -16.7208   24.3073 C   0  0  0  0  0  0  0  0  0  0  0  0
   12.5081  -17.1878   25.3958 O   0  0  0  0  0  0  0  0  0  0  0  0
   12.9883  -16.1527   23.4349 O   0  0  0  0  0  0  0  0  0  0  0  0
  2  1  1  6
  2  3  1  0
  3  4  1  0
  4  8  1  0
  5  4  2  0
  6  9  1  0
  6  2  1  0
  7  6  2  0
 10 17  1  0
 10  9  1  0
 11 12  1  0
 10 11  1  6
 12 16  1  0
 13 14  1  0
 13 12  2  0
 14 15  1  0
 15 16  2  0
 17 19  1  0
 18 17  2  0
 19 20  1  0
 20 21  1  0
 21 22  2  0
 21 23  1  0
M  END
$$$$
