DHG.pdb
     RDKit          3D

 23 23  0  0  1  0  0  0  0  0999 V2000
    9.3172  -18.1727   17.5106 N   0  0  0  0  0  0  0  0  0  0  0  0
   10.5422  -17.4042   17.5186 C   0  0  1  0  0  0  0  0  0  0  0  0
   10.6056  -16.6234   16.2256 C   0  0  0  0  0  0  0  0  0  0  0  0
   10.4401  -17.5345   15.0641 C   0  0  0  0  0  0  0  0  0  0  0  0
   10.7406  -18.7447   15.1479 O   0  0  0  0  0  0  0  0  0  0  0  0
   10.5464  -16.5134   18.7034 C   0  0  0  0  0  0  0  0  0  0  0  0
   11.4912  -15.6931   18.8885 O   0  0  0  0  0  0  0  0  0  0  0  0
    9.9478  -17.0753   13.8514 O   0  0  0  0  0  0  0  0  0  0  0  0
    9.5108  -16.5313   19.6760 N   0  0  0  0  0  0  0  0  0  0  0  0
    9.5053  -15.7323   20.8583 C   0  0  1  0  0  0  0  0  0  0  0  0
    8.1558  -15.0139   20.9109 C   0  0  0  0  0  0  0  0  0  0  0  0
    7.9991  -14.2394   19.6628 C   0  0  0  0  0  0  0  0  0  0  0  0
    8.4628  -12.9597   19.3980 C   0  0  0  0  0  0  0  0  0  0  0  0
    8.1129  -12.6207   18.1499 N   0  0  0  0  0  0  0  0  0  0  0  0
    7.4426  -13.6785   17.6537 C   0  0  0  0  0  0  0  0  0  0  0  0
    7.3726  -14.6579   18.5660 N   0  0  0  0  0  0  0  0  0  0  0  0
    9.6814  -16.4735   22.1030 C   0  0  0  0  0  0  0  0  0  0  0  0
    8.8063  -17.2635   22.5105 O   0  0  0  0  0  0  0  0  0  0  0  0
   10.8644  -16.2945   22.8629 N   0  0  0  0  0  0  0  0  0  0  0  0
   11.0959  -16.9869   24.1189 C   0  0  0  0  0  0  0  0  0  0  0  0
   12.3744  -16.4994   24.6683 C   0  0  0  0  0  0  0  0  0  0  0  0
   13.1316  -15.7938   23.9466 O   0  0  0  0  0  0  0  0  0  0  0  0
   12.7906  -16.7835   25.9594 O   0  0  0  0  0  0  0  0  0  0  0  0
  2  1  1  6
  2  3  1  0
  3  4  1  0
  4  8  1  0
  5  4  2  0
  6  9  1  0
  6  2  1  0
  7  6  2  0
 10 17  1  0
 10  9  1  0
 11 12  1  0
 10 11  1  1
 12 16  1  0
 13 14  1  0
 13 12  2  0
 14 15  1  0
 15 16  2  0
 17 19  1  0
 18 17  2  0
 19 20  1  0
 20 21  1  0
 21 22  2  0
 21 23  1  0
M  END
$$$$
