DHG.pdb
     RDKit          3D

 23 23  0  0  1  0  0  0  0  0999 V2000
   12.4110  -16.4965   17.8009 N   0  0  0  0  0  0  0  0  0  0  0  0
   13.0885  -15.5071   18.6091 C   0  0  1  0  0  0  0  0  0  0  0  0
   13.2837  -14.2720   17.7592 C   0  0  0  0  0  0  0  0  0  0  0  0
   14.2089  -14.5613   16.6337 C   0  0  0  0  0  0  0  0  0  0  0  0
   13.7754  -14.7496   15.4767 O   0  0  0  0  0  0  0  0  0  0  0  0
   12.2724  -15.2259   19.8142 C   0  0  0  0  0  0  0  0  0  0  0  0
   12.6390  -14.3499   20.6497 O   0  0  0  0  0  0  0  0  0  0  0  0
   15.5806  -14.6317   16.8272 O   0  0  0  0  0  0  0  0  0  0  0  0
   11.0585  -15.9104   20.0911 N   0  0  0  0  0  0  0  0  0  0  0  0
   10.3141  -15.7684   21.3003 C   0  0  1  0  0  0  0  0  0  0  0  0
    8.8490  -15.5707   20.9074 C   0  0  0  0  0  0  0  0  0  0  0  0
    8.7796  -14.4578   19.9385 C   0  0  0  0  0  0  0  0  0  0  0  0
    8.5881  -13.1114   20.2098 C   0  0  0  0  0  0  0  0  0  0  0  0
    8.5884  -12.4317   19.0552 N   0  0  0  0  0  0  0  0  0  0  0  0
    8.7777  -13.3483   18.0865 C   0  0  0  0  0  0  0  0  0  0  0  0
    8.8935  -14.5734   18.6179 N   0  0  0  0  0  0  0  0  0  0  0  0
   10.3974  -16.9052   22.2115 C   0  0  0  0  0  0  0  0  0  0  0  0
   10.2666  -18.0738   21.7956 O   0  0  0  0  0  0  0  0  0  0  0  0
   10.6302  -16.6805   23.5915 N   0  0  0  0  0  0  0  0  0  0  0  0
   10.7128  -17.7652   24.5544 C   0  0  0  0  0  0  0  0  0  0  0  0
   10.8694  -17.1640   25.8916 C   0  0  0  0  0  0  0  0  0  0  0  0
   10.9590  -15.9102   26.0022 O   0  0  0  0  0  0  0  0  0  0  0  0
   10.9238  -17.9218   27.0508 O   0  0  0  0  0  0  0  0  0  0  0  0
  2  1  1  6
  2  3  1  0
  3  4  1  0
  4  8  1  0
  5  4  2  0
  6  9  1  0
  6  2  1  0
  7  6  2  0
 10 17  1  0
 10  9  1  0
 11 12  1  0
 10 11  1  6
 12 16  1  0
 13 14  1  0
 13 12  2  0
 14 15  1  0
 15 16  2  0
 17 19  1  0
 18 17  2  0
 19 20  1  0
 20 21  1  0
 21 22  2  0
 21 23  1  0
M  END
$$$$
