DHG.pdb
     RDKit          3D

 23 23  0  0  1  0  0  0  0  0999 V2000
    8.8180  -18.0164   19.7928 N   0  0  0  0  0  0  0  0  0  0  0  0
    9.9819  -18.0556   20.6502 C   0  0  1  0  0  0  0  0  0  0  0  0
   11.1865  -17.6980   19.8096 C   0  0  0  0  0  0  0  0  0  0  0  0
   11.2642  -18.5809   18.6176 C   0  0  0  0  0  0  0  0  0  0  0  0
   10.8160  -19.7471   18.6505 O   0  0  0  0  0  0  0  0  0  0  0  0
    9.7884  -17.1058   21.7717 C   0  0  0  0  0  0  0  0  0  0  0  0
   10.7542  -16.4102   22.1998 O   0  0  0  0  0  0  0  0  0  0  0  0
   11.8345  -18.1431   17.4314 O   0  0  0  0  0  0  0  0  0  0  0  0
    8.5336  -16.9279   22.4140 N   0  0  0  0  0  0  0  0  0  0  0  0
    8.3363  -16.1397   23.5871 C   0  0  1  0  0  0  0  0  0  0  0  0
    7.1442  -15.2199   23.3171 C   0  0  0  0  0  0  0  0  0  0  0  0
    7.4646  -14.3863   22.1405 C   0  0  0  0  0  0  0  0  0  0  0  0
    7.8985  -13.0692   22.1304 C   0  0  0  0  0  0  0  0  0  0  0  0
    8.0770  -12.6807   20.8606 N   0  0  0  0  0  0  0  0  0  0  0  0
    7.7569  -13.7452   20.0998 C   0  0  0  0  0  0  0  0  0  0  0  0
    7.3866  -14.7770   20.8710 N   0  0  0  0  0  0  0  0  0  0  0  0
    8.0647  -16.9013   24.8019 C   0  0  0  0  0  0  0  0  0  0  0  0
    6.8993  -17.2143   25.1178 O   0  0  0  0  0  0  0  0  0  0  0  0
    9.1404  -17.2924   25.6379 N   0  0  0  0  0  0  0  0  0  0  0  0
    8.9621  -18.1840   26.7710 C   0  0  0  0  0  0  0  0  0  0  0  0
    9.6540  -17.5822   27.9256 C   0  0  0  0  0  0  0  0  0  0  0  0
   10.2710  -16.4912   27.7803 O   0  0  0  0  0  0  0  0  0  0  0  0
    9.6593  -18.1666   29.1823 O   0  0  0  0  0  0  0  0  0  0  0  0
  2  1  1  6
  2  3  1  0
  3  4  1  0
  4  8  1  0
  5  4  2  0
  6  9  1  0
  6  2  1  0
  7  6  2  0
 10 17  1  0
 10  9  1  0
 11 12  1  0
 10 11  1  6
 12 16  1  0
 13 14  1  0
 13 12  2  0
 14 15  1  0
 15 16  2  0
 17 19  1  0
 18 17  2  0
 19 20  1  0
 20 21  1  0
 21 22  2  0
 21 23  1  0
M  END
$$$$
