DHG.pdb
     RDKit          3D

 23 23  0  0  1  0  0  0  0  0999 V2000
   11.9588  -15.2754   17.3245 N   0  0  0  0  0  0  0  0  0  0  0  0
   12.4824  -15.5964   18.6338 C   0  0  1  0  0  0  0  0  0  0  0  0
   13.9637  -15.2940   18.6253 C   0  0  0  0  0  0  0  0  0  0  0  0
   14.6735  -16.2183   17.7042 C   0  0  0  0  0  0  0  0  0  0  0  0
   14.3110  -17.4080   17.5810 O   0  0  0  0  0  0  0  0  0  0  0  0
   11.7606  -14.7972   19.6524 C   0  0  0  0  0  0  0  0  0  0  0  0
   12.2189  -13.6838   20.0400 O   0  0  0  0  0  0  0  0  0  0  0  0
   15.7589  -15.7943   16.9517 O   0  0  0  0  0  0  0  0  0  0  0  0
   10.5396  -15.2286   20.2371 N   0  0  0  0  0  0  0  0  0  0  0  0
    9.7383  -14.4289   21.1058 C   0  0  1  0  0  0  0  0  0  0  0  0
    8.2874  -14.5769   20.6444 C   0  0  0  0  0  0  0  0  0  0  0  0
    8.2137  -14.1753   19.2248 C   0  0  0  0  0  0  0  0  0  0  0  0
    8.2681  -12.8905   18.7058 C   0  0  0  0  0  0  0  0  0  0  0  0
    8.1679  -12.9569   17.3713 N   0  0  0  0  0  0  0  0  0  0  0  0
    8.0534  -14.2656   17.0738 C   0  0  0  0  0  0  0  0  0  0  0  0
    8.0808  -15.0038   18.1922 N   0  0  0  0  0  0  0  0  0  0  0  0
    9.8120  -14.7903   22.5177 C   0  0  0  0  0  0  0  0  0  0  0  0
    9.0613  -14.2559   23.3584 O   0  0  0  0  0  0  0  0  0  0  0  0
   10.7505  -15.7635   22.9431 N   0  0  0  0  0  0  0  0  0  0  0  0
   10.8698  -16.1767   24.3307 C   0  0  0  0  0  0  0  0  0  0  0  0
   11.9764  -17.1476   24.4138 C   0  0  0  0  0  0  0  0  0  0  0  0
   12.6059  -17.4628   23.3667 O   0  0  0  0  0  0  0  0  0  0  0  0
   12.3642  -17.7397   25.6054 O   0  0  0  0  0  0  0  0  0  0  0  0
  2  1  1  6
  2  3  1  0
  3  4  1  0
  4  8  1  0
  5  4  2  0
  6  9  1  0
  6  2  1  0
  7  6  2  0
 10 17  1  0
 10  9  1  0
 11 12  1  0
 10 11  1  6
 12 16  1  0
 13 14  1  0
 13 12  2  0
 14 15  1  0
 15 16  2  0
 17 19  1  0
 18 17  2  0
 19 20  1  0
 20 21  1  0
 21 22  2  0
 21 23  1  0
M  END
$$$$
