DHG.pdb
     RDKit          3D

 23 23  0  0  1  0  0  0  0  0999 V2000
    9.5407  -18.1186   18.8945 N   0  0  0  0  0  0  0  0  0  0  0  0
   10.7467  -17.3307   19.0212 C   0  0  1  0  0  0  0  0  0  0  0  0
   11.1817  -16.9262   17.6309 C   0  0  0  0  0  0  0  0  0  0  0  0
   11.4455  -18.1303   16.8021 C   0  0  0  0  0  0  0  0  0  0  0  0
   11.8694  -19.1865   17.3185 O   0  0  0  0  0  0  0  0  0  0  0  0
   10.4675  -16.1535   19.8777 C   0  0  0  0  0  0  0  0  0  0  0  0
   11.3570  -15.2765   20.0760 O   0  0  0  0  0  0  0  0  0  0  0  0
   11.2309  -18.1241   15.4317 O   0  0  0  0  0  0  0  0  0  0  0  0
    9.2113  -15.9497   20.5097 N   0  0  0  0  0  0  0  0  0  0  0  0
    8.9268  -14.8738   21.4028 C   0  0  1  0  0  0  0  0  0  0  0  0
    7.6035  -14.2521   20.9528 C   0  0  0  0  0  0  0  0  0  0  0  0
    7.7546  -13.8164   19.5494 C   0  0  0  0  0  0  0  0  0  0  0  0
    8.2507  -12.6062   19.0886 C   0  0  0  0  0  0  0  0  0  0  0  0
    8.2216  -12.6069   17.7491 N   0  0  0  0  0  0  0  0  0  0  0  0
    7.7142  -13.8022   17.3910 C   0  0  0  0  0  0  0  0  0  0  0  0
    7.4313  -14.5347   18.4771 N   0  0  0  0  0  0  0  0  0  0  0  0
    8.8031  -15.2548   22.8061 C   0  0  0  0  0  0  0  0  0  0  0  0
    7.7067  -15.1863   23.3969 O   0  0  0  0  0  0  0  0  0  0  0  0
    9.9453  -15.7101   23.5110 N   0  0  0  0  0  0  0  0  0  0  0  0
    9.8964  -16.0874   24.9131 C   0  0  0  0  0  0  0  0  0  0  0  0
   11.2823  -16.3114   25.3637 C   0  0  0  0  0  0  0  0  0  0  0  0
   12.2306  -16.1871   24.5407 O   0  0  0  0  0  0  0  0  0  0  0  0
   11.5982  -16.6572   26.6681 O   0  0  0  0  0  0  0  0  0  0  0  0
  2  1  1  6
  2  3  1  0
  3  4  1  0
  4  8  1  0
  5  4  2  0
  6  9  1  0
  6  2  1  0
  7  6  2  0
 10 17  1  0
 10  9  1  0
 11 12  1  0
 10 11  1  6
 12 16  1  0
 13 14  1  0
 13 12  2  0
 14 15  1  0
 15 16  2  0
 17 19  1  0
 18 17  2  0
 19 20  1  0
 20 21  1  0
 21 22  2  0
 21 23  1  0
M  END
$$$$
