DHG.pdb
     RDKit          3D

 23 23  0  0  1  0  0  0  0  0999 V2000
   11.7025  -16.7879   19.0222 N   0  0  0  0  0  0  0  0  0  0  0  0
   12.4311  -15.5885   19.3712 C   0  0  1  0  0  0  0  0  0  0  0  0
   12.7887  -14.8756   18.0868 C   0  0  0  0  0  0  0  0  0  0  0  0
   13.9551  -15.5305   17.4409 C   0  0  0  0  0  0  0  0  0  0  0  0
   14.4100  -16.6098   17.8771 O   0  0  0  0  0  0  0  0  0  0  0  0
   11.5857  -14.7486   20.2529 C   0  0  0  0  0  0  0  0  0  0  0  0
   11.9948  -13.6204   20.6524 O   0  0  0  0  0  0  0  0  0  0  0  0
   14.5769  -14.9691   16.3354 O   0  0  0  0  0  0  0  0  0  0  0  0
   10.2962  -15.1561   20.6886 N   0  0  0  0  0  0  0  0  0  0  0  0
    9.4548  -14.3816   21.5421 C   0  0  1  0  0  0  0  0  0  0  0  0
    8.0428  -14.4394   20.9565 C   0  0  0  0  0  0  0  0  0  0  0  0
    8.1200  -14.0531   19.5328 C   0  0  0  0  0  0  0  0  0  0  0  0
    8.1955  -12.7721   19.0073 C   0  0  0  0  0  0  0  0  0  0  0  0
    8.2504  -12.8536   17.6710 N   0  0  0  0  0  0  0  0  0  0  0  0
    8.2092  -14.1679   17.3788 C   0  0  0  0  0  0  0  0  0  0  0  0
    8.1303  -14.8946   18.5022 N   0  0  0  0  0  0  0  0  0  0  0  0
    9.3978  -14.8362   22.9277 C   0  0  0  0  0  0  0  0  0  0  0  0
    8.5550  -14.3734   23.7223 O   0  0  0  0  0  0  0  0  0  0  0  0
   10.3137  -15.8188   23.3801 N   0  0  0  0  0  0  0  0  0  0  0  0
   10.3061  -16.3222   24.7429 C   0  0  0  0  0  0  0  0  0  0  0  0
   11.3705  -17.3368   24.8499 C   0  0  0  0  0  0  0  0  0  0  0  0
   12.1022  -17.5770   23.8503 O   0  0  0  0  0  0  0  0  0  0  0  0
   11.6096  -18.0504   26.0137 O   0  0  0  0  0  0  0  0  0  0  0  0
  2  1  1  6
  2  3  1  0
  3  4  1  0
  4  8  1  0
  5  4  2  0
  6  9  1  0
  6  2  1  0
  7  6  2  0
 10 17  1  0
 10  9  1  0
 11 12  1  0
 10 11  1  6
 12 16  1  0
 13 14  1  0
 13 12  2  0
 14 15  1  0
 15 16  2  0
 17 19  1  0
 18 17  2  0
 19 20  1  0
 20 21  1  0
 21 22  2  0
 21 23  1  0
M  END
$$$$
