DHG.pdb
     RDKit          3D

 23 23  0  0  1  0  0  0  0  0999 V2000
    8.8909  -17.1308   20.3138 N   0  0  0  0  0  0  0  0  0  0  0  0
   10.1715  -16.7356   20.8573 C   0  0  1  0  0  0  0  0  0  0  0  0
   10.9197  -15.9868   19.7779 C   0  0  0  0  0  0  0  0  0  0  0  0
   11.1954  -16.8823   18.6253 C   0  0  0  0  0  0  0  0  0  0  0  0
   11.5227  -18.0756   18.8015 O   0  0  0  0  0  0  0  0  0  0  0  0
    9.9486  -15.8971   22.0592 C   0  0  0  0  0  0  0  0  0  0  0  0
   10.9205  -15.3323   22.6390 O   0  0  0  0  0  0  0  0  0  0  0  0
   11.0991  -16.4268   17.3186 O   0  0  0  0  0  0  0  0  0  0  0  0
    8.6579  -15.6858   22.6143 N   0  0  0  0  0  0  0  0  0  0  0  0
    8.4194  -15.0909   23.8893 C   0  0  1  0  0  0  0  0  0  0  0  0
    7.2156  -14.1599   23.7344 C   0  0  0  0  0  0  0  0  0  0  0  0
    7.0536  -13.4055   24.9940 C   0  0  0  0  0  0  0  0  0  0  0  0
    7.7131  -12.2471   25.3766 C   0  0  0  0  0  0  0  0  0  0  0  0
    7.2799  -11.8817   26.5907 N   0  0  0  0  0  0  0  0  0  0  0  0
    6.3658  -12.8036   26.9499 C   0  0  0  0  0  0  0  0  0  0  0  0
    6.2274  -13.7253   25.9868 N   0  0  0  0  0  0  0  0  0  0  0  0
    8.1365  -16.0347   24.9658 C   0  0  0  0  0  0  0  0  0  0  0  0
    7.0686  -16.6786   24.9924 O   0  0  0  0  0  0  0  0  0  0  0  0
    9.0885  -16.2243   25.9986 N   0  0  0  0  0  0  0  0  0  0  0  0
    8.9681  -17.2850   26.9840 C   0  0  0  0  0  0  0  0  0  0  0  0
   10.1142  -17.1712   27.9046 C   0  0  0  0  0  0  0  0  0  0  0  0
   11.2804  -17.3870   27.4739 O   0  0  0  0  0  0  0  0  0  0  0  0
    9.9697  -16.8332   29.2409 O   0  0  0  0  0  0  0  0  0  0  0  0
  2  1  1  6
  2  3  1  0
  3  4  1  0
  4  8  1  0
  5  4  2  0
  6  9  1  0
  6  2  1  0
  7  6  2  0
 10 17  1  0
 10  9  1  0
 11 12  1  0
 10 11  1  6
 12 16  1  0
 13 14  1  0
 13 12  2  0
 14 15  1  0
 15 16  2  0
 17 19  1  0
 18 17  2  0
 19 20  1  0
 20 21  1  0
 21 22  2  0
 21 23  1  0
M  END
$$$$
