DHG.pdb
     RDKit          3D

 23 23  0  0  1  0  0  0  0  0999 V2000
   11.0946  -16.4166   20.2448 N   0  0  0  0  0  0  0  0  0  0  0  0
    9.9895  -16.9501   21.0099 C   0  0  1  0  0  0  0  0  0  0  0  0
   10.2447  -18.4251   21.2221 C   0  0  0  0  0  0  0  0  0  0  0  0
   10.8512  -19.0240   20.0056 C   0  0  0  0  0  0  0  0  0  0  0  0
   10.5545  -18.6053   18.8660 O   0  0  0  0  0  0  0  0  0  0  0  0
    9.8909  -16.2156   22.2936 C   0  0  0  0  0  0  0  0  0  0  0  0
   10.9187  -16.0223   23.0050 O   0  0  0  0  0  0  0  0  0  0  0  0
   11.7646  -20.0643   20.0921 O   0  0  0  0  0  0  0  0  0  0  0  0
    8.6621  -15.6988   22.7853 N   0  0  0  0  0  0  0  0  0  0  0  0
    8.5140  -15.0373   24.0410 C   0  0  1  0  0  0  0  0  0  0  0  0
    7.3698  -14.0334   23.8897 C   0  0  0  0  0  0  0  0  0  0  0  0
    7.2375  -13.2930   25.1610 C   0  0  0  0  0  0  0  0  0  0  0  0
    6.0691  -12.8584   25.7686 C   0  0  0  0  0  0  0  0  0  0  0  0
    6.3815  -12.2270   26.9084 N   0  0  0  0  0  0  0  0  0  0  0  0
    7.7246  -12.2728   27.0003 C   0  0  0  0  0  0  0  0  0  0  0  0
    8.2440  -12.9164   25.9456 N   0  0  0  0  0  0  0  0  0  0  0  0
    8.2112  -15.9147   25.1671 C   0  0  0  0  0  0  0  0  0  0  0  0
    7.0410  -16.2750   25.4051 O   0  0  0  0  0  0  0  0  0  0  0  0
    9.2615  -16.3657   26.0052 N   0  0  0  0  0  0  0  0  0  0  0  0
    9.0425  -17.3045   27.0921 C   0  0  0  0  0  0  0  0  0  0  0  0
   10.3478  -17.5655   27.7262 C   0  0  0  0  0  0  0  0  0  0  0  0
   11.4082  -17.2772   27.1061 O   0  0  0  0  0  0  0  0  0  0  0  0
   10.4675  -18.1210   28.9903 O   0  0  0  0  0  0  0  0  0  0  0  0
  2  1  1  6
  2  3  1  0
  3  4  1  0
  4  8  1  0
  5  4  2  0
  6  9  1  0
  6  2  1  0
  7  6  2  0
 10 17  1  0
 10  9  1  0
 11 12  1  0
 10 11  1  6
 12 16  1  0
 13 14  1  0
 13 12  2  0
 14 15  1  0
 15 16  2  0
 17 19  1  0
 18 17  2  0
 19 20  1  0
 20 21  1  0
 21 22  2  0
 21 23  1  0
M  END
$$$$
