DHG.pdb
     RDKit          3D

 23 23  0  0  1  0  0  0  0  0999 V2000
   11.9876  -21.0899   24.1208 N   0  0  0  0  0  0  0  0  0  0  0  0
   11.4579  -21.7697   25.2821 C   0  0  1  0  0  0  0  0  0  0  0  0
   12.5390  -22.6820   25.8158 C   0  0  0  0  0  0  0  0  0  0  0  0
   12.8987  -23.7047   24.8003 C   0  0  0  0  0  0  0  0  0  0  0  0
   12.0751  -24.5745   24.4435 O   0  0  0  0  0  0  0  0  0  0  0  0
   11.0411  -20.7606   26.2848 C   0  0  0  0  0  0  0  0  0  0  0  0
   11.5350  -19.5963   26.2697 O   0  0  0  0  0  0  0  0  0  0  0  0
   14.1560  -23.7292   24.2150 O   0  0  0  0  0  0  0  0  0  0  0  0
   10.0836  -21.0398   27.2967 N   0  0  0  0  0  0  0  0  0  0  0  0
    9.6141  -20.0820   28.2445 C   0  0  1  0  0  0  0  0  0  0  0  0
    8.0871  -20.0693   28.1543 C   0  0  0  0  0  0  0  0  0  0  0  0
    7.7103  -19.5656   26.8177 C   0  0  0  0  0  0  0  0  0  0  0  0
    7.6699  -18.2465   26.3919 C   0  0  0  0  0  0  0  0  0  0  0  0
    7.2785  -18.2157   25.1108 N   0  0  0  0  0  0  0  0  0  0  0  0
    7.0808  -19.4993   24.7537 C   0  0  0  0  0  0  0  0  0  0  0  0
    7.3411  -20.3168   25.7834 N   0  0  0  0  0  0  0  0  0  0  0  0
    9.9916  -20.3494   29.6286 C   0  0  0  0  0  0  0  0  0  0  0  0
    9.5587  -19.6433   30.5612 O   0  0  0  0  0  0  0  0  0  0  0  0
   10.8639  -21.4278   29.9203 N   0  0  0  0  0  0  0  0  0  0  0  0
   11.2925  -21.7392   31.2730 C   0  0  0  0  0  0  0  0  0  0  0  0
   12.5974  -21.0875   31.4888 C   0  0  0  0  0  0  0  0  0  0  0  0
   13.1981  -21.2489   32.5866 O   0  0  0  0  0  0  0  0  0  0  0  0
   13.2051  -20.2939   30.5287 O   0  0  0  0  0  0  0  0  0  0  0  0
  2  1  1  6
  2  3  1  0
  3  4  1  0
  4  8  1  0
  5  4  2  0
  6  9  1  0
  6  2  1  0
  7  6  2  0
 10 17  1  0
 10  9  1  0
 11 12  1  0
 10 11  1  1
 12 16  1  0
 13 14  1  0
 13 12  2  0
 14 15  1  0
 15 16  2  0
 17 19  1  0
 18 17  2  0
 19 20  1  0
 20 21  1  0
 21 22  2  0
 21 23  1  0
M  END
$$$$
