SPP.pdb
     RDKit          3D

 21 22  0  0  1  0  0  0  0  0999 V2000
   23.2429  -21.9364  -15.9173 O   0  0  0  0  0  0  0  0  0  0  0  0
   24.0441  -21.3438  -16.8659 C   0  0  0  0  0  0  0  0  0  0  0  0
   25.3990  -22.0261  -16.8502 C   0  0  2  0  0  0  0  0  0  0  0  0
   25.2551  -23.3908  -17.2295 N   0  0  0  0  0  0  0  0  0  0  0  0
   26.0267  -21.8879  -15.5306 C   0  0  0  0  0  0  0  0  0  0  0  0
   25.9653  -22.9024  -14.7653 O   0  0  0  0  0  0  0  0  0  0  0  0
   26.6809  -20.6884  -15.0958 N   0  0  0  0  0  0  0  0  0  0  0  0
   26.9487  -19.5918  -15.9572 C   0  0  0  0  0  0  0  0  0  0  0  0
   27.8657  -18.6874  -15.1592 C   0  0  0  0  0  0  0  0  0  0  0  0
   27.5854  -19.0161  -13.7270 C   0  0  0  0  0  0  0  0  0  0  0  0
   27.1294  -20.4386  -13.7875 C   0  0  1  0  0  0  0  0  0  0  0  0
   26.1223  -20.7293  -12.7307 C   0  0  0  0  0  0  0  0  0  0  0  0
   24.9212  -20.7537  -13.0416 O   0  0  0  0  0  0  0  0  0  0  0  0
   26.5901  -20.9634  -11.4214 N   0  0  0  0  0  0  0  0  0  0  0  0
   27.9604  -21.1057  -10.9674 C   0  0  0  0  0  0  0  0  0  0  0  0
   27.8375  -21.8633   -9.6382 C   0  0  0  0  0  0  0  0  0  0  0  0
   26.6080  -21.1922   -9.0623 C   0  0  0  0  0  0  0  0  0  0  0  0
   25.7137  -21.1036  -10.2724 C   0  0  1  0  0  0  0  0  0  0  0  0
   24.7585  -19.9732  -10.1677 C   0  0  0  0  0  0  0  0  0  0  0  0
   23.5276  -20.2438   -9.5865 O   0  0  0  0  0  0  0  0  0  0  0  0
   24.9730  -18.8146  -10.5561 O   0  0  0  0  0  0  0  0  0  0  0  0
  2  1  1  0
  3  2  1  0
  3  4  1  1
  5  3  1  0
  6  5  2  0
  7  5  1  0
  7  8  1  0
  9  8  1  0
 10 11  1  0
 10  9  1  0
 11  7  1  0
 11 12  1  1
 12 14  1  0
 13 12  2  0
 14 15  1  0
 14 18  1  0
 15 16  1  0
 17 16  1  0
 18 17  1  0
 18 19  1  1
 19 20  1  0
 21 19  2  0
M  END
$$$$
