SPP.pdb
     RDKit          3D

 21 22  0  0  1  0  0  0  0  0999 V2000
   14.1830  -21.4099    5.1664 O   0  0  0  0  0  0  0  0  0  0  0  0
   14.5874  -22.6794    4.8233 C   0  0  0  0  0  0  0  0  0  0  0  0
   15.4924  -22.5879    3.6092 C   0  0  2  0  0  0  0  0  0  0  0  0
   15.7355  -23.8913    3.0906 N   0  0  0  0  0  0  0  0  0  0  0  0
   16.7395  -21.8934    3.9513 C   0  0  0  0  0  0  0  0  0  0  0  0
   17.5090  -22.4840    4.7746 O   0  0  0  0  0  0  0  0  0  0  0  0
   17.1009  -20.6176    3.4061 N   0  0  0  0  0  0  0  0  0  0  0  0
   16.4162  -20.0137    2.3186 C   0  0  0  0  0  0  0  0  0  0  0  0
   17.2843  -18.8378    1.9192 C   0  0  0  0  0  0  0  0  0  0  0  0
   18.0700  -18.5005    3.1467 C   0  0  0  0  0  0  0  0  0  0  0  0
   18.1529  -19.8078    3.8672 C   0  0  1  0  0  0  0  0  0  0  0  0
   18.1711  -19.6119    5.3427 C   0  0  0  0  0  0  0  0  0  0  0  0
   17.1174  -19.7704    5.9788 O   0  0  0  0  0  0  0  0  0  0  0  0
   19.3948  -19.2537    5.9447 N   0  0  0  0  0  0  0  0  0  0  0  0
   20.7250  -19.2851    5.3671 C   0  0  0  0  0  0  0  0  0  0  0  0
   21.6601  -19.3303    6.5834 C   0  0  0  0  0  0  0  0  0  0  0  0
   20.9420  -18.3684    7.5068 C   0  0  0  0  0  0  0  0  0  0  0  0
   19.5035  -18.7735    7.3105 C   0  0  1  0  0  0  0  0  0  0  0  0
   18.5749  -17.6466    7.5733 C   0  0  0  0  0  0  0  0  0  0  0  0
   18.2382  -17.4070    8.8981 O   0  0  0  0  0  0  0  0  0  0  0  0
   18.0804  -16.9081    6.7077 O   0  0  0  0  0  0  0  0  0  0  0  0
  2  1  1  0
  3  2  1  0
  3  4  1  1
  5  3  1  0
  6  5  2  0
  7  5  1  0
  7  8  1  0
  9  8  1  0
 10 11  1  0
 10  9  1  0
 11  7  1  0
 11 12  1  1
 12 14  1  0
 13 12  2  0
 14 15  1  0
 14 18  1  0
 15 16  1  0
 17 16  1  0
 18 17  1  0
 18 19  1  6
 19 20  1  0
 21 19  2  0
M  END
$$$$
