SPP.pdb
     RDKit          3D

 21 22  0  0  1  0  0  0  0  0999 V2000
   23.7687  -19.9623  -18.2884 O   0  0  0  0  0  0  0  0  0  0  0  0
   24.3549  -18.8129  -18.7659 C   0  0  0  0  0  0  0  0  0  0  0  0
   25.8593  -18.9383  -18.6164 C   0  0  2  0  0  0  0  0  0  0  0  0
   26.3540  -19.9135  -19.5280 N   0  0  0  0  0  0  0  0  0  0  0  0
   26.2109  -19.2588  -17.2277 C   0  0  0  0  0  0  0  0  0  0  0  0
   26.4731  -20.4782  -16.9769 O   0  0  0  0  0  0  0  0  0  0  0  0
   26.2644  -18.2751  -16.1861 N   0  0  0  0  0  0  0  0  0  0  0  0
   26.1970  -16.8780  -16.4305 C   0  0  0  0  0  0  0  0  0  0  0  0
   26.5530  -16.2352  -15.1054 C   0  0  0  0  0  0  0  0  0  0  0  0
   26.2213  -17.2652  -14.0725 C   0  0  0  0  0  0  0  0  0  0  0  0
   26.3816  -18.5537  -14.8135 C   0  0  1  0  0  0  0  0  0  0  0  0
   25.4308  -19.5854  -14.3165 C   0  0  0  0  0  0  0  0  0  0  0  0
   24.3312  -19.7042  -14.8795 O   0  0  0  0  0  0  0  0  0  0  0  0
   25.8328  -20.3799  -13.2233 N   0  0  0  0  0  0  0  0  0  0  0  0
   27.1425  -20.4639  -12.6055 C   0  0  0  0  0  0  0  0  0  0  0  0
   27.1294  -21.8181  -11.8831 C   0  0  0  0  0  0  0  0  0  0  0  0
   25.7147  -21.8173  -11.3424 C   0  0  0  0  0  0  0  0  0  0  0  0
   24.9390  -21.2808  -12.5181 C   0  0  1  0  0  0  0  0  0  0  0  0
   23.6944  -20.5969  -12.0888 C   0  0  0  0  0  0  0  0  0  0  0  0
   22.6043  -21.4040  -11.7951 O   0  0  0  0  0  0  0  0  0  0  0  0
   23.5538  -19.3697  -11.9729 O   0  0  0  0  0  0  0  0  0  0  0  0
  2  1  1  0
  3  2  1  0
  3  4  1  6
  5  3  1  0
  6  5  2  0
  7  5  1  0
  7  8  1  0
  9  8  1  0
 10 11  1  0
 10  9  1  0
 11  7  1  0
 11 12  1  1
 12 14  1  0
 13 12  2  0
 14 15  1  0
 14 18  1  0
 15 16  1  0
 17 16  1  0
 18 17  1  0
 18 19  1  1
 19 20  1  0
 21 19  2  0
M  END
$$$$
