SPP.pdb
     RDKit          3D

 21 22  0  0  1  0  0  0  0  0999 V2000
   25.6770  -18.5637  -10.6802 O   0  0  0  0  0  0  0  0  0  0  0  0
   24.8430  -19.5914  -11.0559 C   0  0  0  0  0  0  0  0  0  0  0  0
   25.6638  -20.8615  -11.1774 C   0  0  2  0  0  0  0  0  0  0  0  0
   24.8282  -21.9366  -11.5933 N   0  0  0  0  0  0  0  0  0  0  0  0
   26.3436  -21.1550   -9.9101 C   0  0  0  0  0  0  0  0  0  0  0  0
   25.5969  -21.3463   -8.8979 O   0  0  0  0  0  0  0  0  0  0  0  0
   27.7700  -21.2286   -9.7848 N   0  0  0  0  0  0  0  0  0  0  0  0
   28.6506  -21.2224  -10.8987 C   0  0  0  0  0  0  0  0  0  0  0  0
   30.0060  -21.5790  -10.3230 C   0  0  0  0  0  0  0  0  0  0  0  0
   29.9312  -21.1866   -8.8815 C   0  0  0  0  0  0  0  0  0  0  0  0
   28.4739  -21.3086   -8.5710 C   0  0  1  0  0  0  0  0  0  0  0  0
   28.0520  -20.3076   -7.5534 C   0  0  0  0  0  0  0  0  0  0  0  0
   27.5318  -19.2485   -7.9379 O   0  0  0  0  0  0  0  0  0  0  0  0
   28.2673  -20.6180   -6.1950 N   0  0  0  0  0  0  0  0  0  0  0  0
   28.6294  -21.8952   -5.6103 C   0  0  0  0  0  0  0  0  0  0  0  0
   28.1938  -21.7722   -4.1436 C   0  0  0  0  0  0  0  0  0  0  0  0
   28.5999  -20.3402   -3.8648 C   0  0  0  0  0  0  0  0  0  0  0  0
   28.1503  -19.6447   -5.1241 C   0  0  1  0  0  0  0  0  0  0  0  0
   28.9540  -18.4277   -5.3962 C   0  0  0  0  0  0  0  0  0  0  0  0
   28.6813  -17.3094   -4.6209 O   0  0  0  0  0  0  0  0  0  0  0  0
   29.8435  -18.3331   -6.2559 O   0  0  0  0  0  0  0  0  0  0  0  0
  2  1  1  0
  3  2  1  0
  3  4  1  1
  5  3  1  0
  6  5  2  0
  7  5  1  0
  7  8  1  0
  9  8  1  0
 10 11  1  0
 10  9  1  0
 11  7  1  0
 11 12  1  1
 12 14  1  0
 13 12  2  0
 14 15  1  0
 14 18  1  0
 15 16  1  0
 17 16  1  0
 18 17  1  0
 18 19  1  6
 19 20  1  0
 21 19  2  0
M  END
$$$$
