SPP.pdb
     RDKit          3D

 21 22  0  0  1  0  0  0  0  0999 V2000
   13.4892   -7.1134  -10.2537 O   0  0  0  0  0  0  0  0  0  0  0  0
   14.7562   -6.6952  -10.5895 C   0  0  0  0  0  0  0  0  0  0  0  0
   15.7590   -7.4727   -9.7580 C   0  0  2  0  0  0  0  0  0  0  0  0
   15.7396   -7.0008   -8.4150 N   0  0  0  0  0  0  0  0  0  0  0  0
   17.0982   -7.3794  -10.3517 C   0  0  0  0  0  0  0  0  0  0  0  0
   17.8069   -6.3843   -9.9969 O   0  0  0  0  0  0  0  0  0  0  0  0
   17.6102   -8.3402  -11.2848 N   0  0  0  0  0  0  0  0  0  0  0  0
   17.0023   -9.6025  -11.5148 C   0  0  0  0  0  0  0  0  0  0  0  0
   18.0054  -10.3687  -12.3528 C   0  0  0  0  0  0  0  0  0  0  0  0
   18.8275   -9.3189  -13.0310 C   0  0  0  0  0  0  0  0  0  0  0  0
   18.7528   -8.1643  -12.0841 C   0  0  1  0  0  0  0  0  0  0  0  0
   18.7961   -6.8656  -12.8101 C   0  0  0  0  0  0  0  0  0  0  0  0
   17.7273   -6.3443  -13.1648 O   0  0  0  0  0  0  0  0  0  0  0  0
   20.0597   -6.2915  -13.0586 N   0  0  0  0  0  0  0  0  0  0  0  0
   21.3592   -6.7428  -12.5984 C   0  0  0  0  0  0  0  0  0  0  0  0
   22.2448   -5.4927  -12.6939 C   0  0  0  0  0  0  0  0  0  0  0  0
   21.7403   -4.9083  -13.9968 C   0  0  0  0  0  0  0  0  0  0  0  0
   20.2510   -5.0952  -13.8587 C   0  0  1  0  0  0  0  0  0  0  0  0
   19.5864   -5.2051  -15.1806 C   0  0  0  0  0  0  0  0  0  0  0  0
   19.3259   -4.0190  -15.8523 O   0  0  0  0  0  0  0  0  0  0  0  0
   19.2485   -6.2662  -15.7274 O   0  0  0  0  0  0  0  0  0  0  0  0
  2  1  1  0
  3  2  1  0
  3  4  1  1
  5  3  1  0
  6  5  2  0
  7  5  1  0
  7  8  1  0
  9  8  1  0
 10 11  1  0
 10  9  1  0
 11  7  1  0
 11 12  1  6
 12 14  1  0
 13 12  2  0
 14 15  1  0
 14 18  1  0
 15 16  1  0
 17 16  1  0
 18 17  1  0
 18 19  1  6
 19 20  1  0
 21 19  2  0
M  END
$$$$
