SPP.pdb
     RDKit          3D

 21 22  0  0  1  0  0  0  0  0999 V2000
   11.9740  -24.0753   13.6213 O   0  0  0  0  0  0  0  0  0  0  0  0
   11.3909  -24.8320   12.6313 C   0  0  0  0  0  0  0  0  0  0  0  0
   12.1164  -26.1617   12.5473 C   0  0  2  0  0  0  0  0  0  0  0  0
   11.5632  -26.9464   11.4961 N   0  0  0  0  0  0  0  0  0  0  0  0
   12.0601  -26.8582   13.8382 C   0  0  0  0  0  0  0  0  0  0  0  0
   10.9083  -27.2267   14.2331 O   0  0  0  0  0  0  0  0  0  0  0  0
   13.2212  -27.1239   14.6364 N   0  0  0  0  0  0  0  0  0  0  0  0
   14.5456  -26.8670   14.1937 C   0  0  0  0  0  0  0  0  0  0  0  0
   15.4346  -27.5327   15.2243 C   0  0  0  0  0  0  0  0  0  0  0  0
   14.6033  -27.6048   16.4659 C   0  0  0  0  0  0  0  0  0  0  0  0
   13.2059  -27.6564   15.9370 C   0  0  1  0  0  0  0  0  0  0  0  0
   12.2526  -26.9835   16.8611 C   0  0  0  0  0  0  0  0  0  0  0  0
   12.1062  -25.7541   16.7761 O   0  0  0  0  0  0  0  0  0  0  0  0
   11.5605  -27.7851   17.7920 N   0  0  0  0  0  0  0  0  0  0  0  0
   11.5893  -29.2284   17.9334 C   0  0  0  0  0  0  0  0  0  0  0  0
   10.2914  -29.5567   18.6843 C   0  0  0  0  0  0  0  0  0  0  0  0
   10.2573  -28.4084   19.6710 C   0  0  0  0  0  0  0  0  0  0  0  0
   10.6671  -27.2471   18.8021 C   0  0  1  0  0  0  0  0  0  0  0  0
   11.3143  -26.1712   19.5926 C   0  0  0  0  0  0  0  0  0  0  0  0
   10.5160  -25.0981   19.9631 O   0  0  0  0  0  0  0  0  0  0  0  0
   12.5037  -26.1567   19.9450 O   0  0  0  0  0  0  0  0  0  0  0  0
  2  1  1  0
  3  2  1  0
  3  4  1  6
  5  3  1  0
  6  5  2  0
  7  5  1  0
  7  8  1  0
  9  8  1  0
 10 11  1  0
 10  9  1  0
 11  7  1  0
 11 12  1  1
 12 14  1  0
 13 12  2  0
 14 15  1  0
 14 18  1  0
 15 16  1  0
 17 16  1  0
 18 17  1  0
 18 19  1  1
 19 20  1  0
 21 19  2  0
M  END
$$$$
