SPP.pdb
     RDKit          3D

 21 22  0  0  1  0  0  0  0  0999 V2000
   24.9744  -20.6761  -18.4722 O   0  0  0  0  0  0  0  0  0  0  0  0
   25.5765  -19.5242  -18.9234 C   0  0  0  0  0  0  0  0  0  0  0  0
   27.0333  -19.5415  -18.5002 C   0  0  2  0  0  0  0  0  0  0  0  0
   27.7172  -20.5941  -19.1719 N   0  0  0  0  0  0  0  0  0  0  0  0
   27.1413  -19.6617  -17.0413 C   0  0  0  0  0  0  0  0  0  0  0  0
   27.4784  -20.8027  -16.5906 O   0  0  0  0  0  0  0  0  0  0  0  0
   26.8868  -18.5725  -16.1444 N   0  0  0  0  0  0  0  0  0  0  0  0
   26.7058  -17.2327  -16.5784 C   0  0  0  0  0  0  0  0  0  0  0  0
   26.7329  -16.4071  -15.3083 C   0  0  0  0  0  0  0  0  0  0  0  0
   26.3357  -17.3542  -14.2206 C   0  0  0  0  0  0  0  0  0  0  0  0
   26.7781  -18.6816  -14.7474 C   0  0  1  0  0  0  0  0  0  0  0  0
   25.8764  -19.7734  -14.2885 C   0  0  0  0  0  0  0  0  0  0  0  0
   24.9188  -20.0985  -15.0077 O   0  0  0  0  0  0  0  0  0  0  0  0
   26.1603  -20.3857  -13.0505 N   0  0  0  0  0  0  0  0  0  0  0  0
   27.3580  -20.2661  -12.2411 C   0  0  0  0  0  0  0  0  0  0  0  0
   27.3351  -21.5169  -11.3518 C   0  0  0  0  0  0  0  0  0  0  0  0
   25.8569  -21.5875  -11.0302 C   0  0  0  0  0  0  0  0  0  0  0  0
   25.2382  -21.2763  -12.3690 C   0  0  1  0  0  0  0  0  0  0  0  0
   23.8922  -20.6693  -12.2241 C   0  0  0  0  0  0  0  0  0  0  0  0
   22.8308  -21.5389  -12.0168 O   0  0  0  0  0  0  0  0  0  0  0  0
   23.6442  -19.4547  -12.2735 O   0  0  0  0  0  0  0  0  0  0  0  0
  2  1  1  0
  3  2  1  0
  3  4  1  6
  5  3  1  0
  6  5  2  0
  7  5  1  0
  7  8  1  0
  9  8  1  0
 10 11  1  0
 10  9  1  0
 11  7  1  0
 11 12  1  6
 12 14  1  0
 13 12  2  0
 14 15  1  0
 14 18  1  0
 15 16  1  0
 17 16  1  0
 18 17  1  0
 18 19  1  1
 19 20  1  0
 21 19  2  0
M  END
$$$$
