SPP.pdb
     RDKit          3D

 21 22  0  0  1  0  0  0  0  0999 V2000
   23.8713  -21.9413  -16.8309 O   0  0  0  0  0  0  0  0  0  0  0  0
   24.2975  -21.0189  -17.7585 C   0  0  0  0  0  0  0  0  0  0  0  0
   25.8138  -21.0392  -17.8003 C   0  0  2  0  0  0  0  0  0  0  0  0
   26.2625  -22.2458  -18.4083 N   0  0  0  0  0  0  0  0  0  0  0  0
   26.3656  -20.8680  -16.4509 C   0  0  0  0  0  0  0  0  0  0  0  0
   26.8248  -21.9135  -15.8900 O   0  0  0  0  0  0  0  0  0  0  0  0
   26.3998  -19.6052  -15.7728 N   0  0  0  0  0  0  0  0  0  0  0  0
   26.0499  -18.3778  -16.3950 C   0  0  0  0  0  0  0  0  0  0  0  0
   26.4812  -17.3084  -15.4121 C   0  0  0  0  0  0  0  0  0  0  0  0
   26.4964  -17.9886  -14.0799 C   0  0  0  0  0  0  0  0  0  0  0  0
   26.7694  -19.4162  -14.4300 C   0  0  1  0  0  0  0  0  0  0  0  0
   26.1021  -20.3441  -13.4766 C   0  0  0  0  0  0  0  0  0  0  0  0
   24.9665  -20.7642  -13.7485 O   0  0  0  0  0  0  0  0  0  0  0  0
   26.8013  -20.6999  -12.3050 N   0  0  0  0  0  0  0  0  0  0  0  0
   28.2084  -20.5147  -12.0056 C   0  0  0  0  0  0  0  0  0  0  0  0
   28.4937  -21.5396  -10.8992 C   0  0  0  0  0  0  0  0  0  0  0  0
   27.2239  -21.4111  -10.0839 C   0  0  0  0  0  0  0  0  0  0  0  0
   26.1741  -21.3407  -11.1631 C   0  0  1  0  0  0  0  0  0  0  0  0
   24.9697  -20.6020  -10.7103 C   0  0  0  0  0  0  0  0  0  0  0  0
   24.0104  -21.3293  -10.0199 O   0  0  0  0  0  0  0  0  0  0  0  0
   24.7557  -19.3947  -10.8994 O   0  0  0  0  0  0  0  0  0  0  0  0
  2  1  1  0
  3  2  1  0
  3  4  1  1
  5  3  1  0
  6  5  2  0
  7  5  1  0
  7  8  1  0
  9  8  1  0
 10 11  1  0
 10  9  1  0
 11  7  1  0
 11 12  1  1
 12 14  1  0
 13 12  2  0
 14 15  1  0
 14 18  1  0
 15 16  1  0
 17 16  1  0
 18 17  1  0
 18 19  1  1
 19 20  1  0
 21 19  2  0
M  END
$$$$
