SPP.pdb
     RDKit          3D

 21 22  0  0  1  0  0  0  0  0999 V2000
   24.9779  -22.5868  -17.4563 O   0  0  0  0  0  0  0  0  0  0  0  0
   25.9688  -21.8944  -18.1132 C   0  0  0  0  0  0  0  0  0  0  0  0
   27.2909  -22.1676  -17.4211 C   0  0  2  0  0  0  0  0  0  0  0  0
   27.6480  -23.5356  -17.5880 N   0  0  0  0  0  0  0  0  0  0  0  0
   27.2149  -21.7905  -16.0046 C   0  0  0  0  0  0  0  0  0  0  0  0
   27.0973  -22.7438  -15.1704 O   0  0  0  0  0  0  0  0  0  0  0  0
   27.2664  -20.4311  -15.5518 N   0  0  0  0  0  0  0  0  0  0  0  0
   27.5910  -19.3398  -16.4002 C   0  0  0  0  0  0  0  0  0  0  0  0
   27.7833  -18.1646  -15.4634 C   0  0  0  0  0  0  0  0  0  0  0  0
   26.9923  -18.5086  -14.2412 C   0  0  0  0  0  0  0  0  0  0  0  0
   27.0026  -20.0036  -14.2392 C   0  0  1  0  0  0  0  0  0  0  0  0
   25.7465  -20.5524  -13.6591 C   0  0  0  0  0  0  0  0  0  0  0  0
   24.8358  -20.8989  -14.4276 O   0  0  0  0  0  0  0  0  0  0  0  0
   25.6568  -20.6503  -12.2554 N   0  0  0  0  0  0  0  0  0  0  0  0
   26.7049  -20.4581  -11.2712 C   0  0  0  0  0  0  0  0  0  0  0  0
   26.1945  -21.2039  -10.0305 C   0  0  0  0  0  0  0  0  0  0  0  0
   24.7268  -20.8341  -10.0830 C   0  0  0  0  0  0  0  0  0  0  0  0
   24.4285  -20.9769  -11.5535 C   0  0  1  0  0  0  0  0  0  0  0  0
   23.3056  -20.1029  -11.9735 C   0  0  0  0  0  0  0  0  0  0  0  0
   22.0226  -20.5512  -11.6922 O   0  0  0  0  0  0  0  0  0  0  0  0
   23.4237  -19.0117  -12.5518 O   0  0  0  0  0  0  0  0  0  0  0  0
  2  1  1  0
  3  2  1  0
  3  4  1  1
  5  3  1  0
  6  5  2  0
  7  5  1  0
  7  8  1  0
  9  8  1  0
 10 11  1  0
 10  9  1  0
 11  7  1  0
 11 12  1  6
 12 14  1  0
 13 12  2  0
 14 15  1  0
 14 18  1  0
 15 16  1  0
 17 16  1  0
 18 17  1  0
 18 19  1  6
 19 20  1  0
 21 19  2  0
M  END
$$$$
