SPP.pdb
     RDKit          3D

 21 22  0  0  1  0  0  0  0  0999 V2000
   25.7232  -21.5100  -18.9929 O   0  0  0  0  0  0  0  0  0  0  0  0
   26.0758  -22.4755  -18.0782 C   0  0  0  0  0  0  0  0  0  0  0  0
   27.4906  -22.2004  -17.6047 C   0  0  2  0  0  0  0  0  0  0  0  0
   28.2977  -23.3564  -17.8024 N   0  0  0  0  0  0  0  0  0  0  0  0
   27.4861  -21.7691  -16.2016 C   0  0  0  0  0  0  0  0  0  0  0  0
   27.5305  -22.6908  -15.3258 O   0  0  0  0  0  0  0  0  0  0  0  0
   27.4344  -20.3922  -15.8053 N   0  0  0  0  0  0  0  0  0  0  0  0
   27.6757  -19.3154  -16.6988 C   0  0  0  0  0  0  0  0  0  0  0  0
   27.7781  -18.0914  -15.8117 C   0  0  0  0  0  0  0  0  0  0  0  0
   27.0150  -18.4435  -14.5742 C   0  0  0  0  0  0  0  0  0  0  0  0
   27.1385  -19.9321  -14.5107 C   0  0  1  0  0  0  0  0  0  0  0  0
   25.9273  -20.5500  -13.9050 C   0  0  0  0  0  0  0  0  0  0  0  0
   25.0006  -20.9026  -14.6513 O   0  0  0  0  0  0  0  0  0  0  0  0
   25.8966  -20.7034  -12.5037 N   0  0  0  0  0  0  0  0  0  0  0  0
   26.9822  -20.5366  -11.5563 C   0  0  0  0  0  0  0  0  0  0  0  0
   26.5314  -21.3362  -10.3261 C   0  0  0  0  0  0  0  0  0  0  0  0
   25.0589  -20.9826  -10.3041 C   0  0  0  0  0  0  0  0  0  0  0  0
   24.7018  -21.0720  -11.7658 C   0  0  1  0  0  0  0  0  0  0  0  0
   23.5533  -20.1963  -12.1050 C   0  0  0  0  0  0  0  0  0  0  0  0
   22.2843  -20.7315  -11.9339 O   0  0  0  0  0  0  0  0  0  0  0  0
   23.6387  -19.0325  -12.5263 O   0  0  0  0  0  0  0  0  0  0  0  0
  2  1  1  0
  3  2  1  0
  3  4  1  1
  5  3  1  0
  6  5  2  0
  7  5  1  0
  7  8  1  0
  9  8  1  0
 10 11  1  0
 10  9  1  0
 11  7  1  0
 11 12  1  6
 12 14  1  0
 13 12  2  0
 14 15  1  0
 14 18  1  0
 15 16  1  0
 17 16  1  0
 18 17  1  0
 18 19  1  1
 19 20  1  0
 21 19  2  0
M  END
$$$$
