SPP.pdb
     RDKit          3D

 21 22  0  0  1  0  0  0  0  0999 V2000
   24.3738  -19.0960  -10.9864 O   0  0  0  0  0  0  0  0  0  0  0  0
   25.3312  -19.6437  -11.8089 C   0  0  0  0  0  0  0  0  0  0  0  0
   25.4562  -21.1215  -11.4894 C   0  0  2  0  0  0  0  0  0  0  0  0
   24.1675  -21.7264  -11.4977 N   0  0  0  0  0  0  0  0  0  0  0  0
   26.1420  -21.3116  -10.2056 C   0  0  0  0  0  0  0  0  0  0  0  0
   25.3994  -21.4491   -9.1818 O   0  0  0  0  0  0  0  0  0  0  0  0
   27.5697  -21.3447  -10.0773 N   0  0  0  0  0  0  0  0  0  0  0  0
   28.4514  -21.3481  -11.1903 C   0  0  0  0  0  0  0  0  0  0  0  0
   29.8147  -21.6527  -10.6036 C   0  0  0  0  0  0  0  0  0  0  0  0
   29.7278  -21.2207   -9.1741 C   0  0  0  0  0  0  0  0  0  0  0  0
   28.2736  -21.3712   -8.8612 C   0  0  1  0  0  0  0  0  0  0  0  0
   27.8246  -20.3523   -7.8734 C   0  0  0  0  0  0  0  0  0  0  0  0
   27.2847  -19.3152   -8.2894 O   0  0  0  0  0  0  0  0  0  0  0  0
   28.0381  -20.6214   -6.5060 N   0  0  0  0  0  0  0  0  0  0  0  0
   28.3908  -21.8822   -5.8814 C   0  0  0  0  0  0  0  0  0  0  0  0
   27.9567  -21.7098   -4.4192 C   0  0  0  0  0  0  0  0  0  0  0  0
   28.3738  -20.2728   -4.1857 C   0  0  0  0  0  0  0  0  0  0  0  0
   27.9289  -19.6139   -5.4662 C   0  0  1  0  0  0  0  0  0  0  0  0
   28.7418  -18.4122   -5.7767 C   0  0  0  0  0  0  0  0  0  0  0  0
   28.4395  -17.2525   -5.0770 O   0  0  0  0  0  0  0  0  0  0  0  0
   29.6629  -18.3643   -6.6064 O   0  0  0  0  0  0  0  0  0  0  0  0
  2  1  1  0
  3  2  1  0
  3  4  1  1
  5  3  1  0
  6  5  2  0
  7  5  1  0
  7  8  1  0
  9  8  1  0
 10 11  1  0
 10  9  1  0
 11  7  1  0
 11 12  1  1
 12 14  1  0
 13 12  2  0
 14 15  1  0
 14 18  1  0
 15 16  1  0
 17 16  1  0
 18 17  1  0
 18 19  1  6
 19 20  1  0
 21 19  2  0
M  END
$$$$
