DCN.pdb
     RDKit          3D

 23 22  0  0  1  0  0  0  0  0999 V2000
   14.6957  -19.1115   15.4920 N   0  0  0  0  0  0  0  0  0  0  0  0
   15.5150  -18.9264   16.6568 C   0  0  1  0  0  0  0  0  0  0  0  0
   16.7167  -18.0917   16.3657 C   0  0  0  0  0  0  0  0  0  0  0  0
   17.5587  -18.7830   15.3662 C   0  0  0  0  0  0  0  0  0  0  0  0
   17.7956  -20.0051   15.5114 O   0  0  0  0  0  0  0  0  0  0  0  0
   14.7159  -18.4198   17.7935 C   0  0  0  0  0  0  0  0  0  0  0  0
   13.8574  -17.5383   17.5721 O   0  0  0  0  0  0  0  0  0  0  0  0
   18.1152  -18.1597   14.2573 O   0  0  0  0  0  0  0  0  0  0  0  0
   14.8691  -18.8785   19.1231 N   0  0  0  0  0  0  0  0  0  0  0  0
   14.0379  -18.3228   20.2197 C   0  0  1  0  0  0  0  0  0  0  0  0
   13.1435  -19.4671   20.7045 C   0  0  0  0  0  0  0  0  0  0  0  0
   12.0961  -19.0100   22.0831 S   0  0  0  0  0  0  0  0  0  0  0  0
   14.9088  -17.8164   21.2839 C   0  0  0  0  0  0  0  0  0  0  0  0
   15.8716  -18.5052   21.7679 O   0  0  0  0  0  0  0  0  0  0  0  0
   18.1731  -15.3898   23.4848 N   0  0  0  0  0  0  0  0  0  0  0  0
   17.4160  -14.3494   22.8453 C   0  0  0  0  0  0  0  0  0  0  0  0
   17.9580  -13.2730   22.5821 O   0  0  0  0  0  0  0  0  0  0  0  0
   16.0217  -14.6276   22.5365 C   0  0  0  0  0  0  0  0  0  0  0  0
   15.6134  -16.0175   22.8567 C   0  0  2  0  0  0  0  0  0  0  0  0
   14.7140  -16.5287   21.8193 N   0  0  0  0  0  0  0  0  0  0  0  0
   14.9904  -16.2365   24.1587 C   0  0  0  0  0  0  0  0  0  0  0  0
   13.7734  -16.1386   24.3470 O   0  0  0  0  0  0  0  0  0  0  0  0
   15.7739  -16.5719   25.2580 O   0  0  0  0  0  0  0  0  0  0  0  0
  2  1  1  6
  3  4  1  0
  3  2  1  0
  4  8  1  0
  5  4  2  0
  6  2  1  0
  6  9  1  0
  7  6  2  0
 10  9  1  0
 10 13  1  0
 10 11  1  1
 11 12  1  0
 13 20  1  0
 14 13  2  0
 16 15  1  0
 16 17  2  0
 18 16  1  0
 19 21  1  0
 19 18  1  6
 20 19  1  0
 21 23  1  0
 22 21  2  0
M  END
$$$$
