DCN.pdb
     RDKit          3D

 23 22  0  0  1  0  0  0  0  0999 V2000
    9.7989  -15.9120   19.7077 N   0  0  0  0  0  0  0  0  0  0  0  0
    9.3693  -16.7265   20.8097 C   0  0  1  0  0  0  0  0  0  0  0  0
    9.8610  -18.1299   20.6901 C   0  0  0  0  0  0  0  0  0  0  0  0
    9.2224  -18.7711   19.5209 C   0  0  0  0  0  0  0  0  0  0  0  0
    8.4455  -18.0957   18.8059 O   0  0  0  0  0  0  0  0  0  0  0  0
    9.7154  -16.0968   22.1024 C   0  0  0  0  0  0  0  0  0  0  0  0
   10.9216  -15.8987   22.3646 O   0  0  0  0  0  0  0  0  0  0  0  0
    9.4280  -20.0942   19.1539 O   0  0  0  0  0  0  0  0  0  0  0  0
    8.7539  -15.7044   23.0633 N   0  0  0  0  0  0  0  0  0  0  0  0
    9.1720  -15.1725   24.3841 C   0  0  1  0  0  0  0  0  0  0  0  0
    7.9514  -14.4528   24.9644 C   0  0  0  0  0  0  0  0  0  0  0  0
    8.2147  -13.8439   26.6277 S   0  0  0  0  0  0  0  0  0  0  0  0
    9.6160  -16.2779   25.2374 C   0  0  0  0  0  0  0  0  0  0  0  0
    8.9238  -17.3414   25.3974 O   0  0  0  0  0  0  0  0  0  0  0  0
   13.9491  -17.2337   24.4027 N   0  0  0  0  0  0  0  0  0  0  0  0
   12.9987  -18.0165   25.1434 C   0  0  0  0  0  0  0  0  0  0  0  0
   12.4579  -18.9876   24.6085 O   0  0  0  0  0  0  0  0  0  0  0  0
   12.7196  -17.6126   26.5130 C   0  0  0  0  0  0  0  0  0  0  0  0
   11.2857  -17.3244   26.7616 C   0  0  2  0  0  0  0  0  0  0  0  0
   10.8446  -16.2079   25.9219 N   0  0  0  0  0  0  0  0  0  0  0  0
   10.9007  -17.0459   28.1420 C   0  0  0  0  0  0  0  0  0  0  0  0
   10.3259  -16.0070   28.4834 O   0  0  0  0  0  0  0  0  0  0  0  0
   11.1787  -17.9711   29.1428 O   0  0  0  0  0  0  0  0  0  0  0  0
  2  1  1  6
  3  4  1  0
  3  2  1  0
  4  8  1  0
  5  4  2  0
  6  2  1  0
  6  9  1  0
  7  6  2  0
 10  9  1  0
 10 13  1  0
 10 11  1  1
 11 12  1  0
 13 20  1  0
 14 13  2  0
 16 15  1  0
 16 17  2  0
 18 16  1  0
 19 21  1  0
 19 18  1  1
 20 19  1  0
 21 23  1  0
 22 21  2  0
M  END
$$$$
