DCN.pdb
     RDKit          3D

 23 22  0  0  1  0  0  0  0  0999 V2000
    9.7540  -18.7900   20.7445 N   0  0  0  0  0  0  0  0  0  0  0  0
   10.3279  -17.4744   20.7917 C   0  0  1  0  0  0  0  0  0  0  0  0
   10.2865  -16.8004   19.4615 C   0  0  0  0  0  0  0  0  0  0  0  0
   11.4153  -17.2818   18.6369 C   0  0  0  0  0  0  0  0  0  0  0  0
   11.9248  -18.3974   18.8952 O   0  0  0  0  0  0  0  0  0  0  0  0
    9.7196  -16.6679   21.8720 C   0  0  0  0  0  0  0  0  0  0  0  0
   10.0643  -15.4718   21.9887 O   0  0  0  0  0  0  0  0  0  0  0  0
   11.9598  -16.5697   17.5767 O   0  0  0  0  0  0  0  0  0  0  0  0
    8.7655  -17.1761   22.7847 N   0  0  0  0  0  0  0  0  0  0  0  0
    8.1992  -16.3138   23.8516 C   0  0  1  0  0  0  0  0  0  0  0  0
    6.8256  -16.8976   24.1932 C   0  0  0  0  0  0  0  0  0  0  0  0
    6.9162  -18.3744   25.2018 S   0  0  0  0  0  0  0  0  0  0  0  0
    9.0995  -16.3126   25.0077 C   0  0  0  0  0  0  0  0  0  0  0  0
   10.1511  -17.0387   25.0587 O   0  0  0  0  0  0  0  0  0  0  0  0
   11.0906  -13.3176   29.5813 N   0  0  0  0  0  0  0  0  0  0  0  0
   10.1639  -14.4058   29.4336 C   0  0  0  0  0  0  0  0  0  0  0  0
   10.0910  -15.2696   30.3112 O   0  0  0  0  0  0  0  0  0  0  0  0
    9.3446  -14.4304   28.2315 C   0  0  0  0  0  0  0  0  0  0  0  0
    9.7737  -15.4538   27.2470 C   0  0  2  0  0  0  0  0  0  0  0  0
    8.8349  -15.4947   26.1230 N   0  0  0  0  0  0  0  0  0  0  0  0
    9.9555  -16.8129   27.7481 C   0  0  0  0  0  0  0  0  0  0  0  0
   11.0674  -17.3144   27.9442 O   0  0  0  0  0  0  0  0  0  0  0  0
    8.8476  -17.6061   28.0277 O   0  0  0  0  0  0  0  0  0  0  0  0
  2  1  1  6
  3  4  1  0
  3  2  1  0
  4  8  1  0
  5  4  2  0
  6  2  1  0
  6  9  1  0
  7  6  2  0
 10  9  1  0
 10 13  1  0
 10 11  1  1
 11 12  1  0
 13 20  1  0
 14 13  2  0
 16 15  1  0
 16 17  2  0
 18 16  1  0
 19 21  1  0
 19 18  1  1
 20 19  1  0
 21 23  1  0
 22 21  2  0
M  END
$$$$
