DCN.pdb
     RDKit          3D

 23 22  0  0  1  0  0  0  0  0999 V2000
   10.0625  -18.0786   21.3964 N   0  0  0  0  0  0  0  0  0  0  0  0
   11.2792  -17.3914   21.7280 C   0  0  1  0  0  0  0  0  0  0  0  0
   11.9513  -16.8336   20.5185 C   0  0  0  0  0  0  0  0  0  0  0  0
   12.7534  -17.8955   19.8745 C   0  0  0  0  0  0  0  0  0  0  0  0
   12.2103  -18.9949   19.6149 O   0  0  0  0  0  0  0  0  0  0  0  0
   11.0482  -16.3813   22.7834 C   0  0  0  0  0  0  0  0  0  0  0  0
   12.0303  -15.7470   23.2260 O   0  0  0  0  0  0  0  0  0  0  0  0
   14.0914  -17.7559   19.5312 O   0  0  0  0  0  0  0  0  0  0  0  0
    9.7727  -16.0914   23.3225 N   0  0  0  0  0  0  0  0  0  0  0  0
    9.6250  -15.1574   24.4663 C   0  0  1  0  0  0  0  0  0  0  0  0
    8.1995  -14.6039   24.3889 C   0  0  0  0  0  0  0  0  0  0  0  0
    7.6725  -13.7951   25.8971 S   0  0  0  0  0  0  0  0  0  0  0  0
    9.8684  -15.8773   25.7192 C   0  0  0  0  0  0  0  0  0  0  0  0
    9.3006  -16.9903   25.9919 O   0  0  0  0  0  0  0  0  0  0  0  0
   11.5942  -17.5566   30.1259 N   0  0  0  0  0  0  0  0  0  0  0  0
   12.6541  -17.3946   29.1693 C   0  0  0  0  0  0  0  0  0  0  0  0
   13.7591  -17.8962   29.3909 O   0  0  0  0  0  0  0  0  0  0  0  0
   12.3605  -16.6315   27.9658 C   0  0  0  0  0  0  0  0  0  0  0  0
   10.9825  -16.0826   27.9379 C   0  0  2  0  0  0  0  0  0  0  0  0
   10.7545  -15.3604   26.6838 N   0  0  0  0  0  0  0  0  0  0  0  0
   10.5974  -15.2159   29.0478 C   0  0  0  0  0  0  0  0  0  0  0  0
   10.6891  -15.5579   30.2314 O   0  0  0  0  0  0  0  0  0  0  0  0
   10.1008  -13.9412   28.7962 O   0  0  0  0  0  0  0  0  0  0  0  0
  2  1  1  6
  3  4  1  0
  3  2  1  0
  4  8  1  0
  5  4  2  0
  6  2  1  0
  6  9  1  0
  7  6  2  0
 10  9  1  0
 10 13  1  0
 10 11  1  1
 11 12  1  0
 13 20  1  0
 14 13  2  0
 16 15  1  0
 16 17  2  0
 18 16  1  0
 19 21  1  0
 19 18  1  1
 20 19  1  0
 21 23  1  0
 22 21  2  0
M  END
$$$$
