DCN.pdb
     RDKit          3D

 23 22  0  0  1  0  0  0  0  0999 V2000
    7.8612  -17.9889   19.2045 N   0  0  0  0  0  0  0  0  0  0  0  0
    8.8564  -17.0886   18.6931 C   0  0  1  0  0  0  0  0  0  0  0  0
    8.3993  -16.4002   17.4510 C   0  0  0  0  0  0  0  0  0  0  0  0
    8.2845  -17.3911   16.3598 C   0  0  0  0  0  0  0  0  0  0  0  0
    7.6385  -18.4460   16.5618 O   0  0  0  0  0  0  0  0  0  0  0  0
    9.3153  -16.1524   19.7421 C   0  0  0  0  0  0  0  0  0  0  0  0
    9.3938  -14.9364   19.4625 O   0  0  0  0  0  0  0  0  0  0  0  0
    8.8538  -17.2305   15.1037 O   0  0  0  0  0  0  0  0  0  0  0  0
    9.6719  -16.5573   21.0500 N   0  0  0  0  0  0  0  0  0  0  0  0
   10.1124  -15.5635   22.0602 C   0  0  1  0  0  0  0  0  0  0  0  0
    8.8811  -14.7185   22.3984 C   0  0  0  0  0  0  0  0  0  0  0  0
    7.7755  -15.5142   23.5607 S   0  0  0  0  0  0  0  0  0  0  0  0
   10.6397  -16.2624   23.2352 C   0  0  0  0  0  0  0  0  0  0  0  0
   10.2176  -17.4152   23.5940 O   0  0  0  0  0  0  0  0  0  0  0  0
   15.8310  -17.2016   23.6635 N   0  0  0  0  0  0  0  0  0  0  0  0
   14.8055  -16.2190   23.4459 C   0  0  0  0  0  0  0  0  0  0  0  0
   14.6454  -15.7420   22.3196 O   0  0  0  0  0  0  0  0  0  0  0  0
   13.9943  -15.8315   24.5900 C   0  0  0  0  0  0  0  0  0  0  0  0
   12.6806  -16.5189   24.6405 C   0  0  2  0  0  0  0  0  0  0  0  0
   11.6502  -15.6797   24.0239 N   0  0  0  0  0  0  0  0  0  0  0  0
   12.2089  -16.9396   25.9565 C   0  0  0  0  0  0  0  0  0  0  0  0
   11.2389  -16.4224   26.5202 O   0  0  0  0  0  0  0  0  0  0  0  0
   12.8583  -17.9665   26.6336 O   0  0  0  0  0  0  0  0  0  0  0  0
  2  1  1  1
  3  4  1  0
  3  2  1  0
  4  8  1  0
  5  4  2  0
  6  2  1  0
  6  9  1  0
  7  6  2  0
 10  9  1  0
 10 13  1  0
 10 11  1  1
 11 12  1  0
 13 20  1  0
 14 13  2  0
 16 15  1  0
 16 17  2  0
 18 16  1  0
 19 21  1  0
 19 18  1  1
 20 19  1  0
 21 23  1  0
 22 21  2  0
M  END
$$$$
