DCN.pdb
     RDKit          3D

 23 22  0  0  1  0  0  0  0  0999 V2000
    8.2521  -18.3878   18.5284 N   0  0  0  0  0  0  0  0  0  0  0  0
    9.5431  -17.7658   18.4339 C   0  0  1  0  0  0  0  0  0  0  0  0
    9.7004  -16.9990   17.1640 C   0  0  0  0  0  0  0  0  0  0  0  0
   10.0453  -17.9332   16.0712 C   0  0  0  0  0  0  0  0  0  0  0  0
   10.1050  -19.1608   16.3167 O   0  0  0  0  0  0  0  0  0  0  0  0
    9.8345  -16.9607   19.6399 C   0  0  0  0  0  0  0  0  0  0  0  0
   10.9983  -16.5347   19.8049 O   0  0  0  0  0  0  0  0  0  0  0  0
   10.3125  -17.5366   14.7678 O   0  0  0  0  0  0  0  0  0  0  0  0
    8.8661  -16.6442   20.6216 N   0  0  0  0  0  0  0  0  0  0  0  0
    9.2177  -15.8045   21.7936 C   0  0  1  0  0  0  0  0  0  0  0  0
    7.8957  -15.4419   22.4756 C   0  0  0  0  0  0  0  0  0  0  0  0
    6.8665  -14.3570   21.4906 S   0  0  0  0  0  0  0  0  0  0  0  0
   10.1078  -16.5555   22.6830 C   0  0  0  0  0  0  0  0  0  0  0  0
    9.9970  -17.8176   22.8579 O   0  0  0  0  0  0  0  0  0  0  0  0
   14.3504  -15.1220   22.1899 N   0  0  0  0  0  0  0  0  0  0  0  0
   13.9487  -16.3232   22.8683 C   0  0  0  0  0  0  0  0  0  0  0  0
   14.0833  -17.4147   22.3095 O   0  0  0  0  0  0  0  0  0  0  0  0
   13.3931  -16.1843   24.2059 C   0  0  0  0  0  0  0  0  0  0  0  0
   11.9897  -16.6533   24.3124 C   0  0  2  0  0  0  0  0  0  0  0  0
   11.1372  -15.9022   23.3875 N   0  0  0  0  0  0  0  0  0  0  0  0
   11.3818  -16.6127   25.6391 C   0  0  0  0  0  0  0  0  0  0  0  0
   11.8463  -17.2182   26.6106 O   0  0  0  0  0  0  0  0  0  0  0  0
   10.2265  -15.8681   25.8533 O   0  0  0  0  0  0  0  0  0  0  0  0
  2  1  1  1
  3  4  1  0
  3  2  1  0
  4  8  1  0
  5  4  2  0
  6  2  1  0
  6  9  1  0
  7  6  2  0
 10  9  1  0
 10 13  1  0
 10 11  1  1
 11 12  1  0
 13 20  1  0
 14 13  2  0
 16 15  1  0
 16 17  2  0
 18 16  1  0
 19 21  1  0
 19 18  1  1
 20 19  1  0
 21 23  1  0
 22 21  2  0
M  END
$$$$
