DCN.pdb
     RDKit          3D

 23 22  0  0  1  0  0  0  0  0999 V2000
    7.7981  -16.8896   18.0947 N   0  0  0  0  0  0  0  0  0  0  0  0
    9.1691  -17.1362   18.4440 C   0  0  1  0  0  0  0  0  0  0  0  0
   10.0682  -17.0653   17.2556 C   0  0  0  0  0  0  0  0  0  0  0  0
    9.8488  -18.2567   16.4080 C   0  0  0  0  0  0  0  0  0  0  0  0
    9.1828  -19.2146   16.8660 O   0  0  0  0  0  0  0  0  0  0  0  0
    9.6008  -16.2586   19.5535 C   0  0  0  0  0  0  0  0  0  0  0  0
    9.4305  -15.0254   19.4385 O   0  0  0  0  0  0  0  0  0  0  0  0
   10.3390  -18.3896   15.1159 O   0  0  0  0  0  0  0  0  0  0  0  0
   10.1983  -16.7384   20.7429 N   0  0  0  0  0  0  0  0  0  0  0  0
   10.5639  -15.8075   21.8392 C   0  0  1  0  0  0  0  0  0  0  0  0
    9.2482  -15.2409   22.3798 C   0  0  0  0  0  0  0  0  0  0  0  0
    8.2123  -16.4776   23.1568 S   0  0  0  0  0  0  0  0  0  0  0  0
   11.3135  -16.5344   22.8673 C   0  0  0  0  0  0  0  0  0  0  0  0
   11.1468  -17.7841   23.0827 O   0  0  0  0  0  0  0  0  0  0  0  0
   14.5440  -15.6886   22.2673 N   0  0  0  0  0  0  0  0  0  0  0  0
   15.2182  -16.0163   23.4932 C   0  0  0  0  0  0  0  0  0  0  0  0
   16.4152  -16.3135   23.4716 O   0  0  0  0  0  0  0  0  0  0  0  0
   14.4359  -15.9793   24.7194 C   0  0  0  0  0  0  0  0  0  0  0  0
   13.1091  -16.6305   24.5916 C   0  0  2  0  0  0  0  0  0  0  0  0
   12.2633  -15.8708   23.6675 N   0  0  0  0  0  0  0  0  0  0  0  0
   12.3632  -16.8513   25.8270 C   0  0  0  0  0  0  0  0  0  0  0  0
   11.2791  -16.3083   26.0642 O   0  0  0  0  0  0  0  0  0  0  0  0
   12.8677  -17.7055   26.8019 O   0  0  0  0  0  0  0  0  0  0  0  0
  2  1  1  6
  3  4  1  0
  3  2  1  0
  4  8  1  0
  5  4  2  0
  6  2  1  0
  6  9  1  0
  7  6  2  0
 10  9  1  0
 10 13  1  0
 10 11  1  1
 11 12  1  0
 13 20  1  0
 14 13  2  0
 16 15  1  0
 16 17  2  0
 18 16  1  0
 19 21  1  0
 19 18  1  1
 20 19  1  0
 21 23  1  0
 22 21  2  0
M  END
$$$$
