DCN.pdb
     RDKit          3D

 23 22  0  0  1  0  0  0  0  0999 V2000
    7.5894  -17.2048   20.9452 N   0  0  0  0  0  0  0  0  0  0  0  0
    8.9629  -16.7872   20.9070 C   0  0  1  0  0  0  0  0  0  0  0  0
    9.3308  -16.2024   19.5847 C   0  0  0  0  0  0  0  0  0  0  0  0
    9.3460  -17.2740   18.5662 C   0  0  0  0  0  0  0  0  0  0  0  0
    8.3975  -18.0926   18.5305 O   0  0  0  0  0  0  0  0  0  0  0  0
    9.2796  -15.8976   22.0452 C   0  0  0  0  0  0  0  0  0  0  0  0
   10.4303  -15.4148   22.1217 O   0  0  0  0  0  0  0  0  0  0  0  0
   10.3573  -17.4388   17.6294 O   0  0  0  0  0  0  0  0  0  0  0  0
    8.3496  -15.5608   23.0568 N   0  0  0  0  0  0  0  0  0  0  0  0
    8.7538  -14.7228   24.2129 C   0  0  1  0  0  0  0  0  0  0  0  0
    7.4725  -14.0732   24.7428 C   0  0  0  0  0  0  0  0  0  0  0  0
    6.3085  -15.2544   25.4183 S   0  0  0  0  0  0  0  0  0  0  0  0
    9.4024  -15.5638   25.2225 C   0  0  0  0  0  0  0  0  0  0  0  0
    9.8370  -15.0940   26.3299 O   0  0  0  0  0  0  0  0  0  0  0  0
    7.1988  -19.2455   27.5249 N   0  0  0  0  0  0  0  0  0  0  0  0
    8.5537  -18.7676   27.5483 C   0  0  0  0  0  0  0  0  0  0  0  0
    8.9950  -18.2316   28.5680 O   0  0  0  0  0  0  0  0  0  0  0  0
    9.3484  -18.9454   26.3427 C   0  0  0  0  0  0  0  0  0  0  0  0
   10.2093  -17.7791   26.0273 C   0  0  2  0  0  0  0  0  0  0  0  0
    9.5710  -16.9449   25.0060 N   0  0  0  0  0  0  0  0  0  0  0  0
   11.5762  -18.0664   25.6025 C   0  0  0  0  0  0  0  0  0  0  0  0
   11.8640  -18.4151   24.4529 O   0  0  0  0  0  0  0  0  0  0  0  0
   12.6255  -17.9521   26.5085 O   0  0  0  0  0  0  0  0  0  0  0  0
  2  1  1  6
  3  4  1  0
  3  2  1  0
  4  8  1  0
  5  4  2  0
  6  2  1  0
  6  9  1  0
  7  6  2  0
 10  9  1  0
 10 13  1  0
 10 11  1  1
 11 12  1  0
 13 20  1  0
 14 13  2  0
 16 15  1  0
 16 17  2  0
 18 16  1  0
 19 21  1  0
 19 18  1  6
 20 19  1  0
 21 23  1  0
 22 21  2  0
M  END
$$$$
