DCN.pdb
     RDKit          3D

 23 22  0  0  1  0  0  0  0  0999 V2000
    7.2493  -17.9229   17.2884 N   0  0  0  0  0  0  0  0  0  0  0  0
    8.4754  -17.1874   17.1530 C   0  0  1  0  0  0  0  0  0  0  0  0
    8.4555  -16.2852   15.9651 C   0  0  0  0  0  0  0  0  0  0  0  0
    8.5957  -17.0956   14.7364 C   0  0  0  0  0  0  0  0  0  0  0  0
    9.3444  -18.1007   14.7530 O   0  0  0  0  0  0  0  0  0  0  0  0
    8.8163  -16.4870   18.4102 C   0  0  0  0  0  0  0  0  0  0  0  0
    9.8602  -15.7998   18.4451 O   0  0  0  0  0  0  0  0  0  0  0  0
    7.9431  -16.8144   13.5437 O   0  0  0  0  0  0  0  0  0  0  0  0
    8.0242  -16.5512   19.5807 N   0  0  0  0  0  0  0  0  0  0  0  0
    8.5219  -16.0028   20.8667 C   0  0  1  0  0  0  0  0  0  0  0  0
    7.2967  -15.8484   21.7720 C   0  0  0  0  0  0  0  0  0  0  0  0
    6.6200  -17.4137   22.3185 S   0  0  0  0  0  0  0  0  0  0  0  0
    9.5148  -16.9177   21.4361 C   0  0  0  0  0  0  0  0  0  0  0  0
   10.0955  -17.8194   20.7392 O   0  0  0  0  0  0  0  0  0  0  0  0
   13.9110  -15.5739   24.1307 N   0  0  0  0  0  0  0  0  0  0  0  0
   13.5356  -16.1216   22.8564 C   0  0  0  0  0  0  0  0  0  0  0  0
   14.3947  -16.6347   22.1350 O   0  0  0  0  0  0  0  0  0  0  0  0
   12.1332  -16.0394   22.4780 C   0  0  0  0  0  0  0  0  0  0  0  0
   11.2701  -17.0049   23.2018 C   0  0  2  0  0  0  0  0  0  0  0  0
    9.8731  -16.8332   22.7952 N   0  0  0  0  0  0  0  0  0  0  0  0
   11.3344  -16.9795   24.6601 C   0  0  0  0  0  0  0  0  0  0  0  0
   10.3962  -16.5993   25.3682 O   0  0  0  0  0  0  0  0  0  0  0  0
   12.4897  -17.3955   25.3136 O   0  0  0  0  0  0  0  0  0  0  0  0
  2  1  1  1
  3  4  1  0
  3  2  1  0
  4  8  1  0
  5  4  2  0
  6  2  1  0
  6  9  1  0
  7  6  2  0
 10  9  1  0
 10 13  1  0
 10 11  1  1
 11 12  1  0
 13 20  1  0
 14 13  2  0
 16 15  1  0
 16 17  2  0
 18 16  1  0
 19 21  1  0
 19 18  1  6
 20 19  1  0
 21 23  1  0
 22 21  2  0
M  END
$$$$
