DCN.pdb
     RDKit          3D

 23 22  0  0  1  0  0  0  0  0999 V2000
    7.3473  -13.1376   19.7358 N   0  0  0  0  0  0  0  0  0  0  0  0
    7.6128  -14.2858   20.5565 C   0  0  1  0  0  0  0  0  0  0  0  0
    8.5493  -15.2395   19.8940 C   0  0  0  0  0  0  0  0  0  0  0  0
    7.9186  -15.7657   18.6646 C   0  0  0  0  0  0  0  0  0  0  0  0
    6.7650  -15.3814   18.3606 O   0  0  0  0  0  0  0  0  0  0  0  0
    8.0541  -13.8815   21.9090 C   0  0  0  0  0  0  0  0  0  0  0  0
    8.8942  -12.9613   22.0112 O   0  0  0  0  0  0  0  0  0  0  0  0
    8.5278  -16.6728   17.8081 O   0  0  0  0  0  0  0  0  0  0  0  0
    7.5771  -14.4803   23.0987 N   0  0  0  0  0  0  0  0  0  0  0  0
    8.3092  -14.3163   24.3791 C   0  0  1  0  0  0  0  0  0  0  0  0
    7.3288  -13.6596   25.3547 C   0  0  0  0  0  0  0  0  0  0  0  0
    5.8614  -14.6422   25.6508 S   0  0  0  0  0  0  0  0  0  0  0  0
    8.7629  -15.6264   24.8535 C   0  0  0  0  0  0  0  0  0  0  0  0
    8.1974  -16.7175   24.4991 O   0  0  0  0  0  0  0  0  0  0  0  0
   11.0541  -18.3430   23.2480 N   0  0  0  0  0  0  0  0  0  0  0  0
   11.3880  -18.5929   24.6231 C   0  0  0  0  0  0  0  0  0  0  0  0
   11.5218  -19.7538   25.0181 O   0  0  0  0  0  0  0  0  0  0  0  0
   11.5536  -17.4387   25.4934 C   0  0  0  0  0  0  0  0  0  0  0  0
   10.3071  -17.0473   26.1962 C   0  0  2  0  0  0  0  0  0  0  0  0
    9.8594  -15.7323   25.7305 N   0  0  0  0  0  0  0  0  0  0  0  0
   10.3523  -17.0311   27.6553 C   0  0  0  0  0  0  0  0  0  0  0  0
   10.2857  -15.9911   28.3188 O   0  0  0  0  0  0  0  0  0  0  0  0
   10.4754  -18.2231   28.3615 O   0  0  0  0  0  0  0  0  0  0  0  0
  2  1  1  6
  3  4  1  0
  3  2  1  0
  4  8  1  0
  5  4  2  0
  6  2  1  0
  6  9  1  0
  7  6  2  0
 10  9  1  0
 10 13  1  0
 10 11  1  1
 11 12  1  0
 13 20  1  0
 14 13  2  0
 16 15  1  0
 16 17  2  0
 18 16  1  0
 19 21  1  0
 19 18  1  6
 20 19  1  0
 21 23  1  0
 22 21  2  0
M  END
$$$$
