DCN.pdb
     RDKit          3D

 23 22  0  0  1  0  0  0  0  0999 V2000
    7.9228  -18.1188   17.0734 N   0  0  0  0  0  0  0  0  0  0  0  0
    9.2418  -17.5585   16.9806 C   0  0  1  0  0  0  0  0  0  0  0  0
    9.5164  -17.0018   15.6240 C   0  0  0  0  0  0  0  0  0  0  0  0
    8.4526  -17.4383   14.6946 C   0  0  0  0  0  0  0  0  0  0  0  0
    7.5610  -18.2139   15.1121 O   0  0  0  0  0  0  0  0  0  0  0  0
    9.4839  -16.5864   18.0686 C   0  0  0  0  0  0  0  0  0  0  0  0
   10.6632  -16.2580   18.3226 O   0  0  0  0  0  0  0  0  0  0  0  0
    8.3721  -17.0406   13.3669 O   0  0  0  0  0  0  0  0  0  0  0  0
    8.4515  -16.0048   18.8416 N   0  0  0  0  0  0  0  0  0  0  0  0
    8.7679  -15.1241   19.9934 C   0  0  1  0  0  0  0  0  0  0  0  0
    7.5035  -14.3062   20.2701 C   0  0  0  0  0  0  0  0  0  0  0  0
    7.8103  -12.5452   20.3773 S   0  0  0  0  0  0  0  0  0  0  0  0
    9.1549  -15.9450   21.1438 C   0  0  0  0  0  0  0  0  0  0  0  0
    8.4340  -16.9117   21.5699 O   0  0  0  0  0  0  0  0  0  0  0  0
   12.9877  -19.6488   21.7020 N   0  0  0  0  0  0  0  0  0  0  0  0
   11.8929  -19.0459   22.4107 C   0  0  0  0  0  0  0  0  0  0  0  0
   11.5970  -19.4516   23.5375 O   0  0  0  0  0  0  0  0  0  0  0  0
   11.1773  -17.9668   21.7470 C   0  0  0  0  0  0  0  0  0  0  0  0
   11.0050  -16.7637   22.5976 C   0  0  2  0  0  0  0  0  0  0  0  0
   10.3578  -15.6953   21.8319 N   0  0  0  0  0  0  0  0  0  0  0  0
   12.2082  -16.2221   23.2222 C   0  0  0  0  0  0  0  0  0  0  0  0
   12.5893  -16.5553   24.3491 O   0  0  0  0  0  0  0  0  0  0  0  0
   12.9836  -15.2866   22.5450 O   0  0  0  0  0  0  0  0  0  0  0  0
  2  1  1  6
  3  4  1  0
  3  2  1  0
  4  8  1  0
  5  4  2  0
  6  2  1  0
  6  9  1  0
  7  6  2  0
 10  9  1  0
 10 13  1  0
 10 11  1  1
 11 12  1  0
 13 20  1  0
 14 13  2  0
 16 15  1  0
 16 17  2  0
 18 16  1  0
 19 21  1  0
 19 18  1  6
 20 19  1  0
 21 23  1  0
 22 21  2  0
M  END
$$$$
