CKN.pdb
     RDKit          3D

 24 23  0  0  1  0  0  0  0  0999 V2000
   26.7081  -12.1728  -15.2310 N   0  0  0  0  0  0  0  0  0  0  0  0
   26.9435  -11.0947  -16.1652 C   0  0  1  0  0  0  0  0  0  0  0  0
   27.6652  -11.6061  -17.3929 C   0  0  0  0  0  0  0  0  0  0  0  0
   29.2030  -12.3873  -16.7619 S   0  0  0  0  0  0  0  0  0  0  0  0
   25.6517  -10.4441  -16.4642 C   0  0  0  0  0  0  0  0  0  0  0  0
   25.6647   -9.4111  -17.1842 O   0  0  0  0  0  0  0  0  0  0  0  0
   24.3943  -10.8820  -16.0110 N   0  0  0  0  0  0  0  0  0  0  0  0
   23.1361  -10.2334  -16.2037 C   0  0  1  0  0  0  0  0  0  0  0  0
   21.9777  -11.2150  -16.1050 C   0  0  0  0  0  0  0  0  0  0  0  0
   20.6669  -10.5833  -16.3924 C   0  0  0  0  0  0  0  0  0  0  0  0
   19.5504  -11.5320  -16.6612 C   0  0  0  0  0  0  0  0  0  0  0  0
   18.2419  -10.9163  -17.0580 C   0  0  0  0  0  0  0  0  0  0  0  0
   17.1558  -11.8291  -17.1833 N   0  0  0  0  0  0  0  0  0  0  0  0
   22.9349   -9.0801  -15.2908 C   0  0  0  0  0  0  0  0  0  0  0  0
   23.7804   -8.8841  -14.3622 O   0  0  0  0  0  0  0  0  0  0  0  0
   22.2234   -4.2383  -13.9388 N   0  0  0  0  0  0  0  0  0  0  0  0
   23.1838   -4.7153  -14.8629 C   0  0  0  0  0  0  0  0  0  0  0  0
   24.1202   -3.9461  -15.2181 O   0  0  0  0  0  0  0  0  0  0  0  0
   23.1344   -6.0866  -15.4331 C   0  0  0  0  0  0  0  0  0  0  0  0
   21.9571   -6.8405  -14.8556 C   0  0  2  0  0  0  0  0  0  0  0  0
   21.8636   -8.1845  -15.3856 N   0  0  0  0  0  0  0  0  0  0  0  0
   20.6847   -6.0913  -15.1294 C   0  0  0  0  0  0  0  0  0  0  0  0
   19.9469   -5.4634  -14.1390 O   0  0  0  0  0  0  0  0  0  0  0  0
   20.2363   -6.0092  -16.3035 O   0  0  0  0  0  0  0  0  0  0  0  0
  2  5  1  0
  2  1  1  1
  3  2  1  0
  4  3  1  0
  5  6  2  0
  7  8  1  0
  7  5  1  0
  9 10  1  0
  8  9  1  1
 10 11  1  0
 11 12  1  0
 13 12  1  0
 14  8  1  0
 14 15  2  0
 16 17  1  0
 17 18  2  0
 17 19  1  0
 20 19  1  6
 20 21  1  0
 20 22  1  0
 21 14  1  0
 22 24  2  0
 22 23  1  0
M  END
$$$$
