CKN.pdb
     RDKit          3D

 24 23  0  0  1  0  0  0  0  0999 V2000
   26.3884  -16.5647  -17.4341 N   0  0  0  0  0  0  0  0  0  0  0  0
   25.7564  -16.6274  -16.1354 C   0  0  1  0  0  0  0  0  0  0  0  0
   25.4803  -15.2342  -15.6133 C   0  0  0  0  0  0  0  0  0  0  0  0
   27.0671  -14.6654  -14.8843 S   0  0  0  0  0  0  0  0  0  0  0  0
   24.5489  -17.4711  -16.2426 C   0  0  0  0  0  0  0  0  0  0  0  0
   23.7587  -17.2508  -17.1979 O   0  0  0  0  0  0  0  0  0  0  0  0
   24.2004  -18.5110  -15.3620 N   0  0  0  0  0  0  0  0  0  0  0  0
   23.0389  -19.3402  -15.4261 C   0  0  1  0  0  0  0  0  0  0  0  0
   23.3164  -20.7373  -14.8908 C   0  0  0  0  0  0  0  0  0  0  0  0
   24.2091  -21.5225  -15.7776 C   0  0  0  0  0  0  0  0  0  0  0  0
   24.5745  -22.8756  -15.2733 C   0  0  0  0  0  0  0  0  0  0  0  0
   25.4845  -23.6833  -16.1498 C   0  0  0  0  0  0  0  0  0  0  0  0
   25.8288  -24.9695  -15.6440 N   0  0  0  0  0  0  0  0  0  0  0  0
   21.8608  -18.7374  -14.7531 C   0  0  0  0  0  0  0  0  0  0  0  0
   22.0565  -17.8686  -13.8461 O   0  0  0  0  0  0  0  0  0  0  0  0
   18.5599  -16.5426  -13.2494 N   0  0  0  0  0  0  0  0  0  0  0  0
   19.5186  -15.9377  -14.0973 C   0  0  0  0  0  0  0  0  0  0  0  0
   19.8610  -14.7431  -13.8729 O   0  0  0  0  0  0  0  0  0  0  0  0
   20.1389  -16.6525  -15.2429 C   0  0  0  0  0  0  0  0  0  0  0  0
   19.5554  -18.0433  -15.3567 C   0  0  2  0  0  0  0  0  0  0  0  0
   20.5343  -19.0663  -15.0542 N   0  0  0  0  0  0  0  0  0  0  0  0
   19.0015  -18.2553  -16.7365 C   0  0  0  0  0  0  0  0  0  0  0  0
   17.6564  -18.4726  -16.9879 O   0  0  0  0  0  0  0  0  0  0  0  0
   19.7666  -18.2418  -17.7368 O   0  0  0  0  0  0  0  0  0  0  0  0
  2  5  1  0
  2  1  1  6
  3  2  1  0
  4  3  1  0
  5  6  2  0
  7  8  1  0
  7  5  1  0
  9 10  1  0
  8  9  1  1
 10 11  1  0
 11 12  1  0
 13 12  1  0
 14  8  1  0
 14 15  2  0
 16 17  1  0
 17 18  2  0
 17 19  1  0
 20 19  1  6
 20 21  1  0
 20 22  1  0
 21 14  1  0
 22 24  2  0
 22 23  1  0
M  END
$$$$
