CKN.pdb
     RDKit          3D

 24 23  0  0  1  0  0  0  0  0999 V2000
   13.2208  -11.5500  -12.0060 N   0  0  0  0  0  0  0  0  0  0  0  0
   14.1113  -10.8940  -11.0750 C   0  0  1  0  0  0  0  0  0  0  0  0
   14.4039  -11.7970   -9.8965 C   0  0  0  0  0  0  0  0  0  0  0  0
   12.8320  -11.8859   -8.9510 S   0  0  0  0  0  0  0  0  0  0  0  0
   15.3197  -10.4635  -11.8071 C   0  0  0  0  0  0  0  0  0  0  0  0
   16.2343   -9.8964  -11.1534 O   0  0  0  0  0  0  0  0  0  0  0  0
   15.5414  -10.6338  -13.1856 N   0  0  0  0  0  0  0  0  0  0  0  0
   16.6684  -10.1823  -13.9384 C   0  0  1  0  0  0  0  0  0  0  0  0
   16.9228  -11.0644  -15.1518 C   0  0  0  0  0  0  0  0  0  0  0  0
   17.3772  -12.4272  -14.7828 C   0  0  0  0  0  0  0  0  0  0  0  0
   17.5847  -13.3586  -15.9266 C   0  0  0  0  0  0  0  0  0  0  0  0
   18.0577  -14.7381  -15.5773 C   0  0  0  0  0  0  0  0  0  0  0  0
   18.2923  -15.5978  -16.6884 N   0  0  0  0  0  0  0  0  0  0  0  0
   16.5661   -8.7543  -14.3314 C   0  0  0  0  0  0  0  0  0  0  0  0
   15.4438   -8.3122  -14.7322 O   0  0  0  0  0  0  0  0  0  0  0  0
   17.2662   -3.7389  -15.1282 N   0  0  0  0  0  0  0  0  0  0  0  0
   16.4741   -4.2958  -14.0955 C   0  0  0  0  0  0  0  0  0  0  0  0
   15.6951   -3.5388  -13.4515 O   0  0  0  0  0  0  0  0  0  0  0  0
   16.5228   -5.7371  -13.7377 C   0  0  0  0  0  0  0  0  0  0  0  0
   17.4658   -6.4657  -14.6692 C   0  0  2  0  0  0  0  0  0  0  0  0
   17.6356   -7.8526  -14.2899 N   0  0  0  0  0  0  0  0  0  0  0  0
   18.7984   -5.7736  -14.6935 C   0  0  0  0  0  0  0  0  0  0  0  0
   19.0883   -4.7174  -15.5420 O   0  0  0  0  0  0  0  0  0  0  0  0
   19.7205   -6.1442  -13.9198 O   0  0  0  0  0  0  0  0  0  0  0  0
  2  5  1  0
  2  1  1  6
  3  2  1  0
  4  3  1  0
  5  6  2  0
  7  8  1  0
  7  5  1  0
  9 10  1  0
  8  9  1  6
 10 11  1  0
 11 12  1  0
 13 12  1  0
 14  8  1  0
 14 15  2  0
 16 17  1  0
 17 18  2  0
 17 19  1  0
 20 19  1  1
 20 21  1  0
 20 22  1  0
 21 14  1  0
 22 24  2  0
 22 23  1  0
M  END
$$$$
