CKN.pdb
     RDKit          3D

 24 23  0  0  1  0  0  0  0  0999 V2000
   22.9326  -12.5623  -17.0633 N   0  0  0  0  0  0  0  0  0  0  0  0
   22.6424  -12.0314  -15.7502 C   0  0  1  0  0  0  0  0  0  0  0  0
   23.9185  -11.6058  -15.0573 C   0  0  0  0  0  0  0  0  0  0  0  0
   24.7726  -10.5000  -16.2492 S   0  0  0  0  0  0  0  0  0  0  0  0
   21.6535  -10.9437  -15.8931 C   0  0  0  0  0  0  0  0  0  0  0  0
   21.6478  -10.2898  -16.9693 O   0  0  0  0  0  0  0  0  0  0  0  0
   20.7066  -10.5703  -14.9225 N   0  0  0  0  0  0  0  0  0  0  0  0
   19.7485   -9.5148  -15.0160 C   0  0  1  0  0  0  0  0  0  0  0  0
   18.3852   -9.9465  -14.4958 C   0  0  0  0  0  0  0  0  0  0  0  0
   17.6821  -10.8627  -15.4264 C   0  0  0  0  0  0  0  0  0  0  0  0
   16.3647  -11.3661  -14.9471 C   0  0  0  0  0  0  0  0  0  0  0  0
   15.6768  -12.3623  -15.8320 C   0  0  0  0  0  0  0  0  0  0  0  0
   14.4186  -12.8294  -15.3553 N   0  0  0  0  0  0  0  0  0  0  0  0
   20.1990   -8.2651  -14.3530 C   0  0  0  0  0  0  0  0  0  0  0  0
   21.0929   -8.3420  -13.4526 O   0  0  0  0  0  0  0  0  0  0  0  0
   21.8165   -3.4578  -13.7642 N   0  0  0  0  0  0  0  0  0  0  0  0
   22.4807   -4.4891  -14.4707 C   0  0  0  0  0  0  0  0  0  0  0  0
   23.6868   -4.3186  -14.8038 O   0  0  0  0  0  0  0  0  0  0  0  0
   21.8150   -5.7660  -14.8371 C   0  0  0  0  0  0  0  0  0  0  0  0
   20.4116   -5.7934  -14.2735 C   0  0  2  0  0  0  0  0  0  0  0  0
   19.6988   -6.9939  -14.6568 N   0  0  0  0  0  0  0  0  0  0  0  0
   19.6532   -4.5793  -14.7278 C   0  0  0  0  0  0  0  0  0  0  0  0
   18.6363   -4.6288  -15.6674 O   0  0  0  0  0  0  0  0  0  0  0  0
   19.9277   -3.4452  -14.2539 O   0  0  0  0  0  0  0  0  0  0  0  0
  2  5  1  0
  2  1  1  6
  3  2  1  0
  4  3  1  0
  5  6  2  0
  7  8  1  0
  7  5  1  0
  9 10  1  0
  8  9  1  1
 10 11  1  0
 11 12  1  0
 13 12  1  0
 14  8  1  0
 14 15  2  0
 16 17  1  0
 17 18  2  0
 17 19  1  0
 20 19  1  6
 20 21  1  0
 20 22  1  0
 21 14  1  0
 22 24  2  0
 22 23  1  0
M  END
$$$$
