CKN.pdb
     RDKit          3D

 24 23  0  0  1  0  0  0  0  0999 V2000
   24.9025  -20.4381  -15.0865 N   0  0  0  0  0  0  0  0  0  0  0  0
   24.6832  -21.3267  -13.9673 C   0  0  1  0  0  0  0  0  0  0  0  0
   25.8968  -21.3494  -13.0637 C   0  0  0  0  0  0  0  0  0  0  0  0
   25.5853  -22.7066  -11.8663 S   0  0  0  0  0  0  0  0  0  0  0  0
   23.4404  -20.9182  -13.2817 C   0  0  0  0  0  0  0  0  0  0  0  0
   23.4955  -19.9341  -12.4981 O   0  0  0  0  0  0  0  0  0  0  0  0
   22.1866  -21.5382  -13.4293 N   0  0  0  0  0  0  0  0  0  0  0  0
   20.9577  -21.1530  -12.8110 C   0  0  1  0  0  0  0  0  0  0  0  0
   20.0050  -20.5100  -13.8083 C   0  0  0  0  0  0  0  0  0  0  0  0
   20.3137  -19.0802  -14.0537 C   0  0  0  0  0  0  0  0  0  0  0  0
   19.3062  -18.3440  -14.8671 C   0  0  0  0  0  0  0  0  0  0  0  0
   19.6519  -16.9290  -15.2235 C   0  0  0  0  0  0  0  0  0  0  0  0
   18.6563  -16.2299  -15.9642 N   0  0  0  0  0  0  0  0  0  0  0  0
   20.2980  -22.2710  -12.0906 C   0  0  0  0  0  0  0  0  0  0  0  0
   20.3154  -23.4282  -12.6164 O   0  0  0  0  0  0  0  0  0  0  0  0
   18.1378  -25.4667   -8.7620 N   0  0  0  0  0  0  0  0  0  0  0  0
   18.5117  -24.3143   -8.0297 C   0  0  0  0  0  0  0  0  0  0  0  0
   18.3692  -24.3186   -6.7750 O   0  0  0  0  0  0  0  0  0  0  0  0
   19.0654  -23.0978   -8.6788 C   0  0  0  0  0  0  0  0  0  0  0  0
   19.0704  -23.2747  -10.1810 C   0  0  2  0  0  0  0  0  0  0  0  0
   19.6507  -22.1337  -10.8575 N   0  0  0  0  0  0  0  0  0  0  0  0
   17.6710  -23.5064  -10.6743 C   0  0  0  0  0  0  0  0  0  0  0  0
   17.1422  -24.7690  -10.8880 O   0  0  0  0  0  0  0  0  0  0  0  0
   16.9133  -22.5300  -10.9163 O   0  0  0  0  0  0  0  0  0  0  0  0
  2  5  1  0
  2  1  1  6
  3  2  1  0
  4  3  1  0
  5  6  2  0
  7  8  1  0
  7  5  1  0
  9 10  1  0
  8  9  1  6
 10 11  1  0
 11 12  1  0
 13 12  1  0
 14  8  1  0
 14 15  2  0
 16 17  1  0
 17 18  2  0
 17 19  1  0
 20 19  1  1
 20 21  1  0
 20 22  1  0
 21 14  1  0
 22 24  2  0
 22 23  1  0
M  END
$$$$
