CKN.pdb
     RDKit          3D

 24 23  0  0  1  0  0  0  0  0999 V2000
   26.8442  -11.4474  -18.0389 N   0  0  0  0  0  0  0  0  0  0  0  0
   26.1046  -11.4256  -16.7968 C   0  0  1  0  0  0  0  0  0  0  0  0
   26.9922  -10.9671  -15.6603 C   0  0  0  0  0  0  0  0  0  0  0  0
   28.1096  -12.3832  -15.3151 S   0  0  0  0  0  0  0  0  0  0  0  0
   24.9006  -10.5909  -16.9835 C   0  0  0  0  0  0  0  0  0  0  0  0
   25.0455   -9.4570  -17.5116 O   0  0  0  0  0  0  0  0  0  0  0  0
   23.5917  -10.9553  -16.6197 N   0  0  0  0  0  0  0  0  0  0  0  0
   22.4068  -10.1716  -16.7698 C   0  0  1  0  0  0  0  0  0  0  0  0
   21.1528  -11.0306  -16.6980 C   0  0  0  0  0  0  0  0  0  0  0  0
   19.9111  -10.2487  -16.9139 C   0  0  0  0  0  0  0  0  0  0  0  0
   18.6456  -11.0289  -16.8209 C   0  0  0  0  0  0  0  0  0  0  0  0
   17.3778  -10.2593  -17.0426 C   0  0  0  0  0  0  0  0  0  0  0  0
   16.1854  -11.0382  -17.0276 N   0  0  0  0  0  0  0  0  0  0  0  0
   22.3343   -9.0437  -15.8071 C   0  0  0  0  0  0  0  0  0  0  0  0
   23.1886   -8.9897  -14.8675 O   0  0  0  0  0  0  0  0  0  0  0  0
   21.8364   -4.3863  -13.7811 N   0  0  0  0  0  0  0  0  0  0  0  0
   22.9040   -4.8498  -14.5868 C   0  0  0  0  0  0  0  0  0  0  0  0
   23.9679   -4.1711  -14.6355 O   0  0  0  0  0  0  0  0  0  0  0  0
   22.8233   -6.1041  -15.3793 C   0  0  0  0  0  0  0  0  0  0  0  0
   21.5190   -6.8124  -15.0876 C   0  0  2  0  0  0  0  0  0  0  0  0
   21.3767   -8.0248  -15.8660 N   0  0  0  0  0  0  0  0  0  0  0  0
   20.3641   -5.8911  -15.3572 C   0  0  0  0  0  0  0  0  0  0  0  0
   19.6478   -5.2601  -14.3531 O   0  0  0  0  0  0  0  0  0  0  0  0
   20.0009   -5.6577  -16.5403 O   0  0  0  0  0  0  0  0  0  0  0  0
  2  5  1  0
  2  1  1  6
  3  2  1  0
  4  3  1  0
  5  6  2  0
  7  8  1  0
  7  5  1  0
  9 10  1  0
  8  9  1  1
 10 11  1  0
 11 12  1  0
 13 12  1  0
 14  8  1  0
 14 15  2  0
 16 17  1  0
 17 18  2  0
 17 19  1  0
 20 19  1  6
 20 21  1  0
 20 22  1  0
 21 14  1  0
 22 24  2  0
 22 23  1  0
M  END
$$$$
