CKN.pdb
     RDKit          3D

 24 23  0  0  1  0  0  0  0  0999 V2000
   22.0548  -16.8274  -20.8168 N   0  0  0  0  0  0  0  0  0  0  0  0
   22.4724  -15.4434  -20.8336 C   0  0  1  0  0  0  0  0  0  0  0  0
   21.8069  -14.7034  -21.9735 C   0  0  0  0  0  0  0  0  0  0  0  0
   22.5895  -15.3586  -23.5003 S   0  0  0  0  0  0  0  0  0  0  0  0
   22.2006  -14.8563  -19.5059 C   0  0  0  0  0  0  0  0  0  0  0  0
   20.9986  -14.6838  -19.1725 O   0  0  0  0  0  0  0  0  0  0  0  0
   23.1769  -14.4691  -18.5704 N   0  0  0  0  0  0  0  0  0  0  0  0
   22.9553  -13.8675  -17.2939 C   0  0  1  0  0  0  0  0  0  0  0  0
   24.1539  -14.0459  -16.3736 C   0  0  0  0  0  0  0  0  0  0  0  0
   24.4693  -15.4720  -16.1155 C   0  0  0  0  0  0  0  0  0  0  0  0
   25.7057  -15.7149  -15.3211 C   0  0  0  0  0  0  0  0  0  0  0  0
   26.0843  -17.1506  -15.1114 C   0  0  0  0  0  0  0  0  0  0  0  0
   27.2811  -17.3596  -14.3681 N   0  0  0  0  0  0  0  0  0  0  0  0
   22.5661  -12.4379  -17.3887 C   0  0  0  0  0  0  0  0  0  0  0  0
   23.2178  -11.6805  -18.1744 O   0  0  0  0  0  0  0  0  0  0  0  0
   20.9729   -7.8534  -18.9545 N   0  0  0  0  0  0  0  0  0  0  0  0
   20.1519   -8.9407  -18.5702 C   0  0  0  0  0  0  0  0  0  0  0  0
   18.9191   -8.7368  -18.3878 O   0  0  0  0  0  0  0  0  0  0  0  0
   20.6829  -10.3143  -18.3721 C   0  0  0  0  0  0  0  0  0  0  0  0
   21.0741  -10.5094  -16.9241 C   0  0  2  0  0  0  0  0  0  0  0  0
   21.5177  -11.8624  -16.6619 N   0  0  0  0  0  0  0  0  0  0  0  0
   19.9171  -10.1665  -16.0301 C   0  0  0  0  0  0  0  0  0  0  0  0
   19.5951   -8.8673  -15.6723 O   0  0  0  0  0  0  0  0  0  0  0  0
   19.1829  -11.0775  -15.5643 O   0  0  0  0  0  0  0  0  0  0  0  0
  2  5  1  0
  2  1  1  1
  3  2  1  0
  4  3  1  0
  5  6  2  0
  7  8  1  0
  7  5  1  0
  9 10  1  0
  8  9  1  1
 10 11  1  0
 11 12  1  0
 13 12  1  0
 14  8  1  0
 14 15  2  0
 16 17  1  0
 17 18  2  0
 17 19  1  0
 20 19  1  6
 20 21  1  0
 20 22  1  0
 21 14  1  0
 22 24  2  0
 22 23  1  0
M  END
$$$$
