CKN.pdb
     RDKit          3D

 24 23  0  0  1  0  0  0  0  0999 V2000
   21.3241   -7.9107  -11.0272 N   0  0  0  0  0  0  0  0  0  0  0  0
   20.4459   -6.9324  -10.4257 C   0  0  1  0  0  0  0  0  0  0  0  0
   21.2459   -5.7774   -9.8637 C   0  0  0  0  0  0  0  0  0  0  0  0
   21.4687   -6.1626   -8.0819 S   0  0  0  0  0  0  0  0  0  0  0  0
   19.4411   -6.5258  -11.4290 C   0  0  0  0  0  0  0  0  0  0  0  0
   19.8081   -6.4427  -12.6307 O   0  0  0  0  0  0  0  0  0  0  0  0
   18.0953   -6.2205  -11.1573 N   0  0  0  0  0  0  0  0  0  0  0  0
   17.0930   -5.8348  -12.0994 C   0  0  1  0  0  0  0  0  0  0  0  0
   15.7005   -6.2318  -11.6316 C   0  0  0  0  0  0  0  0  0  0  0  0
   14.6606   -5.9880  -12.6607 C   0  0  0  0  0  0  0  0  0  0  0  0
   14.6397   -6.9642  -13.7856 C   0  0  0  0  0  0  0  0  0  0  0  0
   13.5831   -6.7482  -14.8276 C   0  0  0  0  0  0  0  0  0  0  0  0
   13.6004   -7.6745  -15.9094 N   0  0  0  0  0  0  0  0  0  0  0  0
   17.1472   -4.3913  -12.4420 C   0  0  0  0  0  0  0  0  0  0  0  0
   17.1916   -3.5426  -11.4968 O   0  0  0  0  0  0  0  0  0  0  0  0
   20.5534   -2.7018  -15.5397 N   0  0  0  0  0  0  0  0  0  0  0  0
   19.5114   -2.1066  -14.7888 C   0  0  0  0  0  0  0  0  0  0  0  0
   19.8015   -1.5049  -13.7171 O   0  0  0  0  0  0  0  0  0  0  0  0
   18.0878   -2.1615  -15.2110 C   0  0  0  0  0  0  0  0  0  0  0  0
   17.2108   -2.4758  -14.0194 C   0  0  2  0  0  0  0  0  0  0  0  0
   17.1524   -3.8974  -13.7515 N   0  0  0  0  0  0  0  0  0  0  0  0
   15.8266   -1.9391  -14.2461 C   0  0  0  0  0  0  0  0  0  0  0  0
   15.3415   -0.8040  -13.6171 O   0  0  0  0  0  0  0  0  0  0  0  0
   15.0412   -2.5230  -15.0389 O   0  0  0  0  0  0  0  0  0  0  0  0
  2  5  1  0
  2  1  1  6
  3  2  1  0
  4  3  1  0
  5  6  2  0
  7  8  1  0
  7  5  1  0
  9 10  1  0
  8  9  1  1
 10 11  1  0
 11 12  1  0
 13 12  1  0
 14  8  1  0
 14 15  2  0
 16 17  1  0
 17 18  2  0
 17 19  1  0
 20 19  1  6
 20 21  1  0
 20 22  1  0
 21 14  1  0
 22 24  2  0
 22 23  1  0
M  END
$$$$
