CKN.pdb
     RDKit          3D

 24 23  0  0  1  0  0  0  0  0999 V2000
   16.8569  -11.4777  -14.8384 N   0  0  0  0  0  0  0  0  0  0  0  0
   17.5596  -10.8832  -13.7235 C   0  0  1  0  0  0  0  0  0  0  0  0
   18.8550  -10.2544  -14.1887 C   0  0  0  0  0  0  0  0  0  0  0  0
   20.0114  -11.6579  -14.4452 S   0  0  0  0  0  0  0  0  0  0  0  0
   16.6495   -9.9365  -13.0476 C   0  0  0  0  0  0  0  0  0  0  0  0
   16.1794   -8.9849  -13.7253 O   0  0  0  0  0  0  0  0  0  0  0  0
   16.2567  -10.0053  -11.6988 N   0  0  0  0  0  0  0  0  0  0  0  0
   15.3259   -9.1535  -11.0288 C   0  0  1  0  0  0  0  0  0  0  0  0
   14.2957   -9.9540  -10.2456 C   0  0  0  0  0  0  0  0  0  0  0  0
   13.2875   -9.0929   -9.5809 C   0  0  0  0  0  0  0  0  0  0  0  0
   12.2310   -9.8209   -8.8241 C   0  0  0  0  0  0  0  0  0  0  0  0
   11.1920   -8.9701   -8.1568 C   0  0  0  0  0  0  0  0  0  0  0  0
   10.1294   -9.6867   -7.5355 N   0  0  0  0  0  0  0  0  0  0  0  0
   15.9860   -8.1449  -10.1623 C   0  0  0  0  0  0  0  0  0  0  0  0
   16.9587   -8.5134   -9.4316 O   0  0  0  0  0  0  0  0  0  0  0  0
   17.5164   -3.8905   -7.7199 N   0  0  0  0  0  0  0  0  0  0  0  0
   18.0054   -4.1303   -9.0266 C   0  0  0  0  0  0  0  0  0  0  0  0
   18.9794   -3.4451   -9.4464 O   0  0  0  0  0  0  0  0  0  0  0  0
   17.4176   -5.1570   -9.9257 C   0  0  0  0  0  0  0  0  0  0  0  0
   16.2831   -5.8673   -9.2212 C   0  0  2  0  0  0  0  0  0  0  0  0
   15.6039   -6.8002  -10.0955 N   0  0  0  0  0  0  0  0  0  0  0  0
   15.3048   -4.8627   -8.6835 C   0  0  0  0  0  0  0  0  0  0  0  0
   15.4653   -4.2269   -7.4631 O   0  0  0  0  0  0  0  0  0  0  0  0
   14.2777   -4.5592   -9.3461 O   0  0  0  0  0  0  0  0  0  0  0  0
  2  5  1  0
  2  1  1  6
  3  2  1  0
  4  3  1  0
  5  6  2  0
  7  8  1  0
  7  5  1  0
  9 10  1  0
  8  9  1  1
 10 11  1  0
 11 12  1  0
 13 12  1  0
 14  8  1  0
 14 15  2  0
 16 17  1  0
 17 18  2  0
 17 19  1  0
 20 19  1  6
 20 21  1  0
 20 22  1  0
 21 14  1  0
 22 24  2  0
 22 23  1  0
M  END
$$$$
