CKN.pdb
     RDKit          3D

 24 23  0  0  1  0  0  0  0  0999 V2000
   17.9715   -9.3704  -13.6916 N   0  0  0  0  0  0  0  0  0  0  0  0
   18.3824   -8.6532  -12.5054 C   0  0  1  0  0  0  0  0  0  0  0  0
   19.4744   -7.6602  -12.8389 C   0  0  0  0  0  0  0  0  0  0  0  0
   20.9807   -8.6719  -13.1228 S   0  0  0  0  0  0  0  0  0  0  0  0
   17.1876   -8.0380  -11.8929 C   0  0  0  0  0  0  0  0  0  0  0  0
   16.4290   -7.3585  -12.6335 O   0  0  0  0  0  0  0  0  0  0  0  0
   16.8180   -8.1460  -10.5401 N   0  0  0  0  0  0  0  0  0  0  0  0
   15.7406   -7.4738   -9.8859 C   0  0  1  0  0  0  0  0  0  0  0  0
   14.9493   -8.4183   -8.9930 C   0  0  0  0  0  0  0  0  0  0  0  0
   13.8425   -9.0933   -9.7135 C   0  0  0  0  0  0  0  0  0  0  0  0
   13.1024  -10.1169   -8.9241 C   0  0  0  0  0  0  0  0  0  0  0  0
   11.9800  -10.8135   -9.6338 C   0  0  0  0  0  0  0  0  0  0  0  0
   11.2968  -11.7997   -8.8663 N   0  0  0  0  0  0  0  0  0  0  0  0
   16.1815   -6.2736   -9.1314 C   0  0  0  0  0  0  0  0  0  0  0  0
   17.3799   -6.2256   -8.7104 O   0  0  0  0  0  0  0  0  0  0  0  0
   16.9026   -1.5683   -7.3151 N   0  0  0  0  0  0  0  0  0  0  0  0
   17.4947   -2.1255   -8.4739 C   0  0  0  0  0  0  0  0  0  0  0  0
   18.4390   -1.5016   -9.0340 O   0  0  0  0  0  0  0  0  0  0  0  0
   17.0491   -3.4166   -9.0590 C   0  0  0  0  0  0  0  0  0  0  0  0
   15.8870   -3.9671   -8.2626 C   0  0  2  0  0  0  0  0  0  0  0  0
   15.3557   -5.1793   -8.8496 N   0  0  0  0  0  0  0  0  0  0  0  0
   14.8041   -2.9323   -8.1542 C   0  0  0  0  0  0  0  0  0  0  0  0
   14.6426   -2.1178   -7.0452 O   0  0  0  0  0  0  0  0  0  0  0  0
   13.9851   -2.7692   -9.0970 O   0  0  0  0  0  0  0  0  0  0  0  0
  2  5  1  0
  2  1  1  6
  3  2  1  0
  4  3  1  0
  5  6  2  0
  7  8  1  0
  7  5  1  0
  9 10  1  0
  8  9  1  1
 10 11  1  0
 11 12  1  0
 13 12  1  0
 14  8  1  0
 14 15  2  0
 16 17  1  0
 17 18  2  0
 17 19  1  0
 20 19  1  6
 20 21  1  0
 20 22  1  0
 21 14  1  0
 22 24  2  0
 22 23  1  0
M  END
$$$$
