RLA.pdb
     RDKit          3D

 25 24  0  0  1  0  0  0  0  0999 V2000
   26.1893  -19.5852   -8.6729 N   0  0  0  0  0  0  0  0  0  0  0  0
   25.5062  -20.8370   -8.7651 C   0  0  0  0  0  0  0  0  0  0  0  0
   24.6020  -21.0731   -7.8845 N   0  0  0  0  0  0  0  0  0  0  0  0
   25.7777  -21.7952   -9.7542 N   0  0  0  0  0  0  0  0  0  0  0  0
   26.4290  -21.4721  -11.0119 C   0  0  0  0  0  0  0  0  0  0  0  0
   25.3658  -21.5540  -12.0793 C   0  0  0  0  0  0  0  0  0  0  0  0
   25.2691  -20.2261  -12.7785 C   0  0  0  0  0  0  0  0  0  0  0  0
   24.1348  -20.2916  -13.7676 C   0  0  2  0  0  0  0  0  0  0  0  0
   24.3309  -21.5314  -14.5258 N   0  0  0  0  0  0  0  0  0  0  0  0
   24.3128  -19.1120  -14.6856 C   0  0  0  0  0  0  0  0  0  0  0  0
   24.1068  -17.9425  -14.2844 O   0  0  0  0  0  0  0  0  0  0  0  0
   24.0359  -21.9356   -7.8301 C   0  0  0  0  0  0  0  0  0  0  0  0
   26.9875  -16.0754  -15.8424 C   0  0  2  0  0  0  0  0  0  0  0  0
   27.2784  -17.5135  -16.1470 C   0  0  0  0  0  0  0  0  0  0  0  0
   28.7189  -17.5957  -16.6465 C   0  0  0  0  0  0  0  0  0  0  0  0
   26.4168  -18.0997  -17.2185 C   0  0  2  0  0  0  0  0  0  0  0  0
   24.9377  -18.1188  -16.8691 N   0  0  0  0  0  0  0  0  0  0  0  0
   24.7177  -19.2756  -16.0320 C   0  0  0  0  0  0  0  0  0  0  0  0
   24.1144  -18.2895  -18.1024 O   0  0  0  0  0  0  0  0  0  0  0  0
   24.1006  -19.3640  -18.7580 C   0  0  0  0  0  0  0  0  0  0  0  0
   21.7212  -16.1347  -20.0895 C   0  0  2  0  0  0  0  0  0  0  0  0
   22.5764  -17.3742  -19.8013 N   0  0  0  0  0  0  0  0  0  0  0  0
   23.3139  -17.2301  -18.5745 C   0  0  0  0  0  0  0  0  0  0  0  0
   23.5567  -17.5994  -20.8872 O   0  0  0  0  0  0  0  0  0  0  0  0
   23.2079  -18.4036  -21.9843 O   0  0  0  0  0  0  0  0  0  0  0  0
  1  2  1  0
  2  3  2  0
  4  5  1  0
  4  2  1  0
  6  7  1  0
  6  5  1  0
  7  8  1  0
  8  9  1  6
 10  8  1  0
 10 17  1  0
 11 10  2  0
 13 12  1  1
 13 14  1  0
 16 15  1  1
 15 13  1  0
 16 17  1  0
 18 16  1  0
 19 18  2  0
 21 20  1  1
 21 22  1  0
 21 23  1  0
 22 18  1  0
 23 24  1  0
 25 23  2  0
M  END
$$$$
