RLA.pdb
     RDKit          3D

 25 24  0  0  1  0  0  0  0  0999 V2000
   20.5888  -18.8328  -14.3509 N   0  0  0  0  0  0  0  0  0  0  0  0
   21.4464  -19.7096  -15.0842 C   0  0  0  0  0  0  0  0  0  0  0  0
   21.4402  -19.5949  -16.3631 N   0  0  0  0  0  0  0  0  0  0  0  0
   22.2737  -20.6679  -14.4781 N   0  0  0  0  0  0  0  0  0  0  0  0
   22.3270  -20.8723  -13.0408 C   0  0  0  0  0  0  0  0  0  0  0  0
   23.3882  -19.9384  -12.5135 C   0  0  0  0  0  0  0  0  0  0  0  0
   24.0107  -20.5457  -11.2866 C   0  0  0  0  0  0  0  0  0  0  0  0
   25.5084  -20.4484  -11.4161 C   0  0  2  0  0  0  0  0  0  0  0  0
   25.8898  -21.4257  -12.4407 N   0  0  0  0  0  0  0  0  0  0  0  0
   26.0709  -20.8741  -10.0865 C   0  0  0  0  0  0  0  0  0  0  0  0
   26.0780  -22.0795   -9.7425 O   0  0  0  0  0  0  0  0  0  0  0  0
   21.9661  -20.1980  -17.0167 C   0  0  0  0  0  0  0  0  0  0  0  0
   29.0931  -18.3296   -5.2993 C   0  0  1  0  0  0  0  0  0  0  0  0
   28.4401  -19.5178   -5.9375 C   0  0  0  0  0  0  0  0  0  0  0  0
   29.4720  -20.6424   -5.9796 C   0  0  0  0  0  0  0  0  0  0  0  0
   27.9939  -19.2896   -7.3456 C   0  0  2  0  0  0  0  0  0  0  0  0
   27.0545  -20.3636   -7.8691 N   0  0  0  0  0  0  0  0  0  0  0  0
   26.6115  -19.9350   -9.1758 C   0  0  0  0  0  0  0  0  0  0  0  0
   25.8492  -20.4709   -6.9953 O   0  0  0  0  0  0  0  0  0  0  0  0
   24.8963  -19.6510   -7.0609 C   0  0  0  0  0  0  0  0  0  0  0  0
   23.9023  -22.9661   -5.3243 C   0  0  2  0  0  0  0  0  0  0  0  0
   24.5911  -21.6021   -5.1989 N   0  0  0  0  0  0  0  0  0  0  0  0
   25.7442  -21.5150   -6.0547 C   0  0  0  0  0  0  0  0  0  0  0  0
   25.0479  -21.3707   -3.8101 O   0  0  0  0  0  0  0  0  0  0  0  0
   24.1299  -20.9421   -2.8377 O   0  0  0  0  0  0  0  0  0  0  0  0
  1  2  1  0
  2  3  2  0
  4  5  1  0
  4  2  1  0
  6  7  1  0
  6  5  1  0
  7  8  1  0
  8  9  1  6
 10  8  1  0
 10 17  1  0
 11 10  2  0
 13 12  1  1
 13 14  1  0
 16 15  1  6
 15 13  1  0
 16 17  1  0
 18 16  1  0
 19 18  2  0
 21 20  1  6
 21 22  1  0
 21 23  1  0
 22 18  1  0
 23 24  1  0
 25 23  2  0
M  END
$$$$
