RLA.pdb
     RDKit          3D

 25 24  0  0  1  0  0  0  0  0999 V2000
   27.9072  -16.1129  -17.7297 N   0  0  0  0  0  0  0  0  0  0  0  0
   27.3519  -17.4051  -17.9826 C   0  0  0  0  0  0  0  0  0  0  0  0
   26.5653  -17.5134  -18.9918 N   0  0  0  0  0  0  0  0  0  0  0  0
   27.6240  -18.5322  -17.1917 N   0  0  0  0  0  0  0  0  0  0  0  0
   28.4298  -18.4762  -15.9842 C   0  0  0  0  0  0  0  0  0  0  0  0
   27.5264  -17.9662  -14.8887 C   0  0  0  0  0  0  0  0  0  0  0  0
   26.5858  -19.0651  -14.4771 C   0  0  0  0  0  0  0  0  0  0  0  0
   27.3284  -20.0109  -13.5698 C   0  0  2  0  0  0  0  0  0  0  0  0
   27.9255  -21.0250  -14.4447 N   0  0  0  0  0  0  0  0  0  0  0  0
   26.2860  -20.6566  -12.6968 C   0  0  0  0  0  0  0  0  0  0  0  0
   25.7335  -21.7300  -13.0340 O   0  0  0  0  0  0  0  0  0  0  0  0
   26.1101  -18.3883  -19.2997 C   0  0  0  0  0  0  0  0  0  0  0  0
   26.6981  -21.8421   -8.3870 C   0  0  2  0  0  0  0  0  0  0  0  0
   26.3799  -20.4018   -8.6507 C   0  0  0  0  0  0  0  0  0  0  0  0
   26.3991  -19.6733   -7.3090 C   0  0  0  0  0  0  0  0  0  0  0  0
   25.0285  -20.1715   -9.2465 C   0  0  2  0  0  0  0  0  0  0  0  0
   24.8814  -20.7228  -10.6552 N   0  0  0  0  0  0  0  0  0  0  0  0
   25.8898  -20.0801  -11.4663 C   0  0  0  0  0  0  0  0  0  0  0  0
   23.5480  -20.3595  -11.2190 O   0  0  0  0  0  0  0  0  0  0  0  0
   23.1633  -19.1651  -11.3190 C   0  0  0  0  0  0  0  0  0  0  0  0
   21.1504  -21.7768  -13.5514 C   0  0  2  0  0  0  0  0  0  0  0  0
   21.4014  -21.0091  -12.2482 N   0  0  0  0  0  0  0  0  0  0  0  0
   22.6668  -21.3653  -11.6638 C   0  0  0  0  0  0  0  0  0  0  0  0
   20.3493  -21.3098  -11.2512 O   0  0  0  0  0  0  0  0  0  0  0  0
   19.0295  -20.8904  -11.4839 O   0  0  0  0  0  0  0  0  0  0  0  0
  1  2  1  0
  2  3  2  0
  4  5  1  0
  4  2  1  0
  6  7  1  0
  6  5  1  0
  7  8  1  0
  8  9  1  6
 10  8  1  0
 10 17  1  0
 11 10  2  0
 13 12  1  6
 13 14  1  0
 16 15  1  1
 15 13  1  0
 16 17  1  0
 18 16  1  0
 19 18  2  0
 21 20  1  6
 21 22  1  0
 21 23  1  0
 22 18  1  0
 23 24  1  0
 25 23  2  0
M  END
$$$$
