RLA.pdb
     RDKit          3D

 25 24  0  0  1  0  0  0  0  0999 V2000
   20.8049  -22.9737   -9.9383 N   0  0  0  0  0  0  0  0  0  0  0  0
   21.1066  -22.6042   -8.5913 C   0  0  0  0  0  0  0  0  0  0  0  0
   20.6084  -23.3361   -7.6613 N   0  0  0  0  0  0  0  0  0  0  0  0
   21.9046  -21.5004   -8.2522 N   0  0  0  0  0  0  0  0  0  0  0  0
   22.4205  -20.5644   -9.2363 C   0  0  0  0  0  0  0  0  0  0  0  0
   23.8335  -20.9970   -9.5406 C   0  0  0  0  0  0  0  0  0  0  0  0
   24.4279  -20.0556  -10.5517 C   0  0  0  0  0  0  0  0  0  0  0  0
   24.2407  -20.6512  -11.9227 C   0  0  2  0  0  0  0  0  0  0  0  0
   25.3264  -21.6222  -12.0932 N   0  0  0  0  0  0  0  0  0  0  0  0
   24.4256  -19.5198  -12.8981 C   0  0  0  0  0  0  0  0  0  0  0  0
   23.6216  -18.5589  -12.9350 O   0  0  0  0  0  0  0  0  0  0  0  0
   20.7676  -23.2018   -6.6493 C   0  0  0  0  0  0  0  0  0  0  0  0
   28.6628  -17.6591  -17.0571 C   0  0  1  0  0  0  0  0  0  0  0  0
   27.3394  -17.4821  -16.3770 C   0  0  0  0  0  0  0  0  0  0  0  0
   27.3421  -16.1056  -15.7164 C   0  0  0  0  0  0  0  0  0  0  0  0
   27.0673  -18.4781  -15.2962 C   0  0  2  0  0  0  0  0  0  0  0  0
   25.6602  -18.3921  -14.7281 N   0  0  0  0  0  0  0  0  0  0  0  0
   25.5094  -19.4960  -13.8082 C   0  0  0  0  0  0  0  0  0  0  0  0
   24.6500  -18.5658  -15.8130 O   0  0  0  0  0  0  0  0  0  0  0  0
   24.4531  -19.6738  -16.3770 C   0  0  0  0  0  0  0  0  0  0  0  0
   21.6438  -16.7369  -16.9645 C   0  0  2  0  0  0  0  0  0  0  0  0
   22.8394  -17.6610  -17.2245 N   0  0  0  0  0  0  0  0  0  0  0  0
   23.8737  -17.4710  -16.2428 C   0  0  0  0  0  0  0  0  0  0  0  0
   23.4314  -17.3915  -18.5541 O   0  0  0  0  0  0  0  0  0  0  0  0
   22.7772  -17.8429  -19.7118 O   0  0  0  0  0  0  0  0  0  0  0  0
  1  2  1  0
  2  3  2  0
  4  5  1  0
  4  2  1  0
  6  7  1  0
  6  5  1  0
  7  8  1  0
  8  9  1  6
 10  8  1  0
 10 17  1  0
 11 10  2  0
 13 12  1  6
 13 14  1  0
 16 15  1  1
 15 13  1  0
 16 17  1  0
 18 16  1  0
 19 18  2  0
 21 20  1  1
 21 22  1  0
 21 23  1  0
 22 18  1  0
 23 24  1  0
 25 23  2  0
M  END
$$$$
