RLA.pdb
     RDKit          3D

 25 24  0  0  1  0  0  0  0  0999 V2000
   29.5475  -23.7406  -18.4135 N   0  0  0  0  0  0  0  0  0  0  0  0
   30.0327  -22.6418  -19.1875 C   0  0  0  0  0  0  0  0  0  0  0  0
   30.9927  -22.8843  -20.0050 N   0  0  0  0  0  0  0  0  0  0  0  0
   29.5156  -21.3403  -19.0920 N   0  0  0  0  0  0  0  0  0  0  0  0
   28.3522  -21.0078  -18.2880 C   0  0  0  0  0  0  0  0  0  0  0  0
   28.5360  -21.7004  -16.9602 C   0  0  0  0  0  0  0  0  0  0  0  0
   27.1938  -21.8621  -16.3012 C   0  0  0  0  0  0  0  0  0  0  0  0
   27.1638  -20.9994  -15.0667 C   0  0  2  0  0  0  0  0  0  0  0  0
   28.4056  -21.2876  -14.3419 N   0  0  0  0  0  0  0  0  0  0  0  0
   25.9897  -21.4749  -14.2536 C   0  0  0  0  0  0  0  0  0  0  0  0
   25.4990  -22.6148  -14.4302 O   0  0  0  0  0  0  0  0  0  0  0  0
   31.3803  -22.2090  -20.6842 C   0  0  0  0  0  0  0  0  0  0  0  0
   25.6039  -22.2420   -9.9105 C   0  0  2  0  0  0  0  0  0  0  0  0
   25.5417  -20.8064  -10.3355 C   0  0  0  0  0  0  0  0  0  0  0  0
   25.4903  -19.9537   -9.0699 C   0  0  0  0  0  0  0  0  0  0  0  0
   24.3313  -20.4568  -11.1398 C   0  0  2  0  0  0  0  0  0  0  0  0
   24.2768  -21.1495  -12.4916 N   0  0  0  0  0  0  0  0  0  0  0  0
   25.3957  -20.6579  -13.2621 C   0  0  0  0  0  0  0  0  0  0  0  0
   23.0277  -20.7747  -13.2177 O   0  0  0  0  0  0  0  0  0  0  0  0
   22.7884  -19.5925  -13.5775 C   0  0  0  0  0  0  0  0  0  0  0  0
   20.3823  -22.4655  -15.1695 C   0  0  2  0  0  0  0  0  0  0  0  0
   20.8407  -21.3826  -14.1856 N   0  0  0  0  0  0  0  0  0  0  0  0
   22.0639  -21.7554  -13.5263 C   0  0  0  0  0  0  0  0  0  0  0  0
   19.8193  -21.1595  -13.1377 O   0  0  0  0  0  0  0  0  0  0  0  0
   18.5802  -20.5957  -13.4822 O   0  0  0  0  0  0  0  0  0  0  0  0
  1  2  1  0
  2  3  2  0
  4  5  1  0
  4  2  1  0
  6  7  1  0
  6  5  1  0
  7  8  1  0
  8  9  1  1
 10  8  1  0
 10 17  1  0
 11 10  2  0
 13 12  1  1
 13 14  1  0
 16 15  1  1
 15 13  1  0
 16 17  1  0
 18 16  1  0
 19 18  2  0
 21 20  1  6
 21 22  1  0
 21 23  1  0
 22 18  1  0
 23 24  1  0
 25 23  2  0
M  END
$$$$
