RLA.pdb
     RDKit          3D

 25 24  0  0  1  0  0  0  0  0999 V2000
   21.0649  -28.7016  -10.2360 N   0  0  0  0  0  0  0  0  0  0  0  0
   21.1188  -28.6959  -11.6639 C   0  0  0  0  0  0  0  0  0  0  0  0
   21.2917  -29.8280  -12.2446 N   0  0  0  0  0  0  0  0  0  0  0  0
   20.9943  -27.5316  -12.4379 N   0  0  0  0  0  0  0  0  0  0  0  0
   20.1925  -26.3911  -12.0291 C   0  0  0  0  0  0  0  0  0  0  0  0
   18.9891  -26.9484  -11.3096 C   0  0  0  0  0  0  0  0  0  0  0  0
   18.0351  -25.8259  -11.0069 C   0  0  0  0  0  0  0  0  0  0  0  0
   18.6962  -24.8920  -10.0271 C   0  0  2  0  0  0  0  0  0  0  0  0
   18.0237  -25.1118   -8.7426 N   0  0  0  0  0  0  0  0  0  0  0  0
   18.3997  -23.4987  -10.5133 C   0  0  0  0  0  0  0  0  0  0  0  0
   17.3655  -22.8918  -10.1482 O   0  0  0  0  0  0  0  0  0  0  0  0
   21.4313  -29.9604  -13.2598 C   0  0  0  0  0  0  0  0  0  0  0  0
   20.5016  -19.4292  -10.0524 C   0  0  2  0  0  0  0  0  0  0  0  0
   21.1052  -20.4789  -10.9351 C   0  0  0  0  0  0  0  0  0  0  0  0
   22.4459  -19.9451  -11.4340 C   0  0  0  0  0  0  0  0  0  0  0  0
   20.2925  -20.8025  -12.1471 C   0  0  2  0  0  0  0  0  0  0  0  0
   18.9678  -21.4770  -11.8305 N   0  0  0  0  0  0  0  0  0  0  0  0
   19.2726  -22.8214  -11.3982 C   0  0  0  0  0  0  0  0  0  0  0  0
   18.1281  -21.5765  -13.0605 O   0  0  0  0  0  0  0  0  0  0  0  0
   18.4559  -22.2933  -14.0419 C   0  0  0  0  0  0  0  0  0  0  0  0
   14.8578  -21.6400  -14.2343 C   0  0  2  0  0  0  0  0  0  0  0  0
   16.1717  -20.8642  -14.3850 N   0  0  0  0  0  0  0  0  0  0  0  0
   16.9209  -20.8559  -13.1568 C   0  0  0  0  0  0  0  0  0  0  0  0
   15.9095  -19.4557  -14.7570 O   0  0  0  0  0  0  0  0  0  0  0  0
   15.3253  -19.1610  -15.9995 O   0  0  0  0  0  0  0  0  0  0  0  0
  1  2  1  0
  2  3  2  0
  4  5  1  0
  4  2  1  0
  6  7  1  0
  6  5  1  0
  7  8  1  0
  8  9  1  1
 10  8  1  0
 10 17  1  0
 11 10  2  0
 13 12  1  1
 13 14  1  0
 16 15  1  1
 15 13  1  0
 16 17  1  0
 18 16  1  0
 19 18  2  0
 21 20  1  6
 21 22  1  0
 21 23  1  0
 22 18  1  0
 23 24  1  0
 25 23  2  0
M  END
$$$$
