RLA.pdb
     RDKit          3D

 25 24  0  0  1  0  0  0  0  0999 V2000
   31.8145  -25.0024  -15.9465 N   0  0  0  0  0  0  0  0  0  0  0  0
   31.0842  -25.5423  -17.0498 C   0  0  0  0  0  0  0  0  0  0  0  0
   31.4052  -26.7233  -17.4385 N   0  0  0  0  0  0  0  0  0  0  0  0
   30.0566  -24.8505  -17.7098 N   0  0  0  0  0  0  0  0  0  0  0  0
   29.6280  -23.5161  -17.3275 C   0  0  0  0  0  0  0  0  0  0  0  0
   28.9401  -23.6525  -15.9916 C   0  0  0  0  0  0  0  0  0  0  0  0
   27.4918  -23.9888  -16.2176 C   0  0  0  0  0  0  0  0  0  0  0  0
   26.7280  -22.7029  -16.3968 C   0  0  2  0  0  0  0  0  0  0  0  0
   27.7272  -21.6303  -16.3562 N   0  0  0  0  0  0  0  0  0  0  0  0
   25.8215  -22.5857  -15.2009 C   0  0  0  0  0  0  0  0  0  0  0  0
   24.9425  -23.4484  -14.9677 O   0  0  0  0  0  0  0  0  0  0  0  0
   31.0027  -27.2100  -18.2562 C   0  0  0  0  0  0  0  0  0  0  0  0
   25.7681  -19.9630   -9.6549 C   0  0  1  0  0  0  0  0  0  0  0  0
   25.0523  -20.7037  -10.7433 C   0  0  0  0  0  0  0  0  0  0  0  0
   24.7820  -22.1183  -10.2362 C   0  0  0  0  0  0  0  0  0  0  0  0
   25.8358  -20.8420  -12.0086 C   0  0  2  0  0  0  0  0  0  0  0  0
   25.0313  -21.4138  -13.1644 N   0  0  0  0  0  0  0  0  0  0  0  0
   25.9247  -21.5018  -14.2964 C   0  0  0  0  0  0  0  0  0  0  0  0
   23.9218  -20.4866  -13.5345 O   0  0  0  0  0  0  0  0  0  0  0  0
   23.0558  -20.1089  -12.7027 C   0  0  0  0  0  0  0  0  0  0  0  0
   23.0055  -18.3856  -16.5185 C   0  0  2  0  0  0  0  0  0  0  0  0
   22.7167  -19.1415  -15.2161 N   0  0  0  0  0  0  0  0  0  0  0  0
   23.8128  -19.9994  -14.8523 C   0  0  0  0  0  0  0  0  0  0  0  0
   21.5133  -19.9914  -15.3586 O   0  0  0  0  0  0  0  0  0  0  0  0
   21.6549  -21.3826  -15.4876 O   0  0  0  0  0  0  0  0  0  0  0  0
  1  2  1  0
  2  3  2  0
  4  5  1  0
  4  2  1  0
  6  7  1  0
  6  5  1  0
  7  8  1  0
  8  9  1  1
 10  8  1  0
 10 17  1  0
 11 10  2  0
 13 12  1  1
 13 14  1  0
 16 15  1  1
 15 13  1  0
 16 17  1  0
 18 16  1  0
 19 18  2  0
 21 20  1  1
 21 22  1  0
 21 23  1  0
 22 18  1  0
 23 24  1  0
 25 23  2  0
M  END
$$$$
