RLA.pdb
     RDKit          3D

 25 24  0  0  1  0  0  0  0  0999 V2000
   22.6389  -33.9746   -6.2737 N   0  0  0  0  0  0  0  0  0  0  0  0
   21.5726  -34.7485   -6.8270 C   0  0  0  0  0  0  0  0  0  0  0  0
   21.8685  -35.9195   -7.2629 N   0  0  0  0  0  0  0  0  0  0  0  0
   20.2482  -34.2914   -6.9119 N   0  0  0  0  0  0  0  0  0  0  0  0
   19.8312  -32.9816   -6.4414 C   0  0  0  0  0  0  0  0  0  0  0  0
   19.4679  -33.1441   -4.9861 C   0  0  0  0  0  0  0  0  0  0  0  0
   19.0399  -31.8116   -4.4356 C   0  0  0  0  0  0  0  0  0  0  0  0
   19.7638  -31.5803   -3.1349 C   0  0  2  0  0  0  0  0  0  0  0  0
   19.5067  -32.7672   -2.3128 N   0  0  0  0  0  0  0  0  0  0  0  0
   19.1095  -30.3825   -2.5003 C   0  0  0  0  0  0  0  0  0  0  0  0
   17.9372  -30.4422   -2.0607 O   0  0  0  0  0  0  0  0  0  0  0  0
   21.2047  -36.5726   -7.7105 C   0  0  0  0  0  0  0  0  0  0  0  0
   20.6795  -25.2206    0.3770 C   0  0  1  0  0  0  0  0  0  0  0  0
   19.6209  -26.0405   -0.2955 C   0  0  0  0  0  0  0  0  0  0  0  0
   18.5794  -26.4028    0.7606 C   0  0  0  0  0  0  0  0  0  0  0  0
   20.1160  -27.3278   -0.8716 C   0  0  2  0  0  0  0  0  0  0  0  0
   19.1180  -28.0059   -1.7959 N   0  0  0  0  0  0  0  0  0  0  0  0
   19.7885  -29.1469   -2.3752 C   0  0  0  0  0  0  0  0  0  0  0  0
   18.7373  -27.0902   -2.9114 O   0  0  0  0  0  0  0  0  0  0  0  0
   19.5936  -26.5473   -3.6574 C   0  0  0  0  0  0  0  0  0  0  0  0
   16.0161  -26.6132   -5.1972 C   0  0  2  0  0  0  0  0  0  0  0  0
   17.0170  -25.9368   -4.2529 N   0  0  0  0  0  0  0  0  0  0  0  0
   17.3808  -26.8039   -3.1641 C   0  0  0  0  0  0  0  0  0  0  0  0
   16.4380  -24.7062   -3.6687 O   0  0  0  0  0  0  0  0  0  0  0  0
   16.2032  -23.5903   -4.4883 O   0  0  0  0  0  0  0  0  0  0  0  0
  1  2  1  0
  2  3  2  0
  4  5  1  0
  4  2  1  0
  6  7  1  0
  6  5  1  0
  7  8  1  0
  8  9  1  1
 10  8  1  0
 10 17  1  0
 11 10  2  0
 13 12  1  6
 13 14  1  0
 16 15  1  1
 15 13  1  0
 16 17  1  0
 18 16  1  0
 19 18  2  0
 21 20  1  6
 21 22  1  0
 21 23  1  0
 22 18  1  0
 23 24  1  0
 25 23  2  0
M  END
$$$$
