RLA.pdb
     RDKit          3D

 25 24  0  0  1  0  0  0  0  0999 V2000
   26.2091  -29.5144  -15.7190 N   0  0  0  0  0  0  0  0  0  0  0  0
   26.5959  -29.0529  -17.0149 C   0  0  0  0  0  0  0  0  0  0  0  0
   25.6917  -29.0525  -17.9267 N   0  0  0  0  0  0  0  0  0  0  0  0
   27.8922  -28.6120  -17.3239 N   0  0  0  0  0  0  0  0  0  0  0  0
   28.9133  -28.3871  -16.3153 C   0  0  0  0  0  0  0  0  0  0  0  0
   28.6525  -27.0175  -15.7386 C   0  0  0  0  0  0  0  0  0  0  0  0
   29.0780  -25.9758  -16.7364 C   0  0  0  0  0  0  0  0  0  0  0  0
   30.1061  -25.0873  -16.0862 C   0  0  2  0  0  0  0  0  0  0  0  0
   29.3517  -24.0628  -15.3569 N   0  0  0  0  0  0  0  0  0  0  0  0
   30.8688  -24.4394  -17.2105 C   0  0  0  0  0  0  0  0  0  0  0  0
   30.4692  -23.3726  -17.7336 O   0  0  0  0  0  0  0  0  0  0  0  0
   25.8447  -28.7960  -18.9158 C   0  0  0  0  0  0  0  0  0  0  0  0
   35.1384  -22.3223  -18.4647 C   0  0  1  0  0  0  0  0  0  0  0  0
   35.0076  -23.6517  -17.7858 C   0  0  0  0  0  0  0  0  0  0  0  0
   36.4164  -24.2019  -17.5764 C   0  0  0  0  0  0  0  0  0  0  0  0
   34.2592  -24.6742  -18.5786 C   0  0  2  0  0  0  0  0  0  0  0  0
   32.7898  -24.3384  -18.7739 N   0  0  0  0  0  0  0  0  0  0  0  0
   32.0616  -25.0062  -17.7198 C   0  0  0  0  0  0  0  0  0  0  0  0
   32.3011  -24.8811  -20.0756 O   0  0  0  0  0  0  0  0  0  0  0  0
   32.1616  -26.1155  -20.2793 C   0  0  0  0  0  0  0  0  0  0  0  0
   30.0756  -23.9196  -22.6858 C   0  0  2  0  0  0  0  0  0  0  0  0
   31.4446  -24.5299  -22.3630 N   0  0  0  0  0  0  0  0  0  0  0  0
   31.9759  -24.0075  -21.1324 C   0  0  0  0  0  0  0  0  0  0  0  0
   32.4200  -24.2267  -23.4343 O   0  0  0  0  0  0  0  0  0  0  0  0
   32.2938  -24.8486  -24.6871 O   0  0  0  0  0  0  0  0  0  0  0  0
  1  2  1  0
  2  3  2  0
  4  5  1  0
  4  2  1  0
  6  7  1  0
  6  5  1  0
  7  8  1  0
  8  9  1  6
 10  8  1  0
 10 17  1  0
 11 10  2  0
 13 12  1  1
 13 14  1  0
 16 15  1  1
 15 13  1  0
 16 17  1  0
 18 16  1  0
 19 18  2  0
 21 20  1  1
 21 22  1  0
 21 23  1  0
 22 18  1  0
 23 24  1  0
 25 23  2  0
M  END
$$$$
