RLA.pdb
     RDKit          3D

 25 24  0  0  1  0  0  0  0  0999 V2000
   33.5176  -25.3933  -15.5799 N   0  0  0  0  0  0  0  0  0  0  0  0
   33.1313  -24.4886  -16.6164 C   0  0  0  0  0  0  0  0  0  0  0  0
   33.9210  -24.3857  -17.6236 N   0  0  0  0  0  0  0  0  0  0  0  0
   31.9533  -23.7263  -16.5783 N   0  0  0  0  0  0  0  0  0  0  0  0
   30.8933  -23.9549  -15.6115 C   0  0  0  0  0  0  0  0  0  0  0  0
   29.5934  -23.8778  -16.3736 C   0  0  0  0  0  0  0  0  0  0  0  0
   28.9835  -22.5187  -16.1673 C   0  0  0  0  0  0  0  0  0  0  0  0
   27.7510  -22.4157  -17.0272 C   0  0  2  0  0  0  0  0  0  0  0  0
   28.2244  -22.0770  -18.3732 N   0  0  0  0  0  0  0  0  0  0  0  0
   26.9520  -21.2656  -16.4754 C   0  0  0  0  0  0  0  0  0  0  0  0
   26.2193  -21.4103  -15.4686 O   0  0  0  0  0  0  0  0  0  0  0  0
   33.7756  -23.7583  -18.4316 C   0  0  0  0  0  0  0  0  0  0  0  0
   27.2639  -15.2231  -15.9983 C   0  0  1  0  0  0  0  0  0  0  0  0
   26.4073  -16.4522  -15.9727 C   0  0  0  0  0  0  0  0  0  0  0  0
   25.9447  -16.6608  -14.5327 C   0  0  0  0  0  0  0  0  0  0  0  0
   27.1164  -17.7025  -16.3827 C   0  0  2  0  0  0  0  0  0  0  0  0
   26.1979  -18.9048  -16.5276 N   0  0  0  0  0  0  0  0  0  0  0  0
   26.9955  -19.9812  -17.0685 C   0  0  0  0  0  0  0  0  0  0  0  0
   25.1093  -18.6124  -17.5060 O   0  0  0  0  0  0  0  0  0  0  0  0
   25.3472  -18.2630  -18.6917 C   0  0  0  0  0  0  0  0  0  0  0  0
   21.6878  -19.4933  -18.1922 C   0  0  2  0  0  0  0  0  0  0  0  0
   22.7131  -18.3635  -18.0406 N   0  0  0  0  0  0  0  0  0  0  0  0
   23.7585  -18.7226  -17.1198 C   0  0  0  0  0  0  0  0  0  0  0  0
   22.0678  -17.1349  -17.5257 O   0  0  0  0  0  0  0  0  0  0  0  0
   21.2572  -16.3656  -18.3760 O   0  0  0  0  0  0  0  0  0  0  0  0
  1  2  1  0
  2  3  2  0
  4  5  1  0
  4  2  1  0
  6  7  1  0
  6  5  1  0
  7  8  1  0
  8  9  1  6
 10  8  1  0
 10 17  1  0
 11 10  2  0
 13 12  1  6
 13 14  1  0
 16 15  1  1
 15 13  1  0
 16 17  1  0
 18 16  1  0
 19 18  2  0
 21 20  1  6
 21 22  1  0
 21 23  1  0
 22 18  1  0
 23 24  1  0
 25 23  2  0
M  END
$$$$
