RLA.pdb
     RDKit          3D

 25 24  0  0  1  0  0  0  0  0999 V2000
   23.8989  -11.8127  -24.2712 N   0  0  0  0  0  0  0  0  0  0  0  0
   23.7404  -12.3361  -22.9510 C   0  0  0  0  0  0  0  0  0  0  0  0
   24.8002  -12.4351  -22.2328 N   0  0  0  0  0  0  0  0  0  0  0  0
   22.5039  -12.7371  -22.4212 N   0  0  0  0  0  0  0  0  0  0  0  0
   21.2554  -12.6296  -23.1563 C   0  0  0  0  0  0  0  0  0  0  0  0
   20.2092  -13.3368  -22.3307 C   0  0  0  0  0  0  0  0  0  0  0  0
   19.6493  -12.3748  -21.3194 C   0  0  0  0  0  0  0  0  0  0  0  0
   18.5886  -13.0878  -20.5221 C   0  0  2  0  0  0  0  0  0  0  0  0
   17.4724  -13.3143  -21.4459 N   0  0  0  0  0  0  0  0  0  0  0  0
   18.1587  -12.1270  -19.4462 C   0  0  0  0  0  0  0  0  0  0  0  0
   17.1713  -11.3721  -19.6091 O   0  0  0  0  0  0  0  0  0  0  0  0
   24.8433  -12.8599  -21.2919 C   0  0  0  0  0  0  0  0  0  0  0  0
   15.8924  -12.4416  -15.6969 C   0  0  1  0  0  0  0  0  0  0  0  0
   17.2683  -13.0244  -15.8092 C   0  0  0  0  0  0  0  0  0  0  0  0
   17.5209  -13.8530  -14.5518 C   0  0  0  0  0  0  0  0  0  0  0  0
   18.3611  -12.0073  -15.8816 C   0  0  2  0  0  0  0  0  0  0  0  0
   18.3459  -11.1861  -17.1604 N   0  0  0  0  0  0  0  0  0  0  0  0
   18.8488  -12.0377  -18.2136 C   0  0  0  0  0  0  0  0  0  0  0  0
   19.2703  -10.0204  -17.0407 O   0  0  0  0  0  0  0  0  0  0  0  0
   20.5178  -10.1588  -16.9454 C   0  0  0  0  0  0  0  0  0  0  0  0
   19.0013   -6.3398  -17.6404 C   0  0  2  0  0  0  0  0  0  0  0  0
   19.6586   -7.5835  -17.0305 N   0  0  0  0  0  0  0  0  0  0  0  0
   18.7599   -8.7069  -17.0316 C   0  0  0  0  0  0  0  0  0  0  0  0
   20.0563   -7.3319  -15.6271 O   0  0  0  0  0  0  0  0  0  0  0  0
   19.4858   -8.0937  -14.5946 O   0  0  0  0  0  0  0  0  0  0  0  0
  1  2  1  0
  2  3  2  0
  4  5  1  0
  4  2  1  0
  6  7  1  0
  6  5  1  0
  7  8  1  0
  8  9  1  6
 10  8  1  0
 10 17  1  0
 11 10  2  0
 13 12  1  6
 13 14  1  0
 16 15  1  6
 15 13  1  0
 16 17  1  0
 18 16  1  0
 19 18  2  0
 21 20  1  6
 21 22  1  0
 21 23  1  0
 22 18  1  0
 23 24  1  0
 25 23  2  0
M  END
$$$$
