RLA.pdb
     RDKit          3D

 25 24  0  0  1  0  0  0  0  0999 V2000
   24.5052  -20.4205  -18.8265 N   0  0  0  0  0  0  0  0  0  0  0  0
   23.9379  -19.4710  -17.9218 C   0  0  0  0  0  0  0  0  0  0  0  0
   22.6988  -19.6221  -17.6207 N   0  0  0  0  0  0  0  0  0  0  0  0
   24.6620  -18.4059  -17.3639 N   0  0  0  0  0  0  0  0  0  0  0  0
   26.0966  -18.2500  -17.5318 C   0  0  0  0  0  0  0  0  0  0  0  0
   26.7321  -19.5006  -16.9761 C   0  0  0  0  0  0  0  0  0  0  0  0
   27.7439  -19.1146  -15.9326 C   0  0  0  0  0  0  0  0  0  0  0  0
   28.2743  -20.3732  -15.2969 C   0  0  2  0  0  0  0  0  0  0  0  0
   28.4331  -21.3408  -16.3873 N   0  0  0  0  0  0  0  0  0  0  0  0
   27.1994  -20.8515  -14.3581 C   0  0  0  0  0  0  0  0  0  0  0  0
   26.4230  -21.7807  -14.6823 O   0  0  0  0  0  0  0  0  0  0  0  0
   22.1651  -19.0153  -16.9768 C   0  0  0  0  0  0  0  0  0  0  0  0
   25.5674  -19.9139   -8.4286 C   0  0  2  0  0  0  0  0  0  0  0  0
   25.3307  -20.5665   -9.7565 C   0  0  0  0  0  0  0  0  0  0  0  0
   25.3707  -22.0775   -9.5401 C   0  0  0  0  0  0  0  0  0  0  0  0
   26.3657  -20.2515  -10.7878 C   0  0  2  0  0  0  0  0  0  0  0  0
   26.0542  -20.8268  -12.1597 N   0  0  0  0  0  0  0  0  0  0  0  0
   27.0230  -20.2739  -13.0779 C   0  0  0  0  0  0  0  0  0  0  0  0
   24.7008  -20.3891  -12.6119 O   0  0  0  0  0  0  0  0  0  0  0  0
   24.4233  -19.1809  -12.8306 C   0  0  0  0  0  0  0  0  0  0  0  0
   21.9318  -21.8510  -14.4603 C   0  0  2  0  0  0  0  0  0  0  0  0
   22.4024  -20.9234  -13.3338 N   0  0  0  0  0  0  0  0  0  0  0  0
   23.6770  -21.3369  -12.8105 C   0  0  0  0  0  0  0  0  0  0  0  0
   21.4367  -20.9286  -12.2120 O   0  0  0  0  0  0  0  0  0  0  0  0
   20.1329  -20.4476  -12.4136 O   0  0  0  0  0  0  0  0  0  0  0  0
  1  2  1  0
  2  3  2  0
  4  5  1  0
  4  2  1  0
  6  7  1  0
  6  5  1  0
  7  8  1  0
  8  9  1  6
 10  8  1  0
 10 17  1  0
 11 10  2  0
 13 12  1  1
 13 14  1  0
 16 15  1  1
 15 13  1  0
 16 17  1  0
 18 16  1  0
 19 18  2  0
 21 20  1  6
 21 22  1  0
 21 23  1  0
 22 18  1  0
 23 24  1  0
 25 23  2  0
M  END
$$$$
