RLA.pdb
     RDKit          3D

 25 24  0  0  1  0  0  0  0  0999 V2000
   17.8798  -26.3413  -12.6424 N   0  0  0  0  0  0  0  0  0  0  0  0
   18.7317  -25.8445  -11.6082 C   0  0  0  0  0  0  0  0  0  0  0  0
   19.3607  -26.7146  -10.9039 N   0  0  0  0  0  0  0  0  0  0  0  0
   18.9035  -24.4780  -11.3375 N   0  0  0  0  0  0  0  0  0  0  0  0
   18.2512  -23.4308  -12.1047 C   0  0  0  0  0  0  0  0  0  0  0  0
   19.1177  -23.1819  -13.3144 C   0  0  0  0  0  0  0  0  0  0  0  0
   20.3068  -22.3572  -12.9050 C   0  0  0  0  0  0  0  0  0  0  0  0
   21.1614  -22.1188  -14.1224 C   0  0  2  0  0  0  0  0  0  0  0  0
   21.8358  -23.3914  -14.3982 N   0  0  0  0  0  0  0  0  0  0  0  0
   22.1834  -21.0896  -13.7199 C   0  0  0  0  0  0  0  0  0  0  0  0
   21.8419  -19.9224  -13.4159 O   0  0  0  0  0  0  0  0  0  0  0  0
   20.0299  -26.4960  -10.1476 C   0  0  0  0  0  0  0  0  0  0  0  0
   24.5998  -19.9468  -10.2872 C   0  0  2  0  0  0  0  0  0  0  0  0
   24.9756  -21.2038  -11.0110 C   0  0  0  0  0  0  0  0  0  0  0  0
   26.0742  -21.8895  -10.2023 C   0  0  0  0  0  0  0  0  0  0  0  0
   25.5259  -20.9804  -12.3826 C   0  0  2  0  0  0  0  0  0  0  0  0
   24.5254  -20.3672  -13.3486 N   0  0  0  0  0  0  0  0  0  0  0  0
   23.5641  -21.3970  -13.6691 C   0  0  0  0  0  0  0  0  0  0  0  0
   25.2038  -19.9706  -14.6175 O   0  0  0  0  0  0  0  0  0  0  0  0
   26.1710  -19.1653  -14.6393 C   0  0  0  0  0  0  0  0  0  0  0  0
   26.1243  -21.1128  -17.8051 C   0  0  2  0  0  0  0  0  0  0  0  0
   25.3358  -20.0150  -17.0812 N   0  0  0  0  0  0  0  0  0  0  0  0
   24.7705  -20.4989  -15.8500 C   0  0  0  0  0  0  0  0  0  0  0  0
   24.2200  -19.5284  -17.9234 O   0  0  0  0  0  0  0  0  0  0  0  0
   24.4934  -18.9368  -19.1673 O   0  0  0  0  0  0  0  0  0  0  0  0
  1  2  1  0
  2  3  2  0
  4  5  1  0
  4  2  1  0
  6  7  1  0
  6  5  1  0
  7  8  1  0
  8  9  1  1
 10  8  1  0
 10 17  1  0
 11 10  2  0
 13 12  1  1
 13 14  1  0
 16 15  1  1
 15 13  1  0
 16 17  1  0
 18 16  1  0
 19 18  2  0
 21 20  1  1
 21 22  1  0
 21 23  1  0
 22 18  1  0
 23 24  1  0
 25 23  2  0
M  END
$$$$
