RLA.pdb
     RDKit          3D

 25 24  0  0  1  0  0  0  0  0999 V2000
   20.2661  -14.7971  -22.5182 N   0  0  0  0  0  0  0  0  0  0  0  0
   18.8770  -14.8208  -22.1835 C   0  0  0  0  0  0  0  0  0  0  0  0
   18.1086  -15.5216  -22.9366 N   0  0  0  0  0  0  0  0  0  0  0  0
   18.3323  -14.1255  -21.0926 N   0  0  0  0  0  0  0  0  0  0  0  0
   19.1434  -13.3907  -20.1373 C   0  0  0  0  0  0  0  0  0  0  0  0
   20.2620  -14.3149  -19.7236 C   0  0  0  0  0  0  0  0  0  0  0  0
   21.0903  -13.6396  -18.6654 C   0  0  0  0  0  0  0  0  0  0  0  0
   21.8993  -12.5499  -19.3191 C   0  0  2  0  0  0  0  0  0  0  0  0
   22.9724  -13.2282  -20.0532 N   0  0  0  0  0  0  0  0  0  0  0  0
   22.4954  -11.7425  -18.1973 C   0  0  0  0  0  0  0  0  0  0  0  0
   21.7662  -11.1472  -17.3696 O   0  0  0  0  0  0  0  0  0  0  0  0
   17.0948  -15.6569  -22.7901 C   0  0  0  0  0  0  0  0  0  0  0  0
   28.1119  -10.4148  -15.8632 C   0  0  1  0  0  0  0  0  0  0  0  0
   26.6370  -10.1623  -15.9420 C   0  0  0  0  0  0  0  0  0  0  0  0
   26.0492  -10.4336  -14.5591 C   0  0  0  0  0  0  0  0  0  0  0  0
   25.9128  -11.0522  -16.9000 C   0  0  2  0  0  0  0  0  0  0  0  0
   24.4369  -10.7195  -17.0445 N   0  0  0  0  0  0  0  0  0  0  0  0
   23.8962  -11.6237  -18.0332 C   0  0  0  0  0  0  0  0  0  0  0  0
   24.2654   -9.3295  -17.5606 O   0  0  0  0  0  0  0  0  0  0  0  0
   24.7047   -8.9708  -18.6844 C   0  0  0  0  0  0  0  0  0  0  0  0
   22.5116   -7.0894  -18.5881 C   0  0  2  0  0  0  0  0  0  0  0  0
   23.3677   -7.0439  -17.3169 N   0  0  0  0  0  0  0  0  0  0  0  0
   23.5926   -8.3624  -16.7873 C   0  0  0  0  0  0  0  0  0  0  0  0
   22.6999   -6.2477  -16.2628 O   0  0  0  0  0  0  0  0  0  0  0  0
   22.6408   -4.8495  -16.3789 O   0  0  0  0  0  0  0  0  0  0  0  0
  1  2  1  0
  2  3  2  0
  4  5  1  0
  4  2  1  0
  6  7  1  0
  6  5  1  0
  7  8  1  0
  8  9  1  1
 10  8  1  0
 10 17  1  0
 11 10  2  0
 13 12  1  1
 13 14  1  0
 16 15  1  1
 15 13  1  0
 16 17  1  0
 18 16  1  0
 19 18  2  0
 21 20  1  6
 21 22  1  0
 21 23  1  0
 22 18  1  0
 23 24  1  0
 25 23  2  0
M  END
$$$$
