RLA.pdb
     RDKit          3D

 25 24  0  0  1  0  0  0  0  0999 V2000
   15.9912  -15.5930  -19.1507 N   0  0  0  0  0  0  0  0  0  0  0  0
   16.6641  -14.8234  -20.1491 C   0  0  0  0  0  0  0  0  0  0  0  0
   16.5600  -15.2269  -21.3637 N   0  0  0  0  0  0  0  0  0  0  0  0
   17.4162  -13.6734  -19.8627 N   0  0  0  0  0  0  0  0  0  0  0  0
   17.8911  -13.3501  -18.5283 C   0  0  0  0  0  0  0  0  0  0  0  0
   17.2230  -12.0550  -18.1372 C   0  0  0  0  0  0  0  0  0  0  0  0
   17.7372  -11.6248  -16.7910 C   0  0  0  0  0  0  0  0  0  0  0  0
   19.2275  -11.8421  -16.7601 C   0  0  2  0  0  0  0  0  0  0  0  0
   19.4344  -13.1288  -16.0877 N   0  0  0  0  0  0  0  0  0  0  0  0
   19.7928  -10.7374  -15.9082 C   0  0  0  0  0  0  0  0  0  0  0  0
   19.4162  -10.5760  -14.7236 O   0  0  0  0  0  0  0  0  0  0  0  0
   16.9749  -14.7559  -22.1843 C   0  0  0  0  0  0  0  0  0  0  0  0
   23.3211  -10.1582  -13.7179 C   0  0  2  0  0  0  0  0  0  0  0  0
   23.5131   -9.9923  -15.1947 C   0  0  0  0  0  0  0  0  0  0  0  0
   25.0060   -9.7926  -15.4450 C   0  0  0  0  0  0  0  0  0  0  0  0
   22.8164   -8.8036  -15.7740 C   0  0  2  0  0  0  0  0  0  0  0  0
   21.3125   -8.8113  -15.5541 N   0  0  0  0  0  0  0  0  0  0  0  0
   20.7673   -9.8410  -16.4084 C   0  0  0  0  0  0  0  0  0  0  0  0
   20.7184   -7.5095  -15.9786 O   0  0  0  0  0  0  0  0  0  0  0  0
   20.8366   -7.0672  -17.1512 C   0  0  0  0  0  0  0  0  0  0  0  0
   18.1542   -5.1204  -14.7922 C   0  0  2  0  0  0  0  0  0  0  0  0
   19.5087   -5.4267  -15.4422 N   0  0  0  0  0  0  0  0  0  0  0  0
   19.9940   -6.7254  -15.0585 C   0  0  0  0  0  0  0  0  0  0  0  0
   20.5246   -4.4316  -15.0315 O   0  0  0  0  0  0  0  0  0  0  0  0
   20.3829   -3.0902  -15.4220 O   0  0  0  0  0  0  0  0  0  0  0  0
  1  2  1  0
  2  3  2  0
  4  5  1  0
  4  2  1  0
  6  7  1  0
  6  5  1  0
  7  8  1  0
  8  9  1  1
 10  8  1  0
 10 17  1  0
 11 10  2  0
 13 12  1  6
 13 14  1  0
 16 15  1  1
 15 13  1  0
 16 17  1  0
 18 16  1  0
 19 18  2  0
 21 20  1  6
 21 22  1  0
 21 23  1  0
 22 18  1  0
 23 24  1  0
 25 23  2  0
M  END
$$$$
