RLA.pdb
     RDKit          3D

 25 24  0  0  1  0  0  0  0  0999 V2000
   26.7136  -24.1291  -16.3236 N   0  0  0  0  0  0  0  0  0  0  0  0
   25.9152  -25.3035  -16.1642 C   0  0  0  0  0  0  0  0  0  0  0  0
   26.5279  -26.4317  -16.1888 N   0  0  0  0  0  0  0  0  0  0  0  0
   24.5231  -25.2743  -15.9873 N   0  0  0  0  0  0  0  0  0  0  0  0
   23.7736  -24.0428  -15.8075 C   0  0  0  0  0  0  0  0  0  0  0  0
   24.5678  -23.1936  -14.8460 C   0  0  0  0  0  0  0  0  0  0  0  0
   23.8284  -21.9070  -14.6016 C   0  0  0  0  0  0  0  0  0  0  0  0
   24.7661  -20.9414  -13.9252 C   0  0  2  0  0  0  0  0  0  0  0  0
   24.5364  -21.0965  -12.4852 N   0  0  0  0  0  0  0  0  0  0  0  0
   24.3302  -19.5662  -14.3546 C   0  0  0  0  0  0  0  0  0  0  0  0
   23.4812  -18.9209  -13.6958 O   0  0  0  0  0  0  0  0  0  0  0  0
   26.0743  -27.3565  -16.1074 C   0  0  0  0  0  0  0  0  0  0  0  0
   26.3683  -15.4525  -15.0340 C   0  0  2  0  0  0  0  0  0  0  0  0
   26.6349  -16.5937  -15.9677 C   0  0  0  0  0  0  0  0  0  0  0  0
   27.7019  -16.1369  -16.9597 C   0  0  0  0  0  0  0  0  0  0  0  0
   25.4494  -17.0159  -16.7743 C   0  0  2  0  0  0  0  0  0  0  0  0
   24.3522  -17.6688  -15.9497 N   0  0  0  0  0  0  0  0  0  0  0  0
   24.8588  -18.9498  -15.5140 C   0  0  0  0  0  0  0  0  0  0  0  0
   23.1479  -17.9219  -16.7944 O   0  0  0  0  0  0  0  0  0  0  0  0
   23.0208  -18.9643  -17.4885 C   0  0  0  0  0  0  0  0  0  0  0  0
   21.4329  -17.6531  -19.1035 C   0  0  1  0  0  0  0  0  0  0  0  0
   20.9786  -17.1893  -17.7145 N   0  0  0  0  0  0  0  0  0  0  0  0
   22.0997  -16.9810  -16.8373 C   0  0  0  0  0  0  0  0  0  0  0  0
   20.1012  -18.2013  -17.0845 O   0  0  0  0  0  0  0  0  0  0  0  0
   18.9028  -18.5730  -17.7150 O   0  0  0  0  0  0  0  0  0  0  0  0
  1  2  1  0
  2  3  2  0
  4  5  1  0
  4  2  1  0
  6  7  1  0
  6  5  1  0
  7  8  1  0
  8  9  1  1
 10  8  1  0
 10 17  1  0
 11 10  2  0
 13 12  1  1
 13 14  1  0
 16 15  1  1
 15 13  1  0
 16 17  1  0
 18 16  1  0
 19 18  2  0
 21 20  1  6
 21 22  1  0
 21 23  1  0
 22 18  1  0
 23 24  1  0
 25 23  2  0
M  END
$$$$
