RLA.pdb
     RDKit          3D

 25 24  0  0  1  0  0  0  0  0999 V2000
   30.2801  -24.7708  -16.7146 N   0  0  0  0  0  0  0  0  0  0  0  0
   30.5919  -23.8019  -17.7176 C   0  0  0  0  0  0  0  0  0  0  0  0
   31.4315  -24.1518  -18.6239 N   0  0  0  0  0  0  0  0  0  0  0  0
   30.0322  -22.5151  -17.7506 N   0  0  0  0  0  0  0  0  0  0  0  0
   28.9636  -22.0936  -16.8612 C   0  0  0  0  0  0  0  0  0  0  0  0
   27.6702  -22.5113  -17.5164 C   0  0  0  0  0  0  0  0  0  0  0  0
   26.5306  -22.2285  -16.5767 C   0  0  0  0  0  0  0  0  0  0  0  0
   26.5450  -23.2678  -15.4863 C   0  0  2  0  0  0  0  0  0  0  0  0
   26.0737  -24.5105  -16.1062 N   0  0  0  0  0  0  0  0  0  0  0  0
   25.5428  -22.8107  -14.4606 C   0  0  0  0  0  0  0  0  0  0  0  0
   24.3247  -23.0816  -14.5799 O   0  0  0  0  0  0  0  0  0  0  0  0
   31.7525  -23.5510  -19.4009 C   0  0  0  0  0  0  0  0  0  0  0  0
   25.5336  -19.5854   -9.1301 C   0  0  1  0  0  0  0  0  0  0  0  0
   24.8062  -20.3454  -10.1972 C   0  0  0  0  0  0  0  0  0  0  0  0
   24.0454  -21.4806   -9.5162 C   0  0  0  0  0  0  0  0  0  0  0  0
   25.6983  -20.9760  -11.2173 C   0  0  2  0  0  0  0  0  0  0  0  0
   24.9456  -21.6355  -12.3613 N   0  0  0  0  0  0  0  0  0  0  0  0
   25.9337  -22.0600  -13.3261 C   0  0  0  0  0  0  0  0  0  0  0  0
   24.0519  -20.6471  -13.0337 O   0  0  0  0  0  0  0  0  0  0  0  0
   24.5012  -19.6517  -13.6597 C   0  0  0  0  0  0  0  0  0  0  0  0
   21.8348  -20.0237  -15.1644 C   0  0  2  0  0  0  0  0  0  0  0  0
   21.7948  -19.8557  -13.6409 N   0  0  0  0  0  0  0  0  0  0  0  0
   22.6525  -20.8062  -12.9847 C   0  0  0  0  0  0  0  0  0  0  0  0
   20.4227  -20.0633  -13.1259 O   0  0  0  0  0  0  0  0  0  0  0  0
   19.3885  -19.2059  -13.5349 O   0  0  0  0  0  0  0  0  0  0  0  0
  1  2  1  0
  2  3  2  0
  4  5  1  0
  4  2  1  0
  6  7  1  0
  6  5  1  0
  7  8  1  0
  8  9  1  6
 10  8  1  0
 10 17  1  0
 11 10  2  0
 13 12  1  1
 13 14  1  0
 16 15  1  1
 15 13  1  0
 16 17  1  0
 18 16  1  0
 19 18  2  0
 21 20  1  6
 21 22  1  0
 21 23  1  0
 22 18  1  0
 23 24  1  0
 25 23  2  0
M  END
$$$$
