RLA.pdb
     RDKit          3D

 25 24  0  0  1  0  0  0  0  0999 V2000
   23.3935  -18.8613  -16.0430 N   0  0  0  0  0  0  0  0  0  0  0  0
   22.2405  -19.3157  -15.3315 C   0  0  0  0  0  0  0  0  0  0  0  0
   21.3506  -19.9477  -16.0078 N   0  0  0  0  0  0  0  0  0  0  0  0
   22.0460  -19.1035  -13.9577 N   0  0  0  0  0  0  0  0  0  0  0  0
   23.1260  -19.1586  -12.9875 C   0  0  0  0  0  0  0  0  0  0  0  0
   23.6797  -20.5611  -13.0409 C   0  0  0  0  0  0  0  0  0  0  0  0
   24.0984  -20.9762  -11.6574 C   0  0  0  0  0  0  0  0  0  0  0  0
   25.4457  -20.3684  -11.3664 C   0  0  2  0  0  0  0  0  0  0  0  0
   26.3582  -20.9034  -12.3820 N   0  0  0  0  0  0  0  0  0  0  0  0
   25.8514  -20.8819  -10.0110 C   0  0  0  0  0  0  0  0  0  0  0  0
   25.9892  -22.1095   -9.7983 O   0  0  0  0  0  0  0  0  0  0  0  0
   20.4813  -20.3481  -15.6187 C   0  0  0  0  0  0  0  0  0  0  0  0
   29.0023  -20.4559   -6.4220 C   0  0  1  0  0  0  0  0  0  0  0  0
   28.2131  -19.2588   -6.8572 C   0  0  0  0  0  0  0  0  0  0  0  0
   28.6241  -18.0883   -5.9671 C   0  0  0  0  0  0  0  0  0  0  0  0
   26.7337  -19.4132   -6.7100 C   0  0  2  0  0  0  0  0  0  0  0  0
   26.1464  -20.5146   -7.5773 N   0  0  0  0  0  0  0  0  0  0  0  0
   26.0921  -20.0035   -8.9275 C   0  0  0  0  0  0  0  0  0  0  0  0
   24.7486  -20.8209   -7.1528 O   0  0  0  0  0  0  0  0  0  0  0  0
   23.7977  -20.0178   -7.3410 C   0  0  0  0  0  0  0  0  0  0  0  0
   22.8540  -23.8450   -6.0327 C   0  0  2  0  0  0  0  0  0  0  0  0
   23.1023  -22.3339   -6.1090 N   0  0  0  0  0  0  0  0  0  0  0  0
   24.4507  -22.0429   -6.5173 C   0  0  0  0  0  0  0  0  0  0  0  0
   22.8895  -21.6999   -4.7884 O   0  0  0  0  0  0  0  0  0  0  0  0
   21.5890  -21.5913   -4.2698 O   0  0  0  0  0  0  0  0  0  0  0  0
  1  2  1  0
  2  3  2  0
  4  5  1  0
  4  2  1  0
  6  7  1  0
  6  5  1  0
  7  8  1  0
  8  9  1  6
 10  8  1  0
 10 17  1  0
 11 10  2  0
 13 12  1  6
 13 14  1  0
 16 15  1  6
 15 13  1  0
 16 17  1  0
 18 16  1  0
 19 18  2  0
 21 20  1  6
 21 22  1  0
 21 23  1  0
 22 18  1  0
 23 24  1  0
 25 23  2  0
M  END
$$$$
