LIC.pdb
     RDKit          3D

 23 22  0  0  1  0  0  0  0  0999 V2000
    5.6368  -18.6930   20.2816 C   0  0  0  0  0  0  0  0  0  0  0  0
    6.3815  -17.3827   19.9438 C   0  0  2  0  0  0  0  0  0  0  0  0
    7.1479  -17.6960   18.6761 C   0  0  0  0  0  0  0  0  0  0  0  0
    7.3298  -17.0340   21.0521 C   0  0  0  0  0  0  0  0  0  0  0  0
    7.5328  -15.5988   21.3395 C   0  0  2  0  0  0  0  0  0  0  0  0
    8.3228  -14.9917   20.2403 N   0  0  0  0  0  0  0  0  0  0  0  0
    8.1483  -15.2036   22.5913 C   0  0  0  0  0  0  0  0  0  0  0  0
    9.4229  -15.0777   22.6923 O   0  0  0  0  0  0  0  0  0  0  0  0
    5.9468  -11.6117   25.6783 C   0  0  0  0  0  0  0  0  0  0  0  0
    6.9966  -12.5084   25.0849 C   0  0  0  0  0  0  0  0  0  0  0  0
    7.1757  -13.8086   25.8946 C   0  0  2  0  0  0  0  0  0  0  0  0
    7.6824  -13.4728   27.2608 C   0  0  0  0  0  0  0  0  0  0  0  0
    8.1556  -14.6525   25.0741 C   0  0  2  0  0  0  0  0  0  0  0  0
    7.4569  -14.9168   23.7974 N   0  0  0  0  0  0  0  0  0  0  0  0
    8.5347  -15.9117   25.7113 C   0  0  0  0  0  0  0  0  0  0  0  0
    7.6295  -16.7606   25.9921 O   0  0  0  0  0  0  0  0  0  0  0  0
    9.8618  -16.2635   26.0429 N   0  0  0  0  0  0  0  0  0  0  0  0
   10.2174  -17.5378   26.6402 C   0  0  1  0  0  0  0  0  0  0  0  0
   11.3394  -18.2460   25.9581 C   0  0  0  0  0  0  0  0  0  0  0  0
   11.3581  -18.0338   24.1612 S   0  0  0  0  0  0  0  0  0  0  0  0
   10.4699  -17.3949   28.1069 C   0  0  0  0  0  0  0  0  0  0  0  0
   10.6859  -18.4502   28.9544 O   0  0  0  0  0  0  0  0  0  0  0  0
   10.4830  -16.2334   28.5803 O   0  0  0  0  0  0  0  0  0  0  0  0
  2  1  1  1
  2  3  1  0
  4  5  1  0
  4  2  1  0
  5  7  1  0
  5  6  1  6
  7  8  2  0
  9 10  1  0
 10 11  1  0
 11 13  1  0
 11 12  1  1
 13 14  1  6
 14  7  1  0
 15 16  2  0
 15 13  1  0
 17 15  1  0
 18 17  1  0
 18 21  1  0
 18 19  1  6
 20 19  1  0
 21 22  1  0
 23 21  2  0
M  END
$$$$
