LIC.pdb
     RDKit          3D

 23 22  0  0  1  0  0  0  0  0999 V2000
    3.5024  -17.5524   21.3204 C   0  0  0  0  0  0  0  0  0  0  0  0
    4.9064  -18.1473   21.0740 C   0  0  2  0  0  0  0  0  0  0  0  0
    4.7317  -19.6364   21.2856 C   0  0  0  0  0  0  0  0  0  0  0  0
    5.8788  -17.5909   22.0711 C   0  0  0  0  0  0  0  0  0  0  0  0
    6.0972  -16.1295   22.0570 C   0  0  2  0  0  0  0  0  0  0  0  0
    6.4262  -15.7021   20.6750 N   0  0  0  0  0  0  0  0  0  0  0  0
    7.0879  -15.5493   22.9425 C   0  0  0  0  0  0  0  0  0  0  0  0
    8.3107  -15.4155   22.5716 O   0  0  0  0  0  0  0  0  0  0  0  0
    5.7577  -11.6818   26.1991 C   0  0  0  0  0  0  0  0  0  0  0  0
    6.6790  -12.5424   25.3815 C   0  0  0  0  0  0  0  0  0  0  0  0
    7.2368  -13.7301   26.1918 C   0  0  2  0  0  0  0  0  0  0  0  0
    8.1651  -13.2157   27.2452 C   0  0  0  0  0  0  0  0  0  0  0  0
    7.9276  -14.6237   25.1575 C   0  0  2  0  0  0  0  0  0  0  0  0
    6.8438  -15.0769   24.2586 N   0  0  0  0  0  0  0  0  0  0  0  0
    8.6195  -15.7749   25.7332 C   0  0  0  0  0  0  0  0  0  0  0  0
    7.9500  -16.6346   26.3901 O   0  0  0  0  0  0  0  0  0  0  0  0
   10.0067  -16.0089   25.6082 N   0  0  0  0  0  0  0  0  0  0  0  0
   10.6332  -17.2671   25.9708 C   0  0  1  0  0  0  0  0  0  0  0  0
   11.7447  -17.6846   25.0675 C   0  0  0  0  0  0  0  0  0  0  0  0
   12.4881  -16.3213   24.1385 S   0  0  0  0  0  0  0  0  0  0  0  0
   11.0623  -17.2636   27.4031 C   0  0  0  0  0  0  0  0  0  0  0  0
   11.5388  -18.3659   28.0637 O   0  0  0  0  0  0  0  0  0  0  0  0
   10.9770  -16.1799   28.0290 O   0  0  0  0  0  0  0  0  0  0  0  0
  2  1  1  1
  2  3  1  0
  4  5  1  0
  4  2  1  0
  5  7  1  0
  5  6  1  6
  7  8  2  0
  9 10  1  0
 10 11  1  0
 11 13  1  0
 11 12  1  1
 13 14  1  6
 14  7  1  0
 15 16  2  0
 15 13  1  0
 17 15  1  0
 18 17  1  0
 18 21  1  0
 18 19  1  6
 20 19  1  0
 21 22  1  0
 23 21  2  0
M  END
$$$$
