LIC.pdb
     RDKit          3D

 23 22  0  0  1  0  0  0  0  0999 V2000
    4.3434  -20.4842   24.9501 C   0  0  0  0  0  0  0  0  0  0  0  0
    5.6312  -20.6642   24.1167 C   0  0  2  0  0  0  0  0  0  0  0  0
    6.3008  -21.8863   24.7090 C   0  0  0  0  0  0  0  0  0  0  0  0
    6.5129  -19.4610   24.2730 C   0  0  0  0  0  0  0  0  0  0  0  0
    5.9726  -18.1648   23.8133 C   0  0  2  0  0  0  0  0  0  0  0  0
    5.5059  -18.3040   22.4120 N   0  0  0  0  0  0  0  0  0  0  0  0
    6.8074  -16.9812   23.8814 C   0  0  0  0  0  0  0  0  0  0  0  0
    7.5873  -16.6638   22.9110 O   0  0  0  0  0  0  0  0  0  0  0  0
    5.2588  -12.6333   26.3330 C   0  0  0  0  0  0  0  0  0  0  0  0
    6.0909  -13.4655   25.3985 C   0  0  0  0  0  0  0  0  0  0  0  0
    7.3581  -14.0167   26.0831 C   0  0  2  0  0  0  0  0  0  0  0  0
    8.2982  -12.8879   26.3626 C   0  0  0  0  0  0  0  0  0  0  0  0
    7.9215  -15.0467   25.0996 C   0  0  2  0  0  0  0  0  0  0  0  0
    6.8618  -16.0703   24.9687 N   0  0  0  0  0  0  0  0  0  0  0  0
    9.1700  -15.6669   25.5378 C   0  0  0  0  0  0  0  0  0  0  0  0
    9.2197  -16.2152   26.6848 O   0  0  0  0  0  0  0  0  0  0  0  0
   10.3501  -15.7049   24.7627 N   0  0  0  0  0  0  0  0  0  0  0  0
   11.5159  -16.4864   25.1333 C   0  0  1  0  0  0  0  0  0  0  0  0
   11.3446  -17.9601   24.9770 C   0  0  0  0  0  0  0  0  0  0  0  0
   10.7908  -18.7992   26.4815 S   0  0  0  0  0  0  0  0  0  0  0  0
   12.7399  -15.9984   24.4268 C   0  0  0  0  0  0  0  0  0  0  0  0
   14.0051  -16.4638   24.6742 O   0  0  0  0  0  0  0  0  0  0  0  0
   12.5880  -15.1085   23.5559 O   0  0  0  0  0  0  0  0  0  0  0  0
  2  1  1  1
  2  3  1  0
  4  5  1  0
  4  2  1  0
  5  7  1  0
  5  6  1  6
  7  8  2  0
  9 10  1  0
 10 11  1  0
 11 13  1  0
 11 12  1  6
 13 14  1  1
 14  7  1  0
 15 16  2  0
 15 13  1  0
 17 15  1  0
 18 17  1  0
 18 21  1  0
 18 19  1  6
 20 19  1  0
 21 22  1  0
 23 21  2  0
M  END
$$$$
