LIC.pdb
     RDKit          3D

 23 22  0  0  1  0  0  0  0  0999 V2000
    3.9592  -20.5823   24.4113 C   0  0  0  0  0  0  0  0  0  0  0  0
    5.1087  -20.7696   23.3968 C   0  0  2  0  0  0  0  0  0  0  0  0
    5.7105  -22.1141   23.7468 C   0  0  0  0  0  0  0  0  0  0  0  0
    6.1268  -19.6824   23.5724 C   0  0  0  0  0  0  0  0  0  0  0  0
    5.6875  -18.2973   23.3043 C   0  0  2  0  0  0  0  0  0  0  0  0
    5.1284  -18.2234   21.9320 N   0  0  0  0  0  0  0  0  0  0  0  0
    6.6345  -17.2092   23.4505 C   0  0  0  0  0  0  0  0  0  0  0  0
    7.4014  -16.8632   22.4795 O   0  0  0  0  0  0  0  0  0  0  0  0
    5.7492  -12.9454   26.4624 C   0  0  0  0  0  0  0  0  0  0  0  0
    6.4614  -13.7177   25.3879 C   0  0  0  0  0  0  0  0  0  0  0  0
    7.5878  -14.6034   25.9581 C   0  0  2  0  0  0  0  0  0  0  0  0
    8.7089  -13.7330   26.4290 C   0  0  0  0  0  0  0  0  0  0  0  0
    7.9823  -15.5310   24.8051 C   0  0  2  0  0  0  0  0  0  0  0  0
    6.8206  -16.4279   24.6209 N   0  0  0  0  0  0  0  0  0  0  0  0
    9.1892  -16.3149   25.0584 C   0  0  0  0  0  0  0  0  0  0  0  0
    9.1663  -17.2131   25.9591 O   0  0  0  0  0  0  0  0  0  0  0  0
   10.4046  -16.1459   24.3590 N   0  0  0  0  0  0  0  0  0  0  0  0
   11.5500  -17.0192   24.5394 C   0  0  1  0  0  0  0  0  0  0  0  0
   12.2701  -17.3591   23.2779 C   0  0  0  0  0  0  0  0  0  0  0  0
   11.1995  -17.4492   21.8219 S   0  0  0  0  0  0  0  0  0  0  0  0
   12.4830  -16.4789   25.5752 C   0  0  0  0  0  0  0  0  0  0  0  0
   13.5915  -17.1440   26.0308 O   0  0  0  0  0  0  0  0  0  0  0  0
   12.2263  -15.3465   26.0495 O   0  0  0  0  0  0  0  0  0  0  0  0
  2  1  1  1
  2  3  1  0
  4  5  1  0
  4  2  1  0
  5  7  1  0
  5  6  1  6
  7  8  2  0
  9 10  1  0
 10 11  1  0
 11 13  1  0
 11 12  1  6
 13 14  1  1
 14  7  1  0
 15 16  2  0
 15 13  1  0
 17 15  1  0
 18 17  1  0
 18 21  1  0
 18 19  1  6
 20 19  1  0
 21 22  1  0
 23 21  2  0
M  END
$$$$
