LIC.pdb
     RDKit          3D

 23 22  0  0  1  0  0  0  0  0999 V2000
    8.5746  -19.1947   15.1447 C   0  0  0  0  0  0  0  0  0  0  0  0
    7.4668  -18.1855   15.5188 C   0  0  2  0  0  0  0  0  0  0  0  0
    7.1112  -17.5082   14.2121 C   0  0  0  0  0  0  0  0  0  0  0  0
    8.0000  -17.1813   16.4969 C   0  0  0  0  0  0  0  0  0  0  0  0
    8.4357  -17.6888   17.8145 C   0  0  2  0  0  0  0  0  0  0  0  0
    7.3361  -18.4827   18.4157 N   0  0  0  0  0  0  0  0  0  0  0  0
    8.9004  -16.7528   18.8196 C   0  0  0  0  0  0  0  0  0  0  0  0
   10.0886  -16.2664   18.7731 O   0  0  0  0  0  0  0  0  0  0  0  0
    7.7580  -12.6857   19.9386 C   0  0  0  0  0  0  0  0  0  0  0  0
    6.9389  -13.8856   20.3226 C   0  0  0  0  0  0  0  0  0  0  0  0
    7.5307  -14.6289   21.5373 C   0  0  2  0  0  0  0  0  0  0  0  0
    7.9216  -13.6331   22.5821 C   0  0  0  0  0  0  0  0  0  0  0  0
    8.7172  -15.4186   20.9770 C   0  0  2  0  0  0  0  0  0  0  0  0
    8.1402  -16.2779   19.9203 N   0  0  0  0  0  0  0  0  0  0  0  0
    9.4095  -16.2370   21.9701 C   0  0  0  0  0  0  0  0  0  0  0  0
    8.7250  -16.8791   22.8291 O   0  0  0  0  0  0  0  0  0  0  0  0
   10.8134  -16.3719   22.0455 N   0  0  0  0  0  0  0  0  0  0  0  0
   11.4798  -17.1509   23.0732 C   0  0  1  0  0  0  0  0  0  0  0  0
   11.9899  -18.4740   22.6095 C   0  0  0  0  0  0  0  0  0  0  0  0
   10.8198  -19.3928   21.5796 S   0  0  0  0  0  0  0  0  0  0  0  0
   12.5523  -16.3542   23.7444 C   0  0  0  0  0  0  0  0  0  0  0  0
   12.9696  -15.1195   23.3205 O   0  0  0  0  0  0  0  0  0  0  0  0
   13.0966  -16.8561   24.7569 O   0  0  0  0  0  0  0  0  0  0  0  0
  2  1  1  6
  2  3  1  0
  4  5  1  0
  4  2  1  0
  5  7  1  0
  5  6  1  1
  7  8  2  0
  9 10  1  0
 10 11  1  0
 11 13  1  0
 11 12  1  1
 13 14  1  6
 14  7  1  0
 15 16  2  0
 15 13  1  0
 17 15  1  0
 18 17  1  0
 18 21  1  0
 18 19  1  6
 20 19  1  0
 21 22  1  0
 23 21  2  0
M  END
$$$$
