LIC.pdb
     RDKit          3D

 23 22  0  0  1  0  0  0  0  0999 V2000
    8.2930  -14.7283   18.5329 C   0  0  0  0  0  0  0  0  0  0  0  0
    7.6087  -13.7510   19.5139 C   0  0  2  0  0  0  0  0  0  0  0  0
    7.6073  -12.4218   18.7886 C   0  0  0  0  0  0  0  0  0  0  0  0
    8.4091  -13.6527   20.7783 C   0  0  0  0  0  0  0  0  0  0  0  0
    8.3219  -14.7868   21.7216 C   0  0  2  0  0  0  0  0  0  0  0  0
    6.9506  -15.3511   21.6752 N   0  0  0  0  0  0  0  0  0  0  0  0
    8.6641  -14.5813   23.1154 C   0  0  0  0  0  0  0  0  0  0  0  0
    9.8806  -14.3795   23.4763 O   0  0  0  0  0  0  0  0  0  0  0  0
    5.8327  -11.3030   25.7618 C   0  0  0  0  0  0  0  0  0  0  0  0
    6.9990  -12.1762   25.3941 C   0  0  0  0  0  0  0  0  0  0  0  0
    7.0172  -13.4913   26.1994 C   0  0  2  0  0  0  0  0  0  0  0  0
    7.2138  -13.1793   27.6486 C   0  0  0  0  0  0  0  0  0  0  0  0
    8.1617  -14.3090   25.5936 C   0  0  2  0  0  0  0  0  0  0  0  0
    7.7468  -14.5731   24.1986 N   0  0  0  0  0  0  0  0  0  0  0  0
    8.4260  -15.5675   26.2877 C   0  0  0  0  0  0  0  0  0  0  0  0
    8.7700  -15.5388   27.5123 O   0  0  0  0  0  0  0  0  0  0  0  0
    8.3226  -16.8409   25.6855 N   0  0  0  0  0  0  0  0  0  0  0  0
    8.5073  -18.0805   26.4180 C   0  0  1  0  0  0  0  0  0  0  0  0
    7.2883  -18.9368   26.4969 C   0  0  0  0  0  0  0  0  0  0  0  0
    6.3986  -19.0951   24.9292 S   0  0  0  0  0  0  0  0  0  0  0  0
    9.6821  -18.8451   25.8978 C   0  0  0  0  0  0  0  0  0  0  0  0
   10.2237  -19.9380   26.5229 O   0  0  0  0  0  0  0  0  0  0  0  0
   10.1957  -18.4538   24.8223 O   0  0  0  0  0  0  0  0  0  0  0  0
  2  1  1  6
  2  3  1  0
  4  5  1  0
  4  2  1  0
  5  7  1  0
  5  6  1  1
  7  8  2  0
  9 10  1  0
 10 11  1  0
 11 13  1  0
 11 12  1  1
 13 14  1  6
 14  7  1  0
 15 16  2  0
 15 13  1  0
 17 15  1  0
 18 17  1  0
 18 21  1  0
 18 19  1  6
 20 19  1  0
 21 22  1  0
 23 21  2  0
M  END
$$$$
