LIC.pdb
     RDKit          3D

 23 22  0  0  1  0  0  0  0  0999 V2000
    3.6016  -19.8840   22.3329 C   0  0  0  0  0  0  0  0  0  0  0  0
    4.1570  -18.6379   21.6088 C   0  0  2  0  0  0  0  0  0  0  0  0
    2.9392  -17.7788   21.3406 C   0  0  0  0  0  0  0  0  0  0  0  0
    4.8023  -19.0432   20.3171 C   0  0  0  0  0  0  0  0  0  0  0  0
    5.5987  -18.0185   19.6105 C   0  0  2  0  0  0  0  0  0  0  0  0
    6.2465  -18.6384   18.4286 N   0  0  0  0  0  0  0  0  0  0  0  0
    6.6186  -17.2853   20.3347 C   0  0  0  0  0  0  0  0  0  0  0  0
    7.7754  -17.7999   20.5530 O   0  0  0  0  0  0  0  0  0  0  0  0
    7.0902  -12.1881   19.4011 C   0  0  0  0  0  0  0  0  0  0  0  0
    7.5561  -13.5452   19.8478 C   0  0  0  0  0  0  0  0  0  0  0  0
    7.2950  -13.7844   21.3488 C   0  0  2  0  0  0  0  0  0  0  0  0
    8.1860  -12.8921   22.1525 C   0  0  0  0  0  0  0  0  0  0  0  0
    7.5735  -15.2748   21.5651 C   0  0  2  0  0  0  0  0  0  0  0  0
    6.4767  -15.9750   20.8617 N   0  0  0  0  0  0  0  0  0  0  0  0
    7.6084  -15.6758   22.9698 C   0  0  0  0  0  0  0  0  0  0  0  0
    6.6048  -15.4247   23.7105 O   0  0  0  0  0  0  0  0  0  0  0  0
    8.6977  -16.3385   23.5774 N   0  0  0  0  0  0  0  0  0  0  0  0
    8.7035  -16.7367   24.9733 C   0  0  1  0  0  0  0  0  0  0  0  0
    7.9429  -17.9876   25.2601 C   0  0  0  0  0  0  0  0  0  0  0  0
    6.1459  -17.7758   25.2409 S   0  0  0  0  0  0  0  0  0  0  0  0
   10.0976  -16.8074   25.5088 C   0  0  0  0  0  0  0  0  0  0  0  0
   10.4072  -17.1521   26.7987 O   0  0  0  0  0  0  0  0  0  0  0  0
   11.0338  -16.5327   24.7205 O   0  0  0  0  0  0  0  0  0  0  0  0
  2  1  1  6
  2  3  1  0
  4  5  1  0
  4  2  1  0
  5  7  1  0
  5  6  1  6
  7  8  2  0
  9 10  1  0
 10 11  1  0
 11 13  1  0
 11 12  1  1
 13 14  1  6
 14  7  1  0
 15 16  2  0
 15 13  1  0
 17 15  1  0
 18 17  1  0
 18 21  1  0
 18 19  1  6
 20 19  1  0
 21 22  1  0
 23 21  2  0
M  END
$$$$
