LIC.pdb
     RDKit          3D

 23 22  0  0  1  0  0  0  0  0999 V2000
    5.5834  -18.2701   19.5295 C   0  0  0  0  0  0  0  0  0  0  0  0
    6.2921  -16.9067   19.3730 C   0  0  2  0  0  0  0  0  0  0  0  0
    7.1176  -17.0488   18.1117 C   0  0  0  0  0  0  0  0  0  0  0  0
    7.1837  -16.6563   20.5527 C   0  0  0  0  0  0  0  0  0  0  0  0
    7.3494  -15.2537   20.9871 C   0  0  2  0  0  0  0  0  0  0  0  0
    8.0274  -14.4900   19.9110 N   0  0  0  0  0  0  0  0  0  0  0  0
    8.0424  -14.9702   22.2287 C   0  0  0  0  0  0  0  0  0  0  0  0
    9.3235  -14.8813   22.2671 O   0  0  0  0  0  0  0  0  0  0  0  0
    5.7363  -11.8701   25.7250 C   0  0  0  0  0  0  0  0  0  0  0  0
    6.8328  -12.5946   24.9962 C   0  0  0  0  0  0  0  0  0  0  0  0
    7.2419  -13.8991   25.7099 C   0  0  2  0  0  0  0  0  0  0  0  0
    7.8696  -13.5654   27.0254 C   0  0  0  0  0  0  0  0  0  0  0  0
    8.1999  -14.5960   24.7393 C   0  0  2  0  0  0  0  0  0  0  0  0
    7.4255  -14.7617   23.4900 N   0  0  0  0  0  0  0  0  0  0  0  0
    8.6831  -15.8928   25.2086 C   0  0  0  0  0  0  0  0  0  0  0  0
    7.9083  -16.9002   25.1501 O   0  0  0  0  0  0  0  0  0  0  0  0
    9.9765  -16.1142   25.7311 N   0  0  0  0  0  0  0  0  0  0  0  0
   10.4979  -17.4378   26.0197 C   0  0  1  0  0  0  0  0  0  0  0  0
   11.2674  -18.0543   24.9001 C   0  0  0  0  0  0  0  0  0  0  0  0
   12.4511  -16.9322   24.1164 S   0  0  0  0  0  0  0  0  0  0  0  0
   11.2822  -17.4435   27.2926 C   0  0  0  0  0  0  0  0  0  0  0  0
   11.8115  -18.5720   27.8624 O   0  0  0  0  0  0  0  0  0  0  0  0
   11.4608  -16.3421   27.8659 O   0  0  0  0  0  0  0  0  0  0  0  0
  2  1  1  1
  2  3  1  0
  4  5  1  0
  4  2  1  0
  5  7  1  0
  5  6  1  6
  7  8  2  0
  9 10  1  0
 10 11  1  0
 11 13  1  0
 11 12  1  1
 13 14  1  6
 14  7  1  0
 15 16  2  0
 15 13  1  0
 17 15  1  0
 18 17  1  0
 18 21  1  0
 18 19  1  6
 20 19  1  0
 21 22  1  0
 23 21  2  0
M  END
$$$$
