LIC.pdb
     RDKit          3D

 23 22  0  0  1  0  0  0  0  0999 V2000
    8.4095  -17.1929   19.9590 C   0  0  0  0  0  0  0  0  0  0  0  0
    6.9243  -17.1421   20.3802 C   0  0  2  0  0  0  0  0  0  0  0  0
    6.2091  -16.5502   19.1839 C   0  0  0  0  0  0  0  0  0  0  0  0
    6.7629  -16.2511   21.5758 C   0  0  0  0  0  0  0  0  0  0  0  0
    7.5222  -16.6100   22.7916 C   0  0  2  0  0  0  0  0  0  0  0  0
    6.5965  -17.2164   23.7796 N   0  0  0  0  0  0  0  0  0  0  0  0
    8.2891  -15.5894   23.4789 C   0  0  0  0  0  0  0  0  0  0  0  0
    9.3830  -15.1350   22.9813 O   0  0  0  0  0  0  0  0  0  0  0  0
    5.6107  -12.0893   26.4054 C   0  0  0  0  0  0  0  0  0  0  0  0
    6.7054  -12.6516   25.5431 C   0  0  0  0  0  0  0  0  0  0  0  0
    7.8404  -13.2773   26.3790 C   0  0  2  0  0  0  0  0  0  0  0  0
    8.5108  -12.2069   27.1795 C   0  0  0  0  0  0  0  0  0  0  0  0
    8.7663  -13.9390   25.3542 C   0  0  2  0  0  0  0  0  0  0  0  0
    7.9442  -14.9923   24.7196 N   0  0  0  0  0  0  0  0  0  0  0  0
    9.9742  -14.5229   25.9334 C   0  0  0  0  0  0  0  0  0  0  0  0
   11.0392  -13.8281   25.9746 O   0  0  0  0  0  0  0  0  0  0  0  0
   10.0459  -15.8296   26.4646 N   0  0  0  0  0  0  0  0  0  0  0  0
   10.8077  -16.1594   27.6554 C   0  0  1  0  0  0  0  0  0  0  0  0
   10.4513  -15.3518   28.8580 C   0  0  0  0  0  0  0  0  0  0  0  0
   11.3580  -15.8195   30.3525 S   0  0  0  0  0  0  0  0  0  0  0  0
   10.7520  -17.6256   27.9431 C   0  0  0  0  0  0  0  0  0  0  0  0
   11.6887  -18.2979   28.6841 O   0  0  0  0  0  0  0  0  0  0  0  0
    9.7842  -18.2701   27.4728 O   0  0  0  0  0  0  0  0  0  0  0  0
  2  1  1  6
  2  3  1  0
  4  5  1  0
  4  2  1  0
  5  7  1  0
  5  6  1  1
  7  8  2  0
  9 10  1  0
 10 11  1  0
 11 13  1  0
 11 12  1  6
 13 14  1  1
 14  7  1  0
 15 16  2  0
 15 13  1  0
 17 15  1  0
 18 17  1  0
 18 21  1  0
 18 19  1  1
 20 19  1  0
 21 22  1  0
 23 21  2  0
M  END
$$$$
