LIC.pdb
     RDKit          3D

 23 22  0  0  1  0  0  0  0  0999 V2000
    7.7354  -18.5008   20.4259 C   0  0  0  0  0  0  0  0  0  0  0  0
    7.1649  -17.2427   21.1168 C   0  0  2  0  0  0  0  0  0  0  0  0
    5.6624  -17.4152   21.0421 C   0  0  0  0  0  0  0  0  0  0  0  0
    7.5852  -16.0136   20.3672 C   0  0  0  0  0  0  0  0  0  0  0  0
    7.5127  -14.7260   21.0886 C   0  0  2  0  0  0  0  0  0  0  0  0
    8.0913  -13.6593   20.2352 N   0  0  0  0  0  0  0  0  0  0  0  0
    8.1156  -14.6112   22.4022 C   0  0  0  0  0  0  0  0  0  0  0  0
    9.3922  -14.5878   22.5457 O   0  0  0  0  0  0  0  0  0  0  0  0
    5.8047  -11.5956   26.0268 C   0  0  0  0  0  0  0  0  0  0  0  0
    6.8686  -12.3600   25.2907 C   0  0  0  0  0  0  0  0  0  0  0  0
    7.0816  -13.7706   25.8766 C   0  0  2  0  0  0  0  0  0  0  0  0
    7.5686  -13.6509   27.2853 C   0  0  0  0  0  0  0  0  0  0  0  0
    8.0921  -14.4386   24.9395 C   0  0  2  0  0  0  0  0  0  0  0  0
    7.4092  -14.5110   23.6294 N   0  0  0  0  0  0  0  0  0  0  0  0
    8.5070  -15.7732   25.3660 C   0  0  0  0  0  0  0  0  0  0  0  0
    7.6622  -16.7240   25.3341 O   0  0  0  0  0  0  0  0  0  0  0  0
    9.8066  -16.0917   25.8183 N   0  0  0  0  0  0  0  0  0  0  0  0
   10.1966  -17.4282   26.2290 C   0  0  1  0  0  0  0  0  0  0  0  0
   11.2304  -18.0625   25.3603 C   0  0  0  0  0  0  0  0  0  0  0  0
   11.7481  -19.7056   25.9139 S   0  0  0  0  0  0  0  0  0  0  0  0
   10.5986  -17.4550   27.6688 C   0  0  0  0  0  0  0  0  0  0  0  0
   10.6189  -18.5888   28.4385 O   0  0  0  0  0  0  0  0  0  0  0  0
   10.9362  -16.3673   28.1945 O   0  0  0  0  0  0  0  0  0  0  0  0
  2  1  1  6
  2  3  1  0
  4  5  1  0
  4  2  1  0
  5  7  1  0
  5  6  1  6
  7  8  2  0
  9 10  1  0
 10 11  1  0
 11 13  1  0
 11 12  1  1
 13 14  1  6
 14  7  1  0
 15 16  2  0
 15 13  1  0
 17 15  1  0
 18 17  1  0
 18 21  1  0
 18 19  1  6
 20 19  1  0
 21 22  1  0
 23 21  2  0
M  END
$$$$
