LIC.pdb
     RDKit          3D

 23 22  0  0  1  0  0  0  0  0999 V2000
    8.2134  -14.3063   18.4209 C   0  0  0  0  0  0  0  0  0  0  0  0
    7.4117  -13.3902   19.3716 C   0  0  2  0  0  0  0  0  0  0  0  0
    7.4843  -12.0199   18.7315 C   0  0  0  0  0  0  0  0  0  0  0  0
    8.0585  -13.3672   20.7245 C   0  0  0  0  0  0  0  0  0  0  0  0
    8.0727  -14.6330   21.4867 C   0  0  2  0  0  0  0  0  0  0  0  0
    6.6950  -15.1805   21.5423 N   0  0  0  0  0  0  0  0  0  0  0  0
    8.6037  -14.6455   22.8358 C   0  0  0  0  0  0  0  0  0  0  0  0
    9.8598  -14.4876   23.0550 O   0  0  0  0  0  0  0  0  0  0  0  0
    6.1203  -11.8287   26.1087 C   0  0  0  0  0  0  0  0  0  0  0  0
    7.2273  -12.6430   25.5006 C   0  0  0  0  0  0  0  0  0  0  0  0
    7.4198  -13.9925   26.2218 C   0  0  2  0  0  0  0  0  0  0  0  0
    7.8816  -13.7418   27.6218 C   0  0  0  0  0  0  0  0  0  0  0  0
    8.4428  -14.7517   25.3717 C   0  0  2  0  0  0  0  0  0  0  0  0
    7.8429  -14.8200   24.0214 N   0  0  0  0  0  0  0  0  0  0  0  0
    8.7409  -16.0965   25.8595 C   0  0  0  0  0  0  0  0  0  0  0  0
    7.8647  -17.0100   25.7310 O   0  0  0  0  0  0  0  0  0  0  0  0
    9.9582  -16.4643   26.4741 N   0  0  0  0  0  0  0  0  0  0  0  0
   10.3730  -17.8447   26.6459 C   0  0  1  0  0  0  0  0  0  0  0  0
   11.2288  -18.3724   25.5437 C   0  0  0  0  0  0  0  0  0  0  0  0
   10.2978  -18.9627   24.1088 S   0  0  0  0  0  0  0  0  0  0  0  0
   11.0087  -18.0551   27.9827 C   0  0  0  0  0  0  0  0  0  0  0  0
   11.3884  -19.2797   28.4672 O   0  0  0  0  0  0  0  0  0  0  0  0
   11.2021  -17.0418   28.6963 O   0  0  0  0  0  0  0  0  0  0  0  0
  2  1  1  6
  2  3  1  0
  4  5  1  0
  4  2  1  0
  5  7  1  0
  5  6  1  1
  7  8  2  0
  9 10  1  0
 10 11  1  0
 11 13  1  0
 11 12  1  1
 13 14  1  6
 14  7  1  0
 15 16  2  0
 15 13  1  0
 17 15  1  0
 18 17  1  0
 18 21  1  0
 18 19  1  6
 20 19  1  0
 21 22  1  0
 23 21  2  0
M  END
$$$$
