LIC.pdb
     RDKit          3D

 23 22  0  0  1  0  0  0  0  0999 V2000
    6.6773  -13.2804   19.0291 C   0  0  0  0  0  0  0  0  0  0  0  0
    7.3330  -14.6676   19.2064 C   0  0  2  0  0  0  0  0  0  0  0  0
    6.3210  -15.6423   18.6421 C   0  0  0  0  0  0  0  0  0  0  0  0
    7.5627  -14.9415   20.6629 C   0  0  0  0  0  0  0  0  0  0  0  0
    8.4854  -14.0383   21.3816 C   0  0  2  0  0  0  0  0  0  0  0  0
    9.7811  -13.9956   20.6604 N   0  0  0  0  0  0  0  0  0  0  0  0
    8.7714  -14.2805   22.7822 C   0  0  0  0  0  0  0  0  0  0  0  0
    9.8657  -14.8466   23.1468 O   0  0  0  0  0  0  0  0  0  0  0  0
    6.1309  -11.2958   26.3904 C   0  0  0  0  0  0  0  0  0  0  0  0
    7.2189  -12.0902   25.7246 C   0  0  0  0  0  0  0  0  0  0  0  0
    7.1646  -13.5836   26.1057 C   0  0  2  0  0  0  0  0  0  0  0  0
    7.3678  -13.7237   27.5805 C   0  0  0  0  0  0  0  0  0  0  0  0
    8.2694  -14.2432   25.2751 C   0  0  2  0  0  0  0  0  0  0  0  0
    7.9259  -13.9368   23.8694 N   0  0  0  0  0  0  0  0  0  0  0  0
    8.3741  -15.6883   25.4650 C   0  0  0  0  0  0  0  0  0  0  0  0
    7.4031  -16.4310   25.1126 O   0  0  0  0  0  0  0  0  0  0  0  0
    9.5004  -16.3344   26.0207 N   0  0  0  0  0  0  0  0  0  0  0  0
    9.5643  -17.7686   26.2359 C   0  0  1  0  0  0  0  0  0  0  0  0
   10.3808  -18.5067   25.2288 C   0  0  0  0  0  0  0  0  0  0  0  0
   11.8949  -19.2347   25.9012 S   0  0  0  0  0  0  0  0  0  0  0  0
    9.9962  -18.0865   27.6316 C   0  0  0  0  0  0  0  0  0  0  0  0
    9.9367  -19.3383   28.1865 O   0  0  0  0  0  0  0  0  0  0  0  0
   10.4387  -17.1421   28.3285 O   0  0  0  0  0  0  0  0  0  0  0  0
  2  1  1  1
  2  3  1  0
  4  5  1  0
  4  2  1  0
  5  7  1  0
  5  6  1  6
  7  8  2  0
  9 10  1  0
 10 11  1  0
 11 13  1  0
 11 12  1  1
 13 14  1  6
 14  7  1  0
 15 16  2  0
 15 13  1  0
 17 15  1  0
 18 17  1  0
 18 21  1  0
 18 19  1  6
 20 19  1  0
 21 22  1  0
 23 21  2  0
M  END
$$$$
