LIC.pdb
     RDKit          3D

 23 22  0  0  1  0  0  0  0  0999 V2000
    7.7085  -18.3631   19.9499 C   0  0  0  0  0  0  0  0  0  0  0  0
    7.4006  -16.8717   19.6920 C   0  0  2  0  0  0  0  0  0  0  0  0
    8.0154  -16.5842   18.3385 C   0  0  0  0  0  0  0  0  0  0  0  0
    8.0488  -16.0264   20.7478 C   0  0  0  0  0  0  0  0  0  0  0  0
    7.6688  -16.2911   22.1510 C   0  0  2  0  0  0  0  0  0  0  0  0
    6.2154  -16.0419   22.3145 N   0  0  0  0  0  0  0  0  0  0  0  0
    8.3560  -15.5913   23.2187 C   0  0  0  0  0  0  0  0  0  0  0  0
    9.5825  -15.2299   23.0922 O   0  0  0  0  0  0  0  0  0  0  0  0
    6.0636  -11.9216   25.8343 C   0  0  0  0  0  0  0  0  0  0  0  0
    7.2320  -12.7316   25.3475 C   0  0  0  0  0  0  0  0  0  0  0  0
    7.6698  -13.7957   26.3743 C   0  0  2  0  0  0  0  0  0  0  0  0
    8.3347  -13.1205   27.5310 C   0  0  0  0  0  0  0  0  0  0  0  0
    8.6024  -14.7314   25.5994 C   0  0  2  0  0  0  0  0  0  0  0  0
    7.7895  -15.2324   24.4698 N   0  0  0  0  0  0  0  0  0  0  0  0
    9.1125  -15.8504   26.3887 C   0  0  0  0  0  0  0  0  0  0  0  0
    8.2958  -16.7222   26.8266 O   0  0  0  0  0  0  0  0  0  0  0  0
   10.4758  -16.0398   26.7052 N   0  0  0  0  0  0  0  0  0  0  0  0
   10.9737  -17.2210   27.3864 C   0  0  1  0  0  0  0  0  0  0  0  0
   12.3123  -17.6839   26.9179 C   0  0  0  0  0  0  0  0  0  0  0  0
   13.4905  -16.3433   26.6196 S   0  0  0  0  0  0  0  0  0  0  0  0
   10.9440  -17.0414   28.8704 C   0  0  0  0  0  0  0  0  0  0  0  0
   11.1220  -18.0599   29.7700 O   0  0  0  0  0  0  0  0  0  0  0  0
   10.7432  -15.8831   29.3080 O   0  0  0  0  0  0  0  0  0  0  0  0
  2  1  1  1
  2  3  1  0
  4  5  1  0
  4  2  1  0
  5  7  1  0
  5  6  1  6
  7  8  2  0
  9 10  1  0
 10 11  1  0
 11 13  1  0
 11 12  1  1
 13 14  1  6
 14  7  1  0
 15 16  2  0
 15 13  1  0
 17 15  1  0
 18 17  1  0
 18 21  1  0
 18 19  1  6
 20 19  1  0
 21 22  1  0
 23 21  2  0
M  END
$$$$
