KTI.pdb
     RDKit          3D

 25 24  0  0  1  0  0  0  0  0999 V2000
   16.7273  -12.4832  -14.6534 N   0  0  0  0  0  0  0  0  0  0  0  0
   15.8925  -11.3093  -14.5102 C   0  0  1  0  0  0  0  0  0  0  0  0
   14.4647  -11.7898  -14.3852 C   0  0  0  0  0  0  0  0  0  0  0  0
   13.8890  -11.8356  -15.7848 C   0  0  0  0  0  0  0  0  0  0  0  0
   12.4742  -12.3467  -15.7963 C   0  0  0  0  0  0  0  0  0  0  0  0
   11.8829  -12.3569  -17.1859 C   0  0  0  0  0  0  0  0  0  0  0  0
   10.5546  -12.9402  -17.1915 N   0  0  0  0  0  0  0  0  0  0  0  0
   16.3499  -10.5363  -13.3586 C   0  0  0  0  0  0  0  0  0  0  0  0
   16.7606  -11.1407  -12.3358 O   0  0  0  0  0  0  0  0  0  0  0  0
   19.2659   -8.6150  -12.8794 C   0  0  0  0  0  0  0  0  0  0  0  0
   18.1720   -7.7029  -12.4301 C   0  0  1  0  0  0  0  0  0  0  0  0
   17.9930   -6.6358  -13.2994 O   0  0  0  0  0  0  0  0  0  0  0  0
   16.8813   -8.4391  -12.1378 C   0  0  2  0  0  0  0  0  0  0  0  0
   16.3684   -9.1172  -13.3001 N   0  0  0  0  0  0  0  0  0  0  0  0
   15.8809   -7.5251  -11.5367 C   0  0  0  0  0  0  0  0  0  0  0  0
   14.9060   -7.1744  -12.2381 O   0  0  0  0  0  0  0  0  0  0  0  0
   12.1831   -6.8061   -7.1195 C   0  0  0  0  0  0  0  0  0  0  0  0
   13.1558   -6.0255   -7.9335 C   0  0  0  0  0  0  0  0  0  0  0  0
   14.1580   -6.7368   -8.7340 C   0  0  2  0  0  0  0  0  0  0  0  0
   15.0387   -7.6387   -7.8435 C   0  0  0  0  0  0  0  0  0  0  0  0
   15.0463   -6.0208   -9.6731 C   0  0  2  0  0  0  0  0  0  0  0  0
   15.9993   -7.0487  -10.2150 N   0  0  0  0  0  0  0  0  0  0  0  0
   15.8662   -4.9532   -9.1516 C   0  0  0  0  0  0  0  0  0  0  0  0
   17.2191   -5.0213   -8.8808 O   0  0  0  0  0  0  0  0  0  0  0  0
   15.3507   -3.7990   -8.8833 O   0  0  0  0  0  0  0  0  0  0  0  0
  2  1  1  1
  3  2  1  0
  3  4  1  0
  5  4  1  0
  5  6  1  0
  6  7  1  0
  8  9  2  0
  8  2  1  0
 11 10  1  6
 11 13  1  0
 12 11  1  0
 13 14  1  6
 14  8  1  0
 15 22  1  0
 15 13  1  0
 16 15  2  0
 18 17  1  0
 19 21  1  0
 19 18  1  0
 19 20  1  1
 21 22  1  1
 23 21  1  0
 24 23  1  0
 25 23  2  0
M  END
$$$$
