KTI.pdb
     RDKit          3D

 25 24  0  0  1  0  0  0  0  0999 V2000
   18.6697  -15.5883  -18.3722 N   0  0  0  0  0  0  0  0  0  0  0  0
   17.9202  -14.3874  -18.0696 C   0  0  1  0  0  0  0  0  0  0  0  0
   17.2069  -14.6253  -16.7582 C   0  0  0  0  0  0  0  0  0  0  0  0
   16.2008  -15.7314  -16.9960 C   0  0  0  0  0  0  0  0  0  0  0  0
   15.3563  -15.9969  -15.7797 C   0  0  0  0  0  0  0  0  0  0  0  0
   14.2981  -17.0430  -16.0375 C   0  0  0  0  0  0  0  0  0  0  0  0
   13.4725  -17.2608  -14.8647 N   0  0  0  0  0  0  0  0  0  0  0  0
   18.8353  -13.2496  -18.0369 C   0  0  0  0  0  0  0  0  0  0  0  0
   20.0701  -13.4493  -18.1616 O   0  0  0  0  0  0  0  0  0  0  0  0
   18.7119  -10.2258  -20.3450 C   0  0  0  0  0  0  0  0  0  0  0  0
   18.8891   -9.7418  -18.9432 C   0  0  1  0  0  0  0  0  0  0  0  0
   17.7540   -9.1016  -18.4655 O   0  0  0  0  0  0  0  0  0  0  0  0
   19.3828  -10.8267  -18.0092 C   0  0  2  0  0  0  0  0  0  0  0  0
   18.4307  -11.8982  -17.8708 N   0  0  0  0  0  0  0  0  0  0  0  0
   19.7733  -10.2530  -16.6992 C   0  0  0  0  0  0  0  0  0  0  0  0
   19.0232  -10.4572  -15.7189 O   0  0  0  0  0  0  0  0  0  0  0  0
   22.9362  -10.2365  -12.4373 C   0  0  0  0  0  0  0  0  0  0  0  0
   23.4016   -9.5015  -13.6461 C   0  0  0  0  0  0  0  0  0  0  0  0
   22.6910   -9.6832  -14.9162 C   0  0  2  0  0  0  0  0  0  0  0  0
   23.6153   -9.3832  -16.1152 C   0  0  0  0  0  0  0  0  0  0  0  0
   21.3895   -9.0320  -15.1730 C   0  0  2  0  0  0  0  0  0  0  0  0
   20.9504   -9.4949  -16.5337 N   0  0  0  0  0  0  0  0  0  0  0  0
   21.3481   -7.5894  -15.2105 C   0  0  0  0  0  0  0  0  0  0  0  0
   21.0821   -6.7530  -14.1438 O   0  0  0  0  0  0  0  0  0  0  0  0
   21.5641   -6.9537  -16.3146 O   0  0  0  0  0  0  0  0  0  0  0  0
  2  1  1  1
  3  2  1  0
  3  4  1  0
  5  4  1  0
  5  6  1  0
  6  7  1  0
  8  9  2  0
  8  2  1  0
 11 10  1  6
 11 13  1  0
 12 11  1  0
 13 14  1  1
 14  8  1  0
 15 22  1  0
 15 13  1  0
 16 15  2  0
 18 17  1  0
 19 21  1  0
 19 18  1  0
 19 20  1  6
 21 22  1  6
 23 21  1  0
 24 23  1  0
 25 23  2  0
M  END
$$$$
