KTI.pdb
     RDKit          3D

 25 24  0  0  1  0  0  0  0  0999 V2000
   25.7294  -21.1965  -15.1119 N   0  0  0  0  0  0  0  0  0  0  0  0
   26.8393  -20.6623  -14.3513 C   0  0  1  0  0  0  0  0  0  0  0  0
   27.5643  -19.6841  -15.2472 C   0  0  0  0  0  0  0  0  0  0  0  0
   28.0522  -20.4634  -16.4501 C   0  0  0  0  0  0  0  0  0  0  0  0
   28.8726  -19.6112  -17.3794 C   0  0  0  0  0  0  0  0  0  0  0  0
   29.3471  -20.3806  -18.5892 C   0  0  0  0  0  0  0  0  0  0  0  0
   30.1545  -19.5493  -19.4619 N   0  0  0  0  0  0  0  0  0  0  0  0
   26.3293  -20.0594  -13.1228 C   0  0  0  0  0  0  0  0  0  0  0  0
   25.5417  -19.0827  -13.1977 O   0  0  0  0  0  0  0  0  0  0  0  0
   23.8579  -19.6209  -12.0723 C   0  0  0  0  0  0  0  0  0  0  0  0
   24.4065  -20.3152  -10.8692 C   0  0  1  0  0  0  0  0  0  0  0  0
   24.0833  -21.6649  -10.8537 O   0  0  0  0  0  0  0  0  0  0  0  0
   25.8884  -20.0687  -10.6781 C   0  0  2  0  0  0  0  0  0  0  0  0
   26.6611  -20.5005  -11.8140 N   0  0  0  0  0  0  0  0  0  0  0  0
   26.3629  -20.6803   -9.4138 C   0  0  0  0  0  0  0  0  0  0  0  0
   26.7277  -21.8769   -9.4382 O   0  0  0  0  0  0  0  0  0  0  0  0
   29.3445  -18.9361   -4.3896 C   0  0  0  0  0  0  0  0  0  0  0  0
   28.4705  -19.9619   -5.0237 C   0  0  0  0  0  0  0  0  0  0  0  0
   27.8144  -19.6584   -6.2999 C   0  0  2  0  0  0  0  0  0  0  0  0
   27.1296  -18.2760   -6.2548 C   0  0  0  0  0  0  0  0  0  0  0  0
   26.8756  -20.6091   -6.9310 C   0  0  2  0  0  0  0  0  0  0  0  0
   26.4123  -19.9583   -8.2039 N   0  0  0  0  0  0  0  0  0  0  0  0
   25.6784  -20.9631   -6.2060 C   0  0  0  0  0  0  0  0  0  0  0  0
   25.5936  -21.8618   -5.1604 O   0  0  0  0  0  0  0  0  0  0  0  0
   24.5413  -20.4325   -6.5150 O   0  0  0  0  0  0  0  0  0  0  0  0
  2  1  1  6
  3  2  1  0
  3  4  1  0
  5  4  1  0
  5  6  1  0
  6  7  1  0
  8  9  2  0
  8  2  1  0
 11 10  1  6
 11 13  1  0
 12 11  1  0
 13 14  1  6
 14  8  1  0
 15 22  1  0
 15 13  1  0
 16 15  2  0
 18 17  1  0
 19 21  1  0
 19 18  1  0
 19 20  1  1
 21 22  1  6
 23 21  1  0
 24 23  1  0
 25 23  2  0
M  END
$$$$
