KTI.pdb
     RDKit          3D

 25 24  0  0  1  0  0  0  0  0999 V2000
   27.6617  -21.2415  -16.7214 N   0  0  0  0  0  0  0  0  0  0  0  0
   26.3664  -21.8876  -16.7428 C   0  0  1  0  0  0  0  0  0  0  0  0
   26.5206  -23.2193  -16.0443 C   0  0  0  0  0  0  0  0  0  0  0  0
   27.3087  -24.1179  -16.9736 C   0  0  0  0  0  0  0  0  0  0  0  0
   27.4566  -25.5095  -16.4217 C   0  0  0  0  0  0  0  0  0  0  0  0
   28.2335  -26.4118  -17.3506 C   0  0  0  0  0  0  0  0  0  0  0  0
   28.3765  -27.7449  -16.7965 N   0  0  0  0  0  0  0  0  0  0  0  0
   25.3848  -21.0092  -16.1120 C   0  0  0  0  0  0  0  0  0  0  0  0
   25.7828  -20.0448  -15.4110 O   0  0  0  0  0  0  0  0  0  0  0  0
   23.1698  -18.4899  -17.3265 C   0  0  0  0  0  0  0  0  0  0  0  0
   22.2978  -19.4004  -16.5257 C   0  0  1  0  0  0  0  0  0  0  0  0
   21.4472  -20.1472  -17.3289 O   0  0  0  0  0  0  0  0  0  0  0  0
   23.0838  -20.2567  -15.5550 C   0  0  2  0  0  0  0  0  0  0  0  0
   23.9775  -21.1616  -16.2306 N   0  0  0  0  0  0  0  0  0  0  0  0
   22.1730  -20.9627  -14.6225 C   0  0  0  0  0  0  0  0  0  0  0  0
   22.1125  -22.2106  -14.6888 O   0  0  0  0  0  0  0  0  0  0  0  0
   21.5830  -19.3274   -9.3786 C   0  0  0  0  0  0  0  0  0  0  0  0
   21.6201  -20.1976  -10.5867 C   0  0  0  0  0  0  0  0  0  0  0  0
   20.4590  -20.2350  -11.4820 C   0  0  2  0  0  0  0  0  0  0  0  0
   19.1767  -20.6108  -10.7097 C   0  0  0  0  0  0  0  0  0  0  0  0
   20.4768  -21.0139  -12.7377 C   0  0  2  0  0  0  0  0  0  0  0  0
   21.3858  -20.2732  -13.6776 N   0  0  0  0  0  0  0  0  0  0  0  0
   19.2305  -21.1900  -13.4448 C   0  0  0  0  0  0  0  0  0  0  0  0
   18.7406  -20.3780  -14.4491 O   0  0  0  0  0  0  0  0  0  0  0  0
   18.4455  -22.1759  -13.1584 O   0  0  0  0  0  0  0  0  0  0  0  0
  2  1  1  1
  3  2  1  0
  3  4  1  0
  5  4  1  0
  5  6  1  0
  6  7  1  0
  8  9  2  0
  8  2  1  0
 11 10  1  6
 11 13  1  0
 12 11  1  0
 13 14  1  6
 14  8  1  0
 15 22  1  0
 15 13  1  0
 16 15  2  0
 18 17  1  0
 19 21  1  0
 19 18  1  0
 19 20  1  1
 21 22  1  6
 23 21  1  0
 24 23  1  0
 25 23  2  0
M  END
$$$$
