KTI.pdb
     RDKit          3D

 25 24  0  0  1  0  0  0  0  0999 V2000
   26.8501  -26.1723  -16.3629 N   0  0  0  0  0  0  0  0  0  0  0  0
   27.1473  -25.7622  -17.7191 C   0  0  1  0  0  0  0  0  0  0  0  0
   27.0244  -26.9893  -18.5933 C   0  0  0  0  0  0  0  0  0  0  0  0
   28.4295  -27.4879  -18.8564 C   0  0  0  0  0  0  0  0  0  0  0  0
   28.7584  -28.7059  -18.0370 C   0  0  0  0  0  0  0  0  0  0  0  0
   30.1303  -29.2525  -18.3533 C   0  0  0  0  0  0  0  0  0  0  0  0
   30.4422  -30.4070  -17.5322 N   0  0  0  0  0  0  0  0  0  0  0  0
   26.2410  -24.6822  -18.1002 C   0  0  0  0  0  0  0  0  0  0  0  0
   25.0308  -24.7483  -17.7672 O   0  0  0  0  0  0  0  0  0  0  0  0
   24.6155  -22.7345  -16.8071 C   0  0  0  0  0  0  0  0  0  0  0  0
   25.2947  -21.7895  -17.7432 C   0  0  1  0  0  0  0  0  0  0  0  0
   26.3447  -21.1169  -17.1339 O   0  0  0  0  0  0  0  0  0  0  0  0
   25.7018  -22.4487  -19.0444 C   0  0  2  0  0  0  0  0  0  0  0  0
   26.6284  -23.5314  -18.8374 N   0  0  0  0  0  0  0  0  0  0  0  0
   26.2218  -21.4429  -20.0013 C   0  0  0  0  0  0  0  0  0  0  0  0
   27.4620  -21.3159  -20.1075 O   0  0  0  0  0  0  0  0  0  0  0  0
   24.1094  -21.7984  -24.3313 C   0  0  0  0  0  0  0  0  0  0  0  0
   25.2663  -20.9383  -23.9570 C   0  0  0  0  0  0  0  0  0  0  0  0
   25.0672  -19.8384  -23.0073 C   0  0  2  0  0  0  0  0  0  0  0  0
   25.0327  -18.4781  -23.7355 C   0  0  0  0  0  0  0  0  0  0  0  0
   25.9183  -19.6896  -21.8085 C   0  0  2  0  0  0  0  0  0  0  0  0
   25.3667  -20.6388  -20.7822 N   0  0  0  0  0  0  0  0  0  0  0  0
   25.9692  -18.3965  -21.1686 C   0  0  0  0  0  0  0  0  0  0  0  0
   26.8180  -17.3571  -21.4961 O   0  0  0  0  0  0  0  0  0  0  0  0
   25.1791  -18.1181  -20.1847 O   0  0  0  0  0  0  0  0  0  0  0  0
  2  1  1  1
  3  2  1  0
  3  4  1  0
  5  4  1  0
  5  6  1  0
  6  7  1  0
  8  9  2  0
  8  2  1  0
 11 10  1  1
 11 13  1  0
 12 11  1  0
 13 14  1  1
 14  8  1  0
 15 22  1  0
 15 13  1  0
 16 15  2  0
 18 17  1  0
 19 21  1  0
 19 18  1  0
 19 20  1  6
 21 22  1  1
 23 21  1  0
 24 23  1  0
 25 23  2  0
M  END
$$$$
