KTI.pdb
     RDKit          3D

 25 24  0  0  1  0  0  0  0  0999 V2000
   29.4087  -24.1327  -18.4202 N   0  0  0  0  0  0  0  0  0  0  0  0
   28.3989  -24.4809  -17.4432 C   0  0  1  0  0  0  0  0  0  0  0  0
   28.8962  -25.7017  -16.7033 C   0  0  0  0  0  0  0  0  0  0  0  0
   28.5472  -26.9062  -17.5517 C   0  0  0  0  0  0  0  0  0  0  0  0
   27.1361  -27.3716  -17.3171 C   0  0  0  0  0  0  0  0  0  0  0  0
   27.0424  -28.8748  -17.2063 C   0  0  0  0  0  0  0  0  0  0  0  0
   28.0548  -29.4037  -16.3120 N   0  0  0  0  0  0  0  0  0  0  0  0
   28.1587  -23.3313  -16.5750 C   0  0  0  0  0  0  0  0  0  0  0  0
   29.1386  -22.7042  -16.0992 O   0  0  0  0  0  0  0  0  0  0  0  0
   27.2947  -20.0258  -17.1269 C   0  0  0  0  0  0  0  0  0  0  0  0
   26.2872  -20.4727  -16.1191 C   0  0  1  0  0  0  0  0  0  0  0  0
   25.0227  -20.6143  -16.6736 O   0  0  0  0  0  0  0  0  0  0  0  0
   26.7305  -21.7040  -15.3571 C   0  0  2  0  0  0  0  0  0  0  0  0
   26.8708  -22.8519  -16.2154 N   0  0  0  0  0  0  0  0  0  0  0  0
   25.8239  -21.9679  -14.2142 C   0  0  0  0  0  0  0  0  0  0  0  0
   25.0679  -22.9627  -14.2787 O   0  0  0  0  0  0  0  0  0  0  0  0
   25.7472  -20.6005   -8.1888 C   0  0  0  0  0  0  0  0  0  0  0  0
   25.0414  -21.1863   -9.3622 C   0  0  0  0  0  0  0  0  0  0  0  0
   25.6304  -21.0482  -10.6984 C   0  0  2  0  0  0  0  0  0  0  0  0
   26.1675  -19.6186  -10.9212 C   0  0  0  0  0  0  0  0  0  0  0  0
   24.8913  -21.4494  -11.9135 C   0  0  2  0  0  0  0  0  0  0  0  0
   25.7933  -21.1385  -13.0746 N   0  0  0  0  0  0  0  0  0  0  0  0
   23.6384  -20.7897  -12.1945 C   0  0  0  0  0  0  0  0  0  0  0  0
   22.3910  -21.1851  -11.7520 O   0  0  0  0  0  0  0  0  0  0  0  0
   23.6050  -19.7267  -12.9286 O   0  0  0  0  0  0  0  0  0  0  0  0
  2  1  1  6
  3  2  1  0
  3  4  1  0
  5  4  1  0
  5  6  1  0
  6  7  1  0
  8  9  2  0
  8  2  1  0
 11 10  1  6
 11 13  1  0
 12 11  1  0
 13 14  1  6
 14  8  1  0
 15 22  1  0
 15 13  1  0
 16 15  2  0
 18 17  1  0
 19 21  1  0
 19 18  1  0
 19 20  1  6
 21 22  1  6
 23 21  1  0
 24 23  1  0
 25 23  2  0
M  END
$$$$
