KTI.pdb
     RDKit          3D

 25 24  0  0  1  0  0  0  0  0999 V2000
   27.4042  -21.7583  -14.6841 N   0  0  0  0  0  0  0  0  0  0  0  0
   26.8906  -20.4169  -14.8644 C   0  0  1  0  0  0  0  0  0  0  0  0
   25.9603  -20.4517  -16.0553 C   0  0  0  0  0  0  0  0  0  0  0  0
   26.6730  -21.2152  -17.1515 C   0  0  0  0  0  0  0  0  0  0  0  0
   27.9862  -20.5802  -17.5190 C   0  0  0  0  0  0  0  0  0  0  0  0
   28.5874  -21.1920  -18.7620 C   0  0  0  0  0  0  0  0  0  0  0  0
   29.9213  -20.6794  -19.0120 N   0  0  0  0  0  0  0  0  0  0  0  0
   26.2406  -19.9852  -13.6298 C   0  0  0  0  0  0  0  0  0  0  0  0
   25.3506  -19.0990  -13.6805 O   0  0  0  0  0  0  0  0  0  0  0  0
   23.6607  -19.7033  -12.5128 C   0  0  0  0  0  0  0  0  0  0  0  0
   24.2844  -20.4594  -11.3859 C   0  0  1  0  0  0  0  0  0  0  0  0
   24.0567  -21.8250  -11.4854 O   0  0  0  0  0  0  0  0  0  0  0  0
   25.7494  -20.1250  -11.1988 C   0  0  2  0  0  0  0  0  0  0  0  0
   26.5419  -20.5008  -12.3410 N   0  0  0  0  0  0  0  0  0  0  0  0
   26.2656  -20.7163   -9.9411 C   0  0  0  0  0  0  0  0  0  0  0  0
   26.8414  -21.8254  -10.0038 O   0  0  0  0  0  0  0  0  0  0  0  0
   29.2846  -19.1579   -5.0390 C   0  0  0  0  0  0  0  0  0  0  0  0
   28.2818  -20.1158   -5.5824 C   0  0  0  0  0  0  0  0  0  0  0  0
   27.6338  -19.8273   -6.8662 C   0  0  2  0  0  0  0  0  0  0  0  0
   27.0818  -18.3864   -6.8959 C   0  0  0  0  0  0  0  0  0  0  0  0
   26.5991  -20.7210   -7.4270 C   0  0  2  0  0  0  0  0  0  0  0  0
   26.1259  -20.0698   -8.6961 N   0  0  0  0  0  0  0  0  0  0  0  0
   25.4144  -20.9659   -6.6392 C   0  0  0  0  0  0  0  0  0  0  0  0
   24.1270  -20.5824   -6.9611 O   0  0  0  0  0  0  0  0  0  0  0  0
   25.4924  -21.5919   -5.5113 O   0  0  0  0  0  0  0  0  0  0  0  0
  2  1  1  1
  3  2  1  0
  3  4  1  0
  5  4  1  0
  5  6  1  0
  6  7  1  0
  8  9  2  0
  8  2  1  0
 11 10  1  6
 11 13  1  0
 12 11  1  0
 13 14  1  6
 14  8  1  0
 15 22  1  0
 15 13  1  0
 16 15  2  0
 18 17  1  0
 19 21  1  0
 19 18  1  0
 19 20  1  1
 21 22  1  6
 23 21  1  0
 24 23  1  0
 25 23  2  0
M  END
$$$$
