KTI.pdb
     RDKit          3D

 25 24  0  0  1  0  0  0  0  0999 V2000
   19.3837  -14.4862  -19.6971 N   0  0  0  0  0  0  0  0  0  0  0  0
   18.7442  -13.2153  -19.4299 C   0  0  1  0  0  0  0  0  0  0  0  0
   17.5694  -13.4899  -18.5190 C   0  0  0  0  0  0  0  0  0  0  0  0
   16.4666  -14.0672  -19.3808 C   0  0  0  0  0  0  0  0  0  0  0  0
   15.2251  -14.3635  -18.5846 C   0  0  0  0  0  0  0  0  0  0  0  0
   14.0653  -14.7646  -19.4649 C   0  0  0  0  0  0  0  0  0  0  0  0
   12.8417  -14.9020  -18.6979 N   0  0  0  0  0  0  0  0  0  0  0  0
   19.7255  -12.2991  -18.8548 C   0  0  0  0  0  0  0  0  0  0  0  0
   20.7373  -12.7667  -18.2739 O   0  0  0  0  0  0  0  0  0  0  0  0
   21.9725   -9.8137  -20.4264 C   0  0  0  0  0  0  0  0  0  0  0  0
   21.2596   -9.1048  -19.3220 C   0  0  1  0  0  0  0  0  0  0  0  0
   20.3450   -8.1780  -19.8026 O   0  0  0  0  0  0  0  0  0  0  0  0
   20.6495  -10.0573  -18.3151 C   0  0  2  0  0  0  0  0  0  0  0  0
   19.6252  -10.8829  -18.9007 N   0  0  0  0  0  0  0  0  0  0  0  0
   20.1612   -9.3201  -17.1252 C   0  0  0  0  0  0  0  0  0  0  0  0
   18.9522   -9.4260  -16.8211 O   0  0  0  0  0  0  0  0  0  0  0  0
   19.5785   -9.5740  -11.7560 C   0  0  0  0  0  0  0  0  0  0  0  0
   19.8436   -8.4854  -12.7372 C   0  0  0  0  0  0  0  0  0  0  0  0
   20.3200   -8.8288  -14.0812 C   0  0  2  0  0  0  0  0  0  0  0  0
   21.6184   -9.6603  -14.0122 C   0  0  0  0  0  0  0  0  0  0  0  0
   20.4969   -7.7977  -15.1248 C   0  0  2  0  0  0  0  0  0  0  0  0
   21.0123   -8.5156  -16.3403 N   0  0  0  0  0  0  0  0  0  0  0  0
   21.4303   -6.7264  -14.8692 C   0  0  0  0  0  0  0  0  0  0  0  0
   22.6785   -6.5780  -15.4420 O   0  0  0  0  0  0  0  0  0  0  0  0
   21.1393   -5.7865  -14.0315 O   0  0  0  0  0  0  0  0  0  0  0  0
  2  1  1  1
  3  2  1  0
  3  4  1  0
  5  4  1  0
  5  6  1  0
  6  7  1  0
  8  9  2  0
  8  2  1  0
 11 10  1  6
 11 13  1  0
 12 11  1  0
 13 14  1  6
 14  8  1  0
 15 22  1  0
 15 13  1  0
 16 15  2  0
 18 17  1  0
 19 21  1  0
 19 18  1  0
 19 20  1  1
 21 22  1  6
 23 21  1  0
 24 23  1  0
 25 23  2  0
M  END
$$$$
