KTI.pdb
     RDKit          3D

 25 24  0  0  1  0  0  0  0  0999 V2000
   22.7237  -21.0798   -8.8072 N   0  0  0  0  0  0  0  0  0  0  0  0
   22.5632  -21.1205  -10.2454 C   0  0  1  0  0  0  0  0  0  0  0  0
   21.2280  -20.4871  -10.5634 C   0  0  0  0  0  0  0  0  0  0  0  0
   20.3042  -21.6013  -11.0078 C   0  0  0  0  0  0  0  0  0  0  0  0
   19.4862  -22.1441   -9.8680 C   0  0  0  0  0  0  0  0  0  0  0  0
   18.4970  -23.1904  -10.3236 C   0  0  0  0  0  0  0  0  0  0  0  0
   18.7195  -24.4569   -9.6522 N   0  0  0  0  0  0  0  0  0  0  0  0
   23.6943  -20.4407  -10.8710 C   0  0  0  0  0  0  0  0  0  0  0  0
   24.1988  -19.4379  -10.3053 O   0  0  0  0  0  0  0  0  0  0  0  0
   27.1079  -21.4720  -11.2750 C   0  0  0  0  0  0  0  0  0  0  0  0
   26.6688  -21.0468  -12.6377 C   0  0  1  0  0  0  0  0  0  0  0  0
   26.5136  -22.1266  -13.4958 O   0  0  0  0  0  0  0  0  0  0  0  0
   25.4496  -20.1491  -12.6043 C   0  0  2  0  0  0  0  0  0  0  0  0
   24.2862  -20.8326  -12.1013 N   0  0  0  0  0  0  0  0  0  0  0  0
   25.2095  -19.5415  -13.9351 C   0  0  0  0  0  0  0  0  0  0  0  0
   24.1761  -19.8739  -14.5573 O   0  0  0  0  0  0  0  0  0  0  0  0
   26.0408  -14.0999  -16.4612 C   0  0  0  0  0  0  0  0  0  0  0  0
   25.8505  -15.5534  -16.7249 C   0  0  0  0  0  0  0  0  0  0  0  0
   25.9836  -16.5083  -15.6197 C   0  0  2  0  0  0  0  0  0  0  0  0
   27.3146  -16.3007  -14.8663 C   0  0  0  0  0  0  0  0  0  0  0  0
   25.8018  -17.9600  -15.8272 C   0  0  2  0  0  0  0  0  0  0  0  0
   26.1027  -18.6131  -14.5076 N   0  0  0  0  0  0  0  0  0  0  0  0
   26.6438  -18.6175  -16.7983 C   0  0  0  0  0  0  0  0  0  0  0  0
   26.4565  -18.6273  -18.1668 O   0  0  0  0  0  0  0  0  0  0  0  0
   27.6851  -19.2839  -16.4219 O   0  0  0  0  0  0  0  0  0  0  0  0
  2  1  1  1
  3  2  1  0
  3  4  1  0
  5  4  1  0
  5  6  1  0
  6  7  1  0
  8  9  2  0
  8  2  1  0
 11 10  1  1
 11 13  1  0
 12 11  1  0
 13 14  1  6
 14  8  1  0
 15 22  1  0
 15 13  1  0
 16 15  2  0
 18 17  1  0
 19 21  1  0
 19 18  1  0
 19 20  1  6
 21 22  1  1
 23 21  1  0
 24 23  1  0
 25 23  2  0
M  END
$$$$
