KTI.pdb
     RDKit          3D

 25 24  0  0  1  0  0  0  0  0999 V2000
   20.8509  -18.1655  -17.5630 N   0  0  0  0  0  0  0  0  0  0  0  0
   21.5620  -17.9855  -16.3149 C   0  0  1  0  0  0  0  0  0  0  0  0
   20.7942  -18.7373  -15.2517 C   0  0  0  0  0  0  0  0  0  0  0  0
   19.4805  -18.0102  -15.0569 C   0  0  0  0  0  0  0  0  0  0  0  0
   18.3000  -18.8752  -15.4047 C   0  0  0  0  0  0  0  0  0  0  0  0
   17.3484  -19.0354  -14.2430 C   0  0  0  0  0  0  0  0  0  0  0  0
   16.9103  -17.7485  -13.7366 N   0  0  0  0  0  0  0  0  0  0  0  0
   22.9371  -18.4496  -16.4782 C   0  0  0  0  0  0  0  0  0  0  0  0
   23.1509  -19.6601  -16.7403 O   0  0  0  0  0  0  0  0  0  0  0  0
   27.6987  -17.7544  -17.4554 C   0  0  0  0  0  0  0  0  0  0  0  0
   26.3114  -17.2223  -17.3049 C   0  0  1  0  0  0  0  0  0  0  0  0
   25.7704  -16.8263  -18.5203 O   0  0  0  0  0  0  0  0  0  0  0  0
   25.4041  -18.1653  -16.5429 C   0  0  2  0  0  0  0  0  0  0  0  0
   24.0839  -17.6195  -16.3612 N   0  0  0  0  0  0  0  0  0  0  0  0
   26.0251  -18.5662  -15.2579 C   0  0  0  0  0  0  0  0  0  0  0  0
   26.2570  -17.6745  -14.4114 O   0  0  0  0  0  0  0  0  0  0  0  0
   25.3610  -21.0893  -10.3006 C   0  0  0  0  0  0  0  0  0  0  0  0
   26.4343  -20.7843  -11.2872 C   0  0  0  0  0  0  0  0  0  0  0  0
   26.0695  -20.4714  -12.6730 C   0  0  2  0  0  0  0  0  0  0  0  0
   25.0368  -21.4821  -13.2150 C   0  0  0  0  0  0  0  0  0  0  0  0
   27.0974  -20.2702  -13.7155 C   0  0  2  0  0  0  0  0  0  0  0  0
   26.3556  -19.9064  -14.9708 N   0  0  0  0  0  0  0  0  0  0  0  0
   27.9412  -21.3893  -14.0615 C   0  0  0  0  0  0  0  0  0  0  0  0
   29.1735  -21.6828  -13.5106 O   0  0  0  0  0  0  0  0  0  0  0  0
   27.5750  -22.2331  -14.9691 O   0  0  0  0  0  0  0  0  0  0  0  0
  2  1  1  6
  3  2  1  0
  3  4  1  0
  5  4  1  0
  5  6  1  0
  6  7  1  0
  8  9  2  0
  8  2  1  0
 11 10  1  6
 11 13  1  0
 12 11  1  0
 13 14  1  1
 14  8  1  0
 15 22  1  0
 15 13  1  0
 16 15  2  0
 18 17  1  0
 19 21  1  0
 19 18  1  0
 19 20  1  6
 21 22  1  6
 23 21  1  0
 24 23  1  0
 25 23  2  0
M  END
$$$$
