KTI.pdb
     RDKit          3D

 25 24  0  0  1  0  0  0  0  0999 V2000
   25.1811  -20.8232  -16.3192 N   0  0  0  0  0  0  0  0  0  0  0  0
   26.2221  -20.8794  -15.3148 C   0  0  1  0  0  0  0  0  0  0  0  0
   27.4467  -20.2175  -15.9042 C   0  0  0  0  0  0  0  0  0  0  0  0
   28.5778  -21.2201  -15.8153 C   0  0  0  0  0  0  0  0  0  0  0  0
   28.6140  -22.1368  -17.0074 C   0  0  0  0  0  0  0  0  0  0  0  0
   29.3984  -21.5481  -18.1558 C   0  0  0  0  0  0  0  0  0  0  0  0
   29.4401  -22.4543  -19.2879 N   0  0  0  0  0  0  0  0  0  0  0  0
   25.7428  -20.2362  -14.0945 C   0  0  0  0  0  0  0  0  0  0  0  0
   25.0483  -19.1921  -14.1812 O   0  0  0  0  0  0  0  0  0  0  0  0
   23.3581  -19.4259  -13.0314 C   0  0  0  0  0  0  0  0  0  0  0  0
   23.8130  -20.1760  -11.8227 C   0  0  1  0  0  0  0  0  0  0  0  0
   23.2969  -21.4639  -11.7837 O   0  0  0  0  0  0  0  0  0  0  0  0
   25.3170  -20.1456  -11.6487 C   0  0  2  0  0  0  0  0  0  0  0  0
   26.0057  -20.7090  -12.7810 N   0  0  0  0  0  0  0  0  0  0  0  0
   25.7107  -20.7944  -10.3753 C   0  0  0  0  0  0  0  0  0  0  0  0
   25.8558  -22.0371  -10.3668 O   0  0  0  0  0  0  0  0  0  0  0  0
   28.7931  -19.3749   -5.2567 C   0  0  0  0  0  0  0  0  0  0  0  0
   27.7730  -20.2539   -5.8929 C   0  0  0  0  0  0  0  0  0  0  0  0
   27.2350  -19.8953   -7.2095 C   0  0  2  0  0  0  0  0  0  0  0  0
   26.7012  -18.4472   -7.2133 C   0  0  0  0  0  0  0  0  0  0  0  0
   26.2411  -20.7468   -7.8956 C   0  0  2  0  0  0  0  0  0  0  0  0
   25.9222  -20.0572   -9.1923 N   0  0  0  0  0  0  0  0  0  0  0  0
   24.9737  -20.9719   -7.2420 C   0  0  0  0  0  0  0  0  0  0  0  0
   23.7509  -20.4649   -7.6366 O   0  0  0  0  0  0  0  0  0  0  0  0
   24.9031  -21.7015   -6.1777 O   0  0  0  0  0  0  0  0  0  0  0  0
  2  1  1  6
  3  2  1  0
  3  4  1  0
  5  4  1  0
  5  6  1  0
  6  7  1  0
  8  9  2  0
  8  2  1  0
 11 10  1  6
 11 13  1  0
 12 11  1  0
 13 14  1  6
 14  8  1  0
 15 22  1  0
 15 13  1  0
 16 15  2  0
 18 17  1  0
 19 21  1  0
 19 18  1  0
 19 20  1  1
 21 22  1  6
 23 21  1  0
 24 23  1  0
 25 23  2  0
M  END
$$$$
