KTI.pdb
     RDKit          3D

 25 24  0  0  1  0  0  0  0  0999 V2000
   25.1118  -18.6292  -18.5114 N   0  0  0  0  0  0  0  0  0  0  0  0
   24.2559  -17.9457  -17.5649 C   0  0  1  0  0  0  0  0  0  0  0  0
   23.8817  -16.6168  -18.1808 C   0  0  0  0  0  0  0  0  0  0  0  0
   24.9135  -16.3171  -19.2474 C   0  0  0  0  0  0  0  0  0  0  0  0
   24.2940  -15.7108  -20.4769 C   0  0  0  0  0  0  0  0  0  0  0  0
   23.7759  -14.3148  -20.2251 C   0  0  0  0  0  0  0  0  0  0  0  0
   23.3068  -13.6954  -21.4502 N   0  0  0  0  0  0  0  0  0  0  0  0
   23.1050  -18.7931  -17.2642 C   0  0  0  0  0  0  0  0  0  0  0  0
   22.8294  -19.7509  -18.0301 O   0  0  0  0  0  0  0  0  0  0  0  0
   22.6935  -21.5189  -15.8109 C   0  0  0  0  0  0  0  0  0  0  0  0
   21.6197  -20.7500  -15.1136 C   0  0  1  0  0  0  0  0  0  0  0  0
   21.9649  -20.4424  -13.8049 O   0  0  0  0  0  0  0  0  0  0  0  0
   21.1680  -19.5359  -15.8978 C   0  0  2  0  0  0  0  0  0  0  0  0
   22.2486  -18.6166  -16.1447 N   0  0  0  0  0  0  0  0  0  0  0  0
   20.0172  -18.8801  -15.2320 C   0  0  0  0  0  0  0  0  0  0  0  0
   20.2475  -17.9095  -14.4769 O   0  0  0  0  0  0  0  0  0  0  0  0
   14.5588  -16.8506  -16.4501 C   0  0  0  0  0  0  0  0  0  0  0  0
   15.3711  -17.4945  -15.3807 C   0  0  0  0  0  0  0  0  0  0  0  0
   16.6490  -18.1246  -15.7291 C   0  0  2  0  0  0  0  0  0  0  0  0
   16.4545  -19.2097  -16.8092 C   0  0  0  0  0  0  0  0  0  0  0  0
   17.5478  -18.6729  -14.6922 C   0  0  2  0  0  0  0  0  0  0  0  0
   18.6906  -19.3165  -15.4258 N   0  0  0  0  0  0  0  0  0  0  0  0
   17.0235  -19.6843  -13.8054 C   0  0  0  0  0  0  0  0  0  0  0  0
   17.4118  -21.0091  -13.7588 O   0  0  0  0  0  0  0  0  0  0  0  0
   16.0964  -19.3950  -12.9529 O   0  0  0  0  0  0  0  0  0  0  0  0
  2  1  1  6
  3  2  1  0
  3  4  1  0
  5  4  1  0
  5  6  1  0
  6  7  1  0
  8  9  2  0
  8  2  1  0
 11 10  1  6
 11 13  1  0
 12 11  1  0
 13 14  1  1
 14  8  1  0
 15 22  1  0
 15 13  1  0
 16 15  2  0
 18 17  1  0
 19 21  1  0
 19 18  1  0
 19 20  1  6
 21 22  1  6
 23 21  1  0
 24 23  1  0
 25 23  2  0
M  END
$$$$
