KTI.pdb
     RDKit          3D

 25 24  0  0  1  0  0  0  0  0999 V2000
   18.4048  -14.3430  -17.2314 N   0  0  0  0  0  0  0  0  0  0  0  0
   18.9790  -13.1939  -17.8987 C   0  0  1  0  0  0  0  0  0  0  0  0
   17.9000  -12.6028  -18.7770 C   0  0  0  0  0  0  0  0  0  0  0  0
   17.5131  -13.6683  -19.7807 C   0  0  0  0  0  0  0  0  0  0  0  0
   18.6235  -13.9563  -20.7538 C   0  0  0  0  0  0  0  0  0  0  0  0
   18.1909  -14.9016  -21.8492 C   0  0  0  0  0  0  0  0  0  0  0  0
   17.1667  -14.3073  -22.6872 N   0  0  0  0  0  0  0  0  0  0  0  0
   19.4871  -12.2636  -16.8942 C   0  0  0  0  0  0  0  0  0  0  0  0
   18.7729  -11.9825  -15.8987 O   0  0  0  0  0  0  0  0  0  0  0  0
   23.0186   -9.7939  -14.5484 C   0  0  0  0  0  0  0  0  0  0  0  0
   22.5747  -10.8534  -15.5028 C   0  0  1  0  0  0  0  0  0  0  0  0
   22.8157  -12.1298  -15.0136 O   0  0  0  0  0  0  0  0  0  0  0  0
   21.1431  -10.6651  -15.9593 C   0  0  2  0  0  0  0  0  0  0  0  0
   20.7588  -11.6335  -16.9536 N   0  0  0  0  0  0  0  0  0  0  0  0
   20.9178   -9.2735  -16.4177 C   0  0  0  0  0  0  0  0  0  0  0  0
   21.1738   -8.9968  -17.6108 O   0  0  0  0  0  0  0  0  0  0  0  0
   16.2868   -6.5929  -15.6139 C   0  0  0  0  0  0  0  0  0  0  0  0
   17.7173   -6.8410  -15.2817 C   0  0  0  0  0  0  0  0  0  0  0  0
   18.7195   -6.8133  -16.3522 C   0  0  2  0  0  0  0  0  0  0  0  0
   18.4076   -7.8735  -17.4296 C   0  0  0  0  0  0  0  0  0  0  0  0
   20.1661   -6.8781  -16.0576 C   0  0  2  0  0  0  0  0  0  0  0  0
   20.4298   -8.2700  -15.5559 N   0  0  0  0  0  0  0  0  0  0  0  0
   20.6949   -5.9859  -15.0534 C   0  0  0  0  0  0  0  0  0  0  0  0
   21.1280   -6.3431  -13.7913 O   0  0  0  0  0  0  0  0  0  0  0  0
   20.7949   -4.7187  -15.2866 O   0  0  0  0  0  0  0  0  0  0  0  0
  2  1  1  1
  3  2  1  0
  3  4  1  0
  5  4  1  0
  5  6  1  0
  6  7  1  0
  8  9  2  0
  8  2  1  0
 11 10  1  1
 11 13  1  0
 12 11  1  0
 13 14  1  6
 14  8  1  0
 15 22  1  0
 15 13  1  0
 16 15  2  0
 18 17  1  0
 19 21  1  0
 19 18  1  0
 19 20  1  6
 21 22  1  1
 23 21  1  0
 24 23  1  0
 25 23  2  0
M  END
$$$$
