KTI.pdb
     RDKit          3D

 25 24  0  0  1  0  0  0  0  0999 V2000
   15.1005  -12.3492  -19.2639 N   0  0  0  0  0  0  0  0  0  0  0  0
   15.2247  -11.3825  -18.1935 C   0  0  1  0  0  0  0  0  0  0  0  0
   15.0000  -12.1233  -16.8951 C   0  0  0  0  0  0  0  0  0  0  0  0
   13.6483  -12.7976  -16.9984 C   0  0  0  0  0  0  0  0  0  0  0  0
   13.2468  -13.4571  -15.7073 C   0  0  0  0  0  0  0  0  0  0  0  0
   11.8701  -14.0729  -15.7856 C   0  0  0  0  0  0  0  0  0  0  0  0
   11.5340  -14.7750  -14.5614 N   0  0  0  0  0  0  0  0  0  0  0  0
   16.5341  -10.7414  -18.2793 C   0  0  0  0  0  0  0  0  0  0  0  0
   17.4458  -11.2913  -18.9475 O   0  0  0  0  0  0  0  0  0  0  0  0
   17.6888   -7.6034  -19.8362 C   0  0  0  0  0  0  0  0  0  0  0  0
   18.1653   -7.5792  -18.4210 C   0  0  1  0  0  0  0  0  0  0  0  0
   17.4735   -6.6521  -17.6540 O   0  0  0  0  0  0  0  0  0  0  0  0
   18.1899   -8.9555  -17.7898 C   0  0  2  0  0  0  0  0  0  0  0  0
   16.8692   -9.5124  -17.6509 N   0  0  0  0  0  0  0  0  0  0  0  0
   18.9236   -8.9285  -16.5019 C   0  0  0  0  0  0  0  0  0  0  0  0
   18.2696   -9.0871  -15.4472 O   0  0  0  0  0  0  0  0  0  0  0  0
   22.6290  -10.9919  -13.1231 C   0  0  0  0  0  0  0  0  0  0  0  0
   23.0624  -10.0245  -14.1693 C   0  0  0  0  0  0  0  0  0  0  0  0
   22.1564   -9.7120  -15.2796 C   0  0  2  0  0  0  0  0  0  0  0  0
   22.9473   -9.3168  -16.5446 C   0  0  0  0  0  0  0  0  0  0  0  0
   21.0441   -8.7520  -15.1218 C   0  0  2  0  0  0  0  0  0  0  0  0
   20.3182   -8.7316  -16.4376 N   0  0  0  0  0  0  0  0  0  0  0  0
   21.3709   -7.3773  -14.8259 C   0  0  0  0  0  0  0  0  0  0  0  0
   21.5534   -6.3654  -15.7482 O   0  0  0  0  0  0  0  0  0  0  0  0
   21.5290   -6.9873  -13.6040 O   0  0  0  0  0  0  0  0  0  0  0  0
  2  1  1  6
  3  2  1  0
  3  4  1  0
  5  4  1  0
  5  6  1  0
  6  7  1  0
  8  9  2  0
  8  2  1  0
 11 10  1  6
 11 13  1  0
 12 11  1  0
 13 14  1  1
 14  8  1  0
 15 22  1  0
 15 13  1  0
 16 15  2  0
 18 17  1  0
 19 21  1  0
 19 18  1  0
 19 20  1  6
 21 22  1  6
 23 21  1  0
 24 23  1  0
 25 23  2  0
M  END
$$$$
