VKV.pdb
     RDKit          3D

 24 23  0  0  1  0  0  0  0  0999 V2000
    8.2721  -12.9579   18.1384 C   0  0  0  0  0  0  0  0  0  0  0  0
    7.8220  -13.5357   19.4550 C   0  0  2  0  0  0  0  0  0  0  0  0
    8.4540  -12.7231   20.5602 C   0  0  0  0  0  0  0  0  0  0  0  0
    8.1316  -15.0012   19.5746 C   0  0  2  0  0  0  0  0  0  0  0  0
    7.5152  -15.6905   18.4734 N   0  0  0  0  0  0  0  0  0  0  0  0
    7.6651  -15.5628   20.8498 C   0  0  0  0  0  0  0  0  0  0  0  0
    6.4135  -15.6775   21.0865 O   0  0  0  0  0  0  0  0  0  0  0  0
    8.5241  -16.0141   21.8869 N   0  0  0  0  0  0  0  0  0  0  0  0
    8.1301  -16.5042   23.1492 C   0  0  1  0  0  0  0  0  0  0  0  0
    8.6791  -17.8456   23.5514 C   0  0  0  0  0  0  0  0  0  0  0  0
    8.1766  -18.2439   24.9253 C   0  0  0  0  0  0  0  0  0  0  0  0
    8.7530  -19.5475   25.4185 C   0  0  0  0  0  0  0  0  0  0  0  0
    8.1275  -19.9507   26.7428 C   0  0  0  0  0  0  0  0  0  0  0  0
    6.8305  -20.5706   26.5719 N   0  0  0  0  0  0  0  0  0  0  0  0
    8.4075  -15.5513   24.2412 C   0  0  0  0  0  0  0  0  0  0  0  0
    9.5964  -15.1052   24.3541 O   0  0  0  0  0  0  0  0  0  0  0  0
    7.4979  -11.8874   27.3679 C   0  0  0  0  0  0  0  0  0  0  0  0
    6.9331  -12.9986   26.5003 C   0  0  1  0  0  0  0  0  0  0  0  0
    6.3251  -12.3075   25.2910 C   0  0  0  0  0  0  0  0  0  0  0  0
    7.9275  -14.0189   26.1152 C   0  0  2  0  0  0  0  0  0  0  0  0
    7.4979  -15.0599   25.2086 N   0  0  0  0  0  0  0  0  0  0  0  0
    8.5530  -14.6600   27.3480 C   0  0  0  0  0  0  0  0  0  0  0  0
    9.5394  -14.0098   28.0578 O   0  0  0  0  0  0  0  0  0  0  0  0
    8.2078  -15.7788   27.7619 O   0  0  0  0  0  0  0  0  0  0  0  0
  2  1  1  6
  2  4  1  0
  2  3  1  0
  4  5  1  6
  6  4  1  0
  7  6  2  0
  8  6  1  0
  9 10  1  1
  9  8  1  0
 10 11  1  0
 11 12  1  0
 13 12  1  0
 14 13  1  0
 15  9  1  0
 16 15  2  0
 18 17  1  1
 18 19  1  0
 18 20  1  0
 20 21  1  1
 21 15  1  0
 22 20  1  0
 22 23  1  0
 24 22  2  0
M  END
$$$$
