VKV.pdb
     RDKit          3D

 24 23  0  0  1  0  0  0  0  0999 V2000
    7.0719  -12.9370   20.0029 C   0  0  0  0  0  0  0  0  0  0  0  0
    8.4232  -13.5536   19.7505 C   0  0  2  0  0  0  0  0  0  0  0  0
    8.9547  -12.9945   18.4521 C   0  0  0  0  0  0  0  0  0  0  0  0
    8.3777  -15.0555   19.7499 C   0  0  2  0  0  0  0  0  0  0  0  0
    7.6503  -15.4909   18.5884 N   0  0  0  0  0  0  0  0  0  0  0  0
    7.7547  -15.5905   20.9684 C   0  0  0  0  0  0  0  0  0  0  0  0
    6.4851  -15.7279   21.0388 O   0  0  0  0  0  0  0  0  0  0  0  0
    8.4748  -15.9906   22.1254 N   0  0  0  0  0  0  0  0  0  0  0  0
    7.9235  -16.4192   23.3506 C   0  0  1  0  0  0  0  0  0  0  0  0
    8.2859  -17.8073   23.8026 C   0  0  0  0  0  0  0  0  0  0  0  0
    7.5545  -18.1662   25.0812 C   0  0  0  0  0  0  0  0  0  0  0  0
    7.9434  -19.5141   25.6349 C   0  0  0  0  0  0  0  0  0  0  0  0
    7.1240  -19.8507   26.8690 C   0  0  0  0  0  0  0  0  0  0  0  0
    7.4077  -21.1782   27.3718 N   0  0  0  0  0  0  0  0  0  0  0  0
    8.2096  -15.4886   24.4595 C   0  0  0  0  0  0  0  0  0  0  0  0
    9.4272  -15.1822   24.6802 O   0  0  0  0  0  0  0  0  0  0  0  0
    7.3133  -11.6214   27.3620 C   0  0  0  0  0  0  0  0  0  0  0  0
    6.7330  -12.7708   26.5566 C   0  0  1  0  0  0  0  0  0  0  0  0
    6.1008  -12.1353   25.3294 C   0  0  0  0  0  0  0  0  0  0  0  0
    7.7210  -13.8071   26.1986 C   0  0  2  0  0  0  0  0  0  0  0  0
    7.2792  -14.8801   25.3363 N   0  0  0  0  0  0  0  0  0  0  0  0
    8.3593  -14.4033   27.4473 C   0  0  0  0  0  0  0  0  0  0  0  0
    8.2089  -15.7402   27.7470 O   0  0  0  0  0  0  0  0  0  0  0  0
    9.0326  -13.7227   28.2382 O   0  0  0  0  0  0  0  0  0  0  0  0
  2  1  1  6
  2  4  1  0
  2  3  1  0
  4  5  1  6
  6  4  1  0
  7  6  2  0
  8  6  1  0
  9 10  1  1
  9  8  1  0
 10 11  1  0
 11 12  1  0
 13 12  1  0
 14 13  1  0
 15  9  1  0
 16 15  2  0
 18 17  1  6
 18 19  1  0
 18 20  1  0
 20 21  1  1
 21 15  1  0
 22 20  1  0
 22 23  1  0
 24 22  2  0
M  END
$$$$
