VKV.pdb
     RDKit          3D

 24 23  0  0  1  0  0  0  0  0999 V2000
    8.3021  -12.9559   18.2470 C   0  0  0  0  0  0  0  0  0  0  0  0
    7.7434  -13.5295   19.5233 C   0  0  2  0  0  0  0  0  0  0  0  0
    8.2796  -12.7122   20.6746 C   0  0  0  0  0  0  0  0  0  0  0  0
    8.0432  -14.9942   19.6738 C   0  0  2  0  0  0  0  0  0  0  0  0
    7.5308  -15.6869   18.5226 N   0  0  0  0  0  0  0  0  0  0  0  0
    7.4633  -15.5540   20.9024 C   0  0  0  0  0  0  0  0  0  0  0  0
    6.1943  -15.6042   21.0539 O   0  0  0  0  0  0  0  0  0  0  0  0
    8.2258  -16.0720   21.9829 N   0  0  0  0  0  0  0  0  0  0  0  0
    7.7283  -16.5056   23.2292 C   0  0  1  0  0  0  0  0  0  0  0  0
    8.0813  -17.9078   23.6437 C   0  0  0  0  0  0  0  0  0  0  0  0
    7.5541  -18.2082   25.0330 C   0  0  0  0  0  0  0  0  0  0  0  0
    7.9393  -19.5768   25.5363 C   0  0  0  0  0  0  0  0  0  0  0  0
    7.2631  -19.8773   26.8630 C   0  0  0  0  0  0  0  0  0  0  0  0
    7.7234  -21.1201   27.4454 N   0  0  0  0  0  0  0  0  0  0  0  0
    8.0925  -15.5976   24.3339 C   0  0  0  0  0  0  0  0  0  0  0  0
    9.3181  -15.2679   24.4539 O   0  0  0  0  0  0  0  0  0  0  0  0
    7.4452  -11.8716   27.4692 C   0  0  0  0  0  0  0  0  0  0  0  0
    6.7998  -12.9643   26.6350 C   0  0  1  0  0  0  0  0  0  0  0  0
    6.1416  -12.2534   25.4640 C   0  0  0  0  0  0  0  0  0  0  0  0
    7.7412  -14.0108   26.1911 C   0  0  2  0  0  0  0  0  0  0  0  0
    7.2315  -15.0347   25.3068 N   0  0  0  0  0  0  0  0  0  0  0  0
    8.4163  -14.6754   27.3847 C   0  0  0  0  0  0  0  0  0  0  0  0
    8.1922  -16.0046   27.6721 O   0  0  0  0  0  0  0  0  0  0  0  0
    9.1862  -14.0595   28.1396 O   0  0  0  0  0  0  0  0  0  0  0  0
  2  1  1  6
  2  4  1  0
  2  3  1  0
  4  5  1  6
  6  4  1  0
  7  6  2  0
  8  6  1  0
  9 10  1  1
  9  8  1  0
 10 11  1  0
 11 12  1  0
 13 12  1  0
 14 13  1  0
 15  9  1  0
 16 15  2  0
 18 17  1  6
 18 19  1  0
 18 20  1  0
 20 21  1  1
 21 15  1  0
 22 20  1  0
 22 23  1  0
 24 22  2  0
M  END
$$$$
