VKV.pdb
     RDKit          3D

 24 23  0  0  1  0  0  0  0  0999 V2000
    8.3460  -12.8559   18.0370 C   0  0  0  0  0  0  0  0  0  0  0  0
    7.7444  -13.4935   19.2624 C   0  0  2  0  0  0  0  0  0  0  0  0
    8.0305  -12.5954   20.4424 C   0  0  0  0  0  0  0  0  0  0  0  0
    8.2365  -14.8965   19.4796 C   0  0  2  0  0  0  0  0  0  0  0  0
    7.9081  -15.6814   18.3203 N   0  0  0  0  0  0  0  0  0  0  0  0
    7.6574  -15.5054   20.6850 C   0  0  0  0  0  0  0  0  0  0  0  0
    6.5101  -16.0687   20.6376 O   0  0  0  0  0  0  0  0  0  0  0  0
    8.2936  -15.5271   21.9547 N   0  0  0  0  0  0  0  0  0  0  0  0
    7.8395  -16.1970   23.1095 C   0  0  1  0  0  0  0  0  0  0  0  0
    8.1918  -17.6548   23.2240 C   0  0  0  0  0  0  0  0  0  0  0  0
    7.7046  -18.2255   24.5415 C   0  0  0  0  0  0  0  0  0  0  0  0
    8.0492  -19.6821   24.7267 C   0  0  0  0  0  0  0  0  0  0  0  0
    7.4683  -20.2163   26.0246 C   0  0  0  0  0  0  0  0  0  0  0  0
    7.7068  -21.6344   26.1910 N   0  0  0  0  0  0  0  0  0  0  0  0
    8.2565  -15.5272   24.3565 C   0  0  0  0  0  0  0  0  0  0  0  0
    9.4886  -15.2275   24.4878 O   0  0  0  0  0  0  0  0  0  0  0  0
    7.5017  -12.0065   27.6318 C   0  0  0  0  0  0  0  0  0  0  0  0
    6.9446  -13.0477   26.6768 C   0  0  1  0  0  0  0  0  0  0  0  0
    6.5196  -12.2814   25.4351 C   0  0  0  0  0  0  0  0  0  0  0  0
    7.8913  -14.1351   26.3614 C   0  0  2  0  0  0  0  0  0  0  0  0
    7.4412  -15.1698   25.4576 N   0  0  0  0  0  0  0  0  0  0  0  0
    8.4186  -14.7828   27.6359 C   0  0  0  0  0  0  0  0  0  0  0  0
    9.3222  -14.1232   28.4409 O   0  0  0  0  0  0  0  0  0  0  0  0
    8.0637  -15.9156   28.0007 O   0  0  0  0  0  0  0  0  0  0  0  0
  2  1  1  6
  2  4  1  0
  2  3  1  0
  4  5  1  6
  6  4  1  0
  7  6  2  0
  8  6  1  0
  9 10  1  1
  9  8  1  0
 10 11  1  0
 11 12  1  0
 13 12  1  0
 14 13  1  0
 15  9  1  0
 16 15  2  0
 18 17  1  1
 18 19  1  0
 18 20  1  0
 20 21  1  6
 21 15  1  0
 22 20  1  0
 22 23  1  0
 24 22  2  0
M  END
$$$$
