VKV.pdb
     RDKit          3D

 24 23  0  0  1  0  0  0  0  0999 V2000
    7.7233  -13.2045   18.6149 C   0  0  0  0  0  0  0  0  0  0  0  0
    7.3847  -13.7796   19.9656 C   0  0  2  0  0  0  0  0  0  0  0  0
    8.2563  -13.0978   20.9935 C   0  0  0  0  0  0  0  0  0  0  0  0
    7.5207  -15.2756   20.0029 C   0  0  2  0  0  0  0  0  0  0  0  0
    6.6957  -15.8362   18.9671 N   0  0  0  0  0  0  0  0  0  0  0  0
    7.1435  -15.8329   21.3092 C   0  0  0  0  0  0  0  0  0  0  0  0
    5.9271  -15.7930   21.7023 O   0  0  0  0  0  0  0  0  0  0  0  0
    8.0545  -16.4440   22.2113 N   0  0  0  0  0  0  0  0  0  0  0  0
    7.7677  -16.8957   23.5161 C   0  0  1  0  0  0  0  0  0  0  0  0
    8.1643  -18.3098   23.8409 C   0  0  0  0  0  0  0  0  0  0  0  0
    7.7392  -18.6792   25.2485 C   0  0  0  0  0  0  0  0  0  0  0  0
    7.5614  -20.1633   25.4499 C   0  0  0  0  0  0  0  0  0  0  0  0
    6.9585  -20.4575   26.8129 C   0  0  0  0  0  0  0  0  0  0  0  0
    6.6159  -21.8550   26.9722 N   0  0  0  0  0  0  0  0  0  0  0  0
    8.3267  -16.0138   24.5589 C   0  0  0  0  0  0  0  0  0  0  0  0
    9.5185  -15.5889   24.4030 O   0  0  0  0  0  0  0  0  0  0  0  0
    8.2383  -12.3724   27.7939 C   0  0  0  0  0  0  0  0  0  0  0  0
    7.4744  -13.4499   27.0442 C   0  0  1  0  0  0  0  0  0  0  0  0
    6.7464  -12.7316   25.9201 C   0  0  0  0  0  0  0  0  0  0  0  0
    8.3263  -14.5460   26.5428 C   0  0  2  0  0  0  0  0  0  0  0  0
    7.6924  -15.5715   25.7450 N   0  0  0  0  0  0  0  0  0  0  0  0
    9.0906  -15.2053   27.6843 C   0  0  0  0  0  0  0  0  0  0  0  0
   10.1912  -14.5923   28.2434 O   0  0  0  0  0  0  0  0  0  0  0  0
    8.7618  -16.3066   28.1545 O   0  0  0  0  0  0  0  0  0  0  0  0
  2  1  1  6
  2  4  1  0
  2  3  1  0
  4  5  1  6
  6  4  1  0
  7  6  2  0
  8  6  1  0
  9 10  1  1
  9  8  1  0
 10 11  1  0
 11 12  1  0
 13 12  1  0
 14 13  1  0
 15  9  1  0
 16 15  2  0
 18 17  1  6
 18 19  1  0
 18 20  1  0
 20 21  1  1
 21 15  1  0
 22 20  1  0
 22 23  1  0
 24 22  2  0
M  END
$$$$
