VKV.pdb
     RDKit          3D

 24 23  0  0  1  0  0  0  0  0999 V2000
    7.9105  -12.6886   19.2035 C   0  0  0  0  0  0  0  0  0  0  0  0
    7.7247  -13.4116   20.5122 C   0  0  2  0  0  0  0  0  0  0  0  0
    8.7198  -12.8497   21.4996 C   0  0  0  0  0  0  0  0  0  0  0  0
    7.8440  -14.9023   20.3663 C   0  0  2  0  0  0  0  0  0  0  0  0
    6.8938  -15.3434   19.3813 N   0  0  0  0  0  0  0  0  0  0  0  0
    7.6179  -15.6024   21.6383 C   0  0  0  0  0  0  0  0  0  0  0  0
    6.4450  -15.6604   22.1449 O   0  0  0  0  0  0  0  0  0  0  0  0
    8.6357  -16.2538   22.3847 N   0  0  0  0  0  0  0  0  0  0  0  0
    8.4770  -16.9173   23.6189 C   0  0  1  0  0  0  0  0  0  0  0  0
    8.7894  -18.3886   23.6369 C   0  0  0  0  0  0  0  0  0  0  0  0
    8.6530  -18.9517   25.0379 C   0  0  0  0  0  0  0  0  0  0  0  0
    9.0623  -20.3994   25.1435 C   0  0  0  0  0  0  0  0  0  0  0  0
    8.8316  -20.9275   26.5490 C   0  0  0  0  0  0  0  0  0  0  0  0
    9.2181  -22.3159   26.6849 N   0  0  0  0  0  0  0  0  0  0  0  0
    9.2349  -16.2763   24.7108 C   0  0  0  0  0  0  0  0  0  0  0  0
   10.4644  -16.0092   24.5049 O   0  0  0  0  0  0  0  0  0  0  0  0
   10.2024  -13.2695   28.3724 C   0  0  0  0  0  0  0  0  0  0  0  0
    9.1949  -13.9328   27.4497 C   0  0  1  0  0  0  0  0  0  0  0  0
    8.9140  -12.9205   26.3515 C   0  0  0  0  0  0  0  0  0  0  0  0
    9.6456  -15.2295   26.9076 C   0  0  2  0  0  0  0  0  0  0  0  0
    8.7589  -15.9148   25.9943 N   0  0  0  0  0  0  0  0  0  0  0  0
   10.0352  -16.1819   28.0315 C   0  0  0  0  0  0  0  0  0  0  0  0
   11.2468  -16.0547   28.6760 O   0  0  0  0  0  0  0  0  0  0  0  0
    9.2908  -17.1006   28.4110 O   0  0  0  0  0  0  0  0  0  0  0  0
  2  1  1  6
  2  4  1  0
  2  3  1  0
  4  5  1  6
  6  4  1  0
  7  6  2  0
  8  6  1  0
  9 10  1  6
  9  8  1  0
 10 11  1  0
 11 12  1  0
 13 12  1  0
 14 13  1  0
 15  9  1  0
 16 15  2  0
 18 17  1  1
 18 19  1  0
 18 20  1  0
 20 21  1  1
 21 15  1  0
 22 20  1  0
 22 23  1  0
 24 22  2  0
M  END
$$$$
