VKV.pdb
     RDKit          3D

 24 23  0  0  1  0  0  0  0  0999 V2000
    7.1118  -12.7697   20.0105 C   0  0  0  0  0  0  0  0  0  0  0  0
    8.4795  -13.2757   19.6321 C   0  0  2  0  0  0  0  0  0  0  0  0
    8.8013  -12.7581   18.2503 C   0  0  0  0  0  0  0  0  0  0  0  0
    8.5824  -14.7722   19.7201 C   0  0  2  0  0  0  0  0  0  0  0  0
    7.7694  -15.3486   18.6835 N   0  0  0  0  0  0  0  0  0  0  0  0
    8.1634  -15.2791   21.0341 C   0  0  0  0  0  0  0  0  0  0  0  0
    6.9358  -15.5599   21.2575 O   0  0  0  0  0  0  0  0  0  0  0  0
    9.0457  -15.4983   22.1253 N   0  0  0  0  0  0  0  0  0  0  0  0
    8.7130  -16.0659   23.3726 C   0  0  1  0  0  0  0  0  0  0  0  0
    9.4234  -17.3388   23.7436 C   0  0  0  0  0  0  0  0  0  0  0  0
    9.0577  -18.4584   22.7890 C   0  0  0  0  0  0  0  0  0  0  0  0
    9.7760  -19.7521   23.0807 C   0  0  0  0  0  0  0  0  0  0  0  0
    9.3730  -20.8316   22.0908 C   0  0  0  0  0  0  0  0  0  0  0  0
   10.1719  -22.0308   22.2299 N   0  0  0  0  0  0  0  0  0  0  0  0
    8.8677  -15.1144   24.4899 C   0  0  0  0  0  0  0  0  0  0  0  0
    9.9887  -14.5203   24.6147 O   0  0  0  0  0  0  0  0  0  0  0  0
    6.9834  -11.8606   25.5937 C   0  0  0  0  0  0  0  0  0  0  0  0
    7.2942  -12.7421   26.7907 C   0  0  1  0  0  0  0  0  0  0  0  0
    5.9543  -13.2818   27.2630 C   0  0  0  0  0  0  0  0  0  0  0  0
    8.2574  -13.8224   26.5021 C   0  0  2  0  0  0  0  0  0  0  0  0
    7.9052  -14.7717   25.4702 N   0  0  0  0  0  0  0  0  0  0  0  0
    8.6196  -14.5809   27.7731 C   0  0  0  0  0  0  0  0  0  0  0  0
    9.2949  -13.9562   28.7994 O   0  0  0  0  0  0  0  0  0  0  0  0
    8.3274  -15.7764   27.9387 O   0  0  0  0  0  0  0  0  0  0  0  0
  2  1  1  6
  2  4  1  0
  2  3  1  0
  4  5  1  6
  6  4  1  0
  7  6  2  0
  8  6  1  0
  9 10  1  1
  9  8  1  0
 10 11  1  0
 11 12  1  0
 13 12  1  0
 14 13  1  0
 15  9  1  0
 16 15  2  0
 18 17  1  6
 18 19  1  0
 18 20  1  0
 20 21  1  6
 21 15  1  0
 22 20  1  0
 22 23  1  0
 24 22  2  0
M  END
$$$$
