VKV.pdb
     RDKit          3D

 24 23  0  0  1  0  0  0  0  0999 V2000
    7.1486  -12.8100   19.9823 C   0  0  0  0  0  0  0  0  0  0  0  0
    8.3146  -13.7081   19.6600 C   0  0  2  0  0  0  0  0  0  0  0  0
    8.8133  -13.3463   18.2810 C   0  0  0  0  0  0  0  0  0  0  0  0
    7.9664  -15.1651   19.7777 C   0  0  2  0  0  0  0  0  0  0  0  0
    7.0098  -15.4912   18.7548 N   0  0  0  0  0  0  0  0  0  0  0  0
    7.4260  -15.4994   21.1026 C   0  0  0  0  0  0  0  0  0  0  0  0
    6.1685  -15.4295   21.3245 O   0  0  0  0  0  0  0  0  0  0  0  0
    8.2161  -15.9168   22.2065 N   0  0  0  0  0  0  0  0  0  0  0  0
    7.7435  -16.3102   23.4757 C   0  0  1  0  0  0  0  0  0  0  0  0
    8.0103  -17.7338   23.8815 C   0  0  0  0  0  0  0  0  0  0  0  0
    7.5221  -17.9926   25.2933 C   0  0  0  0  0  0  0  0  0  0  0  0
    7.8012  -19.3940   25.7756 C   0  0  0  0  0  0  0  0  0  0  0  0
    7.0959  -19.6649   27.0934 C   0  0  0  0  0  0  0  0  0  0  0  0
    7.4799  -20.9354   27.6713 N   0  0  0  0  0  0  0  0  0  0  0  0
    8.2219  -15.4294   24.5587 C   0  0  0  0  0  0  0  0  0  0  0  0
    9.4691  -15.1700   24.6078 O   0  0  0  0  0  0  0  0  0  0  0  0
    6.8016  -11.8443   25.8444 C   0  0  0  0  0  0  0  0  0  0  0  0
    7.2950  -12.7480   26.9608 C   0  0  1  0  0  0  0  0  0  0  0  0
    6.0509  -13.1845   27.7168 C   0  0  0  0  0  0  0  0  0  0  0  0
    8.0907  -13.8983   26.4898 C   0  0  2  0  0  0  0  0  0  0  0  0
    7.4520  -14.8234   25.5808 N   0  0  0  0  0  0  0  0  0  0  0  0
    8.6697  -14.6759   27.6654 C   0  0  0  0  0  0  0  0  0  0  0  0
    9.6030  -14.1007   28.5007 O   0  0  0  0  0  0  0  0  0  0  0  0
    8.3323  -15.8436   27.9196 O   0  0  0  0  0  0  0  0  0  0  0  0
  2  1  1  6
  2  4  1  0
  2  3  1  0
  4  5  1  6
  6  4  1  0
  7  6  2  0
  8  6  1  0
  9 10  1  1
  9  8  1  0
 10 11  1  0
 11 12  1  0
 13 12  1  0
 14 13  1  0
 15  9  1  0
 16 15  2  0
 18 17  1  6
 18 19  1  0
 18 20  1  0
 20 21  1  1
 21 15  1  0
 22 20  1  0
 22 23  1  0
 24 22  2  0
M  END
$$$$
