VKV.pdb
     RDKit          3D

 24 23  0  0  1  0  0  0  0  0999 V2000
    5.3719  -20.8024   24.1406 C   0  0  0  0  0  0  0  0  0  0  0  0
    6.3685  -19.6744   24.0759 C   0  0  2  0  0  0  0  0  0  0  0  0
    5.9887  -18.6570   25.1254 C   0  0  0  0  0  0  0  0  0  0  0  0
    6.4640  -19.0709   22.7031 C   0  0  2  0  0  0  0  0  0  0  0  0
    6.7150  -20.1240   21.7566 N   0  0  0  0  0  0  0  0  0  0  0  0
    7.5189  -18.0514   22.6192 C   0  0  0  0  0  0  0  0  0  0  0  0
    8.7512  -18.3919   22.6522 O   0  0  0  0  0  0  0  0  0  0  0  0
    7.2760  -16.6577   22.4941 N   0  0  0  0  0  0  0  0  0  0  0  0
    8.2442  -15.6325   22.5095 C   0  0  1  0  0  0  0  0  0  0  0  0
    7.9345  -14.4022   21.7014 C   0  0  0  0  0  0  0  0  0  0  0  0
    8.0455  -14.6901   20.2170 C   0  0  0  0  0  0  0  0  0  0  0  0
    7.7483  -13.4915   19.3511 C   0  0  0  0  0  0  0  0  0  0  0  0
    7.8206  -13.8550   17.8780 C   0  0  0  0  0  0  0  0  0  0  0  0
    7.5255  -12.7280   17.0186 N   0  0  0  0  0  0  0  0  0  0  0  0
    8.5968  -15.2037   23.8768 C   0  0  0  0  0  0  0  0  0  0  0  0
    7.6453  -14.9037   24.6704 O   0  0  0  0  0  0  0  0  0  0  0  0
    9.5509  -15.2286   28.2535 C   0  0  0  0  0  0  0  0  0  0  0  0
    9.3337  -15.6256   26.8038 C   0  0  1  0  0  0  0  0  0  0  0  0
    7.8280  -15.6223   26.5976 C   0  0  0  0  0  0  0  0  0  0  0  0
   10.0286  -14.7545   25.8361 C   0  0  2  0  0  0  0  0  0  0  0  0
    9.8925  -15.0750   24.4329 N   0  0  0  0  0  0  0  0  0  0  0  0
   11.5089  -14.6357   26.1778 C   0  0  0  0  0  0  0  0  0  0  0  0
   11.9426  -13.7446   27.1356 O   0  0  0  0  0  0  0  0  0  0  0  0
   12.3768  -15.3252   25.6179 O   0  0  0  0  0  0  0  0  0  0  0  0
  2  1  1  6
  2  4  1  0
  2  3  1  0
  4  5  1  6
  6  4  1  0
  7  6  2  0
  8  6  1  0
  9 10  1  6
  9  8  1  0
 10 11  1  0
 11 12  1  0
 13 12  1  0
 14 13  1  0
 15  9  1  0
 16 15  2  0
 18 17  1  1
 18 19  1  0
 18 20  1  0
 20 21  1  6
 21 15  1  0
 22 20  1  0
 22 23  1  0
 24 22  2  0
M  END
$$$$
