VKV.pdb
     RDKit          3D

 24 23  0  0  1  0  0  0  0  0999 V2000
    7.6036  -12.5955   19.3477 C   0  0  0  0  0  0  0  0  0  0  0  0
    7.7815  -13.3884   20.6163 C   0  0  2  0  0  0  0  0  0  0  0  0
    8.6686  -12.5911   21.5429 C   0  0  0  0  0  0  0  0  0  0  0  0
    8.3169  -14.7688   20.3600 C   0  0  2  0  0  0  0  0  0  0  0  0
    7.4916  -15.4029   19.3678 N   0  0  0  0  0  0  0  0  0  0  0  0
    8.3559  -15.5828   21.5828 C   0  0  0  0  0  0  0  0  0  0  0  0
    7.2712  -16.0002   22.1166 O   0  0  0  0  0  0  0  0  0  0  0  0
    9.5493  -15.9670   22.2501 N   0  0  0  0  0  0  0  0  0  0  0  0
    9.6413  -16.7335   23.4303 C   0  0  1  0  0  0  0  0  0  0  0  0
   10.5144  -17.9569   23.3716 C   0  0  0  0  0  0  0  0  0  0  0  0
    9.9082  -19.0090   22.4637 C   0  0  0  0  0  0  0  0  0  0  0  0
   10.8081  -20.1989   22.2424 C   0  0  0  0  0  0  0  0  0  0  0  0
   10.1362  -21.2289   21.3507 C   0  0  0  0  0  0  0  0  0  0  0  0
   10.9489  -22.4133   21.1701 N   0  0  0  0  0  0  0  0  0  0  0  0
   10.0560  -15.9323   24.5980 C   0  0  0  0  0  0  0  0  0  0  0  0
   10.2853  -14.6913   24.4172 O   0  0  0  0  0  0  0  0  0  0  0  0
    8.9496  -13.7479   28.4073 C   0  0  0  0  0  0  0  0  0  0  0  0
    8.9152  -14.7180   27.2394 C   0  0  1  0  0  0  0  0  0  0  0  0
    8.4873  -13.8964   26.0346 C   0  0  0  0  0  0  0  0  0  0  0  0
   10.1934  -15.4188   27.0080 C   0  0  2  0  0  0  0  0  0  0  0  0
   10.2413  -16.3793   25.9286 N   0  0  0  0  0  0  0  0  0  0  0  0
   10.6878  -16.0830   28.2872 C   0  0  0  0  0  0  0  0  0  0  0  0
   11.6534  -15.4827   29.0662 O   0  0  0  0  0  0  0  0  0  0  0  0
   10.2501  -17.1771   28.6790 O   0  0  0  0  0  0  0  0  0  0  0  0
  2  1  1  6
  2  4  1  0
  2  3  1  0
  4  5  1  6
  6  4  1  0
  7  6  2  0
  8  6  1  0
  9 10  1  6
  9  8  1  0
 10 11  1  0
 11 12  1  0
 13 12  1  0
 14 13  1  0
 15  9  1  0
 16 15  2  0
 18 17  1  1
 18 19  1  0
 18 20  1  0
 20 21  1  6
 21 15  1  0
 22 20  1  0
 22 23  1  0
 24 22  2  0
M  END
$$$$
