VKV.pdb
     RDKit          3D

 24 23  0  0  1  0  0  0  0  0999 V2000
    7.7863  -13.2594   18.5479 C   0  0  0  0  0  0  0  0  0  0  0  0
    7.4332  -13.7163   19.9395 C   0  0  2  0  0  0  0  0  0  0  0  0
    8.2548  -12.9094   20.9167 C   0  0  0  0  0  0  0  0  0  0  0  0
    7.6189  -15.1961   20.1221 C   0  0  2  0  0  0  0  0  0  0  0  0
    6.9005  -15.8796   19.0806 N   0  0  0  0  0  0  0  0  0  0  0  0
    7.1577  -15.6529   21.4403 C   0  0  0  0  0  0  0  0  0  0  0  0
    5.9247  -15.5520   21.7647 O   0  0  0  0  0  0  0  0  0  0  0  0
    8.0013  -16.2273   22.4280 N   0  0  0  0  0  0  0  0  0  0  0  0
    7.6273  -16.6063   23.7339 C   0  0  1  0  0  0  0  0  0  0  0  0
    7.7324  -18.0696   24.0659 C   0  0  0  0  0  0  0  0  0  0  0  0
    6.7047  -18.8731   23.2933 C   0  0  0  0  0  0  0  0  0  0  0  0
    6.7202  -20.3436   23.6277 C   0  0  0  0  0  0  0  0  0  0  0  0
    5.6426  -21.0868   22.8568 C   0  0  0  0  0  0  0  0  0  0  0  0
    5.6305  -22.5031   23.1560 N   0  0  0  0  0  0  0  0  0  0  0  0
    8.3490  -15.8490   24.7746 C   0  0  0  0  0  0  0  0  0  0  0  0
    9.6024  -15.6733   24.6214 O   0  0  0  0  0  0  0  0  0  0  0  0
    9.1509  -12.5187   28.2605 C   0  0  0  0  0  0  0  0  0  0  0  0
    8.1516  -13.2734   27.4013 C   0  0  1  0  0  0  0  0  0  0  0  0
    7.7157  -12.2957   26.3225 C   0  0  0  0  0  0  0  0  0  0  0  0
    8.6813  -14.5280   26.8326 C   0  0  2  0  0  0  0  0  0  0  0  0
    7.8131  -15.2816   25.9559 N   0  0  0  0  0  0  0  0  0  0  0  0
    9.1970  -15.4477   27.9327 C   0  0  0  0  0  0  0  0  0  0  0  0
   10.4407  -15.2497   28.4926 O   0  0  0  0  0  0  0  0  0  0  0  0
    8.5308  -16.4014   28.3671 O   0  0  0  0  0  0  0  0  0  0  0  0
  2  1  1  6
  2  4  1  0
  2  3  1  0
  4  5  1  6
  6  4  1  0
  7  6  2  0
  8  6  1  0
  9 10  1  1
  9  8  1  0
 10 11  1  0
 11 12  1  0
 13 12  1  0
 14 13  1  0
 15  9  1  0
 16 15  2  0
 18 17  1  6
 18 19  1  0
 18 20  1  0
 20 21  1  1
 21 15  1  0
 22 20  1  0
 22 23  1  0
 24 22  2  0
M  END
$$$$
