VKV.pdb
     RDKit          3D

 24 23  0  0  1  0  0  0  0  0999 V2000
    7.9935  -13.4502   18.2073 C   0  0  0  0  0  0  0  0  0  0  0  0
    7.5734  -13.8343   19.6023 C   0  0  2  0  0  0  0  0  0  0  0  0
    8.4242  -13.0540   20.5760 C   0  0  0  0  0  0  0  0  0  0  0  0
    7.6499  -15.3165   19.8370 C   0  0  2  0  0  0  0  0  0  0  0  0
    6.8443  -15.9789   18.8469 N   0  0  0  0  0  0  0  0  0  0  0  0
    7.2012  -15.6867   21.1864 C   0  0  0  0  0  0  0  0  0  0  0  0
    5.9716  -15.5630   21.5156 O   0  0  0  0  0  0  0  0  0  0  0  0
    8.0540  -16.1977   22.2007 N   0  0  0  0  0  0  0  0  0  0  0  0
    7.6768  -16.5601   23.5103 C   0  0  1  0  0  0  0  0  0  0  0  0
    8.1584  -17.8970   24.0036 C   0  0  0  0  0  0  0  0  0  0  0  0
    7.6305  -18.1799   25.3964 C   0  0  0  0  0  0  0  0  0  0  0  0
    8.1385  -19.4757   25.9772 C   0  0  0  0  0  0  0  0  0  0  0  0
    7.3995  -19.8228   27.2582 C   0  0  0  0  0  0  0  0  0  0  0  0
    7.8299  -21.0876   27.8155 N   0  0  0  0  0  0  0  0  0  0  0  0
    8.0498  -15.5425   24.5117 C   0  0  0  0  0  0  0  0  0  0  0  0
    9.2265  -15.0552   24.4552 O   0  0  0  0  0  0  0  0  0  0  0  0
    7.3490  -11.7180   27.4983 C   0  0  0  0  0  0  0  0  0  0  0  0
    6.7404  -12.9069   26.7754 C   0  0  1  0  0  0  0  0  0  0  0  0
    5.9569  -12.3234   25.6112 C   0  0  0  0  0  0  0  0  0  0  0  0
    7.7314  -13.9068   26.3321 C   0  0  2  0  0  0  0  0  0  0  0  0
    7.2472  -15.0281   25.5585 N   0  0  0  0  0  0  0  0  0  0  0  0
    8.5407  -14.4296   27.5127 C   0  0  0  0  0  0  0  0  0  0  0  0
    9.4578  -13.6232   28.1518 O   0  0  0  0  0  0  0  0  0  0  0  0
    8.4125  -15.5866   27.9451 O   0  0  0  0  0  0  0  0  0  0  0  0
  2  1  1  6
  2  4  1  0
  2  3  1  0
  4  5  1  6
  6  4  1  0
  7  6  2  0
  8  6  1  0
  9 10  1  1
  9  8  1  0
 10 11  1  0
 11 12  1  0
 13 12  1  0
 14 13  1  0
 15  9  1  0
 16 15  2  0
 18 17  1  6
 18 19  1  0
 18 20  1  0
 20 21  1  1
 21 15  1  0
 22 20  1  0
 22 23  1  0
 24 22  2  0
M  END
$$$$
