VKV.pdb
     RDKit          3D

 24 23  0  0  1  0  0  0  0  0999 V2000
    7.0691  -13.0902   19.9727 C   0  0  0  0  0  0  0  0  0  0  0  0
    8.2719  -13.9656   19.7344 C   0  0  2  0  0  0  0  0  0  0  0  0
    8.7772  -13.6920   18.3376 C   0  0  0  0  0  0  0  0  0  0  0  0
    7.9759  -15.4214   19.9601 C   0  0  2  0  0  0  0  0  0  0  0  0
    7.1432  -15.8910   18.8859 N   0  0  0  0  0  0  0  0  0  0  0  0
    7.3182  -15.6581   21.2525 C   0  0  0  0  0  0  0  0  0  0  0  0
    6.1191  -15.2597   21.4505 O   0  0  0  0  0  0  0  0  0  0  0  0
    7.9259  -16.3261   22.3488 N   0  0  0  0  0  0  0  0  0  0  0  0
    7.3714  -16.5081   23.6325 C   0  0  1  0  0  0  0  0  0  0  0  0
    7.5125  -17.8775   24.2385 C   0  0  0  0  0  0  0  0  0  0  0  0
    6.6495  -18.8841   23.5033 C   0  0  0  0  0  0  0  0  0  0  0  0
    6.7965  -20.2919   24.0240 C   0  0  0  0  0  0  0  0  0  0  0  0
    5.8369  -21.2345   23.3180 C   0  0  0  0  0  0  0  0  0  0  0  0
    5.8833  -22.5751   23.8623 N   0  0  0  0  0  0  0  0  0  0  0  0
    7.8683  -15.5222   24.6117 C   0  0  0  0  0  0  0  0  0  0  0  0
    9.1231  -15.2996   24.6477 O   0  0  0  0  0  0  0  0  0  0  0  0
    7.7873  -11.7041   27.7402 C   0  0  0  0  0  0  0  0  0  0  0  0
    6.9731  -12.7381   26.9824 C   0  0  1  0  0  0  0  0  0  0  0  0
    6.2136  -11.9639   25.9177 C   0  0  0  0  0  0  0  0  0  0  0  0
    7.7826  -13.8285   26.4046 C   0  0  2  0  0  0  0  0  0  0  0  0
    7.1090  -14.7755   25.5447 N   0  0  0  0  0  0  0  0  0  0  0  0
    8.5267  -14.5890   27.4955 C   0  0  0  0  0  0  0  0  0  0  0  0
    9.7319  -14.1284   27.9802 O   0  0  0  0  0  0  0  0  0  0  0  0
    8.0879  -15.6408   27.9888 O   0  0  0  0  0  0  0  0  0  0  0  0
  2  1  1  6
  2  4  1  0
  2  3  1  0
  4  5  1  6
  6  4  1  0
  7  6  2  0
  8  6  1  0
  9 10  1  1
  9  8  1  0
 10 11  1  0
 11 12  1  0
 13 12  1  0
 14 13  1  0
 15  9  1  0
 16 15  2  0
 18 17  1  6
 18 19  1  0
 18 20  1  0
 20 21  1  1
 21 15  1  0
 22 20  1  0
 22 23  1  0
 24 22  2  0
M  END
$$$$
