RAI.pdb
     RDKit          3D

 25 24  0  0  1  0  0  0  0  0999 V2000
   20.9610  -16.2924  -15.1783 N   0  0  0  0  0  0  0  0  0  0  0  0
   20.3304  -17.4553  -15.7214 C   0  0  0  0  0  0  0  0  0  0  0  0
   19.5973  -17.3931  -16.7854 N   0  0  0  0  0  0  0  0  0  0  0  0
   20.4889  -18.7254  -15.1070 N   0  0  0  0  0  0  0  0  0  0  0  0
   21.3781  -18.8698  -13.9870 C   0  0  0  0  0  0  0  0  0  0  0  0
   20.6005  -18.7815  -12.6755 C   0  0  0  0  0  0  0  0  0  0  0  0
   20.5677  -20.1868  -12.1055 C   0  0  0  0  0  0  0  0  0  0  0  0
   21.8670  -20.5209  -11.4085 C   0  0  2  0  0  0  0  0  0  0  0  0
   22.7020  -21.2039  -12.3934 N   0  0  0  0  0  0  0  0  0  0  0  0
   21.5348  -21.5289  -10.3439 C   0  0  0  0  0  0  0  0  0  0  0  0
   21.2093  -22.7107  -10.6450 O   0  0  0  0  0  0  0  0  0  0  0  0
   19.1494  -18.2290  -17.2002 C   0  0  0  0  0  0  0  0  0  0  0  0
   21.8589  -21.7719   -6.6012 C   0  0  1  0  0  0  0  0  0  0  0  0
   21.3605  -22.2055   -7.9601 N   0  0  0  0  0  0  0  0  0  0  0  0
   21.5699  -21.2081   -8.9698 C   0  0  0  0  0  0  0  0  0  0  0  0
   19.9504  -22.5980   -7.9495 O   0  0  0  0  0  0  0  0  0  0  0  0
   19.0825  -21.8072   -8.3939 C   0  0  0  0  0  0  0  0  0  0  0  0
   18.0570  -27.2027   -9.6950 C   0  0  0  0  0  0  0  0  0  0  0  0
   18.2491  -25.7537   -9.3061 C   0  0  2  0  0  0  0  0  0  0  0  0
   17.7210  -25.5017   -7.9099 C   0  0  0  0  0  0  0  0  0  0  0  0
   16.2314  -25.7225   -7.9056 C   0  0  2  0  0  0  0  0  0  0  0  0
   18.0679  -24.1416   -7.4008 N   0  0  0  0  0  0  0  0  0  0  0  0
   19.4713  -23.8443   -7.4597 C   0  0  0  0  0  0  0  0  0  0  0  0
   17.5307  -23.9516   -6.0111 O   0  0  0  0  0  0  0  0  0  0  0  0
   18.2316  -24.2302   -4.9900 O   0  0  0  0  0  0  0  0  0  0  0  0
  2  1  1  0
  2  3  2  0
  4  2  1  0
  5  4  1  0
  6  5  1  0
  7  6  1  0
  8  7  1  0
  8  9  1  6
 10  8  1  0
 10 14  1  0
 11 10  2  0
 13 14  1  0
 13 12  1  6
 15 13  1  0
 15 16  2  0
 18 19  1  0
 18 17  1  0
 19 21  1  0
 19 20  1  1
 21 22  1  6
 21 23  1  0
 22 15  1  0
 23 24  2  0
 23 25  1  0
M  END
$$$$
