RAI.pdb
     RDKit          3D

 25 24  0  0  1  0  0  0  0  0999 V2000
   29.3068  -28.2327  -16.5386 N   0  0  0  0  0  0  0  0  0  0  0  0
   28.4180  -28.9230  -17.4209 C   0  0  0  0  0  0  0  0  0  0  0  0
   28.7511  -30.0419  -17.9782 N   0  0  0  0  0  0  0  0  0  0  0  0
   27.1316  -28.4000  -17.7167 N   0  0  0  0  0  0  0  0  0  0  0  0
   26.6646  -27.2257  -17.0319 C   0  0  0  0  0  0  0  0  0  0  0  0
   27.3347  -25.9766  -17.6003 C   0  0  0  0  0  0  0  0  0  0  0  0
   26.7145  -24.7957  -16.8781 C   0  0  0  0  0  0  0  0  0  0  0  0
   27.2610  -23.4883  -17.4052 C   0  0  2  0  0  0  0  0  0  0  0  0
   28.6942  -23.4944  -17.1231 N   0  0  0  0  0  0  0  0  0  0  0  0
   26.6551  -22.4005  -16.5630 C   0  0  0  0  0  0  0  0  0  0  0  0
   27.1700  -22.0682  -15.4595 O   0  0  0  0  0  0  0  0  0  0  0  0
   28.1148  -30.5576  -18.6111 C   0  0  0  0  0  0  0  0  0  0  0  0
   23.9271  -19.8175  -16.9407 C   0  0  1  0  0  0  0  0  0  0  0  0
   24.9785  -20.6050  -16.1942 N   0  0  0  0  0  0  0  0  0  0  0  0
   25.4932  -21.7039  -16.9595 C   0  0  0  0  0  0  0  0  0  0  0  0
   24.5080  -21.0939  -14.8972 O   0  0  0  0  0  0  0  0  0  0  0  0
   23.9450  -22.2136  -14.8228 C   0  0  0  0  0  0  0  0  0  0  0  0
   25.2738  -20.7064   -8.7890 C   0  0  0  0  0  0  0  0  0  0  0  0
   24.3893  -21.0810   -9.9573 C   0  0  2  0  0  0  0  0  0  0  0  0
   24.9200  -20.4811  -11.2419 C   0  0  0  0  0  0  0  0  0  0  0  0
   24.9559  -18.9822  -11.1009 C   0  0  2  0  0  0  0  0  0  0  0  0
   24.1285  -20.8932  -12.4389 N   0  0  0  0  0  0  0  0  0  0  0  0
   24.6428  -20.3774  -13.6762 C   0  0  0  0  0  0  0  0  0  0  0  0
   22.6822  -20.5301  -12.2589 O   0  0  0  0  0  0  0  0  0  0  0  0
   21.9520  -21.1323  -11.4129 O   0  0  0  0  0  0  0  0  0  0  0  0
  2  1  1  0
  2  3  2  0
  4  2  1  0
  5  4  1  0
  6  5  1  0
  7  6  1  0
  8  7  1  0
  8  9  1  1
 10  8  1  0
 10 14  1  0
 11 10  2  0
 13 14  1  0
 13 12  1  6
 15 13  1  0
 15 16  2  0
 18 19  1  0
 18 17  1  0
 19 21  1  0
 19 20  1  6
 21 22  1  6
 21 23  1  0
 22 15  1  0
 23 24  2  0
 23 25  1  0
M  END
$$$$
