RAI.pdb
     RDKit          3D

 25 24  0  0  1  0  0  0  0  0999 V2000
   20.2974  -14.3422  -23.3512 N   0  0  0  0  0  0  0  0  0  0  0  0
   19.6612  -13.3446  -22.5481 C   0  0  0  0  0  0  0  0  0  0  0  0
   19.7406  -12.0873  -22.8419 N   0  0  0  0  0  0  0  0  0  0  0  0
   18.9164  -13.7030  -21.3937 N   0  0  0  0  0  0  0  0  0  0  0  0
   18.6041  -15.0841  -21.1470 C   0  0  0  0  0  0  0  0  0  0  0  0
   17.7477  -15.2194  -19.8897 C   0  0  0  0  0  0  0  0  0  0  0  0
   18.7097  -15.2067  -18.7170 C   0  0  0  0  0  0  0  0  0  0  0  0
   18.1841  -14.3437  -17.5924 C   0  0  2  0  0  0  0  0  0  0  0  0
   16.7779  -14.0847  -17.8910 N   0  0  0  0  0  0  0  0  0  0  0  0
   18.9013  -13.0263  -17.6927 C   0  0  0  0  0  0  0  0  0  0  0  0
   20.1441  -12.9443  -17.4880 O   0  0  0  0  0  0  0  0  0  0  0  0
   19.2492  -11.3579  -22.2961 C   0  0  0  0  0  0  0  0  0  0  0  0
   18.0614   -9.4853  -18.7188 C   0  0  2  0  0  0  0  0  0  0  0  0
   18.9328  -10.5873  -18.1628 N   0  0  0  0  0  0  0  0  0  0  0  0
   18.2284  -11.8286  -18.0170 C   0  0  0  0  0  0  0  0  0  0  0  0
   19.5566  -10.2297  -16.8878 O   0  0  0  0  0  0  0  0  0  0  0  0
   18.9733  -10.5081  -15.8115 C   0  0  0  0  0  0  0  0  0  0  0  0
   24.0983  -11.7854  -15.0829 C   0  0  0  0  0  0  0  0  0  0  0  0
   22.7051  -11.2539  -15.3360 C   0  0  2  0  0  0  0  0  0  0  0  0
   22.6725   -9.7483  -15.1822 C   0  0  0  0  0  0  0  0  0  0  0  0
   23.1109   -9.3919  -13.7862 C   0  0  2  0  0  0  0  0  0  0  0  0
   21.3328   -9.1674  -15.4935 N   0  0  0  0  0  0  0  0  0  0  0  0
   20.8114   -9.5709  -16.7689 C   0  0  0  0  0  0  0  0  0  0  0  0
   21.3716   -7.6708  -15.3719 O   0  0  0  0  0  0  0  0  0  0  0  0
   21.5148   -7.1048  -14.2446 O   0  0  0  0  0  0  0  0  0  0  0  0
  2  1  1  0
  2  3  2  0
  4  2  1  0
  5  4  1  0
  6  5  1  0
  7  6  1  0
  8  7  1  0
  8  9  1  6
 10  8  1  0
 10 14  1  0
 11 10  2  0
 13 14  1  0
 13 12  1  6
 15 13  1  0
 15 16  2  0
 18 19  1  0
 18 17  1  0
 19 21  1  0
 19 20  1  6
 21 22  1  1
 21 23  1  0
 22 15  1  0
 23 24  2  0
 23 25  1  0
M  END
$$$$
