RAI.pdb
     RDKit          3D

 25 24  0  0  1  0  0  0  0  0999 V2000
   28.9813  -23.1734  -16.1101 N   0  0  0  0  0  0  0  0  0  0  0  0
   29.3374  -22.5555  -17.3496 C   0  0  0  0  0  0  0  0  0  0  0  0
   29.9206  -23.2200  -18.2941 N   0  0  0  0  0  0  0  0  0  0  0  0
   29.0611  -21.1833  -17.5867 N   0  0  0  0  0  0  0  0  0  0  0  0
   27.9644  -20.5490  -16.9078 C   0  0  0  0  0  0  0  0  0  0  0  0
   26.6416  -21.1945  -17.3154 C   0  0  0  0  0  0  0  0  0  0  0  0
   25.5481  -20.3743  -16.6577 C   0  0  0  0  0  0  0  0  0  0  0  0
   26.0516  -19.7094  -15.3967 C   0  0  2  0  0  0  0  0  0  0  0  0
   25.5028  -20.4723  -14.2784 N   0  0  0  0  0  0  0  0  0  0  0  0
   25.4174  -18.3472  -15.3486 C   0  0  0  0  0  0  0  0  0  0  0  0
   24.1632  -18.2142  -15.2998 O   0  0  0  0  0  0  0  0  0  0  0  0
   30.2028  -22.7815  -19.1882 C   0  0  0  0  0  0  0  0  0  0  0  0
   26.5747  -14.7671  -15.0047 C   0  0  1  0  0  0  0  0  0  0  0  0
   25.5705  -15.8700  -15.2458 N   0  0  0  0  0  0  0  0  0  0  0  0
   26.1842  -17.1621  -15.3554 C   0  0  0  0  0  0  0  0  0  0  0  0
   24.7325  -15.6285  -16.4213 O   0  0  0  0  0  0  0  0  0  0  0  0
   25.0383  -16.1530  -17.5201 C   0  0  0  0  0  0  0  0  0  0  0  0
   20.0965  -17.2914  -17.5838 C   0  0  0  0  0  0  0  0  0  0  0  0
   21.4925  -16.7129  -17.6481 C   0  0  2  0  0  0  0  0  0  0  0  0
   21.4461  -15.2007  -17.5959 C   0  0  0  0  0  0  0  0  0  0  0  0
   20.6044  -14.6997  -18.7398 C   0  0  2  0  0  0  0  0  0  0  0  0
   22.8052  -14.5828  -17.6129 N   0  0  0  0  0  0  0  0  0  0  0  0
   23.5620  -14.8207  -16.4162 C   0  0  0  0  0  0  0  0  0  0  0  0
   22.7073  -13.1138  -17.9102 O   0  0  0  0  0  0  0  0  0  0  0  0
   22.8894  -12.2445  -17.0032 O   0  0  0  0  0  0  0  0  0  0  0  0
  2  1  1  0
  2  3  2  0
  4  2  1  0
  5  4  1  0
  6  5  1  0
  7  6  1  0
  8  7  1  0
  8  9  1  1
 10  8  1  0
 10 14  1  0
 11 10  2  0
 13 14  1  0
 13 12  1  1
 15 13  1  0
 15 16  2  0
 18 19  1  0
 18 17  1  0
 19 21  1  0
 19 20  1  1
 21 22  1  6
 21 23  1  0
 22 15  1  0
 23 24  2  0
 23 25  1  0
M  END
$$$$
