RAI.pdb
     RDKit          3D

 25 24  0  0  1  0  0  0  0  0999 V2000
   21.1992  -20.4306  -13.7688 N   0  0  0  0  0  0  0  0  0  0  0  0
   22.1130  -20.0703  -14.8081 C   0  0  0  0  0  0  0  0  0  0  0  0
   21.7067  -19.5176  -15.9049 N   0  0  0  0  0  0  0  0  0  0  0  0
   23.5057  -20.3086  -14.6701 N   0  0  0  0  0  0  0  0  0  0  0  0
   24.0261  -20.7922  -13.4205 C   0  0  0  0  0  0  0  0  0  0  0  0
   24.1682  -19.6441  -12.4235 C   0  0  0  0  0  0  0  0  0  0  0  0
   25.0555  -20.1590  -11.3062 C   0  0  0  0  0  0  0  0  0  0  0  0
   26.1634  -21.0318  -11.8505 C   0  0  2  0  0  0  0  0  0  0  0  0
   25.5340  -22.2747  -12.2898 N   0  0  0  0  0  0  0  0  0  0  0  0
   27.0471  -21.3786  -10.6849 C   0  0  0  0  0  0  0  0  0  0  0  0
   26.5720  -21.9087   -9.6426 O   0  0  0  0  0  0  0  0  0  0  0  0
   22.3576  -19.2395  -16.6602 C   0  0  0  0  0  0  0  0  0  0  0  0
   30.7303  -21.2265   -9.8358 C   0  0  1  0  0  0  0  0  0  0  0  0
   29.2560  -21.3899   -9.5484 N   0  0  0  0  0  0  0  0  0  0  0  0
   28.4368  -21.1315  -10.6975 C   0  0  0  0  0  0  0  0  0  0  0  0
   28.7999  -20.5627   -8.4303 O   0  0  0  0  0  0  0  0  0  0  0  0
   28.2320  -19.4669   -8.6599 C   0  0  0  0  0  0  0  0  0  0  0  0
   25.6587  -21.7555   -4.3867 C   0  0  0  0  0  0  0  0  0  0  0  0
   26.4077  -20.9682   -5.4388 C   0  0  2  0  0  0  0  0  0  0  0  0
   27.7802  -20.5759   -4.9348 C   0  0  0  0  0  0  0  0  0  0  0  0
   27.6207  -19.6208   -3.7815 C   0  0  2  0  0  0  0  0  0  0  0  0
   28.6408  -19.9920   -6.0061 N   0  0  0  0  0  0  0  0  0  0  0  0
   28.9545  -20.9142   -7.0609 C   0  0  0  0  0  0  0  0  0  0  0  0
   29.8880  -19.4034   -5.4111 O   0  0  0  0  0  0  0  0  0  0  0  0
   29.9186  -18.2027   -4.9998 O   0  0  0  0  0  0  0  0  0  0  0  0
  2  1  1  0
  2  3  2  0
  4  2  1  0
  5  4  1  0
  6  5  1  0
  7  6  1  0
  8  7  1  0
  8  9  1  1
 10  8  1  0
 10 14  1  0
 11 10  2  0
 13 14  1  0
 13 12  1  6
 15 13  1  0
 15 16  2  0
 18 19  1  0
 18 17  1  0
 19 21  1  0
 19 20  1  1
 21 22  1  6
 21 23  1  0
 22 15  1  0
 23 24  2  0
 23 25  1  0
M  END
$$$$
