RAI.pdb
     RDKit          3D

 25 24  0  0  1  0  0  0  0  0999 V2000
   25.5128  -24.2585  -19.3347 N   0  0  0  0  0  0  0  0  0  0  0  0
   25.8251  -25.3393  -20.2175 C   0  0  0  0  0  0  0  0  0  0  0  0
   25.0426  -25.6617  -21.1959 N   0  0  0  0  0  0  0  0  0  0  0  0
   27.0121  -26.0997  -20.0486 N   0  0  0  0  0  0  0  0  0  0  0  0
   27.8779  -25.8318  -18.9330 C   0  0  0  0  0  0  0  0  0  0  0  0
   27.0778  -25.8077  -17.6324 C   0  0  0  0  0  0  0  0  0  0  0  0
   28.0448  -25.3756  -16.5465 C   0  0  0  0  0  0  0  0  0  0  0  0
   28.8276  -24.1538  -16.9708 C   0  0  2  0  0  0  0  0  0  0  0  0
   30.2196  -24.4064  -16.6068 N   0  0  0  0  0  0  0  0  0  0  0  0
   28.3502  -23.0187  -16.1085 C   0  0  0  0  0  0  0  0  0  0  0  0
   28.8804  -22.7852  -14.9871 O   0  0  0  0  0  0  0  0  0  0  0  0
   25.2541  -26.4429  -21.8412 C   0  0  0  0  0  0  0  0  0  0  0  0
   26.2704  -19.9425  -16.6058 C   0  0  1  0  0  0  0  0  0  0  0  0
   26.9667  -20.9848  -15.7622 N   0  0  0  0  0  0  0  0  0  0  0  0
   27.2970  -22.1668  -16.5052 C   0  0  0  0  0  0  0  0  0  0  0  0
   26.2005  -21.3570  -14.5719 O   0  0  0  0  0  0  0  0  0  0  0  0
   25.4005  -22.3230  -14.6255 C   0  0  0  0  0  0  0  0  0  0  0  0
   25.9582  -20.7521   -8.3973 C   0  0  0  0  0  0  0  0  0  0  0  0
   25.3268  -21.2103   -9.6931 C   0  0  2  0  0  0  0  0  0  0  0  0
   26.0560  -20.6183  -10.8803 C   0  0  0  0  0  0  0  0  0  0  0  0
   25.9983  -19.1163  -10.7874 C   0  0  2  0  0  0  0  0  0  0  0  0
   25.5158  -21.1010  -12.1858 N   0  0  0  0  0  0  0  0  0  0  0  0
   26.2942  -20.6891  -13.3198 C   0  0  0  0  0  0  0  0  0  0  0  0
   24.0778  -20.6949  -12.3382 O   0  0  0  0  0  0  0  0  0  0  0  0
   23.1612  -21.2478  -11.6558 O   0  0  0  0  0  0  0  0  0  0  0  0
  2  1  1  0
  2  3  2  0
  4  2  1  0
  5  4  1  0
  6  5  1  0
  7  6  1  0
  8  7  1  0
  8  9  1  1
 10  8  1  0
 10 14  1  0
 11 10  2  0
 13 14  1  0
 13 12  1  6
 15 13  1  0
 15 16  2  0
 18 19  1  0
 18 17  1  0
 19 21  1  0
 19 20  1  6
 21 22  1  6
 21 23  1  0
 22 15  1  0
 23 24  2  0
 23 25  1  0
M  END
$$$$
