RAI.pdb
     RDKit          3D

 25 24  0  0  1  0  0  0  0  0999 V2000
   16.3293  -14.8173  -22.1034 N   0  0  0  0  0  0  0  0  0  0  0  0
   15.7061  -13.5648  -22.3996 C   0  0  0  0  0  0  0  0  0  0  0  0
   14.4214  -13.4205  -22.3538 N   0  0  0  0  0  0  0  0  0  0  0  0
   16.4816  -12.4303  -22.7562 N   0  0  0  0  0  0  0  0  0  0  0  0
   17.8780  -12.3862  -22.4183 C   0  0  0  0  0  0  0  0  0  0  0  0
   18.0875  -11.6044  -21.1232 C   0  0  0  0  0  0  0  0  0  0  0  0
   19.5832  -11.5925  -20.8712 C   0  0  0  0  0  0  0  0  0  0  0  0
   20.2637  -10.5192  -21.6900 C   0  0  2  0  0  0  0  0  0  0  0  0
   21.4245  -11.1483  -22.3151 N   0  0  0  0  0  0  0  0  0  0  0  0
   20.7902   -9.5049  -20.7134 C   0  0  0  0  0  0  0  0  0  0  0  0
   21.8660   -9.7042  -20.0840 O   0  0  0  0  0  0  0  0  0  0  0  0
   13.9583  -12.5124  -22.5335 C   0  0  0  0  0  0  0  0  0  0  0  0
   19.9417   -5.9901  -19.6293 C   0  0  1  0  0  0  0  0  0  0  0  0
   20.6310   -7.3304  -19.5230 N   0  0  0  0  0  0  0  0  0  0  0  0
   20.1156   -8.2924  -20.4542 C   0  0  0  0  0  0  0  0  0  0  0  0
   20.5829   -7.8885  -18.1708 O   0  0  0  0  0  0  0  0  0  0  0  0
   19.5938   -8.5763  -17.8178 C   0  0  0  0  0  0  0  0  0  0  0  0
   23.2857  -11.1939  -14.1326 C   0  0  0  0  0  0  0  0  0  0  0  0
   22.3274  -10.0342  -14.2891 C   0  0  2  0  0  0  0  0  0  0  0  0
   22.5042   -9.3749  -15.6403 C   0  0  0  0  0  0  0  0  0  0  0  0
   23.9124   -8.8517  -15.7462 C   0  0  2  0  0  0  0  0  0  0  0  0
   21.5050   -8.2934  -15.8875 N   0  0  0  0  0  0  0  0  0  0  0  0
   21.6010   -7.7070  -17.1945 C   0  0  0  0  0  0  0  0  0  0  0  0
   21.5933   -7.2458  -14.8148 O   0  0  0  0  0  0  0  0  0  0  0  0
   21.2420   -7.4944  -13.6205 O   0  0  0  0  0  0  0  0  0  0  0  0
  2  1  1  0
  2  3  2  0
  4  2  1  0
  5  4  1  0
  6  5  1  0
  7  6  1  0
  8  7  1  0
  8  9  1  1
 10  8  1  0
 10 14  1  0
 11 10  2  0
 13 14  1  0
 13 12  1  6
 15 13  1  0
 15 16  2  0
 18 19  1  0
 18 17  1  0
 19 21  1  0
 19 20  1  6
 21 22  1  1
 21 23  1  0
 22 15  1  0
 23 24  2  0
 23 25  1  0
M  END
$$$$
