RAI.pdb
     RDKit          3D

 25 24  0  0  1  0  0  0  0  0999 V2000
   18.2664  -22.2289  -12.2456 N   0  0  0  0  0  0  0  0  0  0  0  0
   17.7057  -21.8320  -13.4998 C   0  0  0  0  0  0  0  0  0  0  0  0
   16.4918  -22.1383  -13.8257 N   0  0  0  0  0  0  0  0  0  0  0  0
   18.4674  -21.0838  -14.4355 N   0  0  0  0  0  0  0  0  0  0  0  0
   19.7043  -20.4772  -14.0255 C   0  0  0  0  0  0  0  0  0  0  0  0
   20.8514  -20.9561  -14.9128 C   0  0  0  0  0  0  0  0  0  0  0  0
   22.0946  -20.2367  -14.4253 C   0  0  0  0  0  0  0  0  0  0  0  0
   22.2120  -18.8672  -15.0548 C   0  0  2  0  0  0  0  0  0  0  0  0
   21.2641  -18.8392  -16.1659 N   0  0  0  0  0  0  0  0  0  0  0  0
   23.5886  -18.7879  -15.6536 C   0  0  0  0  0  0  0  0  0  0  0  0
   23.8703  -19.3986  -16.7218 O   0  0  0  0  0  0  0  0  0  0  0  0
   16.0632  -21.8341  -14.7173 C   0  0  0  0  0  0  0  0  0  0  0  0
   26.8079  -16.9230  -15.0009 C   0  0  1  0  0  0  0  0  0  0  0  0
   25.9427  -17.9954  -15.6207 N   0  0  0  0  0  0  0  0  0  0  0  0
   24.6235  -18.0350  -15.0582 C   0  0  0  0  0  0  0  0  0  0  0  0
   26.5448  -19.3272  -15.5422 O   0  0  0  0  0  0  0  0  0  0  0  0
   26.4746  -19.9782  -14.4710 C   0  0  0  0  0  0  0  0  0  0  0  0
   26.9672  -24.8300  -17.4200 C   0  0  0  0  0  0  0  0  0  0  0  0
   27.8393  -23.6898  -16.9437 C   0  0  2  0  0  0  0  0  0  0  0  0
   27.0950  -22.3748  -17.0352 C   0  0  0  0  0  0  0  0  0  0  0  0
   26.7374  -22.1170  -18.4751 C   0  0  2  0  0  0  0  0  0  0  0  0
   27.8676  -21.2354  -16.4571 N   0  0  0  0  0  0  0  0  0  0  0  0
   27.2247  -19.9618  -16.6182 C   0  0  0  0  0  0  0  0  0  0  0  0
   29.2621  -21.2138  -17.0146 O   0  0  0  0  0  0  0  0  0  0  0  0
   29.5733  -20.4528  -17.9818 O   0  0  0  0  0  0  0  0  0  0  0  0
  2  1  1  0
  2  3  2  0
  4  2  1  0
  5  4  1  0
  6  5  1  0
  7  6  1  0
  8  7  1  0
  8  9  1  6
 10  8  1  0
 10 14  1  0
 11 10  2  0
 13 14  1  0
 13 12  1  6
 15 13  1  0
 15 16  2  0
 18 19  1  0
 18 17  1  0
 19 21  1  0
 19 20  1  1
 21 22  1  6
 21 23  1  0
 22 15  1  0
 23 24  2  0
 23 25  1  0
M  END
$$$$
