RAI.pdb
     RDKit          3D

 25 24  0  0  1  0  0  0  0  0999 V2000
   26.6341  -23.0286  -11.4412 N   0  0  0  0  0  0  0  0  0  0  0  0
   27.2806  -21.8415  -10.9748 C   0  0  0  0  0  0  0  0  0  0  0  0
   28.0088  -21.8429   -9.9055 N   0  0  0  0  0  0  0  0  0  0  0  0
   27.1442  -20.6135  -11.6741 N   0  0  0  0  0  0  0  0  0  0  0  0
   26.6527  -20.6129  -13.0249 C   0  0  0  0  0  0  0  0  0  0  0  0
   25.1280  -20.5257  -13.0361 C   0  0  0  0  0  0  0  0  0  0  0  0
   24.7876  -19.0703  -13.2941 C   0  0  0  0  0  0  0  0  0  0  0  0
   24.6225  -18.8047  -14.7733 C   0  0  2  0  0  0  0  0  0  0  0  0
   25.8232  -19.3232  -15.4239 N   0  0  0  0  0  0  0  0  0  0  0  0
   24.6433  -17.3115  -14.9451 C   0  0  0  0  0  0  0  0  0  0  0  0
   23.7123  -16.5906  -14.4903 O   0  0  0  0  0  0  0  0  0  0  0  0
   28.4810  -20.9913   -9.5547 C   0  0  0  0  0  0  0  0  0  0  0  0
   27.0540  -14.6573  -16.0592 C   0  0  2  0  0  0  0  0  0  0  0  0
   25.6757  -15.2279  -15.8190 N   0  0  0  0  0  0  0  0  0  0  0  0
   25.6931  -16.6480  -15.6161 C   0  0  0  0  0  0  0  0  0  0  0  0
   24.7312  -14.9011  -16.8883 O   0  0  0  0  0  0  0  0  0  0  0  0
   24.3857  -15.7901  -17.7048 C   0  0  0  0  0  0  0  0  0  0  0  0
   19.7949  -14.8425  -19.0360 C   0  0  0  0  0  0  0  0  0  0  0  0
   20.9732  -13.8984  -19.1253 C   0  0  2  0  0  0  0  0  0  0  0  0
   21.9349  -14.1359  -17.9806 C   0  0  0  0  0  0  0  0  0  0  0  0
   21.2412  -13.8057  -16.6854 C   0  0  2  0  0  0  0  0  0  0  0  0
   23.2045  -13.3638  -18.1267 N   0  0  0  0  0  0  0  0  0  0  0  0
   24.1558  -13.6148  -17.0811 C   0  0  0  0  0  0  0  0  0  0  0  0
   22.9114  -11.8961  -18.2529 O   0  0  0  0  0  0  0  0  0  0  0  0
   22.2140  -11.4436  -19.2122 O   0  0  0  0  0  0  0  0  0  0  0  0
  2  1  1  0
  2  3  2  0
  4  2  1  0
  5  4  1  0
  6  5  1  0
  7  6  1  0
  8  7  1  0
  8  9  1  6
 10  8  1  0
 10 14  1  0
 11 10  2  0
 13 14  1  0
 13 12  1  1
 15 13  1  0
 15 16  2  0
 18 19  1  0
 18 17  1  0
 19 21  1  0
 19 20  1  6
 21 22  1  6
 21 23  1  0
 22 15  1  0
 23 24  2  0
 23 25  1  0
M  END
$$$$
