RAI.pdb
     RDKit          3D

 25 24  0  0  1  0  0  0  0  0999 V2000
   27.7620  -21.7569  -17.3024 N   0  0  0  0  0  0  0  0  0  0  0  0
   27.8393  -22.6720  -16.2063 C   0  0  0  0  0  0  0  0  0  0  0  0
   27.3770  -23.8769  -16.2967 N   0  0  0  0  0  0  0  0  0  0  0  0
   28.4298  -22.2865  -14.9741 N   0  0  0  0  0  0  0  0  0  0  0  0
   28.8364  -20.9224  -14.7741 C   0  0  0  0  0  0  0  0  0  0  0  0
   27.6193  -20.0373  -14.5138 C   0  0  0  0  0  0  0  0  0  0  0  0
   27.5423  -19.8522  -13.0103 C   0  0  0  0  0  0  0  0  0  0  0  0
   26.2347  -20.3791  -12.4642 C   0  0  2  0  0  0  0  0  0  0  0  0
   25.1742  -19.7400  -13.2392 N   0  0  0  0  0  0  0  0  0  0  0  0
   26.1191  -19.8623  -11.0573 C   0  0  0  0  0  0  0  0  0  0  0  0
   26.1686  -18.6252  -10.8119 O   0  0  0  0  0  0  0  0  0  0  0  0
   27.4312  -24.5521  -15.5141 C   0  0  0  0  0  0  0  0  0  0  0  0
   24.6222  -20.8102   -7.8940 C   0  0  1  0  0  0  0  0  0  0  0  0
   25.8082  -20.2173   -8.6184 N   0  0  0  0  0  0  0  0  0  0  0  0
   25.9512  -20.7249   -9.9526 C   0  0  0  0  0  0  0  0  0  0  0  0
   27.0661  -20.3980   -7.8921 O   0  0  0  0  0  0  0  0  0  0  0  0
   27.8628  -21.3015   -8.2455 C   0  0  0  0  0  0  0  0  0  0  0  0
   30.1482  -16.8007   -4.8979 C   0  0  0  0  0  0  0  0  0  0  0  0
   29.8384  -18.0183   -5.7399 C   0  0  2  0  0  0  0  0  0  0  0  0
   28.9970  -19.0060   -4.9602 C   0  0  0  0  0  0  0  0  0  0  0  0
   29.8310  -19.5842   -3.8475 C   0  0  2  0  0  0  0  0  0  0  0  0
   28.4256  -20.0819   -5.8234 N   0  0  0  0  0  0  0  0  0  0  0  0
   27.4693  -19.6052   -6.7823 C   0  0  0  0  0  0  0  0  0  0  0  0
   27.8446  -21.1777   -4.9762 O   0  0  0  0  0  0  0  0  0  0  0  0
   28.5502  -22.1632   -4.5988 O   0  0  0  0  0  0  0  0  0  0  0  0
  2  1  1  0
  2  3  2  0
  4  2  1  0
  5  4  1  0
  6  5  1  0
  7  6  1  0
  8  7  1  0
  8  9  1  6
 10  8  1  0
 10 14  1  0
 11 10  2  0
 13 14  1  0
 13 12  1  6
 15 13  1  0
 15 16  2  0
 18 19  1  0
 18 17  1  0
 19 21  1  0
 19 20  1  1
 21 22  1  6
 21 23  1  0
 22 15  1  0
 23 24  2  0
 23 25  1  0
M  END
$$$$
