APN.pdb
     RDKit          3D

 21 21  0  0  1  0  0  0  0  0999 V2000
   23.8695  -10.3267  -20.5525 C   0  0  0  0  0  0  0  0  0  0  0  0
   23.6266  -11.5606  -19.6969 C   0  0  2  0  0  0  0  0  0  0  0  0
   22.6922  -12.4218  -20.3347 N   0  0  0  0  0  0  0  0  0  0  0  0
   23.2625  -11.0951  -18.3529 C   0  0  0  0  0  0  0  0  0  0  0  0
   22.0904  -10.5985  -18.2459 O   0  0  0  0  0  0  0  0  0  0  0  0
   24.0725  -11.1503  -17.2112 N   0  0  0  0  0  0  0  0  0  0  0  0
   25.4030  -11.6735  -17.0212 C   0  0  0  0  0  0  0  0  0  0  0  0
   25.9445  -10.8401  -15.8842 C   0  0  0  0  0  0  0  0  0  0  0  0
   24.7363  -10.9403  -14.9365 C   0  0  0  0  0  0  0  0  0  0  0  0
   23.6445  -10.6413  -15.8967 C   0  0  1  0  0  0  0  0  0  0  0  0
   23.2565   -9.2200  -15.9631 C   0  0  0  0  0  0  0  0  0  0  0  0
   23.8090   -8.5300  -16.8439 O   0  0  0  0  0  0  0  0  0  0  0  0
   19.9350   -5.2562  -15.6340 N   0  0  0  0  0  0  0  0  0  0  0  0
   19.8266   -6.2906  -16.5992 C   0  0  0  0  0  0  0  0  0  0  0  0
   19.0532   -6.1534  -17.5920 O   0  0  0  0  0  0  0  0  0  0  0  0
   20.6099   -7.5194  -16.4480 C   0  0  0  0  0  0  0  0  0  0  0  0
   21.5332   -7.4789  -15.2266 C   0  0  2  0  0  0  0  0  0  0  0  0
   22.3300   -8.6815  -15.0946 N   0  0  0  0  0  0  0  0  0  0  0  0
   20.6994   -7.2580  -14.0565 C   0  0  0  0  0  0  0  0  0  0  0  0
   20.4016   -6.0199  -13.5007 O   0  0  0  0  0  0  0  0  0  0  0  0
   20.1896   -8.2608  -13.4765 O   0  0  0  0  0  0  0  0  0  0  0  0
  2  1  1  6
  2  4  1  0
  3  2  1  0
  4  5  2  0
  6 10  1  0
  6  4  1  0
  7  6  1  0
  8  9  1  0
  8  7  1  0
  9 10  1  0
 10 11  1  6
 11 12  2  0
 11 18  1  0
 14 13  1  0
 14 16  1  0
 15 14  2  0
 17 16  1  6
 17 19  1  0
 18 17  1  0
 19 20  1  0
 21 19  2  0
M  END
$$$$
