APN.pdb
     RDKit          3D

 21 21  0  0  1  0  0  0  0  0999 V2000
   18.3073   -8.6652  -17.7139 C   0  0  0  0  0  0  0  0  0  0  0  0
   18.4410   -9.2182  -16.3032 C   0  0  2  0  0  0  0  0  0  0  0  0
   17.2016   -9.7667  -15.8734 N   0  0  0  0  0  0  0  0  0  0  0  0
   18.9986   -8.1488  -15.4660 C   0  0  0  0  0  0  0  0  0  0  0  0
   18.1737   -7.2339  -15.1276 O   0  0  0  0  0  0  0  0  0  0  0  0
   20.3234   -8.0532  -15.0206 N   0  0  0  0  0  0  0  0  0  0  0  0
   21.4622   -8.9070  -15.2532 C   0  0  0  0  0  0  0  0  0  0  0  0
   22.6336   -7.9602  -15.1447 C   0  0  0  0  0  0  0  0  0  0  0  0
   22.2267   -7.2470  -13.8433 C   0  0  0  0  0  0  0  0  0  0  0  0
   20.8027   -6.9640  -14.1522 C   0  0  1  0  0  0  0  0  0  0  0  0
   20.5555   -5.6399  -14.7527 C   0  0  0  0  0  0  0  0  0  0  0  0
   20.6275   -5.5675  -15.9964 O   0  0  0  0  0  0  0  0  0  0  0  0
   17.2892   -0.9444  -14.3680 N   0  0  0  0  0  0  0  0  0  0  0  0
   18.5786   -1.1623  -13.8173 C   0  0  0  0  0  0  0  0  0  0  0  0
   19.3898   -0.1975  -13.6999 O   0  0  0  0  0  0  0  0  0  0  0  0
   18.9732   -2.5050  -13.3837 C   0  0  0  0  0  0  0  0  0  0  0  0
   19.9062   -3.1931  -14.3846 C   0  0  2  0  0  0  0  0  0  0  0  0
   20.2602   -4.5377  -13.9777 N   0  0  0  0  0  0  0  0  0  0  0  0
   21.0822   -2.3519  -14.5343 C   0  0  0  0  0  0  0  0  0  0  0  0
   21.2895   -1.4296  -15.5526 O   0  0  0  0  0  0  0  0  0  0  0  0
   22.0101   -2.4482  -13.6789 O   0  0  0  0  0  0  0  0  0  0  0  0
  2  1  1  6
  2  4  1  0
  3  2  1  0
  4  5  2  0
  6 10  1  0
  6  4  1  0
  7  6  1  0
  8  9  1  0
  8  7  1  0
  9 10  1  0
 10 11  1  6
 11 12  2  0
 11 18  1  0
 14 13  1  0
 14 16  1  0
 15 14  2  0
 17 16  1  1
 17 19  1  0
 18 17  1  0
 19 20  1  0
 21 19  2  0
M  END
$$$$
