APN.pdb
     RDKit          3D

 21 21  0  0  1  0  0  0  0  0999 V2000
   19.6596  -10.5594  -18.7324 C   0  0  0  0  0  0  0  0  0  0  0  0
   19.7370  -11.3520  -17.4364 C   0  0  2  0  0  0  0  0  0  0  0  0
   18.4899  -11.9823  -17.1734 N   0  0  0  0  0  0  0  0  0  0  0  0
   20.2320  -10.4414  -16.3966 C   0  0  0  0  0  0  0  0  0  0  0  0
   19.4825   -9.4371  -16.1482 O   0  0  0  0  0  0  0  0  0  0  0  0
   21.4248  -10.5807  -15.6751 N   0  0  0  0  0  0  0  0  0  0  0  0
   22.4909  -11.5452  -15.7895 C   0  0  0  0  0  0  0  0  0  0  0  0
   23.7002  -10.7854  -15.2987 C   0  0  0  0  0  0  0  0  0  0  0  0
   23.0873  -10.1890  -14.0194 C   0  0  0  0  0  0  0  0  0  0  0  0
   21.8073   -9.6809  -14.5732 C   0  0  1  0  0  0  0  0  0  0  0  0
   21.8418   -8.2719  -15.0076 C   0  0  0  0  0  0  0  0  0  0  0  0
   22.2183   -8.0564  -16.1776 O   0  0  0  0  0  0  0  0  0  0  0  0
   20.7970   -3.1744  -15.0247 N   0  0  0  0  0  0  0  0  0  0  0  0
   19.7332   -3.9085  -14.4394 C   0  0  0  0  0  0  0  0  0  0  0  0
   18.6450   -3.3289  -14.1523 O   0  0  0  0  0  0  0  0  0  0  0  0
   19.8929   -5.3390  -14.1661 C   0  0  0  0  0  0  0  0  0  0  0  0
   21.3159   -5.8329  -14.4433 C   0  0  2  0  0  0  0  0  0  0  0  0
   21.4766   -7.2450  -14.1622 N   0  0  0  0  0  0  0  0  0  0  0  0
   22.2221   -5.0220  -13.6468 C   0  0  0  0  0  0  0  0  0  0  0  0
   22.9637   -3.9447  -14.1157 O   0  0  0  0  0  0  0  0  0  0  0  0
   22.3661   -5.2995  -12.4203 O   0  0  0  0  0  0  0  0  0  0  0  0
  2  1  1  6
  2  4  1  0
  3  2  1  0
  4  5  2  0
  6 10  1  0
  6  4  1  0
  7  6  1  0
  8  9  1  0
  8  7  1  0
  9 10  1  0
 10 11  1  6
 11 12  2  0
 11 18  1  0
 14 13  1  0
 14 16  1  0
 15 14  2  0
 17 16  1  1
 17 19  1  0
 18 17  1  0
 19 20  1  0
 21 19  2  0
M  END
$$$$
