APN.pdb
     RDKit          3D

 21 21  0  0  1  0  0  0  0  0999 V2000
   15.5707  -10.6592  -11.9904 C   0  0  0  0  0  0  0  0  0  0  0  0
   14.6623   -9.4758  -11.6936 C   0  0  2  0  0  0  0  0  0  0  0  0
   13.6246   -9.4008  -12.6626 N   0  0  0  0  0  0  0  0  0  0  0  0
   15.5175   -8.2889  -11.5704 C   0  0  0  0  0  0  0  0  0  0  0  0
   16.1095   -7.9286  -12.6436 O   0  0  0  0  0  0  0  0  0  0  0  0
   15.7305   -7.5407  -10.4053 N   0  0  0  0  0  0  0  0  0  0  0  0
   15.1361   -7.6426   -9.0953 C   0  0  0  0  0  0  0  0  0  0  0  0
   16.2156   -7.1120   -8.1822 C   0  0  0  0  0  0  0  0  0  0  0  0
   16.5723   -5.8398   -8.9710 C   0  0  0  0  0  0  0  0  0  0  0  0
   16.6809   -6.4173  -10.3341 C   0  0  1  0  0  0  0  0  0  0  0  0
   18.0430   -6.8311  -10.7195 C   0  0  0  0  0  0  0  0  0  0  0  0
   18.3872   -7.9877  -10.4017 O   0  0  0  0  0  0  0  0  0  0  0  0
   22.3893   -6.7762  -13.6075 N   0  0  0  0  0  0  0  0  0  0  0  0
   21.2190   -7.5014  -13.9507 C   0  0  0  0  0  0  0  0  0  0  0  0
   21.2539   -8.3584  -14.8817 O   0  0  0  0  0  0  0  0  0  0  0  0
   19.9679   -7.2589  -13.2279 C   0  0  0  0  0  0  0  0  0  0  0  0
   20.1424   -6.2718  -12.0699 C   0  0  2  0  0  0  0  0  0  0  0  0
   18.8930   -5.9815  -11.3966 N   0  0  0  0  0  0  0  0  0  0  0  0
   20.7514   -5.0678  -12.6108 C   0  0  0  0  0  0  0  0  0  0  0  0
   22.1099   -4.7765  -12.6000 O   0  0  0  0  0  0  0  0  0  0  0  0
   20.0037   -4.1954  -13.1418 O   0  0  0  0  0  0  0  0  0  0  0  0
  2  1  1  6
  2  4  1  0
  3  2  1  0
  4  5  2  0
  6 10  1  0
  6  4  1  0
  7  6  1  0
  8  9  1  0
  8  7  1  0
  9 10  1  0
 10 11  1  1
 11 12  2  0
 11 18  1  0
 14 13  1  0
 14 16  1  0
 15 14  2  0
 17 16  1  6
 17 19  1  0
 18 17  1  0
 19 20  1  0
 21 19  2  0
M  END
$$$$
