APN.pdb
     RDKit          3D

 21 21  0  0  1  0  0  0  0  0999 V2000
   14.2186  -18.3025    2.2434 C   0  0  0  0  0  0  0  0  0  0  0  0
   15.6900  -18.6510    2.0779 C   0  0  2  0  0  0  0  0  0  0  0  0
   15.8533  -20.0615    2.0049 N   0  0  0  0  0  0  0  0  0  0  0  0
   16.4233  -17.9710    3.1527 C   0  0  0  0  0  0  0  0  0  0  0  0
   16.5423  -18.6349    4.2376 O   0  0  0  0  0  0  0  0  0  0  0  0
   16.9874  -16.6903    3.0869 N   0  0  0  0  0  0  0  0  0  0  0  0
   16.9361  -15.6875    2.0516 C   0  0  0  0  0  0  0  0  0  0  0  0
   17.0832  -14.3928    2.8151 C   0  0  0  0  0  0  0  0  0  0  0  0
   18.2776  -14.7884    3.7009 C   0  0  0  0  0  0  0  0  0  0  0  0
   17.8092  -16.1175    4.1671 C   0  0  1  0  0  0  0  0  0  0  0  0
   17.0839  -16.0979    5.4511 C   0  0  0  0  0  0  0  0  0  0  0  0
   15.8505  -15.9175    5.3941 O   0  0  0  0  0  0  0  0  0  0  0  0
   15.7191  -18.8882    8.7020 N   0  0  0  0  0  0  0  0  0  0  0  0
   17.1243  -18.7768    8.5402 C   0  0  0  0  0  0  0  0  0  0  0  0
   17.8017  -19.7794    8.1680 O   0  0  0  0  0  0  0  0  0  0  0  0
   17.7937  -17.5005    8.8040 C   0  0  0  0  0  0  0  0  0  0  0  0
   17.1943  -16.3465    7.9947 C   0  0  2  0  0  0  0  0  0  0  0  0
   17.7372  -16.2699    6.6538 N   0  0  0  0  0  0  0  0  0  0  0  0
   17.4327  -15.1212    8.7396 C   0  0  0  0  0  0  0  0  0  0  0  0
   16.7784  -14.7470    9.9068 O   0  0  0  0  0  0  0  0  0  0  0  0
   18.3041  -14.3098    8.3105 O   0  0  0  0  0  0  0  0  0  0  0  0
  2  1  1  1
  2  4  1  0
  3  2  1  0
  4  5  2  0
  6 10  1  0
  6  4  1  0
  7  6  1  0
  8  9  1  0
  8  7  1  0
  9 10  1  0
 10 11  1  1
 11 12  2  0
 11 18  1  0
 14 13  1  0
 14 16  1  0
 15 14  2  0
 17 16  1  1
 17 19  1  0
 18 17  1  0
 19 20  1  0
 21 19  2  0
M  END
$$$$
