APN.pdb
     RDKit          3D

 21 21  0  0  1  0  0  0  0  0999 V2000
   25.9507  -22.2330  -13.8644 C   0  0  0  0  0  0  0  0  0  0  0  0
   25.9546  -21.1649  -12.7814 C   0  0  2  0  0  0  0  0  0  0  0  0
   25.2281  -21.6170  -11.6460 N   0  0  0  0  0  0  0  0  0  0  0  0
   25.4816  -19.9183  -13.3960 C   0  0  0  0  0  0  0  0  0  0  0  0
   24.2210  -19.7217  -13.3316 O   0  0  0  0  0  0  0  0  0  0  0  0
   26.2775  -18.9544  -14.0285 N   0  0  0  0  0  0  0  0  0  0  0  0
   27.7019  -18.9018  -14.2482 C   0  0  0  0  0  0  0  0  0  0  0  0
   27.8284  -18.0789  -15.5082 C   0  0  0  0  0  0  0  0  0  0  0  0
   26.8801  -16.9300  -15.1228 C   0  0  0  0  0  0  0  0  0  0  0  0
   25.7298  -17.7194  -14.6160 C   0  0  1  0  0  0  0  0  0  0  0  0
   24.6918  -18.0092  -15.6228 C   0  0  0  0  0  0  0  0  0  0  0  0
   24.9015  -18.9794  -16.3791 O   0  0  0  0  0  0  0  0  0  0  0  0
   19.9379  -18.0079  -17.7584 N   0  0  0  0  0  0  0  0  0  0  0  0
   19.8834  -17.9041  -16.3443 C   0  0  0  0  0  0  0  0  0  0  0  0
   18.7825  -18.0585  -15.7388 O   0  0  0  0  0  0  0  0  0  0  0  0
   21.1018  -17.6177  -15.5827 C   0  0  0  0  0  0  0  0  0  0  0  0
   22.3373  -17.4933  -16.4794 C   0  0  2  0  0  0  0  0  0  0  0  0
   23.5477  -17.2452  -15.7230 N   0  0  0  0  0  0  0  0  0  0  0  0
   22.0767  -16.4305  -17.4363 C   0  0  0  0  0  0  0  0  0  0  0  0
   21.2061  -16.5132  -18.5160 O   0  0  0  0  0  0  0  0  0  0  0  0
   22.6805  -15.3269  -17.2971 O   0  0  0  0  0  0  0  0  0  0  0  0
  2  1  1  6
  2  4  1  0
  3  2  1  0
  4  5  2  0
  6 10  1  0
  6  4  1  0
  7  6  1  0
  8  9  1  0
  8  7  1  0
  9 10  1  0
 10 11  1  6
 11 12  2  0
 11 18  1  0
 14 13  1  0
 14 16  1  0
 15 14  2  0
 17 16  1  1
 17 19  1  0
 18 17  1  0
 19 20  1  0
 21 19  2  0
M  END
$$$$
