APN.pdb
     RDKit          3D

 21 21  0  0  1  0  0  0  0  0999 V2000
   27.7861  -17.9994  -16.7079 C   0  0  0  0  0  0  0  0  0  0  0  0
   28.4033  -19.3895  -16.6893 C   0  0  2  0  0  0  0  0  0  0  0  0
   28.1319  -20.0615  -17.9125 N   0  0  0  0  0  0  0  0  0  0  0  0
   27.9367  -20.0579  -15.4682 C   0  0  0  0  0  0  0  0  0  0  0  0
   26.7265  -20.4661  -15.4974 O   0  0  0  0  0  0  0  0  0  0  0  0
   28.6893  -20.2787  -14.3074 N   0  0  0  0  0  0  0  0  0  0  0  0
   30.0432  -19.9094  -13.9749 C   0  0  0  0  0  0  0  0  0  0  0  0
   30.0079  -19.7794  -12.4707 C   0  0  0  0  0  0  0  0  0  0  0  0
   29.2711  -21.0913  -12.1487 C   0  0  0  0  0  0  0  0  0  0  0  0
   28.1659  -21.0018  -13.1355 C   0  0  1  0  0  0  0  0  0  0  0  0
   26.9306  -20.3823  -12.6204 C   0  0  0  0  0  0  0  0  0  0  0  0
   26.8613  -19.1379  -12.6818 O   0  0  0  0  0  0  0  0  0  0  0  0
   21.7458  -19.5820  -12.0809 N   0  0  0  0  0  0  0  0  0  0  0  0
   22.1386  -20.9380  -11.9389 C   0  0  0  0  0  0  0  0  0  0  0  0
   21.3511  -21.7743  -11.4069 O   0  0  0  0  0  0  0  0  0  0  0  0
   23.4569  -21.3724  -12.4079 C   0  0  0  0  0  0  0  0  0  0  0  0
   24.6008  -20.7254  -11.6214 C   0  0  2  0  0  0  0  0  0  0  0  0
   25.9045  -21.1412  -12.0970 N   0  0  0  0  0  0  0  0  0  0  0  0
   24.4105  -21.0602  -10.2196 C   0  0  0  0  0  0  0  0  0  0  0  0
   23.6046  -20.3646   -9.3267 O   0  0  0  0  0  0  0  0  0  0  0  0
   25.0185  -22.0649   -9.7476 O   0  0  0  0  0  0  0  0  0  0  0  0
  2  1  1  6
  2  4  1  0
  3  2  1  0
  4  5  2  0
  6 10  1  0
  6  4  1  0
  7  6  1  0
  8  9  1  0
  8  7  1  0
  9 10  1  0
 10 11  1  1
 11 12  2  0
 11 18  1  0
 14 13  1  0
 14 16  1  0
 15 14  2  0
 17 16  1  6
 17 19  1  0
 18 17  1  0
 19 20  1  0
 21 19  2  0
M  END
$$$$
