APN.pdb
     RDKit          3D

 21 21  0  0  1  0  0  0  0  0999 V2000
   21.6784  -34.6321   -8.5636 C   0  0  0  0  0  0  0  0  0  0  0  0
   22.8622  -35.0462   -9.4244 C   0  0  2  0  0  0  0  0  0  0  0  0
   22.6110  -36.3097  -10.0262 N   0  0  0  0  0  0  0  0  0  0  0  0
   24.0639  -34.9583   -8.5856 C   0  0  0  0  0  0  0  0  0  0  0  0
   24.2142  -35.9088   -7.7454 O   0  0  0  0  0  0  0  0  0  0  0  0
   25.0315  -33.9462   -8.6309 N   0  0  0  0  0  0  0  0  0  0  0  0
   25.0974  -32.7366   -9.4137 C   0  0  0  0  0  0  0  0  0  0  0  0
   25.9125  -31.8065   -8.5469 C   0  0  0  0  0  0  0  0  0  0  0  0
   27.0541  -32.7744   -8.1897 C   0  0  0  0  0  0  0  0  0  0  0  0
   26.2564  -33.9680   -7.8128 C   0  0  1  0  0  0  0  0  0  0  0  0
   25.9486  -34.0723   -6.3742 C   0  0  0  0  0  0  0  0  0  0  0  0
   24.8979  -33.5224   -5.9857 O   0  0  0  0  0  0  0  0  0  0  0  0
   28.4142  -36.0623   -1.1841 N   0  0  0  0  0  0  0  0  0  0  0  0
   27.4101  -36.3470   -2.1453 C   0  0  0  0  0  0  0  0  0  0  0  0
   26.3218  -36.8846   -1.7858 O   0  0  0  0  0  0  0  0  0  0  0  0
   27.6315  -36.0191   -3.5560 C   0  0  0  0  0  0  0  0  0  0  0  0
   26.6189  -34.9997   -4.0863 C   0  0  2  0  0  0  0  0  0  0  0  0
   26.7811  -34.7435   -5.5029 N   0  0  0  0  0  0  0  0  0  0  0  0
   26.7707  -33.7854   -3.3018 C   0  0  0  0  0  0  0  0  0  0  0  0
   26.0158  -33.4470   -2.1855 O   0  0  0  0  0  0  0  0  0  0  0  0
   27.6575  -32.9493   -3.6430 O   0  0  0  0  0  0  0  0  0  0  0  0
  2  1  1  1
  2  4  1  0
  3  2  1  0
  4  5  2  0
  6 10  1  0
  6  4  1  0
  7  6  1  0
  8  9  1  0
  8  7  1  0
  9 10  1  0
 10 11  1  1
 11 12  2  0
 11 18  1  0
 14 13  1  0
 14 16  1  0
 15 14  2  0
 17 16  1  1
 17 19  1  0
 18 17  1  0
 19 20  1  0
 21 19  2  0
M  END
$$$$
