APN.pdb
     RDKit          3D

 21 21  0  0  1  0  0  0  0  0999 V2000
   19.8873  -10.8243  -18.5882 C   0  0  0  0  0  0  0  0  0  0  0  0
   21.0455  -11.2980  -17.7235 C   0  0  2  0  0  0  0  0  0  0  0  0
   21.1616  -12.7133  -17.7940 N   0  0  0  0  0  0  0  0  0  0  0  0
   20.8493  -10.7325  -16.3829 C   0  0  0  0  0  0  0  0  0  0  0  0
   20.0011  -11.3456  -15.6503 O   0  0  0  0  0  0  0  0  0  0  0  0
   21.4983   -9.6079  -15.8569 N   0  0  0  0  0  0  0  0  0  0  0  0
   22.4823   -8.7275  -16.4372 C   0  0  0  0  0  0  0  0  0  0  0  0
   22.2411   -7.4189  -15.7231 C   0  0  0  0  0  0  0  0  0  0  0  0
   22.1747   -7.9573  -14.2831 C   0  0  0  0  0  0  0  0  0  0  0  0
   21.2599   -9.1075  -14.4920 C   0  0  1  0  0  0  0  0  0  0  0  0
   19.8340   -8.8082  -14.2630 C   0  0  0  0  0  0  0  0  0  0  0  0
   19.1830   -8.4011  -15.2466 O   0  0  0  0  0  0  0  0  0  0  0  0
   15.1135   -9.9914  -11.4439 N   0  0  0  0  0  0  0  0  0  0  0  0
   16.1569   -9.2162  -10.8751 C   0  0  0  0  0  0  0  0  0  0  0  0
   15.8905   -8.3311  -10.0100 O   0  0  0  0  0  0  0  0  0  0  0  0
   17.5447   -9.4389  -11.2884 C   0  0  0  0  0  0  0  0  0  0  0  0
   17.8783   -8.7501  -12.6151 C   0  0  2  0  0  0  0  0  0  0  0  0
   19.2507   -8.9701  -13.0236 N   0  0  0  0  0  0  0  0  0  0  0  0
   17.5872   -7.3346  -12.4571 C   0  0  0  0  0  0  0  0  0  0  0  0
   16.3746   -6.7231  -12.7507 O   0  0  0  0  0  0  0  0  0  0  0  0
   18.4974   -6.5732  -12.0170 O   0  0  0  0  0  0  0  0  0  0  0  0
  2  1  1  6
  2  4  1  0
  3  2  1  0
  4  5  2  0
  6 10  1  0
  6  4  1  0
  7  6  1  0
  8  9  1  0
  8  7  1  0
  9 10  1  0
 10 11  1  6
 11 12  2  0
 11 18  1  0
 14 13  1  0
 14 16  1  0
 15 14  2  0
 17 16  1  1
 17 19  1  0
 18 17  1  0
 19 20  1  0
 21 19  2  0
M  END
$$$$
