APN.pdb
     RDKit          3D

 21 21  0  0  1  0  0  0  0  0999 V2000
   17.9292   -8.4467  -16.0818 C   0  0  0  0  0  0  0  0  0  0  0  0
   19.0073   -9.3230  -15.4627 C   0  0  2  0  0  0  0  0  0  0  0  0
   18.8334  -10.6740  -15.8704 N   0  0  0  0  0  0  0  0  0  0  0  0
   18.9908   -9.0785  -14.0152 C   0  0  0  0  0  0  0  0  0  0  0  0
   18.0696   -9.6838  -13.3695 O   0  0  0  0  0  0  0  0  0  0  0  0
   19.8779   -8.2592  -13.3049 N   0  0  0  0  0  0  0  0  0  0  0  0
   21.0735   -7.5721  -13.7274 C   0  0  0  0  0  0  0  0  0  0  0  0
   21.1376   -6.3837  -12.7977 C   0  0  0  0  0  0  0  0  0  0  0  0
   20.8799   -7.1212  -11.4719 C   0  0  0  0  0  0  0  0  0  0  0  0
   19.7163   -7.9507  -11.8735 C   0  0  1  0  0  0  0  0  0  0  0  0
   18.4021   -7.3432  -11.5924 C   0  0  0  0  0  0  0  0  0  0  0  0
   17.9722   -6.5266  -12.4323 O   0  0  0  0  0  0  0  0  0  0  0  0
   13.2117   -7.9870   -9.7054 N   0  0  0  0  0  0  0  0  0  0  0  0
   14.2944   -7.8022   -8.8070 C   0  0  0  0  0  0  0  0  0  0  0  0
   14.0984   -7.2588   -7.6806 O   0  0  0  0  0  0  0  0  0  0  0  0
   15.6412   -8.2403   -9.1821 C   0  0  0  0  0  0  0  0  0  0  0  0
   16.3786   -7.2027  -10.0338 C   0  0  2  0  0  0  0  0  0  0  0  0
   17.6855   -7.6619  -10.4577 N   0  0  0  0  0  0  0  0  0  0  0  0
   16.4682   -5.9805   -9.2518 C   0  0  0  0  0  0  0  0  0  0  0  0
   15.5947   -4.9033   -9.3362 O   0  0  0  0  0  0  0  0  0  0  0  0
   17.4120   -5.8621   -8.4168 O   0  0  0  0  0  0  0  0  0  0  0  0
  2  1  1  6
  2  4  1  0
  3  2  1  0
  4  5  2  0
  6 10  1  0
  6  4  1  0
  7  6  1  0
  8  9  1  0
  8  7  1  0
  9 10  1  0
 10 11  1  6
 11 12  2  0
 11 18  1  0
 14 13  1  0
 14 16  1  0
 15 14  2  0
 17 16  1  1
 17 19  1  0
 18 17  1  0
 19 20  1  0
 21 19  2  0
M  END
$$$$
