APN.pdb
     RDKit          3D

 21 21  0  0  1  0  0  0  0  0999 V2000
   42.6507  -10.5434   -8.4799 C   0  0  0  0  0  0  0  0  0  0  0  0
   41.5071  -11.0846   -9.3243 C   0  0  2  0  0  0  0  0  0  0  0  0
   41.9685  -11.3910  -10.6338 N   0  0  0  0  0  0  0  0  0  0  0  0
   40.4052  -10.1182   -9.2378 C   0  0  0  0  0  0  0  0  0  0  0  0
   40.4864   -9.1245  -10.0364 O   0  0  0  0  0  0  0  0  0  0  0  0
   39.3036  -10.1955   -8.3758 N   0  0  0  0  0  0  0  0  0  0  0  0
   38.9134  -11.2123   -7.4303 C   0  0  0  0  0  0  0  0  0  0  0  0
   38.1387  -10.4393   -6.3896 C   0  0  0  0  0  0  0  0  0  0  0  0
   37.2415   -9.6235   -7.3368 C   0  0  0  0  0  0  0  0  0  0  0  0
   38.2662   -9.1522   -8.3018 C   0  0  1  0  0  0  0  0  0  0  0  0
   38.8434   -7.8315   -7.9892 C   0  0  0  0  0  0  0  0  0  0  0  0
   40.0068   -7.8222   -7.5381 O   0  0  0  0  0  0  0  0  0  0  0  0
   40.0678   -3.3212  -11.0152 N   0  0  0  0  0  0  0  0  0  0  0  0
   40.2775   -4.0148   -9.7953 C   0  0  0  0  0  0  0  0  0  0  0  0
   40.9807   -3.4926   -8.8813 O   0  0  0  0  0  0  0  0  0  0  0  0
   39.6803   -5.3371   -9.5917 C   0  0  0  0  0  0  0  0  0  0  0  0
   38.6118   -5.3345   -8.4944 C   0  0  2  0  0  0  0  0  0  0  0  0
   38.1321   -6.6661   -8.1855 N   0  0  0  0  0  0  0  0  0  0  0  0
   37.5333   -4.4664   -8.9377 C   0  0  0  0  0  0  0  0  0  0  0  0
   36.5918   -4.7820   -9.9095 O   0  0  0  0  0  0  0  0  0  0  0  0
   37.4201   -3.3215   -8.4102 O   0  0  0  0  0  0  0  0  0  0  0  0
  2  1  1  1
  2  4  1  0
  3  2  1  0
  4  5  2  0
  6 10  1  0
  6  4  1  0
  7  6  1  0
  8  9  1  0
  8  7  1  0
  9 10  1  0
 10 11  1  1
 11 12  2  0
 11 18  1  0
 14 13  1  0
 14 16  1  0
 15 14  2  0
 17 16  1  6
 17 19  1  0
 18 17  1  0
 19 20  1  0
 21 19  2  0
M  END
$$$$
