APN.pdb
     RDKit          3D

 21 21  0  0  1  0  0  0  0  0999 V2000
   18.7299   -9.9703  -18.5210 C   0  0  0  0  0  0  0  0  0  0  0  0
   18.6087  -10.6555  -17.1684 C   0  0  2  0  0  0  0  0  0  0  0  0
   17.2462  -10.9522  -16.8909 N   0  0  0  0  0  0  0  0  0  0  0  0
   19.2978   -9.8088  -16.1868 C   0  0  0  0  0  0  0  0  0  0  0  0
   18.6416   -8.7868  -15.7908 O   0  0  0  0  0  0  0  0  0  0  0  0
   20.5794  -10.0249  -15.6637 N   0  0  0  0  0  0  0  0  0  0  0  0
   21.5411  -11.0684  -15.9207 C   0  0  0  0  0  0  0  0  0  0  0  0
   22.8654  -10.3932  -15.6540 C   0  0  0  0  0  0  0  0  0  0  0  0
   22.5136   -9.7308  -14.3104 C   0  0  0  0  0  0  0  0  0  0  0  0
   21.1998   -9.1376  -14.6646 C   0  0  1  0  0  0  0  0  0  0  0  0
   21.2632   -7.7428  -15.1397 C   0  0  0  0  0  0  0  0  0  0  0  0
   21.4481   -7.5763  -16.3624 O   0  0  0  0  0  0  0  0  0  0  0  0
   20.7711   -2.5543  -15.0701 N   0  0  0  0  0  0  0  0  0  0  0  0
   19.7844   -3.1493  -14.2421 C   0  0  0  0  0  0  0  0  0  0  0  0
   18.8231   -2.4539  -13.8006 O   0  0  0  0  0  0  0  0  0  0  0  0
   19.8769   -4.5700  -13.8966 C   0  0  0  0  0  0  0  0  0  0  0  0
   21.0725   -5.2581  -14.5623 C   0  0  2  0  0  0  0  0  0  0  0  0
   21.1254   -6.6770  -14.2750 N   0  0  0  0  0  0  0  0  0  0  0  0
   22.2746   -4.5755  -14.1126 C   0  0  0  0  0  0  0  0  0  0  0  0
   23.1177   -3.8154  -14.9137 O   0  0  0  0  0  0  0  0  0  0  0  0
   22.6035   -4.6652  -12.8937 O   0  0  0  0  0  0  0  0  0  0  0  0
  2  1  1  6
  2  4  1  0
  3  2  1  0
  4  5  2  0
  6 10  1  0
  6  4  1  0
  7  6  1  0
  8  9  1  0
  8  7  1  0
  9 10  1  0
 10 11  1  6
 11 12  2  0
 11 18  1  0
 14 13  1  0
 14 16  1  0
 15 14  2  0
 17 16  1  1
 17 19  1  0
 18 17  1  0
 19 20  1  0
 21 19  2  0
M  END
$$$$
