APN.pdb
     RDKit          3D

 21 21  0  0  1  0  0  0  0  0999 V2000
   18.1145  -15.3439    1.8554 C   0  0  0  0  0  0  0  0  0  0  0  0
   16.7843  -15.4499    2.5855 C   0  0  2  0  0  0  0  0  0  0  0  0
   15.9410  -14.3633    2.2255 N   0  0  0  0  0  0  0  0  0  0  0  0
   17.0816  -15.5897    4.0164 C   0  0  0  0  0  0  0  0  0  0  0  0
   17.1443  -14.4943    4.6707 O   0  0  0  0  0  0  0  0  0  0  0  0
   17.2955  -16.7921    4.7028 N   0  0  0  0  0  0  0  0  0  0  0  0
   17.1971  -18.1618    4.2621 C   0  0  0  0  0  0  0  0  0  0  0  0
   18.1787  -18.8845    5.1536 C   0  0  0  0  0  0  0  0  0  0  0  0
   17.7436  -18.2830    6.5015 C   0  0  0  0  0  0  0  0  0  0  0  0
   17.6823  -16.8490    6.1231 C   0  0  1  0  0  0  0  0  0  0  0  0
   18.9215  -16.0919    6.3807 C   0  0  0  0  0  0  0  0  0  0  0  0
   19.7527  -16.0465    5.4511 O   0  0  0  0  0  0  0  0  0  0  0  0
   20.9709  -10.8478    7.5764 N   0  0  0  0  0  0  0  0  0  0  0  0
   21.1111  -12.2469    7.7667 C   0  0  0  0  0  0  0  0  0  0  0  0
   22.1893  -12.7189    8.2329 O   0  0  0  0  0  0  0  0  0  0  0  0
   20.0078  -13.1476    7.4236 C   0  0  0  0  0  0  0  0  0  0  0  0
   20.2146  -14.5626    7.9722 C   0  0  2  0  0  0  0  0  0  0  0  0
   19.1494  -15.4664    7.5889 N   0  0  0  0  0  0  0  0  0  0  0  0
   20.3333  -14.4573    9.4172 C   0  0  0  0  0  0  0  0  0  0  0  0
   21.4893  -14.6941   10.1507 O   0  0  0  0  0  0  0  0  0  0  0  0
   19.3127  -14.1235   10.0873 O   0  0  0  0  0  0  0  0  0  0  0  0
  2  1  1  6
  2  4  1  0
  3  2  1  0
  4  5  2  0
  6 10  1  0
  6  4  1  0
  7  6  1  0
  8  9  1  0
  8  7  1  0
  9 10  1  0
 10 11  1  6
 11 12  2  0
 11 18  1  0
 14 13  1  0
 14 16  1  0
 15 14  2  0
 17 16  1  6
 17 19  1  0
 18 17  1  0
 19 20  1  0
 21 19  2  0
M  END
$$$$
