LTR.pdb
     RDKit          3D

 27 26  0  0  1  0  0  0  0  0999 V2000
   33.1143  -21.4352   -9.4763 C   0  0  0  0  0  0  0  0  0  0  0  0
   32.0480  -22.0605  -10.3168 C   0  0  1  0  0  0  0  0  0  0  0  0
   31.8371  -23.4871   -9.8439 C   0  0  0  0  0  0  0  0  0  0  0  0
   30.7446  -21.3114  -10.2853 C   0  0  0  0  0  0  0  0  0  0  0  0
   29.7333  -22.0175  -11.1719 C   0  0  2  0  0  0  0  0  0  0  0  0
   30.3656  -22.2823  -12.4479 N   0  0  0  0  0  0  0  0  0  0  0  0
   28.5426  -21.1725  -11.4160 C   0  0  0  0  0  0  0  0  0  0  0  0
   27.8639  -20.7729  -10.4568 O   0  0  0  0  0  0  0  0  0  0  0  0
   28.6942  -18.1934  -13.8763 C   0  0  0  0  0  0  0  0  0  0  0  0
   27.4163  -18.9687  -14.1187 C   0  0  1  0  0  0  0  0  0  0  0  0
   27.4322  -19.6578  -15.3270 O   0  0  0  0  0  0  0  0  0  0  0  0
   27.0515  -19.8372  -12.9379 C   0  0  2  0  0  0  0  0  0  0  0  0
   28.1268  -20.7849  -12.7412 N   0  0  0  0  0  0  0  0  0  0  0  0
   25.7418  -20.4932  -13.0771 C   0  0  0  0  0  0  0  0  0  0  0  0
   25.7334  -21.6867  -13.5105 O   0  0  0  0  0  0  0  0  0  0  0  0
   18.0561  -20.9036  -12.4275 N   0  0  0  0  0  0  0  0  0  0  0  0
   18.0416  -21.4942  -11.1343 C   0  0  0  0  0  0  0  0  0  0  0  0
   17.0321  -22.2051  -10.7939 N   0  0  0  0  0  0  0  0  0  0  0  0
   19.0851  -21.3394  -10.1977 N   0  0  0  0  0  0  0  0  0  0  0  0
   20.2608  -20.5809  -10.4680 C   0  0  0  0  0  0  0  0  0  0  0  0
   21.0495  -20.9872  -11.6529 C   0  0  0  0  0  0  0  0  0  0  0  0
   22.3633  -20.3057  -11.7155 C   0  0  0  0  0  0  0  0  0  0  0  0
   23.2024  -20.5580  -12.8944 C   0  0  2  0  0  0  0  0  0  0  0  0
   24.5051  -19.8898  -12.7636 N   0  0  0  0  0  0  0  0  0  0  0  0
   22.6227  -20.5229  -14.1909 C   0  0  0  0  0  0  0  0  0  0  0  0
   21.6885  -21.2576  -14.6512 O   0  0  0  0  0  0  0  0  0  0  0  0
   23.0922  -19.5832  -15.1339 O   0  0  0  0  0  0  0  0  0  0  0  0
  2  1  1  1
  3  2  1  0
  4  2  1  0
  5  4  1  0
  5  6  1  6
  7  5  1  0
  8  7  2  0
 10  9  1  1
 10 12  1  0
 11 10  1  0
 12 13  1  6
 13  7  1  0
 14 12  1  0
 14 15  2  0
 16 17  1  0
 17 18  2  0
 17 19  1  0
 19 20  1  0
 20 21  1  0
 21 22  1  0
 23 24  1  0
 23 22  1  1
 24 14  1  0
 25 23  1  0
 26 25  2  0
 27 25  1  0
M  END
$$$$
