LTR.pdb
     RDKit          3D

 27 26  0  0  1  0  0  0  0  0999 V2000
   19.4910  -11.0069  -17.8841 C   0  0  0  0  0  0  0  0  0  0  0  0
   18.9046  -11.7121  -16.7037 C   0  0  1  0  0  0  0  0  0  0  0  0
   20.0397  -12.2174  -15.8322 C   0  0  0  0  0  0  0  0  0  0  0  0
   17.9781  -10.8504  -15.8912 C   0  0  0  0  0  0  0  0  0  0  0  0
   17.3472  -11.6844  -14.7893 C   0  0  2  0  0  0  0  0  0  0  0  0
   16.5403  -12.7126  -15.4135 N   0  0  0  0  0  0  0  0  0  0  0  0
   16.4633  -10.8663  -13.9286 C   0  0  0  0  0  0  0  0  0  0  0  0
   15.3476  -10.5182  -14.3460 O   0  0  0  0  0  0  0  0  0  0  0  0
   14.5580  -11.7747  -11.2359 C   0  0  0  0  0  0  0  0  0  0  0  0
   15.4554  -10.6905  -10.6771 C   0  0  1  0  0  0  0  0  0  0  0  0
   16.4946  -11.2033   -9.9075 O   0  0  0  0  0  0  0  0  0  0  0  0
   15.9194   -9.7342  -11.7502 C   0  0  2  0  0  0  0  0  0  0  0  0
   16.8456  -10.4472  -12.6029 N   0  0  0  0  0  0  0  0  0  0  0  0
   16.4915   -8.4884  -11.2158 C   0  0  0  0  0  0  0  0  0  0  0  0
   17.7463   -8.4614  -11.0236 O   0  0  0  0  0  0  0  0  0  0  0  0
   14.8502   -0.0174  -12.7245 N   0  0  0  0  0  0  0  0  0  0  0  0
   15.8502   -0.0132  -11.7139 C   0  0  0  0  0  0  0  0  0  0  0  0
   16.3814    1.1030  -11.3785 N   0  0  0  0  0  0  0  0  0  0  0  0
   16.2938   -1.1790  -11.0549 N   0  0  0  0  0  0  0  0  0  0  0  0
   15.8208   -2.4819  -11.3855 C   0  0  0  0  0  0  0  0  0  0  0  0
   16.3635   -3.6028  -10.5855 C   0  0  0  0  0  0  0  0  0  0  0  0
   15.8821   -4.9201  -11.0627 C   0  0  0  0  0  0  0  0  0  0  0  0
   16.3176   -6.1105  -10.3205 C   0  0  2  0  0  0  0  0  0  0  0  0
   15.7451   -7.3315  -10.9053 N   0  0  0  0  0  0  0  0  0  0  0  0
   16.3672   -6.0755   -8.9013 C   0  0  0  0  0  0  0  0  0  0  0  0
   15.6723   -6.7545   -8.0764 O   0  0  0  0  0  0  0  0  0  0  0  0
   17.2751   -5.2042   -8.2615 O   0  0  0  0  0  0  0  0  0  0  0  0
  2  1  1  6
  3  2  1  0
  4  2  1  0
  5  4  1  0
  5  6  1  6
  7  5  1  0
  8  7  2  0
 10  9  1  6
 10 12  1  0
 11 10  1  0
 12 13  1  1
 13  7  1  0
 14 12  1  0
 14 15  2  0
 16 17  1  0
 17 18  2  0
 17 19  1  0
 19 20  1  0
 20 21  1  0
 21 22  1  0
 23 24  1  0
 23 22  1  1
 24 14  1  0
 25 23  1  0
 26 25  2  0
 27 25  1  0
M  END
$$$$
