LTR.pdb
     RDKit          3D

 27 26  0  0  1  0  0  0  0  0999 V2000
   21.1505  -14.3524  -17.9107 C   0  0  0  0  0  0  0  0  0  0  0  0
   22.6213  -14.4980  -17.6869 C   0  0  1  0  0  0  0  0  0  0  0  0
   22.9851  -13.7839  -16.3981 C   0  0  0  0  0  0  0  0  0  0  0  0
   23.0789  -15.9291  -17.6276 C   0  0  0  0  0  0  0  0  0  0  0  0
   24.5755  -15.9718  -17.3707 C   0  0  2  0  0  0  0  0  0  0  0  0
   25.2510  -15.6403  -18.6084 N   0  0  0  0  0  0  0  0  0  0  0  0
   25.0161  -17.3223  -16.9545 C   0  0  0  0  0  0  0  0  0  0  0  0
   24.9717  -18.2614  -17.7646 O   0  0  0  0  0  0  0  0  0  0  0  0
   28.1355  -18.6145  -16.4590 C   0  0  0  0  0  0  0  0  0  0  0  0
   27.4594  -18.8791  -15.1302 C   0  0  1  0  0  0  0  0  0  0  0  0
   27.8977  -18.0186  -14.1288 O   0  0  0  0  0  0  0  0  0  0  0  0
   25.9556  -18.9280  -15.2628 C   0  0  2  0  0  0  0  0  0  0  0  0
   25.5036  -17.6028  -15.6267 N   0  0  0  0  0  0  0  0  0  0  0  0
   25.2791  -19.4432  -14.0620 C   0  0  0  0  0  0  0  0  0  0  0  0
   25.0001  -18.6063  -13.1487 O   0  0  0  0  0  0  0  0  0  0  0  0
   19.4311  -21.0869  -10.8884 N   0  0  0  0  0  0  0  0  0  0  0  0
   18.9434  -21.0800  -12.2239 C   0  0  0  0  0  0  0  0  0  0  0  0
   17.9936  -20.2763  -12.5278 N   0  0  0  0  0  0  0  0  0  0  0  0
   19.4509  -21.9157  -13.2408 N   0  0  0  0  0  0  0  0  0  0  0  0
   20.7683  -22.4582  -13.2105 C   0  0  0  0  0  0  0  0  0  0  0  0
   21.8521  -21.5351  -12.8049 C   0  0  0  0  0  0  0  0  0  0  0  0
   23.1889  -22.1691  -12.8791 C   0  0  0  0  0  0  0  0  0  0  0  0
   24.3573  -21.3209  -12.6091 C   0  0  2  0  0  0  0  0  0  0  0  0
   24.9226  -20.7937  -13.8594 N   0  0  0  0  0  0  0  0  0  0  0  0
   25.3044  -21.7196  -11.6282 C   0  0  0  0  0  0  0  0  0  0  0  0
   26.5357  -22.0019  -11.7976 O   0  0  0  0  0  0  0  0  0  0  0  0
   24.8984  -21.8373  -10.2814 O   0  0  0  0  0  0  0  0  0  0  0  0
  2  1  1  1
  3  2  1  0
  4  2  1  0
  5  4  1  0
  5  6  1  6
  7  5  1  0
  8  7  2  0
 10  9  1  6
 10 12  1  0
 11 10  1  0
 12 13  1  1
 13  7  1  0
 14 12  1  0
 14 15  2  0
 16 17  1  0
 17 18  2  0
 17 19  1  0
 19 20  1  0
 20 21  1  0
 21 22  1  0
 23 24  1  0
 23 22  1  6
 24 14  1  0
 25 23  1  0
 26 25  2  0
 27 25  1  0
M  END
$$$$
