LTR.pdb
     RDKit          3D

 27 26  0  0  1  0  0  0  0  0999 V2000
   29.3096  -20.0073   -3.0020 C   0  0  0  0  0  0  0  0  0  0  0  0
   28.7147  -19.3193   -4.1883 C   0  0  1  0  0  0  0  0  0  0  0  0
   29.5925  -18.1346   -4.5478 C   0  0  0  0  0  0  0  0  0  0  0  0
   28.5518  -20.2184   -5.3824 C   0  0  0  0  0  0  0  0  0  0  0  0
   27.9788  -19.4215   -6.5418 C   0  0  2  0  0  0  0  0  0  0  0  0
   26.9701  -18.5263   -6.0135 N   0  0  0  0  0  0  0  0  0  0  0  0
   27.3327  -20.3037   -7.5396 C   0  0  0  0  0  0  0  0  0  0  0  0
   27.8901  -21.3585   -7.8816 O   0  0  0  0  0  0  0  0  0  0  0  0
   24.0127  -21.7969   -7.2617 C   0  0  0  0  0  0  0  0  0  0  0  0
   24.0391  -21.1582   -8.6344 C   0  0  1  0  0  0  0  0  0  0  0  0
   23.2027  -20.0501   -8.7227 O   0  0  0  0  0  0  0  0  0  0  0  0
   25.4492  -20.8837   -9.1012 C   0  0  2  0  0  0  0  0  0  0  0  0
   26.0620  -19.9886   -8.1441 N   0  0  0  0  0  0  0  0  0  0  0  0
   25.5197  -20.3693  -10.4779 C   0  0  0  0  0  0  0  0  0  0  0  0
   25.6883  -19.1191  -10.6226 O   0  0  0  0  0  0  0  0  0  0  0  0
   29.6847  -22.1257  -15.4846 N   0  0  0  0  0  0  0  0  0  0  0  0
   29.3183  -21.3567  -16.6230 C   0  0  0  0  0  0  0  0  0  0  0  0
   29.5515  -21.8336  -17.7886 N   0  0  0  0  0  0  0  0  0  0  0  0
   28.7075  -20.0878  -16.5397 N   0  0  0  0  0  0  0  0  0  0  0  0
   27.9860  -19.6506  -15.3913 C   0  0  0  0  0  0  0  0  0  0  0  0
   26.7126  -20.3499  -15.1073 C   0  0  0  0  0  0  0  0  0  0  0  0
   26.6264  -20.8146  -13.7033 C   0  0  0  0  0  0  0  0  0  0  0  0
   25.3471  -20.6301  -13.0055 C   0  0  2  0  0  0  0  0  0  0  0  0
   25.4136  -21.1657  -11.6382 N   0  0  0  0  0  0  0  0  0  0  0  0
   24.1285  -20.8641  -13.6970 C   0  0  0  0  0  0  0  0  0  0  0  0
   23.2270  -21.7234  -13.4263 O   0  0  0  0  0  0  0  0  0  0  0  0
   23.8157  -20.0847  -14.8317 O   0  0  0  0  0  0  0  0  0  0  0  0
  2  1  1  1
  3  2  1  0
  4  2  1  0
  5  4  1  0
  5  6  1  1
  7  5  1  0
  8  7  2  0
 10  9  1  1
 10 12  1  0
 11 10  1  0
 12 13  1  1
 13  7  1  0
 14 12  1  0
 14 15  2  0
 16 17  1  0
 17 18  2  0
 17 19  1  0
 19 20  1  0
 20 21  1  0
 21 22  1  0
 23 24  1  0
 23 22  1  6
 24 14  1  0
 25 23  1  0
 26 25  2  0
 27 25  1  0
M  END
$$$$
