LTR.pdb
     RDKit          3D

 27 26  0  0  1  0  0  0  0  0999 V2000
   15.4853  -19.4804  -17.2929 C   0  0  0  0  0  0  0  0  0  0  0  0
   16.6040  -19.2749  -16.3229 C   0  0  1  0  0  0  0  0  0  0  0  0
   16.1493  -19.7515  -14.9557 C   0  0  0  0  0  0  0  0  0  0  0  0
   17.8736  -19.9783  -16.7156 C   0  0  0  0  0  0  0  0  0  0  0  0
   18.9730  -19.6279  -15.7276 C   0  0  2  0  0  0  0  0  0  0  0  0
   19.1157  -18.1866  -15.7105 N   0  0  0  0  0  0  0  0  0  0  0  0
   20.2714  -20.2133  -16.1308 C   0  0  0  0  0  0  0  0  0  0  0  0
   20.3689  -21.4391  -16.2984 O   0  0  0  0  0  0  0  0  0  0  0  0
   22.2041  -19.5737  -19.2053 C   0  0  0  0  0  0  0  0  0  0  0  0
   23.1257  -19.2865  -18.0386 C   0  0  1  0  0  0  0  0  0  0  0  0
   23.3337  -17.9245  -17.8468 O   0  0  0  0  0  0  0  0  0  0  0  0
   22.6906  -20.0089  -16.7855 C   0  0  2  0  0  0  0  0  0  0  0  0
   21.4505  -19.4103  -16.3419 N   0  0  0  0  0  0  0  0  0  0  0  0
   23.7175  -20.0223  -15.7318 C   0  0  0  0  0  0  0  0  0  0  0  0
   23.6634  -19.1038  -14.8568 O   0  0  0  0  0  0  0  0  0  0  0  0
   24.5276  -22.1381   -8.2188 N   0  0  0  0  0  0  0  0  0  0  0  0
   25.2572  -20.9583   -8.5307 C   0  0  0  0  0  0  0  0  0  0  0  0
   25.4775  -20.1070   -7.5996 N   0  0  0  0  0  0  0  0  0  0  0  0
   25.7558  -20.6708   -9.8187 N   0  0  0  0  0  0  0  0  0  0  0  0
   25.7077  -21.6055  -10.8932 C   0  0  0  0  0  0  0  0  0  0  0  0
   26.3046  -21.1674  -12.1750 C   0  0  0  0  0  0  0  0  0  0  0  0
   25.3296  -21.1988  -13.2899 C   0  0  0  0  0  0  0  0  0  0  0  0
   25.8356  -20.9221  -14.6408 C   0  0  2  0  0  0  0  0  0  0  0  0
   24.7494  -20.9796  -15.6296 N   0  0  0  0  0  0  0  0  0  0  0  0
   27.0734  -21.4815  -15.0567 C   0  0  0  0  0  0  0  0  0  0  0  0
   27.2629  -22.4648  -15.8452 O   0  0  0  0  0  0  0  0  0  0  0  0
   28.2797  -20.9286  -14.5752 O   0  0  0  0  0  0  0  0  0  0  0  0
  2  1  1  6
  3  2  1  0
  4  2  1  0
  5  4  1  0
  5  6  1  6
  7  5  1  0
  8  7  2  0
 10  9  1  6
 10 12  1  0
 11 10  1  0
 12 13  1  1
 13  7  1  0
 14 12  1  0
 14 15  2  0
 16 17  1  0
 17 18  2  0
 17 19  1  0
 19 20  1  0
 20 21  1  0
 21 22  1  0
 23 24  1  0
 23 22  1  1
 24 14  1  0
 25 23  1  0
 26 25  2  0
 27 25  1  0
M  END
$$$$
