LTR.pdb
     RDKit          3D

 27 26  0  0  1  0  0  0  0  0999 V2000
   37.7181  -10.5697  -16.6021 C   0  0  0  0  0  0  0  0  0  0  0  0
   37.9854  -10.9786  -15.1894 C   0  0  1  0  0  0  0  0  0  0  0  0
   38.4862  -12.4112  -15.1894 C   0  0  0  0  0  0  0  0  0  0  0  0
   38.9730  -10.0896  -14.4855 C   0  0  0  0  0  0  0  0  0  0  0  0
   39.2010  -10.6038  -13.0744 C   0  0  2  0  0  0  0  0  0  0  0  0
   37.9267  -10.5992  -12.3858 N   0  0  0  0  0  0  0  0  0  0  0  0
   40.1321   -9.7319  -12.3233 C   0  0  0  0  0  0  0  0  0  0  0  0
   41.3160   -9.6399  -12.6840 O   0  0  0  0  0  0  0  0  0  0  0  0
   39.5572   -6.0314  -11.2626 C   0  0  0  0  0  0  0  0  0  0  0  0
   39.9339   -6.8685  -10.0582 C   0  0  1  0  0  0  0  0  0  0  0  0
   38.8564   -7.0932   -9.2075 O   0  0  0  0  0  0  0  0  0  0  0  0
   40.6582   -8.1332  -10.4552 C   0  0  2  0  0  0  0  0  0  0  0  0
   39.7198   -8.9705  -11.1703 N   0  0  0  0  0  0  0  0  0  0  0  0
   41.2825   -8.8304   -9.3198 C   0  0  0  0  0  0  0  0  0  0  0  0
   40.5677   -9.6697   -8.6898 O   0  0  0  0  0  0  0  0  0  0  0  0
   47.1665  -14.6018   -8.0773 N   0  0  0  0  0  0  0  0  0  0  0  0
   46.9545  -14.1512   -6.7456 C   0  0  0  0  0  0  0  0  0  0  0  0
   47.5754  -14.7380   -5.7914 N   0  0  0  0  0  0  0  0  0  0  0  0
   46.0915  -13.0857   -6.4140 N   0  0  0  0  0  0  0  0  0  0  0  0
   45.2917  -12.4088   -7.3799 C   0  0  0  0  0  0  0  0  0  0  0  0
   44.5600  -11.2119   -6.9075 C   0  0  0  0  0  0  0  0  0  0  0  0
   43.8750  -10.4989   -8.0107 C   0  0  0  0  0  0  0  0  0  0  0  0
   43.1900   -9.2416   -7.6831 C   0  0  2  0  0  0  0  0  0  0  0  0
   42.6112   -8.6303   -8.8881 N   0  0  0  0  0  0  0  0  0  0  0  0
   43.7819   -8.3376   -6.7610 C   0  0  0  0  0  0  0  0  0  0  0  0
   44.3458   -7.2220   -7.0102 O   0  0  0  0  0  0  0  0  0  0  0  0
   43.7797   -8.6519   -5.3848 O   0  0  0  0  0  0  0  0  0  0  0  0
  2  1  1  6
  3  2  1  0
  4  2  1  0
  5  4  1  0
  5  6  1  1
  7  5  1  0
  8  7  2  0
 10  9  1  6
 10 12  1  0
 11 10  1  0
 12 13  1  1
 13  7  1  0
 14 12  1  0
 14 15  2  0
 16 17  1  0
 17 18  2  0
 17 19  1  0
 19 20  1  0
 20 21  1  0
 21 22  1  0
 23 24  1  0
 23 22  1  6
 24 14  1  0
 25 23  1  0
 26 25  2  0
 27 25  1  0
M  END
$$$$
