LTR.pdb
     RDKit          3D

 27 26  0  0  1  0  0  0  0  0999 V2000
   27.8198  -28.7030  -17.0924 C   0  0  0  0  0  0  0  0  0  0  0  0
   28.2130  -27.4233  -17.7575 C   0  0  1  0  0  0  0  0  0  0  0  0
   27.1779  -27.0940  -18.8174 C   0  0  0  0  0  0  0  0  0  0  0  0
   28.3540  -26.2708  -16.8020 C   0  0  0  0  0  0  0  0  0  0  0  0
   28.8638  -25.0517  -17.5512 C   0  0  2  0  0  0  0  0  0  0  0  0
   30.2572  -25.2774  -17.8763 N   0  0  0  0  0  0  0  0  0  0  0  0
   28.7784  -23.8295  -16.7203 C   0  0  0  0  0  0  0  0  0  0  0  0
   29.7121  -23.5375  -15.9567 O   0  0  0  0  0  0  0  0  0  0  0  0
   28.5290  -20.2594  -17.6226 C   0  0  0  0  0  0  0  0  0  0  0  0
   27.3263  -20.5791  -16.7600 C   0  0  1  0  0  0  0  0  0  0  0  0
   26.1471  -20.6488  -17.4947 O   0  0  0  0  0  0  0  0  0  0  0  0
   27.5630  -21.7909  -15.8899 C   0  0  2  0  0  0  0  0  0  0  0  0
   27.6393  -22.9461  -16.7574 N   0  0  0  0  0  0  0  0  0  0  0  0
   26.5596  -21.9517  -14.8258 C   0  0  0  0  0  0  0  0  0  0  0  0
   25.5056  -22.5982  -15.1145 O   0  0  0  0  0  0  0  0  0  0  0  0
   23.4140  -19.6895   -7.3001 N   0  0  0  0  0  0  0  0  0  0  0  0
   23.2201  -21.0617   -7.6178 C   0  0  0  0  0  0  0  0  0  0  0  0
   22.1341  -21.6312   -7.2482 N   0  0  0  0  0  0  0  0  0  0  0  0
   24.1646  -21.8370   -8.3226 N   0  0  0  0  0  0  0  0  0  0  0  0
   25.2944  -21.2700   -8.9805 C   0  0  0  0  0  0  0  0  0  0  0  0
   25.0244  -20.5287  -10.2330 C   0  0  0  0  0  0  0  0  0  0  0  0
   26.0427  -20.7948  -11.2754 C   0  0  0  0  0  0  0  0  0  0  0  0
   25.5661  -21.2509  -12.5878 C   0  0  2  0  0  0  0  0  0  0  0  0
   26.6894  -21.4399  -13.5169 N   0  0  0  0  0  0  0  0  0  0  0  0
   24.3956  -20.6750  -13.1502 C   0  0  0  0  0  0  0  0  0  0  0  0
   24.2968  -19.5899  -13.8115 O   0  0  0  0  0  0  0  0  0  0  0  0
   23.1567  -21.3334  -12.9947 O   0  0  0  0  0  0  0  0  0  0  0  0
  2  1  1  1
  3  2  1  0
  4  2  1  0
  5  4  1  0
  5  6  1  1
  7  5  1  0
  8  7  2  0
 10  9  1  6
 10 12  1  0
 11 10  1  0
 12 13  1  6
 13  7  1  0
 14 12  1  0
 14 15  2  0
 16 17  1  0
 17 18  2  0
 17 19  1  0
 19 20  1  0
 20 21  1  0
 21 22  1  0
 23 24  1  0
 23 22  1  1
 24 14  1  0
 25 23  1  0
 26 25  2  0
 27 25  1  0
M  END
$$$$
