LTR.pdb
     RDKit          3D

 27 26  0  0  1  0  0  0  0  0999 V2000
   22.2178  -29.0041  -13.1657 C   0  0  0  0  0  0  0  0  0  0  0  0
   21.1382  -29.2629  -12.1647 C   0  0  1  0  0  0  0  0  0  0  0  0
   21.5871  -30.3902  -11.2531 C   0  0  0  0  0  0  0  0  0  0  0  0
   20.7781  -28.0537  -11.3466 C   0  0  0  0  0  0  0  0  0  0  0  0
   19.7390  -28.4370  -10.3070 C   0  0  2  0  0  0  0  0  0  0  0  0
   18.5063  -28.7483  -11.0010 N   0  0  0  0  0  0  0  0  0  0  0  0
   19.4703  -27.3214   -9.3717 C   0  0  0  0  0  0  0  0  0  0  0  0
   20.3763  -26.9061   -8.6321 O   0  0  0  0  0  0  0  0  0  0  0  0
   18.7571  -23.9683  -10.2004 C   0  0  0  0  0  0  0  0  0  0  0  0
   17.6155  -24.3633   -9.2874 C   0  0  1  0  0  0  0  0  0  0  0  0
   16.4173  -24.5303   -9.9743 O   0  0  0  0  0  0  0  0  0  0  0  0
   17.9747  -25.5417   -8.4134 C   0  0  2  0  0  0  0  0  0  0  0  0
   18.1807  -26.6830   -9.2782 N   0  0  0  0  0  0  0  0  0  0  0  0
   16.9869  -25.8080   -7.3559 C   0  0  0  0  0  0  0  0  0  0  0  0
   16.4480  -26.9576   -7.3410 O   0  0  0  0  0  0  0  0  0  0  0  0
   14.9615  -21.3595    0.1152 N   0  0  0  0  0  0  0  0  0  0  0  0
   14.5291  -22.7025    0.2910 C   0  0  0  0  0  0  0  0  0  0  0  0
   14.1467  -23.0785    1.4542 N   0  0  0  0  0  0  0  0  0  0  0  0
   14.4979  -23.6516   -0.7522 N   0  0  0  0  0  0  0  0  0  0  0  0
   14.8526  -23.3361   -2.0958 C   0  0  0  0  0  0  0  0  0  0  0  0
   14.7618  -24.4399   -3.0779 C   0  0  0  0  0  0  0  0  0  0  0  0
   15.7410  -24.2947   -4.1801 C   0  0  0  0  0  0  0  0  0  0  0  0
   15.5350  -25.1137   -5.3820 C   0  0  2  0  0  0  0  0  0  0  0  0
   16.6020  -24.8792   -6.3655 N   0  0  0  0  0  0  0  0  0  0  0  0
   14.2278  -25.2592   -5.9186 C   0  0  0  0  0  0  0  0  0  0  0  0
   13.7358  -24.6900   -6.9474 O   0  0  0  0  0  0  0  0  0  0  0  0
   13.3110  -26.1245   -5.2835 O   0  0  0  0  0  0  0  0  0  0  0  0
  2  1  1  6
  3  2  1  0
  4  2  1  0
  5  4  1  0
  5  6  1  6
  7  5  1  0
  8  7  2  0
 10  9  1  6
 10 12  1  0
 11 10  1  0
 12 13  1  6
 13  7  1  0
 14 12  1  0
 14 15  2  0
 16 17  1  0
 17 18  2  0
 17 19  1  0
 19 20  1  0
 20 21  1  0
 21 22  1  0
 23 24  1  0
 23 22  1  1
 24 14  1  0
 25 23  1  0
 26 25  2  0
 27 25  1  0
M  END
$$$$
