LTR.pdb
     RDKit          3D

 27 26  0  0  1  0  0  0  0  0999 V2000
   25.2762  -17.3391  -18.7291 C   0  0  0  0  0  0  0  0  0  0  0  0
   25.0759  -18.5359  -17.8561 C   0  0  1  0  0  0  0  0  0  0  0  0
   26.4279  -18.9768  -17.3260 C   0  0  0  0  0  0  0  0  0  0  0  0
   24.1311  -18.2910  -16.7122 C   0  0  0  0  0  0  0  0  0  0  0  0
   24.0622  -19.5315  -15.8381 C   0  0  2  0  0  0  0  0  0  0  0  0
   23.7117  -20.6546  -16.6830 N   0  0  0  0  0  0  0  0  0  0  0  0
   23.0223  -19.4012  -14.7926 C   0  0  0  0  0  0  0  0  0  0  0  0
   22.9371  -18.3514  -14.1362 O   0  0  0  0  0  0  0  0  0  0  0  0
   20.9595  -17.7661  -14.1751 C   0  0  0  0  0  0  0  0  0  0  0  0
   20.1695  -19.0561  -14.2445 C   0  0  1  0  0  0  0  0  0  0  0  0
   19.6761  -19.3107  -15.5200 O   0  0  0  0  0  0  0  0  0  0  0  0
   20.9340  -20.2175  -13.6545 C   0  0  2  0  0  0  0  0  0  0  0  0
   22.0863  -20.4573  -14.4957 N   0  0  0  0  0  0  0  0  0  0  0  0
   20.1126  -21.4240  -13.4683 C   0  0  0  0  0  0  0  0  0  0  0  0
   20.1370  -22.2917  -14.3949 O   0  0  0  0  0  0  0  0  0  0  0  0
   17.3827  -26.3438   -7.6670 N   0  0  0  0  0  0  0  0  0  0  0  0
   18.2446  -25.4257   -7.0070 C   0  0  0  0  0  0  0  0  0  0  0  0
   18.9514  -25.8433   -6.0238 N   0  0  0  0  0  0  0  0  0  0  0  0
   18.3656  -24.0699   -7.3772 N   0  0  0  0  0  0  0  0  0  0  0  0
   17.7139  -23.5185   -8.5181 C   0  0  0  0  0  0  0  0  0  0  0  0
   18.4592  -23.5778   -9.7957 C   0  0  0  0  0  0  0  0  0  0  0  0
   17.7663  -22.8526  -10.8859 C   0  0  0  0  0  0  0  0  0  0  0  0
   18.4105  -22.8368  -12.2059 C   0  0  2  0  0  0  0  0  0  0  0  0
   19.3066  -21.6790  -12.3381 N   0  0  0  0  0  0  0  0  0  0  0  0
   17.6523  -23.1604  -13.3627 C   0  0  0  0  0  0  0  0  0  0  0  0
   16.9059  -22.3897  -14.0508 O   0  0  0  0  0  0  0  0  0  0  0  0
   17.6844  -24.4793  -13.8650 O   0  0  0  0  0  0  0  0  0  0  0  0
  2  1  1  1
  3  2  1  0
  4  2  1  0
  5  4  1  0
  5  6  1  6
  7  5  1  0
  8  7  2  0
 10  9  1  6
 10 12  1  0
 11 10  1  0
 12 13  1  6
 13  7  1  0
 14 12  1  0
 14 15  2  0
 16 17  1  0
 17 18  2  0
 17 19  1  0
 19 20  1  0
 20 21  1  0
 21 22  1  0
 23 24  1  0
 23 22  1  1
 24 14  1  0
 25 23  1  0
 26 25  2  0
 27 25  1  0
M  END
$$$$
