LTR.pdb
     RDKit          3D

 27 26  0  0  1  0  0  0  0  0999 V2000
   28.5977  -19.1199   -5.9694 C   0  0  0  0  0  0  0  0  0  0  0  0
   28.2382  -20.1358   -7.0053 C   0  0  1  0  0  0  0  0  0  0  0  0
   26.9298  -20.7911   -6.6032 C   0  0  0  0  0  0  0  0  0  0  0  0
   28.1208  -19.5626   -8.3905 C   0  0  0  0  0  0  0  0  0  0  0  0
   27.5725  -20.6214   -9.3317 C   0  0  2  0  0  0  0  0  0  0  0  0
   28.6931  -21.3672   -9.8666 N   0  0  0  0  0  0  0  0  0  0  0  0
   26.8425  -20.0127  -10.4666 C   0  0  0  0  0  0  0  0  0  0  0  0
   27.1080  -18.8526  -10.8184 O   0  0  0  0  0  0  0  0  0  0  0  0
   27.1683  -21.1355  -13.6425 C   0  0  0  0  0  0  0  0  0  0  0  0
   26.3504  -19.8904  -13.3710 C   0  0  1  0  0  0  0  0  0  0  0  0
   25.9261  -19.2663  -14.5396 O   0  0  0  0  0  0  0  0  0  0  0  0
   25.2310  -20.1539  -12.3917 C   0  0  2  0  0  0  0  0  0  0  0  0
   25.8178  -20.7182  -11.1957 N   0  0  0  0  0  0  0  0  0  0  0  0
   24.1578  -20.9960  -12.9431 C   0  0  0  0  0  0  0  0  0  0  0  0
   24.1972  -22.2364  -12.6746 O   0  0  0  0  0  0  0  0  0  0  0  0
   18.6138  -23.7027   -8.6239 N   0  0  0  0  0  0  0  0  0  0  0  0
   17.8298  -23.0807   -9.6339 C   0  0  0  0  0  0  0  0  0  0  0  0
   16.5920  -22.8512   -9.3978 N   0  0  0  0  0  0  0  0  0  0  0  0
   18.3431  -22.6994  -10.8913 N   0  0  0  0  0  0  0  0  0  0  0  0
   19.6764  -22.9890  -11.3027 C   0  0  0  0  0  0  0  0  0  0  0  0
   20.0658  -22.5222  -12.6523 C   0  0  0  0  0  0  0  0  0  0  0  0
   21.3104  -21.7189  -12.6328 C   0  0  0  0  0  0  0  0  0  0  0  0
   21.8161  -21.2211  -13.9189 C   0  0  2  0  0  0  0  0  0  0  0  0
   23.0967  -20.5211  -13.7433 N   0  0  0  0  0  0  0  0  0  0  0  0
   20.9173  -20.6314  -14.8475 C   0  0  0  0  0  0  0  0  0  0  0  0
   19.8090  -21.0985  -15.2693 O   0  0  0  0  0  0  0  0  0  0  0  0
   21.2289  -19.3748  -15.4102 O   0  0  0  0  0  0  0  0  0  0  0  0
  2  1  1  1
  3  2  1  0
  4  2  1  0
  5  4  1  0
  5  6  1  6
  7  5  1  0
  8  7  2  0
 10  9  1  6
 10 12  1  0
 11 10  1  0
 12 13  1  1
 13  7  1  0
 14 12  1  0
 14 15  2  0
 16 17  1  0
 17 18  2  0
 17 19  1  0
 19 20  1  0
 20 21  1  0
 21 22  1  0
 23 24  1  0
 23 22  1  1
 24 14  1  0
 25 23  1  0
 26 25  2  0
 27 25  1  0
M  END
$$$$
