LTR.pdb
     RDKit          3D

 27 26  0  0  1  0  0  0  0  0999 V2000
   29.6561  -19.6738   -5.0973 C   0  0  0  0  0  0  0  0  0  0  0  0
   28.2937  -20.0840   -5.5558 C   0  0  1  0  0  0  0  0  0  0  0  0
   27.3238  -19.9063   -4.4021 C   0  0  0  0  0  0  0  0  0  0  0  0
   27.8100  -19.3177   -6.7557 C   0  0  0  0  0  0  0  0  0  0  0  0
   26.5027  -19.9165   -7.2455 C   0  0  2  0  0  0  0  0  0  0  0  0
   26.5431  -21.3427   -6.9956 N   0  0  0  0  0  0  0  0  0  0  0  0
   26.3229  -19.7102   -8.7003 C   0  0  0  0  0  0  0  0  0  0  0  0
   26.3668  -18.5620   -9.1695 O   0  0  0  0  0  0  0  0  0  0  0  0
   28.4462  -20.6575  -11.3100 C   0  0  0  0  0  0  0  0  0  0  0  0
   27.1151  -21.2467  -11.7270 C   0  0  1  0  0  0  0  0  0  0  0  0
   27.0880  -22.6331  -11.6161 O   0  0  0  0  0  0  0  0  0  0  0  0
   25.9567  -20.5672  -11.0357 C   0  0  2  0  0  0  0  0  0  0  0  0
   26.0948  -20.8015   -9.6147 N   0  0  0  0  0  0  0  0  0  0  0  0
   24.6427  -20.9846  -11.5497 C   0  0  0  0  0  0  0  0  0  0  0  0
   23.8060  -21.4346  -10.7072 O   0  0  0  0  0  0  0  0  0  0  0  0
   17.0773  -21.2989  -12.1570 N   0  0  0  0  0  0  0  0  0  0  0  0
   18.0036  -22.3727  -12.2599 C   0  0  0  0  0  0  0  0  0  0  0  0
   17.5762  -23.5199  -12.6361 N   0  0  0  0  0  0  0  0  0  0  0  0
   19.3778  -22.2440  -11.9684 N   0  0  0  0  0  0  0  0  0  0  0  0
   19.9603  -21.0276  -11.5082 C   0  0  0  0  0  0  0  0  0  0  0  0
   20.5706  -20.1578  -12.5388 C   0  0  0  0  0  0  0  0  0  0  0  0
   22.0430  -20.0703  -12.4018 C   0  0  0  0  0  0  0  0  0  0  0  0
   22.8592  -20.8262  -13.3609 C   0  0  2  0  0  0  0  0  0  0  0  0
   24.2535  -20.9185  -12.9046 N   0  0  0  0  0  0  0  0  0  0  0  0
   22.6829  -20.6152  -14.7545 C   0  0  0  0  0  0  0  0  0  0  0  0
   23.2085  -19.7105  -15.4823 O   0  0  0  0  0  0  0  0  0  0  0  0
   21.8350  -21.4769  -15.4834 O   0  0  0  0  0  0  0  0  0  0  0  0
  2  1  1  1
  3  2  1  0
  4  2  1  0
  5  4  1  0
  5  6  1  6
  7  5  1  0
  8  7  2  0
 10  9  1  1
 10 12  1  0
 11 10  1  0
 12 13  1  1
 13  7  1  0
 14 12  1  0
 14 15  2  0
 16 17  1  0
 17 18  2  0
 17 19  1  0
 19 20  1  0
 20 21  1  0
 21 22  1  0
 23 24  1  0
 23 22  1  1
 24 14  1  0
 25 23  1  0
 26 25  2  0
 27 25  1  0
M  END
$$$$
