LTR.pdb
     RDKit          3D

 27 26  0  0  1  0  0  0  0  0999 V2000
   33.3369  -21.2445  -10.0502 C   0  0  0  0  0  0  0  0  0  0  0  0
   32.1017  -21.9516  -10.5070 C   0  0  1  0  0  0  0  0  0  0  0  0
   31.7406  -23.0047   -9.4755 C   0  0  0  0  0  0  0  0  0  0  0  0
   30.9338  -21.0315  -10.7318 C   0  0  0  0  0  0  0  0  0  0  0  0
   29.7611  -21.8266  -11.2798 C   0  0  2  0  0  0  0  0  0  0  0  0
   30.2105  -22.5253  -12.4664 N   0  0  0  0  0  0  0  0  0  0  0  0
   28.6387  -20.9418  -11.6653 C   0  0  0  0  0  0  0  0  0  0  0  0
   28.1243  -20.1950  -10.8181 O   0  0  0  0  0  0  0  0  0  0  0  0
   28.7241  -18.2040  -14.0032 C   0  0  0  0  0  0  0  0  0  0  0  0
   27.5987  -19.0984  -14.4791 C   0  0  1  0  0  0  0  0  0  0  0  0
   27.9326  -19.8096  -15.6271 O   0  0  0  0  0  0  0  0  0  0  0  0
   27.0638  -19.9707  -13.3680 C   0  0  2  0  0  0  0  0  0  0  0  0
   28.1053  -20.9067  -13.0045 N   0  0  0  0  0  0  0  0  0  0  0  0
   25.7987  -20.6407  -13.7081 C   0  0  0  0  0  0  0  0  0  0  0  0
   25.8762  -21.7788  -14.2657 O   0  0  0  0  0  0  0  0  0  0  0  0
   17.6926  -21.6667  -13.1558 N   0  0  0  0  0  0  0  0  0  0  0  0
   18.2848  -22.8583  -13.6567 C   0  0  0  0  0  0  0  0  0  0  0  0
   17.5702  -23.6488  -14.3674 N   0  0  0  0  0  0  0  0  0  0  0  0
   19.6258  -23.2216  -13.4125 N   0  0  0  0  0  0  0  0  0  0  0  0
   20.5342  -22.3901  -12.6955 C   0  0  0  0  0  0  0  0  0  0  0  0
   20.8541  -21.0814  -13.3088 C   0  0  0  0  0  0  0  0  0  0  0  0
   22.2045  -20.5998  -12.9357 C   0  0  0  0  0  0  0  0  0  0  0  0
   23.2639  -20.7011  -13.9481 C   0  0  2  0  0  0  0  0  0  0  0  0
   24.5161  -20.1075  -13.4578 N   0  0  0  0  0  0  0  0  0  0  0  0
   22.9593  -20.4497  -15.3127 C   0  0  0  0  0  0  0  0  0  0  0  0
   23.2376  -19.4124  -15.9989 O   0  0  0  0  0  0  0  0  0  0  0  0
   22.2651  -21.4267  -16.0584 O   0  0  0  0  0  0  0  0  0  0  0  0
  2  1  1  1
  3  2  1  0
  4  2  1  0
  5  4  1  0
  5  6  1  6
  7  5  1  0
  8  7  2  0
 10  9  1  1
 10 12  1  0
 11 10  1  0
 12 13  1  6
 13  7  1  0
 14 12  1  0
 14 15  2  0
 16 17  1  0
 17 18  2  0
 17 19  1  0
 19 20  1  0
 20 21  1  0
 21 22  1  0
 23 24  1  0
 23 22  1  1
 24 14  1  0
 25 23  1  0
 26 25  2  0
 27 25  1  0
M  END
$$$$
