LTR.pdb
     RDKit          3D

 27 26  0  0  1  0  0  0  0  0999 V2000
   28.5957  -19.7439   -6.0513 C   0  0  0  0  0  0  0  0  0  0  0  0
   27.2154  -19.7190   -6.6245 C   0  0  1  0  0  0  0  0  0  0  0  0
   26.7354  -18.2798   -6.6613 C   0  0  0  0  0  0  0  0  0  0  0  0
   27.1265  -20.3250   -7.9978 C   0  0  0  0  0  0  0  0  0  0  0  0
   25.7101  -20.1756   -8.5263 C   0  0  2  0  0  0  0  0  0  0  0  0
   24.8260  -20.9173   -7.6509 N   0  0  0  0  0  0  0  0  0  0  0  0
   25.5789  -20.7334   -9.8912 C   0  0  0  0  0  0  0  0  0  0  0  0
   25.8076  -21.9370  -10.0893 O   0  0  0  0  0  0  0  0  0  0  0  0
   23.5104  -22.3620  -11.2426 C   0  0  0  0  0  0  0  0  0  0  0  0
   23.4989  -21.1636  -12.1682 C   0  0  1  0  0  0  0  0  0  0  0  0
   22.5006  -20.2504  -11.8450 O   0  0  0  0  0  0  0  0  0  0  0  0
   24.8671  -20.5363  -12.2948 C   0  0  2  0  0  0  0  0  0  0  0  0
   25.1906  -19.9281  -11.0227 N   0  0  0  0  0  0  0  0  0  0  0  0
   24.9744  -19.5884  -13.4151 C   0  0  0  0  0  0  0  0  0  0  0  0
   24.7069  -18.3710  -13.1732 O   0  0  0  0  0  0  0  0  0  0  0  0
   29.1019  -16.1837  -19.3176 N   0  0  0  0  0  0  0  0  0  0  0  0
   29.6040  -17.2500  -18.5222 C   0  0  0  0  0  0  0  0  0  0  0  0
   30.7375  -17.1052  -17.9438 N   0  0  0  0  0  0  0  0  0  0  0  0
   28.9180  -18.4681  -18.3332 N   0  0  0  0  0  0  0  0  0  0  0  0
   27.6191  -18.7149  -18.8648 C   0  0  0  0  0  0  0  0  0  0  0  0
   26.4737  -18.3699  -17.9929 C   0  0  0  0  0  0  0  0  0  0  0  0
   26.3572  -19.2801  -16.8299 C   0  0  0  0  0  0  0  0  0  0  0  0
   25.2598  -19.0352  -15.8847 C   0  0  2  0  0  0  0  0  0  0  0  0
   25.3516  -19.9391  -14.7291 N   0  0  0  0  0  0  0  0  0  0  0  0
   23.9479  -18.7992  -16.3758 C   0  0  0  0  0  0  0  0  0  0  0  0
   23.0622  -19.6606  -16.6889 O   0  0  0  0  0  0  0  0  0  0  0  0
   23.5073  -17.4713  -16.5633 O   0  0  0  0  0  0  0  0  0  0  0  0
  2  1  1  6
  3  2  1  0
  4  2  1  0
  5  4  1  0
  5  6  1  1
  7  5  1  0
  8  7  2  0
 10  9  1  1
 10 12  1  0
 11 10  1  0
 12 13  1  1
 13  7  1  0
 14 12  1  0
 14 15  2  0
 16 17  1  0
 17 18  2  0
 17 19  1  0
 19 20  1  0
 20 21  1  0
 21 22  1  0
 23 24  1  0
 23 22  1  6
 24 14  1  0
 25 23  1  0
 26 25  2  0
 27 25  1  0
M  END
$$$$
