AAE.pdb
     RDKit          3D

 20 19  0  0  1  0  0  0  0  0999 V2000
    7.1276  -14.5649   19.6390 C   0  0  0  0  0  0  0  0  0  0  0  0
    7.4828  -13.2618   20.3231 C   0  0  2  0  0  0  0  0  0  0  0  0
    8.4498  -12.4730   19.6189 N   0  0  0  0  0  0  0  0  0  0  0  0
    8.0097  -13.5580   21.7029 C   0  0  0  0  0  0  0  0  0  0  0  0
    9.2071  -13.9127   21.8529 O   0  0  0  0  0  0  0  0  0  0  0  0
    6.8611  -13.2664   25.2829 C   0  0  0  0  0  0  0  0  0  0  0  0
    7.7270  -13.7383   24.1427 C   0  0  2  0  0  0  0  0  0  0  0  0
    7.1806  -13.4453   22.8392 N   0  0  0  0  0  0  0  0  0  0  0  0
    8.0503  -15.1952   24.2434 C   0  0  0  0  0  0  0  0  0  0  0  0
    7.2618  -16.0733   23.7969 O   0  0  0  0  0  0  0  0  0  0  0  0
    9.2616  -15.6178   24.8475 N   0  0  0  0  0  0  0  0  0  0  0  0
    9.5937  -17.0426   25.0382 C   0  0  1  0  0  0  0  0  0  0  0  0
   11.0181  -17.1698   24.5557 C   0  0  0  0  0  0  0  0  0  0  0  0
   11.6444  -18.5032   24.7912 C   0  0  0  0  0  0  0  0  0  0  0  0
   13.0004  -18.5080   24.2150 C   0  0  0  0  0  0  0  0  0  0  0  0
   13.9629  -18.9217   24.8831 O   0  0  0  0  0  0  0  0  0  0  0  0
    9.5175  -17.3395   26.5032 C   0  0  0  0  0  0  0  0  0  0  0  0
    9.5344  -16.2935   27.3944 O   0  0  0  0  0  0  0  0  0  0  0  0
   13.2013  -18.0528   22.9318 O   0  0  0  0  0  0  0  0  0  0  0  0
    9.4387  -18.5285   26.9372 O   0  0  0  0  0  0  0  0  0  0  0  0
  2  1  1  6
  2  3  1  0
  4  8  1  0
  4  2  1  0
  5  4  2  0
  7  6  1  1
  7  9  1  0
  7  8  1  0
  9 11  1  0
 10  9  2  0
 11 12  1  0
 12 13  1  1
 13 14  1  0
 14 15  1  0
 15 19  1  0
 15 16  2  0
 17 12  1  0
 17 18  1  0
 20 17  2  0
M  END
$$$$
