AAE.pdb
     RDKit          3D

 20 19  0  0  1  0  0  0  0  0999 V2000
    6.7686  -17.4045   20.3593 C   0  0  0  0  0  0  0  0  0  0  0  0
    7.6395  -16.1831   20.1540 C   0  0  2  0  0  0  0  0  0  0  0  0
    8.6359  -16.3364   19.1357 N   0  0  0  0  0  0  0  0  0  0  0  0
    8.3214  -15.8409   21.4530 C   0  0  0  0  0  0  0  0  0  0  0  0
    9.4242  -16.3732   21.7402 O   0  0  0  0  0  0  0  0  0  0  0  0
    7.8119  -13.5189   24.3893 C   0  0  0  0  0  0  0  0  0  0  0  0
    8.4030  -14.6722   23.6191 C   0  0  2  0  0  0  0  0  0  0  0  0
    7.7431  -14.9289   22.3612 N   0  0  0  0  0  0  0  0  0  0  0  0
    8.4559  -15.9270   24.4316 C   0  0  0  0  0  0  0  0  0  0  0  0
    7.4511  -16.6832   24.5347 O   0  0  0  0  0  0  0  0  0  0  0  0
    9.6492  -16.2916   25.1052 N   0  0  0  0  0  0  0  0  0  0  0  0
    9.7575  -17.5250   25.9076 C   0  0  1  0  0  0  0  0  0  0  0  0
   10.8898  -18.2947   25.2725 C   0  0  0  0  0  0  0  0  0  0  0  0
   11.2461  -19.5697   25.9604 C   0  0  0  0  0  0  0  0  0  0  0  0
   12.3693  -20.2044   25.2487 C   0  0  0  0  0  0  0  0  0  0  0  0
   13.3999  -19.5561   25.0011 O   0  0  0  0  0  0  0  0  0  0  0  0
   10.1215  -17.1326   27.3054 C   0  0  0  0  0  0  0  0  0  0  0  0
    9.9306  -18.0390   28.3205 O   0  0  0  0  0  0  0  0  0  0  0  0
   12.2763  -21.5206   24.8570 O   0  0  0  0  0  0  0  0  0  0  0  0
   10.5989  -15.9882   27.5714 O   0  0  0  0  0  0  0  0  0  0  0  0
  2  1  1  1
  2  3  1  0
  4  8  1  0
  4  2  1  0
  5  4  2  0
  7  6  1  1
  7  9  1  0
  7  8  1  0
  9 11  1  0
 10  9  2  0
 11 12  1  0
 12 13  1  6
 13 14  1  0
 14 15  1  0
 15 19  1  0
 15 16  2  0
 17 12  1  0
 17 18  1  0
 20 17  2  0
M  END
$$$$
