AAE.pdb
     RDKit          3D

 20 19  0  0  1  0  0  0  0  0999 V2000
    6.7819  -17.8763   19.5041 C   0  0  0  0  0  0  0  0  0  0  0  0
    7.4044  -16.5130   19.2889 C   0  0  2  0  0  0  0  0  0  0  0  0
    8.3168  -16.4512   18.1858 N   0  0  0  0  0  0  0  0  0  0  0  0
    8.1297  -16.0996   20.5428 C   0  0  0  0  0  0  0  0  0  0  0  0
    9.3336  -16.4255   20.7058 O   0  0  0  0  0  0  0  0  0  0  0  0
    7.4939  -13.9127   23.5567 C   0  0  0  0  0  0  0  0  0  0  0  0
    8.2384  -14.8938   22.6873 C   0  0  2  0  0  0  0  0  0  0  0  0
    7.4808  -15.3491   21.5461 N   0  0  0  0  0  0  0  0  0  0  0  0
    8.7437  -16.0678   23.4642 C   0  0  0  0  0  0  0  0  0  0  0  0
    8.0404  -17.1044   23.6158 O   0  0  0  0  0  0  0  0  0  0  0  0
   10.0354  -16.0352   24.0480 N   0  0  0  0  0  0  0  0  0  0  0  0
   10.5457  -17.1283   24.8975 C   0  0  1  0  0  0  0  0  0  0  0  0
   12.0226  -17.1901   24.5927 C   0  0  0  0  0  0  0  0  0  0  0  0
   12.3600  -17.6198   23.2044 C   0  0  0  0  0  0  0  0  0  0  0  0
   13.8246  -17.7050   23.0682 C   0  0  0  0  0  0  0  0  0  0  0  0
   14.4144  -18.7722   23.3071 O   0  0  0  0  0  0  0  0  0  0  0  0
   10.3304  -16.7378   26.3263 C   0  0  0  0  0  0  0  0  0  0  0  0
   10.5536  -17.6707   27.3104 O   0  0  0  0  0  0  0  0  0  0  0  0
   14.5418  -16.5983   22.6744 O   0  0  0  0  0  0  0  0  0  0  0  0
    9.9481  -15.5717   26.6462 O   0  0  0  0  0  0  0  0  0  0  0  0
  2  1  1  1
  2  3  1  0
  4  8  1  0
  4  2  1  0
  5  4  2  0
  7  6  1  1
  7  9  1  0
  7  8  1  0
  9 11  1  0
 10  9  2  0
 11 12  1  0
 12 13  1  1
 13 14  1  0
 14 15  1  0
 15 19  1  0
 15 16  2  0
 17 12  1  0
 17 18  1  0
 20 17  2  0
M  END
$$$$
