AAE.pdb
     RDKit          3D

 20 19  0  0  1  0  0  0  0  0999 V2000
    7.4717  -16.9653   15.8448 C   0  0  0  0  0  0  0  0  0  0  0  0
    7.8854  -15.5172   15.6903 C   0  0  2  0  0  0  0  0  0  0  0  0
    8.8069  -15.2805   14.6188 N   0  0  0  0  0  0  0  0  0  0  0  0
    8.5060  -15.0424   16.9783 C   0  0  0  0  0  0  0  0  0  0  0  0
    9.7155  -15.2903   17.2189 O   0  0  0  0  0  0  0  0  0  0  0  0
    7.5806  -12.8227   19.8855 C   0  0  0  0  0  0  0  0  0  0  0  0
    8.4043  -13.8234   19.1156 C   0  0  2  0  0  0  0  0  0  0  0  0
    7.7521  -14.3205   17.9277 N   0  0  0  0  0  0  0  0  0  0  0  0
    8.8473  -14.9683   19.9702 C   0  0  0  0  0  0  0  0  0  0  0  0
    8.2093  -16.0568   19.9887 O   0  0  0  0  0  0  0  0  0  0  0  0
   10.0043  -14.8483   20.7810 N   0  0  0  0  0  0  0  0  0  0  0  0
   10.4655  -15.9361   21.6647 C   0  0  1  0  0  0  0  0  0  0  0  0
   11.9261  -15.6401   21.9032 C   0  0  0  0  0  0  0  0  0  0  0  0
   12.6120  -16.5769   22.8400 C   0  0  0  0  0  0  0  0  0  0  0  0
   14.0262  -16.1834   22.9666 C   0  0  0  0  0  0  0  0  0  0  0  0
   14.4792  -15.2485   22.2849 O   0  0  0  0  0  0  0  0  0  0  0  0
    9.7034  -15.8379   22.9492 C   0  0  0  0  0  0  0  0  0  0  0  0
    9.6799  -16.9232   23.7918 O   0  0  0  0  0  0  0  0  0  0  0  0
   14.8482  -16.8539   23.8435 O   0  0  0  0  0  0  0  0  0  0  0  0
    9.0822  -14.7812   23.2743 O   0  0  0  0  0  0  0  0  0  0  0  0
  2  1  1  1
  2  3  1  0
  4  8  1  0
  4  2  1  0
  5  4  2  0
  7  6  1  1
  7  9  1  0
  7  8  1  0
  9 11  1  0
 10  9  2  0
 11 12  1  0
 12 13  1  1
 13 14  1  0
 14 15  1  0
 15 19  1  0
 15 16  2  0
 17 12  1  0
 17 18  1  0
 20 17  2  0
M  END
$$$$
