AAE.pdb
     RDKit          3D

 20 19  0  0  1  0  0  0  0  0999 V2000
    6.5950  -14.6346   20.2880 C   0  0  0  0  0  0  0  0  0  0  0  0
    7.1605  -13.3303   20.8088 C   0  0  2  0  0  0  0  0  0  0  0  0
    8.1709  -12.7525   19.9730 N   0  0  0  0  0  0  0  0  0  0  0  0
    7.7374  -13.5572   22.1817 C   0  0  0  0  0  0  0  0  0  0  0  0
    8.9059  -14.0066   22.3032 O   0  0  0  0  0  0  0  0  0  0  0  0
    6.8320  -12.8264   25.7681 C   0  0  0  0  0  0  0  0  0  0  0  0
    7.5916  -13.4744   24.6387 C   0  0  2  0  0  0  0  0  0  0  0  0
    6.9875  -13.2745   23.3431 N   0  0  0  0  0  0  0  0  0  0  0  0
    7.8195  -14.9338   24.8744 C   0  0  0  0  0  0  0  0  0  0  0  0
    6.9116  -15.7821   24.6551 O   0  0  0  0  0  0  0  0  0  0  0  0
    9.0733  -15.3927   25.3519 N   0  0  0  0  0  0  0  0  0  0  0  0
    9.3335  -16.8147   25.6466 C   0  0  1  0  0  0  0  0  0  0  0  0
   10.6229  -17.1236   24.9256 C   0  0  0  0  0  0  0  0  0  0  0  0
   10.5198  -17.1496   23.4375 C   0  0  0  0  0  0  0  0  0  0  0  0
   11.8406  -17.4688   22.8677 C   0  0  0  0  0  0  0  0  0  0  0  0
   12.8105  -17.6792   23.6153 O   0  0  0  0  0  0  0  0  0  0  0  0
    9.5248  -16.9495   27.1250 C   0  0  0  0  0  0  0  0  0  0  0  0
    9.5901  -18.2075   27.6741 O   0  0  0  0  0  0  0  0  0  0  0  0
   12.0001  -17.5344   21.5023 O   0  0  0  0  0  0  0  0  0  0  0  0
    9.6268  -15.9336   27.8772 O   0  0  0  0  0  0  0  0  0  0  0  0
  2  1  1  6
  2  3  1  0
  4  8  1  0
  4  2  1  0
  5  4  2  0
  7  6  1  1
  7  9  1  0
  7  8  1  0
  9 11  1  0
 10  9  2  0
 11 12  1  0
 12 13  1  6
 13 14  1  0
 14 15  1  0
 15 19  1  0
 15 16  2  0
 17 12  1  0
 17 18  1  0
 20 17  2  0
M  END
$$$$
