AAE.pdb
     RDKit          3D

 20 19  0  0  1  0  0  0  0  0999 V2000
    8.0134  -16.9053   16.3591 C   0  0  0  0  0  0  0  0  0  0  0  0
    8.3643  -15.4401   16.2099 C   0  0  2  0  0  0  0  0  0  0  0  0
    9.3066  -15.1649   15.1660 N   0  0  0  0  0  0  0  0  0  0  0  0
    8.9221  -14.9322   17.5138 C   0  0  0  0  0  0  0  0  0  0  0  0
   10.1465  -15.0700   17.7668 O   0  0  0  0  0  0  0  0  0  0  0  0
    7.7752  -12.8973   20.4734 C   0  0  0  0  0  0  0  0  0  0  0  0
    8.6665  -13.8408   19.7065 C   0  0  2  0  0  0  0  0  0  0  0  0
    8.0924  -14.3010   18.4646 N   0  0  0  0  0  0  0  0  0  0  0  0
    9.0958  -15.0109   20.5334 C   0  0  0  0  0  0  0  0  0  0  0  0
    8.4782  -16.1101   20.4831 O   0  0  0  0  0  0  0  0  0  0  0  0
   10.2166  -14.9034   21.3953 N   0  0  0  0  0  0  0  0  0  0  0  0
   10.6073  -15.9839   22.3209 C   0  0  1  0  0  0  0  0  0  0  0  0
   12.0493  -15.6934   22.6587 C   0  0  0  0  0  0  0  0  0  0  0  0
   13.0210  -15.9790   21.5632 C   0  0  0  0  0  0  0  0  0  0  0  0
   14.3816  -15.6590   22.0293 C   0  0  0  0  0  0  0  0  0  0  0  0
   14.5815  -15.3592   23.2184 O   0  0  0  0  0  0  0  0  0  0  0  0
    9.7573  -15.8673   23.5473 C   0  0  0  0  0  0  0  0  0  0  0  0
    9.7705  -16.8910   24.4640 O   0  0  0  0  0  0  0  0  0  0  0  0
   15.4348  -15.6926   21.1440 O   0  0  0  0  0  0  0  0  0  0  0  0
    9.0291  -14.8504   23.7570 O   0  0  0  0  0  0  0  0  0  0  0  0
  2  1  1  1
  2  3  1  0
  4  8  1  0
  4  2  1  0
  5  4  2  0
  7  6  1  1
  7  9  1  0
  7  8  1  0
  9 11  1  0
 10  9  2  0
 11 12  1  0
 12 13  1  1
 13 14  1  0
 14 15  1  0
 15 19  1  0
 15 16  2  0
 17 12  1  0
 17 18  1  0
 20 17  2  0
M  END
$$$$
