AAE.pdb
     RDKit          3D

 20 19  0  0  1  0  0  0  0  0999 V2000
    8.8644  -16.3605   15.5993 C   0  0  0  0  0  0  0  0  0  0  0  0
    8.0658  -16.7269   16.8323 C   0  0  2  0  0  0  0  0  0  0  0  0
    6.6602  -16.4724   16.7190 N   0  0  0  0  0  0  0  0  0  0  0  0
    8.6042  -15.9617   18.0128 C   0  0  0  0  0  0  0  0  0  0  0  0
    9.8071  -16.1010   18.3532 O   0  0  0  0  0  0  0  0  0  0  0  0
    7.4394  -13.3309   20.4567 C   0  0  0  0  0  0  0  0  0  0  0  0
    8.3120  -14.4402   19.9271 C   0  0  2  0  0  0  0  0  0  0  0  0
    7.7801  -15.0857   18.7507 N   0  0  0  0  0  0  0  0  0  0  0  0
    8.6226  -15.4636   20.9728 C   0  0  0  0  0  0  0  0  0  0  0  0
    7.7896  -16.3605   21.2792 O   0  0  0  0  0  0  0  0  0  0  0  0
    9.8720  -15.4433   21.6431 N   0  0  0  0  0  0  0  0  0  0  0  0
   10.3506  -16.5779   22.4558 C   0  0  1  0  0  0  0  0  0  0  0  0
   11.5583  -17.0958   21.7134 C   0  0  0  0  0  0  0  0  0  0  0  0
   12.2620  -18.2330   22.3747 C   0  0  0  0  0  0  0  0  0  0  0  0
   13.3970  -18.6525   21.5341 C   0  0  0  0  0  0  0  0  0  0  0  0
   13.6436  -18.0562   20.4723 O   0  0  0  0  0  0  0  0  0  0  0  0
   10.7578  -16.0445   23.7937 C   0  0  0  0  0  0  0  0  0  0  0  0
   10.8386  -16.9109   24.8573 O   0  0  0  0  0  0  0  0  0  0  0  0
   14.1871  -19.7088   21.9269 O   0  0  0  0  0  0  0  0  0  0  0  0
   11.0276  -14.8173   23.9658 O   0  0  0  0  0  0  0  0  0  0  0  0
  2  1  1  6
  2  3  1  0
  4  8  1  0
  4  2  1  0
  5  4  2  0
  7  6  1  1
  7  9  1  0
  7  8  1  0
  9 11  1  0
 10  9  2  0
 11 12  1  0
 12 13  1  6
 13 14  1  0
 14 15  1  0
 15 19  1  0
 15 16  2  0
 17 12  1  0
 17 18  1  0
 20 17  2  0
M  END
$$$$
