AAE.pdb
     RDKit          3D

 20 19  0  0  1  0  0  0  0  0999 V2000
    7.6048  -16.8786   16.1316 C   0  0  0  0  0  0  0  0  0  0  0  0
    7.8980  -15.4005   15.9850 C   0  0  2  0  0  0  0  0  0  0  0  0
    8.7332  -15.0752   14.8670 N   0  0  0  0  0  0  0  0  0  0  0  0
    8.5567  -14.9020   17.2446 C   0  0  0  0  0  0  0  0  0  0  0  0
    9.7902  -15.0776   17.4176 O   0  0  0  0  0  0  0  0  0  0  0  0
    7.6653  -12.8267   20.2657 C   0  0  0  0  0  0  0  0  0  0  0  0
    8.4818  -13.7877   19.4395 C   0  0  2  0  0  0  0  0  0  0  0  0
    7.8124  -14.2376   18.2424 N   0  0  0  0  0  0  0  0  0  0  0  0
    8.9462  -14.9653   20.2363 C   0  0  0  0  0  0  0  0  0  0  0  0
    8.3186  -16.0597   20.2139 O   0  0  0  0  0  0  0  0  0  0  0  0
   10.1125  -14.8705   21.0372 N   0  0  0  0  0  0  0  0  0  0  0  0
   10.5779  -15.9817   21.8889 C   0  0  1  0  0  0  0  0  0  0  0  0
   12.0662  -15.7662   22.0170 C   0  0  0  0  0  0  0  0  0  0  0  0
   12.7677  -16.7390   22.9042 C   0  0  0  0  0  0  0  0  0  0  0  0
   14.2146  -16.4627   22.8748 C   0  0  0  0  0  0  0  0  0  0  0  0
   14.6675  -15.4391   23.4143 O   0  0  0  0  0  0  0  0  0  0  0  0
    9.9200  -15.8416   23.2260 C   0  0  0  0  0  0  0  0  0  0  0  0
    9.9542  -16.9037   24.0973 O   0  0  0  0  0  0  0  0  0  0  0  0
   15.0676  -17.3419   22.2474 O   0  0  0  0  0  0  0  0  0  0  0  0
    9.3349  -14.7703   23.5698 O   0  0  0  0  0  0  0  0  0  0  0  0
  2  1  1  1
  2  3  1  0
  4  8  1  0
  4  2  1  0
  5  4  2  0
  7  6  1  1
  7  9  1  0
  7  8  1  0
  9 11  1  0
 10  9  2  0
 11 12  1  0
 12 13  1  1
 13 14  1  0
 14 15  1  0
 15 19  1  0
 15 16  2  0
 17 12  1  0
 17 18  1  0
 20 17  2  0
M  END
$$$$
