AAE.pdb
     RDKit          3D

 20 19  0  0  1  0  0  0  0  0999 V2000
    7.0155  -17.0912   20.1452 C   0  0  0  0  0  0  0  0  0  0  0  0
    7.8922  -15.8570   20.1662 C   0  0  2  0  0  0  0  0  0  0  0  0
    8.9584  -15.8772   19.2091 N   0  0  0  0  0  0  0  0  0  0  0  0
    8.4793  -15.6937   21.5438 C   0  0  0  0  0  0  0  0  0  0  0  0
    9.6088  -16.1819   21.8047 O   0  0  0  0  0  0  0  0  0  0  0  0
    7.7171  -13.7206   24.6687 C   0  0  0  0  0  0  0  0  0  0  0  0
    8.4498  -14.7137   23.8029 C   0  0  2  0  0  0  0  0  0  0  0  0
    7.7822  -14.9996   22.5555 N   0  0  0  0  0  0  0  0  0  0  0  0
    8.7419  -15.9889   24.5280 C   0  0  0  0  0  0  0  0  0  0  0  0
    7.8952  -16.9232   24.5767 O   0  0  0  0  0  0  0  0  0  0  0  0
    9.9887  -16.1712   25.1782 N   0  0  0  0  0  0  0  0  0  0  0  0
   10.3483  -17.4306   25.8574 C   0  0  1  0  0  0  0  0  0  0  0  0
   11.8335  -17.5750   25.6312 C   0  0  0  0  0  0  0  0  0  0  0  0
   12.2232  -18.6739   24.7004 C   0  0  0  0  0  0  0  0  0  0  0  0
   13.5278  -18.3536   24.0950 C   0  0  0  0  0  0  0  0  0  0  0  0
   14.3625  -19.2520   23.8951 O   0  0  0  0  0  0  0  0  0  0  0  0
   10.0634  -17.2622   27.3171 C   0  0  0  0  0  0  0  0  0  0  0  0
   10.2671  -18.3279   28.1606 O   0  0  0  0  0  0  0  0  0  0  0  0
   13.8224  -17.0543   23.7494 O   0  0  0  0  0  0  0  0  0  0  0  0
    9.6402  -16.1640   27.7893 O   0  0  0  0  0  0  0  0  0  0  0  0
  2  1  1  1
  2  3  1  0
  4  8  1  0
  4  2  1  0
  5  4  2  0
  7  6  1  1
  7  9  1  0
  7  8  1  0
  9 11  1  0
 10  9  2  0
 11 12  1  0
 12 13  1  1
 13 14  1  0
 14 15  1  0
 15 19  1  0
 15 16  2  0
 17 12  1  0
 17 18  1  0
 20 17  2  0
M  END
$$$$
