AAE.pdb
     RDKit          3D

 20 19  0  0  1  0  0  0  0  0999 V2000
    5.8345  -18.0917   18.1336 C   0  0  0  0  0  0  0  0  0  0  0  0
    6.4134  -16.8707   17.4508 C   0  0  2  0  0  0  0  0  0  0  0  0
    7.0873  -17.1512   16.2177 N   0  0  0  0  0  0  0  0  0  0  0  0
    7.3785  -16.1935   18.3885 C   0  0  0  0  0  0  0  0  0  0  0  0
    8.5105  -16.7012   18.5956 O   0  0  0  0  0  0  0  0  0  0  0  0
    7.5751  -13.0034   20.4080 C   0  0  0  0  0  0  0  0  0  0  0  0
    8.0025  -14.3608   19.9105 C   0  0  2  0  0  0  0  0  0  0  0  0
    7.0354  -14.9925   19.0449 N   0  0  0  0  0  0  0  0  0  0  0  0
    8.3645  -15.2851   21.0294 C   0  0  0  0  0  0  0  0  0  0  0  0
    7.4784  -15.8046   21.7623 O   0  0  0  0  0  0  0  0  0  0  0  0
    9.7236  -15.5969   21.2867 N   0  0  0  0  0  0  0  0  0  0  0  0
   10.1307  -16.5363   22.3491 C   0  0  1  0  0  0  0  0  0  0  0  0
   10.8903  -17.6223   21.6270 C   0  0  0  0  0  0  0  0  0  0  0  0
   11.4893  -18.6641   22.5111 C   0  0  0  0  0  0  0  0  0  0  0  0
   12.1192  -19.7017   21.6759 C   0  0  0  0  0  0  0  0  0  0  0  0
   12.1837  -19.5592   20.4433 O   0  0  0  0  0  0  0  0  0  0  0  0
   11.0419  -15.8046   23.2842 C   0  0  0  0  0  0  0  0  0  0  0  0
   11.7383  -14.7160   22.8166 O   0  0  0  0  0  0  0  0  0  0  0  0
   12.6383  -20.8327   22.2637 O   0  0  0  0  0  0  0  0  0  0  0  0
   11.1846  -16.1657   24.4914 O   0  0  0  0  0  0  0  0  0  0  0  0
  2  1  1  1
  2  3  1  0
  4  8  1  0
  4  2  1  0
  5  4  2  0
  7  6  1  1
  7  9  1  0
  7  8  1  0
  9 11  1  0
 10  9  2  0
 11 12  1  0
 12 13  1  6
 13 14  1  0
 14 15  1  0
 15 19  1  0
 15 16  2  0
 17 12  1  0
 17 18  1  0
 20 17  2  0
M  END
$$$$
