AAE.pdb
     RDKit          3D

 20 19  0  0  1  0  0  0  0  0999 V2000
    7.7590  -16.7804   15.3818 C   0  0  0  0  0  0  0  0  0  0  0  0
    7.9034  -15.2807   15.2332 C   0  0  2  0  0  0  0  0  0  0  0  0
    8.5744  -14.8708   14.0353 N   0  0  0  0  0  0  0  0  0  0  0  0
    8.6553  -14.7386   16.4207 C   0  0  0  0  0  0  0  0  0  0  0  0
    9.8973  -14.9167   16.5096 O   0  0  0  0  0  0  0  0  0  0  0  0
    7.9760  -12.5634   19.4318 C   0  0  0  0  0  0  0  0  0  0  0  0
    8.7520  -13.5119   18.5539 C   0  0  2  0  0  0  0  0  0  0  0  0
    7.9894  -14.0304   17.4434 N   0  0  0  0  0  0  0  0  0  0  0  0
    9.3507  -14.6408   19.3315 C   0  0  0  0  0  0  0  0  0  0  0  0
    8.8269  -15.7887   19.3278 O   0  0  0  0  0  0  0  0  0  0  0  0
   10.5298  -14.4375   20.0924 N   0  0  0  0  0  0  0  0  0  0  0  0
   11.1507  -15.5131   20.8888 C   0  0  1  0  0  0  0  0  0  0  0  0
   12.5991  -15.1074   21.0134 C   0  0  0  0  0  0  0  0  0  0  0  0
   13.3797  -15.1676   19.7434 C   0  0  0  0  0  0  0  0  0  0  0  0
   14.7514  -14.6932   19.9972 C   0  0  0  0  0  0  0  0  0  0  0  0
   15.0630  -14.2478   21.1145 O   0  0  0  0  0  0  0  0  0  0  0  0
   10.4999  -15.5203   22.2367 C   0  0  0  0  0  0  0  0  0  0  0  0
   10.7788  -16.5498   23.1032 O   0  0  0  0  0  0  0  0  0  0  0  0
   15.6908  -14.7439   18.9926 O   0  0  0  0  0  0  0  0  0  0  0  0
    9.7010  -14.6024   22.5938 O   0  0  0  0  0  0  0  0  0  0  0  0
  2  1  1  1
  2  3  1  0
  4  8  1  0
  4  2  1  0
  5  4  2  0
  7  6  1  1
  7  9  1  0
  7  8  1  0
  9 11  1  0
 10  9  2  0
 11 12  1  0
 12 13  1  1
 13 14  1  0
 14 15  1  0
 15 19  1  0
 15 16  2  0
 17 12  1  0
 17 18  1  0
 20 17  2  0
M  END
$$$$
