AAE.pdb
     RDKit          3D

 20 19  0  0  1  0  0  0  0  0999 V2000
    7.9696  -14.3395   13.6865 C   0  0  0  0  0  0  0  0  0  0  0  0
    7.9452  -15.2912   14.8637 C   0  0  2  0  0  0  0  0  0  0  0  0
    6.6297  -15.6825   15.2758 N   0  0  0  0  0  0  0  0  0  0  0  0
    8.6485  -14.6488   16.0307 C   0  0  0  0  0  0  0  0  0  0  0  0
    9.8806  -14.4051   15.9618 O   0  0  0  0  0  0  0  0  0  0  0  0
    7.7726  -13.1052   19.3572 C   0  0  0  0  0  0  0  0  0  0  0  0
    8.6669  -13.7229   18.3126 C   0  0  2  0  0  0  0  0  0  0  0  0
    7.9481  -14.3131   17.2087 N   0  0  0  0  0  0  0  0  0  0  0  0
    9.6123  -14.7236   18.8976 C   0  0  0  0  0  0  0  0  0  0  0  0
    9.3403  -15.9557   18.9038 O   0  0  0  0  0  0  0  0  0  0  0  0
   10.8432  -14.2996   19.4594 N   0  0  0  0  0  0  0  0  0  0  0  0
   11.8321  -15.2501   20.0028 C   0  0  1  0  0  0  0  0  0  0  0  0
   13.1650  -14.5727   19.7969 C   0  0  0  0  0  0  0  0  0  0  0  0
   14.3360  -15.3063   20.3594 C   0  0  0  0  0  0  0  0  0  0  0  0
   15.5660  -14.5510   20.0638 C   0  0  0  0  0  0  0  0  0  0  0  0
   15.5433  -13.6107   19.2519 O   0  0  0  0  0  0  0  0  0  0  0  0
   11.5572  -15.4123   21.4652 C   0  0  0  0  0  0  0  0  0  0  0  0
   12.1150  -16.4769   22.1315 O   0  0  0  0  0  0  0  0  0  0  0  0
   16.7445  -14.8883   20.6898 O   0  0  0  0  0  0  0  0  0  0  0  0
   10.8244  -14.5936   22.0984 O   0  0  0  0  0  0  0  0  0  0  0  0
  2  1  1  6
  2  3  1  0
  4  8  1  0
  4  2  1  0
  5  4  2  0
  7  6  1  1
  7  9  1  0
  7  8  1  0
  9 11  1  0
 10  9  2  0
 11 12  1  0
 12 13  1  1
 13 14  1  0
 14 15  1  0
 15 19  1  0
 15 16  2  0
 17 12  1  0
 17 18  1  0
 20 17  2  0
M  END
$$$$
