GAD.pdb
     RDKit          3D

 18 17  0  0  1  0  0  0  0  0999 V2000
   19.1439  -12.8506  -17.4892 N   0  0  0  0  0  0  0  0  0  0  0  0
   19.8502  -11.6393  -17.8566 C   0  0  0  0  0  0  0  0  0  0  0  0
   20.2292  -10.9026  -16.6251 C   0  0  0  0  0  0  0  0  0  0  0  0
   19.3388  -10.5650  -15.7805 O   0  0  0  0  0  0  0  0  0  0  0  0
   23.2832  -10.0646  -14.6876 C   0  0  0  0  0  0  0  0  0  0  0  0
   21.8761   -9.7134  -15.1497 C   0  0  2  0  0  0  0  0  0  0  0  0
   21.5638  -10.5306  -16.3041 N   0  0  0  0  0  0  0  0  0  0  0  0
   21.8296   -8.2751  -15.4047 C   0  0  0  0  0  0  0  0  0  0  0  0
   22.2437   -7.8756  -16.5272 O   0  0  0  0  0  0  0  0  0  0  0  0
   21.3632   -7.2818  -14.5115 N   0  0  0  0  0  0  0  0  0  0  0  0
   21.3307   -5.8703  -14.8860 C   0  0  1  0  0  0  0  0  0  0  0  0
   19.9783   -5.2557  -14.5513 C   0  0  0  0  0  0  0  0  0  0  0  0
   18.9264   -5.7227  -15.4847 C   0  0  0  0  0  0  0  0  0  0  0  0
   18.0097   -6.4745  -15.0751 O   0  0  0  0  0  0  0  0  0  0  0  0
   22.3521   -5.1035  -14.1268 C   0  0  0  0  0  0  0  0  0  0  0  0
   22.9106   -3.9481  -14.6486 O   0  0  0  0  0  0  0  0  0  0  0  0
   18.9190   -5.3539  -16.8128 O   0  0  0  0  0  0  0  0  0  0  0  0
   22.7422   -5.4762  -12.9903 O   0  0  0  0  0  0  0  0  0  0  0  0
  2  1  1  0
  3  2  1  0
  3  4  2  0
  6  5  1  6
  6  7  1  0
  7  3  1  0
  8  6  1  0
  9  8  2  0
 10  8  1  0
 11 12  1  1
 11 10  1  0
 12 13  1  0
 13 14  2  0
 15 16  1  0
 15 11  1  0
 17 13  1  0
 18 15  2  0
M  END
$$$$
