GAD.pdb
     RDKit          3D

 18 17  0  0  1  0  0  0  0  0999 V2000
   17.6420  -11.5732  -15.1450 N   0  0  0  0  0  0  0  0  0  0  0  0
   17.2500  -10.2566  -15.6075 C   0  0  0  0  0  0  0  0  0  0  0  0
   18.4429   -9.5500  -16.1371 C   0  0  0  0  0  0  0  0  0  0  0  0
   19.6111   -9.9100  -15.7823 O   0  0  0  0  0  0  0  0  0  0  0  0
   19.3168   -7.3677  -18.9740 C   0  0  0  0  0  0  0  0  0  0  0  0
   19.5688   -7.7943  -17.5347 C   0  0  2  0  0  0  0  0  0  0  0  0
   18.3778   -8.4585  -17.0465 N   0  0  0  0  0  0  0  0  0  0  0  0
   19.9476   -6.6074  -16.7708 C   0  0  0  0  0  0  0  0  0  0  0  0
   19.0143   -5.9266  -16.2640 O   0  0  0  0  0  0  0  0  0  0  0  0
   21.2651   -6.1446  -16.5428 N   0  0  0  0  0  0  0  0  0  0  0  0
   21.5255   -4.9053  -15.8147 C   0  0  1  0  0  0  0  0  0  0  0  0
   22.6213   -5.1107  -14.7775 C   0  0  0  0  0  0  0  0  0  0  0  0
   22.1289   -5.8915  -13.6183 C   0  0  0  0  0  0  0  0  0  0  0  0
   21.4480   -5.3319  -12.7258 O   0  0  0  0  0  0  0  0  0  0  0  0
   22.0014   -3.8446  -16.7399 C   0  0  0  0  0  0  0  0  0  0  0  0
   21.9808   -2.5106  -16.3670 O   0  0  0  0  0  0  0  0  0  0  0  0
   22.3977   -7.2365  -13.4825 O   0  0  0  0  0  0  0  0  0  0  0  0
   22.4366   -4.1211  -17.8874 O   0  0  0  0  0  0  0  0  0  0  0  0
  2  1  1  0
  3  2  1  0
  3  4  2  0
  6  5  1  6
  6  7  1  0
  7  3  1  0
  8  6  1  0
  9  8  2  0
 10  8  1  0
 11 12  1  1
 11 10  1  0
 12 13  1  0
 13 14  2  0
 15 16  1  0
 15 11  1  0
 17 13  1  0
 18 15  2  0
M  END
$$$$
