GAD.pdb
     RDKit          3D

 18 17  0  0  1  0  0  0  0  0999 V2000
   17.2068   -9.0177  -10.4495 N   0  0  0  0  0  0  0  0  0  0  0  0
   16.9808   -8.9487  -11.8797 C   0  0  0  0  0  0  0  0  0  0  0  0
   18.2522   -9.2366  -12.5893 C   0  0  0  0  0  0  0  0  0  0  0  0
   19.3465   -9.3022  -11.9425 O   0  0  0  0  0  0  0  0  0  0  0  0
   19.3385  -10.1111  -16.0813 C   0  0  0  0  0  0  0  0  0  0  0  0
   19.6161   -9.6607  -14.6541 C   0  0  2  0  0  0  0  0  0  0  0  0
   18.3447   -9.4531  -13.9918 N   0  0  0  0  0  0  0  0  0  0  0  0
   20.4619   -8.4703  -14.7118 C   0  0  0  0  0  0  0  0  0  0  0  0
   21.6412   -8.6217  -15.1333 O   0  0  0  0  0  0  0  0  0  0  0  0
   20.0860   -7.1581  -14.3395 N   0  0  0  0  0  0  0  0  0  0  0  0
   21.0237   -6.0412  -14.4213 C   0  0  1  0  0  0  0  0  0  0  0  0
   20.3216   -4.7842  -14.9169 C   0  0  0  0  0  0  0  0  0  0  0  0
   21.2334   -3.6162  -14.9071 C   0  0  0  0  0  0  0  0  0  0  0  0
   22.4010   -3.7252  -15.3520 O   0  0  0  0  0  0  0  0  0  0  0  0
   21.5787   -5.7241  -13.0800 C   0  0  0  0  0  0  0  0  0  0  0  0
   22.5727   -4.7716  -12.9259 O   0  0  0  0  0  0  0  0  0  0  0  0
   20.8372   -2.3904  -14.4167 O   0  0  0  0  0  0  0  0  0  0  0  0
   21.1667   -6.3077  -12.0443 O   0  0  0  0  0  0  0  0  0  0  0  0
  2  1  1  0
  3  2  1  0
  3  4  2  0
  6  5  1  6
  6  7  1  0
  7  3  1  0
  8  6  1  0
  9  8  2  0
 10  8  1  0
 11 12  1  1
 11 10  1  0
 12 13  1  0
 13 14  2  0
 15 16  1  0
 15 11  1  0
 17 13  1  0
 18 15  2  0
M  END
$$$$
