GAD.pdb
     RDKit          3D

 18 17  0  0  1  0  0  0  0  0999 V2000
   12.1703  -10.9749  -10.1538 N   0  0  0  0  0  0  0  0  0  0  0  0
   13.1409  -10.7095   -9.1104 C   0  0  0  0  0  0  0  0  0  0  0  0
   13.7740   -9.3899   -9.3568 C   0  0  0  0  0  0  0  0  0  0  0  0
   13.5300   -8.7526  -10.4313 O   0  0  0  0  0  0  0  0  0  0  0  0
   15.8125   -6.9030   -7.4319 C   0  0  0  0  0  0  0  0  0  0  0  0
   15.2738   -7.4747   -8.7357 C   0  0  2  0  0  0  0  0  0  0  0  0
   14.6676   -8.7584   -8.4484 N   0  0  0  0  0  0  0  0  0  0  0  0
   16.3764   -7.5347   -9.6931 C   0  0  0  0  0  0  0  0  0  0  0  0
   17.1159   -8.5560   -9.6564 O   0  0  0  0  0  0  0  0  0  0  0  0
   16.6974   -6.5547  -10.6619 N   0  0  0  0  0  0  0  0  0  0  0  0
   17.7211   -6.7890  -11.6771 C   0  0  1  0  0  0  0  0  0  0  0  0
   17.3973   -8.0351  -12.4903 C   0  0  0  0  0  0  0  0  0  0  0  0
   18.3756   -8.2354  -13.5851 C   0  0  0  0  0  0  0  0  0  0  0  0
   19.5885   -8.4146  -13.3206 O   0  0  0  0  0  0  0  0  0  0  0  0
   17.7793   -5.6535  -12.6337 C   0  0  0  0  0  0  0  0  0  0  0  0
   18.9816   -5.2528  -13.1932 O   0  0  0  0  0  0  0  0  0  0  0  0
   17.9935   -8.2314  -14.9094 O   0  0  0  0  0  0  0  0  0  0  0  0
   16.7438   -5.0209  -12.9656 O   0  0  0  0  0  0  0  0  0  0  0  0
  2  1  1  0
  3  2  1  0
  3  4  2  0
  6  5  1  1
  6  7  1  0
  7  3  1  0
  8  6  1  0
  9  8  2  0
 10  8  1  0
 11 12  1  6
 11 10  1  0
 12 13  1  0
 13 14  2  0
 15 16  1  0
 15 11  1  0
 17 13  1  0
 18 15  2  0
M  END
$$$$
