GAD.pdb
     RDKit          3D

 18 17  0  0  1  0  0  0  0  0999 V2000
   18.8276  -10.4257  -19.1119 N   0  0  0  0  0  0  0  0  0  0  0  0
   20.0762   -9.8423  -18.6624 C   0  0  0  0  0  0  0  0  0  0  0  0
   20.0669   -9.7507  -17.1811 C   0  0  0  0  0  0  0  0  0  0  0  0
   18.9687   -9.8216  -16.5414 O   0  0  0  0  0  0  0  0  0  0  0  0
   22.5455   -9.5732  -14.3721 C   0  0  0  0  0  0  0  0  0  0  0  0
   21.1711   -9.3080  -14.9702 C   0  0  2  0  0  0  0  0  0  0  0  0
   21.2373   -9.5830  -16.3908 N   0  0  0  0  0  0  0  0  0  0  0  0
   20.7931   -7.9345  -14.6437 C   0  0  0  0  0  0  0  0  0  0  0  0
   20.5091   -7.6860  -13.4401 O   0  0  0  0  0  0  0  0  0  0  0  0
   20.7140   -6.8508  -15.5499 N   0  0  0  0  0  0  0  0  0  0  0  0
   20.2666   -5.5275  -15.1229 C   0  0  1  0  0  0  0  0  0  0  0  0
   21.4325   -4.5483  -15.0949 C   0  0  0  0  0  0  0  0  0  0  0  0
   22.2012   -4.6590  -13.8330 C   0  0  0  0  0  0  0  0  0  0  0  0
   21.8662   -3.9839  -12.8304 O   0  0  0  0  0  0  0  0  0  0  0  0
   19.2670   -4.9799  -16.0761 C   0  0  0  0  0  0  0  0  0  0  0  0
   18.6181   -3.7830  -15.8204 O   0  0  0  0  0  0  0  0  0  0  0  0
   23.2927   -5.4931  -13.7190 O   0  0  0  0  0  0  0  0  0  0  0  0
   18.9777   -5.5822  -17.1421 O   0  0  0  0  0  0  0  0  0  0  0  0
  2  1  1  0
  3  2  1  0
  3  4  2  0
  6  5  1  6
  6  7  1  0
  7  3  1  0
  8  6  1  0
  9  8  2  0
 10  8  1  0
 11 12  1  6
 11 10  1  0
 12 13  1  0
 13 14  2  0
 15 16  1  0
 15 11  1  0
 17 13  1  0
 18 15  2  0
M  END
$$$$
