GAD.pdb
     RDKit          3D

 18 17  0  0  1  0  0  0  0  0999 V2000
   24.9894  -13.1318  -16.0407 N   0  0  0  0  0  0  0  0  0  0  0  0
   23.6165  -13.0695  -16.5016 C   0  0  0  0  0  0  0  0  0  0  0  0
   23.2894  -11.6704  -16.8734 C   0  0  0  0  0  0  0  0  0  0  0  0
   24.1303  -10.7382  -16.6639 O   0  0  0  0  0  0  0  0  0  0  0  0
   20.5674   -9.8840  -18.7426 C   0  0  0  0  0  0  0  0  0  0  0  0
   21.7913   -9.9015  -17.8378 C   0  0  2  0  0  0  0  0  0  0  0  0
   22.0597  -11.2763  -17.4693 N   0  0  0  0  0  0  0  0  0  0  0  0
   21.5278   -9.0186  -16.7034 C   0  0  0  0  0  0  0  0  0  0  0  0
   20.9101   -9.5124  -15.7206 O   0  0  0  0  0  0  0  0  0  0  0  0
   21.8995   -7.6574  -16.5988 N   0  0  0  0  0  0  0  0  0  0  0  0
   21.7152   -6.9071  -15.3591 C   0  0  1  0  0  0  0  0  0  0  0  0
   22.6598   -5.7138  -15.3069 C   0  0  0  0  0  0  0  0  0  0  0  0
   22.3828   -4.8562  -14.1306 C   0  0  0  0  0  0  0  0  0  0  0  0
   22.4669   -5.3300  -12.9723 O   0  0  0  0  0  0  0  0  0  0  0  0
   20.3337   -6.3668  -15.2745 C   0  0  0  0  0  0  0  0  0  0  0  0
   19.6961   -6.2260  -14.0528 O   0  0  0  0  0  0  0  0  0  0  0  0
   22.0287   -3.5310  -14.2660 O   0  0  0  0  0  0  0  0  0  0  0  0
   19.6997   -6.0212  -16.3048 O   0  0  0  0  0  0  0  0  0  0  0  0
  2  1  1  0
  3  2  1  0
  3  4  2  0
  6  5  1  6
  6  7  1  0
  7  3  1  0
  8  6  1  0
  9  8  2  0
 10  8  1  0
 11 12  1  6
 11 10  1  0
 12 13  1  0
 13 14  2  0
 15 16  1  0
 15 11  1  0
 17 13  1  0
 18 15  2  0
M  END
$$$$
