GAD.pdb
     RDKit          3D

 18 17  0  0  1  0  0  0  0  0999 V2000
   17.5176  -11.1884  -16.2324 N   0  0  0  0  0  0  0  0  0  0  0  0
   18.2300   -9.9632  -16.5365 C   0  0  0  0  0  0  0  0  0  0  0  0
   19.1418   -9.6367  -15.4118 C   0  0  0  0  0  0  0  0  0  0  0  0
   18.6725   -9.1995  -14.3124 O   0  0  0  0  0  0  0  0  0  0  0  0
   22.8308   -9.7963  -14.6908 C   0  0  0  0  0  0  0  0  0  0  0  0
   21.4217   -9.2887  -14.4197 C   0  0  2  0  0  0  0  0  0  0  0  0
   20.5554   -9.7807  -15.4711 N   0  0  0  0  0  0  0  0  0  0  0  0
   21.4767   -7.8315  -14.3228 C   0  0  0  0  0  0  0  0  0  0  0  0
   22.1061   -7.3427  -13.3449 O   0  0  0  0  0  0  0  0  0  0  0  0
   20.8903   -6.9105  -15.2228 N   0  0  0  0  0  0  0  0  0  0  0  0
   21.0053   -5.4680  -15.0245 C   0  0  1  0  0  0  0  0  0  0  0  0
   21.8705   -4.8427  -16.1105 C   0  0  0  0  0  0  0  0  0  0  0  0
   21.9124   -3.3668  -15.9853 C   0  0  0  0  0  0  0  0  0  0  0  0
   21.3193   -2.7982  -15.0376 O   0  0  0  0  0  0  0  0  0  0  0  0
   19.6711   -4.8196  -15.1101 C   0  0  0  0  0  0  0  0  0  0  0  0
   19.3797   -3.6860  -14.3692 O   0  0  0  0  0  0  0  0  0  0  0  0
   22.5926   -2.5809  -16.8906 O   0  0  0  0  0  0  0  0  0  0  0  0
   18.7658   -5.2766  -15.8546 O   0  0  0  0  0  0  0  0  0  0  0  0
  2  1  1  0
  3  2  1  0
  3  4  2  0
  6  5  1  6
  6  7  1  0
  7  3  1  0
  8  6  1  0
  9  8  2  0
 10  8  1  0
 11 12  1  6
 11 10  1  0
 12 13  1  0
 13 14  2  0
 15 16  1  0
 15 11  1  0
 17 13  1  0
 18 15  2  0
M  END
$$$$
