GAD.pdb
     RDKit          3D

 18 17  0  0  1  0  0  0  0  0999 V2000
   18.0345  -11.5419  -15.3040 N   0  0  0  0  0  0  0  0  0  0  0  0
   17.7720  -10.2381  -14.7274 C   0  0  0  0  0  0  0  0  0  0  0  0
   18.4720   -9.2012  -15.5259 C   0  0  0  0  0  0  0  0  0  0  0  0
   19.6833   -9.3723  -15.8775 O   0  0  0  0  0  0  0  0  0  0  0  0
   17.5729   -6.0997  -17.4114 C   0  0  0  0  0  0  0  0  0  0  0  0
   18.5909   -6.9968  -16.7216 C   0  0  2  0  0  0  0  0  0  0  0  0
   17.8690   -7.9831  -15.9445 N   0  0  0  0  0  0  0  0  0  0  0  0
   19.4807   -6.1476  -15.9322 C   0  0  0  0  0  0  0  0  0  0  0  0
   19.1509   -5.9235  -14.7354 O   0  0  0  0  0  0  0  0  0  0  0  0
   20.6817   -5.5493  -16.3809 N   0  0  0  0  0  0  0  0  0  0  0  0
   21.4804   -4.6903  -15.5103 C   0  0  1  0  0  0  0  0  0  0  0  0
   22.6376   -5.4697  -14.9000 C   0  0  0  0  0  0  0  0  0  0  0  0
   22.2735   -6.0312  -13.5780 C   0  0  0  0  0  0  0  0  0  0  0  0
   22.0036   -5.2659  -12.6215 O   0  0  0  0  0  0  0  0  0  0  0  0
   22.0760   -3.5700  -16.2835 C   0  0  0  0  0  0  0  0  0  0  0  0
   21.9642   -3.5164  -17.6632 O   0  0  0  0  0  0  0  0  0  0  0  0
   22.2200   -7.3907  -13.3568 O   0  0  0  0  0  0  0  0  0  0  0  0
   22.6990   -2.6372  -15.7137 O   0  0  0  0  0  0  0  0  0  0  0  0
  2  1  1  0
  3  2  1  0
  3  4  2  0
  6  5  1  1
  6  7  1  0
  7  3  1  0
  8  6  1  0
  9  8  2  0
 10  8  1  0
 11 12  1  6
 11 10  1  0
 12 13  1  0
 13 14  2  0
 15 16  1  0
 15 11  1  0
 17 13  1  0
 18 15  2  0
M  END
$$$$
