GAD.pdb
     RDKit          3D

 18 17  0  0  1  0  0  0  0  0999 V2000
   12.9320  -13.3665  -13.6776 N   0  0  0  0  0  0  0  0  0  0  0  0
   13.8980  -12.5876  -14.4269 C   0  0  0  0  0  0  0  0  0  0  0  0
   14.8592  -11.9638  -13.4836 C   0  0  0  0  0  0  0  0  0  0  0  0
   14.5889  -11.9008  -12.2414 O   0  0  0  0  0  0  0  0  0  0  0  0
   18.3393  -10.5443  -13.6309 C   0  0  0  0  0  0  0  0  0  0  0  0
   17.0217  -10.8193  -12.9203 C   0  0  2  0  0  0  0  0  0  0  0  0
   16.1083  -11.4093  -13.8772 N   0  0  0  0  0  0  0  0  0  0  0  0
   16.5505   -9.5638  -12.3392 C   0  0  0  0  0  0  0  0  0  0  0  0
   15.8076   -8.8400  -13.0571 O   0  0  0  0  0  0  0  0  0  0  0  0
   16.8474   -9.0782  -11.0439 N   0  0  0  0  0  0  0  0  0  0  0  0
   16.2704   -7.8334  -10.5425 C   0  0  1  0  0  0  0  0  0  0  0  0
   16.3937   -7.7553   -9.0268 C   0  0  0  0  0  0  0  0  0  0  0  0
   15.7537   -6.5292   -8.4949 C   0  0  0  0  0  0  0  0  0  0  0  0
   14.9861   -5.8538   -9.2214 O   0  0  0  0  0  0  0  0  0  0  0  0
   16.9960   -6.6603  -11.0948 C   0  0  0  0  0  0  0  0  0  0  0  0
   16.3232   -5.4941  -11.4212 O   0  0  0  0  0  0  0  0  0  0  0  0
   15.9762   -6.0954   -7.2057 O   0  0  0  0  0  0  0  0  0  0  0  0
   18.2395   -6.6868  -11.2837 O   0  0  0  0  0  0  0  0  0  0  0  0
  2  1  1  0
  3  2  1  0
  3  4  2  0
  6  5  1  6
  6  7  1  0
  7  3  1  0
  8  6  1  0
  9  8  2  0
 10  8  1  0
 11 12  1  1
 11 10  1  0
 12 13  1  0
 13 14  2  0
 15 16  1  0
 15 11  1  0
 17 13  1  0
 18 15  2  0
M  END
$$$$
