GAD.pdb
     RDKit          3D

 18 17  0  0  1  0  0  0  0  0999 V2000
   17.9442  -11.9481  -16.7805 N   0  0  0  0  0  0  0  0  0  0  0  0
   18.6158  -10.7816  -17.3183 C   0  0  0  0  0  0  0  0  0  0  0  0
   19.4549  -10.1693  -16.2581 C   0  0  0  0  0  0  0  0  0  0  0  0
   18.9151   -9.6951  -15.2075 O   0  0  0  0  0  0  0  0  0  0  0  0
   23.1064   -9.7452  -15.4997 C   0  0  0  0  0  0  0  0  0  0  0  0
   21.6425   -9.3673  -15.3230 C   0  0  2  0  0  0  0  0  0  0  0  0
   20.8717  -10.0680  -16.3294 N   0  0  0  0  0  0  0  0  0  0  0  0
   21.5391   -7.9114  -15.3964 C   0  0  0  0  0  0  0  0  0  0  0  0
   21.3316   -7.4054  -16.5332 O   0  0  0  0  0  0  0  0  0  0  0  0
   21.6494   -7.0092  -14.3121 N   0  0  0  0  0  0  0  0  0  0  0  0
   21.5611   -5.5643  -14.5070 C   0  0  1  0  0  0  0  0  0  0  0  0
   20.1109   -5.1316  -14.6757 C   0  0  0  0  0  0  0  0  0  0  0  0
   19.9980   -3.6604  -14.8118 C   0  0  0  0  0  0  0  0  0  0  0  0
   20.9644   -2.9928  -15.2520 O   0  0  0  0  0  0  0  0  0  0  0  0
   22.0907   -4.8426  -13.3211 C   0  0  0  0  0  0  0  0  0  0  0  0
   22.3533   -3.4834  -13.3713 O   0  0  0  0  0  0  0  0  0  0  0  0
   18.8472   -2.9858  -14.4650 O   0  0  0  0  0  0  0  0  0  0  0  0
   22.3176   -5.4392  -12.2369 O   0  0  0  0  0  0  0  0  0  0  0  0
  2  1  1  0
  3  2  1  0
  3  4  2  0
  6  5  1  6
  6  7  1  0
  7  3  1  0
  8  6  1  0
  9  8  2  0
 10  8  1  0
 11 12  1  1
 11 10  1  0
 12 13  1  0
 13 14  2  0
 15 16  1  0
 15 11  1  0
 17 13  1  0
 18 15  2  0
M  END
$$$$
