GAD.pdb
     RDKit          3D

 18 17  0  0  1  0  0  0  0  0999 V2000
   17.1429   -8.8307  -16.4041 N   0  0  0  0  0  0  0  0  0  0  0  0
   17.9308  -10.0358  -16.5720 C   0  0  0  0  0  0  0  0  0  0  0  0
   19.2639   -9.8381  -15.9504 C   0  0  0  0  0  0  0  0  0  0  0  0
   19.3818   -9.8051  -14.6834 O   0  0  0  0  0  0  0  0  0  0  0  0
   22.8261   -9.4232  -17.0874 C   0  0  0  0  0  0  0  0  0  0  0  0
   21.7118   -9.2909  -16.0590 C   0  0  2  0  0  0  0  0  0  0  0  0
   20.4670   -9.6763  -16.6913 N   0  0  0  0  0  0  0  0  0  0  0  0
   21.7255   -7.9206  -15.5509 C   0  0  0  0  0  0  0  0  0  0  0  0
   22.7165   -7.5759  -14.8508 O   0  0  0  0  0  0  0  0  0  0  0  0
   20.7311   -6.9379  -15.7684 N   0  0  0  0  0  0  0  0  0  0  0  0
   20.8089   -5.6195  -15.1444 C   0  0  1  0  0  0  0  0  0  0  0  0
   21.4707   -4.6185  -16.0819 C   0  0  0  0  0  0  0  0  0  0  0  0
   21.4844   -3.2572  -15.4967 C   0  0  0  0  0  0  0  0  0  0  0  0
   21.0186   -3.0606  -14.3489 O   0  0  0  0  0  0  0  0  0  0  0  0
   19.4489   -5.0989  -14.8490 C   0  0  0  0  0  0  0  0  0  0  0  0
   19.2663   -4.0244  -13.9940 O   0  0  0  0  0  0  0  0  0  0  0  0
   22.0003   -2.1782  -16.1818 O   0  0  0  0  0  0  0  0  0  0  0  0
   18.4227   -5.6144  -15.3629 O   0  0  0  0  0  0  0  0  0  0  0  0
  2  1  1  0
  3  2  1  0
  3  4  2  0
  6  5  1  6
  6  7  1  0
  7  3  1  0
  8  6  1  0
  9  8  2  0
 10  8  1  0
 11 12  1  6
 11 10  1  0
 12 13  1  0
 13 14  2  0
 15 16  1  0
 15 11  1  0
 17 13  1  0
 18 15  2  0
M  END
$$$$
