GAD.pdb
     RDKit          3D

 18 17  0  0  1  0  0  0  0  0999 V2000
   13.3206  -11.2980   -9.9789 N   0  0  0  0  0  0  0  0  0  0  0  0
   13.8622  -10.6069   -8.8256 C   0  0  0  0  0  0  0  0  0  0  0  0
   14.2235   -9.2203   -9.2125 C   0  0  0  0  0  0  0  0  0  0  0  0
   13.9637   -8.7932  -10.3831 O   0  0  0  0  0  0  0  0  0  0  0  0
   15.5633   -6.1430   -7.5284 C   0  0  0  0  0  0  0  0  0  0  0  0
   15.2138   -6.9568   -8.7664 C   0  0  2  0  0  0  0  0  0  0  0  0
   14.8631   -8.2962   -8.3410 N   0  0  0  0  0  0  0  0  0  0  0  0
   16.3514   -6.8986   -9.6820 C   0  0  0  0  0  0  0  0  0  0  0  0
   17.4167   -7.4648   -9.3136 O   0  0  0  0  0  0  0  0  0  0  0  0
   16.3752   -6.2662  -10.9475 N   0  0  0  0  0  0  0  0  0  0  0  0
   17.5458   -6.3406  -11.8181 C   0  0  1  0  0  0  0  0  0  0  0  0
   17.4506   -7.5440  -12.7463 C   0  0  0  0  0  0  0  0  0  0  0  0
   18.5636   -7.5616  -13.7243 C   0  0  0  0  0  0  0  0  0  0  0  0
   19.7518   -7.5004  -13.3272 O   0  0  0  0  0  0  0  0  0  0  0  0
   17.6325   -5.1354  -12.6828 C   0  0  0  0  0  0  0  0  0  0  0  0
   18.8142   -4.8001  -13.3232 O   0  0  0  0  0  0  0  0  0  0  0  0
   18.3359   -7.6440  -15.0812 O   0  0  0  0  0  0  0  0  0  0  0  0
   16.6404   -4.3826  -12.8613 O   0  0  0  0  0  0  0  0  0  0  0  0
  2  1  1  0
  3  2  1  0
  3  4  2  0
  6  5  1  1
  6  7  1  0
  7  3  1  0
  8  6  1  0
  9  8  2  0
 10  8  1  0
 11 12  1  6
 11 10  1  0
 12 13  1  0
 13 14  2  0
 15 16  1  0
 15 11  1  0
 17 13  1  0
 18 15  2  0
M  END
$$$$
