MPG.pdb
     RDKit          3D

 20 20  0  0  1  0  0  0  0  0999 V2000
    8.0486  -11.7172   27.5440 C   0  0  0  0  0  0  0  0  0  0  0  0
    6.3599  -11.8787   26.9717 S   0  0  0  0  0  0  0  0  0  0  0  0
    5.9509  -13.4954   26.3478 C   0  0  0  0  0  0  0  0  0  0  0  0
    6.9923  -14.1779   25.5440 C   0  0  0  0  0  0  0  0  0  0  0  0
    6.6532  -15.5225   25.0017 C   0  0  2  0  0  0  0  0  0  0  0  0
    6.2697  -16.4089   26.0409 N   0  0  0  0  0  0  0  0  0  0  0  0
    7.6800  -16.0211   24.0577 C   0  0  0  0  0  0  0  0  0  0  0  0
    8.5182  -16.8213   24.6146 O   0  0  0  0  0  0  0  0  0  0  0  0
    7.8243  -15.7310   22.7053 N   0  0  0  0  0  0  0  0  0  0  0  0
    6.7610  -15.0415   21.9378 C   0  0  0  0  0  0  0  0  0  0  0  0
    7.5473  -14.1742   20.9453 C   0  0  0  0  0  0  0  0  0  0  0  0
    9.0216  -14.4816   21.2423 C   0  0  0  0  0  0  0  0  0  0  0  0
    8.8179  -15.9516   21.6991 C   0  0  1  0  0  0  0  0  0  0  0  0
   10.0475  -16.6061   21.9949 C   0  0  0  0  0  0  0  0  0  0  0  0
   10.7118  -17.3288   21.2611 O   0  0  0  0  0  0  0  0  0  0  0  0
   10.5879  -16.3994   23.3222 N   0  0  0  0  0  0  0  0  0  0  0  0
   11.8459  -16.9573   23.7004 C   0  0  0  0  0  0  0  0  0  0  0  0
   12.9387  -16.0665   23.2459 C   0  0  0  0  0  0  0  0  0  0  0  0
   13.4089  -16.0181   21.9446 O   0  0  0  0  0  0  0  0  0  0  0  0
   13.4918  -15.2970   24.0676 O   0  0  0  0  0  0  0  0  0  0  0  0
  1  2  1  0
  3  2  1  0
  4  3  1  0
  5  4  1  0
  5  6  1  1
  7  8  2  0
  7  5  1  0
  9  7  1  0
 10  9  1  0
 11 12  1  0
 11 10  1  0
 12 13  1  0
 13  9  1  0
 14 15  2  0
 13 14  1  1
 16 14  1  0
 17 16  1  0
 18 17  1  0
 19 18  1  0
 20 18  2  0
M  END
$$$$
