MPG.pdb
     RDKit          3D

 20 20  0  0  1  0  0  0  0  0999 V2000
    7.3210  -11.0752   26.4353 C   0  0  0  0  0  0  0  0  0  0  0  0
    6.7212  -12.3359   27.5560 S   0  0  0  0  0  0  0  0  0  0  0  0
    6.1938  -13.8358   26.7544 C   0  0  0  0  0  0  0  0  0  0  0  0
    7.2032  -14.5319   25.9220 C   0  0  0  0  0  0  0  0  0  0  0  0
    6.7483  -15.7384   25.1774 C   0  0  2  0  0  0  0  0  0  0  0  0
    6.2196  -16.7135   26.0619 N   0  0  0  0  0  0  0  0  0  0  0  0
    7.7611  -16.2121   24.2059 C   0  0  0  0  0  0  0  0  0  0  0  0
    8.5548  -17.0910   24.7064 O   0  0  0  0  0  0  0  0  0  0  0  0
    7.9338  -15.8275   22.8807 N   0  0  0  0  0  0  0  0  0  0  0  0
    6.7816  -15.6137   21.9741 C   0  0  0  0  0  0  0  0  0  0  0  0
    7.2437  -14.4528   21.0829 C   0  0  0  0  0  0  0  0  0  0  0  0
    8.6615  -14.1266   21.5722 C   0  0  0  0  0  0  0  0  0  0  0  0
    9.0426  -15.5654   22.0144 C   0  0  1  0  0  0  0  0  0  0  0  0
   10.3871  -15.6565   22.4745 C   0  0  0  0  0  0  0  0  0  0  0  0
   10.8971  -15.0821   23.4294 O   0  0  0  0  0  0  0  0  0  0  0  0
   11.2681  -16.5319   21.7302 N   0  0  0  0  0  0  0  0  0  0  0  0
   12.6361  -16.6917   22.1043 C   0  0  0  0  0  0  0  0  0  0  0  0
   13.2801  -17.6836   21.2123 C   0  0  0  0  0  0  0  0  0  0  0  0
   13.8411  -17.3735   19.9851 O   0  0  0  0  0  0  0  0  0  0  0  0
   13.3361  -18.8866   21.5629 O   0  0  0  0  0  0  0  0  0  0  0  0
  1  2  1  0
  3  2  1  0
  4  3  1  0
  5  4  1  0
  5  6  1  1
  7  8  2  0
  7  5  1  0
  9  7  1  0
 10  9  1  0
 11 12  1  0
 11 10  1  0
 12 13  1  0
 13  9  1  0
 14 15  2  0
 13 14  1  1
 16 14  1  0
 17 16  1  0
 18 17  1  0
 19 18  1  0
 20 18  2  0
M  END
$$$$
