MPG.pdb
     RDKit          3D

 20 20  0  0  1  0  0  0  0  0999 V2000
    5.9839  -11.7081   26.9000 C   0  0  0  0  0  0  0  0  0  0  0  0
    7.6035  -12.4441   27.1001 S   0  0  0  0  0  0  0  0  0  0  0  0
    7.6748  -14.1761   26.6936 C   0  0  0  0  0  0  0  0  0  0  0  0
    6.8293  -14.6262   25.5625 C   0  0  0  0  0  0  0  0  0  0  0  0
    6.9651  -16.0480   25.1422 C   0  0  2  0  0  0  0  0  0  0  0  0
    7.1658  -16.8937   26.2634 N   0  0  0  0  0  0  0  0  0  0  0  0
    7.9145  -16.2114   24.0170 C   0  0  0  0  0  0  0  0  0  0  0  0
    8.9507  -16.9010   24.3392 O   0  0  0  0  0  0  0  0  0  0  0  0
    7.8083  -15.7242   22.7188 N   0  0  0  0  0  0  0  0  0  0  0  0
    6.5117  -15.2799   22.1562 C   0  0  0  0  0  0  0  0  0  0  0  0
    6.9037  -14.1050   21.2498 C   0  0  0  0  0  0  0  0  0  0  0  0
    8.4305  -14.0089   21.3751 C   0  0  0  0  0  0  0  0  0  0  0  0
    8.6943  -15.5204   21.6134 C   0  0  1  0  0  0  0  0  0  0  0  0
   10.0825  -15.8242   21.7035 C   0  0  0  0  0  0  0  0  0  0  0  0
   10.8093  -16.2920   20.8346 O   0  0  0  0  0  0  0  0  0  0  0  0
   10.7240  -15.5511   22.9725 N   0  0  0  0  0  0  0  0  0  0  0  0
   12.1461  -15.5108   23.0856 C   0  0  0  0  0  0  0  0  0  0  0  0
   12.6337  -16.7900   23.6516 C   0  0  0  0  0  0  0  0  0  0  0  0
   12.7330  -17.9684   22.9318 O   0  0  0  0  0  0  0  0  0  0  0  0
   12.9855  -16.8401   24.8545 O   0  0  0  0  0  0  0  0  0  0  0  0
  1  2  1  0
  3  2  1  0
  4  3  1  0
  5  4  1  0
  5  6  1  1
  7  8  2  0
  7  5  1  0
  9  7  1  0
 10  9  1  0
 11 12  1  0
 11 10  1  0
 12 13  1  0
 13  9  1  0
 14 15  2  0
 13 14  1  1
 16 14  1  0
 17 16  1  0
 18 17  1  0
 19 18  1  0
 20 18  2  0
M  END
$$$$
