MPG.pdb
     RDKit          3D

 20 20  0  0  1  0  0  0  0  0999 V2000
    6.7853  -10.8317   27.1565 C   0  0  0  0  0  0  0  0  0  0  0  0
    7.6066  -12.3866   27.4923 S   0  0  0  0  0  0  0  0  0  0  0  0
    6.8340  -13.8002   26.7342 C   0  0  0  0  0  0  0  0  0  0  0  0
    7.6216  -14.5090   25.6979 C   0  0  0  0  0  0  0  0  0  0  0  0
    6.9804  -15.6866   25.0505 C   0  0  2  0  0  0  0  0  0  0  0  0
    6.5638  -16.6361   26.0187 N   0  0  0  0  0  0  0  0  0  0  0  0
    7.7812  -16.2090   23.9192 C   0  0  0  0  0  0  0  0  0  0  0  0
    8.4998  -17.2233   24.2475 O   0  0  0  0  0  0  0  0  0  0  0  0
    7.8340  -15.7434   22.6099 N   0  0  0  0  0  0  0  0  0  0  0  0
    6.7106  -14.9911   22.0037 C   0  0  0  0  0  0  0  0  0  0  0  0
    7.4150  -13.9815   21.0872 C   0  0  0  0  0  0  0  0  0  0  0  0
    8.9110  -14.2829   21.2526 C   0  0  0  0  0  0  0  0  0  0  0  0
    8.7663  -15.8046   21.5256 C   0  0  1  0  0  0  0  0  0  0  0  0
   10.0250  -16.4568   21.6594 C   0  0  0  0  0  0  0  0  0  0  0  0
   10.6986  -16.9819   20.7805 O   0  0  0  0  0  0  0  0  0  0  0  0
   10.5869  -16.5122   22.9927 N   0  0  0  0  0  0  0  0  0  0  0  0
   11.9202  -16.9719   23.2117 C   0  0  0  0  0  0  0  0  0  0  0  0
   12.8641  -15.8395   23.0654 C   0  0  0  0  0  0  0  0  0  0  0  0
   13.3734  -15.4064   21.8531 O   0  0  0  0  0  0  0  0  0  0  0  0
   13.2435  -15.2149   24.0848 O   0  0  0  0  0  0  0  0  0  0  0  0
  1  2  1  0
  3  2  1  0
  4  3  1  0
  5  4  1  0
  5  6  1  1
  7  8  2  0
  7  5  1  0
  9  7  1  0
 10  9  1  0
 11 12  1  0
 11 10  1  0
 12 13  1  0
 13  9  1  0
 14 15  2  0
 13 14  1  1
 16 14  1  0
 17 16  1  0
 18 17  1  0
 19 18  1  0
 20 18  2  0
M  END
$$$$
