MPG.pdb
     RDKit          3D

 20 20  0  0  1  0  0  0  0  0999 V2000
    7.1930  -11.1956   26.6651 C   0  0  0  0  0  0  0  0  0  0  0  0
    7.0877  -12.8912   27.2302 S   0  0  0  0  0  0  0  0  0  0  0  0
    7.3776  -14.1045   25.9598 C   0  0  0  0  0  0  0  0  0  0  0  0
    6.9498  -15.4916   26.2590 C   0  0  0  0  0  0  0  0  0  0  0  0
    6.6265  -16.3640   25.0965 C   0  0  2  0  0  0  0  0  0  0  0  0
    6.0898  -17.6053   25.5249 N   0  0  0  0  0  0  0  0  0  0  0  0
    7.7378  -16.4302   24.1195 C   0  0  0  0  0  0  0  0  0  0  0  0
    8.6946  -17.1957   24.5086 O   0  0  0  0  0  0  0  0  0  0  0  0
    7.8487  -15.7868   22.8916 N   0  0  0  0  0  0  0  0  0  0  0  0
    6.7308  -15.0007   22.3193 C   0  0  0  0  0  0  0  0  0  0  0  0
    7.4423  -13.8487   21.5967 C   0  0  0  0  0  0  0  0  0  0  0  0
    8.9377  -14.1137   21.8193 C   0  0  0  0  0  0  0  0  0  0  0  0
    8.8472  -15.6629   21.8737 C   0  0  1  0  0  0  0  0  0  0  0  0
   10.1242  -16.2797   22.0017 C   0  0  0  0  0  0  0  0  0  0  0  0
   10.7939  -16.8143   21.1255 O   0  0  0  0  0  0  0  0  0  0  0  0
   10.7128  -16.2811   23.3246 N   0  0  0  0  0  0  0  0  0  0  0  0
   11.9758  -16.8994   23.5683 C   0  0  0  0  0  0  0  0  0  0  0  0
   13.0637  -15.9612   23.2066 C   0  0  0  0  0  0  0  0  0  0  0  0
   13.6913  -15.1176   24.1073 O   0  0  0  0  0  0  0  0  0  0  0  0
   13.4625  -15.9048   22.0188 O   0  0  0  0  0  0  0  0  0  0  0  0
  1  2  1  0
  3  2  1  0
  4  3  1  0
  5  4  1  0
  5  6  1  1
  7  8  2  0
  7  5  1  0
  9  7  1  0
 10  9  1  0
 11 12  1  0
 11 10  1  0
 12 13  1  0
 13  9  1  0
 14 15  2  0
 13 14  1  1
 16 14  1  0
 17 16  1  0
 18 17  1  0
 19 18  1  0
 20 18  2  0
M  END
$$$$
