MPG.pdb
     RDKit          3D

 20 20  0  0  1  0  0  0  0  0999 V2000
    6.2921  -11.8502   27.1785 C   0  0  0  0  0  0  0  0  0  0  0  0
    7.9140  -12.6046   27.1032 S   0  0  0  0  0  0  0  0  0  0  0  0
    7.9075  -14.2989   26.5561 C   0  0  0  0  0  0  0  0  0  0  0  0
    6.7605  -14.7194   25.7169 C   0  0  0  0  0  0  0  0  0  0  0  0
    6.7585  -16.1275   25.2330 C   0  0  2  0  0  0  0  0  0  0  0  0
    6.8021  -17.0393   26.3189 N   0  0  0  0  0  0  0  0  0  0  0  0
    7.7430  -16.3488   24.1487 C   0  0  0  0  0  0  0  0  0  0  0  0
    8.6502  -17.2014   24.4695 O   0  0  0  0  0  0  0  0  0  0  0  0
    7.7864  -15.7633   22.8880 N   0  0  0  0  0  0  0  0  0  0  0  0
    6.6406  -14.9978   22.3436 C   0  0  0  0  0  0  0  0  0  0  0  0
    7.3140  -13.8847   21.5295 C   0  0  0  0  0  0  0  0  0  0  0  0
    8.8187  -14.1481   21.6795 C   0  0  0  0  0  0  0  0  0  0  0  0
    8.7262  -15.6926   21.8108 C   0  0  1  0  0  0  0  0  0  0  0  0
   10.0063  -16.3104   21.8951 C   0  0  0  0  0  0  0  0  0  0  0  0
   10.6832  -16.7688   20.9820 O   0  0  0  0  0  0  0  0  0  0  0  0
   10.5888  -16.4153   23.2165 N   0  0  0  0  0  0  0  0  0  0  0  0
   11.9177  -16.9027   23.3993 C   0  0  0  0  0  0  0  0  0  0  0  0
   12.8785  -15.7840   23.2589 C   0  0  0  0  0  0  0  0  0  0  0  0
   13.2710  -14.9635   24.3027 O   0  0  0  0  0  0  0  0  0  0  0  0
   13.3847  -15.5403   22.1375 O   0  0  0  0  0  0  0  0  0  0  0  0
  1  2  1  0
  3  2  1  0
  4  3  1  0
  5  4  1  0
  5  6  1  1
  7  8  2  0
  7  5  1  0
  9  7  1  0
 10  9  1  0
 11 12  1  0
 11 10  1  0
 12 13  1  0
 13  9  1  0
 14 15  2  0
 13 14  1  1
 16 14  1  0
 17 16  1  0
 18 17  1  0
 19 18  1  0
 20 18  2  0
M  END
$$$$
