MPG.pdb
     RDKit          3D

 20 20  0  0  1  0  0  0  0  0999 V2000
    6.9892  -10.9707   26.3474 C   0  0  0  0  0  0  0  0  0  0  0  0
    7.0393  -12.3763   27.4551 S   0  0  0  0  0  0  0  0  0  0  0  0
    6.5264  -13.9110   26.7125 C   0  0  0  0  0  0  0  0  0  0  0  0
    7.4441  -14.5004   25.7090 C   0  0  0  0  0  0  0  0  0  0  0  0
    7.0171  -15.7759   25.0706 C   0  0  2  0  0  0  0  0  0  0  0  0
    6.8129  -16.7887   26.0428 N   0  0  0  0  0  0  0  0  0  0  0  0
    7.8698  -16.1367   23.9144 C   0  0  0  0  0  0  0  0  0  0  0  0
    8.8000  -16.9679   24.2250 O   0  0  0  0  0  0  0  0  0  0  0  0
    7.7744  -15.6952   22.5991 N   0  0  0  0  0  0  0  0  0  0  0  0
    6.4846  -15.2605   22.0138 C   0  0  0  0  0  0  0  0  0  0  0  0
    6.8913  -14.1219   21.0684 C   0  0  0  0  0  0  0  0  0  0  0  0
    8.4181  -14.0340   21.1987 C   0  0  0  0  0  0  0  0  0  0  0  0
    8.6679  -15.5383   21.4920 C   0  0  1  0  0  0  0  0  0  0  0  0
   10.0530  -15.8501   21.6005 C   0  0  0  0  0  0  0  0  0  0  0  0
   10.8170  -16.2061   20.7109 O   0  0  0  0  0  0  0  0  0  0  0  0
   10.6409  -15.7360   22.9188 N   0  0  0  0  0  0  0  0  0  0  0  0
   12.0443  -15.5364   23.0848 C   0  0  0  0  0  0  0  0  0  0  0  0
   12.6867  -16.8205   23.4495 C   0  0  0  0  0  0  0  0  0  0  0  0
   12.8375  -17.8866   22.5792 O   0  0  0  0  0  0  0  0  0  0  0  0
   13.1314  -16.9818   24.6111 O   0  0  0  0  0  0  0  0  0  0  0  0
  1  2  1  0
  3  2  1  0
  4  3  1  0
  5  4  1  0
  5  6  1  1
  7  8  2  0
  7  5  1  0
  9  7  1  0
 10  9  1  0
 11 12  1  0
 11 10  1  0
 12 13  1  0
 13  9  1  0
 14 15  2  0
 13 14  1  1
 16 14  1  0
 17 16  1  0
 18 17  1  0
 19 18  1  0
 20 18  2  0
M  END
$$$$
