MPG.pdb
     RDKit          3D

 20 20  0  0  1  0  0  0  0  0999 V2000
    7.2608  -10.9671   26.3136 C   0  0  0  0  0  0  0  0  0  0  0  0
    6.9082  -12.2579   27.5030 S   0  0  0  0  0  0  0  0  0  0  0  0
    6.4117  -13.8057   26.7765 C   0  0  0  0  0  0  0  0  0  0  0  0
    7.3866  -14.4534   25.8673 C   0  0  0  0  0  0  0  0  0  0  0  0
    6.9781  -15.7448   25.2489 C   0  0  2  0  0  0  0  0  0  0  0  0
    6.6771  -16.7123   26.2417 N   0  0  0  0  0  0  0  0  0  0  0  0
    7.9064  -16.1705   24.1759 C   0  0  0  0  0  0  0  0  0  0  0  0
    8.7275  -17.0807   24.5634 O   0  0  0  0  0  0  0  0  0  0  0  0
    7.9785  -15.7143   22.8642 N   0  0  0  0  0  0  0  0  0  0  0  0
    6.8383  -15.0276   22.2134 C   0  0  0  0  0  0  0  0  0  0  0  0
    7.5193  -13.9906   21.3099 C   0  0  0  0  0  0  0  0  0  0  0  0
    9.0226  -14.2113   21.5278 C   0  0  0  0  0  0  0  0  0  0  0  0
    8.9486  -15.7361   21.8120 C   0  0  1  0  0  0  0  0  0  0  0  0
   10.2345  -16.3199   21.9942 C   0  0  0  0  0  0  0  0  0  0  0  0
   10.9262  -16.8938   21.1610 O   0  0  0  0  0  0  0  0  0  0  0  0
   10.8039  -16.2304   23.3224 N   0  0  0  0  0  0  0  0  0  0  0  0
   12.1115  -16.7312   23.5987 C   0  0  0  0  0  0  0  0  0  0  0  0
   13.1026  -15.6422   23.4362 C   0  0  0  0  0  0  0  0  0  0  0  0
   13.3088  -14.6367   24.3652 O   0  0  0  0  0  0  0  0  0  0  0  0
   13.8137  -15.6019   22.4038 O   0  0  0  0  0  0  0  0  0  0  0  0
  1  2  1  0
  3  2  1  0
  4  3  1  0
  5  4  1  0
  5  6  1  1
  7  8  2  0
  7  5  1  0
  9  7  1  0
 10  9  1  0
 11 12  1  0
 11 10  1  0
 12 13  1  0
 13  9  1  0
 14 15  2  0
 13 14  1  1
 16 14  1  0
 17 16  1  0
 18 17  1  0
 19 18  1  0
 20 18  2  0
M  END
$$$$
