MPG.pdb
     RDKit          3D

 20 20  0  0  1  0  0  0  0  0999 V2000
    8.3958  -11.4881   26.7113 C   0  0  0  0  0  0  0  0  0  0  0  0
    7.3545  -12.5362   27.7225 S   0  0  0  0  0  0  0  0  0  0  0  0
    6.6129  -13.8958   26.8442 C   0  0  0  0  0  0  0  0  0  0  0  0
    7.4651  -14.5818   25.8443 C   0  0  0  0  0  0  0  0  0  0  0  0
    6.8639  -15.7386   25.1250 C   0  0  2  0  0  0  0  0  0  0  0  0
    6.5198  -16.7770   26.0282 N   0  0  0  0  0  0  0  0  0  0  0  0
    7.6580  -16.1349   23.9390 C   0  0  0  0  0  0  0  0  0  0  0  0
    8.4288  -17.1373   24.1713 O   0  0  0  0  0  0  0  0  0  0  0  0
    7.6568  -15.5679   22.6692 N   0  0  0  0  0  0  0  0  0  0  0  0
    6.5026  -14.7881   22.1643 C   0  0  0  0  0  0  0  0  0  0  0  0
    7.1601  -13.6994   21.3053 C   0  0  0  0  0  0  0  0  0  0  0  0
    8.6648  -13.9896   21.3933 C   0  0  0  0  0  0  0  0  0  0  0  0
    8.5494  -15.5300   21.5511 C   0  0  1  0  0  0  0  0  0  0  0  0
    9.8203  -16.1711   21.5884 C   0  0  0  0  0  0  0  0  0  0  0  0
   10.3328  -16.8785   20.7288 O   0  0  0  0  0  0  0  0  0  0  0  0
   10.6123  -15.9693   22.7836 N   0  0  0  0  0  0  0  0  0  0  0  0
   11.9637  -16.4225   22.8571 C   0  0  0  0  0  0  0  0  0  0  0  0
   12.5985  -15.8879   24.0842 C   0  0  0  0  0  0  0  0  0  0  0  0
   13.1691  -14.6299   24.1769 O   0  0  0  0  0  0  0  0  0  0  0  0
   12.6369  -16.5952   25.1193 O   0  0  0  0  0  0  0  0  0  0  0  0
  1  2  1  0
  3  2  1  0
  4  3  1  0
  5  4  1  0
  5  6  1  1
  7  8  2  0
  7  5  1  0
  9  7  1  0
 10  9  1  0
 11 12  1  0
 11 10  1  0
 12 13  1  0
 13  9  1  0
 14 15  2  0
 13 14  1  1
 16 14  1  0
 17 16  1  0
 18 17  1  0
 19 18  1  0
 20 18  2  0
M  END
$$$$
