MPG.pdb
     RDKit          3D

 20 20  0  0  1  0  0  0  0  0999 V2000
    7.9344  -11.3144   26.3260 C   0  0  0  0  0  0  0  0  0  0  0  0
    6.9281  -12.3283   27.4051 S   0  0  0  0  0  0  0  0  0  0  0  0
    6.3133  -13.8169   26.6460 C   0  0  0  0  0  0  0  0  0  0  0  0
    7.2016  -14.4712   25.6564 C   0  0  0  0  0  0  0  0  0  0  0  0
    6.7055  -15.7280   25.0310 C   0  0  2  0  0  0  0  0  0  0  0  0
    6.3899  -16.6976   26.0173 N   0  0  0  0  0  0  0  0  0  0  0  0
    7.5722  -16.1801   23.9181 C   0  0  0  0  0  0  0  0  0  0  0  0
    8.3157  -17.1774   24.2428 O   0  0  0  0  0  0  0  0  0  0  0  0
    7.6607  -15.6673   22.6284 N   0  0  0  0  0  0  0  0  0  0  0  0
    6.5758  -14.8488   22.0383 C   0  0  0  0  0  0  0  0  0  0  0  0
    7.3314  -13.8336   21.1700 C   0  0  0  0  0  0  0  0  0  0  0  0
    8.8121  -14.1998   21.3417 C   0  0  0  0  0  0  0  0  0  0  0  0
    8.6046  -15.7239   21.5540 C   0  0  1  0  0  0  0  0  0  0  0  0
    9.8350  -16.4298   21.6776 C   0  0  0  0  0  0  0  0  0  0  0  0
   10.4706  -16.9960   20.7960 O   0  0  0  0  0  0  0  0  0  0  0  0
   10.4150  -16.4926   23.0029 N   0  0  0  0  0  0  0  0  0  0  0  0
   11.6678  -17.1379   23.2289 C   0  0  0  0  0  0  0  0  0  0  0  0
   12.7407  -16.1199   23.3117 C   0  0  0  0  0  0  0  0  0  0  0  0
   12.9243  -15.2731   24.3915 O   0  0  0  0  0  0  0  0  0  0  0  0
   13.5482  -15.9934   22.3603 O   0  0  0  0  0  0  0  0  0  0  0  0
  1  2  1  0
  3  2  1  0
  4  3  1  0
  5  4  1  0
  5  6  1  1
  7  8  2  0
  7  5  1  0
  9  7  1  0
 10  9  1  0
 11 12  1  0
 11 10  1  0
 12 13  1  0
 13  9  1  0
 14 15  2  0
 13 14  1  1
 16 14  1  0
 17 16  1  0
 18 17  1  0
 19 18  1  0
 20 18  2  0
M  END
$$$$
