MPG.pdb
     RDKit          3D

 20 20  0  0  1  0  0  0  0  0999 V2000
   10.1913  -13.2224   29.8106 C   0  0  0  0  0  0  0  0  0  0  0  0
   10.6442  -14.9523   29.7237 S   0  0  0  0  0  0  0  0  0  0  0  0
    9.3926  -16.0009   29.0136 C   0  0  0  0  0  0  0  0  0  0  0  0
    8.9793  -15.6913   27.6244 C   0  0  0  0  0  0  0  0  0  0  0  0
    7.8692  -16.5029   27.0536 C   0  0  2  0  0  0  0  0  0  0  0  0
    8.1490  -17.8901   27.1533 N   0  0  0  0  0  0  0  0  0  0  0  0
    7.4432  -16.0120   25.7226 C   0  0  0  0  0  0  0  0  0  0  0  0
    7.6685  -16.8628   24.7854 O   0  0  0  0  0  0  0  0  0  0  0  0
    6.8563  -14.7938   25.3978 N   0  0  0  0  0  0  0  0  0  0  0  0
    5.8645  -14.1444   26.2866 C   0  0  0  0  0  0  0  0  0  0  0  0
    6.1582  -12.6483   26.1103 C   0  0  0  0  0  0  0  0  0  0  0  0
    7.3071  -12.5940   25.0940 C   0  0  0  0  0  0  0  0  0  0  0  0
    6.9188  -13.8730   24.3039 C   0  0  1  0  0  0  0  0  0  0  0  0
    7.7680  -14.1011   23.1838 C   0  0  0  0  0  0  0  0  0  0  0  0
    7.5856  -13.7652   22.0194 O   0  0  0  0  0  0  0  0  0  0  0  0
    9.0004  -14.8164   23.4408 N   0  0  0  0  0  0  0  0  0  0  0  0
   10.0779  -14.7872   22.5054 C   0  0  0  0  0  0  0  0  0  0  0  0
   10.2211  -16.1196   21.8740 C   0  0  0  0  0  0  0  0  0  0  0  0
    9.3672  -17.1840   22.1077 O   0  0  0  0  0  0  0  0  0  0  0  0
   11.1645  -16.3269   21.0740 O   0  0  0  0  0  0  0  0  0  0  0  0
  1  2  1  0
  3  2  1  0
  4  3  1  0
  5  4  1  0
  5  6  1  6
  7  8  2  0
  7  5  1  0
  9  7  1  0
 10  9  1  0
 11 12  1  0
 11 10  1  0
 12 13  1  0
 13  9  1  0
 14 15  2  0
 13 14  1  6
 16 14  1  0
 17 16  1  0
 18 17  1  0
 19 18  1  0
 20 18  2  0
M  END
$$$$
