MPG.pdb
     RDKit          3D

 20 20  0  0  1  0  0  0  0  0999 V2000
    7.3174  -11.0415   26.1003 C   0  0  0  0  0  0  0  0  0  0  0  0
    6.8101  -12.2208   27.3481 S   0  0  0  0  0  0  0  0  0  0  0  0
    6.3055  -13.8002   26.6993 C   0  0  0  0  0  0  0  0  0  0  0  0
    7.2187  -14.4363   25.7204 C   0  0  0  0  0  0  0  0  0  0  0  0
    6.7622  -15.7109   25.1007 C   0  0  2  0  0  0  0  0  0  0  0  0
    6.4613  -16.6801   26.0920 N   0  0  0  0  0  0  0  0  0  0  0  0
    7.6524  -16.1495   24.0011 C   0  0  0  0  0  0  0  0  0  0  0  0
    8.3761  -17.1621   24.3234 O   0  0  0  0  0  0  0  0  0  0  0  0
    7.7802  -15.6107   22.7254 N   0  0  0  0  0  0  0  0  0  0  0  0
    6.7415  -14.7288   22.1435 C   0  0  0  0  0  0  0  0  0  0  0  0
    7.5535  -13.7294   21.3086 C   0  0  0  0  0  0  0  0  0  0  0  0
    9.0135  -14.1679   21.4876 C   0  0  0  0  0  0  0  0  0  0  0  0
    8.7334  -15.6854   21.6603 C   0  0  1  0  0  0  0  0  0  0  0  0
    9.9284  -16.4504   21.7803 C   0  0  0  0  0  0  0  0  0  0  0  0
   10.4216  -17.2114   20.9559 O   0  0  0  0  0  0  0  0  0  0  0  0
   10.6578  -16.3210   23.0243 N   0  0  0  0  0  0  0  0  0  0  0  0
   11.8572  -17.0592   23.2553 C   0  0  0  0  0  0  0  0  0  0  0  0
   13.0282  -16.2229   22.9033 C   0  0  0  0  0  0  0  0  0  0  0  0
   13.4430  -15.9767   21.6055 O   0  0  0  0  0  0  0  0  0  0  0  0
   13.7056  -15.6916   23.8154 O   0  0  0  0  0  0  0  0  0  0  0  0
  1  2  1  0
  3  2  1  0
  4  3  1  0
  5  4  1  0
  5  6  1  1
  7  8  2  0
  7  5  1  0
  9  7  1  0
 10  9  1  0
 11 12  1  0
 11 10  1  0
 12 13  1  0
 13  9  1  0
 14 15  2  0
 13 14  1  1
 16 14  1  0
 17 16  1  0
 18 17  1  0
 19 18  1  0
 20 18  2  0
M  END
$$$$
