IFC.pdb
     RDKit          3D

 26 26  0  0  1  0  0  0  0  0999 V2000
    8.6766  -11.8655   19.7640 C   0  0  0  0  0  0  0  0  0  0  0  0
    7.9191  -12.8079   20.6697 C   0  0  0  0  0  0  0  0  0  0  0  0
    8.1304  -14.2516   20.2697 C   0  0  2  0  0  0  0  0  0  0  0  0
    7.8381  -14.4347   18.7905 C   0  0  0  0  0  0  0  0  0  0  0  0
    7.3423  -15.2129   21.1137 C   0  0  2  0  0  0  0  0  0  0  0  0
    5.9271  -14.9208   20.9011 N   0  0  0  0  0  0  0  0  0  0  0  0
    7.6419  -15.1073   22.5599 C   0  0  0  0  0  0  0  0  0  0  0  0
    7.3410  -14.1388   23.2873 O   0  0  0  0  0  0  0  0  0  0  0  0
    8.3263  -16.1671   23.2254 N   0  0  0  0  0  0  0  0  0  0  0  0
    8.6854  -16.1690   24.6204 C   0  0  1  0  0  0  0  0  0  0  0  0
    7.5604  -15.8473   25.5269 C   0  0  0  0  0  0  0  0  0  0  0  0
    7.3105  -14.4497   25.8668 C   0  0  0  0  0  0  0  0  0  0  0  0
    6.0880  -13.8620   25.6249 C   0  0  0  0  0  0  0  0  0  0  0  0
    5.8073  -12.5579   25.9654 C   0  0  0  0  0  0  0  0  0  0  0  0
    6.7688  -11.7720   26.5785 C   0  0  0  0  0  0  0  0  0  0  0  0
    7.9856  -12.3314   26.8280 C   0  0  0  0  0  0  0  0  0  0  0  0
    8.2678  -13.6341   26.4884 C   0  0  0  0  0  0  0  0  0  0  0  0
    9.2593  -17.5014   24.9140 C   0  0  0  0  0  0  0  0  0  0  0  0
    9.0832  -18.4883   24.1404 O   0  0  0  0  0  0  0  0  0  0  0  0
   10.0307  -17.6784   26.0881 N   0  0  0  0  0  0  0  0  0  0  0  0
   11.2714  -18.3831   26.1783 C   0  0  1  0  0  0  0  0  0  0  0  0
   12.2754  -18.0739   25.1234 C   0  0  0  0  0  0  0  0  0  0  0  0
   13.1362  -19.5151   24.5005 S   0  0  0  0  0  0  0  0  0  0  0  0
   11.8596  -18.3904   27.5526 C   0  0  0  0  0  0  0  0  0  0  0  0
   11.8291  -17.3338   28.2246 O   0  0  0  0  0  0  0  0  0  0  0  0
   12.4330  -19.5101   28.1012 O   0  0  0  0  0  0  0  0  0  0  0  0
  2  1  1  0
  3  2  1  0
  3  4  1  6
  5  3  1  0
  5  6  1  1
  7  8  2  0
  7  5  1  0
  9  7  1  0
 10 11  1  1
 10  9  1  0
 11 12  1  0
 12 17  2  0
 12 13  1  0
 13 14  2  0
 14 15  1  0
 16 15  2  0
 17 16  1  0
 18 10  1  0
 19 18  2  0
 20 18  1  0
 21 22  1  6
 21 20  1  0
 22 23  1  0
 24 26  1  0
 24 21  1  0
 25 24  2  0
M  END
$$$$
