IFC.pdb
     RDKit          3D

 26 26  0  0  1  0  0  0  0  0999 V2000
   12.3710  -20.4301   20.4952 C   0  0  0  0  0  0  0  0  0  0  0  0
   11.1865  -19.5397   20.2016 C   0  0  0  0  0  0  0  0  0  0  0  0
   11.0823  -18.4076   21.1997 C   0  0  2  0  0  0  0  0  0  0  0  0
   11.0326  -18.9580   22.6144 C   0  0  0  0  0  0  0  0  0  0  0  0
    9.9271  -17.4880   20.9216 C   0  0  2  0  0  0  0  0  0  0  0  0
   10.0393  -17.0552   19.5311 N   0  0  0  0  0  0  0  0  0  0  0  0
    9.9037  -16.2929   21.7955 C   0  0  0  0  0  0  0  0  0  0  0  0
   10.7355  -15.3630   21.7638 O   0  0  0  0  0  0  0  0  0  0  0  0
    8.8716  -16.1411   22.7681 N   0  0  0  0  0  0  0  0  0  0  0  0
    8.7292  -15.0110   23.6500 C   0  0  1  0  0  0  0  0  0  0  0  0
    7.3272  -14.5778   23.8437 C   0  0  0  0  0  0  0  0  0  0  0  0
    7.0378  -13.5716   24.8611 C   0  0  0  0  0  0  0  0  0  0  0  0
    6.1524  -13.8245   25.8861 C   0  0  0  0  0  0  0  0  0  0  0  0
    5.8839  -12.9120   26.8814 C   0  0  0  0  0  0  0  0  0  0  0  0
    6.5104  -11.6770   26.8866 C   0  0  0  0  0  0  0  0  0  0  0  0
    7.3903  -11.4040   25.8830 C   0  0  0  0  0  0  0  0  0  0  0  0
    7.6598  -12.3145   24.8878 C   0  0  0  0  0  0  0  0  0  0  0  0
    9.3675  -15.3841   24.9322 C   0  0  0  0  0  0  0  0  0  0  0  0
    9.5969  -14.5281   25.8368 O   0  0  0  0  0  0  0  0  0  0  0  0
    9.7274  -16.7348   25.1581 N   0  0  0  0  0  0  0  0  0  0  0  0
   10.3562  -17.2500   26.3342 C   0  0  1  0  0  0  0  0  0  0  0  0
    9.5588  -17.1693   27.5888 C   0  0  0  0  0  0  0  0  0  0  0  0
    8.2446  -18.3814   27.6888 S   0  0  0  0  0  0  0  0  0  0  0  0
   10.9925  -18.5883   26.1381 C   0  0  0  0  0  0  0  0  0  0  0  0
   10.7621  -19.2133   25.0773 O   0  0  0  0  0  0  0  0  0  0  0  0
   11.8155  -19.1564   27.0781 O   0  0  0  0  0  0  0  0  0  0  0  0
  2  1  1  0
  3  2  1  0
  3  4  1  1
  5  3  1  0
  5  6  1  6
  7  8  2  0
  7  5  1  0
  9  7  1  0
 10 11  1  1
 10  9  1  0
 11 12  1  0
 12 17  2  0
 12 13  1  0
 13 14  2  0
 14 15  1  0
 16 15  2  0
 17 16  1  0
 18 10  1  0
 19 18  2  0
 20 18  1  0
 21 22  1  1
 21 20  1  0
 22 23  1  0
 24 26  1  0
 24 21  1  0
 25 24  2  0
M  END
$$$$
