IFC.pdb
     RDKit          3D

 26 26  0  0  1  0  0  0  0  0999 V2000
   10.9520  -20.6692   19.6507 C   0  0  0  0  0  0  0  0  0  0  0  0
   10.2691  -19.3457   19.3975 C   0  0  0  0  0  0  0  0  0  0  0  0
   10.3613  -18.4344   20.6016 C   0  0  2  0  0  0  0  0  0  0  0  0
    9.9108  -19.1694   21.8520 C   0  0  0  0  0  0  0  0  0  0  0  0
    9.6130  -17.1447   20.4167 C   0  0  2  0  0  0  0  0  0  0  0  0
   10.1743  -16.4791   19.2440 N   0  0  0  0  0  0  0  0  0  0  0  0
    9.7152  -16.2340   21.5798 C   0  0  0  0  0  0  0  0  0  0  0  0
   10.7662  -15.6905   21.9769 O   0  0  0  0  0  0  0  0  0  0  0  0
    8.5520  -15.9185   22.3425 N   0  0  0  0  0  0  0  0  0  0  0  0
    8.5324  -15.0616   23.5004 C   0  0  1  0  0  0  0  0  0  0  0  0
    7.2822  -14.2827   23.6456 C   0  0  0  0  0  0  0  0  0  0  0  0
    7.0845  -13.4923   24.8569 C   0  0  0  0  0  0  0  0  0  0  0  0
    7.6072  -12.2230   24.9764 C   0  0  0  0  0  0  0  0  0  0  0  0
    7.4096  -11.4371   26.0894 C   0  0  0  0  0  0  0  0  0  0  0  0
    6.6595  -11.9074   27.1543 C   0  0  0  0  0  0  0  0  0  0  0  0
    6.1322  -13.1600   27.0591 C   0  0  0  0  0  0  0  0  0  0  0  0
    6.3286  -13.9465   25.9479 C   0  0  0  0  0  0  0  0  0  0  0  0
    8.7776  -15.9249   24.6773 C   0  0  0  0  0  0  0  0  0  0  0  0
    8.0068  -16.8855   24.9718 O   0  0  0  0  0  0  0  0  0  0  0  0
    9.9066  -15.6754   25.4946 N   0  0  0  0  0  0  0  0  0  0  0  0
   10.3418  -16.4808   26.5928 C   0  0  1  0  0  0  0  0  0  0  0  0
   11.7179  -17.0390   26.4874 C   0  0  0  0  0  0  0  0  0  0  0  0
   12.1881  -17.4922   24.8202 S   0  0  0  0  0  0  0  0  0  0  0  0
   10.0645  -15.8734   27.9302 C   0  0  0  0  0  0  0  0  0  0  0  0
    9.6091  -14.7075   27.9776 O   0  0  0  0  0  0  0  0  0  0  0  0
   10.2940  -16.5450   29.1049 O   0  0  0  0  0  0  0  0  0  0  0  0
  2  1  1  0
  3  2  1  0
  3  4  1  1
  5  3  1  0
  5  6  1  6
  7  8  2  0
  7  5  1  0
  9  7  1  0
 10 11  1  1
 10  9  1  0
 11 12  1  0
 12 17  2  0
 12 13  1  0
 13 14  2  0
 14 15  1  0
 16 15  2  0
 17 16  1  0
 18 10  1  0
 19 18  2  0
 20 18  1  0
 21 22  1  6
 21 20  1  0
 22 23  1  0
 24 26  1  0
 24 21  1  0
 25 24  2  0
M  END
$$$$
