IFC.pdb
     RDKit          3D

 26 26  0  0  1  0  0  0  0  0999 V2000
   11.1016  -20.8212   19.9799 C   0  0  0  0  0  0  0  0  0  0  0  0
   10.3891  -19.5192   19.6980 C   0  0  0  0  0  0  0  0  0  0  0  0
   10.4302  -18.5939   20.8942 C   0  0  2  0  0  0  0  0  0  0  0  0
    9.9573  -19.3240   22.1392 C   0  0  0  0  0  0  0  0  0  0  0  0
    9.6643  -17.3201   20.6739 C   0  0  2  0  0  0  0  0  0  0  0  0
   10.2111  -16.6837   19.4784 N   0  0  0  0  0  0  0  0  0  0  0  0
    9.7605  -16.3729   21.8080 C   0  0  0  0  0  0  0  0  0  0  0  0
   10.8219  -15.8901   22.2531 O   0  0  0  0  0  0  0  0  0  0  0  0
    8.5784  -15.9449   22.4816 N   0  0  0  0  0  0  0  0  0  0  0  0
    8.5533  -15.0886   23.6397 C   0  0  1  0  0  0  0  0  0  0  0  0
    7.3157  -14.2859   23.7620 C   0  0  0  0  0  0  0  0  0  0  0  0
    7.1194  -13.4773   24.9615 C   0  0  0  0  0  0  0  0  0  0  0  0
    7.7136  -12.2415   25.0965 C   0  0  0  0  0  0  0  0  0  0  0  0
    7.5210  -11.4380   26.1978 C   0  0  0  0  0  0  0  0  0  0  0  0
    6.7024  -11.8550   27.2341 C   0  0  0  0  0  0  0  0  0  0  0  0
    6.1036  -13.0737   27.1230 C   0  0  0  0  0  0  0  0  0  0  0  0
    6.2949  -13.8777   26.0236 C   0  0  0  0  0  0  0  0  0  0  0  0
    8.7597  -15.9571   24.8202 C   0  0  0  0  0  0  0  0  0  0  0  0
    8.0426  -16.9797   25.0291 O   0  0  0  0  0  0  0  0  0  0  0  0
    9.7893  -15.6413   25.7394 N   0  0  0  0  0  0  0  0  0  0  0  0
   10.1358  -16.3964   26.9029 C   0  0  1  0  0  0  0  0  0  0  0  0
   11.2151  -17.4067   26.7274 C   0  0  0  0  0  0  0  0  0  0  0  0
   11.3395  -18.0491   25.0607 S   0  0  0  0  0  0  0  0  0  0  0  0
   10.3191  -15.5609   28.1288 C   0  0  0  0  0  0  0  0  0  0  0  0
   10.2212  -14.3163   28.0275 O   0  0  0  0  0  0  0  0  0  0  0  0
   10.5933  -16.1076   29.3574 O   0  0  0  0  0  0  0  0  0  0  0  0
  2  1  1  0
  3  2  1  0
  3  4  1  1
  5  3  1  0
  5  6  1  6
  7  8  2  0
  7  5  1  0
  9  7  1  0
 10 11  1  1
 10  9  1  0
 11 12  1  0
 12 17  2  0
 12 13  1  0
 13 14  2  0
 14 15  1  0
 16 15  2  0
 17 16  1  0
 18 10  1  0
 19 18  2  0
 20 18  1  0
 21 22  1  6
 21 20  1  0
 22 23  1  0
 24 26  1  0
 24 21  1  0
 25 24  2  0
M  END
$$$$
