IFC.pdb
     RDKit          3D

 26 26  0  0  1  0  0  0  0  0999 V2000
    7.1298  -12.5796   18.8476 C   0  0  0  0  0  0  0  0  0  0  0  0
    7.4246  -13.9462   19.4200 C   0  0  0  0  0  0  0  0  0  0  0  0
    8.2195  -13.8504   20.7036 C   0  0  2  0  0  0  0  0  0  0  0  0
    9.4938  -13.0565   20.4740 C   0  0  0  0  0  0  0  0  0  0  0  0
    8.5052  -15.1926   21.3154 C   0  0  2  0  0  0  0  0  0  0  0  0
    7.2382  -15.9151   21.3928 N   0  0  0  0  0  0  0  0  0  0  0  0
    9.0923  -15.1073   22.6720 C   0  0  0  0  0  0  0  0  0  0  0  0
   10.1776  -14.5584   22.9522 O   0  0  0  0  0  0  0  0  0  0  0  0
    8.4060  -15.6806   23.7832 N   0  0  0  0  0  0  0  0  0  0  0  0
    8.9356  -15.7763   25.1194 C   0  0  1  0  0  0  0  0  0  0  0  0
    7.9576  -15.4311   26.1754 C   0  0  0  0  0  0  0  0  0  0  0  0
    7.5726  -14.0332   26.3455 C   0  0  0  0  0  0  0  0  0  0  0  0
    8.4893  -13.0807   26.7337 C   0  0  0  0  0  0  0  0  0  0  0  0
    8.1685  -11.7486   26.8688 C   0  0  0  0  0  0  0  0  0  0  0  0
    6.8805  -11.3092   26.6124 C   0  0  0  0  0  0  0  0  0  0  0  0
    5.9564  -12.2330   26.2269 C   0  0  0  0  0  0  0  0  0  0  0  0
    6.2750  -13.5642   26.0915 C   0  0  0  0  0  0  0  0  0  0  0  0
    9.4485  -17.1554   25.2800 C   0  0  0  0  0  0  0  0  0  0  0  0
    8.6858  -18.1191   25.5854 O   0  0  0  0  0  0  0  0  0  0  0  0
   10.8276  -17.4076   25.0821 N   0  0  0  0  0  0  0  0  0  0  0  0
   11.3844  -18.5209   24.3789 C   0  0  1  0  0  0  0  0  0  0  0  0
   10.7138  -18.8870   23.1011 C   0  0  0  0  0  0  0  0  0  0  0  0
   10.1062  -20.5708   23.0605 S   0  0  0  0  0  0  0  0  0  0  0  0
   12.8735  -18.4709   24.2572 C   0  0  0  0  0  0  0  0  0  0  0  0
   13.4767  -19.4873   23.8427 O   0  0  0  0  0  0  0  0  0  0  0  0
   13.6012  -17.3547   24.5859 O   0  0  0  0  0  0  0  0  0  0  0  0
  2  1  1  0
  3  2  1  0
  3  4  1  6
  5  3  1  0
  5  6  1  1
  7  8  2  0
  7  5  1  0
  9  7  1  0
 10 11  1  1
 10  9  1  0
 11 12  1  0
 12 17  2  0
 12 13  1  0
 13 14  2  0
 14 15  1  0
 16 15  2  0
 17 16  1  0
 18 10  1  0
 19 18  2  0
 20 18  1  0
 21 22  1  6
 21 20  1  0
 22 23  1  0
 24 26  1  0
 24 21  1  0
 25 24  2  0
M  END
$$$$
