IFC.pdb
     RDKit          3D

 26 26  0  0  1  0  0  0  0  0999 V2000
    8.8938  -20.6008   18.7799 C   0  0  0  0  0  0  0  0  0  0  0  0
    8.8222  -19.0979   18.6444 C   0  0  0  0  0  0  0  0  0  0  0  0
    9.0498  -18.4097   19.9723 C   0  0  2  0  0  0  0  0  0  0  0  0
    8.1639  -19.0253   21.0414 C   0  0  0  0  0  0  0  0  0  0  0  0
    8.8727  -16.9196   19.8959 C   0  0  2  0  0  0  0  0  0  0  0  0
    9.7933  -16.4227   18.8766 N   0  0  0  0  0  0  0  0  0  0  0  0
    9.1541  -16.2279   21.1745 C   0  0  0  0  0  0  0  0  0  0  0  0
   10.2905  -16.0420   21.6560 O   0  0  0  0  0  0  0  0  0  0  0  0
    8.0793  -15.7136   21.9585 N   0  0  0  0  0  0  0  0  0  0  0  0
    8.2298  -15.0371   23.2213 C   0  0  1  0  0  0  0  0  0  0  0  0
    7.3529  -13.8544   23.3733 C   0  0  0  0  0  0  0  0  0  0  0  0
    7.2313  -13.2354   24.6898 C   0  0  0  0  0  0  0  0  0  0  0  0
    8.1187  -12.2692   25.1110 C   0  0  0  0  0  0  0  0  0  0  0  0
    8.0121  -11.6397   26.3307 C   0  0  0  0  0  0  0  0  0  0  0  0
    6.9828  -11.9645   27.1985 C   0  0  0  0  0  0  0  0  0  0  0  0
    6.0926  -12.9173   26.8039 C   0  0  0  0  0  0  0  0  0  0  0  0
    6.1976  -13.5472   25.5856 C   0  0  0  0  0  0  0  0  0  0  0  0
    7.9795  -16.0419   24.2789 C   0  0  0  0  0  0  0  0  0  0  0  0
    7.0360  -16.8819   24.1907 O   0  0  0  0  0  0  0  0  0  0  0  0
    8.8194  -16.0701   25.4184 N   0  0  0  0  0  0  0  0  0  0  0  0
    9.6048  -17.1824   25.8543 C   0  0  1  0  0  0  0  0  0  0  0  0
   10.3272  -17.9288   24.7878 C   0  0  0  0  0  0  0  0  0  0  0  0
   10.1856  -19.7081   24.9285 S   0  0  0  0  0  0  0  0  0  0  0  0
   10.4688  -16.8813   27.0365 C   0  0  0  0  0  0  0  0  0  0  0  0
   10.9879  -17.8358   27.6597 O   0  0  0  0  0  0  0  0  0  0  0  0
   10.7101  -15.5996   27.4638 O   0  0  0  0  0  0  0  0  0  0  0  0
  2  1  1  0
  3  2  1  0
  3  4  1  1
  5  3  1  0
  5  6  1  6
  7  8  2  0
  7  5  1  0
  9  7  1  0
 10 11  1  6
 10  9  1  0
 11 12  1  0
 12 17  2  0
 12 13  1  0
 13 14  2  0
 14 15  1  0
 16 15  2  0
 17 16  1  0
 18 10  1  0
 19 18  2  0
 20 18  1  0
 21 22  1  6
 21 20  1  0
 22 23  1  0
 24 26  1  0
 24 21  1  0
 25 24  2  0
M  END
$$$$
