IFC.pdb
     RDKit          3D

 26 26  0  0  1  0  0  0  0  0999 V2000
    7.5810  -12.4952   18.4825 C   0  0  0  0  0  0  0  0  0  0  0  0
    7.7647  -13.6550   19.4329 C   0  0  0  0  0  0  0  0  0  0  0  0
    8.8839  -14.5685   18.9837 C   0  0  2  0  0  0  0  0  0  0  0  0
    8.6000  -15.1004   17.5897 C   0  0  0  0  0  0  0  0  0  0  0  0
    9.1563  -15.6806   19.9566 C   0  0  2  0  0  0  0  0  0  0  0  0
    8.0223  -16.5992   19.8975 N   0  0  0  0  0  0  0  0  0  0  0  0
    9.3228  -15.2133   21.3518 C   0  0  0  0  0  0  0  0  0  0  0  0
   10.3202  -14.6060   21.7921 O   0  0  0  0  0  0  0  0  0  0  0  0
    8.2931  -15.4491   22.3102 N   0  0  0  0  0  0  0  0  0  0  0  0
    8.3255  -15.0073   23.6809 C   0  0  1  0  0  0  0  0  0  0  0  0
    7.0880  -14.3220   24.1166 C   0  0  0  0  0  0  0  0  0  0  0  0
    7.0466  -13.7285   25.4498 C   0  0  0  0  0  0  0  0  0  0  0  0
    7.5595  -12.4724   25.6901 C   0  0  0  0  0  0  0  0  0  0  0  0
    7.5047  -11.8688   26.9263 C   0  0  0  0  0  0  0  0  0  0  0  0
    6.9172  -12.5201   27.9980 C   0  0  0  0  0  0  0  0  0  0  0  0
    6.4029  -13.7634   27.7846 C   0  0  0  0  0  0  0  0  0  0  0  0
    6.4567  -14.3680   26.5503 C   0  0  0  0  0  0  0  0  0  0  0  0
    8.6099  -16.2001   24.5097 C   0  0  0  0  0  0  0  0  0  0  0  0
    7.9152  -17.2551   24.4205 O   0  0  0  0  0  0  0  0  0  0  0  0
    9.6905  -16.1650   25.4240 N   0  0  0  0  0  0  0  0  0  0  0  0
   10.1284  -17.2489   26.2471 C   0  0  1  0  0  0  0  0  0  0  0  0
   11.2336  -18.0808   25.6968 C   0  0  0  0  0  0  0  0  0  0  0  0
   12.1160  -17.3070   24.3445 S   0  0  0  0  0  0  0  0  0  0  0  0
   10.3472  -16.8678   27.6760 C   0  0  0  0  0  0  0  0  0  0  0  0
   10.6417  -17.7653   28.4986 O   0  0  0  0  0  0  0  0  0  0  0  0
   10.2340  -15.5734   28.1176 O   0  0  0  0  0  0  0  0  0  0  0  0
  2  1  1  0
  3  2  1  0
  3  4  1  6
  5  3  1  0
  5  6  1  1
  7  8  2  0
  7  5  1  0
  9  7  1  0
 10 11  1  1
 10  9  1  0
 11 12  1  0
 12 17  2  0
 12 13  1  0
 13 14  2  0
 14 15  1  0
 16 15  2  0
 17 16  1  0
 18 10  1  0
 19 18  2  0
 20 18  1  0
 21 22  1  6
 21 20  1  0
 22 23  1  0
 24 26  1  0
 24 21  1  0
 25 24  2  0
M  END
$$$$
