IFC.pdb
     RDKit          3D

 26 26  0  0  1  0  0  0  0  0999 V2000
    6.9726  -12.2546   18.7250 C   0  0  0  0  0  0  0  0  0  0  0  0
    7.2889  -13.6601   19.1794 C   0  0  0  0  0  0  0  0  0  0  0  0
    8.1862  -13.6608   20.3974 C   0  0  2  0  0  0  0  0  0  0  0  0
    9.4535  -12.8722   20.1162 C   0  0  0  0  0  0  0  0  0  0  0  0
    8.4934  -15.0445   20.8959 C   0  0  2  0  0  0  0  0  0  0  0  0
    7.2193  -15.6929   21.1955 N   0  0  0  0  0  0  0  0  0  0  0  0
    9.3359  -15.0570   22.1136 C   0  0  0  0  0  0  0  0  0  0  0  0
   10.5600  -14.8156   22.1430 O   0  0  0  0  0  0  0  0  0  0  0  0
    8.7544  -15.3626   23.3797 N   0  0  0  0  0  0  0  0  0  0  0  0
    9.4668  -15.3801   24.6316 C   0  0  1  0  0  0  0  0  0  0  0  0
    8.6396  -14.9881   25.7947 C   0  0  0  0  0  0  0  0  0  0  0  0
    9.2727  -14.8958   27.1069 C   0  0  0  0  0  0  0  0  0  0  0  0
    9.5405  -13.6755   27.6880 C   0  0  0  0  0  0  0  0  0  0  0  0
   10.1033  -13.5528   28.9385 C   0  0  0  0  0  0  0  0  0  0  0  0
   10.4278  -14.6804   29.6740 C   0  0  0  0  0  0  0  0  0  0  0  0
   10.1721  -15.8985   29.1200 C   0  0  0  0  0  0  0  0  0  0  0  0
    9.6100  -16.0231   27.8709 C   0  0  0  0  0  0  0  0  0  0  0  0
   10.0215  -16.7431   24.7907 C   0  0  0  0  0  0  0  0  0  0  0  0
    9.2810  -17.7703   24.7751 O   0  0  0  0  0  0  0  0  0  0  0  0
   11.4178  -16.9059   24.9597 N   0  0  0  0  0  0  0  0  0  0  0  0
   12.1565  -18.1076   24.7269 C   0  0  1  0  0  0  0  0  0  0  0  0
   12.3043  -18.5171   23.3032 C   0  0  0  0  0  0  0  0  0  0  0  0
   11.7694  -20.1939   22.9743 S   0  0  0  0  0  0  0  0  0  0  0  0
   13.4423  -18.1791   25.4860 C   0  0  0  0  0  0  0  0  0  0  0  0
   13.8278  -17.1645   26.1112 O   0  0  0  0  0  0  0  0  0  0  0  0
   14.2148  -19.3129   25.5193 O   0  0  0  0  0  0  0  0  0  0  0  0
  2  1  1  0
  3  2  1  0
  3  4  1  6
  5  3  1  0
  5  6  1  1
  7  8  2  0
  7  5  1  0
  9  7  1  0
 10 11  1  1
 10  9  1  0
 11 12  1  0
 12 17  2  0
 12 13  1  0
 13 14  2  0
 14 15  1  0
 16 15  2  0
 17 16  1  0
 18 10  1  0
 19 18  2  0
 20 18  1  0
 21 22  1  6
 21 20  1  0
 22 23  1  0
 24 26  1  0
 24 21  1  0
 25 24  2  0
M  END
$$$$
