IFC.pdb
     RDKit          3D

 26 26  0  0  1  0  0  0  0  0999 V2000
    6.9966  -12.0328   18.8289 C   0  0  0  0  0  0  0  0  0  0  0  0
    7.1886  -13.4608   19.2830 C   0  0  0  0  0  0  0  0  0  0  0  0
    7.9929  -13.5328   20.5624 C   0  0  2  0  0  0  0  0  0  0  0  0
    9.2922  -12.7613   20.4098 C   0  0  0  0  0  0  0  0  0  0  0  0
    8.2358  -14.9428   21.0212 C   0  0  2  0  0  0  0  0  0  0  0  0
    6.9319  -15.5479   21.2799 N   0  0  0  0  0  0  0  0  0  0  0  0
    9.0565  -15.0276   22.2508 C   0  0  0  0  0  0  0  0  0  0  0  0
   10.2955  -14.8859   22.2990 O   0  0  0  0  0  0  0  0  0  0  0  0
    8.4336  -15.2898   23.5068 N   0  0  0  0  0  0  0  0  0  0  0  0
    9.1213  -15.3532   24.7710 C   0  0  1  0  0  0  0  0  0  0  0  0
    8.3312  -14.8286   25.9074 C   0  0  0  0  0  0  0  0  0  0  0  0
    8.9483  -14.7836   27.2297 C   0  0  0  0  0  0  0  0  0  0  0  0
    9.1707  -15.9337   27.9551 C   0  0  0  0  0  0  0  0  0  0  0  0
    9.7824  -15.9306   29.1885 C   0  0  0  0  0  0  0  0  0  0  0  0
   10.2059  -14.7409   29.7569 C   0  0  0  0  0  0  0  0  0  0  0  0
    9.9968  -13.5902   29.0582 C   0  0  0  0  0  0  0  0  0  0  0  0
    9.3859  -13.5914   27.8259 C   0  0  0  0  0  0  0  0  0  0  0  0
    9.5059  -16.7671   24.9799 C   0  0  0  0  0  0  0  0  0  0  0  0
    8.6432  -17.6929   25.0259 O   0  0  0  0  0  0  0  0  0  0  0  0
   10.8751  -17.0966   25.1273 N   0  0  0  0  0  0  0  0  0  0  0  0
   11.4100  -18.4148   25.2695 C   0  0  1  0  0  0  0  0  0  0  0  0
   11.3758  -19.2677   24.0497 C   0  0  0  0  0  0  0  0  0  0  0  0
   12.9774  -19.9108   23.5726 S   0  0  0  0  0  0  0  0  0  0  0  0
   12.7317  -18.4548   25.9667 C   0  0  0  0  0  0  0  0  0  0  0  0
   13.3332  -17.3763   26.1761 O   0  0  0  0  0  0  0  0  0  0  0  0
   13.3093  -19.6287   26.3814 O   0  0  0  0  0  0  0  0  0  0  0  0
  2  1  1  0
  3  2  1  0
  3  4  1  6
  5  3  1  0
  5  6  1  1
  7  8  2  0
  7  5  1  0
  9  7  1  0
 10 11  1  1
 10  9  1  0
 11 12  1  0
 12 17  2  0
 12 13  1  0
 13 14  2  0
 14 15  1  0
 16 15  2  0
 17 16  1  0
 18 10  1  0
 19 18  2  0
 20 18  1  0
 21 22  1  6
 21 20  1  0
 22 23  1  0
 24 26  1  0
 24 21  1  0
 25 24  2  0
M  END
$$$$
