IFC.pdb
     RDKit          3D

 26 26  0  0  1  0  0  0  0  0999 V2000
    7.8955  -20.2249   18.3307 C   0  0  0  0  0  0  0  0  0  0  0  0
    8.1276  -18.7328   18.2865 C   0  0  0  0  0  0  0  0  0  0  0  0
    8.4076  -18.1738   19.6642 C   0  0  2  0  0  0  0  0  0  0  0  0
    7.3011  -18.5698   20.6263 C   0  0  0  0  0  0  0  0  0  0  0  0
    8.6310  -16.6880   19.6574 C   0  0  2  0  0  0  0  0  0  0  0  0
    9.7295  -16.4164   18.7339 N   0  0  0  0  0  0  0  0  0  0  0  0
    8.9770  -16.1396   20.9887 C   0  0  0  0  0  0  0  0  0  0  0  0
   10.0656  -16.3093   21.5749 O   0  0  0  0  0  0  0  0  0  0  0  0
    8.0289  -15.3480   21.7019 N   0  0  0  0  0  0  0  0  0  0  0  0
    8.2554  -14.7567   22.9958 C   0  0  1  0  0  0  0  0  0  0  0  0
    7.2529  -13.7334   23.3683 C   0  0  0  0  0  0  0  0  0  0  0  0
    7.2631  -13.2035   24.7286 C   0  0  0  0  0  0  0  0  0  0  0  0
    8.2927  -12.4057   25.1781 C   0  0  0  0  0  0  0  0  0  0  0  0
    8.3161  -11.8604   26.4420 C   0  0  0  0  0  0  0  0  0  0  0  0
    7.2790  -12.1012   27.3276 C   0  0  0  0  0  0  0  0  0  0  0  0
    6.2495  -12.8873   26.9057 C   0  0  0  0  0  0  0  0  0  0  0  0
    6.2245  -13.4330   25.6433 C   0  0  0  0  0  0  0  0  0  0  0  0
    8.2923  -15.8666   23.9743 C   0  0  0  0  0  0  0  0  0  0  0  0
    7.3311  -16.6823   24.0939 O   0  0  0  0  0  0  0  0  0  0  0  0
    9.4341  -16.0258   24.7964 N   0  0  0  0  0  0  0  0  0  0  0  0
    9.6820  -17.1178   25.6854 C   0  0  1  0  0  0  0  0  0  0  0  0
   10.3399  -18.3110   25.0854 C   0  0  0  0  0  0  0  0  0  0  0  0
   11.0804  -19.4098   26.2897 S   0  0  0  0  0  0  0  0  0  0  0  0
   10.3002  -16.7075   26.9831 C   0  0  0  0  0  0  0  0  0  0  0  0
   11.0739  -15.7226   26.9950 O   0  0  0  0  0  0  0  0  0  0  0  0
   10.0532  -17.3722   28.1582 O   0  0  0  0  0  0  0  0  0  0  0  0
  2  1  1  0
  3  2  1  0
  3  4  1  1
  5  3  1  0
  5  6  1  6
  7  8  2  0
  7  5  1  0
  9  7  1  0
 10 11  1  1
 10  9  1  0
 11 12  1  0
 12 17  2  0
 12 13  1  0
 13 14  2  0
 14 15  1  0
 16 15  2  0
 17 16  1  0
 18 10  1  0
 19 18  2  0
 20 18  1  0
 21 22  1  6
 21 20  1  0
 22 23  1  0
 24 26  1  0
 24 21  1  0
 25 24  2  0
M  END
$$$$
