IFC.pdb
     RDKit          3D

 26 26  0  0  1  0  0  0  0  0999 V2000
    9.7242  -20.3959   18.7057 C   0  0  0  0  0  0  0  0  0  0  0  0
    9.1735  -18.9939   18.5912 C   0  0  0  0  0  0  0  0  0  0  0  0
    9.4452  -18.1871   19.8419 C   0  0  2  0  0  0  0  0  0  0  0  0
    9.0391  -18.9764   21.0743 C   0  0  0  0  0  0  0  0  0  0  0  0
    8.7989  -16.8310   19.8141 C   0  0  2  0  0  0  0  0  0  0  0  0
    9.2889  -16.1387   18.6250 N   0  0  0  0  0  0  0  0  0  0  0  0
    9.1050  -16.0096   21.0075 C   0  0  0  0  0  0  0  0  0  0  0  0
   10.2290  -15.5489   21.2939 O   0  0  0  0  0  0  0  0  0  0  0  0
    8.0713  -15.6892   21.9366 N   0  0  0  0  0  0  0  0  0  0  0  0
    8.2624  -14.9579   23.1629 C   0  0  1  0  0  0  0  0  0  0  0  0
    7.1209  -14.0869   23.5226 C   0  0  0  0  0  0  0  0  0  0  0  0
    7.1111  -13.4495   24.8360 C   0  0  0  0  0  0  0  0  0  0  0  0
    7.6756  -12.2082   25.0331 C   0  0  0  0  0  0  0  0  0  0  0  0
    7.6522  -11.5632   26.2493 C   0  0  0  0  0  0  0  0  0  0  0  0
    7.0450  -12.1552   27.3441 C   0  0  0  0  0  0  0  0  0  0  0  0
    6.4797  -13.3830   27.1735 C   0  0  0  0  0  0  0  0  0  0  0  0
    6.5021  -14.0288   25.9592 C   0  0  0  0  0  0  0  0  0  0  0  0
    8.5412  -15.9565   24.2191 C   0  0  0  0  0  0  0  0  0  0  0  0
    7.7275  -16.8892   24.4865 O   0  0  0  0  0  0  0  0  0  0  0  0
    9.7521  -15.8720   24.9482 N   0  0  0  0  0  0  0  0  0  0  0  0
   10.1886  -16.7849   25.9582 C   0  0  1  0  0  0  0  0  0  0  0  0
   11.5106  -17.4295   25.7277 C   0  0  0  0  0  0  0  0  0  0  0  0
   11.7614  -17.9813   24.0428 S   0  0  0  0  0  0  0  0  0  0  0  0
   10.0357  -16.2596   27.3494 C   0  0  0  0  0  0  0  0  0  0  0  0
    9.6790  -15.0692   27.5061 O   0  0  0  0  0  0  0  0  0  0  0  0
   10.2749  -17.0326   28.4579 O   0  0  0  0  0  0  0  0  0  0  0  0
  2  1  1  0
  3  2  1  0
  3  4  1  1
  5  3  1  0
  5  6  1  6
  7  8  2  0
  7  5  1  0
  9  7  1  0
 10 11  1  1
 10  9  1  0
 11 12  1  0
 12 17  2  0
 12 13  1  0
 13 14  2  0
 14 15  1  0
 16 15  2  0
 17 16  1  0
 18 10  1  0
 19 18  2  0
 20 18  1  0
 21 22  1  6
 21 20  1  0
 22 23  1  0
 24 26  1  0
 24 21  1  0
 25 24  2  0
M  END
$$$$
