IFC.pdb
     RDKit          3D

 26 26  0  0  1  0  0  0  0  0999 V2000
    9.0284  -18.4317   17.1240 C   0  0  0  0  0  0  0  0  0  0  0  0
    9.0445  -18.6656   18.6164 C   0  0  0  0  0  0  0  0  0  0  0  0
    9.6923  -17.5129   19.3517 C   0  0  2  0  0  0  0  0  0  0  0  0
   11.0760  -17.2415   18.7873 C   0  0  0  0  0  0  0  0  0  0  0  0
    9.7308  -17.7171   20.8398 C   0  0  2  0  0  0  0  0  0  0  0  0
    8.5435  -18.4852   21.2053 N   0  0  0  0  0  0  0  0  0  0  0  0
    9.7375  -16.4505   21.6068 C   0  0  0  0  0  0  0  0  0  0  0  0
   10.6398  -15.5893   21.5642 O   0  0  0  0  0  0  0  0  0  0  0  0
    8.6522  -16.1391   22.4784 N   0  0  0  0  0  0  0  0  0  0  0  0
    8.5893  -14.9842   23.3370 C   0  0  1  0  0  0  0  0  0  0  0  0
    7.2559  -14.7596   23.9388 C   0  0  0  0  0  0  0  0  0  0  0  0
    7.0847  -13.6496   24.8714 C   0  0  0  0  0  0  0  0  0  0  0  0
    7.6219  -12.4076   24.6119 C   0  0  0  0  0  0  0  0  0  0  0  0
    7.4494  -11.3304   25.4517 C   0  0  0  0  0  0  0  0  0  0  0  0
    6.7110  -11.4616   26.6159 C   0  0  0  0  0  0  0  0  0  0  0  0
    6.1698  -12.6805   26.8940 C   0  0  0  0  0  0  0  0  0  0  0  0
    6.3411  -13.7577   26.0561 C   0  0  0  0  0  0  0  0  0  0  0  0
    9.6326  -15.1613   24.3718 C   0  0  0  0  0  0  0  0  0  0  0  0
   10.6788  -14.4482   24.3928 O   0  0  0  0  0  0  0  0  0  0  0  0
    9.4561  -16.1506   25.3692 N   0  0  0  0  0  0  0  0  0  0  0  0
   10.2292  -16.2842   26.5644 C   0  0  1  0  0  0  0  0  0  0  0  0
   10.3354  -15.0650   27.4123 C   0  0  0  0  0  0  0  0  0  0  0  0
   11.2444  -15.3200   28.9337 S   0  0  0  0  0  0  0  0  0  0  0  0
    9.9074  -17.5120   27.3541 C   0  0  0  0  0  0  0  0  0  0  0  0
    8.8052  -18.0760   27.1648 O   0  0  0  0  0  0  0  0  0  0  0  0
   10.7733  -18.0396   28.2789 O   0  0  0  0  0  0  0  0  0  0  0  0
  2  1  1  0
  3  2  1  0
  3  4  1  6
  5  3  1  0
  5  6  1  1
  7  8  2  0
  7  5  1  0
  9  7  1  0
 10 11  1  1
 10  9  1  0
 11 12  1  0
 12 17  2  0
 12 13  1  0
 13 14  2  0
 14 15  1  0
 16 15  2  0
 17 16  1  0
 18 10  1  0
 19 18  2  0
 20 18  1  0
 21 22  1  1
 21 20  1  0
 22 23  1  0
 24 26  1  0
 24 21  1  0
 25 24  2  0
M  END
$$$$
