IFC.pdb
     RDKit          3D

 26 26  0  0  1  0  0  0  0  0999 V2000
    7.3881  -13.6308   16.6378 C   0  0  0  0  0  0  0  0  0  0  0  0
    8.1626  -14.5704   17.5320 C   0  0  0  0  0  0  0  0  0  0  0  0
    8.2493  -14.0438   18.9477 C   0  0  2  0  0  0  0  0  0  0  0  0
    9.0053  -12.7268   18.9725 C   0  0  0  0  0  0  0  0  0  0  0  0
    8.8385  -15.0395   19.9062 C   0  0  2  0  0  0  0  0  0  0  0  0
    7.9498  -16.1983   19.9322 N   0  0  0  0  0  0  0  0  0  0  0  0
    8.9831  -14.5150   21.2834 C   0  0  0  0  0  0  0  0  0  0  0  0
    9.9127  -13.7824   21.6795 O   0  0  0  0  0  0  0  0  0  0  0  0
    8.0123  -14.8412   22.2761 N   0  0  0  0  0  0  0  0  0  0  0  0
    8.0236  -14.3547   23.6319 C   0  0  1  0  0  0  0  0  0  0  0  0
    6.7434  -13.7468   24.0588 C   0  0  0  0  0  0  0  0  0  0  0  0
    6.6686  -13.1197   25.3750 C   0  0  0  0  0  0  0  0  0  0  0  0
    6.0189  -13.7330   26.4239 C   0  0  0  0  0  0  0  0  0  0  0  0
    5.9604  -13.1867   27.6863 C   0  0  0  0  0  0  0  0  0  0  0  0
    6.5681  -11.9710   27.9520 C   0  0  0  0  0  0  0  0  0  0  0  0
    7.2169  -11.3456   26.9303 C   0  0  0  0  0  0  0  0  0  0  0  0
    7.2764  -11.8898   25.6685 C   0  0  0  0  0  0  0  0  0  0  0  0
    8.4002  -15.4969   24.4946 C   0  0  0  0  0  0  0  0  0  0  0  0
    7.5320  -16.1768   25.1172 O   0  0  0  0  0  0  0  0  0  0  0  0
    9.7667  -15.8441   24.6247 N   0  0  0  0  0  0  0  0  0  0  0  0
   10.2768  -17.0210   25.2561 C   0  0  1  0  0  0  0  0  0  0  0  0
    9.6405  -18.3053   24.8533 C   0  0  0  0  0  0  0  0  0  0  0  0
    8.1342  -18.6770   25.7471 S   0  0  0  0  0  0  0  0  0  0  0  0
   11.7697  -17.0950   25.2725 C   0  0  0  0  0  0  0  0  0  0  0  0
   12.3166  -18.0703   25.8370 O   0  0  0  0  0  0  0  0  0  0  0  0
   12.5602  -16.1329   24.6953 O   0  0  0  0  0  0  0  0  0  0  0  0
  2  1  1  0
  3  2  1  0
  3  4  1  6
  5  3  1  0
  5  6  1  1
  7  8  2  0
  7  5  1  0
  9  7  1  0
 10 11  1  1
 10  9  1  0
 11 12  1  0
 12 17  2  0
 12 13  1  0
 13 14  2  0
 14 15  1  0
 16 15  2  0
 17 16  1  0
 18 10  1  0
 19 18  2  0
 20 18  1  0
 21 22  1  6
 21 20  1  0
 22 23  1  0
 24 26  1  0
 24 21  1  0
 25 24  2  0
M  END
$$$$
