IFC.pdb
     RDKit          3D

 26 26  0  0  1  0  0  0  0  0999 V2000
    9.2460  -20.8291   19.4020 C   0  0  0  0  0  0  0  0  0  0  0  0
    9.1922  -19.3293   19.2296 C   0  0  0  0  0  0  0  0  0  0  0  0
    9.2808  -18.6143   20.5599 C   0  0  2  0  0  0  0  0  0  0  0  0
    8.2224  -19.1437   21.5119 C   0  0  0  0  0  0  0  0  0  0  0  0
    9.2080  -17.1195   20.4256 C   0  0  2  0  0  0  0  0  0  0  0  0
   10.2676  -16.7122   19.5066 N   0  0  0  0  0  0  0  0  0  0  0  0
    9.3862  -16.4047   21.7101 C   0  0  0  0  0  0  0  0  0  0  0  0
   10.4577  -16.3240   22.3450 O   0  0  0  0  0  0  0  0  0  0  0  0
    8.2794  -15.7384   22.3147 N   0  0  0  0  0  0  0  0  0  0  0  0
    8.3298  -15.0231   23.5640 C   0  0  1  0  0  0  0  0  0  0  0  0
    7.3588  -13.9096   23.6540 C   0  0  0  0  0  0  0  0  0  0  0  0
    7.1795  -13.2367   24.9371 C   0  0  0  0  0  0  0  0  0  0  0  0
    7.9888  -12.1872   25.3139 C   0  0  0  0  0  0  0  0  0  0  0  0
    7.8246  -11.5076   26.4999 C   0  0  0  0  0  0  0  0  0  0  0  0
    6.8144  -11.8647   27.3773 C   0  0  0  0  0  0  0  0  0  0  0  0
    6.0012  -12.8998   27.0263 C   0  0  0  0  0  0  0  0  0  0  0  0
    6.1638  -13.5799   25.8419 C   0  0  0  0  0  0  0  0  0  0  0  0
    8.1188  -16.0197   24.6378 C   0  0  0  0  0  0  0  0  0  0  0  0
    7.2980  -16.9752   24.5088 O   0  0  0  0  0  0  0  0  0  0  0  0
    8.8572  -15.9067   25.8407 N   0  0  0  0  0  0  0  0  0  0  0  0
    9.5955  -16.9549   26.4733 C   0  0  1  0  0  0  0  0  0  0  0  0
   10.4319  -17.7976   25.5752 C   0  0  0  0  0  0  0  0  0  0  0  0
   10.0029  -19.5357   25.6088 S   0  0  0  0  0  0  0  0  0  0  0  0
   10.3255  -16.5182   27.7026 C   0  0  0  0  0  0  0  0  0  0  0  0
   10.6558  -15.3147   27.8093 O   0  0  0  0  0  0  0  0  0  0  0  0
   10.6487  -17.3877   28.7140 O   0  0  0  0  0  0  0  0  0  0  0  0
  2  1  1  0
  3  2  1  0
  3  4  1  1
  5  3  1  0
  5  6  1  6
  7  8  2  0
  7  5  1  0
  9  7  1  0
 10 11  1  6
 10  9  1  0
 11 12  1  0
 12 17  2  0
 12 13  1  0
 13 14  2  0
 14 15  1  0
 16 15  2  0
 17 16  1  0
 18 10  1  0
 19 18  2  0
 20 18  1  0
 21 22  1  6
 21 20  1  0
 22 23  1  0
 24 26  1  0
 24 21  1  0
 25 24  2  0
M  END
$$$$
