QST.pdb
     RDKit          3D

 23 22  0  0  1  0  0  0  0  0999 V2000
    8.3147  -12.3702   19.1808 N   0  0  0  0  0  0  0  0  0  0  0  0
    8.0592  -13.4536   18.2980 C   0  0  0  0  0  0  0  0  0  0  0  0
    8.3235  -13.3025   17.0911 O   0  0  0  0  0  0  0  0  0  0  0  0
    7.4976  -14.7028   18.8069 C   0  0  0  0  0  0  0  0  0  0  0  0
    8.4703  -15.7883   19.1516 C   0  0  0  0  0  0  0  0  0  0  0  0
    8.1785  -16.4780   20.4311 C   0  0  2  0  0  0  0  0  0  0  0  0
    6.7951  -16.6237   20.6923 N   0  0  0  0  0  0  0  0  0  0  0  0
    8.8078  -15.8088   21.6035 C   0  0  0  0  0  0  0  0  0  0  0  0
    9.9692  -15.3312   21.5419 O   0  0  0  0  0  0  0  0  0  0  0  0
    6.7235  -14.8325   25.0063 O   0  0  0  0  0  0  0  0  0  0  0  0
    8.0598  -14.4533   24.9000 C   0  0  0  0  0  0  0  0  0  0  0  0
    8.8398  -15.4993   24.0913 C   0  0  2  0  0  0  0  0  0  0  0  0
    8.1337  -15.6720   22.8550 N   0  0  0  0  0  0  0  0  0  0  0  0
    8.8944  -16.7138   24.9144 C   0  0  0  0  0  0  0  0  0  0  0  0
    7.9502  -17.5262   25.0673 O   0  0  0  0  0  0  0  0  0  0  0  0
   11.1266  -19.5711   24.4629 C   0  0  0  0  0  0  0  0  0  0  0  0
   11.4559  -19.0112   25.8143 C   0  0  1  0  0  0  0  0  0  0  0  0
   12.5330  -18.1380   25.6556 O   0  0  0  0  0  0  0  0  0  0  0  0
   10.2941  -18.1959   26.3816 C   0  0  2  0  0  0  0  0  0  0  0  0
   10.1125  -16.9957   25.5941 N   0  0  0  0  0  0  0  0  0  0  0  0
   10.6889  -17.7997   27.7499 C   0  0  0  0  0  0  0  0  0  0  0  0
   10.7185  -18.7366   28.7655 O   0  0  0  0  0  0  0  0  0  0  0  0
   10.9939  -16.6149   27.9771 O   0  0  0  0  0  0  0  0  0  0  0  0
  2  1  1  0
  2  3  2  0
  4  2  1  0
  5  4  1  0
  6  5  1  0
  6  7  1  1
  8  6  1  0
  8 13  1  0
  9  8  2  0
 10 11  1  0
 12 11  1  1
 12 13  1  0
 12 14  1  0
 14 15  2  0
 14 20  1  0
 17 16  1  6
 17 18  1  0
 19 21  1  0
 19 17  1  0
 19 20  1  6
 21 22  1  0
 23 21  2  0
M  END
$$$$
