QST.pdb
     RDKit          3D

 23 22  0  0  1  0  0  0  0  0999 V2000
    5.8466  -18.8254   19.9225 N   0  0  0  0  0  0  0  0  0  0  0  0
    7.2267  -19.1175   20.0912 C   0  0  0  0  0  0  0  0  0  0  0  0
    7.5736  -20.3123   20.1286 O   0  0  0  0  0  0  0  0  0  0  0  0
    8.1992  -18.0347   20.2199 C   0  0  0  0  0  0  0  0  0  0  0  0
    7.6743  -16.6380   20.0891 C   0  0  0  0  0  0  0  0  0  0  0  0
    8.7085  -15.5866   20.2410 C   0  0  2  0  0  0  0  0  0  0  0  0
    9.7410  -15.6652   19.2762 N   0  0  0  0  0  0  0  0  0  0  0  0
    9.3318  -15.5823   21.5937 C   0  0  0  0  0  0  0  0  0  0  0  0
   10.5261  -15.9349   21.7677 O   0  0  0  0  0  0  0  0  0  0  0  0
    6.9811  -14.9151   24.9534 O   0  0  0  0  0  0  0  0  0  0  0  0
    8.2808  -14.4150   24.9921 C   0  0  0  0  0  0  0  0  0  0  0  0
    9.1899  -15.2438   24.0740 C   0  0  2  0  0  0  0  0  0  0  0  0
    8.6149  -15.1806   22.7616 N   0  0  0  0  0  0  0  0  0  0  0  0
    9.2323  -16.5999   24.6350 C   0  0  0  0  0  0  0  0  0  0  0  0
    8.3736  -17.4925   24.4333 O   0  0  0  0  0  0  0  0  0  0  0  0
   11.4289  -19.2797   24.0233 C   0  0  0  0  0  0  0  0  0  0  0  0
   11.6595  -18.9706   25.4722 C   0  0  1  0  0  0  0  0  0  0  0  0
   12.7559  -18.1104   25.5485 O   0  0  0  0  0  0  0  0  0  0  0  0
   10.4671  -18.2368   26.0856 C   0  0  2  0  0  0  0  0  0  0  0  0
   10.3325  -16.9323   25.4743 N   0  0  0  0  0  0  0  0  0  0  0  0
   10.7817  -18.0497   27.5178 C   0  0  0  0  0  0  0  0  0  0  0  0
   10.7977  -19.1336   28.3751 O   0  0  0  0  0  0  0  0  0  0  0  0
   11.0316  -16.9071   27.9425 O   0  0  0  0  0  0  0  0  0  0  0  0
  2  1  1  0
  2  3  2  0
  4  2  1  0
  5  4  1  0
  6  5  1  0
  6  7  1  6
  8  6  1  0
  8 13  1  0
  9  8  2  0
 10 11  1  0
 12 11  1  1
 12 13  1  0
 12 14  1  0
 14 15  2  0
 14 20  1  0
 17 16  1  6
 17 18  1  0
 19 21  1  0
 19 17  1  0
 19 20  1  6
 21 22  1  0
 23 21  2  0
M  END
$$$$
