QST.pdb
     RDKit          3D

 23 22  0  0  1  0  0  0  0  0999 V2000
   17.4122  -15.4066   17.0000 N   0  0  0  0  0  0  0  0  0  0  0  0
   16.6341  -14.7901   15.9837 C   0  0  0  0  0  0  0  0  0  0  0  0
   17.1388  -14.6642   14.8529 O   0  0  0  0  0  0  0  0  0  0  0  0
   15.2821  -14.3183   16.2742 C   0  0  0  0  0  0  0  0  0  0  0  0
   14.7825  -14.5224   17.6714 C   0  0  0  0  0  0  0  0  0  0  0  0
   13.4166  -15.0937   17.7477 C   0  0  2  0  0  0  0  0  0  0  0  0
   12.5805  -14.7061   16.6734 N   0  0  0  0  0  0  0  0  0  0  0  0
   12.7231  -14.7615   19.0233 C   0  0  0  0  0  0  0  0  0  0  0  0
   13.3617  -14.5900   20.0927 O   0  0  0  0  0  0  0  0  0  0  0  0
    8.5489  -14.8303   19.2128 O   0  0  0  0  0  0  0  0  0  0  0  0
    9.2205  -13.9073   20.0116 C   0  0  0  0  0  0  0  0  0  0  0  0
   10.6230  -14.4301   20.3522 C   0  0  2  0  0  0  0  0  0  0  0  0
   11.3044  -14.6197   19.1046 N   0  0  0  0  0  0  0  0  0  0  0  0
   10.4369  -15.6693   21.1173 C   0  0  0  0  0  0  0  0  0  0  0  0
   10.1026  -16.7763   20.6297 O   0  0  0  0  0  0  0  0  0  0  0  0
   12.7452  -17.7489   22.5485 C   0  0  0  0  0  0  0  0  0  0  0  0
   11.9886  -17.2422   23.7397 C   0  0  1  0  0  0  0  0  0  0  0  0
   12.6628  -16.1178   24.2180 O   0  0  0  0  0  0  0  0  0  0  0  0
   10.5779  -16.7941   23.3586 C   0  0  2  0  0  0  0  0  0  0  0  0
   10.6516  -15.6151   22.5231 N   0  0  0  0  0  0  0  0  0  0  0  0
    9.8989  -16.4291   24.6200 C   0  0  0  0  0  0  0  0  0  0  0  0
    9.5696  -17.4048   25.5417 O   0  0  0  0  0  0  0  0  0  0  0  0
    9.6275  -15.2353   24.8426 O   0  0  0  0  0  0  0  0  0  0  0  0
  2  1  1  0
  2  3  2  0
  4  2  1  0
  5  4  1  0
  6  5  1  0
  6  7  1  6
  8  6  1  0
  8 13  1  0
  9  8  2  0
 10 11  1  0
 12 11  1  6
 12 13  1  0
 12 14  1  0
 14 15  2  0
 14 20  1  0
 17 16  1  6
 17 18  1  0
 19 21  1  0
 19 17  1  0
 19 20  1  6
 21 22  1  0
 23 21  2  0
M  END
$$$$
