QST.pdb
     RDKit          3D

 23 22  0  0  1  0  0  0  0  0999 V2000
    9.9247  -19.8240   19.3596 N   0  0  0  0  0  0  0  0  0  0  0  0
    9.9996  -19.0704   18.1575 C   0  0  0  0  0  0  0  0  0  0  0  0
   10.6542  -19.5413   17.2092 O   0  0  0  0  0  0  0  0  0  0  0  0
    9.3253  -17.7784   18.0538 C   0  0  0  0  0  0  0  0  0  0  0  0
    8.5156  -17.3437   19.2365 C   0  0  0  0  0  0  0  0  0  0  0  0
    9.2017  -16.3634   20.1118 C   0  0  2  0  0  0  0  0  0  0  0  0
   10.5513  -16.6936   20.3816 N   0  0  0  0  0  0  0  0  0  0  0  0
    8.5013  -16.1607   21.4105 C   0  0  0  0  0  0  0  0  0  0  0  0
    7.2982  -15.7984   21.4584 O   0  0  0  0  0  0  0  0  0  0  0  0
   10.3232  -17.2730   25.0023 O   0  0  0  0  0  0  0  0  0  0  0  0
    8.9434  -17.3484   24.8252 C   0  0  0  0  0  0  0  0  0  0  0  0
    8.4672  -16.2060   23.9171 C   0  0  2  0  0  0  0  0  0  0  0  0
    9.1504  -16.3645   22.6660 N   0  0  0  0  0  0  0  0  0  0  0  0
    8.7900  -14.9531   24.6111 C   0  0  0  0  0  0  0  0  0  0  0  0
    9.8559  -14.3051   24.4743 O   0  0  0  0  0  0  0  0  0  0  0  0
    6.4741  -11.6906   25.2403 C   0  0  0  0  0  0  0  0  0  0  0  0
    6.7995  -12.4507   26.4912 C   0  0  1  0  0  0  0  0  0  0  0  0
    5.7604  -13.3549   26.7152 O   0  0  0  0  0  0  0  0  0  0  0  0
    8.0818  -13.2674   26.3332 C   0  0  2  0  0  0  0  0  0  0  0  0
    7.8200  -14.4289   25.5110 N   0  0  0  0  0  0  0  0  0  0  0  0
    8.4538  -13.7297   27.6871 C   0  0  0  0  0  0  0  0  0  0  0  0
    8.8631  -12.8218   28.6455 O   0  0  0  0  0  0  0  0  0  0  0  0
    8.3945  -14.9435   27.9542 O   0  0  0  0  0  0  0  0  0  0  0  0
  2  1  1  0
  2  3  2  0
  4  2  1  0
  5  4  1  0
  6  5  1  0
  6  7  1  1
  8  6  1  0
  8 13  1  0
  9  8  2  0
 10 11  1  0
 12 11  1  1
 12 13  1  0
 12 14  1  0
 14 15  2  0
 14 20  1  0
 17 16  1  6
 17 18  1  0
 19 21  1  0
 19 17  1  0
 19 20  1  6
 21 22  1  0
 23 21  2  0
M  END
$$$$
