QST.pdb
     RDKit          3D

 23 22  0  0  1  0  0  0  0  0999 V2000
    9.3038  -20.2683   18.0004 N   0  0  0  0  0  0  0  0  0  0  0  0
    9.8462  -18.9661   17.8317 C   0  0  0  0  0  0  0  0  0  0  0  0
   11.0635  -18.8637   17.5928 O   0  0  0  0  0  0  0  0  0  0  0  0
    8.9873  -17.7894   17.9426 C   0  0  0  0  0  0  0  0  0  0  0  0
    8.3933  -17.5128   19.2894 C   0  0  0  0  0  0  0  0  0  0  0  0
    9.3036  -16.7989   20.2167 C   0  0  2  0  0  0  0  0  0  0  0  0
   10.5473  -17.4491   20.4007 N   0  0  0  0  0  0  0  0  0  0  0  0
    8.6953  -16.5655   21.5560 C   0  0  0  0  0  0  0  0  0  0  0  0
    7.5605  -16.0383   21.6791 O   0  0  0  0  0  0  0  0  0  0  0  0
   10.6778  -17.8376   24.9905 O   0  0  0  0  0  0  0  0  0  0  0  0
    9.2856  -17.8721   24.9515 C   0  0  0  0  0  0  0  0  0  0  0  0
    8.7573  -16.7426   24.0562 C   0  0  2  0  0  0  0  0  0  0  0  0
    9.3604  -16.9241   22.7677 N   0  0  0  0  0  0  0  0  0  0  0  0
    9.1266  -15.4800   24.7081 C   0  0  0  0  0  0  0  0  0  0  0  0
   10.1068  -14.7631   24.3918 O   0  0  0  0  0  0  0  0  0  0  0  0
    7.5096  -11.7172   27.3840 C   0  0  0  0  0  0  0  0  0  0  0  0
    7.2934  -12.9780   26.6017 C   0  0  1  0  0  0  0  0  0  0  0  0
    6.9245  -12.6104   25.3069 O   0  0  0  0  0  0  0  0  0  0  0  0
    8.5800  -13.7955   26.4892 C   0  0  2  0  0  0  0  0  0  0  0  0
    8.3111  -15.0301   25.7842 N   0  0  0  0  0  0  0  0  0  0  0  0
    8.9878  -14.1275   27.8708 C   0  0  0  0  0  0  0  0  0  0  0  0
    9.5327  -13.1560   28.6889 O   0  0  0  0  0  0  0  0  0  0  0  0
    8.8353  -15.2896   28.2884 O   0  0  0  0  0  0  0  0  0  0  0  0
  2  1  1  0
  2  3  2  0
  4  2  1  0
  5  4  1  0
  6  5  1  0
  6  7  1  1
  8  6  1  0
  8 13  1  0
  9  8  2  0
 10 11  1  0
 12 11  1  1
 12 13  1  0
 12 14  1  0
 14 15  2  0
 14 20  1  0
 17 16  1  1
 17 18  1  0
 19 21  1  0
 19 17  1  0
 19 20  1  6
 21 22  1  0
 23 21  2  0
M  END
$$$$
