QST.pdb
     RDKit          3D

 23 22  0  0  1  0  0  0  0  0999 V2000
   14.7768  -14.6277   20.6890 N   0  0  0  0  0  0  0  0  0  0  0  0
   13.9954  -14.8002   19.5151 C   0  0  0  0  0  0  0  0  0  0  0  0
   14.3073  -15.7157   18.7315 O   0  0  0  0  0  0  0  0  0  0  0  0
   12.8629  -13.9170   19.2468 C   0  0  0  0  0  0  0  0  0  0  0  0
   11.7495  -13.9250   20.2486 C   0  0  0  0  0  0  0  0  0  0  0  0
   10.8485  -15.0975   20.1420 C   0  0  2  0  0  0  0  0  0  0  0  0
    9.9838  -15.0464   19.0226 N   0  0  0  0  0  0  0  0  0  0  0  0
   10.0209  -15.3016   21.3633 C   0  0  0  0  0  0  0  0  0  0  0  0
    8.8932  -14.7603   21.4906 O   0  0  0  0  0  0  0  0  0  0  0  0
   10.6755  -18.4173   23.9090 O   0  0  0  0  0  0  0  0  0  0  0  0
    9.4629  -17.7316   23.8933 C   0  0  0  0  0  0  0  0  0  0  0  0
    9.7099  -16.2331   23.6703 C   0  0  2  0  0  0  0  0  0  0  0  0
   10.4568  -16.1173   22.4514 N   0  0  0  0  0  0  0  0  0  0  0  0
   10.4301  -15.7438   24.8524 C   0  0  0  0  0  0  0  0  0  0  0  0
   11.6624  -15.5121   24.9033 O   0  0  0  0  0  0  0  0  0  0  0  0
    9.3969  -12.6933   27.1146 C   0  0  0  0  0  0  0  0  0  0  0  0
    9.3844  -13.9728   27.8961 C   0  0  1  0  0  0  0  0  0  0  0  0
    8.0807  -14.4699   27.8668 O   0  0  0  0  0  0  0  0  0  0  0  0
   10.2844  -15.0294   27.2560 C   0  0  2  0  0  0  0  0  0  0  0  0
    9.6746  -15.5129   26.0362 N   0  0  0  0  0  0  0  0  0  0  0  0
   10.3607  -16.1518   28.2150 C   0  0  0  0  0  0  0  0  0  0  0  0
   11.0471  -16.0056   29.4057 O   0  0  0  0  0  0  0  0  0  0  0  0
    9.8010  -17.2282   27.9390 O   0  0  0  0  0  0  0  0  0  0  0  0
  2  1  1  0
  2  3  2  0
  4  2  1  0
  5  4  1  0
  6  5  1  0
  6  7  1  6
  8  6  1  0
  8 13  1  0
  9  8  2  0
 10 11  1  0
 12 11  1  1
 12 13  1  0
 12 14  1  0
 14 15  2  0
 14 20  1  0
 17 16  1  6
 17 18  1  0
 19 21  1  0
 19 17  1  0
 19 20  1  6
 21 22  1  0
 23 21  2  0
M  END
$$$$
