QST.pdb
     RDKit          3D

 23 22  0  0  1  0  0  0  0  0999 V2000
    6.6110  -19.9619   19.5274 N   0  0  0  0  0  0  0  0  0  0  0  0
    6.4564  -20.2534   18.1456 C   0  0  0  0  0  0  0  0  0  0  0  0
    5.4046  -20.8075   17.7765 O   0  0  0  0  0  0  0  0  0  0  0  0
    7.5132  -19.9102   17.1968 C   0  0  0  0  0  0  0  0  0  0  0  0
    8.6872  -19.1549   17.7394 C   0  0  0  0  0  0  0  0  0  0  0  0
    8.5503  -17.6812   17.6533 C   0  0  2  0  0  0  0  0  0  0  0  0
    9.0464  -17.1368   16.4446 N   0  0  0  0  0  0  0  0  0  0  0  0
    9.2056  -16.9739   18.7884 C   0  0  0  0  0  0  0  0  0  0  0  0
   10.4558  -16.9643   18.9225 O   0  0  0  0  0  0  0  0  0  0  0  0
    6.9605  -15.5404   22.0132 O   0  0  0  0  0  0  0  0  0  0  0  0
    8.0109  -14.7472   21.5565 C   0  0  0  0  0  0  0  0  0  0  0  0
    9.0844  -15.6253   20.8986 C   0  0  2  0  0  0  0  0  0  0  0  0
    8.4580  -16.2717   19.7820 N   0  0  0  0  0  0  0  0  0  0  0  0
    9.5579  -16.5567   21.9301 C   0  0  0  0  0  0  0  0  0  0  0  0
    9.1986  -17.7538   22.0427 O   0  0  0  0  0  0  0  0  0  0  0  0
   13.2103  -17.4648   25.0847 C   0  0  0  0  0  0  0  0  0  0  0  0
   12.5828  -16.6753   23.9753 C   0  0  1  0  0  0  0  0  0  0  0  0
   13.1331  -17.1274   22.7751 O   0  0  0  0  0  0  0  0  0  0  0  0
   11.0753  -16.9160   23.8991 C   0  0  2  0  0  0  0  0  0  0  0  0
   10.4986  -16.0670   22.8792 N   0  0  0  0  0  0  0  0  0  0  0  0
   10.5199  -16.5135   25.2086 C   0  0  0  0  0  0  0  0  0  0  0  0
   10.3205  -17.4555   26.2001 O   0  0  0  0  0  0  0  0  0  0  0  0
   10.2342  -15.3190   25.4082 O   0  0  0  0  0  0  0  0  0  0  0  0
  2  1  1  0
  2  3  2  0
  4  2  1  0
  5  4  1  0
  6  5  1  0
  6  7  1  6
  8  6  1  0
  8 13  1  0
  9  8  2  0
 10 11  1  0
 12 11  1  1
 12 13  1  0
 12 14  1  0
 14 15  2  0
 14 20  1  0
 17 16  1  1
 17 18  1  0
 19 21  1  0
 19 17  1  0
 19 20  1  6
 21 22  1  0
 23 21  2  0
M  END
$$$$
