QST.pdb
     RDKit          3D

 23 22  0  0  1  0  0  0  0  0999 V2000
   16.7651  -17.8704   16.9673 N   0  0  0  0  0  0  0  0  0  0  0  0
   16.2831  -18.0567   15.6439 C   0  0  0  0  0  0  0  0  0  0  0  0
   17.1163  -18.2056   14.7312 O   0  0  0  0  0  0  0  0  0  0  0  0
   14.8467  -18.0666   15.3767 C   0  0  0  0  0  0  0  0  0  0  0  0
   14.0185  -19.0233   16.1780 C   0  0  0  0  0  0  0  0  0  0  0  0
   12.6639  -18.5200   16.5092 C   0  0  2  0  0  0  0  0  0  0  0  0
   12.2808  -17.3870   15.7523 N   0  0  0  0  0  0  0  0  0  0  0  0
   12.5079  -18.1919   17.9536 C   0  0  0  0  0  0  0  0  0  0  0  0
   13.2492  -17.3486   18.5194 O   0  0  0  0  0  0  0  0  0  0  0  0
    9.1041  -19.2626   19.9769 O   0  0  0  0  0  0  0  0  0  0  0  0
    9.8911  -18.1944   20.4017 C   0  0  0  0  0  0  0  0  0  0  0  0
   11.3751  -18.5098   20.1677 C   0  0  2  0  0  0  0  0  0  0  0  0
   11.5154  -18.8113   18.7725 N   0  0  0  0  0  0  0  0  0  0  0  0
   11.7119  -19.6332   21.0509 C   0  0  0  0  0  0  0  0  0  0  0  0
   11.5504  -20.8459   20.7713 O   0  0  0  0  0  0  0  0  0  0  0  0
   14.9725  -20.5733   22.4332 C   0  0  0  0  0  0  0  0  0  0  0  0
   14.1114  -20.2450   23.6159 C   0  0  1  0  0  0  0  0  0  0  0  0
   14.3565  -18.9141   23.9570 O   0  0  0  0  0  0  0  0  0  0  0  0
   12.6255  -20.3571   23.2758 C   0  0  2  0  0  0  0  0  0  0  0  0
   12.2654  -19.3268   22.3258 N   0  0  0  0  0  0  0  0  0  0  0  0
   11.8879  -20.1097   24.5328 C   0  0  0  0  0  0  0  0  0  0  0  0
   11.8532  -21.0745   25.5217 O   0  0  0  0  0  0  0  0  0  0  0  0
   11.2995  -19.0247   24.6905 O   0  0  0  0  0  0  0  0  0  0  0  0
  2  1  1  0
  2  3  2  0
  4  2  1  0
  5  4  1  0
  6  5  1  0
  6  7  1  6
  8  6  1  0
  8 13  1  0
  9  8  2  0
 10 11  1  0
 12 11  1  6
 12 13  1  0
 12 14  1  0
 14 15  2  0
 14 20  1  0
 17 16  1  6
 17 18  1  0
 19 21  1  0
 19 17  1  0
 19 20  1  6
 21 22  1  0
 23 21  2  0
M  END
$$$$
