QST.pdb
     RDKit          3D

 23 22  0  0  1  0  0  0  0  0999 V2000
    9.2540  -13.3121   15.6017 N   0  0  0  0  0  0  0  0  0  0  0  0
    8.1943  -13.8873   16.3531 C   0  0  0  0  0  0  0  0  0  0  0  0
    7.6776  -14.9379   15.9303 O   0  0  0  0  0  0  0  0  0  0  0  0
    7.7320  -13.2494   17.5836 C   0  0  0  0  0  0  0  0  0  0  0  0
    8.6583  -13.3021   18.7594 C   0  0  0  0  0  0  0  0  0  0  0  0
    8.6346  -14.5916   19.4906 C   0  0  2  0  0  0  0  0  0  0  0  0
    7.3586  -15.2034   19.5172 N   0  0  0  0  0  0  0  0  0  0  0  0
    9.1237  -14.4688   20.8920 C   0  0  0  0  0  0  0  0  0  0  0  0
   10.2356  -13.9446   21.1562 O   0  0  0  0  0  0  0  0  0  0  0  0
    6.7123  -15.4656   24.1603 O   0  0  0  0  0  0  0  0  0  0  0  0
    7.8158  -14.6275   24.3048 C   0  0  0  0  0  0  0  0  0  0  0  0
    8.9220  -15.0421   23.3245 C   0  0  2  0  0  0  0  0  0  0  0  0
    8.3641  -14.9356   22.0076 N   0  0  0  0  0  0  0  0  0  0  0  0
    9.3183  -16.4080   23.6889 C   0  0  0  0  0  0  0  0  0  0  0  0
    8.8422  -17.4561   23.1893 O   0  0  0  0  0  0  0  0  0  0  0  0
   12.8921  -19.2538   25.2457 C   0  0  0  0  0  0  0  0  0  0  0  0
   12.3223  -17.9365   24.8118 C   0  0  1  0  0  0  0  0  0  0  0  0
   12.4951  -17.8389   23.4304 O   0  0  0  0  0  0  0  0  0  0  0  0
   10.8204  -17.8580   25.0851 C   0  0  2  0  0  0  0  0  0  0  0  0
   10.3213  -16.5596   24.6871 N   0  0  0  0  0  0  0  0  0  0  0  0
   10.6529  -17.9929   26.5476 C   0  0  0  0  0  0  0  0  0  0  0  0
   10.4636  -16.8720   27.3336 O   0  0  0  0  0  0  0  0  0  0  0  0
   10.6842  -19.1252   27.0626 O   0  0  0  0  0  0  0  0  0  0  0  0
  2  1  1  0
  2  3  2  0
  4  2  1  0
  5  4  1  0
  6  5  1  0
  6  7  1  1
  8  6  1  0
  8 13  1  0
  9  8  2  0
 10 11  1  0
 12 11  1  1
 12 13  1  0
 12 14  1  0
 14 15  2  0
 14 20  1  0
 17 16  1  6
 17 18  1  0
 19 21  1  0
 19 17  1  0
 19 20  1  1
 21 22  1  0
 23 21  2  0
M  END
$$$$
