QST.pdb
     RDKit          3D

 23 22  0  0  1  0  0  0  0  0999 V2000
    5.6410  -18.8563   13.5146 N   0  0  0  0  0  0  0  0  0  0  0  0
    5.2162  -18.7293   14.8643 C   0  0  0  0  0  0  0  0  0  0  0  0
    4.1775  -18.0832   15.0946 O   0  0  0  0  0  0  0  0  0  0  0  0
    5.9899  -19.3421   15.9417 C   0  0  0  0  0  0  0  0  0  0  0  0
    6.8722  -18.4322   16.7399 C   0  0  0  0  0  0  0  0  0  0  0  0
    8.1398  -19.0579   17.1867 C   0  0  2  0  0  0  0  0  0  0  0  0
    8.4323  -20.2759   16.5278 N   0  0  0  0  0  0  0  0  0  0  0  0
    8.1767  -19.3002   18.6557 C   0  0  0  0  0  0  0  0  0  0  0  0
    8.0332  -18.3618   19.4801 O   0  0  0  0  0  0  0  0  0  0  0  0
    8.8287  -23.1756   20.2840 O   0  0  0  0  0  0  0  0  0  0  0  0
    7.8987  -22.2882   20.8213 C   0  0  0  0  0  0  0  0  0  0  0  0
    8.3760  -20.8430   20.6221 C   0  0  2  0  0  0  0  0  0  0  0  0
    8.3756  -20.6019   19.2083 N   0  0  0  0  0  0  0  0  0  0  0  0
    9.7063  -20.7497   21.2363 C   0  0  0  0  0  0  0  0  0  0  0  0
   10.7681  -20.4821   20.6232 O   0  0  0  0  0  0  0  0  0  0  0  0
   12.3166  -19.0624   24.6536 C   0  0  0  0  0  0  0  0  0  0  0  0
   11.2568  -19.2951   23.6187 C   0  0  1  0  0  0  0  0  0  0  0  0
   11.7081  -18.7353   22.4226 O   0  0  0  0  0  0  0  0  0  0  0  0
   11.0392  -20.7865   23.3648 C   0  0  2  0  0  0  0  0  0  0  0  0
    9.8036  -20.9804   22.6372 N   0  0  0  0  0  0  0  0  0  0  0  0
   10.9024  -21.4222   24.6924 C   0  0  0  0  0  0  0  0  0  0  0  0
   11.9875  -22.0409   25.2839 O   0  0  0  0  0  0  0  0  0  0  0  0
    9.8010  -21.3941   25.2708 O   0  0  0  0  0  0  0  0  0  0  0  0
  2  1  1  0
  2  3  2  0
  4  2  1  0
  5  4  1  0
  6  5  1  0
  6  7  1  6
  8  6  1  0
  8 13  1  0
  9  8  2  0
 10 11  1  0
 12 11  1  6
 12 13  1  0
 12 14  1  0
 14 15  2  0
 14 20  1  0
 17 16  1  1
 17 18  1  0
 19 21  1  0
 19 17  1  0
 19 20  1  6
 21 22  1  0
 23 21  2  0
M  END
$$$$
