QST.pdb
     RDKit          3D

 23 22  0  0  1  0  0  0  0  0999 V2000
    8.0123  -12.4884   16.7717 N   0  0  0  0  0  0  0  0  0  0  0  0
    8.0010  -13.7994   16.2243 C   0  0  0  0  0  0  0  0  0  0  0  0
    7.4546  -13.9694   15.1189 O   0  0  0  0  0  0  0  0  0  0  0  0
    8.6141  -14.9078   16.9525 C   0  0  0  0  0  0  0  0  0  0  0  0
    9.1568  -14.6015   18.3145 C   0  0  0  0  0  0  0  0  0  0  0  0
    8.8790  -15.6494   19.3259 C   0  0  2  0  0  0  0  0  0  0  0  0
    7.5056  -15.9700   19.4455 N   0  0  0  0  0  0  0  0  0  0  0  0
    9.3966  -15.2979   20.6774 C   0  0  0  0  0  0  0  0  0  0  0  0
   10.5991  -14.9779   20.8575 O   0  0  0  0  0  0  0  0  0  0  0  0
    6.8723  -14.8691   24.0211 O   0  0  0  0  0  0  0  0  0  0  0  0
    8.1222  -14.2603   23.9324 C   0  0  0  0  0  0  0  0  0  0  0  0
    9.0939  -15.1659   23.1629 C   0  0  2  0  0  0  0  0  0  0  0  0
    8.5637  -15.3040   21.8374 N   0  0  0  0  0  0  0  0  0  0  0  0
    9.1676  -16.4313   23.9038 C   0  0  0  0  0  0  0  0  0  0  0  0
    8.2676  -17.3052   23.9326 O   0  0  0  0  0  0  0  0  0  0  0  0
   11.2231  -19.2003   23.2982 C   0  0  0  0  0  0  0  0  0  0  0  0
   11.6552  -18.7443   24.6596 C   0  0  1  0  0  0  0  0  0  0  0  0
   12.7482  -17.8933   24.4899 O   0  0  0  0  0  0  0  0  0  0  0  0
   10.5589  -17.9372   25.3546 C   0  0  2  0  0  0  0  0  0  0  0  0
   10.3517  -16.6910   24.6493 N   0  0  0  0  0  0  0  0  0  0  0  0
   11.0617  -17.6273   26.7097 C   0  0  0  0  0  0  0  0  0  0  0  0
   11.1609  -18.6248   27.6612 O   0  0  0  0  0  0  0  0  0  0  0  0
   11.3943  -16.4601   26.9841 O   0  0  0  0  0  0  0  0  0  0  0  0
  2  1  1  0
  2  3  2  0
  4  2  1  0
  5  4  1  0
  6  5  1  0
  6  7  1  1
  8  6  1  0
  8 13  1  0
  9  8  2  0
 10 11  1  0
 12 11  1  1
 12 13  1  0
 12 14  1  0
 14 15  2  0
 14 20  1  0
 17 16  1  6
 17 18  1  0
 19 21  1  0
 19 17  1  0
 19 20  1  6
 21 22  1  0
 23 21  2  0
M  END
$$$$
