QST.pdb
     RDKit          3D

 23 22  0  0  1  0  0  0  0  0999 V2000
    7.0610  -23.0775   19.2345 N   0  0  0  0  0  0  0  0  0  0  0  0
    7.3499  -21.7183   18.9386 C   0  0  0  0  0  0  0  0  0  0  0  0
    8.4747  -21.4431   18.4821 O   0  0  0  0  0  0  0  0  0  0  0  0
    6.3459  -20.6831   19.1732 C   0  0  0  0  0  0  0  0  0  0  0  0
    5.9169  -20.4690   20.5922 C   0  0  0  0  0  0  0  0  0  0  0  0
    5.7753  -19.0431   20.9726 C   0  0  2  0  0  0  0  0  0  0  0  0
    5.5902  -18.1786   19.8673 N   0  0  0  0  0  0  0  0  0  0  0  0
    6.9289  -18.5419   21.7702 C   0  0  0  0  0  0  0  0  0  0  0  0
    8.0336  -18.2760   21.2319 O   0  0  0  0  0  0  0  0  0  0  0  0
    6.3223  -17.4148   25.6273 O   0  0  0  0  0  0  0  0  0  0  0  0
    7.4478  -16.9023   24.9857 C   0  0  0  0  0  0  0  0  0  0  0  0
    7.9754  -17.9163   23.9611 C   0  0  2  0  0  0  0  0  0  0  0  0
    6.8475  -18.3361   23.1810 N   0  0  0  0  0  0  0  0  0  0  0  0
    8.6010  -19.0022   24.7260 C   0  0  0  0  0  0  0  0  0  0  0  0
    8.0729  -20.1153   24.9646 O   0  0  0  0  0  0  0  0  0  0  0  0
   12.9535  -20.8287   26.0832 C   0  0  0  0  0  0  0  0  0  0  0  0
   12.1218  -19.7734   25.4178 C   0  0  1  0  0  0  0  0  0  0  0  0
   12.1186  -20.0429   24.0484 O   0  0  0  0  0  0  0  0  0  0  0  0
   10.6691  -19.8237   25.8906 C   0  0  2  0  0  0  0  0  0  0  0  0
    9.9095  -18.7787   25.2390 N   0  0  0  0  0  0  0  0  0  0  0  0
   10.6911  -19.5469   27.3426 C   0  0  0  0  0  0  0  0  0  0  0  0
   10.7887  -20.5860   28.2486 O   0  0  0  0  0  0  0  0  0  0  0  0
   10.6210  -18.3697   27.7396 O   0  0  0  0  0  0  0  0  0  0  0  0
  2  1  1  0
  2  3  2  0
  4  2  1  0
  5  4  1  0
  6  5  1  0
  6  7  1  6
  8  6  1  0
  8 13  1  0
  9  8  2  0
 10 11  1  0
 12 11  1  1
 12 13  1  0
 12 14  1  0
 14 15  2  0
 14 20  1  0
 17 16  1  1
 17 18  1  0
 19 21  1  0
 19 17  1  0
 19 20  1  6
 21 22  1  0
 23 21  2  0
M  END
$$$$
