QST.pdb
     RDKit          3D

 23 22  0  0  1  0  0  0  0  0999 V2000
    5.2572  -19.2829   19.0483 N   0  0  0  0  0  0  0  0  0  0  0  0
    6.0620  -19.2873   17.8776 C   0  0  0  0  0  0  0  0  0  0  0  0
    5.5783  -19.7642   16.8345 O   0  0  0  0  0  0  0  0  0  0  0  0
    7.4192  -18.7474   17.9136 C   0  0  0  0  0  0  0  0  0  0  0  0
    7.8573  -18.1099   19.1962 C   0  0  0  0  0  0  0  0  0  0  0  0
    8.4160  -16.7463   19.0337 C   0  0  2  0  0  0  0  0  0  0  0  0
    9.2320  -16.6024   17.8862 N   0  0  0  0  0  0  0  0  0  0  0  0
    9.1952  -16.2972   20.2208 C   0  0  0  0  0  0  0  0  0  0  0  0
   10.4394  -16.4640   20.2913 O   0  0  0  0  0  0  0  0  0  0  0  0
    7.1688  -15.0169   23.6643 O   0  0  0  0  0  0  0  0  0  0  0  0
    8.4202  -14.4667   23.3957 C   0  0  0  0  0  0  0  0  0  0  0  0
    9.2653  -15.4566   22.5820 C   0  0  2  0  0  0  0  0  0  0  0  0
    8.5791  -15.6564   21.3385 N   0  0  0  0  0  0  0  0  0  0  0  0
    9.3847  -16.6750   23.3925 C   0  0  0  0  0  0  0  0  0  0  0  0
    8.5480  -17.6098   23.4195 O   0  0  0  0  0  0  0  0  0  0  0  0
   11.9850  -19.2202   23.1863 C   0  0  0  0  0  0  0  0  0  0  0  0
   12.0935  -18.6472   24.5676 C   0  0  1  0  0  0  0  0  0  0  0  0
   13.0618  -17.6429   24.5306 O   0  0  0  0  0  0  0  0  0  0  0  0
   10.7835  -17.9946   25.0083 C   0  0  2  0  0  0  0  0  0  0  0  0
   10.5392  -16.8103   24.2136 N   0  0  0  0  0  0  0  0  0  0  0  0
   10.9737  -17.5805   26.4146 C   0  0  0  0  0  0  0  0  0  0  0  0
   11.0493  -18.5298   27.4163 O   0  0  0  0  0  0  0  0  0  0  0  0
   11.0649  -16.3697   26.6862 O   0  0  0  0  0  0  0  0  0  0  0  0
  2  1  1  0
  2  3  2  0
  4  2  1  0
  5  4  1  0
  6  5  1  0
  6  7  1  6
  8  6  1  0
  8 13  1  0
  9  8  2  0
 10 11  1  0
 12 11  1  1
 12 13  1  0
 12 14  1  0
 14 15  2  0
 14 20  1  0
 17 16  1  6
 17 18  1  0
 19 21  1  0
 19 17  1  0
 19 20  1  6
 21 22  1  0
 23 21  2  0
M  END
$$$$
