ACY.pdb
     RDKit          3D

 24 24  0  0  1  0  0  0  0  0999 V2000
    7.0314  -20.3842   18.8296 C   0  0  0  0  0  0  0  0  0  0  0  0
    5.9010  -20.5851   19.8211 C   0  0  2  0  0  0  0  0  0  0  0  0
    4.6446  -20.6267   19.0880 N   0  0  0  0  0  0  0  0  0  0  0  0
    5.8954  -19.4879   20.8264 C   0  0  0  0  0  0  0  0  0  0  0  0
    5.3352  -18.4077   20.5832 O   0  0  0  0  0  0  0  0  0  0  0  0
    6.5366  -19.6798   22.0742 N   0  0  0  0  0  0  0  0  0  0  0  0
    6.5125  -18.7392   23.1475 C   0  0  1  0  0  0  0  0  0  0  0  0
    6.3499  -19.4190   24.4984 C   0  0  0  0  0  0  0  0  0  0  0  0
    7.8041  -20.5240   24.6846 S   0  0  0  0  0  0  0  0  0  0  0  0
    7.7492  -17.9241   23.2374 C   0  0  0  0  0  0  0  0  0  0  0  0
    8.8482  -18.4190   22.8671 O   0  0  0  0  0  0  0  0  0  0  0  0
    7.2885  -13.3472   18.0271 O   0  0  0  0  0  0  0  0  0  0  0  0
    7.6454  -13.6003   19.3539 C   0  0  0  0  0  0  0  0  0  0  0  0
    6.7063  -13.7237   20.3526 C   0  0  0  0  0  0  0  0  0  0  0  0
    7.0461  -13.9737   21.6662 C   0  0  0  0  0  0  0  0  0  0  0  0
    8.3695  -14.1127   22.0396 C   0  0  0  0  0  0  0  0  0  0  0  0
    8.7215  -14.3686   23.4304 C   0  0  0  0  0  0  0  0  0  0  0  0
    9.0017  -15.7870   23.7750 C   0  0  2  0  0  0  0  0  0  0  0  0
    7.7754  -16.5886   23.7260 N   0  0  0  0  0  0  0  0  0  0  0  0
    9.6339  -15.8748   25.1077 C   0  0  0  0  0  0  0  0  0  0  0  0
   10.9577  -15.4477   25.3049 O   0  0  0  0  0  0  0  0  0  0  0  0
    9.3108  -13.9865   21.0234 C   0  0  0  0  0  0  0  0  0  0  0  0
    8.9655  -13.7379   19.7185 C   0  0  0  0  0  0  0  0  0  0  0  0
    9.0272  -16.3238   26.0928 O   0  0  0  0  0  0  0  0  0  0  0  0
  2  1  1  6
  2  4  1  0
  3  2  1  0
  4  6  1  0
  4  5  2  0
  6  7  1  0
  7 10  1  0
  7  8  1  1
  8  9  1  0
 10 11  2  0
 12 13  1  0
 13 23  2  0
 14 13  1  0
 14 15  2  0
 15 16  1  0
 16 22  2  0
 16 17  1  0
 18 17  1  1
 18 20  1  0
 19 10  1  0
 19 18  1  0
 20 21  1  0
 23 22  1  0
 24 20  2  0
M  END
$$$$
