ACY.pdb
     RDKit          3D

 24 24  0  0  1  0  0  0  0  0999 V2000
    8.0940  -20.5835   20.7356 C   0  0  0  0  0  0  0  0  0  0  0  0
    7.2990  -19.3117   20.5087 C   0  0  2  0  0  0  0  0  0  0  0  0
    6.5362  -19.4563   19.2778 N   0  0  0  0  0  0  0  0  0  0  0  0
    8.2118  -18.1387   20.4351 C   0  0  0  0  0  0  0  0  0  0  0  0
    9.4116  -18.2853   20.1546 O   0  0  0  0  0  0  0  0  0  0  0  0
    7.7044  -16.8412   20.6881 N   0  0  0  0  0  0  0  0  0  0  0  0
    8.4838  -15.6463   20.6419 C   0  0  1  0  0  0  0  0  0  0  0  0
    7.6417  -14.4291   20.2914 C   0  0  0  0  0  0  0  0  0  0  0  0
    6.2238  -14.4447   21.4575 S   0  0  0  0  0  0  0  0  0  0  0  0
    9.1513  -15.3343   21.9298 C   0  0  0  0  0  0  0  0  0  0  0  0
   10.0017  -14.4046   21.9801 O   0  0  0  0  0  0  0  0  0  0  0  0
   10.9048  -14.6050   30.6205 O   0  0  0  0  0  0  0  0  0  0  0  0
   10.3397  -14.8258   29.3621 C   0  0  0  0  0  0  0  0  0  0  0  0
   10.0493  -16.0905   28.9030 C   0  0  0  0  0  0  0  0  0  0  0  0
    9.4913  -16.3215   27.6624 C   0  0  0  0  0  0  0  0  0  0  0  0
    9.1959  -15.2713   26.8138 C   0  0  0  0  0  0  0  0  0  0  0  0
    8.6140  -15.5233   25.5018 C   0  0  0  0  0  0  0  0  0  0  0  0
    9.5837  -15.7341   24.3952 C   0  0  2  0  0  0  0  0  0  0  0  0
    8.8875  -16.0328   23.1403 N   0  0  0  0  0  0  0  0  0  0  0  0
   10.5290  -16.8156   24.7420 C   0  0  0  0  0  0  0  0  0  0  0  0
   11.7950  -16.5204   25.2746 O   0  0  0  0  0  0  0  0  0  0  0  0
    9.4928  -13.9974   27.2868 C   0  0  0  0  0  0  0  0  0  0  0  0
   10.0478  -13.7751   28.5223 C   0  0  0  0  0  0  0  0  0  0  0  0
   10.2446  -18.0125   24.5781 O   0  0  0  0  0  0  0  0  0  0  0  0
  2  1  1  6
  2  4  1  0
  3  2  1  0
  4  6  1  0
  4  5  2  0
  6  7  1  0
  7 10  1  0
  7  8  1  1
  8  9  1  0
 10 11  2  0
 12 13  1  0
 13 23  2  0
 14 13  1  0
 14 15  2  0
 15 16  1  0
 16 22  2  0
 16 17  1  0
 18 17  1  1
 18 20  1  0
 19 10  1  0
 19 18  1  0
 20 21  1  0
 23 22  1  0
 24 20  2  0
M  END
$$$$
