ACY.pdb
     RDKit          3D

 24 24  0  0  1  0  0  0  0  0999 V2000
    8.2995  -12.1589   20.4538 C   0  0  0  0  0  0  0  0  0  0  0  0
    8.2534  -13.4858   19.7201 C   0  0  2  0  0  0  0  0  0  0  0  0
    7.1630  -13.4444   18.7573 N   0  0  0  0  0  0  0  0  0  0  0  0
    8.0697  -14.6032   20.6855 C   0  0  0  0  0  0  0  0  0  0  0  0
    6.9341  -14.9499   21.0457 O   0  0  0  0  0  0  0  0  0  0  0  0
    9.2043  -15.2778   21.1982 N   0  0  0  0  0  0  0  0  0  0  0  0
    9.1472  -16.3958   22.0836 C   0  0  1  0  0  0  0  0  0  0  0  0
    9.9641  -17.5719   21.5710 C   0  0  0  0  0  0  0  0  0  0  0  0
    8.8431  -18.5224   20.4707 S   0  0  0  0  0  0  0  0  0  0  0  0
    9.6616  -16.0918   23.4419 C   0  0  0  0  0  0  0  0  0  0  0  0
   10.7969  -15.5587   23.5717 O   0  0  0  0  0  0  0  0  0  0  0  0
    5.5676  -10.9110   25.8892 O   0  0  0  0  0  0  0  0  0  0  0  0
    6.2623  -12.0965   26.1419 C   0  0  0  0  0  0  0  0  0  0  0  0
    5.7610  -13.3276   25.7849 C   0  0  0  0  0  0  0  0  0  0  0  0
    6.4373  -14.5052   26.0288 C   0  0  0  0  0  0  0  0  0  0  0  0
    7.6698  -14.4958   26.6541 C   0  0  0  0  0  0  0  0  0  0  0  0
    8.3747  -15.7441   26.9158 C   0  0  0  0  0  0  0  0  0  0  0  0
    9.4714  -16.0769   25.9694 C   0  0  2  0  0  0  0  0  0  0  0  0
    8.9394  -16.3695   24.6353 N   0  0  0  0  0  0  0  0  0  0  0  0
   10.2615  -17.2157   26.4815 C   0  0  0  0  0  0  0  0  0  0  0  0
   10.2995  -18.4352   25.7851 O   0  0  0  0  0  0  0  0  0  0  0  0
    8.1679  -13.2471   27.0108 C   0  0  0  0  0  0  0  0  0  0  0  0
    7.4895  -12.0795   26.7648 C   0  0  0  0  0  0  0  0  0  0  0  0
   10.9144  -17.1400   27.5342 O   0  0  0  0  0  0  0  0  0  0  0  0
  2  1  1  1
  2  4  1  0
  3  2  1  0
  4  6  1  0
  4  5  2  0
  6  7  1  0
  7 10  1  0
  7  8  1  6
  8  9  1  0
 10 11  2  0
 12 13  1  0
 13 23  2  0
 14 13  1  0
 14 15  2  0
 15 16  1  0
 16 22  2  0
 16 17  1  0
 18 17  1  1
 18 20  1  0
 19 10  1  0
 19 18  1  0
 20 21  1  0
 23 22  1  0
 24 20  2  0
M  END
$$$$
