ACY.pdb
     RDKit          3D

 24 24  0  0  1  0  0  0  0  0999 V2000
    2.0759  -23.2274   22.9134 C   0  0  0  0  0  0  0  0  0  0  0  0
    2.3109  -21.8615   23.5300 C   0  0  2  0  0  0  0  0  0  0  0  0
    1.2966  -20.9466   23.0281 N   0  0  0  0  0  0  0  0  0  0  0  0
    3.6778  -21.3747   23.2002 C   0  0  0  0  0  0  0  0  0  0  0  0
    4.6701  -22.0961   23.3863 O   0  0  0  0  0  0  0  0  0  0  0  0
    3.8469  -20.0735   22.6678 N   0  0  0  0  0  0  0  0  0  0  0  0
    5.1052  -19.5086   22.3005 C   0  0  1  0  0  0  0  0  0  0  0  0
    5.0343  -18.7734   20.9709 C   0  0  0  0  0  0  0  0  0  0  0  0
    3.5474  -17.7009   21.0670 S   0  0  0  0  0  0  0  0  0  0  0  0
    5.6173  -18.5297   23.2911 C   0  0  0  0  0  0  0  0  0  0  0  0
    4.8242  -17.6986   23.8109 O   0  0  0  0  0  0  0  0  0  0  0  0
    7.9598  -21.9813   29.3043 O   0  0  0  0  0  0  0  0  0  0  0  0
    7.6475  -20.9009   28.4755 C   0  0  0  0  0  0  0  0  0  0  0  0
    8.4000  -19.7484   28.4623 C   0  0  0  0  0  0  0  0  0  0  0  0
    8.1019  -18.6748   27.6485 C   0  0  0  0  0  0  0  0  0  0  0  0
    7.0140  -18.7142   26.7970 C   0  0  0  0  0  0  0  0  0  0  0  0
    6.7006  -17.5735   25.9461 C   0  0  0  0  0  0  0  0  0  0  0  0
    7.4665  -17.4861   24.6753 C   0  0  2  0  0  0  0  0  0  0  0  0
    6.9775  -18.4670   23.7021 N   0  0  0  0  0  0  0  0  0  0  0  0
    8.9091  -17.6758   24.9330 C   0  0  0  0  0  0  0  0  0  0  0  0
    9.5859  -18.8025   24.4370 O   0  0  0  0  0  0  0  0  0  0  0  0
    6.2602  -19.8829   26.8174 C   0  0  0  0  0  0  0  0  0  0  0  0
    6.5627  -20.9472   27.6297 C   0  0  0  0  0  0  0  0  0  0  0  0
    9.5709  -16.8569   25.5900 O   0  0  0  0  0  0  0  0  0  0  0  0
  2  1  1  6
  2  4  1  0
  3  2  1  0
  4  6  1  0
  4  5  2  0
  6  7  1  0
  7 10  1  0
  7  8  1  6
  8  9  1  0
 10 11  2  0
 12 13  1  0
 13 23  2  0
 14 13  1  0
 14 15  2  0
 15 16  1  0
 16 22  2  0
 16 17  1  0
 18 17  1  1
 18 20  1  0
 19 10  1  0
 19 18  1  0
 20 21  1  0
 23 22  1  0
 24 20  2  0
M  END
$$$$
