ACY.pdb
     RDKit          3D

 24 24  0  0  1  0  0  0  0  0999 V2000
    7.1933  -16.8939   19.5156 C   0  0  0  0  0  0  0  0  0  0  0  0
    7.6110  -17.1255   20.9555 C   0  0  2  0  0  0  0  0  0  0  0  0
    6.4785  -17.6791   21.6825 N   0  0  0  0  0  0  0  0  0  0  0  0
    8.0680  -15.8504   21.5716 C   0  0  0  0  0  0  0  0  0  0  0  0
    9.2038  -15.4065   21.3426 O   0  0  0  0  0  0  0  0  0  0  0  0
    7.1958  -15.1362   22.4286 N   0  0  0  0  0  0  0  0  0  0  0  0
    7.5015  -13.8749   23.0228 C   0  0  1  0  0  0  0  0  0  0  0  0
    6.2572  -13.1745   23.5468 C   0  0  0  0  0  0  0  0  0  0  0  0
    5.8312  -14.0157   25.1220 S   0  0  0  0  0  0  0  0  0  0  0  0
    8.4346  -13.9814   24.1716 C   0  0  0  0  0  0  0  0  0  0  0  0
    8.3182  -13.1859   25.1429 O   0  0  0  0  0  0  0  0  0  0  0  0
   11.9952  -16.2755   31.5977 O   0  0  0  0  0  0  0  0  0  0  0  0
   11.3487  -16.0715   30.3762 C   0  0  0  0  0  0  0  0  0  0  0  0
   10.9390  -17.1186   29.5823 C   0  0  0  0  0  0  0  0  0  0  0  0
   10.2997  -16.9301   28.3742 C   0  0  0  0  0  0  0  0  0  0  0  0
   10.0401  -15.6570   27.9031 C   0  0  0  0  0  0  0  0  0  0  0  0
    9.3717  -15.4654   26.6224 C   0  0  0  0  0  0  0  0  0  0  0  0
   10.2602  -15.1690   25.4683 C   0  0  2  0  0  0  0  0  0  0  0  0
    9.4768  -14.9461   24.2497 N   0  0  0  0  0  0  0  0  0  0  0  0
   11.2317  -16.2656   25.2754 C   0  0  0  0  0  0  0  0  0  0  0  0
   12.5003  -16.2163   25.8769 O   0  0  0  0  0  0  0  0  0  0  0  0
   10.4578  -14.6057   28.7124 C   0  0  0  0  0  0  0  0  0  0  0  0
   11.0932  -14.8007   29.9134 C   0  0  0  0  0  0  0  0  0  0  0  0
   10.9677  -17.2609   24.5826 O   0  0  0  0  0  0  0  0  0  0  0  0
  2  1  1  6
  2  4  1  0
  3  2  1  0
  4  6  1  0
  4  5  2  0
  6  7  1  0
  7 10  1  0
  7  8  1  1
  8  9  1  0
 10 11  2  0
 12 13  1  0
 13 23  2  0
 14 13  1  0
 14 15  2  0
 15 16  1  0
 16 22  2  0
 16 17  1  0
 18 17  1  1
 18 20  1  0
 19 10  1  0
 19 18  1  0
 20 21  1  0
 23 22  1  0
 24 20  2  0
M  END
$$$$
