ACY.pdb
     RDKit          3D

 24 24  0  0  1  0  0  0  0  0999 V2000
    8.0284  -14.5712   18.8002 C   0  0  0  0  0  0  0  0  0  0  0  0
    8.1787  -13.2281   19.4892 C   0  0  2  0  0  0  0  0  0  0  0  0
    8.8088  -12.3004   18.5618 N   0  0  0  0  0  0  0  0  0  0  0  0
    8.9870  -13.3724   20.7303 C   0  0  0  0  0  0  0  0  0  0  0  0
   10.2263  -13.3269   20.6889 O   0  0  0  0  0  0  0  0  0  0  0  0
    8.3334  -13.5635   21.9718 N   0  0  0  0  0  0  0  0  0  0  0  0
    8.9910  -13.9430   23.1805 C   0  0  1  0  0  0  0  0  0  0  0  0
    8.0557  -13.8929   24.3788 C   0  0  0  0  0  0  0  0  0  0  0  0
    6.5876  -14.8924   23.9143 S   0  0  0  0  0  0  0  0  0  0  0  0
    9.5408  -15.3206   23.1383 C   0  0  0  0  0  0  0  0  0  0  0  0
    9.0302  -16.1701   22.3589 O   0  0  0  0  0  0  0  0  0  0  0  0
   15.2084  -14.2702   19.8081 O   0  0  0  0  0  0  0  0  0  0  0  0
   14.2835  -15.0775   20.4748 C   0  0  0  0  0  0  0  0  0  0  0  0
   14.4007  -15.3701   21.8147 C   0  0  0  0  0  0  0  0  0  0  0  0
   13.4940  -16.1658   22.4843 C   0  0  0  0  0  0  0  0  0  0  0  0
   12.4102  -16.7123   21.8233 C   0  0  0  0  0  0  0  0  0  0  0  0
   11.4610  -17.5584   22.5351 C   0  0  0  0  0  0  0  0  0  0  0  0
   11.1300  -17.1337   23.9205 C   0  0  2  0  0  0  0  0  0  0  0  0
   10.6327  -15.7550   23.9395 N   0  0  0  0  0  0  0  0  0  0  0  0
   12.3114  -17.2784   24.7962 C   0  0  0  0  0  0  0  0  0  0  0  0
   12.8993  -18.5366   25.0082 O   0  0  0  0  0  0  0  0  0  0  0  0
   12.3004  -16.4107   20.4699 C   0  0  0  0  0  0  0  0  0  0  0  0
   13.2062  -15.6181   19.8102 C   0  0  0  0  0  0  0  0  0  0  0  0
   12.8239  -16.3056   25.3717 O   0  0  0  0  0  0  0  0  0  0  0  0
  2  1  1  6
  2  4  1  0
  3  2  1  0
  4  6  1  0
  4  5  2  0
  6  7  1  0
  7 10  1  0
  7  8  1  1
  8  9  1  0
 10 11  2  0
 12 13  1  0
 13 23  2  0
 14 13  1  0
 14 15  2  0
 15 16  1  0
 16 22  2  0
 16 17  1  0
 18 17  1  6
 18 20  1  0
 19 10  1  0
 19 18  1  0
 20 21  1  0
 23 22  1  0
 24 20  2  0
M  END
$$$$
