ACY.pdb
     RDKit          3D

 24 24  0  0  1  0  0  0  0  0999 V2000
    8.3711  -12.1330   19.1327 C   0  0  0  0  0  0  0  0  0  0  0  0
    8.7149  -13.5228   18.6313 C   0  0  2  0  0  0  0  0  0  0  0  0
    8.1711  -13.6786   17.2905 N   0  0  0  0  0  0  0  0  0  0  0  0
    8.1653  -14.5543   19.5524 C   0  0  0  0  0  0  0  0  0  0  0  0
    7.1183  -15.1596   19.2746 O   0  0  0  0  0  0  0  0  0  0  0  0
    8.8456  -14.8477   20.7592 N   0  0  0  0  0  0  0  0  0  0  0  0
    8.4925  -15.9070   21.6482 C   0  0  1  0  0  0  0  0  0  0  0  0
    8.8610  -17.2711   21.0851 C   0  0  0  0  0  0  0  0  0  0  0  0
   10.6003  -17.1278   20.5153 S   0  0  0  0  0  0  0  0  0  0  0  0
    9.1603  -15.8075   22.9696 C   0  0  0  0  0  0  0  0  0  0  0  0
   10.3176  -15.3130   23.0455 O   0  0  0  0  0  0  0  0  0  0  0  0
    5.8894  -10.6869   26.4846 O   0  0  0  0  0  0  0  0  0  0  0  0
    6.4642  -11.9601   26.5057 C   0  0  0  0  0  0  0  0  0  0  0  0
    7.8229  -12.1467   26.6221 C   0  0  0  0  0  0  0  0  0  0  0  0
    8.4024  -13.3987   26.6442 C   0  0  0  0  0  0  0  0  0  0  0  0
    7.6265  -14.5384   26.5481 C   0  0  0  0  0  0  0  0  0  0  0  0
    8.2461  -15.8572   26.5640 C   0  0  0  0  0  0  0  0  0  0  0  0
    9.2327  -16.1201   25.4839 C   0  0  2  0  0  0  0  0  0  0  0  0
    8.5647  -16.2442   24.1850 N   0  0  0  0  0  0  0  0  0  0  0  0
   10.0156  -17.3352   25.7904 C   0  0  0  0  0  0  0  0  0  0  0  0
   10.9262  -17.3528   26.8601 O   0  0  0  0  0  0  0  0  0  0  0  0
    6.2548  -14.3393   26.4310 C   0  0  0  0  0  0  0  0  0  0  0  0
    5.6852  -13.0907   26.4098 C   0  0  0  0  0  0  0  0  0  0  0  0
    9.9007  -18.3749   25.1226 O   0  0  0  0  0  0  0  0  0  0  0  0
  2  1  1  1
  2  4  1  0
  3  2  1  0
  4  6  1  0
  4  5  2  0
  6  7  1  0
  7 10  1  0
  7  8  1  6
  8  9  1  0
 10 11  2  0
 12 13  1  0
 13 23  2  0
 14 13  1  0
 14 15  2  0
 15 16  1  0
 16 22  2  0
 16 17  1  0
 18 17  1  1
 18 20  1  0
 19 10  1  0
 19 18  1  0
 20 21  1  0
 23 22  1  0
 24 20  2  0
M  END
$$$$
