ACY.pdb
     RDKit          3D

 24 24  0  0  1  0  0  0  0  0999 V2000
   10.2422  -18.8367   18.2608 C   0  0  0  0  0  0  0  0  0  0  0  0
    9.0306  -17.9704   17.9730 C   0  0  2  0  0  0  0  0  0  0  0  0
    9.2512  -17.2691   16.7170 N   0  0  0  0  0  0  0  0  0  0  0  0
    8.8065  -17.0100   19.0873 C   0  0  0  0  0  0  0  0  0  0  0  0
    9.4535  -15.9533   19.1537 O   0  0  0  0  0  0  0  0  0  0  0  0
    7.8436  -17.3063   20.0825 N   0  0  0  0  0  0  0  0  0  0  0  0
    7.4670  -16.4155   21.1322 C   0  0  1  0  0  0  0  0  0  0  0  0
    5.9692  -16.4446   21.3953 C   0  0  0  0  0  0  0  0  0  0  0  0
    5.5667  -18.1838   21.8237 S   0  0  0  0  0  0  0  0  0  0  0  0
    8.1235  -16.7268   22.4260 C   0  0  0  0  0  0  0  0  0  0  0  0
    8.4919  -17.9082   22.6676 O   0  0  0  0  0  0  0  0  0  0  0  0
    5.2303  -11.2305   26.5845 O   0  0  0  0  0  0  0  0  0  0  0  0
    6.2721  -12.1160   26.2977 C   0  0  0  0  0  0  0  0  0  0  0  0
    7.0287  -12.0081   25.1530 C   0  0  0  0  0  0  0  0  0  0  0  0
    8.0600  -12.8762   24.8586 C   0  0  0  0  0  0  0  0  0  0  0  0
    8.3809  -13.9097   25.7182 C   0  0  0  0  0  0  0  0  0  0  0  0
    9.4661  -14.8276   25.3968 C   0  0  0  0  0  0  0  0  0  0  0  0
    9.0709  -16.0702   24.6834 C   0  0  2  0  0  0  0  0  0  0  0  0
    8.3698  -15.7554   23.4352 N   0  0  0  0  0  0  0  0  0  0  0  0
    8.2333  -16.9178   25.5571 C   0  0  0  0  0  0  0  0  0  0  0  0
    8.8017  -17.6311   26.6257 O   0  0  0  0  0  0  0  0  0  0  0  0
    7.6107  -14.0103   26.8721 C   0  0  0  0  0  0  0  0  0  0  0  0
    6.5863  -13.1429   27.1586 C   0  0  0  0  0  0  0  0  0  0  0  0
    7.0098  -17.0311   25.3830 O   0  0  0  0  0  0  0  0  0  0  0  0
  2  1  1  1
  2  4  1  0
  3  2  1  0
  4  6  1  0
  4  5  2  0
  6  7  1  0
  7 10  1  0
  7  8  1  1
  8  9  1  0
 10 11  2  0
 12 13  1  0
 13 23  2  0
 14 13  1  0
 14 15  2  0
 15 16  1  0
 16 22  2  0
 16 17  1  0
 18 17  1  1
 18 20  1  0
 19 10  1  0
 19 18  1  0
 20 21  1  0
 23 22  1  0
 24 20  2  0
M  END
$$$$
