ACY.pdb
     RDKit          3D

 24 24  0  0  1  0  0  0  0  0999 V2000
    8.7534  -12.2105   19.5372 C   0  0  0  0  0  0  0  0  0  0  0  0
    8.7074  -13.5862   18.8997 C   0  0  2  0  0  0  0  0  0  0  0  0
    7.9820  -13.4892   17.6419 N   0  0  0  0  0  0  0  0  0  0  0  0
    8.0548  -14.5588   19.8176 C   0  0  0  0  0  0  0  0  0  0  0  0
    6.9724  -15.0861   19.5175 O   0  0  0  0  0  0  0  0  0  0  0  0
    8.6768  -14.8855   21.0470 N   0  0  0  0  0  0  0  0  0  0  0  0
    8.2524  -15.9385   21.9120 C   0  0  1  0  0  0  0  0  0  0  0  0
    8.5019  -17.3107   21.3054 C   0  0  0  0  0  0  0  0  0  0  0  0
   10.2930  -17.3671   20.9065 S   0  0  0  0  0  0  0  0  0  0  0  0
    8.9447  -15.9310   23.2244 C   0  0  0  0  0  0  0  0  0  0  0  0
   10.1552  -15.5837   23.2868 O   0  0  0  0  0  0  0  0  0  0  0  0
    5.7092  -10.5498   26.1056 O   0  0  0  0  0  0  0  0  0  0  0  0
    6.2726  -11.8175   26.2716 C   0  0  0  0  0  0  0  0  0  0  0  0
    5.5780  -12.9697   25.9807 C   0  0  0  0  0  0  0  0  0  0  0  0
    6.1232  -14.2270   26.1403 C   0  0  0  0  0  0  0  0  0  0  0  0
    7.4143  -14.3833   26.6083 C   0  0  0  0  0  0  0  0  0  0  0  0
    7.9808  -15.7146   26.7820 C   0  0  0  0  0  0  0  0  0  0  0  0
    8.9640  -16.1375   25.7507 C   0  0  2  0  0  0  0  0  0  0  0  0
    8.3157  -16.2989   24.4459 N   0  0  0  0  0  0  0  0  0  0  0  0
    9.6327  -17.3889   26.1635 C   0  0  0  0  0  0  0  0  0  0  0  0
   10.5453  -17.3976   27.2316 O   0  0  0  0  0  0  0  0  0  0  0  0
    8.1078  -13.2132   26.8992 C   0  0  0  0  0  0  0  0  0  0  0  0
    7.5591  -11.9655   26.7378 C   0  0  0  0  0  0  0  0  0  0  0  0
    9.4166  -18.4678   25.5897 O   0  0  0  0  0  0  0  0  0  0  0  0
  2  1  1  1
  2  4  1  0
  3  2  1  0
  4  6  1  0
  4  5  2  0
  6  7  1  0
  7 10  1  0
  7  8  1  6
  8  9  1  0
 10 11  2  0
 12 13  1  0
 13 23  2  0
 14 13  1  0
 14 15  2  0
 15 16  1  0
 16 22  2  0
 16 17  1  0
 18 17  1  1
 18 20  1  0
 19 10  1  0
 19 18  1  0
 20 21  1  0
 23 22  1  0
 24 20  2  0
M  END
$$$$
