ACY.pdb
     RDKit          3D

 24 24  0  0  1  0  0  0  0  0999 V2000
   12.6791  -19.2858   16.8649 C   0  0  0  0  0  0  0  0  0  0  0  0
   11.1990  -19.0159   16.6709 C   0  0  2  0  0  0  0  0  0  0  0  0
   11.0366  -18.1250   15.5318 N   0  0  0  0  0  0  0  0  0  0  0  0
   10.6178  -18.4170   17.9030 C   0  0  0  0  0  0  0  0  0  0  0  0
   10.6307  -17.1886   18.0780 O   0  0  0  0  0  0  0  0  0  0  0  0
   10.0438  -19.2593   18.8860 N   0  0  0  0  0  0  0  0  0  0  0  0
    9.5541  -18.8092   20.1489 C   0  0  1  0  0  0  0  0  0  0  0  0
    8.6915  -19.8584   20.8332 C   0  0  0  0  0  0  0  0  0  0  0  0
    9.7373  -21.3613   20.9671 S   0  0  0  0  0  0  0  0  0  0  0  0
   10.6352  -18.4692   21.1068 C   0  0  0  0  0  0  0  0  0  0  0  0
   11.7629  -19.0217   20.9932 O   0  0  0  0  0  0  0  0  0  0  0  0
   13.6411  -13.8736   17.8789 O   0  0  0  0  0  0  0  0  0  0  0  0
   13.2097  -14.3277   19.1277 C   0  0  0  0  0  0  0  0  0  0  0  0
   11.9018  -14.2045   19.5383 C   0  0  0  0  0  0  0  0  0  0  0  0
   11.4635  -14.6489   20.7688 C   0  0  0  0  0  0  0  0  0  0  0  0
   12.3378  -15.2472   21.6564 C   0  0  0  0  0  0  0  0  0  0  0  0
   11.8697  -15.7069   22.9576 C   0  0  0  0  0  0  0  0  0  0  0  0
   11.5779  -17.1605   23.0622 C   0  0  2  0  0  0  0  0  0  0  0  0
   10.4776  -17.5380   22.1702 N   0  0  0  0  0  0  0  0  0  0  0  0
   11.2675  -17.5210   24.4612 C   0  0  0  0  0  0  0  0  0  0  0  0
   12.2813  -17.5714   25.4324 O   0  0  0  0  0  0  0  0  0  0  0  0
   13.6571  -15.3672   21.2323 C   0  0  0  0  0  0  0  0  0  0  0  0
   14.0860  -14.9229   20.0065 C   0  0  0  0  0  0  0  0  0  0  0  0
   10.1129  -17.7901   24.8281 O   0  0  0  0  0  0  0  0  0  0  0  0
  2  1  1  1
  2  4  1  0
  3  2  1  0
  4  6  1  0
  4  5  2  0
  6  7  1  0
  7 10  1  0
  7  8  1  1
  8  9  1  0
 10 11  2  0
 12 13  1  0
 13 23  2  0
 14 13  1  0
 14 15  2  0
 15 16  1  0
 16 22  2  0
 16 17  1  0
 18 17  1  1
 18 20  1  0
 19 10  1  0
 19 18  1  0
 20 21  1  0
 23 22  1  0
 24 20  2  0
M  END
$$$$
