ACY.pdb
     RDKit          3D

 24 24  0  0  1  0  0  0  0  0999 V2000
    6.7025  -19.2950   22.4822 C   0  0  0  0  0  0  0  0  0  0  0  0
    6.5883  -18.7885   21.0569 C   0  0  2  0  0  0  0  0  0  0  0  0
    6.9107  -19.8805   20.1506 N   0  0  0  0  0  0  0  0  0  0  0  0
    7.5016  -17.6329   20.8452 C   0  0  0  0  0  0  0  0  0  0  0  0
    8.7007  -17.8123   20.5812 O   0  0  0  0  0  0  0  0  0  0  0  0
    6.9956  -16.3143   20.9462 N   0  0  0  0  0  0  0  0  0  0  0  0
    7.7958  -15.1346   20.8735 C   0  0  1  0  0  0  0  0  0  0  0  0
    6.9490  -13.8778   20.7441 C   0  0  0  0  0  0  0  0  0  0  0  0
    8.1248  -12.5115   20.3966 S   0  0  0  0  0  0  0  0  0  0  0  0
    8.6547  -14.9371   22.0673 C   0  0  0  0  0  0  0  0  0  0  0  0
    9.5613  -14.0612   22.0428 O   0  0  0  0  0  0  0  0  0  0  0  0
    5.5733  -10.8830   26.7629 O   0  0  0  0  0  0  0  0  0  0  0  0
    6.3374  -12.0218   26.4963 C   0  0  0  0  0  0  0  0  0  0  0  0
    5.7726  -13.2725   26.3901 C   0  0  0  0  0  0  0  0  0  0  0  0
    6.5163  -14.4046   26.1272 C   0  0  0  0  0  0  0  0  0  0  0  0
    7.8857  -14.3267   25.9569 C   0  0  0  0  0  0  0  0  0  0  0  0
    8.6658  -15.5276   25.6874 C   0  0  0  0  0  0  0  0  0  0  0  0
    9.4229  -15.5323   24.4084 C   0  0  2  0  0  0  0  0  0  0  0  0
    8.5179  -15.6901   23.2662 N   0  0  0  0  0  0  0  0  0  0  0  0
   10.4437  -16.6006   24.4216 C   0  0  0  0  0  0  0  0  0  0  0  0
   11.5008  -16.5733   25.3465 O   0  0  0  0  0  0  0  0  0  0  0  0
    8.4469  -13.0587   26.0659 C   0  0  0  0  0  0  0  0  0  0  0  0
    7.7008  -11.9367   26.3275 C   0  0  0  0  0  0  0  0  0  0  0  0
   10.4072  -17.5520   23.6257 O   0  0  0  0  0  0  0  0  0  0  0  0
  2  1  1  1
  2  4  1  0
  3  2  1  0
  4  6  1  0
  4  5  2  0
  6  7  1  0
  7 10  1  0
  7  8  1  1
  8  9  1  0
 10 11  2  0
 12 13  1  0
 13 23  2  0
 14 13  1  0
 14 15  2  0
 15 16  1  0
 16 22  2  0
 16 17  1  0
 18 17  1  1
 18 20  1  0
 19 10  1  0
 19 18  1  0
 20 21  1  0
 23 22  1  0
 24 20  2  0
M  END
$$$$
