ACY.pdb
     RDKit          3D

 24 24  0  0  1  0  0  0  0  0999 V2000
   14.9440  -18.0030   12.3142 C   0  0  0  0  0  0  0  0  0  0  0  0
   14.1550  -16.7687   11.9203 C   0  0  2  0  0  0  0  0  0  0  0  0
   15.0292  -15.8813   11.1680 N   0  0  0  0  0  0  0  0  0  0  0  0
   13.6209  -16.0893   13.1318 C   0  0  0  0  0  0  0  0  0  0  0  0
   14.3384  -15.3300   13.8014 O   0  0  0  0  0  0  0  0  0  0  0  0
   12.2786  -16.3124   13.5238 N   0  0  0  0  0  0  0  0  0  0  0  0
   11.6541  -15.6988   14.6510 C   0  0  1  0  0  0  0  0  0  0  0  0
   10.1723  -16.0318   14.7338 C   0  0  0  0  0  0  0  0  0  0  0  0
    9.4030  -15.2793   13.2464 S   0  0  0  0  0  0  0  0  0  0  0  0
   12.2476  -16.1149   15.9458 C   0  0  0  0  0  0  0  0  0  0  0  0
   12.7558  -17.2635   16.0561 O   0  0  0  0  0  0  0  0  0  0  0  0
   15.7029  -15.5037   24.1896 O   0  0  0  0  0  0  0  0  0  0  0  0
   14.9924  -15.2870   23.0064 C   0  0  0  0  0  0  0  0  0  0  0  0
   15.6169  -14.9221   21.8353 C   0  0  0  0  0  0  0  0  0  0  0  0
   14.9264  -14.7053   20.6605 C   0  0  0  0  0  0  0  0  0  0  0  0
   13.5526  -14.8483   20.6116 C   0  0  0  0  0  0  0  0  0  0  0  0
   12.8291  -14.6099   19.3694 C   0  0  0  0  0  0  0  0  0  0  0  0
   12.9145  -15.6924   18.3544 C   0  0  2  0  0  0  0  0  0  0  0  0
   12.2810  -15.2817   17.0980 N   0  0  0  0  0  0  0  0  0  0  0  0
   12.2978  -16.9307   18.8737 C   0  0  0  0  0  0  0  0  0  0  0  0
   10.9067  -17.1190   18.8180 O   0  0  0  0  0  0  0  0  0  0  0  0
   12.9309  -15.2173   21.7999 C   0  0  0  0  0  0  0  0  0  0  0  0
   13.6243  -15.4315   22.9649 C   0  0  0  0  0  0  0  0  0  0  0  0
   12.9766  -17.8416   19.3732 O   0  0  0  0  0  0  0  0  0  0  0  0
  2  1  1  1
  2  4  1  0
  3  2  1  0
  4  6  1  0
  4  5  2  0
  6  7  1  0
  7 10  1  0
  7  8  1  1
  8  9  1  0
 10 11  2  0
 12 13  1  0
 13 23  2  0
 14 13  1  0
 14 15  2  0
 15 16  1  0
 16 22  2  0
 16 17  1  0
 18 17  1  1
 18 20  1  0
 19 10  1  0
 19 18  1  0
 20 21  1  0
 23 22  1  0
 24 20  2  0
M  END
$$$$
