ACY.pdb
     RDKit          3D

 24 24  0  0  1  0  0  0  0  0999 V2000
   10.1644  -19.3976   19.7167 C   0  0  0  0  0  0  0  0  0  0  0  0
    9.9269  -18.0812   19.0013 C   0  0  2  0  0  0  0  0  0  0  0  0
   11.0678  -17.8106   18.1394 N   0  0  0  0  0  0  0  0  0  0  0  0
    9.7332  -16.9849   19.9887 C   0  0  0  0  0  0  0  0  0  0  0  0
   10.6916  -16.5411   20.6399 O   0  0  0  0  0  0  0  0  0  0  0  0
    8.4401  -16.4427   20.1865 N   0  0  0  0  0  0  0  0  0  0  0  0
    8.1209  -15.4511   21.1622 C   0  0  1  0  0  0  0  0  0  0  0  0
    6.6690  -15.0072   21.0708 C   0  0  0  0  0  0  0  0  0  0  0  0
    6.4501  -13.7291   22.3703 S   0  0  0  0  0  0  0  0  0  0  0  0
    8.3275  -15.9159   22.5562 C   0  0  0  0  0  0  0  0  0  0  0  0
    7.8320  -17.0152   22.9249 O   0  0  0  0  0  0  0  0  0  0  0  0
   11.0409  -15.9826   31.1100 O   0  0  0  0  0  0  0  0  0  0  0  0
   10.7479  -15.6340   29.7892 C   0  0  0  0  0  0  0  0  0  0  0  0
   10.1494  -14.4378   29.4646 C   0  0  0  0  0  0  0  0  0  0  0  0
    9.8551  -14.0821   28.1644 C   0  0  0  0  0  0  0  0  0  0  0  0
   10.1551  -14.9297   27.1148 C   0  0  0  0  0  0  0  0  0  0  0  0
    9.8340  -14.5509   25.7447 C   0  0  0  0  0  0  0  0  0  0  0  0
    9.1417  -15.5865   24.9339 C   0  0  2  0  0  0  0  0  0  0  0  0
    9.0661  -15.1838   23.5265 N   0  0  0  0  0  0  0  0  0  0  0  0
    7.7932  -15.8467   25.4792 C   0  0  0  0  0  0  0  0  0  0  0  0
    6.7401  -14.9447   25.2533 O   0  0  0  0  0  0  0  0  0  0  0  0
   10.7597  -16.1358   27.4529 C   0  0  0  0  0  0  0  0  0  0  0  0
   11.0498  -16.4830   28.7488 C   0  0  0  0  0  0  0  0  0  0  0  0
    7.5417  -16.8600   26.1500 O   0  0  0  0  0  0  0  0  0  0  0  0
  2  1  1  1
  2  4  1  0
  3  2  1  0
  4  6  1  0
  4  5  2  0
  6  7  1  0
  7 10  1  0
  7  8  1  1
  8  9  1  0
 10 11  2  0
 12 13  1  0
 13 23  2  0
 14 13  1  0
 14 15  2  0
 15 16  1  0
 16 22  2  0
 16 17  1  0
 18 17  1  1
 18 20  1  0
 19 10  1  0
 19 18  1  0
 20 21  1  0
 23 22  1  0
 24 20  2  0
M  END
$$$$
