MMM.pdb
     RDKit          3D

 25 24  0  0  1  0  0  0  0  0999 V2000
   10.4960  -13.3060    2.3246 C   0  0  0  0  0  0  0  0  0  0  0  0
    9.5381  -13.9832    0.9910 S   0  0  0  0  0  0  0  0  0  0  0  0
   10.2021  -15.3595    0.1039 C   0  0  0  0  0  0  0  0  0  0  0  0
   10.6197  -16.5210    0.9084 C   0  0  0  0  0  0  0  0  0  0  0  0
   11.2538  -17.6314    0.1843 C   0  0  2  0  0  0  0  0  0  0  0  0
   10.3358  -18.3463   -0.6291 N   0  0  0  0  0  0  0  0  0  0  0  0
   11.9094  -18.5381    1.2064 C   0  0  0  0  0  0  0  0  0  0  0  0
   11.1871  -19.4708    1.6398 O   0  0  0  0  0  0  0  0  0  0  0  0
   18.3161  -22.3049    3.3360 C   0  0  0  0  0  0  0  0  0  0  0  0
   17.4829  -21.0744    2.2899 S   0  0  0  0  0  0  0  0  0  0  0  0
   15.8392  -20.6788    2.9467 C   0  0  0  0  0  0  0  0  0  0  0  0
   15.2301  -19.6479    2.0304 C   0  0  0  0  0  0  0  0  0  0  0  0
   13.8602  -19.1903    2.5654 C   0  0  2  0  0  0  0  0  0  0  0  0
   13.2412  -18.3287    1.6261 N   0  0  0  0  0  0  0  0  0  0  0  0
   14.1701  -18.5352    3.8639 C   0  0  0  0  0  0  0  0  0  0  0  0
   14.6513  -17.3767    3.8361 O   0  0  0  0  0  0  0  0  0  0  0  0
   14.1464  -21.2898   10.2317 C   0  0  0  0  0  0  0  0  0  0  0  0
   13.1245  -19.7949   10.1569 S   0  0  0  0  0  0  0  0  0  0  0  0
   13.8335  -18.7025    8.8879 C   0  0  0  0  0  0  0  0  0  0  0  0
   13.6551  -19.3347    7.5327 C   0  0  0  0  0  0  0  0  0  0  0  0
   14.2495  -18.5460    6.3973 C   0  0  2  0  0  0  0  0  0  0  0  0
   13.9463  -19.1593    5.1149 N   0  0  0  0  0  0  0  0  0  0  0  0
   15.7072  -18.3776    6.4919 C   0  0  0  0  0  0  0  0  0  0  0  0
   16.4547  -19.2986    6.0336 O   0  0  0  0  0  0  0  0  0  0  0  0
   16.3807  -17.3010    7.0364 O   0  0  0  0  0  0  0  0  0  0  0  0
  1  2  1  0
  3  2  1  0
  4  3  1  0
  5  6  1  1
  5  4  1  0
  7  5  1  0
  8  7  2  0
 10  9  1  0
 11 12  1  0
 11 10  1  0
 13 12  1  6
 13 15  1  0
 13 14  1  0
 14  7  1  0
 15 16  2  0
 18 17  1  0
 19 18  1  0
 21 20  1  1
 20 19  1  0
 22 21  1  0
 22 15  1  0
 23 21  1  0
 24 23  2  0
 25 23  1  0
M  END
$$$$
