MMM.pdb
     RDKit          3D

 25 24  0  0  1  0  0  0  0  0999 V2000
   27.6186  -16.4723  -17.3691 C   0  0  0  0  0  0  0  0  0  0  0  0
   27.4074  -17.2192  -15.7714 S   0  0  0  0  0  0  0  0  0  0  0  0
   25.7838  -17.7332  -15.3004 C   0  0  0  0  0  0  0  0  0  0  0  0
   24.7475  -16.6867  -15.2635 C   0  0  0  0  0  0  0  0  0  0  0  0
   23.7180  -16.7405  -16.3108 C   0  0  2  0  0  0  0  0  0  0  0  0
   23.7679  -17.9438  -17.0624 N   0  0  0  0  0  0  0  0  0  0  0  0
   23.8956  -15.5257  -17.1993 C   0  0  0  0  0  0  0  0  0  0  0  0
   24.5681  -15.7170  -18.2437 O   0  0  0  0  0  0  0  0  0  0  0  0
   18.7922  -12.6530  -18.2839 C   0  0  0  0  0  0  0  0  0  0  0  0
   20.0039  -11.9180  -19.4216 S   0  0  0  0  0  0  0  0  0  0  0  0
   21.6090  -12.7504  -19.2776 C   0  0  0  0  0  0  0  0  0  0  0  0
   22.1468  -12.4454  -17.9025 C   0  0  0  0  0  0  0  0  0  0  0  0
   23.5038  -13.1408  -17.6856 C   0  0  2  0  0  0  0  0  0  0  0  0
   23.3343  -14.2766  -16.8556 N   0  0  0  0  0  0  0  0  0  0  0  0
   24.3680  -12.0880  -17.0889 C   0  0  0  0  0  0  0  0  0  0  0  0
   24.1301  -11.7332  -15.9091 O   0  0  0  0  0  0  0  0  0  0  0  0
   30.7644  -11.5059  -17.0750 C   0  0  0  0  0  0  0  0  0  0  0  0
   30.3139   -9.8417  -17.6335 S   0  0  0  0  0  0  0  0  0  0  0  0
   28.6137   -9.5128  -17.0788 C   0  0  0  0  0  0  0  0  0  0  0  0
   27.7011  -10.5850  -17.6132 C   0  0  0  0  0  0  0  0  0  0  0  0
   26.2509  -10.3995  -17.2567 C   0  0  2  0  0  0  0  0  0  0  0  0
   25.4355  -11.4777  -17.7907 N   0  0  0  0  0  0  0  0  0  0  0  0
   25.6852   -9.1238  -17.7203 C   0  0  0  0  0  0  0  0  0  0  0  0
   25.1457   -9.0827  -18.8711 O   0  0  0  0  0  0  0  0  0  0  0  0
   25.6695   -7.9276  -17.0291 O   0  0  0  0  0  0  0  0  0  0  0  0
  1  2  1  0
  3  2  1  0
  4  3  1  0
  5  6  1  6
  5  4  1  0
  7  5  1  0
  8  7  2  0
 10  9  1  0
 11 12  1  0
 11 10  1  0
 13 12  1  1
 13 15  1  0
 13 14  1  0
 14  7  1  0
 15 16  2  0
 18 17  1  0
 19 18  1  0
 21 20  1  6
 20 19  1  0
 22 21  1  0
 22 15  1  0
 23 21  1  0
 24 23  2  0
 25 23  1  0
M  END
$$$$
