MMM.pdb
     RDKit          3D

 25 24  0  0  1  0  0  0  0  0999 V2000
   25.9602  -17.1948  -16.9339 C   0  0  0  0  0  0  0  0  0  0  0  0
   27.6669  -17.0334  -16.4690 S   0  0  0  0  0  0  0  0  0  0  0  0
   28.4118  -18.3549  -15.5630 C   0  0  0  0  0  0  0  0  0  0  0  0
   27.5013  -19.2174  -14.7898 C   0  0  0  0  0  0  0  0  0  0  0  0
   28.1094  -20.3551  -14.0859 C   0  0  2  0  0  0  0  0  0  0  0  0
   28.7631  -21.2551  -14.9679 N   0  0  0  0  0  0  0  0  0  0  0  0
   27.0183  -21.0494  -13.2961 C   0  0  0  0  0  0  0  0  0  0  0  0
   26.4263  -21.9794  -13.8995 O   0  0  0  0  0  0  0  0  0  0  0  0
   28.0396  -20.5157   -6.5799 C   0  0  0  0  0  0  0  0  0  0  0  0
   26.4880  -20.2622   -7.4914 S   0  0  0  0  0  0  0  0  0  0  0  0
   26.5918  -20.9848   -9.1519 C   0  0  0  0  0  0  0  0  0  0  0  0
   25.4147  -20.4650   -9.9378 C   0  0  0  0  0  0  0  0  0  0  0  0
   25.4598  -20.9844  -11.3870 C   0  0  2  0  0  0  0  0  0  0  0  0
   26.7074  -20.6600  -11.9750 N   0  0  0  0  0  0  0  0  0  0  0  0
   24.2990  -20.3329  -12.0499 C   0  0  0  0  0  0  0  0  0  0  0  0
   24.5330  -19.4142  -12.8720 O   0  0  0  0  0  0  0  0  0  0  0  0
   24.2418  -24.2216  -15.1682 C   0  0  0  0  0  0  0  0  0  0  0  0
   22.4487  -24.4619  -15.2745 S   0  0  0  0  0  0  0  0  0  0  0  0
   21.6502  -23.0145  -14.5169 C   0  0  0  0  0  0  0  0  0  0  0  0
   22.5768  -22.4164  -13.4914 C   0  0  0  0  0  0  0  0  0  0  0  0
   22.0371  -21.1885  -12.8091 C   0  0  2  0  0  0  0  0  0  0  0  0
   22.9569  -20.7036  -11.7934 N   0  0  0  0  0  0  0  0  0  0  0  0
   20.7234  -21.3892  -12.1799 C   0  0  0  0  0  0  0  0  0  0  0  0
   20.6839  -21.7659  -10.9659 O   0  0  0  0  0  0  0  0  0  0  0  0
   19.4880  -21.2091  -12.7718 O   0  0  0  0  0  0  0  0  0  0  0  0
  1  2  1  0
  3  2  1  0
  4  3  1  0
  5  6  1  6
  5  4  1  0
  7  5  1  0
  8  7  2  0
 10  9  1  0
 11 12  1  0
 11 10  1  0
 13 12  1  1
 13 15  1  0
 13 14  1  0
 14  7  1  0
 15 16  2  0
 18 17  1  0
 19 18  1  0
 21 20  1  1
 20 19  1  0
 22 21  1  0
 22 15  1  0
 23 21  1  0
 24 23  2  0
 25 23  1  0
M  END
$$$$
