MMM.pdb
     RDKit          3D

 25 24  0  0  1  0  0  0  0  0999 V2000
   27.2399  -16.4755  -14.8646 C   0  0  0  0  0  0  0  0  0  0  0  0
   28.1283  -17.3677  -16.1175 S   0  0  0  0  0  0  0  0  0  0  0  0
   27.3790  -18.8161  -16.7978 C   0  0  0  0  0  0  0  0  0  0  0  0
   26.6805  -19.7021  -15.8504 C   0  0  0  0  0  0  0  0  0  0  0  0
   27.5171  -20.6250  -15.0707 C   0  0  2  0  0  0  0  0  0  0  0  0
   28.0770  -21.6580  -15.8675 N   0  0  0  0  0  0  0  0  0  0  0  0
   26.6663  -21.1899  -13.9511 C   0  0  0  0  0  0  0  0  0  0  0  0
   25.9437  -22.1687  -14.2660 O   0  0  0  0  0  0  0  0  0  0  0  0
   27.3853  -20.5291   -7.4842 C   0  0  0  0  0  0  0  0  0  0  0  0
   25.6331  -20.0987   -7.7010 S   0  0  0  0  0  0  0  0  0  0  0  0
   25.0205  -20.6837   -9.3049 C   0  0  0  0  0  0  0  0  0  0  0  0
   26.0765  -20.3576  -10.3304 C   0  0  0  0  0  0  0  0  0  0  0  0
   25.6700  -20.8949  -11.7154 C   0  0  2  0  0  0  0  0  0  0  0  0
   26.7012  -20.6372  -12.6523 N   0  0  0  0  0  0  0  0  0  0  0  0
   24.3940  -20.1963  -12.0235 C   0  0  0  0  0  0  0  0  0  0  0  0
   24.4545  -19.1234  -12.6714 O   0  0  0  0  0  0  0  0  0  0  0  0
   21.6948  -21.1475  -17.9074 C   0  0  0  0  0  0  0  0  0  0  0  0
   22.1549  -22.0036  -16.3777 S   0  0  0  0  0  0  0  0  0  0  0  0
   21.9191  -20.8405  -14.9999 C   0  0  0  0  0  0  0  0  0  0  0  0
   22.1849  -21.5514  -13.6991 C   0  0  0  0  0  0  0  0  0  0  0  0
   21.9530  -20.7095  -12.4736 C   0  0  2  0  0  0  0  0  0  0  0  0
   23.1290  -20.6877  -11.6198 N   0  0  0  0  0  0  0  0  0  0  0  0
   20.8061  -21.1458  -11.6633 C   0  0  0  0  0  0  0  0  0  0  0  0
   20.9785  -22.0874  -10.8262 O   0  0  0  0  0  0  0  0  0  0  0  0
   19.5230  -20.6349  -11.7056 O   0  0  0  0  0  0  0  0  0  0  0  0
  1  2  1  0
  3  2  1  0
  4  3  1  0
  5  6  1  6
  5  4  1  0
  7  5  1  0
  8  7  2  0
 10  9  1  0
 11 12  1  0
 11 10  1  0
 13 12  1  1
 13 15  1  0
 13 14  1  0
 14  7  1  0
 15 16  2  0
 18 17  1  0
 19 18  1  0
 21 20  1  6
 20 19  1  0
 22 21  1  0
 22 15  1  0
 23 21  1  0
 24 23  2  0
 25 23  1  0
M  END
$$$$
