MMM.pdb
     RDKit          3D

 25 24  0  0  1  0  0  0  0  0999 V2000
   26.1970  -26.0920  -17.6740 C   0  0  0  0  0  0  0  0  0  0  0  0
   24.9699  -25.9922  -16.3936 S   0  0  0  0  0  0  0  0  0  0  0  0
   24.9772  -24.5723  -15.3421 C   0  0  0  0  0  0  0  0  0  0  0  0
   26.2551  -23.8489  -15.2225 C   0  0  0  0  0  0  0  0  0  0  0  0
   26.1749  -22.4155  -14.9086 C   0  0  2  0  0  0  0  0  0  0  0  0
   27.4428  -21.7781  -14.9448 N   0  0  0  0  0  0  0  0  0  0  0  0
   25.5234  -22.2739  -13.5477 C   0  0  0  0  0  0  0  0  0  0  0  0
   24.4266  -22.8723  -13.4116 O   0  0  0  0  0  0  0  0  0  0  0  0
   28.0608  -20.4374   -7.4306 C   0  0  0  0  0  0  0  0  0  0  0  0
   26.8022  -19.2578   -8.0025 S   0  0  0  0  0  0  0  0  0  0  0  0
   25.6111  -20.0708   -9.1026 C   0  0  0  0  0  0  0  0  0  0  0  0
   26.3491  -20.4358  -10.3658 C   0  0  0  0  0  0  0  0  0  0  0  0
   25.4183  -21.1819  -11.3399 C   0  0  2  0  0  0  0  0  0  0  0  0
   26.1272  -21.5170  -12.5201 N   0  0  0  0  0  0  0  0  0  0  0  0
   24.2896  -20.2408  -11.5674 C   0  0  0  0  0  0  0  0  0  0  0  0
   24.5664  -19.0602  -11.8900 O   0  0  0  0  0  0  0  0  0  0  0  0
   23.2015  -19.4847  -16.3571 C   0  0  0  0  0  0  0  0  0  0  0  0
   21.3962  -19.5949  -16.2418 S   0  0  0  0  0  0  0  0  0  0  0  0
   20.9471  -19.5018  -14.4822 C   0  0  0  0  0  0  0  0  0  0  0  0
   22.0641  -20.0796  -13.6535 C   0  0  0  0  0  0  0  0  0  0  0  0
   21.8388  -20.0008  -12.1677 C   0  0  2  0  0  0  0  0  0  0  0  0
   22.9317  -20.6195  -11.4361 N   0  0  0  0  0  0  0  0  0  0  0  0
   20.5813  -20.6215  -11.7253 C   0  0  0  0  0  0  0  0  0  0  0  0
   19.5872  -19.8678  -11.4791 O   0  0  0  0  0  0  0  0  0  0  0  0
   20.3461  -21.9705  -11.5417 O   0  0  0  0  0  0  0  0  0  0  0  0
  1  2  1  0
  3  2  1  0
  4  3  1  0
  5  6  1  1
  5  4  1  0
  7  5  1  0
  8  7  2  0
 10  9  1  0
 11 12  1  0
 11 10  1  0
 13 12  1  1
 13 15  1  0
 13 14  1  0
 14  7  1  0
 15 16  2  0
 18 17  1  0
 19 18  1  0
 21 20  1  6
 20 19  1  0
 22 21  1  0
 22 15  1  0
 23 21  1  0
 24 23  2  0
 25 23  1  0
M  END
$$$$
