MMM.pdb
     RDKit          3D

 25 24  0  0  1  0  0  0  0  0999 V2000
   26.6179  -16.2747  -15.2632 C   0  0  0  0  0  0  0  0  0  0  0  0
   27.6553  -17.2324  -16.3410 S   0  0  0  0  0  0  0  0  0  0  0  0
   28.0471  -18.8883  -15.8649 C   0  0  0  0  0  0  0  0  0  0  0  0
   27.1410  -19.5251  -14.8933 C   0  0  0  0  0  0  0  0  0  0  0  0
   27.4825  -20.8901  -14.4692 C   0  0  2  0  0  0  0  0  0  0  0  0
   27.3332  -21.8388  -15.5147 N   0  0  0  0  0  0  0  0  0  0  0  0
   26.6120  -21.2378  -13.2785 C   0  0  0  0  0  0  0  0  0  0  0  0
   25.5736  -21.8938  -13.5447 O   0  0  0  0  0  0  0  0  0  0  0  0
   25.6422  -20.3151   -5.4596 C   0  0  0  0  0  0  0  0  0  0  0  0
   26.6494  -20.0514   -6.9491 S   0  0  0  0  0  0  0  0  0  0  0  0
   25.7609  -20.6002   -8.4321 C   0  0  0  0  0  0  0  0  0  0  0  0
   26.6926  -20.4152   -9.6030 C   0  0  0  0  0  0  0  0  0  0  0  0
   26.0420  -20.9334  -10.8993 C   0  0  2  0  0  0  0  0  0  0  0  0
   26.9652  -20.8410  -11.9703 N   0  0  0  0  0  0  0  0  0  0  0  0
   24.8360  -20.0812  -11.0744 C   0  0  0  0  0  0  0  0  0  0  0  0
   24.9988  -18.9187  -11.5178 O   0  0  0  0  0  0  0  0  0  0  0  0
   22.9552  -22.0420  -15.5070 C   0  0  0  0  0  0  0  0  0  0  0  0
   22.3529  -20.3413  -15.6785 S   0  0  0  0  0  0  0  0  0  0  0  0
   22.3036  -19.6014  -14.0181 C   0  0  0  0  0  0  0  0  0  0  0  0
   22.5316  -20.6766  -12.9885 C   0  0  0  0  0  0  0  0  0  0  0  0
   22.3533  -20.2205  -11.5656 C   0  0  2  0  0  0  0  0  0  0  0  0
   23.5275  -20.5242  -10.7645 N   0  0  0  0  0  0  0  0  0  0  0  0
   21.1798  -20.8041  -10.8989 C   0  0  0  0  0  0  0  0  0  0  0  0
   21.2910  -21.9582  -10.3766 O   0  0  0  0  0  0  0  0  0  0  0  0
   19.9317  -20.2259  -10.7681 O   0  0  0  0  0  0  0  0  0  0  0  0
  1  2  1  0
  3  2  1  0
  4  3  1  0
  5  6  1  6
  5  4  1  0
  7  5  1  0
  8  7  2  0
 10  9  1  0
 11 12  1  0
 11 10  1  0
 13 12  1  1
 13 15  1  0
 13 14  1  0
 14  7  1  0
 15 16  2  0
 18 17  1  0
 19 18  1  0
 21 20  1  6
 20 19  1  0
 22 21  1  0
 22 15  1  0
 23 21  1  0
 24 23  2  0
 25 23  1  0
M  END
$$$$
