MMM.pdb
     RDKit          3D

 25 24  0  0  1  0  0  0  0  0999 V2000
   31.9407  -22.7345   -9.5574 C   0  0  0  0  0  0  0  0  0  0  0  0
   32.6545  -22.7689  -11.1836 S   0  0  0  0  0  0  0  0  0  0  0  0
   31.6752  -22.1893  -12.5353 C   0  0  0  0  0  0  0  0  0  0  0  0
   30.4958  -21.3758  -12.1918 C   0  0  0  0  0  0  0  0  0  0  0  0
   29.6975  -20.8644  -13.3146 C   0  0  2  0  0  0  0  0  0  0  0  0
   30.4181  -19.9448  -14.1211 N   0  0  0  0  0  0  0  0  0  0  0  0
   28.4432  -20.2343  -12.7435 C   0  0  0  0  0  0  0  0  0  0  0  0
   28.5337  -19.0118  -12.4664 O   0  0  0  0  0  0  0  0  0  0  0  0
   20.7095  -20.1079  -11.7348 C   0  0  0  0  0  0  0  0  0  0  0  0
   22.1720  -20.9277  -12.4359 S   0  0  0  0  0  0  0  0  0  0  0  0
   23.6914  -20.2961  -11.6728 C   0  0  0  0  0  0  0  0  0  0  0  0
   24.8509  -20.9098  -12.4159 C   0  0  0  0  0  0  0  0  0  0  0  0
   26.1875  -20.4836  -11.7803 C   0  0  2  0  0  0  0  0  0  0  0  0
   27.2668  -20.9897  -12.5462 N   0  0  0  0  0  0  0  0  0  0  0  0
   26.1295  -21.0268  -10.3972 C   0  0  0  0  0  0  0  0  0  0  0  0
   26.1276  -22.2736  -10.2566 O   0  0  0  0  0  0  0  0  0  0  0  0
   29.5074  -19.1030   -5.3204 C   0  0  0  0  0  0  0  0  0  0  0  0
   27.8750  -19.1670   -4.5359 S   0  0  0  0  0  0  0  0  0  0  0  0
   26.8311  -20.2845   -5.5198 C   0  0  0  0  0  0  0  0  0  0  0  0
   26.8519  -19.8438   -6.9598 C   0  0  0  0  0  0  0  0  0  0  0  0
   26.0372  -20.7073   -7.8845 C   0  0  2  0  0  0  0  0  0  0  0  0
   26.0769  -20.2029   -9.2470 N   0  0  0  0  0  0  0  0  0  0  0  0
   24.6282  -20.8386   -7.4849 C   0  0  0  0  0  0  0  0  0  0  0  0
   24.3582  -21.4689   -6.4139 O   0  0  0  0  0  0  0  0  0  0  0  0
   23.5291  -20.3400   -8.1574 O   0  0  0  0  0  0  0  0  0  0  0  0
  1  2  1  0
  3  2  1  0
  4  3  1  0
  5  6  1  1
  5  4  1  0
  7  5  1  0
  8  7  2  0
 10  9  1  0
 11 12  1  0
 11 10  1  0
 13 12  1  6
 13 15  1  0
 13 14  1  0
 14  7  1  0
 15 16  2  0
 18 17  1  0
 19 18  1  0
 21 20  1  1
 20 19  1  0
 22 21  1  0
 22 15  1  0
 23 21  1  0
 24 23  2  0
 25 23  1  0
M  END
$$$$
