MMM.pdb
     RDKit          3D

 25 24  0  0  1  0  0  0  0  0999 V2000
   27.1066  -18.3659   -6.6743 C   0  0  0  0  0  0  0  0  0  0  0  0
   26.8589  -20.1240   -6.6246 S   0  0  0  0  0  0  0  0  0  0  0  0
   26.8808  -21.0116   -8.1523 C   0  0  0  0  0  0  0  0  0  0  0  0
   26.2915  -20.3295   -9.3177 C   0  0  0  0  0  0  0  0  0  0  0  0
   26.2456  -21.0907  -10.5739 C   0  0  2  0  0  0  0  0  0  0  0  0
   27.4895  -21.6982  -10.8885 N   0  0  0  0  0  0  0  0  0  0  0  0
   25.7973  -20.1476  -11.6721 C   0  0  0  0  0  0  0  0  0  0  0  0
   24.6614  -19.6347  -11.5102 O   0  0  0  0  0  0  0  0  0  0  0  0
   29.6878  -18.6454  -16.5500 C   0  0  0  0  0  0  0  0  0  0  0  0
   28.3467  -17.4816  -16.9368 S   0  0  0  0  0  0  0  0  0  0  0  0
   26.9026  -17.7910  -15.8838 C   0  0  0  0  0  0  0  0  0  0  0  0
   27.3284  -18.7727  -14.8217 C   0  0  0  0  0  0  0  0  0  0  0  0
   26.1647  -19.0632  -13.8555 C   0  0  2  0  0  0  0  0  0  0  0  0
   26.6176  -19.8796  -12.7897 N   0  0  0  0  0  0  0  0  0  0  0  0
   25.1302  -19.7097  -14.7059 C   0  0  0  0  0  0  0  0  0  0  0  0
   25.3135  -20.9033  -15.0468 O   0  0  0  0  0  0  0  0  0  0  0  0
   21.1558  -21.8611  -12.0782 C   0  0  0  0  0  0  0  0  0  0  0  0
   19.8444  -21.5078  -13.2782 S   0  0  0  0  0  0  0  0  0  0  0  0
   20.6295  -20.8361  -14.7745 C   0  0  0  0  0  0  0  0  0  0  0  0
   21.9496  -20.2123  -14.4052 C   0  0  0  0  0  0  0  0  0  0  0  0
   22.7504  -19.7151  -15.5782 C   0  0  2  0  0  0  0  0  0  0  0  0
   23.9610  -19.0401  -15.1408 N   0  0  0  0  0  0  0  0  0  0  0  0
   22.0076  -18.8004  -16.4578 C   0  0  0  0  0  0  0  0  0  0  0  0
   21.5931  -19.2390  -17.5772 O   0  0  0  0  0  0  0  0  0  0  0  0
   21.6963  -17.4789  -16.2014 O   0  0  0  0  0  0  0  0  0  0  0  0
  1  2  1  0
  3  2  1  0
  4  3  1  0
  5  6  1  6
  5  4  1  0
  7  5  1  0
  8  7  2  0
 10  9  1  0
 11 12  1  0
 11 10  1  0
 13 12  1  6
 13 15  1  0
 13 14  1  0
 14  7  1  0
 15 16  2  0
 18 17  1  0
 19 18  1  0
 21 20  1  1
 20 19  1  0
 22 21  1  0
 22 15  1  0
 23 21  1  0
 24 23  2  0
 25 23  1  0
M  END
$$$$
