MMM.pdb
     RDKit          3D

 25 24  0  0  1  0  0  0  0  0999 V2000
   27.0775  -15.4942  -14.6854 C   0  0  0  0  0  0  0  0  0  0  0  0
   28.1139  -16.3127  -15.8734 S   0  0  0  0  0  0  0  0  0  0  0  0
   27.4069  -17.6117  -16.8402 C   0  0  0  0  0  0  0  0  0  0  0  0
   26.7560  -18.7050  -16.0974 C   0  0  0  0  0  0  0  0  0  0  0  0
   27.6337  -19.5794  -15.3071 C   0  0  2  0  0  0  0  0  0  0  0  0
   28.4840  -20.3752  -16.1188 N   0  0  0  0  0  0  0  0  0  0  0  0
   26.7559  -20.4374  -14.4183 C   0  0  0  0  0  0  0  0  0  0  0  0
   26.2244  -21.4272  -14.9817 O   0  0  0  0  0  0  0  0  0  0  0  0
   25.8167  -19.5275   -7.7144 C   0  0  0  0  0  0  0  0  0  0  0  0
   25.8384  -21.2917   -8.1499 S   0  0  0  0  0  0  0  0  0  0  0  0
   25.2477  -21.5430   -9.8463 C   0  0  0  0  0  0  0  0  0  0  0  0
   26.0951  -20.6786  -10.7452 C   0  0  0  0  0  0  0  0  0  0  0  0
   25.7459  -20.9303  -12.2240 C   0  0  2  0  0  0  0  0  0  0  0  0
   26.5646  -20.1256  -13.0546 N   0  0  0  0  0  0  0  0  0  0  0  0
   24.2971  -20.6098  -12.3219 C   0  0  0  0  0  0  0  0  0  0  0  0
   23.9647  -19.4002  -12.3509 O   0  0  0  0  0  0  0  0  0  0  0  0
   21.4624  -24.1106  -16.2479 C   0  0  0  0  0  0  0  0  0  0  0  0
   19.8490  -23.4717  -15.7251 S   0  0  0  0  0  0  0  0  0  0  0  0
   20.1370  -22.2516  -14.4080 C   0  0  0  0  0  0  0  0  0  0  0  0
   21.5502  -22.3876  -13.9056 C   0  0  0  0  0  0  0  0  0  0  0  0
   21.9414  -21.3677  -12.8706 C   0  0  2  0  0  0  0  0  0  0  0  0
   23.2902  -21.6034  -12.3830 N   0  0  0  0  0  0  0  0  0  0  0  0
   21.0366  -21.3216  -11.7124 C   0  0  0  0  0  0  0  0  0  0  0  0
   21.3780  -21.9342  -10.6517 O   0  0  0  0  0  0  0  0  0  0  0  0
   19.8213  -20.6684  -11.6394 O   0  0  0  0  0  0  0  0  0  0  0  0
  1  2  1  0
  3  2  1  0
  4  3  1  0
  5  6  1  6
  5  4  1  0
  7  5  1  0
  8  7  2  0
 10  9  1  0
 11 12  1  0
 11 10  1  0
 13 12  1  1
 13 15  1  0
 13 14  1  0
 14  7  1  0
 15 16  2  0
 18 17  1  0
 19 18  1  0
 21 20  1  6
 20 19  1  0
 22 21  1  0
 22 15  1  0
 23 21  1  0
 24 23  2  0
 25 23  1  0
M  END
$$$$
