MMM.pdb
     RDKit          3D

 25 24  0  0  1  0  0  0  0  0999 V2000
   27.9541  -23.0704  -15.4776 C   0  0  0  0  0  0  0  0  0  0  0  0
   28.8681  -21.9564  -16.5162 S   0  0  0  0  0  0  0  0  0  0  0  0
   29.4630  -20.4528  -15.8040 C   0  0  0  0  0  0  0  0  0  0  0  0
   28.7595  -19.9705  -14.6028 C   0  0  0  0  0  0  0  0  0  0  0  0
   27.4290  -19.3816  -14.8094 C   0  0  2  0  0  0  0  0  0  0  0  0
   27.4893  -18.0970  -15.4106 N   0  0  0  0  0  0  0  0  0  0  0  0
   26.7299  -19.3311  -13.4659 C   0  0  0  0  0  0  0  0  0  0  0  0
   27.1111  -18.4143  -12.6953 O   0  0  0  0  0  0  0  0  0  0  0  0
   20.9268  -19.6662  -12.8854 C   0  0  0  0  0  0  0  0  0  0  0  0
   21.6067  -19.3798  -11.2246 S   0  0  0  0  0  0  0  0  0  0  0  0
   22.8208  -20.6578  -10.7972 C   0  0  0  0  0  0  0  0  0  0  0  0
   23.6647  -20.8979  -12.0234 C   0  0  0  0  0  0  0  0  0  0  0  0
   25.0134  -20.1637  -11.9044 C   0  0  2  0  0  0  0  0  0  0  0  0
   25.7227  -20.2608  -13.1271 N   0  0  0  0  0  0  0  0  0  0  0  0
   25.6966  -20.8276  -10.7626 C   0  0  0  0  0  0  0  0  0  0  0  0
   25.9800  -22.0447  -10.8761 O   0  0  0  0  0  0  0  0  0  0  0  0
   29.8470  -18.7732   -6.0589 C   0  0  0  0  0  0  0  0  0  0  0  0
   28.3957  -19.2456   -5.0816 S   0  0  0  0  0  0  0  0  0  0  0  0
   27.4468  -20.4576   -6.0497 C   0  0  0  0  0  0  0  0  0  0  0  0
   27.1131  -19.8671   -7.3943 C   0  0  0  0  0  0  0  0  0  0  0  0
   26.4150  -20.8147   -8.3319 C   0  0  2  0  0  0  0  0  0  0  0  0
   26.0359  -20.1491   -9.5671 N   0  0  0  0  0  0  0  0  0  0  0  0
   25.2124  -21.4370   -7.7585 C   0  0  0  0  0  0  0  0  0  0  0  0
   24.0836  -20.8974   -7.9859 O   0  0  0  0  0  0  0  0  0  0  0  0
   25.1641  -22.5763   -6.9783 O   0  0  0  0  0  0  0  0  0  0  0  0
  1  2  1  0
  3  2  1  0
  4  3  1  0
  5  6  1  1
  5  4  1  0
  7  5  1  0
  8  7  2  0
 10  9  1  0
 11 12  1  0
 11 10  1  0
 13 12  1  6
 13 15  1  0
 13 14  1  0
 14  7  1  0
 15 16  2  0
 18 17  1  0
 19 18  1  0
 21 20  1  1
 20 19  1  0
 22 21  1  0
 22 15  1  0
 23 21  1  0
 24 23  2  0
 25 23  1  0
M  END
$$$$
