MMM.pdb
     RDKit          3D

 25 24  0  0  1  0  0  0  0  0999 V2000
   21.4040  -15.8385   -0.1237 C   0  0  0  0  0  0  0  0  0  0  0  0
   20.9022  -16.1098    1.5585 S   0  0  0  0  0  0  0  0  0  0  0  0
   19.2148  -15.8035    1.9838 C   0  0  0  0  0  0  0  0  0  0  0  0
   18.8252  -16.0889    3.3757 C   0  0  0  0  0  0  0  0  0  0  0  0
   17.4230  -15.8334    3.7338 C   0  0  2  0  0  0  0  0  0  0  0  0
   17.0431  -14.4826    3.5180 N   0  0  0  0  0  0  0  0  0  0  0  0
   17.2328  -16.2366    5.1822 C   0  0  0  0  0  0  0  0  0  0  0  0
   17.3902  -15.3151    6.0222 O   0  0  0  0  0  0  0  0  0  0  0  0
   13.9103  -21.4364    5.4206 C   0  0  0  0  0  0  0  0  0  0  0  0
   14.2343  -20.9927    7.1528 S   0  0  0  0  0  0  0  0  0  0  0  0
   14.9169  -19.3163    7.2708 C   0  0  0  0  0  0  0  0  0  0  0  0
   16.3977  -19.4192    7.0065 C   0  0  0  0  0  0  0  0  0  0  0  0
   17.0224  -18.0176    6.8738 C   0  0  2  0  0  0  0  0  0  0  0  0
   16.9015  -17.5623    5.5375 N   0  0  0  0  0  0  0  0  0  0  0  0
   18.4298  -18.1960    7.3196 C   0  0  0  0  0  0  0  0  0  0  0  0
   19.2749  -18.5542    6.4641 O   0  0  0  0  0  0  0  0  0  0  0  0
   22.1187  -13.9999    9.9625 C   0  0  0  0  0  0  0  0  0  0  0  0
   22.4304  -15.2925   11.1940 S   0  0  0  0  0  0  0  0  0  0  0  0
   22.0321  -16.8935   10.4292 C   0  0  0  0  0  0  0  0  0  0  0  0
   20.6337  -16.8435    9.8726 C   0  0  0  0  0  0  0  0  0  0  0  0
   20.2294  -18.0699    9.1000 C   0  0  2  0  0  0  0  0  0  0  0  0
   18.8488  -17.9801    8.6547 N   0  0  0  0  0  0  0  0  0  0  0  0
   20.3879  -19.3233    9.8525 C   0  0  0  0  0  0  0  0  0  0  0  0
   19.4313  -19.7087   10.5964 O   0  0  0  0  0  0  0  0  0  0  0  0
   21.4889  -20.1580    9.8440 O   0  0  0  0  0  0  0  0  0  0  0  0
  1  2  1  0
  3  2  1  0
  4  3  1  0
  5  6  1  1
  5  4  1  0
  7  5  1  0
  8  7  2  0
 10  9  1  0
 11 12  1  0
 11 10  1  0
 13 12  1  6
 13 15  1  0
 13 14  1  0
 14  7  1  0
 15 16  2  0
 18 17  1  0
 19 18  1  0
 21 20  1  1
 20 19  1  0
 22 21  1  0
 22 15  1  0
 23 21  1  0
 24 23  2  0
 25 23  1  0
M  END
$$$$
