RDH.pdb
     RDKit          3D

 30 30  0  0  1  0  0  0  0  0999 V2000
    9.9554  -15.7230   15.5523 N   0  0  0  0  0  0  0  0  0  0  0  0
    8.9519  -14.7095   15.5776 C   0  0  0  0  0  0  0  0  0  0  0  0
    8.0969  -14.6483   14.6305 N   0  0  0  0  0  0  0  0  0  0  0  0
    8.9128  -13.7684   16.6684 N   0  0  0  0  0  0  0  0  0  0  0  0
    7.6443  -13.5367   17.3092 C   0  0  0  0  0  0  0  0  0  0  0  0
    7.5619  -14.4565   18.5073 C   0  0  0  0  0  0  0  0  0  0  0  0
    7.3195  -13.6916   19.7827 C   0  0  0  0  0  0  0  0  0  0  0  0
    8.5765  -13.6175   20.6196 C   0  0  2  0  0  0  0  0  0  0  0  0
    9.7659  -13.5528   19.8138 N   0  0  0  0  0  0  0  0  0  0  0  0
    8.6901  -14.7481   21.5631 C   0  0  0  0  0  0  0  0  0  0  0  0
    7.6879  -15.1221   22.2481 O   0  0  0  0  0  0  0  0  0  0  0  0
    7.2435  -14.0646   14.6899 N   0  0  0  0  0  0  0  0  0  0  0  0
    9.9184  -15.4135   21.7018 C   0  0  1  0  0  0  0  0  0  0  0  0
   10.0486  -16.5635   22.6476 C   0  0  0  0  0  0  0  0  0  0  0  0
   11.3216  -17.2399   22.2657 C   0  0  0  0  0  0  0  0  0  0  0  0
   11.3083  -18.1651   21.1713 O   0  0  0  0  0  0  0  0  0  0  0  0
   10.6109  -19.1687   20.9424 C   0  0  0  0  0  0  0  0  0  0  0  0
   10.1750  -15.9236   23.9621 O   0  0  0  0  0  0  0  0  0  0  0  0
   10.3861  -14.6720   24.0581 O   0  0  0  0  0  0  0  0  0  0  0  0
   12.2635  -17.9122   20.1358 N   0  0  0  0  0  0  0  0  0  0  0  0
   10.0701  -16.6171   25.1623 C   0  0  1  0  0  0  0  0  0  0  0  0
    9.3262  -16.0473   26.3226 C   0  0  0  0  0  0  0  0  0  0  0  0
    7.9564  -15.7533   25.7525 C   0  0  0  0  0  0  0  0  0  0  0  0
    7.4789  -14.3800   26.0214 C   0  0  0  0  0  0  0  0  0  0  0  0
    8.2303  -13.4555   26.7430 N   0  0  0  0  0  0  0  0  0  0  0  0
    7.5291  -12.3284   26.8060 C   0  0  0  0  0  0  0  0  0  0  0  0
    6.3852  -12.5349   26.1521 N   0  0  0  0  0  0  0  0  0  0  0  0
    6.3386  -13.7865   25.6653 C   0  0  0  0  0  0  0  0  0  0  0  0
    9.3182  -17.1008   27.3502 O   0  0  0  0  0  0  0  0  0  0  0  0
    9.7778  -16.8418   28.6210 O   0  0  0  0  0  0  0  0  0  0  0  0
  1  2  1  0
  2  3  2  0
  4  2  1  0
  5  4  1  0
  6  5  1  0
  7  6  1  0
  8 10  1  0
  8  7  1  0
  8  9  1  6
 10 11  2  0
 12 13  1  0
 12 10  1  0
 13 14  1  1
 15 19  1  0
 15 14  1  0
 16 15  2  0
 17 13  1  0
 18 17  2  0
 20 17  1  0
 21 20  1  0
 21 22  1  1
 23 22  1  0
 24 23  2  0
 25 24  1  0
 26 25  1  0
 26 27  2  0
 27 23  1  0
 28 21  1  0
 28 29  1  0
 30 28  2  0
M  END
$$$$
