RDH.pdb
     RDKit          3D

 30 30  0  0  1  0  0  0  0  0999 V2000
    8.4610  -13.4399   15.2861 N   0  0  0  0  0  0  0  0  0  0  0  0
    7.8335  -13.6524   16.5495 C   0  0  0  0  0  0  0  0  0  0  0  0
    7.7296  -12.6796   17.3709 N   0  0  0  0  0  0  0  0  0  0  0  0
    7.3241  -14.9583   16.8848 N   0  0  0  0  0  0  0  0  0  0  0  0
    7.1443  -15.2705   18.2788 C   0  0  0  0  0  0  0  0  0  0  0  0
    8.1733  -14.4839   19.0605 C   0  0  0  0  0  0  0  0  0  0  0  0
    8.0513  -14.7242   20.5431 C   0  0  0  0  0  0  0  0  0  0  0  0
    9.3824  -15.1199   21.1412 C   0  0  2  0  0  0  0  0  0  0  0  0
   10.0872  -16.0704   20.3239 N   0  0  0  0  0  0  0  0  0  0  0  0
    9.2445  -15.6626   22.5079 C   0  0  0  0  0  0  0  0  0  0  0  0
    8.1983  -15.4353   23.1915 O   0  0  0  0  0  0  0  0  0  0  0  0
    7.2394  -12.7695   18.2787 N   0  0  0  0  0  0  0  0  0  0  0  0
   10.2809  -16.4365   23.0534 C   0  0  1  0  0  0  0  0  0  0  0  0
   10.1491  -17.0092   24.4276 C   0  0  0  0  0  0  0  0  0  0  0  0
   10.8971  -18.2987   24.3858 C   0  0  0  0  0  0  0  0  0  0  0  0
   10.5807  -19.2453   23.3574 O   0  0  0  0  0  0  0  0  0  0  0  0
    9.4943  -19.6738   22.9306 C   0  0  0  0  0  0  0  0  0  0  0  0
   10.8403  -16.0357   25.2808 O   0  0  0  0  0  0  0  0  0  0  0  0
   12.0741  -16.1767   25.5600 O   0  0  0  0  0  0  0  0  0  0  0  0
   11.7025  -19.8200   22.6792 N   0  0  0  0  0  0  0  0  0  0  0  0
   10.2169  -14.9185   25.8246 C   0  0  2  0  0  0  0  0  0  0  0  0
    9.8229  -14.8755   27.2624 C   0  0  0  0  0  0  0  0  0  0  0  0
    8.3135  -14.9624   27.2166 C   0  0  0  0  0  0  0  0  0  0  0  0
    7.6570  -13.7227   26.7491 C   0  0  0  0  0  0  0  0  0  0  0  0
    8.3777  -12.5919   26.3721 N   0  0  0  0  0  0  0  0  0  0  0  0
    7.5032  -11.6611   26.0052 C   0  0  0  0  0  0  0  0  0  0  0  0
    6.2842  -12.1837   26.1453 N   0  0  0  0  0  0  0  0  0  0  0  0
    6.3607  -13.4458   26.6001 C   0  0  0  0  0  0  0  0  0  0  0  0
   10.4575  -16.0472   27.8872 O   0  0  0  0  0  0  0  0  0  0  0  0
   10.6832  -16.0799   29.2440 O   0  0  0  0  0  0  0  0  0  0  0  0
  1  2  1  0
  2  3  2  0
  4  2  1  0
  5  4  1  0
  6  5  1  0
  7  6  1  0
  8 10  1  0
  8  7  1  0
  8  9  1  6
 10 11  2  0
 12 13  1  0
 12 10  1  0
 13 14  1  1
 15 19  1  0
 15 14  1  0
 16 15  2  0
 17 13  1  0
 18 17  2  0
 20 17  1  0
 21 20  1  0
 21 22  1  6
 23 22  1  0
 24 23  2  0
 25 24  1  0
 26 25  1  0
 26 27  2  0
 27 23  1  0
 28 21  1  0
 28 29  1  0
 30 28  2  0
M  END
$$$$
