RDH.pdb
     RDKit          3D

 30 30  0  0  1  0  0  0  0  0999 V2000
    6.8179  -14.2773   13.8910 N   0  0  0  0  0  0  0  0  0  0  0  0
    8.1919  -14.4958   14.2063 C   0  0  0  0  0  0  0  0  0  0  0  0
    8.9897  -14.8977   13.2931 N   0  0  0  0  0  0  0  0  0  0  0  0
    8.6645  -14.2609   15.5474 N   0  0  0  0  0  0  0  0  0  0  0  0
    7.6886  -14.2237   16.6055 C   0  0  0  0  0  0  0  0  0  0  0  0
    8.4164  -13.8862   17.8880 C   0  0  0  0  0  0  0  0  0  0  0  0
    7.4800  -13.8484   19.0680 C   0  0  0  0  0  0  0  0  0  0  0  0
    8.2221  -13.5079   20.3404 C   0  0  2  0  0  0  0  0  0  0  0  0
    9.4521  -12.8080   20.0845 N   0  0  0  0  0  0  0  0  0  0  0  0
    8.5049  -14.7022   21.1620 C   0  0  0  0  0  0  0  0  0  0  0  0
    7.5738  -15.5079   21.4740 O   0  0  0  0  0  0  0  0  0  0  0  0
    9.9910  -15.0892   13.4757 N   0  0  0  0  0  0  0  0  0  0  0  0
    9.8159  -14.9464   21.6005 C   0  0  1  0  0  0  0  0  0  0  0  0
   10.1278  -16.1747   22.3930 C   0  0  0  0  0  0  0  0  0  0  0  0
   11.5467  -16.4986   22.0676 C   0  0  0  0  0  0  0  0  0  0  0  0
   11.8196  -17.6213   21.2198 O   0  0  0  0  0  0  0  0  0  0  0  0
   11.0806  -18.5026   20.7473 C   0  0  0  0  0  0  0  0  0  0  0  0
   10.0028  -15.7335   23.7870 O   0  0  0  0  0  0  0  0  0  0  0  0
   10.2094  -14.5185   24.1052 O   0  0  0  0  0  0  0  0  0  0  0  0
   13.1870  -17.7834   20.8290 N   0  0  0  0  0  0  0  0  0  0  0  0
    9.6537  -16.5848   24.8291 C   0  0  1  0  0  0  0  0  0  0  0  0
    9.0890  -16.0558   26.1041 C   0  0  0  0  0  0  0  0  0  0  0  0
    7.6404  -15.7863   25.7624 C   0  0  0  0  0  0  0  0  0  0  0  0
    7.1979  -14.4107   26.0758 C   0  0  0  0  0  0  0  0  0  0  0  0
    8.0304  -13.4805   26.6938 N   0  0  0  0  0  0  0  0  0  0  0  0
    7.3413  -12.3528   26.8319 C   0  0  0  0  0  0  0  0  0  0  0  0
    6.1269  -12.5642   26.3226 N   0  0  0  0  0  0  0  0  0  0  0  0
    6.0226  -13.8197   25.8553 C   0  0  0  0  0  0  0  0  0  0  0  0
    9.2661  -17.1281   27.0964 O   0  0  0  0  0  0  0  0  0  0  0  0
    9.7166  -18.3699   26.7114 O   0  0  0  0  0  0  0  0  0  0  0  0
  1  2  1  0
  2  3  2  0
  4  2  1  0
  5  4  1  0
  6  5  1  0
  7  6  1  0
  8 10  1  0
  8  7  1  0
  8  9  1  6
 10 11  2  0
 12 13  1  0
 12 10  1  0
 13 14  1  6
 15 19  1  0
 15 14  1  0
 16 15  2  0
 17 13  1  0
 18 17  2  0
 20 17  1  0
 21 20  1  0
 21 22  1  1
 23 22  1  0
 24 23  2  0
 25 24  1  0
 26 25  1  0
 26 27  2  0
 27 23  1  0
 28 21  1  0
 28 29  1  0
 30 28  2  0
M  END
$$$$
