RDH.pdb
     RDKit          3D

 30 30  0  0  1  0  0  0  0  0999 V2000
    8.0787  -11.9116   21.1087 N   0  0  0  0  0  0  0  0  0  0  0  0
    7.6066  -13.2541   21.2083 C   0  0  0  0  0  0  0  0  0  0  0  0
    7.2480  -13.7111   22.3460 N   0  0  0  0  0  0  0  0  0  0  0  0
    7.5388  -14.0782   20.0279 N   0  0  0  0  0  0  0  0  0  0  0  0
    8.1605  -13.5827   18.8274 C   0  0  0  0  0  0  0  0  0  0  0  0
    9.6502  -13.8127   18.9549 C   0  0  0  0  0  0  0  0  0  0  0  0
   10.3657  -13.5736   17.6504 C   0  0  0  0  0  0  0  0  0  0  0  0
   10.9130  -14.8649   17.0857 C   0  0  2  0  0  0  0  0  0  0  0  0
    9.8860  -15.8512   16.8840 N   0  0  0  0  0  0  0  0  0  0  0  0
   11.9791  -15.4398   17.9309 C   0  0  0  0  0  0  0  0  0  0  0  0
   11.7481  -16.4504   18.6650 O   0  0  0  0  0  0  0  0  0  0  0  0
    6.9307  -14.6882   22.4768 N   0  0  0  0  0  0  0  0  0  0  0  0
   13.2583  -14.8619   17.9203 C   0  0  2  0  0  0  0  0  0  0  0  0
   14.3740  -15.4898   18.6917 C   0  0  0  0  0  0  0  0  0  0  0  0
   15.6113  -14.8107   18.2101 C   0  0  0  0  0  0  0  0  0  0  0  0
   16.8842  -15.3545   18.5813 O   0  0  0  0  0  0  0  0  0  0  0  0
   17.1991  -16.4145   19.1500 C   0  0  0  0  0  0  0  0  0  0  0  0
   14.0884  -15.1221   20.0833 O   0  0  0  0  0  0  0  0  0  0  0  0
   14.0146  -13.8997   20.4305 O   0  0  0  0  0  0  0  0  0  0  0  0
   18.0210  -14.5508   18.2488 N   0  0  0  0  0  0  0  0  0  0  0  0
   13.8777  -16.0553   21.0920 C   0  0  1  0  0  0  0  0  0  0  0  0
   13.7235  -15.6351   22.5147 C   0  0  0  0  0  0  0  0  0  0  0  0
   12.6647  -16.5752   23.0465 C   0  0  0  0  0  0  0  0  0  0  0  0
   11.2857  -16.1981   22.6687 C   0  0  0  0  0  0  0  0  0  0  0  0
   11.0054  -15.0877   21.8759 N   0  0  0  0  0  0  0  0  0  0  0  0
    9.6871  -15.0268   21.7203 C   0  0  0  0  0  0  0  0  0  0  0  0
    9.1603  -16.0550   22.3867 N   0  0  0  0  0  0  0  0  0  0  0  0
   10.1259  -16.7824   22.9733 C   0  0  0  0  0  0  0  0  0  0  0  0
   15.0436  -15.8297   23.1355 O   0  0  0  0  0  0  0  0  0  0  0  0
   15.2655  -15.4522   24.4398 O   0  0  0  0  0  0  0  0  0  0  0  0
  1  2  1  0
  2  3  2  0
  4  2  1  0
  5  4  1  0
  6  5  1  0
  7  6  1  0
  8 10  1  0
  8  7  1  0
  8  9  1  1
 10 11  2  0
 12 13  1  0
 12 10  1  0
 13 14  1  1
 15 19  1  0
 15 14  1  0
 16 15  2  0
 17 13  1  0
 18 17  2  0
 20 17  1  0
 21 20  1  0
 21 22  1  1
 23 22  1  0
 24 23  2  0
 25 24  1  0
 26 25  1  0
 26 27  2  0
 27 23  1  0
 28 21  1  0
 28 29  1  0
 30 28  2  0
M  END
$$$$
