RDH.pdb
     RDKit          3D

 30 30  0  0  1  0  0  0  0  0999 V2000
    7.0230  -12.4612   14.0482 N   0  0  0  0  0  0  0  0  0  0  0  0
    7.7831  -13.6666   13.9836 C   0  0  0  0  0  0  0  0  0  0  0  0
    7.7002  -14.4067   12.9457 N   0  0  0  0  0  0  0  0  0  0  0  0
    8.6345  -14.0356   15.0864 N   0  0  0  0  0  0  0  0  0  0  0  0
    8.1548  -15.0433   15.9961 C   0  0  0  0  0  0  0  0  0  0  0  0
    9.2249  -15.2620   17.0428 C   0  0  0  0  0  0  0  0  0  0  0  0
   10.2912  -16.2115   16.5610 C   0  0  0  0  0  0  0  0  0  0  0  0
    9.9477  -17.6404   16.9161 C   0  0  2  0  0  0  0  0  0  0  0  0
    8.6194  -18.0021   16.5002 N   0  0  0  0  0  0  0  0  0  0  0  0
   10.0946  -17.9106   18.3608 C   0  0  0  0  0  0  0  0  0  0  0  0
    9.0967  -18.2803   19.0543 O   0  0  0  0  0  0  0  0  0  0  0  0
    8.2443  -15.2818   12.8430 N   0  0  0  0  0  0  0  0  0  0  0  0
   11.3499  -17.7566   18.9699 C   0  0  1  0  0  0  0  0  0  0  0  0
   11.5920  -18.2980   20.3419 C   0  0  0  0  0  0  0  0  0  0  0  0
   13.0449  -18.6324   20.3781 C   0  0  0  0  0  0  0  0  0  0  0  0
   13.5519  -19.3797   21.4908 O   0  0  0  0  0  0  0  0  0  0  0  0
   13.0098  -19.7840   22.5342 C   0  0  0  0  0  0  0  0  0  0  0  0
   11.2987  -17.1622   21.2236 O   0  0  0  0  0  0  0  0  0  0  0  0
   11.9187  -16.0586   21.0899 O   0  0  0  0  0  0  0  0  0  0  0  0
   14.9347  -19.7413   21.4146 N   0  0  0  0  0  0  0  0  0  0  0  0
   10.3459  -17.2066   22.2349 C   0  0  1  0  0  0  0  0  0  0  0  0
   10.1971  -16.0856   23.2073 C   0  0  0  0  0  0  0  0  0  0  0  0
    8.7298  -15.7308   23.1136 C   0  0  0  0  0  0  0  0  0  0  0  0
    8.3779  -14.9558   21.9045 C   0  0  0  0  0  0  0  0  0  0  0  0
    9.3330  -14.5367   20.9814 N   0  0  0  0  0  0  0  0  0  0  0  0
    8.6996  -13.8726   20.0203 C   0  0  0  0  0  0  0  0  0  0  0  0
    7.4013  -13.8738   20.3255 N   0  0  0  0  0  0  0  0  0  0  0  0
    7.1873  -14.5331   21.4767 C   0  0  0  0  0  0  0  0  0  0  0  0
   10.5832  -16.6365   24.5163 O   0  0  0  0  0  0  0  0  0  0  0  0
   10.7033  -15.8144   25.6131 O   0  0  0  0  0  0  0  0  0  0  0  0
  1  2  1  0
  2  3  2  0
  4  2  1  0
  5  4  1  0
  6  5  1  0
  7  6  1  0
  8 10  1  0
  8  7  1  0
  8  9  1  1
 10 11  2  0
 12 13  1  0
 12 10  1  0
 13 14  1  1
 15 19  1  0
 15 14  1  0
 16 15  2  0
 17 13  1  0
 18 17  2  0
 20 17  1  0
 21 20  1  0
 21 22  1  1
 23 22  1  0
 24 23  2  0
 25 24  1  0
 26 25  1  0
 26 27  2  0
 27 23  1  0
 28 21  1  0
 28 29  1  0
 30 28  2  0
M  END
$$$$
