RDH.pdb
     RDKit          3D

 30 30  0  0  1  0  0  0  0  0999 V2000
    3.6684  -19.9029   18.8258 N   0  0  0  0  0  0  0  0  0  0  0  0
    3.3096  -19.6950   20.1908 C   0  0  0  0  0  0  0  0  0  0  0  0
    2.0792  -19.7413   20.5309 N   0  0  0  0  0  0  0  0  0  0  0  0
    4.3360  -19.4363   21.1689 N   0  0  0  0  0  0  0  0  0  0  0  0
    5.6587  -19.1315   20.6887 C   0  0  0  0  0  0  0  0  0  0  0  0
    6.5214  -20.3530   20.9168 C   0  0  0  0  0  0  0  0  0  0  0  0
    7.9370  -20.1317   20.4500 C   0  0  0  0  0  0  0  0  0  0  0  0
    8.7732  -21.3768   20.6401 C   0  0  2  0  0  0  0  0  0  0  0  0
    8.1506  -22.5440   20.0759 N   0  0  0  0  0  0  0  0  0  0  0  0
    9.0853  -21.6319   22.0611 C   0  0  0  0  0  0  0  0  0  0  0  0
    8.4089  -22.4729   22.7309 O   0  0  0  0  0  0  0  0  0  0  0  0
    1.7683  -19.6051   21.5094 N   0  0  0  0  0  0  0  0  0  0  0  0
   10.1398  -20.9369   22.6739 C   0  0  2  0  0  0  0  0  0  0  0  0
   10.5298  -21.2508   24.0823 C   0  0  0  0  0  0  0  0  0  0  0  0
   12.0187  -21.1687   24.1018 C   0  0  0  0  0  0  0  0  0  0  0  0
   12.7089  -21.4690   25.3214 O   0  0  0  0  0  0  0  0  0  0  0  0
   13.7431  -20.9985   25.8263 C   0  0  0  0  0  0  0  0  0  0  0  0
    9.9394  -20.1565   24.8616 O   0  0  0  0  0  0  0  0  0  0  0  0
   10.0973  -18.9452   24.5042 O   0  0  0  0  0  0  0  0  0  0  0  0
   12.1225  -22.4964   26.1272 N   0  0  0  0  0  0  0  0  0  0  0  0
    9.1819  -20.3588   26.0096 C   0  0  2  0  0  0  0  0  0  0  0  0
    8.7612  -19.2156   26.8702 C   0  0  0  0  0  0  0  0  0  0  0  0
    7.3053  -19.5082   27.1573 C   0  0  0  0  0  0  0  0  0  0  0  0
    6.4181  -19.3327   25.9876 C   0  0  0  0  0  0  0  0  0  0  0  0
    6.6795  -18.4026   24.9842 N   0  0  0  0  0  0  0  0  0  0  0  0
    5.7043  -18.4944   24.0863 C   0  0  0  0  0  0  0  0  0  0  0  0
    4.8649  -19.4418   24.5066 N   0  0  0  0  0  0  0  0  0  0  0  0
    5.2875  -19.9653   25.6697 C   0  0  0  0  0  0  0  0  0  0  0  0
    9.6171  -19.2778   28.0659 O   0  0  0  0  0  0  0  0  0  0  0  0
    9.4549  -18.3732   29.0899 O   0  0  0  0  0  0  0  0  0  0  0  0
  1  2  1  0
  2  3  2  0
  4  2  1  0
  5  4  1  0
  6  5  1  0
  7  6  1  0
  8 10  1  0
  8  7  1  0
  8  9  1  1
 10 11  2  0
 12 13  1  0
 12 10  1  0
 13 14  1  6
 15 19  1  0
 15 14  1  0
 16 15  2  0
 17 13  1  0
 18 17  2  0
 20 17  1  0
 21 20  1  0
 21 22  1  6
 23 22  1  0
 24 23  2  0
 25 24  1  0
 26 25  1  0
 26 27  2  0
 27 23  1  0
 28 21  1  0
 28 29  1  0
 30 28  2  0
M  END
$$$$
