RDH.pdb
     RDKit          3D

 30 30  0  0  1  0  0  0  0  0999 V2000
    7.2079  -12.2424   17.3269 N   0  0  0  0  0  0  0  0  0  0  0  0
    8.1186  -13.3383   17.2595 C   0  0  0  0  0  0  0  0  0  0  0  0
    8.2897  -13.9454   16.1486 N   0  0  0  0  0  0  0  0  0  0  0  0
    8.8347  -13.7474   18.4414 N   0  0  0  0  0  0  0  0  0  0  0  0
    8.5384  -13.0658   19.6746 C   0  0  0  0  0  0  0  0  0  0  0  0
    7.3132  -13.7185   20.2756 C   0  0  0  0  0  0  0  0  0  0  0  0
    7.6819  -14.8096   21.2474 C   0  0  0  0  0  0  0  0  0  0  0  0
    8.2694  -16.0027   20.5283 C   0  0  2  0  0  0  0  0  0  0  0  0
    7.2641  -16.7931   19.8705 N   0  0  0  0  0  0  0  0  0  0  0  0
    9.0562  -16.8694   21.4290 C   0  0  0  0  0  0  0  0  0  0  0  0
    8.4754  -17.6581   22.2378 O   0  0  0  0  0  0  0  0  0  0  0  0
    8.9524  -14.7343   16.0435 N   0  0  0  0  0  0  0  0  0  0  0  0
   10.4584  -16.8188   21.3883 C   0  0  2  0  0  0  0  0  0  0  0  0
   11.2693  -17.6850   22.2971 C   0  0  0  0  0  0  0  0  0  0  0  0
   12.5943  -17.8210   21.6263 C   0  0  0  0  0  0  0  0  0  0  0  0
   12.6731  -18.5598   20.4009 O   0  0  0  0  0  0  0  0  0  0  0  0
   12.2650  -19.6917   20.0874 C   0  0  0  0  0  0  0  0  0  0  0  0
   11.3883  -16.8902   23.5249 O   0  0  0  0  0  0  0  0  0  0  0  0
   11.8636  -15.7099   23.4915 O   0  0  0  0  0  0  0  0  0  0  0  0
   13.3393  -17.8975   19.3210 N   0  0  0  0  0  0  0  0  0  0  0  0
   10.9961  -17.3534   24.7756 C   0  0  1  0  0  0  0  0  0  0  0  0
   11.1552  -16.5123   25.9969 C   0  0  0  0  0  0  0  0  0  0  0  0
    9.7832  -15.9049   26.1872 C   0  0  0  0  0  0  0  0  0  0  0  0
    9.6452  -15.1170   27.4308 C   0  0  0  0  0  0  0  0  0  0  0  0
   10.6934  -14.3690   27.9617 N   0  0  0  0  0  0  0  0  0  0  0  0
   10.2500  -13.7843   29.0696 C   0  0  0  0  0  0  0  0  0  0  0  0
    8.9770  -14.1488   29.2291 N   0  0  0  0  0  0  0  0  0  0  0  0
    8.5910  -14.9651   28.2340 C   0  0  0  0  0  0  0  0  0  0  0  0
   11.5394  -17.4384   27.0742 O   0  0  0  0  0  0  0  0  0  0  0  0
   12.1855  -16.9753   28.1973 O   0  0  0  0  0  0  0  0  0  0  0  0
  1  2  1  0
  2  3  2  0
  4  2  1  0
  5  4  1  0
  6  5  1  0
  7  6  1  0
  8 10  1  0
  8  7  1  0
  8  9  1  1
 10 11  2  0
 12 13  1  0
 12 10  1  0
 13 14  1  1
 15 19  1  0
 15 14  1  0
 16 15  2  0
 17 13  1  0
 18 17  2  0
 20 17  1  0
 21 20  1  0
 21 22  1  1
 23 22  1  0
 24 23  2  0
 25 24  1  0
 26 25  1  0
 26 27  2  0
 27 23  1  0
 28 21  1  0
 28 29  1  0
 30 28  2  0
M  END
$$$$
