RDH.pdb
     RDKit          3D

 30 30  0  0  1  0  0  0  0  0999 V2000
    8.1227  -13.9489   17.0244 N   0  0  0  0  0  0  0  0  0  0  0  0
    7.8318  -13.3718   18.2961 C   0  0  0  0  0  0  0  0  0  0  0  0
    8.5666  -12.4256   18.7396 N   0  0  0  0  0  0  0  0  0  0  0  0
    6.7148  -13.8603   19.0649 N   0  0  0  0  0  0  0  0  0  0  0  0
    6.8359  -13.8579   20.4996 C   0  0  0  0  0  0  0  0  0  0  0  0
    7.8507  -14.9150   20.8753 C   0  0  0  0  0  0  0  0  0  0  0  0
    9.1662  -14.3051   21.2857 C   0  0  0  0  0  0  0  0  0  0  0  0
   10.2038  -15.3738   21.5444 C   0  0  2  0  0  0  0  0  0  0  0  0
   10.2995  -16.3155   20.4617 N   0  0  0  0  0  0  0  0  0  0  0  0
    9.9546  -16.1051   22.8033 C   0  0  0  0  0  0  0  0  0  0  0  0
    8.7691  -16.2885   23.2208 O   0  0  0  0  0  0  0  0  0  0  0  0
    8.4662  -12.0476   19.6985 N   0  0  0  0  0  0  0  0  0  0  0  0
   11.0401  -16.6007   23.5426 C   0  0  1  0  0  0  0  0  0  0  0  0
   10.8032  -17.4460   24.7523 C   0  0  0  0  0  0  0  0  0  0  0  0
   11.9392  -18.4117   24.7816 C   0  0  0  0  0  0  0  0  0  0  0  0
   12.0773  -19.3452   23.7030 O   0  0  0  0  0  0  0  0  0  0  0  0
   11.3701  -20.3002   23.3371 C   0  0  0  0  0  0  0  0  0  0  0  0
   10.8999  -16.4970   25.8674 O   0  0  0  0  0  0  0  0  0  0  0  0
   11.7795  -15.5769   25.8633 O   0  0  0  0  0  0  0  0  0  0  0  0
   13.2336  -19.1703   22.8777 N   0  0  0  0  0  0  0  0  0  0  0  0
   10.0583  -16.5297   26.9733 C   0  0  1  0  0  0  0  0  0  0  0  0
   10.2102  -15.5531   28.0903 C   0  0  0  0  0  0  0  0  0  0  0  0
    8.7829  -15.2441   28.4842 C   0  0  0  0  0  0  0  0  0  0  0  0
    8.0718  -14.3750   27.5223 C   0  0  0  0  0  0  0  0  0  0  0  0
    8.6946  -13.8388   26.3977 N   0  0  0  0  0  0  0  0  0  0  0  0
    7.7925  -13.1129   25.7457 C   0  0  0  0  0  0  0  0  0  0  0  0
    6.6507  -13.1890   26.4307 N   0  0  0  0  0  0  0  0  0  0  0  0
    6.8047  -13.9582   27.5217 C   0  0  0  0  0  0  0  0  0  0  0  0
   10.9668  -16.2570   29.1382 O   0  0  0  0  0  0  0  0  0  0  0  0
   11.3681  -15.5947   30.2755 O   0  0  0  0  0  0  0  0  0  0  0  0
  1  2  1  0
  2  3  2  0
  4  2  1  0
  5  4  1  0
  6  5  1  0
  7  6  1  0
  8 10  1  0
  8  7  1  0
  8  9  1  6
 10 11  2  0
 12 13  1  0
 12 10  1  0
 13 14  1  1
 15 19  1  0
 15 14  1  0
 16 15  2  0
 17 13  1  0
 18 17  2  0
 20 17  1  0
 21 20  1  0
 21 22  1  6
 23 22  1  0
 24 23  2  0
 25 24  1  0
 26 25  1  0
 26 27  2  0
 27 23  1  0
 28 21  1  0
 28 29  1  0
 30 28  2  0
M  END
$$$$
