RDH.pdb
     RDKit          3D

 30 30  0  0  1  0  0  0  0  0999 V2000
   12.6406  -18.2277   10.6037 N   0  0  0  0  0  0  0  0  0  0  0  0
   11.4928  -18.9377   10.1415 C   0  0  0  0  0  0  0  0  0  0  0  0
   10.8495  -18.5003    9.1283 N   0  0  0  0  0  0  0  0  0  0  0  0
   11.0725  -20.1377   10.8201 N   0  0  0  0  0  0  0  0  0  0  0  0
   10.4064  -19.9927   12.0884 C   0  0  0  0  0  0  0  0  0  0  0  0
   11.4396  -19.5486   13.1001 C   0  0  0  0  0  0  0  0  0  0  0  0
   11.8442  -20.6746   14.0160 C   0  0  0  0  0  0  0  0  0  0  0  0
   11.9554  -20.1987   15.4467 C   0  0  2  0  0  0  0  0  0  0  0  0
   12.0398  -18.7661   15.5405 N   0  0  0  0  0  0  0  0  0  0  0  0
   13.1064  -20.8000   16.1504 C   0  0  0  0  0  0  0  0  0  0  0  0
   13.2051  -22.0609   16.2689 O   0  0  0  0  0  0  0  0  0  0  0  0
   10.0587  -19.0192    8.7065 N   0  0  0  0  0  0  0  0  0  0  0  0
   14.0986  -19.9677   16.6921 C   0  0  1  0  0  0  0  0  0  0  0  0
   15.1968  -20.5486   17.5230 C   0  0  0  0  0  0  0  0  0  0  0  0
   16.4595  -20.0798   16.8828 C   0  0  0  0  0  0  0  0  0  0  0  0
   17.0855  -20.9158   15.9014 O   0  0  0  0  0  0  0  0  0  0  0  0
   16.8419  -22.0746   15.5223 C   0  0  0  0  0  0  0  0  0  0  0  0
   15.0148  -19.9174   18.8352 O   0  0  0  0  0  0  0  0  0  0  0  0
   14.3416  -18.8435   18.9521 O   0  0  0  0  0  0  0  0  0  0  0  0
   18.1998  -20.3361   15.2151 N   0  0  0  0  0  0  0  0  0  0  0  0
   15.5439  -20.4353   20.0118 C   0  0  1  0  0  0  0  0  0  0  0  0
   14.8350  -20.2769   21.3144 C   0  0  0  0  0  0  0  0  0  0  0  0
   13.4502  -20.8142   21.0292 C   0  0  0  0  0  0  0  0  0  0  0  0
   12.5840  -20.8997   22.2245 C   0  0  0  0  0  0  0  0  0  0  0  0
   12.9793  -20.4171   23.4698 N   0  0  0  0  0  0  0  0  0  0  0  0
   11.9853  -20.6421   24.3227 C   0  0  0  0  0  0  0  0  0  0  0  0
   11.0063  -21.2406   23.6430 N   0  0  0  0  0  0  0  0  0  0  0  0
   11.3569  -21.4059   22.3564 C   0  0  0  0  0  0  0  0  0  0  0  0
   15.5894  -21.0888   22.2827 O   0  0  0  0  0  0  0  0  0  0  0  0
   15.7312  -20.6707   23.5858 O   0  0  0  0  0  0  0  0  0  0  0  0
  1  2  1  0
  2  3  2  0
  4  2  1  0
  5  4  1  0
  6  5  1  0
  7  6  1  0
  8 10  1  0
  8  7  1  0
  8  9  1  6
 10 11  2  0
 12 13  1  0
 12 10  1  0
 13 14  1  1
 15 19  1  0
 15 14  1  0
 16 15  2  0
 17 13  1  0
 18 17  2  0
 20 17  1  0
 21 20  1  0
 21 22  1  6
 23 22  1  0
 24 23  2  0
 25 24  1  0
 26 25  1  0
 26 27  2  0
 27 23  1  0
 28 21  1  0
 28 29  1  0
 30 28  2  0
M  END
$$$$
