RDH.pdb
     RDKit          3D

 30 30  0  0  1  0  0  0  0  0999 V2000
    6.8442  -14.7184   14.8459 N   0  0  0  0  0  0  0  0  0  0  0  0
    8.1055  -14.2022   15.2674 C   0  0  0  0  0  0  0  0  0  0  0  0
    9.0277  -14.0142   14.4036 N   0  0  0  0  0  0  0  0  0  0  0  0
    8.3254  -13.8983   16.6590 N   0  0  0  0  0  0  0  0  0  0  0  0
    7.2427  -14.1388   17.5772 C   0  0  0  0  0  0  0  0  0  0  0  0
    7.2747  -13.0432   18.6198 C   0  0  0  0  0  0  0  0  0  0  0  0
    7.6198  -13.5812   19.9845 C   0  0  0  0  0  0  0  0  0  0  0  0
    8.5059  -14.8017   19.8798 C   0  0  2  0  0  0  0  0  0  0  0  0
    7.7533  -16.0268   19.9083 N   0  0  0  0  0  0  0  0  0  0  0  0
    9.5360  -14.8399   20.9376 C   0  0  0  0  0  0  0  0  0  0  0  0
   10.2303  -13.8095   21.2017 O   0  0  0  0  0  0  0  0  0  0  0  0
    9.9600  -13.6425   14.6589 N   0  0  0  0  0  0  0  0  0  0  0  0
    9.7471  -16.0273   21.6559 C   0  0  2  0  0  0  0  0  0  0  0  0
   10.8543  -16.1149   22.6561 C   0  0  0  0  0  0  0  0  0  0  0  0
   10.6068  -17.3826   23.4015 C   0  0  0  0  0  0  0  0  0  0  0  0
   11.5667  -17.8061   24.3777 O   0  0  0  0  0  0  0  0  0  0  0  0
   12.0519  -18.9219   24.6338 C   0  0  0  0  0  0  0  0  0  0  0  0
   12.0634  -16.2252   21.8318 O   0  0  0  0  0  0  0  0  0  0  0  0
   12.1790  -17.1535   20.9685 O   0  0  0  0  0  0  0  0  0  0  0  0
   12.0788  -16.7759   25.2292 N   0  0  0  0  0  0  0  0  0  0  0  0
   13.1357  -15.3456   21.9273 C   0  0  2  0  0  0  0  0  0  0  0  0
   14.3366  -15.4924   21.0552 C   0  0  0  0  0  0  0  0  0  0  0  0
   14.2784  -14.2694   20.1672 C   0  0  0  0  0  0  0  0  0  0  0  0
   15.4123  -14.1603   19.2244 C   0  0  0  0  0  0  0  0  0  0  0  0
   16.0143  -15.2760   18.6474 N   0  0  0  0  0  0  0  0  0  0  0  0
   16.9902  -14.8428   17.8563 C   0  0  0  0  0  0  0  0  0  0  0  0
   17.0018  -13.5113   17.9322 N   0  0  0  0  0  0  0  0  0  0  0  0
   16.0416  -13.0772   18.7660 C   0  0  0  0  0  0  0  0  0  0  0  0
   15.4938  -15.5003   21.9645 O   0  0  0  0  0  0  0  0  0  0  0  0
   15.3167  -15.3730   23.3230 O   0  0  0  0  0  0  0  0  0  0  0  0
  1  2  1  0
  2  3  2  0
  4  2  1  0
  5  4  1  0
  6  5  1  0
  7  6  1  0
  8 10  1  0
  8  7  1  0
  8  9  1  1
 10 11  2  0
 12 13  1  0
 12 10  1  0
 13 14  1  6
 15 19  1  0
 15 14  1  0
 16 15  2  0
 17 13  1  0
 18 17  2  0
 20 17  1  0
 21 20  1  0
 21 22  1  1
 23 22  1  0
 24 23  2  0
 25 24  1  0
 26 25  1  0
 26 27  2  0
 27 23  1  0
 28 21  1  0
 28 29  1  0
 30 28  2  0
M  END
$$$$
