RDH.pdb
     RDKit          3D

 30 30  0  0  1  0  0  0  0  0999 V2000
    9.3018  -12.0988   21.0408 N   0  0  0  0  0  0  0  0  0  0  0  0
    9.1257  -12.4443   19.6680 C   0  0  0  0  0  0  0  0  0  0  0  0
    9.8642  -11.8950   18.7822 N   0  0  0  0  0  0  0  0  0  0  0  0
    8.1198  -13.4071   19.2958 N   0  0  0  0  0  0  0  0  0  0  0  0
    7.2822  -13.9393   20.3390 C   0  0  0  0  0  0  0  0  0  0  0  0
    7.7593  -15.3434   20.6377 C   0  0  0  0  0  0  0  0  0  0  0  0
    8.3444  -16.0057   19.4172 C   0  0  0  0  0  0  0  0  0  0  0  0
    8.6977  -17.4487   19.6981 C   0  0  2  0  0  0  0  0  0  0  0  0
    7.6699  -18.3566   19.2649 N   0  0  0  0  0  0  0  0  0  0  0  0
    8.9864  -17.6880   21.1267 C   0  0  0  0  0  0  0  0  0  0  0  0
    8.0425  -17.8918   21.9519 O   0  0  0  0  0  0  0  0  0  0  0  0
    9.7200  -12.0459   17.7678 N   0  0  0  0  0  0  0  0  0  0  0  0
   10.3172  -17.6897   21.5733 C   0  0  2  0  0  0  0  0  0  0  0  0
   10.6629  -18.2714   22.9060 C   0  0  0  0  0  0  0  0  0  0  0  0
   12.0871  -18.6974   22.7877 C   0  0  0  0  0  0  0  0  0  0  0  0
   12.3927  -19.8760   22.0319 O   0  0  0  0  0  0  0  0  0  0  0  0
   11.8212  -20.9768   21.9451 C   0  0  0  0  0  0  0  0  0  0  0  0
   10.5355  -17.1364   23.8275 O   0  0  0  0  0  0  0  0  0  0  0  0
   11.1399  -16.0403   23.5960 O   0  0  0  0  0  0  0  0  0  0  0  0
   13.5673  -19.8013   21.2173 N   0  0  0  0  0  0  0  0  0  0  0  0
    9.7631  -17.1735   24.9827 C   0  0  1  0  0  0  0  0  0  0  0  0
    9.9228  -16.1475   26.0533 C   0  0  0  0  0  0  0  0  0  0  0  0
    8.5048  -15.8999   26.5178 C   0  0  0  0  0  0  0  0  0  0  0  0
    7.7327  -15.0036   25.6307 C   0  0  0  0  0  0  0  0  0  0  0  0
    8.2858  -14.4204   24.4932 N   0  0  0  0  0  0  0  0  0  0  0  0
    7.3420  -13.6806   23.9208 C   0  0  0  0  0  0  0  0  0  0  0  0
    6.2419  -13.7934   24.6663 N   0  0  0  0  0  0  0  0  0  0  0  0
    6.4643  -14.6002   25.7175 C   0  0  0  0  0  0  0  0  0  0  0  0
   10.7745  -16.7689   27.0802 O   0  0  0  0  0  0  0  0  0  0  0  0
   11.1877  -16.0473   28.1764 O   0  0  0  0  0  0  0  0  0  0  0  0
  1  2  1  0
  2  3  2  0
  4  2  1  0
  5  4  1  0
  6  5  1  0
  7  6  1  0
  8 10  1  0
  8  7  1  0
  8  9  1  1
 10 11  2  0
 12 13  1  0
 12 10  1  0
 13 14  1  6
 15 19  1  0
 15 14  1  0
 16 15  2  0
 17 13  1  0
 18 17  2  0
 20 17  1  0
 21 20  1  0
 21 22  1  1
 23 22  1  0
 24 23  2  0
 25 24  1  0
 26 25  1  0
 26 27  2  0
 27 23  1  0
 28 21  1  0
 28 29  1  0
 30 28  2  0
M  END
$$$$
