RDH.pdb
     RDKit          3D

 30 30  0  0  1  0  0  0  0  0999 V2000
    8.0375  -12.3549   19.8441 N   0  0  0  0  0  0  0  0  0  0  0  0
    7.8858  -13.0127   18.5874 C   0  0  0  0  0  0  0  0  0  0  0  0
    6.7201  -13.3601   18.1969 N   0  0  0  0  0  0  0  0  0  0  0  0
    9.0455  -13.2770   17.7735 N   0  0  0  0  0  0  0  0  0  0  0  0
    8.8350  -13.8709   16.4788 C   0  0  0  0  0  0  0  0  0  0  0  0
    8.5570  -15.3428   16.6900 C   0  0  0  0  0  0  0  0  0  0  0  0
    9.7554  -16.0620   17.2534 C   0  0  0  0  0  0  0  0  0  0  0  0
    9.4707  -17.5361   17.4318 C   0  0  2  0  0  0  0  0  0  0  0  0
    8.1646  -17.9016   16.9536 N   0  0  0  0  0  0  0  0  0  0  0  0
    9.6120  -17.9690   18.8368 C   0  0  0  0  0  0  0  0  0  0  0  0
    8.6368  -17.8715   19.6448 O   0  0  0  0  0  0  0  0  0  0  0  0
    6.5595  -13.8575   17.3029 N   0  0  0  0  0  0  0  0  0  0  0  0
   10.8367  -18.4927   19.2801 C   0  0  2  0  0  0  0  0  0  0  0  0
   10.9416  -19.1193   20.6330 C   0  0  0  0  0  0  0  0  0  0  0  0
   12.0973  -20.0571   20.5397 C   0  0  0  0  0  0  0  0  0  0  0  0
   13.1586  -19.7532   19.6259 O   0  0  0  0  0  0  0  0  0  0  0  0
   13.1711  -19.5944   18.3928 C   0  0  0  0  0  0  0  0  0  0  0  0
   11.2580  -17.9921   21.5177 O   0  0  0  0  0  0  0  0  0  0  0  0
   11.9326  -17.0005   21.0911 O   0  0  0  0  0  0  0  0  0  0  0  0
   14.4549  -19.5984   20.2128 N   0  0  0  0  0  0  0  0  0  0  0  0
   10.8504  -17.9252   22.8451 C   0  0  1  0  0  0  0  0  0  0  0  0
   11.1749  -16.7437   23.6954 C   0  0  0  0  0  0  0  0  0  0  0  0
    9.8538  -16.4084   24.3513 C   0  0  0  0  0  0  0  0  0  0  0  0
    8.9628  -15.5792   23.5118 C   0  0  0  0  0  0  0  0  0  0  0  0
    9.3651  -15.0564   22.2850 N   0  0  0  0  0  0  0  0  0  0  0  0
    8.3439  -14.3672   21.7870 C   0  0  0  0  0  0  0  0  0  0  0  0
    7.3418  -14.4526   22.6629 N   0  0  0  0  0  0  0  0  0  0  0  0
    7.7044  -15.1914   23.7250 C   0  0  0  0  0  0  0  0  0  0  0  0
   12.1999  -17.2034   24.6462 O   0  0  0  0  0  0  0  0  0  0  0  0
   12.9669  -16.2963   25.3405 O   0  0  0  0  0  0  0  0  0  0  0  0
  1  2  1  0
  2  3  2  0
  4  2  1  0
  5  4  1  0
  6  5  1  0
  7  6  1  0
  8 10  1  0
  8  7  1  0
  8  9  1  1
 10 11  2  0
 12 13  1  0
 12 10  1  0
 13 14  1  6
 15 19  1  0
 15 14  1  0
 16 15  2  0
 17 13  1  0
 18 17  2  0
 20 17  1  0
 21 20  1  0
 21 22  1  1
 23 22  1  0
 24 23  2  0
 25 24  1  0
 26 25  1  0
 26 27  2  0
 27 23  1  0
 28 21  1  0
 28 29  1  0
 30 28  2  0
M  END
$$$$
