RDH.pdb
     RDKit          3D

 30 30  0  0  1  0  0  0  0  0999 V2000
    8.3040  -12.6435   14.9923 N   0  0  0  0  0  0  0  0  0  0  0  0
    7.6296  -13.8583   14.6687 C   0  0  0  0  0  0  0  0  0  0  0  0
    6.3575  -13.8587   14.5519 N   0  0  0  0  0  0  0  0  0  0  0  0
    8.3882  -15.0686   14.4770 N   0  0  0  0  0  0  0  0  0  0  0  0
    7.7760  -16.3125   14.8657 C   0  0  0  0  0  0  0  0  0  0  0  0
    8.8597  -17.1947   15.4452 C   0  0  0  0  0  0  0  0  0  0  0  0
    9.0803  -16.9186   16.9101 C   0  0  0  0  0  0  0  0  0  0  0  0
   10.0960  -17.8728   17.4964 C   0  0  2  0  0  0  0  0  0  0  0  0
   10.7632  -18.6486   16.4858 N   0  0  0  0  0  0  0  0  0  0  0  0
    9.4994  -18.7847   18.4934 C   0  0  0  0  0  0  0  0  0  0  0  0
    8.9284  -18.3246   19.5306 O   0  0  0  0  0  0  0  0  0  0  0  0
    5.8159  -14.7250   14.3827 N   0  0  0  0  0  0  0  0  0  0  0  0
    9.5656  -20.1720   18.2899 C   0  0  1  0  0  0  0  0  0  0  0  0
    9.0331  -21.1105   19.3241 C   0  0  0  0  0  0  0  0  0  0  0  0
    8.4399  -22.2422   18.5551 C   0  0  0  0  0  0  0  0  0  0  0  0
    7.1508  -22.0657   17.9544 O   0  0  0  0  0  0  0  0  0  0  0  0
    6.0511  -21.7372   18.4327 C   0  0  0  0  0  0  0  0  0  0  0  0
   10.2309  -21.5480   20.0503 O   0  0  0  0  0  0  0  0  0  0  0  0
   11.2805  -21.8987   19.4213 O   0  0  0  0  0  0  0  0  0  0  0  0
    7.0873  -22.3050   16.5447 N   0  0  0  0  0  0  0  0  0  0  0  0
   10.3054  -21.6032   21.4374 C   0  0  1  0  0  0  0  0  0  0  0  0
   11.5399  -22.0766   22.1275 C   0  0  0  0  0  0  0  0  0  0  0  0
   12.1569  -20.8020   22.6589 C   0  0  0  0  0  0  0  0  0  0  0  0
   13.3386  -21.0231   23.5197 C   0  0  0  0  0  0  0  0  0  0  0  0
   14.4172  -21.8089   23.1206 N   0  0  0  0  0  0  0  0  0  0  0  0
   15.3055  -21.8050   24.1089 C   0  0  0  0  0  0  0  0  0  0  0  0
   14.8072  -21.0491   25.0882 N   0  0  0  0  0  0  0  0  0  0  0  0
   13.6031  -20.5626   24.7433 C   0  0  0  0  0  0  0  0  0  0  0  0
   11.0819  -22.9904   23.1864 O   0  0  0  0  0  0  0  0  0  0  0  0
   11.9847  -23.7541   23.8899 O   0  0  0  0  0  0  0  0  0  0  0  0
  1  2  1  0
  2  3  2  0
  4  2  1  0
  5  4  1  0
  6  5  1  0
  7  6  1  0
  8 10  1  0
  8  7  1  0
  8  9  1  6
 10 11  2  0
 12 13  1  0
 12 10  1  0
 13 14  1  1
 15 19  1  0
 15 14  1  0
 16 15  2  0
 17 13  1  0
 18 17  2  0
 20 17  1  0
 21 20  1  0
 21 22  1  6
 23 22  1  0
 24 23  2  0
 25 24  1  0
 26 25  1  0
 26 27  2  0
 27 23  1  0
 28 21  1  0
 28 29  1  0
 30 28  2  0
M  END
$$$$
