LIY.pdb
     RDKit          3D

 29 29  0  0  1  0  0  0  0  0999 V2000
   27.3663  -27.3415  -19.3424 C   0  0  0  0  0  0  0  0  0  0  0  0
   27.5131  -27.4294  -17.8613 C   0  0  1  0  0  0  0  0  0  0  0  0
   26.7718  -28.6527  -17.3702 C   0  0  0  0  0  0  0  0  0  0  0  0
   28.9424  -27.4101  -17.3927 C   0  0  0  0  0  0  0  0  0  0  0  0
   29.6642  -26.1532  -17.7444 C   0  0  2  0  0  0  0  0  0  0  0  0
   31.0578  -26.2988  -17.3695 N   0  0  0  0  0  0  0  0  0  0  0  0
   29.0905  -25.0315  -16.9495 C   0  0  0  0  0  0  0  0  0  0  0  0
   29.2872  -24.9436  -15.6959 O   0  0  0  0  0  0  0  0  0  0  0  0
   29.7600  -20.1299  -18.3726 C   0  0  0  0  0  0  0  0  0  0  0  0
   29.6022  -21.4251  -17.5541 C   0  0  0  0  0  0  0  0  0  0  0  0
   28.1407  -21.6647  -17.4380 C   0  0  2  0  0  0  0  0  0  0  0  0
   27.3929  -20.4470  -16.9123 C   0  0  0  0  0  0  0  0  0  0  0  0
   27.7308  -22.9123  -16.7034 C   0  0  2  0  0  0  0  0  0  0  0  0
   28.3003  -24.0069  -17.5347 N   0  0  0  0  0  0  0  0  0  0  0  0
   26.2811  -23.1046  -16.5657 C   0  0  0  0  0  0  0  0  0  0  0  0
   25.5336  -23.0957  -17.6014 O   0  0  0  0  0  0  0  0  0  0  0  0
   18.1761  -24.6935  -13.5753 O   0  0  0  0  0  0  0  0  0  0  0  0
   19.5484  -24.5077  -13.6593 C   0  0  0  0  0  0  0  0  0  0  0  0
   20.3459  -25.4692  -14.2576 C   0  0  0  0  0  0  0  0  0  0  0  0
   21.6929  -25.2390  -14.3155 C   0  0  0  0  0  0  0  0  0  0  0  0
   22.2958  -24.1062  -13.8120 C   0  0  0  0  0  0  0  0  0  0  0  0
   23.7492  -23.8648  -13.8715 C   0  0  0  0  0  0  0  0  0  0  0  0
   24.1558  -23.4679  -15.2537 C   0  0  2  0  0  0  0  0  0  0  0  0
   25.6088  -23.3103  -15.3438 N   0  0  0  0  0  0  0  0  0  0  0  0
   23.5113  -22.2290  -15.7156 C   0  0  0  0  0  0  0  0  0  0  0  0
   22.5184  -22.2319  -16.5076 O   0  0  0  0  0  0  0  0  0  0  0  0
   21.4460  -23.1764  -13.2233 C   0  0  0  0  0  0  0  0  0  0  0  0
   20.0930  -23.3562  -13.1389 C   0  0  0  0  0  0  0  0  0  0  0  0
   24.0000  -21.0095  -15.2702 O   0  0  0  0  0  0  0  0  0  0  0  0
  2  1  1  6
  3  2  1  0
  4  2  1  0
  5  4  1  0
  5  6  1  1
  7  8  2  0
  7  5  1  0
  9 10  1  0
 11 10  1  0
 11 13  1  0
 11 12  1  1
 13 15  1  0
 13 14  1  6
 14  7  1  0
 15 16  2  0
 17 18  1  0
 18 19  2  0
 18 28  1  0
 19 20  1  0
 20 21  2  0
 21 22  1  0
 23 22  1  1
 23 25  1  0
 24 23  1  0
 24 15  1  0
 25 26  2  0
 25 29  1  0
 27 21  1  0
 28 27  2  0
M  END
$$$$
