LIY.pdb
     RDKit          3D

 29 29  0  0  1  0  0  0  0  0999 V2000
   15.0322  -28.2667   -7.3154 C   0  0  0  0  0  0  0  0  0  0  0  0
   15.3295  -27.3119   -6.2096 C   0  0  1  0  0  0  0  0  0  0  0  0
   14.3361  -27.5369   -5.0917 C   0  0  0  0  0  0  0  0  0  0  0  0
   16.7511  -27.3746   -5.7219 C   0  0  0  0  0  0  0  0  0  0  0  0
   17.0169  -26.4844   -4.5551 C   0  0  2  0  0  0  0  0  0  0  0  0
   17.1451  -25.1207   -5.0324 N   0  0  0  0  0  0  0  0  0  0  0  0
   18.3140  -26.8775   -3.9368 C   0  0  0  0  0  0  0  0  0  0  0  0
   19.4207  -26.4592   -4.4040 O   0  0  0  0  0  0  0  0  0  0  0  0
   19.3023  -25.9359    0.9789 C   0  0  0  0  0  0  0  0  0  0  0  0
   19.4122  -26.1402   -0.5438 C   0  0  0  0  0  0  0  0  0  0  0  0
   19.5366  -27.6051   -0.7560 C   0  0  2  0  0  0  0  0  0  0  0  0
   20.5888  -28.2351    0.1464 C   0  0  0  0  0  0  0  0  0  0  0  0
   19.7043  -28.0555   -2.1819 C   0  0  2  0  0  0  0  0  0  0  0  0
   18.3925  -27.7309   -2.8045 N   0  0  0  0  0  0  0  0  0  0  0  0
   19.9874  -29.4868   -2.3525 C   0  0  0  0  0  0  0  0  0  0  0  0
   19.1151  -30.3560   -2.0134 O   0  0  0  0  0  0  0  0  0  0  0  0
   27.3724  -32.4160   -1.5338 O   0  0  0  0  0  0  0  0  0  0  0  0
   26.1644  -32.2435   -2.1941 C   0  0  0  0  0  0  0  0  0  0  0  0
   25.7290  -33.1892   -3.1077 C   0  0  0  0  0  0  0  0  0  0  0  0
   24.5314  -32.9730   -3.7321 C   0  0  0  0  0  0  0  0  0  0  0  0
   23.7389  -31.8690   -3.5016 C   0  0  0  0  0  0  0  0  0  0  0  0
   22.4512  -31.6371   -4.1814 C   0  0  0  0  0  0  0  0  0  0  0  0
   21.3611  -31.4361   -3.1790 C   0  0  2  0  0  0  0  0  0  0  0  0
   21.1831  -30.0134   -2.8820 N   0  0  0  0  0  0  0  0  0  0  0  0
   21.5885  -32.1622   -1.9201 C   0  0  0  0  0  0  0  0  0  0  0  0
   21.5107  -33.4274   -1.8398 O   0  0  0  0  0  0  0  0  0  0  0  0
   24.2264  -30.9541   -2.5750 C   0  0  0  0  0  0  0  0  0  0  0  0
   25.4165  -31.1210   -1.9222 C   0  0  0  0  0  0  0  0  0  0  0  0
   21.9029  -31.4437   -0.7759 O   0  0  0  0  0  0  0  0  0  0  0  0
  2  1  1  6
  3  2  1  0
  4  2  1  0
  5  4  1  0
  5  6  1  6
  7  8  2  0
  7  5  1  0
  9 10  1  0
 11 10  1  0
 11 13  1  0
 11 12  1  1
 13 15  1  0
 13 14  1  6
 14  7  1  0
 15 16  2  0
 17 18  1  0
 18 19  2  0
 18 28  1  0
 19 20  1  0
 20 21  2  0
 21 22  1  0
 23 22  1  6
 23 25  1  0
 24 23  1  0
 24 15  1  0
 25 26  2  0
 25 29  1  0
 27 21  1  0
 28 27  2  0
M  END
$$$$
