LIY.pdb
     RDKit          3D

 29 29  0  0  1  0  0  0  0  0999 V2000
   27.3002  -18.6536  -17.9059 C   0  0  0  0  0  0  0  0  0  0  0  0
   27.9520  -19.4279  -16.8112 C   0  0  1  0  0  0  0  0  0  0  0  0
   28.8325  -18.4938  -16.0116 C   0  0  0  0  0  0  0  0  0  0  0  0
   26.9816  -20.1746  -15.9373 C   0  0  0  0  0  0  0  0  0  0  0  0
   27.6227  -20.8141  -14.7522 C   0  0  2  0  0  0  0  0  0  0  0  0
   28.4516  -21.9127  -15.2103 N   0  0  0  0  0  0  0  0  0  0  0  0
   26.5578  -21.3777  -13.8761 C   0  0  0  0  0  0  0  0  0  0  0  0
   25.9849  -22.4776  -14.1588 O   0  0  0  0  0  0  0  0  0  0  0  0
   26.5269  -20.3917   -8.5064 C   0  0  0  0  0  0  0  0  0  0  0  0
   26.4798  -21.1429   -9.8502 C   0  0  0  0  0  0  0  0  0  0  0  0
   25.2239  -20.7154  -10.5185 C   0  0  2  0  0  0  0  0  0  0  0  0
   24.0009  -20.9046   -9.6314 C   0  0  0  0  0  0  0  0  0  0  0  0
   24.9857  -21.2699  -11.8969 C   0  0  2  0  0  0  0  0  0  0  0  0
   26.1237  -20.7304  -12.6890 N   0  0  0  0  0  0  0  0  0  0  0  0
   23.7187  -20.8643  -12.5197 C   0  0  0  0  0  0  0  0  0  0  0  0
   23.4859  -19.6297  -12.7502 O   0  0  0  0  0  0  0  0  0  0  0  0
   16.2181  -20.5663  -17.0105 O   0  0  0  0  0  0  0  0  0  0  0  0
   17.4659  -20.8809  -16.4920 C   0  0  0  0  0  0  0  0  0  0  0  0
   18.5535  -20.0629  -16.7497 C   0  0  0  0  0  0  0  0  0  0  0  0
   19.7620  -20.4165  -16.2158 C   0  0  0  0  0  0  0  0  0  0  0  0
   19.9540  -21.5387  -15.4386 C   0  0  0  0  0  0  0  0  0  0  0  0
   21.2601  -21.9191  -14.8698 C   0  0  0  0  0  0  0  0  0  0  0  0
   21.4437  -21.2967  -13.5236 C   0  0  2  0  0  0  0  0  0  0  0  0
   22.6922  -21.7496  -12.9067 N   0  0  0  0  0  0  0  0  0  0  0  0
   20.3298  -21.5671  -12.6017 C   0  0  0  0  0  0  0  0  0  0  0  0
   20.2617  -22.6292  -11.9085 O   0  0  0  0  0  0  0  0  0  0  0  0
   18.8273  -22.3216  -15.2134 C   0  0  0  0  0  0  0  0  0  0  0  0
   17.5959  -22.0144  -15.7228 C   0  0  0  0  0  0  0  0  0  0  0  0
   19.3151  -20.6293  -12.4788 O   0  0  0  0  0  0  0  0  0  0  0  0
  2  1  1  6
  3  2  1  0
  4  2  1  0
  5  4  1  0
  5  6  1  6
  7  8  2  0
  7  5  1  0
  9 10  1  0
 11 10  1  0
 11 13  1  0
 11 12  1  1
 13 15  1  0
 13 14  1  6
 14  7  1  0
 15 16  2  0
 17 18  1  0
 18 19  2  0
 18 28  1  0
 19 20  1  0
 20 21  2  0
 21 22  1  0
 23 22  1  6
 23 25  1  0
 24 23  1  0
 24 15  1  0
 25 26  2  0
 25 29  1  0
 27 21  1  0
 28 27  2  0
M  END
$$$$
