LIY.pdb
     RDKit          3D

 29 29  0  0  1  0  0  0  0  0999 V2000
   26.4953  -37.3988  -15.0345 C   0  0  0  0  0  0  0  0  0  0  0  0
   25.2371  -36.6558  -15.3303 C   0  0  1  0  0  0  0  0  0  0  0  0
   24.0764  -37.3937  -14.7015 C   0  0  0  0  0  0  0  0  0  0  0  0
   25.2767  -35.2100  -14.9168 C   0  0  0  0  0  0  0  0  0  0  0  0
   23.9718  -34.5086  -15.0891 C   0  0  2  0  0  0  0  0  0  0  0  0
   24.0125  -33.7512  -16.3254 N   0  0  0  0  0  0  0  0  0  0  0  0
   23.7927  -33.5452  -13.9670 C   0  0  0  0  0  0  0  0  0  0  0  0
   24.3489  -32.4014  -13.9849 O   0  0  0  0  0  0  0  0  0  0  0  0
   19.1307  -32.0448  -12.4204 C   0  0  0  0  0  0  0  0  0  0  0  0
   20.6117  -32.1759  -12.8226 C   0  0  0  0  0  0  0  0  0  0  0  0
   21.3162  -32.7192  -11.6330 C   0  0  2  0  0  0  0  0  0  0  0  0
   20.9154  -32.0097  -10.3468 C   0  0  0  0  0  0  0  0  0  0  0  0
   22.8122  -32.8354  -11.7454 C   0  0  2  0  0  0  0  0  0  0  0  0
   23.0015  -33.8411  -12.8255 N   0  0  0  0  0  0  0  0  0  0  0  0
   23.4937  -33.2907  -10.5264 C   0  0  0  0  0  0  0  0  0  0  0  0
   23.2297  -34.4410  -10.0379 O   0  0  0  0  0  0  0  0  0  0  0  0
   28.5972  -33.9761   -3.4090 O   0  0  0  0  0  0  0  0  0  0  0  0
   28.0004  -33.5174   -4.5745 C   0  0  0  0  0  0  0  0  0  0  0  0
   28.4902  -33.9105   -5.8090 C   0  0  0  0  0  0  0  0  0  0  0  0
   27.8670  -33.4307   -6.9280 C   0  0  0  0  0  0  0  0  0  0  0  0
   26.7825  -32.5806   -6.8922 C   0  0  0  0  0  0  0  0  0  0  0  0
   26.1172  -32.0612   -8.1013 C   0  0  0  0  0  0  0  0  0  0  0  0
   25.0917  -33.0321   -8.5900 C   0  0  2  0  0  0  0  0  0  0  0  0
   24.4564  -32.5451   -9.8161 N   0  0  0  0  0  0  0  0  0  0  0  0
   24.0484  -33.3249   -7.5952 C   0  0  0  0  0  0  0  0  0  0  0  0
   24.0392  -34.3960   -6.9127 O   0  0  0  0  0  0  0  0  0  0  0  0
   26.3346  -32.2203   -5.6262 C   0  0  0  0  0  0  0  0  0  0  0  0
   26.9204  -32.6707   -4.4754 C   0  0  0  0  0  0  0  0  0  0  0  0
   23.0364  -32.3989   -7.3887 O   0  0  0  0  0  0  0  0  0  0  0  0
  2  1  1  1
  3  2  1  0
  4  2  1  0
  5  4  1  0
  5  6  1  6
  7  8  2  0
  7  5  1  0
  9 10  1  0
 11 10  1  0
 11 13  1  0
 11 12  1  1
 13 15  1  0
 13 14  1  6
 14  7  1  0
 15 16  2  0
 17 18  1  0
 18 19  2  0
 18 28  1  0
 19 20  1  0
 20 21  2  0
 21 22  1  0
 23 22  1  1
 23 25  1  0
 24 23  1  0
 24 15  1  0
 25 26  2  0
 25 29  1  0
 27 21  1  0
 28 27  2  0
M  END
$$$$
