LIY.pdb
     RDKit          3D

 29 29  0  0  1  0  0  0  0  0999 V2000
   27.7292  -17.6317  -17.3408 C   0  0  0  0  0  0  0  0  0  0  0  0
   28.2932  -18.6981  -16.4648 C   0  0  1  0  0  0  0  0  0  0  0  0
   29.2311  -18.0608  -15.4641 C   0  0  0  0  0  0  0  0  0  0  0  0
   27.2474  -19.5477  -15.7960 C   0  0  0  0  0  0  0  0  0  0  0  0
   27.8003  -20.4491  -14.7442 C   0  0  2  0  0  0  0  0  0  0  0  0
   28.5244  -21.5266  -15.3912 N   0  0  0  0  0  0  0  0  0  0  0  0
   26.6691  -21.0494  -13.9830 C   0  0  0  0  0  0  0  0  0  0  0  0
   26.0137  -22.0367  -14.4452 O   0  0  0  0  0  0  0  0  0  0  0  0
   26.6578  -20.7525   -8.5498 C   0  0  0  0  0  0  0  0  0  0  0  0
   26.5934  -21.3141   -9.9826 C   0  0  0  0  0  0  0  0  0  0  0  0
   25.3280  -20.8038  -10.5699 C   0  0  2  0  0  0  0  0  0  0  0  0
   24.1144  -21.1373   -9.7128 C   0  0  0  0  0  0  0  0  0  0  0  0
   25.0830  -21.1465  -12.0144 C   0  0  2  0  0  0  0  0  0  0  0  0
   26.2595  -20.5625  -12.7134 N   0  0  0  0  0  0  0  0  0  0  0  0
   23.8484  -20.5911  -12.5843 C   0  0  0  0  0  0  0  0  0  0  0  0
   23.6511  -19.3291  -12.5751 O   0  0  0  0  0  0  0  0  0  0  0  0
   21.1956  -26.8217  -15.5313 O   0  0  0  0  0  0  0  0  0  0  0  0
   21.2601  -25.4379  -15.4554 C   0  0  0  0  0  0  0  0  0  0  0  0
   20.1047  -24.6958  -15.2750 C   0  0  0  0  0  0  0  0  0  0  0  0
   20.2214  -23.3347  -15.2066 C   0  0  0  0  0  0  0  0  0  0  0  0
   21.4225  -22.6658  -15.3076 C   0  0  0  0  0  0  0  0  0  0  0  0
   21.5429  -21.1978  -15.2391 C   0  0  0  0  0  0  0  0  0  0  0  0
   21.6521  -20.7493  -13.8177 C   0  0  2  0  0  0  0  0  0  0  0  0
   22.8174  -21.3541  -13.1692 N   0  0  0  0  0  0  0  0  0  0  0  0
   20.4527  -21.0486  -13.0205 C   0  0  0  0  0  0  0  0  0  0  0  0
   20.4641  -21.8762  -12.0571 O   0  0  0  0  0  0  0  0  0  0  0  0
   22.5479  -23.4620  -15.4877 C   0  0  0  0  0  0  0  0  0  0  0  0
   22.4880  -24.8263  -15.5628 C   0  0  0  0  0  0  0  0  0  0  0  0
   19.2632  -20.4035  -13.3258 O   0  0  0  0  0  0  0  0  0  0  0  0
  2  1  1  1
  3  2  1  0
  4  2  1  0
  5  4  1  0
  5  6  1  6
  7  8  2  0
  7  5  1  0
  9 10  1  0
 11 10  1  0
 11 13  1  0
 11 12  1  1
 13 15  1  0
 13 14  1  6
 14  7  1  0
 15 16  2  0
 17 18  1  0
 18 19  2  0
 18 28  1  0
 19 20  1  0
 20 21  2  0
 21 22  1  0
 23 22  1  6
 23 25  1  0
 24 23  1  0
 24 15  1  0
 25 26  2  0
 25 29  1  0
 27 21  1  0
 28 27  2  0
M  END
$$$$
