LIY.pdb
     RDKit          3D

 29 29  0  0  1  0  0  0  0  0999 V2000
   28.1350  -28.2497  -16.5414 C   0  0  0  0  0  0  0  0  0  0  0  0
   27.2529  -27.1608  -17.0503 C   0  0  1  0  0  0  0  0  0  0  0  0
   26.7526  -27.5421  -18.4256 C   0  0  0  0  0  0  0  0  0  0  0  0
   26.1262  -26.8090  -16.1178 C   0  0  0  0  0  0  0  0  0  0  0  0
   25.2660  -25.6990  -16.6202 C   0  0  2  0  0  0  0  0  0  0  0  0
   26.0145  -24.4593  -16.5384 N   0  0  0  0  0  0  0  0  0  0  0  0
   24.0754  -25.5750  -15.7333 C   0  0  0  0  0  0  0  0  0  0  0  0
   24.0446  -24.7270  -14.7858 O   0  0  0  0  0  0  0  0  0  0  0  0
   19.5540  -24.7313  -17.8281 C   0  0  0  0  0  0  0  0  0  0  0  0
   20.7283  -24.6980  -16.8320 C   0  0  0  0  0  0  0  0  0  0  0  0
   20.6163  -25.9369  -16.0201 C   0  0  2  0  0  0  0  0  0  0  0  0
   19.2498  -26.0792  -15.3638 C   0  0  0  0  0  0  0  0  0  0  0  0
   21.7223  -26.1815  -15.0295 C   0  0  2  0  0  0  0  0  0  0  0  0
   22.9192  -26.3845  -15.8897 N   0  0  0  0  0  0  0  0  0  0  0  0
   21.5347  -27.3543  -14.1653 C   0  0  0  0  0  0  0  0  0  0  0  0
   21.3734  -28.5108  -14.6830 O   0  0  0  0  0  0  0  0  0  0  0  0
   21.0582  -32.9277   -7.4064 O   0  0  0  0  0  0  0  0  0  0  0  0
   21.2804  -31.8078   -8.1947 C   0  0  0  0  0  0  0  0  0  0  0  0
   22.3550  -31.7730   -9.0679 C   0  0  0  0  0  0  0  0  0  0  0  0
   22.5308  -30.6461   -9.8229 C   0  0  0  0  0  0  0  0  0  0  0  0
   21.6992  -29.5485   -9.7609 C   0  0  0  0  0  0  0  0  0  0  0  0
   21.8959  -28.3334  -10.5727 C   0  0  0  0  0  0  0  0  0  0  0  0
   21.3126  -28.5173  -11.9363 C   0  0  2  0  0  0  0  0  0  0  0  0
   21.5187  -27.3216  -12.7560 N   0  0  0  0  0  0  0  0  0  0  0  0
   19.8779  -28.8410  -11.9156 C   0  0  0  0  0  0  0  0  0  0  0  0
   18.9783  -27.9460  -11.8609 O   0  0  0  0  0  0  0  0  0  0  0  0
   20.6379  -29.6403   -8.8674 C   0  0  0  0  0  0  0  0  0  0  0  0
   20.4158  -30.7426   -8.0890 C   0  0  0  0  0  0  0  0  0  0  0  0
   19.4873  -30.1712  -11.9605 O   0  0  0  0  0  0  0  0  0  0  0  0
  2  1  1  1
  3  2  1  0
  4  2  1  0
  5  4  1  0
  5  6  1  1
  7  8  2  0
  7  5  1  0
  9 10  1  0
 11 10  1  0
 11 13  1  0
 11 12  1  1
 13 15  1  0
 13 14  1  6
 14  7  1  0
 15 16  2  0
 17 18  1  0
 18 19  2  0
 18 28  1  0
 19 20  1  0
 20 21  2  0
 21 22  1  0
 23 22  1  1
 23 25  1  0
 24 23  1  0
 24 15  1  0
 25 26  2  0
 25 29  1  0
 27 21  1  0
 28 27  2  0
M  END
$$$$
