LIY.pdb
     RDKit          3D

 29 29  0  0  1  0  0  0  0  0999 V2000
   23.0543  -26.5365  -15.1399 C   0  0  0  0  0  0  0  0  0  0  0  0
   23.5576  -25.3452  -15.8817 C   0  0  1  0  0  0  0  0  0  0  0  0
   22.4012  -24.4032  -16.1321 C   0  0  0  0  0  0  0  0  0  0  0  0
   24.7112  -24.6549  -15.2067 C   0  0  0  0  0  0  0  0  0  0  0  0
   25.1827  -23.4410  -15.9337 C   0  0  2  0  0  0  0  0  0  0  0  0
   25.9321  -23.8624  -17.1019 N   0  0  0  0  0  0  0  0  0  0  0  0
   26.1060  -22.6788  -15.0472 C   0  0  0  0  0  0  0  0  0  0  0  0
   27.2873  -23.0899  -14.8161 O   0  0  0  0  0  0  0  0  0  0  0  0
   25.9584  -19.4299  -16.3489 C   0  0  0  0  0  0  0  0  0  0  0  0
   27.0443  -18.9722  -15.3570 C   0  0  0  0  0  0  0  0  0  0  0  0
   26.5277  -19.2937  -14.0018 C   0  0  2  0  0  0  0  0  0  0  0  0
   27.0355  -18.3253  -12.9423 C   0  0  0  0  0  0  0  0  0  0  0  0
   26.6876  -20.7212  -13.5538 C   0  0  2  0  0  0  0  0  0  0  0  0
   25.7287  -21.4643  -14.4153 N   0  0  0  0  0  0  0  0  0  0  0  0
   26.3709  -20.9685  -12.1409 C   0  0  0  0  0  0  0  0  0  0  0  0
   25.1542  -20.9925  -11.7530 O   0  0  0  0  0  0  0  0  0  0  0  0
   27.1161  -19.4602   -3.5678 O   0  0  0  0  0  0  0  0  0  0  0  0
   27.3943  -19.8012   -4.8836 C   0  0  0  0  0  0  0  0  0  0  0  0
   27.1138  -21.0761   -5.3467 C   0  0  0  0  0  0  0  0  0  0  0  0
   27.4067  -21.3626   -6.6516 C   0  0  0  0  0  0  0  0  0  0  0  0
   27.9639  -20.4541   -7.5259 C   0  0  0  0  0  0  0  0  0  0  0  0
   28.2834  -20.7692   -8.9305 C   0  0  0  0  0  0  0  0  0  0  0  0
   27.0313  -21.0237   -9.7056 C   0  0  2  0  0  0  0  0  0  0  0  0
   27.3264  -21.1952  -11.1295 N   0  0  0  0  0  0  0  0  0  0  0  0
   26.0260  -19.9611   -9.5506 C   0  0  0  0  0  0  0  0  0  0  0  0
   26.1370  -18.8303  -10.1182 O   0  0  0  0  0  0  0  0  0  0  0  0
   28.2236  -19.1911   -7.0057 C   0  0  0  0  0  0  0  0  0  0  0  0
   27.9504  -18.8515   -5.7094 C   0  0  0  0  0  0  0  0  0  0  0  0
   24.9120  -20.1986   -8.7589 O   0  0  0  0  0  0  0  0  0  0  0  0
  2  1  1  1
  3  2  1  0
  4  2  1  0
  5  4  1  0
  5  6  1  6
  7  8  2  0
  7  5  1  0
  9 10  1  0
 11 10  1  0
 11 13  1  0
 11 12  1  1
 13 15  1  0
 13 14  1  6
 14  7  1  0
 15 16  2  0
 17 18  1  0
 18 19  2  0
 18 28  1  0
 19 20  1  0
 20 21  2  0
 21 22  1  0
 23 22  1  1
 23 25  1  0
 24 23  1  0
 24 15  1  0
 25 26  2  0
 25 29  1  0
 27 21  1  0
 28 27  2  0
M  END
$$$$
