LIY.pdb
     RDKit          3D

 29 29  0  0  1  0  0  0  0  0999 V2000
   27.4919  -20.2235  -18.9878 C   0  0  0  0  0  0  0  0  0  0  0  0
   27.5665  -19.6406  -17.6175 C   0  0  1  0  0  0  0  0  0  0  0  0
   27.4636  -18.1355  -17.7223 C   0  0  0  0  0  0  0  0  0  0  0  0
   26.5540  -20.2100  -16.6617 C   0  0  0  0  0  0  0  0  0  0  0  0
   26.5633  -19.5481  -15.3252 C   0  0  2  0  0  0  0  0  0  0  0  0
   27.9172  -19.5727  -14.8054 N   0  0  0  0  0  0  0  0  0  0  0  0
   25.7012  -20.3306  -14.3959 C   0  0  0  0  0  0  0  0  0  0  0  0
   24.8601  -21.1786  -14.8332 O   0  0  0  0  0  0  0  0  0  0  0  0
   27.3276  -21.0463   -9.1987 C   0  0  0  0  0  0  0  0  0  0  0  0
   26.8353  -21.4014  -10.6143 C   0  0  0  0  0  0  0  0  0  0  0  0
   25.4784  -20.8101  -10.7402 C   0  0  2  0  0  0  0  0  0  0  0  0
   24.5356  -21.2815   -9.6413 C   0  0  0  0  0  0  0  0  0  0  0  0
   24.8315  -20.9197  -12.0943 C   0  0  2  0  0  0  0  0  0  0  0  0
   25.7652  -20.1793  -12.9853 N   0  0  0  0  0  0  0  0  0  0  0  0
   23.4896  -20.3303  -12.1917 C   0  0  0  0  0  0  0  0  0  0  0  0
   23.3216  -19.0831  -11.9734 O   0  0  0  0  0  0  0  0  0  0  0  0
   21.0063  -22.5869  -18.5982 O   0  0  0  0  0  0  0  0  0  0  0  0
   21.0237  -21.8305  -17.4352 C   0  0  0  0  0  0  0  0  0  0  0  0
   22.2255  -21.5433  -16.8094 C   0  0  0  0  0  0  0  0  0  0  0  0
   22.1893  -20.7941  -15.6657 C   0  0  0  0  0  0  0  0  0  0  0  0
   21.0256  -20.3123  -15.1055 C   0  0  0  0  0  0  0  0  0  0  0  0
   20.9908  -19.5097  -13.8690 C   0  0  0  0  0  0  0  0  0  0  0  0
   21.0122  -20.3999  -12.6688 C   0  0  2  0  0  0  0  0  0  0  0  0
   22.3191  -21.0435  -12.5214 N   0  0  0  0  0  0  0  0  0  0  0  0
   19.9693  -21.4369  -12.6961 C   0  0  0  0  0  0  0  0  0  0  0  0
   20.2418  -22.6753  -12.7686 O   0  0  0  0  0  0  0  0  0  0  0  0
   19.8507  -20.6318  -15.7768 C   0  0  0  0  0  0  0  0  0  0  0  0
   19.8298  -21.3769  -16.9234 C   0  0  0  0  0  0  0  0  0  0  0  0
   18.6373  -21.0538  -12.6376 O   0  0  0  0  0  0  0  0  0  0  0  0
  2  1  1  6
  3  2  1  0
  4  2  1  0
  5  4  1  0
  5  6  1  1
  7  8  2  0
  7  5  1  0
  9 10  1  0
 11 10  1  0
 11 13  1  0
 11 12  1  1
 13 15  1  0
 13 14  1  6
 14  7  1  0
 15 16  2  0
 17 18  1  0
 18 19  2  0
 18 28  1  0
 19 20  1  0
 20 21  2  0
 21 22  1  0
 23 22  1  6
 23 25  1  0
 24 23  1  0
 24 15  1  0
 25 26  2  0
 25 29  1  0
 27 21  1  0
 28 27  2  0
M  END
$$$$
