LIY.pdb
     RDKit          3D

 29 29  0  0  1  0  0  0  0  0999 V2000
   12.1076  -13.4039    1.8195 C   0  0  0  0  0  0  0  0  0  0  0  0
   12.0169  -14.8915    1.7773 C   0  0  1  0  0  0  0  0  0  0  0  0
   12.2993  -15.3567    0.3663 C   0  0  0  0  0  0  0  0  0  0  0  0
   12.8963  -15.5802    2.7849 C   0  0  0  0  0  0  0  0  0  0  0  0
   12.8710  -17.0674    2.6748 C   0  0  2  0  0  0  0  0  0  0  0  0
   11.5413  -17.5347    3.0175 N   0  0  0  0  0  0  0  0  0  0  0  0
   13.8268  -17.6385    3.6645 C   0  0  0  0  0  0  0  0  0  0  0  0
   13.4987  -17.7953    4.8834 O   0  0  0  0  0  0  0  0  0  0  0  0
   16.5318  -21.9307    2.6222 C   0  0  0  0  0  0  0  0  0  0  0  0
   15.7062  -20.8259    3.3080 C   0  0  0  0  0  0  0  0  0  0  0  0
   16.6756  -19.7737    3.7077 C   0  0  2  0  0  0  0  0  0  0  0  0
   17.8238  -20.3283    4.5399 C   0  0  0  0  0  0  0  0  0  0  0  0
   16.0906  -18.5414    4.3428 C   0  0  2  0  0  0  0  0  0  0  0  0
   15.1436  -18.0367    3.3122 N   0  0  0  0  0  0  0  0  0  0  0  0
   17.0628  -17.4907    4.6722 C   0  0  0  0  0  0  0  0  0  0  0  0
   17.9680  -17.1702    3.8299 O   0  0  0  0  0  0  0  0  0  0  0  0
   21.5458  -10.6287    7.4691 O   0  0  0  0  0  0  0  0  0  0  0  0
   20.5545  -11.5801    7.2769 C   0  0  0  0  0  0  0  0  0  0  0  0
   20.0986  -12.3361    8.3441 C   0  0  0  0  0  0  0  0  0  0  0  0
   19.1202  -13.2609    8.1026 C   0  0  0  0  0  0  0  0  0  0  0  0
   18.5667  -13.4793    6.8592 C   0  0  0  0  0  0  0  0  0  0  0  0
   17.5160  -14.4815    6.6024 C   0  0  0  0  0  0  0  0  0  0  0  0
   18.1260  -15.7845    6.1982 C   0  0  2  0  0  0  0  0  0  0  0  0
   17.0890  -16.7691    5.8829 N   0  0  0  0  0  0  0  0  0  0  0  0
   19.0242  -16.3468    7.2185 C   0  0  0  0  0  0  0  0  0  0  0  0
   18.6160  -17.1388    8.1236 O   0  0  0  0  0  0  0  0  0  0  0  0
   19.0630  -12.6916    5.8266 C   0  0  0  0  0  0  0  0  0  0  0  0
   20.0399  -11.7528    6.0125 C   0  0  0  0  0  0  0  0  0  0  0  0
   20.3684  -16.0050    7.1939 O   0  0  0  0  0  0  0  0  0  0  0  0
  2  1  1  6
  3  2  1  0
  4  2  1  0
  5  4  1  0
  5  6  1  1
  7  8  2  0
  7  5  1  0
  9 10  1  0
 11 10  1  0
 11 13  1  0
 11 12  1  1
 13 15  1  0
 13 14  1  6
 14  7  1  0
 15 16  2  0
 17 18  1  0
 18 19  2  0
 18 28  1  0
 19 20  1  0
 20 21  2  0
 21 22  1  0
 23 22  1  1
 23 25  1  0
 24 23  1  0
 24 15  1  0
 25 26  2  0
 25 29  1  0
 27 21  1  0
 28 27  2  0
M  END
$$$$
