LIY.pdb
     RDKit          3D

 29 29  0  0  1  0  0  0  0  0999 V2000
   27.6848  -17.6858  -18.0722 C   0  0  0  0  0  0  0  0  0  0  0  0
   28.1971  -18.6266  -17.0352 C   0  0  1  0  0  0  0  0  0  0  0  0
   29.0477  -17.8526  -16.0531 C   0  0  0  0  0  0  0  0  0  0  0  0
   27.1168  -19.4149  -16.3466 C   0  0  0  0  0  0  0  0  0  0  0  0
   27.6063  -20.1867  -15.1680 C   0  0  2  0  0  0  0  0  0  0  0  0
   28.4930  -21.2348  -15.6363 N   0  0  0  0  0  0  0  0  0  0  0  0
   26.4424  -20.8349  -14.5014 C   0  0  0  0  0  0  0  0  0  0  0  0
   25.9824  -21.9473  -14.9126 O   0  0  0  0  0  0  0  0  0  0  0  0
   26.2678  -20.7137   -9.2275 C   0  0  0  0  0  0  0  0  0  0  0  0
   26.2177  -21.1828  -10.6938 C   0  0  0  0  0  0  0  0  0  0  0  0
   24.9252  -20.6946  -11.2396 C   0  0  2  0  0  0  0  0  0  0  0  0
   23.7375  -21.1195  -10.3869 C   0  0  0  0  0  0  0  0  0  0  0  0
   24.6746  -20.9732  -12.6969 C   0  0  2  0  0  0  0  0  0  0  0  0
   25.7851  -20.2585  -13.3823 N   0  0  0  0  0  0  0  0  0  0  0  0
   23.3873  -20.4865  -13.2104 C   0  0  0  0  0  0  0  0  0  0  0  0
   23.0064  -19.2944  -12.9549 O   0  0  0  0  0  0  0  0  0  0  0  0
   15.6061  -19.5631  -17.1255 O   0  0  0  0  0  0  0  0  0  0  0  0
   16.8655  -20.0230  -16.7687 C   0  0  0  0  0  0  0  0  0  0  0  0
   17.0042  -21.2351  -16.1130 C   0  0  0  0  0  0  0  0  0  0  0  0
   18.2668  -21.6442  -15.7828 C   0  0  0  0  0  0  0  0  0  0  0  0
   19.4032  -20.9173  -16.0665 C   0  0  0  0  0  0  0  0  0  0  0  0
   20.7622  -21.3595  -15.7035 C   0  0  0  0  0  0  0  0  0  0  0  0
   21.1794  -20.7496  -14.4045 C   0  0  2  0  0  0  0  0  0  0  0  0
   22.4955  -21.2446  -13.9961 N   0  0  0  0  0  0  0  0  0  0  0  0
   20.2198  -20.9891  -13.3156 C   0  0  0  0  0  0  0  0  0  0  0  0
   20.2171  -22.0604  -12.6333 O   0  0  0  0  0  0  0  0  0  0  0  0
   19.2028  -19.7095  -16.7255 C   0  0  0  0  0  0  0  0  0  0  0  0
   17.9630  -19.2532  -17.0789 C   0  0  0  0  0  0  0  0  0  0  0  0
   19.2831  -20.0107  -13.0165 O   0  0  0  0  0  0  0  0  0  0  0  0
  2  1  1  6
  3  2  1  0
  4  2  1  0
  5  4  1  0
  5  6  1  6
  7  8  2  0
  7  5  1  0
  9 10  1  0
 11 10  1  0
 11 13  1  0
 11 12  1  1
 13 15  1  0
 13 14  1  6
 14  7  1  0
 15 16  2  0
 17 18  1  0
 18 19  2  0
 18 28  1  0
 19 20  1  0
 20 21  2  0
 21 22  1  0
 23 22  1  6
 23 25  1  0
 24 23  1  0
 24 15  1  0
 25 26  2  0
 25 29  1  0
 27 21  1  0
 28 27  2  0
M  END
$$$$
