LIY.pdb
     RDKit          3D

 29 29  0  0  1  0  0  0  0  0999 V2000
   25.8227  -20.8486   -9.6322 C   0  0  0  0  0  0  0  0  0  0  0  0
   26.0769  -20.9731  -11.0961 C   0  0  1  0  0  0  0  0  0  0  0  0
   26.0391  -22.4369  -11.4741 C   0  0  0  0  0  0  0  0  0  0  0  0
   25.1483  -20.1474  -11.9439 C   0  0  0  0  0  0  0  0  0  0  0  0
   25.4331  -20.2477  -13.4045 C   0  0  2  0  0  0  0  0  0  0  0  0
   26.7984  -19.8190  -13.6408 N   0  0  0  0  0  0  0  0  0  0  0  0
   24.5276  -19.3174  -14.1352 C   0  0  0  0  0  0  0  0  0  0  0  0
   24.1476  -18.2214  -13.6133 O   0  0  0  0  0  0  0  0  0  0  0  0
   25.8364  -17.2752  -18.4909 C   0  0  0  0  0  0  0  0  0  0  0  0
   25.2366  -17.5814  -17.1057 C   0  0  0  0  0  0  0  0  0  0  0  0
   23.9298  -18.2410  -17.3581 C   0  0  2  0  0  0  0  0  0  0  0  0
   23.0669  -17.4622  -18.3416 C   0  0  0  0  0  0  0  0  0  0  0  0
   23.1414  -18.6363  -16.1390 C   0  0  2  0  0  0  0  0  0  0  0  0
   24.0406  -19.5939  -15.4402 N   0  0  0  0  0  0  0  0  0  0  0  0
   21.8531  -19.2856  -16.4154 C   0  0  0  0  0  0  0  0  0  0  0  0
   21.8186  -20.3932  -17.0507 O   0  0  0  0  0  0  0  0  0  0  0  0
   13.4749  -21.8347  -16.4813 O   0  0  0  0  0  0  0  0  0  0  0  0
   14.6965  -21.2618  -16.1582 C   0  0  0  0  0  0  0  0  0  0  0  0
   15.7707  -22.0632  -15.8086 C   0  0  0  0  0  0  0  0  0  0  0  0
   16.9534  -21.4501  -15.4987 C   0  0  0  0  0  0  0  0  0  0  0  0
   17.1319  -20.0833  -15.5155 C   0  0  0  0  0  0  0  0  0  0  0  0
   18.4072  -19.4264  -15.1751 C   0  0  0  0  0  0  0  0  0  0  0  0
   19.3356  -19.4516  -16.3459 C   0  0  2  0  0  0  0  0  0  0  0  0
   20.5965  -18.7799  -16.0249 N   0  0  0  0  0  0  0  0  0  0  0  0
   18.7628  -18.8401  -17.5548 C   0  0  0  0  0  0  0  0  0  0  0  0
   18.9109  -17.6093  -17.8313 O   0  0  0  0  0  0  0  0  0  0  0  0
   16.0195  -19.3299  -15.8738 C   0  0  0  0  0  0  0  0  0  0  0  0
   14.8140  -19.8913  -16.1930 C   0  0  0  0  0  0  0  0  0  0  0  0
   18.0356  -19.6330  -18.4304 O   0  0  0  0  0  0  0  0  0  0  0  0
  2  1  1  1
  3  2  1  0
  4  2  1  0
  5  4  1  0
  5  6  1  1
  7  8  2  0
  7  5  1  0
  9 10  1  0
 11 10  1  0
 11 13  1  0
 11 12  1  6
 13 15  1  0
 13 14  1  1
 14  7  1  0
 15 16  2  0
 17 18  1  0
 18 19  2  0
 18 28  1  0
 19 20  1  0
 20 21  2  0
 21 22  1  0
 23 22  1  1
 23 25  1  0
 24 23  1  0
 24 15  1  0
 25 26  2  0
 25 29  1  0
 27 21  1  0
 28 27  2  0
M  END
$$$$
