LIY.pdb
     RDKit          3D

 29 29  0  0  1  0  0  0  0  0999 V2000
   27.5132  -17.6641  -17.2541 C   0  0  0  0  0  0  0  0  0  0  0  0
   28.2180  -18.6357  -16.3698 C   0  0  1  0  0  0  0  0  0  0  0  0
   29.2085  -17.8824  -15.5104 C   0  0  0  0  0  0  0  0  0  0  0  0
   27.2908  -19.4878  -15.5468 C   0  0  0  0  0  0  0  0  0  0  0  0
   27.9969  -20.3203  -14.5305 C   0  0  2  0  0  0  0  0  0  0  0  0
   28.7514  -21.3504  -15.2186 N   0  0  0  0  0  0  0  0  0  0  0  0
   26.9822  -20.9921  -13.6712 C   0  0  0  0  0  0  0  0  0  0  0  0
   26.3441  -22.0136  -14.0802 O   0  0  0  0  0  0  0  0  0  0  0  0
   27.1043  -20.2757   -8.2195 C   0  0  0  0  0  0  0  0  0  0  0  0
   27.0623  -20.9922   -9.5823 C   0  0  0  0  0  0  0  0  0  0  0  0
   25.7592  -20.6325  -10.1981 C   0  0  2  0  0  0  0  0  0  0  0  0
   24.5786  -20.9739   -9.2992 C   0  0  0  0  0  0  0  0  0  0  0  0
   25.5325  -21.1239  -11.6021 C   0  0  2  0  0  0  0  0  0  0  0  0
   26.6703  -20.5392  -12.3619 N   0  0  0  0  0  0  0  0  0  0  0  0
   24.2655  -20.6994  -12.2123 C   0  0  0  0  0  0  0  0  0  0  0  0
   23.9576  -19.4603  -12.2502 O   0  0  0  0  0  0  0  0  0  0  0  0
   17.0491  -19.8749  -17.0224 O   0  0  0  0  0  0  0  0  0  0  0  0
   18.2226  -20.3484  -16.4536 C   0  0  0  0  0  0  0  0  0  0  0  0
   18.2234  -21.5415  -15.7501 C   0  0  0  0  0  0  0  0  0  0  0  0
   19.4057  -21.9652  -15.2084 C   0  0  0  0  0  0  0  0  0  0  0  0
   20.5908  -21.2708  -15.3249 C   0  0  0  0  0  0  0  0  0  0  0  0
   21.8620  -21.7285  -14.7344 C   0  0  0  0  0  0  0  0  0  0  0  0
   22.0724  -21.0974  -13.3962 C   0  0  2  0  0  0  0  0  0  0  0  0
   23.3178  -21.5698  -12.7880 N   0  0  0  0  0  0  0  0  0  0  0  0
   20.9630  -21.3364  -12.4604 C   0  0  0  0  0  0  0  0  0  0  0  0
   20.8969  -22.3757  -11.7333 O   0  0  0  0  0  0  0  0  0  0  0  0
   20.5296  -20.0809  -16.0416 C   0  0  0  0  0  0  0  0  0  0  0  0
   19.3747  -19.6113  -16.6037 C   0  0  0  0  0  0  0  0  0  0  0  0
   19.9503  -20.3934  -12.3620 O   0  0  0  0  0  0  0  0  0  0  0  0
  2  1  1  1
  3  2  1  0
  4  2  1  0
  5  4  1  0
  5  6  1  6
  7  8  2  0
  7  5  1  0
  9 10  1  0
 11 10  1  0
 11 13  1  0
 11 12  1  1
 13 15  1  0
 13 14  1  6
 14  7  1  0
 15 16  2  0
 17 18  1  0
 18 19  2  0
 18 28  1  0
 19 20  1  0
 20 21  2  0
 21 22  1  0
 23 22  1  6
 23 25  1  0
 24 23  1  0
 24 15  1  0
 25 26  2  0
 25 29  1  0
 27 21  1  0
 28 27  2  0
M  END
$$$$
