LIY.pdb
     RDKit          3D

 29 29  0  0  1  0  0  0  0  0999 V2000
   20.7368  -13.6395  -21.6433 C   0  0  0  0  0  0  0  0  0  0  0  0
   21.9885  -14.0395  -20.9389 C   0  0  1  0  0  0  0  0  0  0  0  0
   23.1387  -13.9808  -21.9190 C   0  0  0  0  0  0  0  0  0  0  0  0
   22.2654  -13.2393  -19.6956 C   0  0  0  0  0  0  0  0  0  0  0  0
   23.5650  -13.5807  -19.0486 C   0  0  2  0  0  0  0  0  0  0  0  0
   23.4920  -14.9416  -18.5522 N   0  0  0  0  0  0  0  0  0  0  0  0
   23.7725  -12.6778  -17.8819 C   0  0  0  0  0  0  0  0  0  0  0  0
   23.1226  -12.8381  -16.8003 O   0  0  0  0  0  0  0  0  0  0  0  0
   27.0902  -12.2997  -15.1224 C   0  0  0  0  0  0  0  0  0  0  0  0
   27.2099  -11.8112  -16.5782 C   0  0  0  0  0  0  0  0  0  0  0  0
   26.4023  -10.5673  -16.6641 C   0  0  2  0  0  0  0  0  0  0  0  0
   26.8031   -9.5413  -15.6129 C   0  0  0  0  0  0  0  0  0  0  0  0
   24.9091  -10.7490  -16.7038 C   0  0  2  0  0  0  0  0  0  0  0  0
   24.6952  -11.5986  -17.9063 N   0  0  0  0  0  0  0  0  0  0  0  0
   24.1352   -9.5075  -16.8364 C   0  0  0  0  0  0  0  0  0  0  0  0
   24.4150   -8.6756  -17.7644 O   0  0  0  0  0  0  0  0  0  0  0  0
   17.9032  -12.3975  -15.0157 O   0  0  0  0  0  0  0  0  0  0  0  0
   18.6808  -11.3721  -15.5341 C   0  0  0  0  0  0  0  0  0  0  0  0
   18.4533  -10.0618  -15.1471 C   0  0  0  0  0  0  0  0  0  0  0  0
   19.2469   -9.0873  -15.6868 C   0  0  0  0  0  0  0  0  0  0  0  0
   20.2562   -9.3390  -16.5912 C   0  0  0  0  0  0  0  0  0  0  0  0
   21.1057   -8.2846  -17.1748 C   0  0  0  0  0  0  0  0  0  0  0  0
   22.2340   -7.9538  -16.2524 C   0  0  2  0  0  0  0  0  0  0  0  0
   23.0634   -9.1339  -16.0005 N   0  0  0  0  0  0  0  0  0  0  0  0
   21.7882   -7.3994  -14.9649 C   0  0  0  0  0  0  0  0  0  0  0  0
   21.9604   -8.0095  -13.8643 O   0  0  0  0  0  0  0  0  0  0  0  0
   20.4386  -10.6719  -16.9424 C   0  0  0  0  0  0  0  0  0  0  0  0
   19.6741  -11.6852  -16.4333 C   0  0  0  0  0  0  0  0  0  0  0  0
   21.1587   -6.1634  -14.9460 O   0  0  0  0  0  0  0  0  0  0  0  0
  2  1  1  6
  3  2  1  0
  4  2  1  0
  5  4  1  0
  5  6  1  1
  7  8  2  0
  7  5  1  0
  9 10  1  0
 11 10  1  0
 11 13  1  0
 11 12  1  1
 13 15  1  0
 13 14  1  6
 14  7  1  0
 15 16  2  0
 17 18  1  0
 18 19  2  0
 18 28  1  0
 19 20  1  0
 20 21  2  0
 21 22  1  0
 23 22  1  6
 23 25  1  0
 24 23  1  0
 24 15  1  0
 25 26  2  0
 25 29  1  0
 27 21  1  0
 28 27  2  0
M  END
$$$$
