LIY.pdb
     RDKit          3D

 29 29  0  0  1  0  0  0  0  0999 V2000
   26.5449  -16.1208  -18.7361 C   0  0  0  0  0  0  0  0  0  0  0  0
   26.2767  -17.2595  -17.8119 C   0  0  1  0  0  0  0  0  0  0  0  0
   27.5973  -17.8485  -17.3688 C   0  0  0  0  0  0  0  0  0  0  0  0
   25.4004  -16.8975  -16.6440 C   0  0  0  0  0  0  0  0  0  0  0  0
   25.1435  -18.0396  -15.7198 C   0  0  2  0  0  0  0  0  0  0  0  0
   25.2859  -19.2775  -16.4622 N   0  0  0  0  0  0  0  0  0  0  0  0
   23.7381  -17.9564  -15.2328 C   0  0  0  0  0  0  0  0  0  0  0  0
   23.3075  -16.9191  -14.6355 O   0  0  0  0  0  0  0  0  0  0  0  0
   19.8093  -18.5075  -18.3766 C   0  0  0  0  0  0  0  0  0  0  0  0
   20.7046  -18.0499  -17.2097 C   0  0  0  0  0  0  0  0  0  0  0  0
   20.5848  -19.0964  -16.1622 C   0  0  2  0  0  0  0  0  0  0  0  0
   19.1351  -19.4082  -15.8165 C   0  0  0  0  0  0  0  0  0  0  0  0
   21.4061  -18.8858  -14.9191 C   0  0  2  0  0  0  0  0  0  0  0  0
   22.8070  -19.0150  -15.4033 N   0  0  0  0  0  0  0  0  0  0  0  0
   21.1670  -19.8578  -13.8441 C   0  0  0  0  0  0  0  0  0  0  0  0
   21.4626  -21.0883  -14.0172 O   0  0  0  0  0  0  0  0  0  0  0  0
   19.6918  -23.7785   -6.1508 O   0  0  0  0  0  0  0  0  0  0  0  0
   19.8567  -22.8223   -7.1425 C   0  0  0  0  0  0  0  0  0  0  0  0
   18.7508  -22.2586   -7.7571 C   0  0  0  0  0  0  0  0  0  0  0  0
   18.9665  -21.3205   -8.7288 C   0  0  0  0  0  0  0  0  0  0  0  0
   20.2203  -20.9087   -9.1271 C   0  0  0  0  0  0  0  0  0  0  0  0
   20.4482  -19.9011  -10.1792 C   0  0  0  0  0  0  0  0  0  0  0  0
   20.4343  -20.5438  -11.5284 C   0  0  2  0  0  0  0  0  0  0  0  0
   20.6210  -19.5449  -12.5826 N   0  0  0  0  0  0  0  0  0  0  0  0
   19.2017  -21.2995  -11.7991 C   0  0  0  0  0  0  0  0  0  0  0  0
   18.1420  -20.7442  -12.2257 O   0  0  0  0  0  0  0  0  0  0  0  0
   21.2921  -21.5085   -8.4756 C   0  0  0  0  0  0  0  0  0  0  0  0
   21.1332  -22.4512   -7.4975 C   0  0  0  0  0  0  0  0  0  0  0  0
   19.1917  -22.6700  -11.5854 O   0  0  0  0  0  0  0  0  0  0  0  0
  2  1  1  1
  3  2  1  0
  4  2  1  0
  5  4  1  0
  5  6  1  6
  7  8  2  0
  7  5  1  0
  9 10  1  0
 11 10  1  0
 11 13  1  0
 11 12  1  1
 13 15  1  0
 13 14  1  6
 14  7  1  0
 15 16  2  0
 17 18  1  0
 18 19  2  0
 18 28  1  0
 19 20  1  0
 20 21  2  0
 21 22  1  0
 23 22  1  1
 23 25  1  0
 24 23  1  0
 24 15  1  0
 25 26  2  0
 25 29  1  0
 27 21  1  0
 28 27  2  0
M  END
$$$$
