IEK.pdb
     RDKit          3D

 27 26  0  0  1  0  0  0  0  0999 V2000
   14.6442  -13.0403  -18.1691 C   0  0  0  0  0  0  0  0  0  0  0  0
   15.8941  -13.1343  -17.3077 C   0  0  0  0  0  0  0  0  0  0  0  0
   16.2088  -11.7856  -16.6807 C   0  0  2  0  0  0  0  0  0  0  0  0
   16.3901  -10.7336  -17.7490 C   0  0  0  0  0  0  0  0  0  0  0  0
   17.3790  -11.8239  -15.7486 C   0  0  2  0  0  0  0  0  0  0  0  0
   17.1510  -12.8634  -14.7614 N   0  0  0  0  0  0  0  0  0  0  0  0
   17.6084  -10.4892  -15.1385 C   0  0  0  0  0  0  0  0  0  0  0  0
   16.7039   -9.9197  -14.4770 O   0  0  0  0  0  0  0  0  0  0  0  0
   18.8506   -9.7738  -15.2608 N   0  0  0  0  0  0  0  0  0  0  0  0
   19.0221   -8.4451  -14.7806 C   0  0  1  0  0  0  0  0  0  0  0  0
   20.4049   -8.0695  -14.3479 C   0  0  0  0  0  0  0  0  0  0  0  0
   20.5802   -6.6733  -13.8369 C   0  0  0  0  0  0  0  0  0  0  0  0
   21.9579   -6.2540  -13.5955 C   0  0  0  0  0  0  0  0  0  0  0  0
   22.1801   -5.0444  -13.2511 O   0  0  0  0  0  0  0  0  0  0  0  0
   18.5776   -7.4267  -15.7941 C   0  0  0  0  0  0  0  0  0  0  0  0
   18.7697   -7.6100  -17.0191 O   0  0  0  0  0  0  0  0  0  0  0  0
   23.0158   -7.1410  -13.7339 O   0  0  0  0  0  0  0  0  0  0  0  0
   17.9388   -6.2686  -15.3096 N   0  0  0  0  0  0  0  0  0  0  0  0
   17.3470   -5.2705  -16.3063 C   0  0  1  0  0  0  0  0  0  0  0  0
   16.0341   -5.8732  -16.6524 C   0  0  0  0  0  0  0  0  0  0  0  0
   14.9737   -5.1573  -17.3439 C   0  0  0  0  0  0  0  0  0  0  0  0
   13.6846   -5.8197  -17.6345 C   0  0  0  0  0  0  0  0  0  0  0  0
   12.6636   -4.9615  -18.3169 C   0  0  0  0  0  0  0  0  0  0  0  0
   11.4664   -5.7584  -18.5335 N   0  0  0  0  0  0  0  0  0  0  0  0
   17.2831   -4.0198  -15.5261 C   0  0  0  0  0  0  0  0  0  0  0  0
   16.9803   -3.9488  -14.3272 O   0  0  0  0  0  0  0  0  0  0  0  0
   17.5769   -2.7593  -16.1172 O   0  0  0  0  0  0  0  0  0  0  0  0
  1  2  1  0
  2  3  1  0
  3  4  1  6
  5  3  1  0
  5  6  1  1
  7  5  1  0
  7  8  2  0
  9  7  1  0
 10  9  1  0
 10 11  1  6
 12 11  1  0
 12 13  1  0
 13 14  2  0
 15 10  1  0
 16 15  2  0
 17 13  1  0
 18 15  1  0
 19 25  1  0
 19 18  1  0
 19 20  1  1
 21 20  1  0
 21 22  1  0
 23 22  1  0
 23 24  1  0
 25 27  1  0
 26 25  2  0
M  END
$$$$
