IEK.pdb
     RDKit          3D

 27 26  0  0  1  0  0  0  0  0999 V2000
   17.8141  -18.8915  -18.5959 C   0  0  0  0  0  0  0  0  0  0  0  0
   18.6631  -18.2706  -17.4973 C   0  0  0  0  0  0  0  0  0  0  0  0
   20.0350  -18.9242  -17.4538 C   0  0  2  0  0  0  0  0  0  0  0  0
   19.9058  -20.4152  -17.2517 C   0  0  0  0  0  0  0  0  0  0  0  0
   20.9505  -18.3135  -16.4397 C   0  0  2  0  0  0  0  0  0  0  0  0
   21.0774  -16.8958  -16.7244 N   0  0  0  0  0  0  0  0  0  0  0  0
   22.2584  -19.0174  -16.4213 C   0  0  0  0  0  0  0  0  0  0  0  0
   22.3256  -20.2439  -16.1544 O   0  0  0  0  0  0  0  0  0  0  0  0
   23.5073  -18.3597  -16.6996 N   0  0  0  0  0  0  0  0  0  0  0  0
   24.7629  -19.0222  -16.6006 C   0  0  1  0  0  0  0  0  0  0  0  0
   25.8242  -18.5788  -17.5584 C   0  0  0  0  0  0  0  0  0  0  0  0
   25.5750  -18.8771  -19.0042 C   0  0  0  0  0  0  0  0  0  0  0  0
   26.6104  -18.4308  -19.9321 C   0  0  0  0  0  0  0  0  0  0  0  0
   27.6963  -19.0986  -20.0078 O   0  0  0  0  0  0  0  0  0  0  0  0
   25.3381  -18.9181  -15.2149 C   0  0  0  0  0  0  0  0  0  0  0  0
   25.6499  -17.8058  -14.7283 O   0  0  0  0  0  0  0  0  0  0  0  0
   26.4325  -17.3044  -20.7226 O   0  0  0  0  0  0  0  0  0  0  0  0
   25.5069  -20.1158  -14.4932 N   0  0  0  0  0  0  0  0  0  0  0  0
   26.1561  -20.0678  -13.1090 C   0  0  1  0  0  0  0  0  0  0  0  0
   25.0472  -20.4550  -12.1996 C   0  0  0  0  0  0  0  0  0  0  0  0
   25.1810  -20.5421  -10.7540 C   0  0  0  0  0  0  0  0  0  0  0  0
   24.0359  -20.9572   -9.9164 C   0  0  0  0  0  0  0  0  0  0  0  0
   24.3048  -21.0059   -8.4433 C   0  0  0  0  0  0  0  0  0  0  0  0
   23.1142  -21.5089   -7.7768 N   0  0  0  0  0  0  0  0  0  0  0  0
   27.2531  -21.0481  -13.2221 C   0  0  0  0  0  0  0  0  0  0  0  0
   28.1418  -21.2156  -12.3759 O   0  0  0  0  0  0  0  0  0  0  0  0
   27.3718  -21.9034  -14.3530 O   0  0  0  0  0  0  0  0  0  0  0  0
  1  2  1  0
  2  3  1  0
  3  4  1  1
  5  3  1  0
  5  6  1  6
  7  5  1  0
  7  8  2  0
  9  7  1  0
 10  9  1  0
 10 11  1  6
 12 11  1  0
 12 13  1  0
 13 14  2  0
 15 10  1  0
 16 15  2  0
 17 13  1  0
 18 15  1  0
 19 25  1  0
 19 18  1  0
 19 20  1  1
 21 20  1  0
 21 22  1  0
 23 22  1  0
 23 24  1  0
 25 27  1  0
 26 25  2  0
M  END
$$$$
