IEK.pdb
     RDKit          3D

 27 26  0  0  1  0  0  0  0  0999 V2000
   29.4510  -16.2862  -17.2174 C   0  0  0  0  0  0  0  0  0  0  0  0
   28.0030  -15.9338  -16.9139 C   0  0  0  0  0  0  0  0  0  0  0  0
   27.7500  -14.4580  -17.1762 C   0  0  2  0  0  0  0  0  0  0  0  0
   28.6121  -13.6042  -16.2770 C   0  0  0  0  0  0  0  0  0  0  0  0
   26.3068  -14.0762  -17.0713 C   0  0  2  0  0  0  0  0  0  0  0  0
   25.5100  -15.0889  -17.7394 N   0  0  0  0  0  0  0  0  0  0  0  0
   26.0830  -12.7131  -17.6173 C   0  0  0  0  0  0  0  0  0  0  0  0
   26.4876  -11.6970  -16.9978 O   0  0  0  0  0  0  0  0  0  0  0  0
   25.4033  -12.4683  -18.8615 N   0  0  0  0  0  0  0  0  0  0  0  0
   25.1560  -11.1571  -19.3564 C   0  0  1  0  0  0  0  0  0  0  0  0
   25.6616  -10.8618  -20.7339 C   0  0  0  0  0  0  0  0  0  0  0  0
   25.5758   -9.4342  -21.1767 C   0  0  0  0  0  0  0  0  0  0  0  0
   26.0664   -9.1568  -22.5237 C   0  0  0  0  0  0  0  0  0  0  0  0
   25.4061   -8.3527  -23.2641 O   0  0  0  0  0  0  0  0  0  0  0  0
   23.6897  -10.8231  -19.3361 C   0  0  0  0  0  0  0  0  0  0  0  0
   22.8271  -11.6914  -19.6066 O   0  0  0  0  0  0  0  0  0  0  0  0
   27.2261   -9.7481  -23.0041 O   0  0  0  0  0  0  0  0  0  0  0  0
   23.3319   -9.5029  -18.9998 N   0  0  0  0  0  0  0  0  0  0  0  0
   21.8549   -9.1574  -18.8025 C   0  0  1  0  0  0  0  0  0  0  0  0
   21.8958   -8.0261  -17.8407 C   0  0  0  0  0  0  0  0  0  0  0  0
   20.7182   -7.4817  -17.1833 C   0  0  0  0  0  0  0  0  0  0  0  0
   20.8089   -6.2418  -16.3837 C   0  0  0  0  0  0  0  0  0  0  0  0
   19.5654   -5.8706  -15.6350 C   0  0  0  0  0  0  0  0  0  0  0  0
   19.7533   -4.5471  -15.0625 N   0  0  0  0  0  0  0  0  0  0  0  0
   21.4091   -8.8127  -20.1662 C   0  0  0  0  0  0  0  0  0  0  0  0
   22.0865   -8.1904  -20.9955 O   0  0  0  0  0  0  0  0  0  0  0  0
   20.1217   -9.1858  -20.6437 O   0  0  0  0  0  0  0  0  0  0  0  0
  1  2  1  0
  2  3  1  0
  3  4  1  1
  5  3  1  0
  5  6  1  6
  7  5  1  0
  7  8  2  0
  9  7  1  0
 10  9  1  0
 10 11  1  6
 12 11  1  0
 12 13  1  0
 13 14  2  0
 15 10  1  0
 16 15  2  0
 17 13  1  0
 18 15  1  0
 19 25  1  0
 19 18  1  0
 19 20  1  1
 21 20  1  0
 21 22  1  0
 23 22  1  0
 23 24  1  0
 25 27  1  0
 26 25  2  0
M  END
$$$$
