IEK.pdb
     RDKit          3D

 27 26  0  0  1  0  0  0  0  0999 V2000
   19.3887  -14.9189    1.1744 C   0  0  0  0  0  0  0  0  0  0  0  0
   18.6671  -16.2565    1.1153 C   0  0  0  0  0  0  0  0  0  0  0  0
   18.5596  -16.8629    2.5051 C   0  0  2  0  0  0  0  0  0  0  0  0
   19.9323  -17.0857    3.0941 C   0  0  0  0  0  0  0  0  0  0  0  0
   17.7397  -18.1143    2.5439 C   0  0  2  0  0  0  0  0  0  0  0  0
   16.4950  -17.8746    1.8365 N   0  0  0  0  0  0  0  0  0  0  0  0
   17.5300  -18.5617    3.9447 C   0  0  0  0  0  0  0  0  0  0  0  0
   16.6943  -17.9859    4.6862 O   0  0  0  0  0  0  0  0  0  0  0  0
   18.2524  -19.6572    4.5347 N   0  0  0  0  0  0  0  0  0  0  0  0
   18.1326  -20.0042    5.9097 C   0  0  1  0  0  0  0  0  0  0  0  0
   18.5874  -21.3788    6.2889 C   0  0  0  0  0  0  0  0  0  0  0  0
   17.8816  -22.5162    5.6183 C   0  0  0  0  0  0  0  0  0  0  0  0
   18.3384  -23.8530    5.9875 C   0  0  0  0  0  0  0  0  0  0  0  0
   18.7554  -24.6350    5.0680 O   0  0  0  0  0  0  0  0  0  0  0  0
   18.8626  -19.0308    6.7937 C   0  0  0  0  0  0  0  0  0  0  0  0
   20.0066  -18.6176    6.4907 O   0  0  0  0  0  0  0  0  0  0  0  0
   18.3254  -24.2799    7.3076 O   0  0  0  0  0  0  0  0  0  0  0  0
   18.2080  -18.6058    7.9662 N   0  0  0  0  0  0  0  0  0  0  0  0
   18.8824  -17.5652    8.8619 C   0  0  1  0  0  0  0  0  0  0  0  0
   17.9549  -16.4069    8.7955 C   0  0  0  0  0  0  0  0  0  0  0  0
   18.3771  -15.0239    8.9520 C   0  0  0  0  0  0  0  0  0  0  0  0
   17.3826  -13.9302    8.9591 C   0  0  0  0  0  0  0  0  0  0  0  0
   17.9514  -12.5488    9.0731 C   0  0  0  0  0  0  0  0  0  0  0  0
   16.8509  -11.6127    9.2390 N   0  0  0  0  0  0  0  0  0  0  0  0
   18.9514  -18.2464   10.1690 C   0  0  0  0  0  0  0  0  0  0  0  0
   18.3224  -19.2709   10.4666 O   0  0  0  0  0  0  0  0  0  0  0  0
   19.7774  -17.7572   11.2193 O   0  0  0  0  0  0  0  0  0  0  0  0
  1  2  1  0
  2  3  1  0
  3  4  1  6
  5  3  1  0
  5  6  1  1
  7  5  1  0
  7  8  2  0
  9  7  1  0
 10  9  1  0
 10 11  1  6
 12 11  1  0
 12 13  1  0
 13 14  2  0
 15 10  1  0
 16 15  2  0
 17 13  1  0
 18 15  1  0
 19 25  1  0
 19 18  1  0
 19 20  1  1
 21 20  1  0
 21 22  1  0
 23 22  1  0
 23 24  1  0
 25 27  1  0
 26 25  2  0
M  END
$$$$
