IEK.pdb
     RDKit          3D

 27 26  0  0  1  0  0  0  0  0999 V2000
   14.2382  -13.0146  -17.6458 C   0  0  0  0  0  0  0  0  0  0  0  0
   15.0482  -12.7384  -16.3885 C   0  0  0  0  0  0  0  0  0  0  0  0
   15.8020  -11.4249  -16.5211 C   0  0  2  0  0  0  0  0  0  0  0  0
   16.6994  -11.4488  -17.7356 C   0  0  0  0  0  0  0  0  0  0  0  0
   16.5630  -11.0512  -15.2879 C   0  0  2  0  0  0  0  0  0  0  0  0
   15.6585  -11.0977  -14.1535 N   0  0  0  0  0  0  0  0  0  0  0  0
   17.2131   -9.7259  -15.4532 C   0  0  0  0  0  0  0  0  0  0  0  0
   18.0576   -9.5323  -16.3638 O   0  0  0  0  0  0  0  0  0  0  0  0
   16.9288   -8.6011  -14.6025 N   0  0  0  0  0  0  0  0  0  0  0  0
   17.5824   -7.3450  -14.7460 C   0  0  1  0  0  0  0  0  0  0  0  0
   16.7940   -6.1374  -14.3456 C   0  0  0  0  0  0  0  0  0  0  0  0
   17.4499   -4.8126  -14.5818 C   0  0  0  0  0  0  0  0  0  0  0  0
   16.7011   -3.6437  -14.1291 C   0  0  0  0  0  0  0  0  0  0  0  0
   15.5541   -3.8183  -13.5954 O   0  0  0  0  0  0  0  0  0  0  0  0
   18.8804   -7.3045  -13.9875 C   0  0  0  0  0  0  0  0  0  0  0  0
   18.9565   -7.7441  -12.8161 O   0  0  0  0  0  0  0  0  0  0  0  0
   17.2126   -2.3615  -14.2695 O   0  0  0  0  0  0  0  0  0  0  0  0
   19.9981   -6.7576  -14.6475 N   0  0  0  0  0  0  0  0  0  0  0  0
   21.3707   -6.8311  -13.9763 C   0  0  1  0  0  0  0  0  0  0  0  0
   22.0836   -7.8631  -14.7721 C   0  0  0  0  0  0  0  0  0  0  0  0
   23.3822   -8.4085  -14.4094 C   0  0  0  0  0  0  0  0  0  0  0  0
   24.0287   -9.4357  -15.2531 C   0  0  0  0  0  0  0  0  0  0  0  0
   25.4112   -9.8318  -14.8329 C   0  0  0  0  0  0  0  0  0  0  0  0
   25.9577  -10.7264  -15.8408 N   0  0  0  0  0  0  0  0  0  0  0  0
   21.8847   -5.4554  -14.1191 C   0  0  0  0  0  0  0  0  0  0  0  0
   21.4485   -4.6170  -14.9196 O   0  0  0  0  0  0  0  0  0  0  0  0
   22.9570   -4.9756  -13.3162 O   0  0  0  0  0  0  0  0  0  0  0  0
  1  2  1  0
  2  3  1  0
  3  4  1  6
  5  3  1  0
  5  6  1  1
  7  5  1  0
  7  8  2  0
  9  7  1  0
 10  9  1  0
 10 11  1  1
 12 11  1  0
 12 13  1  0
 13 14  2  0
 15 10  1  0
 16 15  2  0
 17 13  1  0
 18 15  1  0
 19 25  1  0
 19 18  1  0
 19 20  1  6
 21 20  1  0
 21 22  1  0
 23 22  1  0
 23 24  1  0
 25 27  1  0
 26 25  2  0
M  END
$$$$
