IEK.pdb
     RDKit          3D

 27 26  0  0  1  0  0  0  0  0999 V2000
   23.9101  -13.9112  -16.6174 C   0  0  0  0  0  0  0  0  0  0  0  0
   24.1985  -12.5307  -16.0482 C   0  0  0  0  0  0  0  0  0  0  0  0
   23.1580  -11.5314  -16.5276 C   0  0  2  0  0  0  0  0  0  0  0  0
   23.0119  -11.5972  -18.0293 C   0  0  0  0  0  0  0  0  0  0  0  0
   23.4228  -10.1326  -16.0661 C   0  0  2  0  0  0  0  0  0  0  0  0
   23.5621  -10.1401  -14.6212 N   0  0  0  0  0  0  0  0  0  0  0  0
   22.3562   -9.2129  -16.5380 C   0  0  0  0  0  0  0  0  0  0  0  0
   22.1756   -9.0127  -17.7657 O   0  0  0  0  0  0  0  0  0  0  0  0
   21.4791   -8.5046  -15.6442 N   0  0  0  0  0  0  0  0  0  0  0  0
   20.5097   -7.5682  -16.1014 C   0  0  1  0  0  0  0  0  0  0  0  0
   19.3026   -7.3868  -15.2352 C   0  0  0  0  0  0  0  0  0  0  0  0
   18.2290   -6.4953  -15.7773 C   0  0  0  0  0  0  0  0  0  0  0  0
   17.0688   -6.3005  -14.9125 C   0  0  0  0  0  0  0  0  0  0  0  0
   16.2148   -7.2444  -14.8090 O   0  0  0  0  0  0  0  0  0  0  0  0
   21.1121   -6.2078  -16.3212 C   0  0  0  0  0  0  0  0  0  0  0  0
   21.8740   -5.6948  -15.4683 O   0  0  0  0  0  0  0  0  0  0  0  0
   16.8838   -5.1181  -14.2104 O   0  0  0  0  0  0  0  0  0  0  0  0
   20.7867   -5.5425  -17.5193 N   0  0  0  0  0  0  0  0  0  0  0  0
   21.4956   -4.2308  -17.8607 C   0  0  1  0  0  0  0  0  0  0  0  0
   21.7615   -4.3567  -19.3167 C   0  0  0  0  0  0  0  0  0  0  0  0
   22.4766   -3.3589  -20.0966 C   0  0  0  0  0  0  0  0  0  0  0  0
   22.6961   -3.5525  -21.5455 C   0  0  0  0  0  0  0  0  0  0  0  0
   23.4816   -2.4719  -22.2239 C   0  0  0  0  0  0  0  0  0  0  0  0
   23.6773   -2.8519  -23.6139 N   0  0  0  0  0  0  0  0  0  0  0  0
   20.5007   -3.2078  -17.4854 C   0  0  0  0  0  0  0  0  0  0  0  0
   20.6831   -1.9847  -17.5553 O   0  0  0  0  0  0  0  0  0  0  0  0
   19.2125   -3.5669  -16.9995 O   0  0  0  0  0  0  0  0  0  0  0  0
  1  2  1  0
  2  3  1  0
  3  4  1  6
  5  3  1  0
  5  6  1  1
  7  5  1  0
  7  8  2  0
  9  7  1  0
 10  9  1  0
 10 11  1  1
 12 11  1  0
 12 13  1  0
 13 14  2  0
 15 10  1  0
 16 15  2  0
 17 13  1  0
 18 15  1  0
 19 25  1  0
 19 18  1  0
 19 20  1  6
 21 20  1  0
 21 22  1  0
 23 22  1  0
 23 24  1  0
 25 27  1  0
 26 25  2  0
M  END
$$$$
