IEK.pdb
     RDKit          3D

 27 26  0  0  1  0  0  0  0  0999 V2000
   25.9482  -17.2349  -21.5042 C   0  0  0  0  0  0  0  0  0  0  0  0
   25.4328  -16.6770  -20.1867 C   0  0  0  0  0  0  0  0  0  0  0  0
   25.0436  -17.8076  -19.2479 C   0  0  2  0  0  0  0  0  0  0  0  0
   24.1031  -18.7682  -19.9361 C   0  0  0  0  0  0  0  0  0  0  0  0
   24.4795  -17.3299  -17.9467 C   0  0  2  0  0  0  0  0  0  0  0  0
   25.4518  -16.4584  -17.3124 N   0  0  0  0  0  0  0  0  0  0  0  0
   24.0893  -18.4788  -17.0899 C   0  0  0  0  0  0  0  0  0  0  0  0
   23.2441  -19.3202  -17.4871 O   0  0  0  0  0  0  0  0  0  0  0  0
   24.6374  -18.7012  -15.7784 N   0  0  0  0  0  0  0  0  0  0  0  0
   24.1885  -19.7486  -14.9260 C   0  0  1  0  0  0  0  0  0  0  0  0
   25.0818  -20.0975  -13.7768 C   0  0  0  0  0  0  0  0  0  0  0  0
   24.6122  -21.2078  -12.8890 C   0  0  0  0  0  0  0  0  0  0  0  0
   25.5133  -21.5741  -11.8000 C   0  0  0  0  0  0  0  0  0  0  0  0
   25.1444  -22.4766  -10.9752 O   0  0  0  0  0  0  0  0  0  0  0  0
   22.8247  -19.4595  -14.3617 C   0  0  0  0  0  0  0  0  0  0  0  0
   22.6337  -18.4751  -13.6095 O   0  0  0  0  0  0  0  0  0  0  0  0
   26.7495  -20.9620  -11.6509 O   0  0  0  0  0  0  0  0  0  0  0  0
   21.7797  -20.3352  -14.7153 N   0  0  0  0  0  0  0  0  0  0  0  0
   20.3820  -20.0999  -14.1399 C   0  0  1  0  0  0  0  0  0  0  0  0
   19.5614  -19.8160  -15.3451 C   0  0  0  0  0  0  0  0  0  0  0  0
   18.1436  -19.4949  -15.2998 C   0  0  0  0  0  0  0  0  0  0  0  0
   17.3975  -19.2076  -16.5431 C   0  0  0  0  0  0  0  0  0  0  0  0
   15.9936  -18.7215  -16.3491 C   0  0  0  0  0  0  0  0  0  0  0  0
   15.5131  -18.1923  -17.6157 N   0  0  0  0  0  0  0  0  0  0  0  0
   20.0846  -21.3740  -13.4577 C   0  0  0  0  0  0  0  0  0  0  0  0
   19.2242  -21.5216  -12.5791 O   0  0  0  0  0  0  0  0  0  0  0  0
   20.7903  -22.5685  -13.7733 O   0  0  0  0  0  0  0  0  0  0  0  0
  1  2  1  0
  2  3  1  0
  3  4  1  6
  5  3  1  0
  5  6  1  1
  7  5  1  0
  7  8  2  0
  9  7  1  0
 10  9  1  0
 10 11  1  1
 12 11  1  0
 12 13  1  0
 13 14  2  0
 15 10  1  0
 16 15  2  0
 17 13  1  0
 18 15  1  0
 19 25  1  0
 19 18  1  0
 19 20  1  6
 21 20  1  0
 21 22  1  0
 23 22  1  0
 23 24  1  0
 25 27  1  0
 26 25  2  0
M  END
$$$$
