IEK.pdb
     RDKit          3D

 27 26  0  0  1  0  0  0  0  0999 V2000
   21.9259  -13.8302  -16.9376 C   0  0  0  0  0  0  0  0  0  0  0  0
   21.0262  -14.5217  -17.9502 C   0  0  0  0  0  0  0  0  0  0  0  0
   20.8687  -15.9931  -17.6021 C   0  0  2  0  0  0  0  0  0  0  0  0
   19.9283  -16.1636  -16.4327 C   0  0  0  0  0  0  0  0  0  0  0  0
   22.1720  -16.6876  -17.3598 C   0  0  2  0  0  0  0  0  0  0  0  0
   22.9994  -16.5459  -18.5440 N   0  0  0  0  0  0  0  0  0  0  0  0
   21.9486  -18.1057  -16.9786 C   0  0  0  0  0  0  0  0  0  0  0  0
   21.1494  -18.8282  -17.6261 O   0  0  0  0  0  0  0  0  0  0  0  0
   22.6142  -18.7338  -15.8684 N   0  0  0  0  0  0  0  0  0  0  0  0
   22.4264  -20.1048  -15.5362 C   0  0  1  0  0  0  0  0  0  0  0  0
   23.6445  -20.8526  -15.0921 C   0  0  0  0  0  0  0  0  0  0  0  0
   23.4627  -22.3157  -14.8320 C   0  0  0  0  0  0  0  0  0  0  0  0
   24.6551  -23.0356  -14.3940 C   0  0  0  0  0  0  0  0  0  0  0  0
   25.7546  -22.3947  -14.2871 O   0  0  0  0  0  0  0  0  0  0  0  0
   21.3798  -20.2797  -14.4704 C   0  0  0  0  0  0  0  0  0  0  0  0
   21.3912  -19.5746  -13.4340 O   0  0  0  0  0  0  0  0  0  0  0  0
   24.6104  -24.3901  -14.0964 O   0  0  0  0  0  0  0  0  0  0  0  0
   20.3932  -21.2611  -14.6878 N   0  0  0  0  0  0  0  0  0  0  0  0
   19.3452  -21.5186  -13.6037 C   0  0  1  0  0  0  0  0  0  0  0  0
   18.1275  -20.8620  -14.1449 C   0  0  0  0  0  0  0  0  0  0  0  0
   16.8417  -20.8588  -13.4653 C   0  0  0  0  0  0  0  0  0  0  0  0
   15.6461  -20.2876  -14.1207 C   0  0  0  0  0  0  0  0  0  0  0  0
   14.4099  -20.2488  -13.2751 C   0  0  0  0  0  0  0  0  0  0  0  0
   13.3068  -19.7789  -14.0980 N   0  0  0  0  0  0  0  0  0  0  0  0
   19.2924  -22.9916  -13.5355 C   0  0  0  0  0  0  0  0  0  0  0  0
   18.6287  -23.6381  -12.7137 O   0  0  0  0  0  0  0  0  0  0  0  0
   20.0267  -23.8044  -14.4437 O   0  0  0  0  0  0  0  0  0  0  0  0
  1  2  1  0
  2  3  1  0
  3  4  1  1
  5  3  1  0
  5  6  1  6
  7  5  1  0
  7  8  2  0
  9  7  1  0
 10  9  1  0
 10 11  1  1
 12 11  1  0
 12 13  1  0
 13 14  2  0
 15 10  1  0
 16 15  2  0
 17 13  1  0
 18 15  1  0
 19 25  1  0
 19 18  1  0
 19 20  1  6
 21 20  1  0
 21 22  1  0
 23 22  1  0
 23 24  1  0
 25 27  1  0
 26 25  2  0
M  END
$$$$
