IEK.pdb
     RDKit          3D

 27 26  0  0  1  0  0  0  0  0999 V2000
   11.4928  -11.5818   -9.1087 C   0  0  0  0  0  0  0  0  0  0  0  0
   11.7166  -10.0775   -9.1255 C   0  0  0  0  0  0  0  0  0  0  0  0
   12.4444   -9.6636  -10.3943 C   0  0  2  0  0  0  0  0  0  0  0  0
   13.7227  -10.4520  -10.5535 C   0  0  0  0  0  0  0  0  0  0  0  0
   12.6975   -8.1911  -10.4789 C   0  0  2  0  0  0  0  0  0  0  0  0
   11.4328   -7.4944  -10.3295 N   0  0  0  0  0  0  0  0  0  0  0  0
   13.3979   -7.8503  -11.7436 C   0  0  0  0  0  0  0  0  0  0  0  0
   12.8068   -7.9347  -12.8497 O   0  0  0  0  0  0  0  0  0  0  0  0
   14.7675   -7.4122  -11.7884 N   0  0  0  0  0  0  0  0  0  0  0  0
   15.4147   -7.0373  -12.9992 C   0  0  1  0  0  0  0  0  0  0  0  0
   15.5557   -5.5682  -13.2486 C   0  0  0  0  0  0  0  0  0  0  0  0
   14.2844   -4.8136  -13.4844 C   0  0  0  0  0  0  0  0  0  0  0  0
   14.4187   -3.3644  -13.6011 C   0  0  0  0  0  0  0  0  0  0  0  0
   15.5786   -2.8436  -13.4812 O   0  0  0  0  0  0  0  0  0  0  0  0
   16.7868   -7.6438  -13.1063 C   0  0  0  0  0  0  0  0  0  0  0  0
   17.5829   -7.6121  -12.1385 O   0  0  0  0  0  0  0  0  0  0  0  0
   13.3165   -2.5553  -13.8372 O   0  0  0  0  0  0  0  0  0  0  0  0
   17.1337   -8.2461  -14.3313 N   0  0  0  0  0  0  0  0  0  0  0  0
   18.5179   -8.8783  -14.4865 C   0  0  1  0  0  0  0  0  0  0  0  0
   18.2531  -10.0754  -15.3251 C   0  0  0  0  0  0  0  0  0  0  0  0
   17.7512  -11.3351  -14.7992 C   0  0  0  0  0  0  0  0  0  0  0  0
   17.5024  -12.4804  -15.7001 C   0  0  0  0  0  0  0  0  0  0  0  0
   16.8975  -13.6868  -15.0495 C   0  0  0  0  0  0  0  0  0  0  0  0
   16.7061  -14.7082  -16.0669 N   0  0  0  0  0  0  0  0  0  0  0  0
   19.3002   -7.8100  -15.1378 C   0  0  0  0  0  0  0  0  0  0  0  0
   18.8173   -6.8937  -15.8170 O   0  0  0  0  0  0  0  0  0  0  0  0
   20.7176   -7.7536  -15.0267 O   0  0  0  0  0  0  0  0  0  0  0  0
  1  2  1  0
  2  3  1  0
  3  4  1  1
  5  3  1  0
  5  6  1  6
  7  5  1  0
  7  8  2  0
  9  7  1  0
 10  9  1  0
 10 11  1  1
 12 11  1  0
 12 13  1  0
 13 14  2  0
 15 10  1  0
 16 15  2  0
 17 13  1  0
 18 15  1  0
 19 25  1  0
 19 18  1  0
 19 20  1  6
 21 20  1  0
 21 22  1  0
 23 22  1  0
 23 24  1  0
 25 27  1  0
 26 25  2  0
M  END
$$$$
