IEK.pdb
     RDKit          3D

 27 26  0  0  1  0  0  0  0  0999 V2000
   25.8376  -14.1635  -20.6924 C   0  0  0  0  0  0  0  0  0  0  0  0
   25.6552  -13.8723  -19.2108 C   0  0  0  0  0  0  0  0  0  0  0  0
   24.5227  -12.8802  -19.0007 C   0  0  2  0  0  0  0  0  0  0  0  0
   24.7499  -11.6341  -19.8231 C   0  0  0  0  0  0  0  0  0  0  0  0
   24.2853  -12.5479  -17.5610 C   0  0  2  0  0  0  0  0  0  0  0  0
   24.0921  -13.7845  -16.8259 N   0  0  0  0  0  0  0  0  0  0  0  0
   23.1433  -11.6086  -17.4200 C   0  0  0  0  0  0  0  0  0  0  0  0
   21.9876  -11.9410  -17.7856 O   0  0  0  0  0  0  0  0  0  0  0  0
   23.2787  -10.2860  -16.8702 N   0  0  0  0  0  0  0  0  0  0  0  0
   22.1813   -9.3875  -16.7519 C   0  0  1  0  0  0  0  0  0  0  0  0
   21.8586   -8.9131  -15.3695 C   0  0  0  0  0  0  0  0  0  0  0  0
   20.7206   -7.9474  -15.2518 C   0  0  0  0  0  0  0  0  0  0  0  0
   20.4375   -7.4609  -13.9046 C   0  0  0  0  0  0  0  0  0  0  0  0
   21.1603   -7.8766  -12.9372 O   0  0  0  0  0  0  0  0  0  0  0  0
   22.3669   -8.1680  -17.6123 C   0  0  0  0  0  0  0  0  0  0  0  0
   23.4661   -7.5668  -17.6499 O   0  0  0  0  0  0  0  0  0  0  0  0
   19.4062   -6.5643  -13.6641 O   0  0  0  0  0  0  0  0  0  0  0  0
   21.2604   -7.7367  -18.3697 N   0  0  0  0  0  0  0  0  0  0  0  0
   21.4125   -6.5232  -19.2885 C   0  0  1  0  0  0  0  0  0  0  0  0
   20.1865   -6.5746  -20.1256 C   0  0  0  0  0  0  0  0  0  0  0  0
   19.9165   -5.6556  -21.2201 C   0  0  0  0  0  0  0  0  0  0  0  0
   18.6851   -5.7882  -22.0270 C   0  0  0  0  0  0  0  0  0  0  0  0
   18.5064   -4.7544  -23.0967 C   0  0  0  0  0  0  0  0  0  0  0  0
   19.6424   -4.8305  -24.0015 N   0  0  0  0  0  0  0  0  0  0  0  0
   21.4843   -5.3951  -18.3402 C   0  0  0  0  0  0  0  0  0  0  0  0
   20.7829   -5.2779  -17.3262 O   0  0  0  0  0  0  0  0  0  0  0  0
   22.3996   -4.3222  -18.5295 O   0  0  0  0  0  0  0  0  0  0  0  0
  1  2  1  0
  2  3  1  0
  3  4  1  6
  5  3  1  0
  5  6  1  1
  7  5  1  0
  7  8  2  0
  9  7  1  0
 10  9  1  0
 10 11  1  1
 12 11  1  0
 12 13  1  0
 13 14  2  0
 15 10  1  0
 16 15  2  0
 17 13  1  0
 18 15  1  0
 19 25  1  0
 19 18  1  0
 19 20  1  6
 21 20  1  0
 21 22  1  0
 23 22  1  0
 23 24  1  0
 25 27  1  0
 26 25  2  0
M  END
$$$$
