IEK.pdb
     RDKit          3D

 27 26  0  0  1  0  0  0  0  0999 V2000
   18.7193  -16.7894  -16.1389 C   0  0  0  0  0  0  0  0  0  0  0  0
   20.1501  -17.2934  -16.0303 C   0  0  0  0  0  0  0  0  0  0  0  0
   20.2473  -18.3926  -14.9847 C   0  0  2  0  0  0  0  0  0  0  0  0
   19.6850  -17.9203  -13.6650 C   0  0  0  0  0  0  0  0  0  0  0  0
   21.6320  -18.9371  -14.8241 C   0  0  2  0  0  0  0  0  0  0  0  0
   22.0726  -19.4666  -16.1018 N   0  0  0  0  0  0  0  0  0  0  0  0
   21.6765  -19.9465  -13.7352 C   0  0  0  0  0  0  0  0  0  0  0  0
   21.1297  -21.0695  -13.8757 O   0  0  0  0  0  0  0  0  0  0  0  0
   22.3314  -19.7132  -12.4756 N   0  0  0  0  0  0  0  0  0  0  0  0
   22.4222  -20.7075  -11.4615 C   0  0  1  0  0  0  0  0  0  0  0  0
   23.6390  -20.6584  -10.5914 C   0  0  0  0  0  0  0  0  0  0  0  0
   24.7006  -21.6730  -10.8831 C   0  0  0  0  0  0  0  0  0  0  0  0
   25.9785  -21.1395  -11.3461 C   0  0  0  0  0  0  0  0  0  0  0  0
   25.9899  -20.3721  -12.3668 O   0  0  0  0  0  0  0  0  0  0  0  0
   21.2221  -20.6877  -10.5552 C   0  0  0  0  0  0  0  0  0  0  0  0
   20.7090  -19.6044  -10.1887 O   0  0  0  0  0  0  0  0  0  0  0  0
   27.1662  -21.4518  -10.7001 O   0  0  0  0  0  0  0  0  0  0  0  0
   20.7032  -21.9303  -10.1421 N   0  0  0  0  0  0  0  0  0  0  0  0
   19.4825  -21.9601   -9.2209 C   0  0  1  0  0  0  0  0  0  0  0  0
   18.4278  -22.5666  -10.0732 C   0  0  0  0  0  0  0  0  0  0  0  0
   17.0933  -22.8940   -9.5967 C   0  0  0  0  0  0  0  0  0  0  0  0
   16.1197  -23.5613  -10.4866 C   0  0  0  0  0  0  0  0  0  0  0  0
   14.7648  -23.7957   -9.8917 C   0  0  0  0  0  0  0  0  0  0  0  0
   13.8956  -24.3298  -10.9281 N   0  0  0  0  0  0  0  0  0  0  0  0
   19.9389  -22.7920   -8.0910 C   0  0  0  0  0  0  0  0  0  0  0  0
   20.8761  -23.6002   -8.1412 O   0  0  0  0  0  0  0  0  0  0  0  0
   19.3125  -22.7215   -6.8154 O   0  0  0  0  0  0  0  0  0  0  0  0
  1  2  1  0
  2  3  1  0
  3  4  1  1
  5  3  1  0
  5  6  1  6
  7  5  1  0
  7  8  2  0
  9  7  1  0
 10  9  1  0
 10 11  1  1
 12 11  1  0
 12 13  1  0
 13 14  2  0
 15 10  1  0
 16 15  2  0
 17 13  1  0
 18 15  1  0
 19 25  1  0
 19 18  1  0
 19 20  1  6
 21 20  1  0
 21 22  1  0
 23 22  1  0
 23 24  1  0
 25 27  1  0
 26 25  2  0
M  END
$$$$
