IEK.pdb
     RDKit          3D

 27 26  0  0  1  0  0  0  0  0999 V2000
   12.2705  -12.0589  -11.8643 C   0  0  0  0  0  0  0  0  0  0  0  0
   13.6512  -12.5589  -11.4686 C   0  0  0  0  0  0  0  0  0  0  0  0
   14.4922  -11.4169  -10.9213 C   0  0  2  0  0  0  0  0  0  0  0  0
   13.8273  -10.8001   -9.7137 C   0  0  0  0  0  0  0  0  0  0  0  0
   14.8259  -10.3813  -11.9488 C   0  0  2  0  0  0  0  0  0  0  0  0
   15.4982  -11.0305  -13.0595 N   0  0  0  0  0  0  0  0  0  0  0  0
   15.6297   -9.2858  -11.3487 C   0  0  0  0  0  0  0  0  0  0  0  0
   15.1688   -8.5894  -10.4093 O   0  0  0  0  0  0  0  0  0  0  0  0
   16.9577   -8.9540  -11.7916 N   0  0  0  0  0  0  0  0  0  0  0  0
   17.6552   -7.8019  -11.3317 C   0  0  1  0  0  0  0  0  0  0  0  0
   18.9136   -7.4524  -12.0629 C   0  0  0  0  0  0  0  0  0  0  0  0
   19.7178   -6.3261  -11.4919 C   0  0  0  0  0  0  0  0  0  0  0  0
   20.9766   -6.0361  -12.1726 C   0  0  0  0  0  0  0  0  0  0  0  0
   21.3288   -6.7746  -13.1531 O   0  0  0  0  0  0  0  0  0  0  0  0
   16.7774   -6.5807  -11.3412 C   0  0  0  0  0  0  0  0  0  0  0  0
   16.0813   -6.2950  -12.3437 O   0  0  0  0  0  0  0  0  0  0  0  0
   21.7855   -4.9819  -11.7730 O   0  0  0  0  0  0  0  0  0  0  0  0
   16.7705   -5.7803  -10.1822 N   0  0  0  0  0  0  0  0  0  0  0  0
   15.8141   -4.5892  -10.1036 C   0  0  1  0  0  0  0  0  0  0  0  0
   15.2600   -4.6879   -8.7289 C   0  0  0  0  0  0  0  0  0  0  0  0
   14.2695   -3.7697   -8.1893 C   0  0  0  0  0  0  0  0  0  0  0  0
   13.7513   -3.9447   -6.8160 C   0  0  0  0  0  0  0  0  0  0  0  0
   12.7870   -2.8938   -6.3571 C   0  0  0  0  0  0  0  0  0  0  0  0
   12.3529   -3.2275   -5.0098 N   0  0  0  0  0  0  0  0  0  0  0  0
   16.7002   -3.4347  -10.3473 C   0  0  0  0  0  0  0  0  0  0  0  0
   17.9214   -3.4248  -10.1414 O   0  0  0  0  0  0  0  0  0  0  0  0
   16.1961   -2.2053  -10.8563 O   0  0  0  0  0  0  0  0  0  0  0  0
  1  2  1  0
  2  3  1  0
  3  4  1  1
  5  3  1  0
  5  6  1  6
  7  5  1  0
  7  8  2  0
  9  7  1  0
 10  9  1  0
 10 11  1  6
 12 11  1  0
 12 13  1  0
 13 14  2  0
 15 10  1  0
 16 15  2  0
 17 13  1  0
 18 15  1  0
 19 25  1  0
 19 18  1  0
 19 20  1  1
 21 20  1  0
 21 22  1  0
 23 22  1  0
 23 24  1  0
 25 27  1  0
 26 25  2  0
M  END
$$$$
