RCH.pdb
     RDKit          3D

 28 28  0  0  1  0  0  0  0  0999 V2000
    8.1397  -13.9277   14.8179 N   0  0  0  0  0  0  0  0  0  0  0  0
    8.2072  -13.6227   16.1902 C   0  0  0  0  0  0  0  0  0  0  0  0
    8.9779  -12.6986   16.6726 N   0  0  0  0  0  0  0  0  0  0  0  0
    7.3952  -14.3610   17.0789 N   0  0  0  0  0  0  0  0  0  0  0  0
    7.9334  -14.6938   18.4055 C   0  0  0  0  0  0  0  0  0  0  0  0
    9.2168  -15.4458   18.2322 C   0  0  0  0  0  0  0  0  0  0  0  0
    9.8792  -15.8012   19.5119 C   0  0  0  0  0  0  0  0  0  0  0  0
    9.1148  -16.6590   20.4636 C   0  0  2  0  0  0  0  0  0  0  0  0
    7.7159  -16.6833   20.2172 N   0  0  0  0  0  0  0  0  0  0  0  0
    9.4150  -16.1689   21.8503 C   0  0  0  0  0  0  0  0  0  0  0  0
   10.6228  -15.9214   22.1014 O   0  0  0  0  0  0  0  0  0  0  0  0
    9.1219  -12.6000   17.6994 N   0  0  0  0  0  0  0  0  0  0  0  0
    8.3785  -16.0031   22.8032 C   0  0  1  0  0  0  0  0  0  0  0  0
    8.7204  -15.7659   24.1745 C   0  0  0  0  0  0  0  0  0  0  0  0
    7.5389  -15.1815   24.9171 S   0  0  0  0  0  0  0  0  0  0  0  0
    6.9448  -13.6462   24.1956 C   0  0  0  0  0  0  0  0  0  0  0  0
    9.2401  -16.9826   24.8487 O   0  0  0  0  0  0  0  0  0  0  0  0
    8.6826  -18.0907   24.6329 N   0  0  0  0  0  0  0  0  0  0  0  0
   10.3335  -16.9809   25.7286 C   0  0  1  0  0  0  0  0  0  0  0  0
   10.9068  -18.0924   26.4022 C   0  0  0  0  0  0  0  0  0  0  0  0
   12.2793  -18.4963   26.0169 C   0  0  0  0  0  0  0  0  0  0  0  0
   12.4685  -18.8907   24.6055 C   0  0  0  0  0  0  0  0  0  0  0  0
   11.5588  -19.0349   23.5928 N   0  0  0  0  0  0  0  0  0  0  0  0
   12.1965  -19.4211   22.4771 C   0  0  0  0  0  0  0  0  0  0  0  0
   13.4920  -19.5204   22.7788 N   0  0  0  0  0  0  0  0  0  0  0  0
   13.6695  -19.2032   24.0595 C   0  0  0  0  0  0  0  0  0  0  0  0
   10.9967  -17.7225   27.8640 O   0  0  0  0  0  0  0  0  0  0  0  0
   10.6442  -16.4551   28.3029 O   0  0  0  0  0  0  0  0  0  0  0  0
  2  4  1  0
  2  1  1  0
  3  2  2  0
  5  6  1  0
  5  4  1  0
  7  6  1  0
  8  7  1  0
  8  9  1  6
 10 11  2  0
 10  8  1  0
 12 10  1  0
 13 12  1  0
 13 14  1  1
 15 14  1  0
 16 13  1  0
 16 18  1  0
 17 16  2  0
 19 18  1  0
 19 20  1  1
 20 21  1  0
 21 22  2  0
 21 25  1  0
 22 23  1  0
 23 24  1  0
 25 24  2  0
 26 19  1  0
 27 26  1  0
 28 26  2  0
M  END
$$$$
