RCH.pdb
     RDKit          3D

 28 28  0  0  1  0  0  0  0  0999 V2000
    9.0323  -23.5270   14.8325 N   0  0  0  0  0  0  0  0  0  0  0  0
    7.9956  -24.2438   14.2063 C   0  0  0  0  0  0  0  0  0  0  0  0
    8.1335  -25.4604   13.7803 N   0  0  0  0  0  0  0  0  0  0  0  0
    6.7487  -23.6029   14.0366 N   0  0  0  0  0  0  0  0  0  0  0  0
    6.5848  -22.2411   14.5646 C   0  0  0  0  0  0  0  0  0  0  0  0
    6.0489  -22.3246   15.9605 C   0  0  0  0  0  0  0  0  0  0  0  0
    5.9388  -21.0090   16.6386 C   0  0  0  0  0  0  0  0  0  0  0  0
    4.6160  -20.3209   16.5876 C   0  0  2  0  0  0  0  0  0  0  0  0
    4.5297  -19.3174   15.5857 N   0  0  0  0  0  0  0  0  0  0  0  0
    4.3527  -19.7524   17.9517 C   0  0  0  0  0  0  0  0  0  0  0  0
    5.0804  -18.7868   18.2997 O   0  0  0  0  0  0  0  0  0  0  0  0
    7.3365  -25.9724   13.3472 N   0  0  0  0  0  0  0  0  0  0  0  0
    3.3364  -20.2912   18.7803 C   0  0  2  0  0  0  0  0  0  0  0  0
    3.0359  -19.6493   20.0259 C   0  0  0  0  0  0  0  0  0  0  0  0
    1.5527  -19.7291   20.3137 S   0  0  0  0  0  0  0  0  0  0  0  0
    1.1456  -19.3360   22.0197 C   0  0  0  0  0  0  0  0  0  0  0  0
    3.8393  -20.1900   21.1516 O   0  0  0  0  0  0  0  0  0  0  0  0
    4.0069  -21.4344   21.2453 N   0  0  0  0  0  0  0  0  0  0  0  0
    4.4369  -19.3911   22.1386 C   0  0  2  0  0  0  0  0  0  0  0  0
    5.2414  -19.8165   23.2293 C   0  0  0  0  0  0  0  0  0  0  0  0
    5.4235  -18.8737   24.3578 C   0  0  0  0  0  0  0  0  0  0  0  0
    6.3699  -19.2960   25.4111 C   0  0  0  0  0  0  0  0  0  0  0  0
    7.0753  -20.4599   25.5581 N   0  0  0  0  0  0  0  0  0  0  0  0
    7.8056  -20.3953   26.6821 C   0  0  0  0  0  0  0  0  0  0  0  0
    7.5660  -19.2074   27.2393 N   0  0  0  0  0  0  0  0  0  0  0  0
    6.7016  -18.5345   26.4826 C   0  0  0  0  0  0  0  0  0  0  0  0
    4.5662  -21.0278   23.8281 O   0  0  0  0  0  0  0  0  0  0  0  0
    5.3098  -22.0927   24.3140 O   0  0  0  0  0  0  0  0  0  0  0  0
  2  4  1  0
  2  1  1  0
  3  2  2  0
  5  6  1  0
  5  4  1  0
  7  6  1  0
  8  7  1  0
  8  9  1  6
 10 11  2  0
 10  8  1  0
 12 10  1  0
 13 12  1  0
 13 14  1  6
 15 14  1  0
 16 13  1  0
 16 18  1  0
 17 16  2  0
 19 18  1  0
 19 20  1  1
 20 21  1  0
 21 22  2  0
 21 25  1  0
 22 23  1  0
 23 24  1  0
 25 24  2  0
 26 19  1  0
 27 26  1  0
 28 26  2  0
M  END
$$$$
