RCH.pdb
     RDKit          3D

 28 28  0  0  1  0  0  0  0  0999 V2000
    7.3653  -13.4741   15.1765 N   0  0  0  0  0  0  0  0  0  0  0  0
    8.4482  -13.9867   15.9149 C   0  0  0  0  0  0  0  0  0  0  0  0
    9.0918  -15.0595   15.5750 N   0  0  0  0  0  0  0  0  0  0  0  0
    8.8485  -13.2961   17.0798 N   0  0  0  0  0  0  0  0  0  0  0  0
    7.8074  -12.7959   17.9887 C   0  0  0  0  0  0  0  0  0  0  0  0
    7.4148  -13.8955   18.9265 C   0  0  0  0  0  0  0  0  0  0  0  0
    8.5687  -14.5959   19.5434 C   0  0  0  0  0  0  0  0  0  0  0  0
    8.2677  -15.6798   20.5233 C   0  0  2  0  0  0  0  0  0  0  0  0
    6.9094  -16.0961   20.5190 N   0  0  0  0  0  0  0  0  0  0  0  0
    8.6817  -15.1868   21.8794 C   0  0  0  0  0  0  0  0  0  0  0  0
    9.8790  -14.8171   21.9931 O   0  0  0  0  0  0  0  0  0  0  0  0
    9.8345  -15.4580   16.1868 N   0  0  0  0  0  0  0  0  0  0  0  0
    7.7569  -15.1501   22.9533 C   0  0  1  0  0  0  0  0  0  0  0  0
    8.2112  -14.7575   24.2545 C   0  0  0  0  0  0  0  0  0  0  0  0
    7.1924  -13.8563   24.9170 S   0  0  0  0  0  0  0  0  0  0  0  0
    7.6318  -13.4201   26.6045 C   0  0  0  0  0  0  0  0  0  0  0  0
    8.5493  -15.9211   25.1128 O   0  0  0  0  0  0  0  0  0  0  0  0
    7.7189  -16.8602   25.2304 N   0  0  0  0  0  0  0  0  0  0  0  0
    9.7569  -16.0475   25.8165 C   0  0  1  0  0  0  0  0  0  0  0  0
   10.3266  -17.2314   26.3565 C   0  0  0  0  0  0  0  0  0  0  0  0
   11.5653  -17.7468   25.7277 C   0  0  0  0  0  0  0  0  0  0  0  0
   12.1564  -18.9508   26.3478 C   0  0  0  0  0  0  0  0  0  0  0  0
   12.9913  -19.0775   27.4251 N   0  0  0  0  0  0  0  0  0  0  0  0
   13.2746  -20.3754   27.6148 C   0  0  0  0  0  0  0  0  0  0  0  0
   12.6284  -21.0612   26.6708 N   0  0  0  0  0  0  0  0  0  0  0  0
   11.9502  -20.2138   25.8999 C   0  0  0  0  0  0  0  0  0  0  0  0
   10.7042  -16.9254   27.7867 O   0  0  0  0  0  0  0  0  0  0  0  0
   10.4370  -17.8285   28.8046 O   0  0  0  0  0  0  0  0  0  0  0  0
  2  4  1  0
  2  1  1  0
  3  2  2  0
  5  6  1  0
  5  4  1  0
  7  6  1  0
  8  7  1  0
  8  9  1  1
 10 11  2  0
 10  8  1  0
 12 10  1  0
 13 12  1  0
 13 14  1  1
 15 14  1  0
 16 13  1  0
 16 18  1  0
 17 16  2  0
 19 18  1  0
 19 20  1  1
 20 21  1  0
 21 22  2  0
 21 25  1  0
 22 23  1  0
 23 24  1  0
 25 24  2  0
 26 19  1  0
 27 26  1  0
 28 26  2  0
M  END
$$$$
