RCH.pdb
     RDKit          3D

 28 28  0  0  1  0  0  0  0  0999 V2000
    5.6819  -19.8559   18.4274 N   0  0  0  0  0  0  0  0  0  0  0  0
    6.5244  -19.3224   17.4344 C   0  0  0  0  0  0  0  0  0  0  0  0
    7.1366  -20.0549   16.5574 N   0  0  0  0  0  0  0  0  0  0  0  0
    6.7080  -17.9227   17.3960 N   0  0  0  0  0  0  0  0  0  0  0  0
    6.2792  -17.1291   18.5564 C   0  0  0  0  0  0  0  0  0  0  0  0
    7.4458  -16.9505   19.4782 C   0  0  0  0  0  0  0  0  0  0  0  0
    7.1072  -16.2520   20.7432 C   0  0  0  0  0  0  0  0  0  0  0  0
    7.5384  -14.8301   20.8770 C   0  0  2  0  0  0  0  0  0  0  0  0
    8.4875  -14.4242   19.9009 N   0  0  0  0  0  0  0  0  0  0  0  0
    8.0773  -14.6533   22.2668 C   0  0  0  0  0  0  0  0  0  0  0  0
    9.2629  -15.0308   22.4539 O   0  0  0  0  0  0  0  0  0  0  0  0
    7.8077  -19.6355   15.8801 N   0  0  0  0  0  0  0  0  0  0  0  0
    7.2754  -14.0905   23.2916 C   0  0  2  0  0  0  0  0  0  0  0  0
    7.8223  -13.9467   24.6084 C   0  0  0  0  0  0  0  0  0  0  0  0
    6.8642  -13.1815   25.4946 S   0  0  0  0  0  0  0  0  0  0  0  0
    7.4639  -12.9907   27.1782 C   0  0  0  0  0  0  0  0  0  0  0  0
    8.1999  -15.2500   25.2117 O   0  0  0  0  0  0  0  0  0  0  0  0
    7.3396  -16.1665   25.2836 N   0  0  0  0  0  0  0  0  0  0  0  0
    9.4775  -15.5350   25.7178 C   0  0  1  0  0  0  0  0  0  0  0  0
    9.9190  -16.7375   26.3317 C   0  0  0  0  0  0  0  0  0  0  0  0
   11.3047  -17.1824   26.0539 C   0  0  0  0  0  0  0  0  0  0  0  0
   11.7586  -18.3865   26.7804 C   0  0  0  0  0  0  0  0  0  0  0  0
   11.2143  -19.0334   27.8570 N   0  0  0  0  0  0  0  0  0  0  0  0
   11.9856  -20.0833   28.1784 C   0  0  0  0  0  0  0  0  0  0  0  0
   13.0044  -20.1011   27.3176 N   0  0  0  0  0  0  0  0  0  0  0  0
   12.8794  -19.0829   26.4691 C   0  0  0  0  0  0  0  0  0  0  0  0
    9.8645  -16.5151   27.8248 O   0  0  0  0  0  0  0  0  0  0  0  0
   10.0407  -15.2502   28.3652 O   0  0  0  0  0  0  0  0  0  0  0  0
  2  4  1  0
  2  1  1  0
  3  2  2  0
  5  6  1  0
  5  4  1  0
  7  6  1  0
  8  7  1  0
  8  9  1  6
 10 11  2  0
 10  8  1  0
 12 10  1  0
 13 12  1  0
 13 14  1  1
 15 14  1  0
 16 13  1  0
 16 18  1  0
 17 16  2  0
 19 18  1  0
 19 20  1  1
 20 21  1  0
 21 22  2  0
 21 25  1  0
 22 23  1  0
 23 24  1  0
 25 24  2  0
 26 19  1  0
 27 26  1  0
 28 26  2  0
M  END
$$$$
