RCH.pdb
     RDKit          3D

 28 28  0  0  1  0  0  0  0  0999 V2000
    6.1523  -17.3001   11.5321 N   0  0  0  0  0  0  0  0  0  0  0  0
    6.1113  -18.5110   12.2480 C   0  0  0  0  0  0  0  0  0  0  0  0
    6.0769  -19.6723   11.6729 N   0  0  0  0  0  0  0  0  0  0  0  0
    6.1077  -18.4526   13.6591 N   0  0  0  0  0  0  0  0  0  0  0  0
    6.1469  -17.1327   14.3044 C   0  0  0  0  0  0  0  0  0  0  0  0
    7.5649  -16.6524   14.3379 C   0  0  0  0  0  0  0  0  0  0  0  0
    8.0039  -16.1768   15.6735 C   0  0  0  0  0  0  0  0  0  0  0  0
    8.9871  -17.0214   16.4121 C   0  0  2  0  0  0  0  0  0  0  0  0
    9.2166  -18.2898   15.8148 N   0  0  0  0  0  0  0  0  0  0  0  0
    8.4871  -17.1651   17.8202 C   0  0  0  0  0  0  0  0  0  0  0  0
    7.9659  -16.1401   18.3307 O   0  0  0  0  0  0  0  0  0  0  0  0
    6.1094  -20.5507   12.2317 N   0  0  0  0  0  0  0  0  0  0  0  0
    8.6075  -18.3964   18.5125 C   0  0  1  0  0  0  0  0  0  0  0  0
    8.2573  -18.4555   19.9009 C   0  0  0  0  0  0  0  0  0  0  0  0
    8.0495  -19.8915   20.3297 S   0  0  0  0  0  0  0  0  0  0  0  0
    8.2314  -20.1291   22.1020 C   0  0  0  0  0  0  0  0  0  0  0  0
    9.2480  -17.7664   20.7661 O   0  0  0  0  0  0  0  0  0  0  0  0
   10.4736  -18.0102   20.6121 N   0  0  0  0  0  0  0  0  0  0  0  0
    8.9033  -16.8424   21.7646 C   0  0  1  0  0  0  0  0  0  0  0  0
    9.7800  -16.1094   22.6084 C   0  0  0  0  0  0  0  0  0  0  0  0
    9.3982  -14.7206   22.9557 C   0  0  0  0  0  0  0  0  0  0  0  0
    9.1253  -13.8179   21.8181 C   0  0  0  0  0  0  0  0  0  0  0  0
    9.7886  -13.6570   20.6315 N   0  0  0  0  0  0  0  0  0  0  0  0
    9.1759  -12.7078   19.9075 C   0  0  0  0  0  0  0  0  0  0  0  0
    8.1391  -12.2732   20.6254 N   0  0  0  0  0  0  0  0  0  0  0  0
    8.0974  -12.9347   21.7800 C   0  0  0  0  0  0  0  0  0  0  0  0
    9.8414  -16.8462   23.9256 O   0  0  0  0  0  0  0  0  0  0  0  0
    9.0008  -17.9185   24.1838 O   0  0  0  0  0  0  0  0  0  0  0  0
  2  4  1  0
  2  1  1  0
  3  2  2  0
  5  6  1  0
  5  4  1  0
  7  6  1  0
  8  7  1  0
  8  9  1  6
 10 11  2  0
 10  8  1  0
 12 10  1  0
 13 12  1  0
 13 14  1  1
 15 14  1  0
 16 13  1  0
 16 18  1  0
 17 16  2  0
 19 18  1  0
 19 20  1  1
 20 21  1  0
 21 22  2  0
 21 25  1  0
 22 23  1  0
 23 24  1  0
 25 24  2  0
 26 19  1  0
 27 26  1  0
 28 26  2  0
M  END
$$$$
