RCH.pdb
     RDKit          3D

 28 28  0  0  1  0  0  0  0  0999 V2000
    8.3285  -12.6344   17.1245 N   0  0  0  0  0  0  0  0  0  0  0  0
    8.0461  -13.1170   18.4160 C   0  0  0  0  0  0  0  0  0  0  0  0
    7.5596  -12.3723   19.3591 N   0  0  0  0  0  0  0  0  0  0  0  0
    8.3067  -14.4772   18.6922 N   0  0  0  0  0  0  0  0  0  0  0  0
    9.2912  -15.1835   17.8603 C   0  0  0  0  0  0  0  0  0  0  0  0
    9.4492  -16.5798   18.3782 C   0  0  0  0  0  0  0  0  0  0  0  0
   10.0377  -16.6499   19.7389 C   0  0  0  0  0  0  0  0  0  0  0  0
    9.1852  -17.2144   20.8254 C   0  0  2  0  0  0  0  0  0  0  0  0
    7.7969  -17.2143   20.5238 N   0  0  0  0  0  0  0  0  0  0  0  0
    9.4713  -16.4309   22.0734 C   0  0  0  0  0  0  0  0  0  0  0  0
   10.3685  -15.5534   21.9836 O   0  0  0  0  0  0  0  0  0  0  0  0
    7.4093  -12.7488   20.3185 N   0  0  0  0  0  0  0  0  0  0  0  0
    8.7570  -16.6850   23.2714 C   0  0  1  0  0  0  0  0  0  0  0  0
    9.2127  -16.0962   24.4958 C   0  0  0  0  0  0  0  0  0  0  0  0
    8.2416  -15.0334   24.9611 S   0  0  0  0  0  0  0  0  0  0  0  0
    8.7109  -14.2903   26.5290 C   0  0  0  0  0  0  0  0  0  0  0  0
    9.4616  -17.1077   25.5541 O   0  0  0  0  0  0  0  0  0  0  0  0
    8.5521  -17.9276   25.8471 N   0  0  0  0  0  0  0  0  0  0  0  0
   10.6673  -17.2139   26.2644 C   0  0  1  0  0  0  0  0  0  0  0  0
   11.0053  -18.1666   27.2624 C   0  0  0  0  0  0  0  0  0  0  0  0
   12.4265  -18.5702   27.3741 C   0  0  0  0  0  0  0  0  0  0  0  0
   12.9895  -19.2939   26.2153 C   0  0  0  0  0  0  0  0  0  0  0  0
   12.3920  -19.7306   25.0638 N   0  0  0  0  0  0  0  0  0  0  0  0
   13.3044  -20.3505   24.2997 C   0  0  0  0  0  0  0  0  0  0  0  0
   14.4637  -20.3071   24.9579 N   0  0  0  0  0  0  0  0  0  0  0  0
   14.2875  -19.6725   26.1149 C   0  0  0  0  0  0  0  0  0  0  0  0
   10.6618  -17.5470   28.5966 O   0  0  0  0  0  0  0  0  0  0  0  0
   10.7773  -18.2734   29.7722 O   0  0  0  0  0  0  0  0  0  0  0  0
  2  4  1  0
  2  1  1  0
  3  2  2  0
  5  6  1  0
  5  4  1  0
  7  6  1  0
  8  7  1  0
  8  9  1  6
 10 11  2  0
 10  8  1  0
 12 10  1  0
 13 12  1  0
 13 14  1  6
 15 14  1  0
 16 13  1  0
 16 18  1  0
 17 16  2  0
 19 18  1  0
 19 20  1  1
 20 21  1  0
 21 22  2  0
 21 25  1  0
 22 23  1  0
 23 24  1  0
 25 24  2  0
 26 19  1  0
 27 26  1  0
 28 26  2  0
M  END
$$$$
