RCH.pdb
     RDKit          3D

 28 28  0  0  1  0  0  0  0  0999 V2000
    8.3523  -12.7610   17.3341 N   0  0  0  0  0  0  0  0  0  0  0  0
    8.1783  -12.8992   18.7238 C   0  0  0  0  0  0  0  0  0  0  0  0
    8.4439  -11.9518   19.5679 N   0  0  0  0  0  0  0  0  0  0  0  0
    7.6912  -14.1298   19.2165 N   0  0  0  0  0  0  0  0  0  0  0  0
    8.6441  -15.0614   19.8363 C   0  0  0  0  0  0  0  0  0  0  0  0
    8.5228  -16.3949   19.1657 C   0  0  0  0  0  0  0  0  0  0  0  0
    8.4026  -17.5316   20.1124 C   0  0  0  0  0  0  0  0  0  0  0  0
    7.4894  -17.3576   21.2792 C   0  0  2  0  0  0  0  0  0  0  0  0
    6.3385  -16.5747   20.9950 N   0  0  0  0  0  0  0  0  0  0  0  0
    8.2950  -16.7565   22.3941 C   0  0  0  0  0  0  0  0  0  0  0  0
    9.2804  -16.0540   22.0498 O   0  0  0  0  0  0  0  0  0  0  0  0
    8.4497  -12.1312   20.5938 N   0  0  0  0  0  0  0  0  0  0  0  0
    7.9440  -16.9830   23.7489 C   0  0  1  0  0  0  0  0  0  0  0  0
    8.7848  -16.4621   24.7859 C   0  0  0  0  0  0  0  0  0  0  0  0
    8.2149  -15.1680   25.3239 S   0  0  0  0  0  0  0  0  0  0  0  0
    6.4375  -15.2362   25.5820 C   0  0  0  0  0  0  0  0  0  0  0  0
    9.0225  -17.4461   25.8722 O   0  0  0  0  0  0  0  0  0  0  0  0
    8.0495  -18.0970   26.3358 N   0  0  0  0  0  0  0  0  0  0  0  0
   10.2846  -17.7051   26.4286 C   0  0  1  0  0  0  0  0  0  0  0  0
   10.6113  -18.6538   27.4341 C   0  0  0  0  0  0  0  0  0  0  0  0
   11.8451  -19.4533   27.2498 C   0  0  0  0  0  0  0  0  0  0  0  0
   11.9174  -20.2613   26.0147 C   0  0  0  0  0  0  0  0  0  0  0  0
   11.0138  -21.1317   25.4674 N   0  0  0  0  0  0  0  0  0  0  0  0
   11.5217  -21.6427   24.3353 C   0  0  0  0  0  0  0  0  0  0  0  0
   12.7303  -21.1037   24.1680 N   0  0  0  0  0  0  0  0  0  0  0  0
   12.9811  -20.2687   25.1741 C   0  0  0  0  0  0  0  0  0  0  0  0
   10.8253  -17.8817   28.7147 O   0  0  0  0  0  0  0  0  0  0  0  0
   10.7607  -16.4966   28.7327 O   0  0  0  0  0  0  0  0  0  0  0  0
  2  4  1  0
  2  1  1  0
  3  2  2  0
  5  6  1  0
  5  4  1  0
  7  6  1  0
  8  7  1  0
  8  9  1  6
 10 11  2  0
 10  8  1  0
 12 10  1  0
 13 12  1  0
 13 14  1  1
 15 14  1  0
 16 13  1  0
 16 18  1  0
 17 16  2  0
 19 18  1  0
 19 20  1  1
 20 21  1  0
 21 22  2  0
 21 25  1  0
 22 23  1  0
 23 24  1  0
 25 24  2  0
 26 19  1  0
 27 26  1  0
 28 26  2  0
M  END
$$$$
