RCH.pdb
     RDKit          3D

 28 28  0  0  1  0  0  0  0  0999 V2000
    6.1935  -18.6489   12.9020 N   0  0  0  0  0  0  0  0  0  0  0  0
    6.7328  -19.8188   13.4686 C   0  0  0  0  0  0  0  0  0  0  0  0
    7.1330  -20.8284   12.7608 N   0  0  0  0  0  0  0  0  0  0  0  0
    6.8408  -19.8910   14.8749 N   0  0  0  0  0  0  0  0  0  0  0  0
    6.4734  -18.7082   15.6661 C   0  0  0  0  0  0  0  0  0  0  0  0
    6.3186  -19.1139   17.0994 C   0  0  0  0  0  0  0  0  0  0  0  0
    7.3035  -18.4790   18.0103 C   0  0  0  0  0  0  0  0  0  0  0  0
    7.8667  -17.1604   17.5983 C   0  0  2  0  0  0  0  0  0  0  0  0
    8.8100  -17.2452   16.5394 N   0  0  0  0  0  0  0  0  0  0  0  0
    8.4730  -16.5302   18.8183 C   0  0  0  0  0  0  0  0  0  0  0  0
    9.6676  -16.8379   19.0657 O   0  0  0  0  0  0  0  0  0  0  0  0
    7.5416  -21.6736   13.2119 N   0  0  0  0  0  0  0  0  0  0  0  0
    7.7208  -15.6424   19.6283 C   0  0  2  0  0  0  0  0  0  0  0  0
    8.3010  -15.1364   20.8370 C   0  0  0  0  0  0  0  0  0  0  0  0
    7.3765  -14.1268   21.4811 S   0  0  0  0  0  0  0  0  0  0  0  0
    7.9747  -13.5401   23.0713 C   0  0  0  0  0  0  0  0  0  0  0  0
    8.6723  -16.2177   21.7846 O   0  0  0  0  0  0  0  0  0  0  0  0
    7.8644  -17.1620   21.9869 N   0  0  0  0  0  0  0  0  0  0  0  0
    9.8880  -16.2590   22.4845 C   0  0  1  0  0  0  0  0  0  0  0  0
   10.2816  -17.1867   23.4856 C   0  0  0  0  0  0  0  0  0  0  0  0
   11.2872  -18.2105   23.1167 C   0  0  0  0  0  0  0  0  0  0  0  0
   10.8410  -19.2446   22.1602 C   0  0  0  0  0  0  0  0  0  0  0  0
    9.6232  -19.4406   21.5665 N   0  0  0  0  0  0  0  0  0  0  0  0
    9.6871  -20.5205   20.7725 C   0  0  0  0  0  0  0  0  0  0  0  0
   10.9278  -21.0020   20.8621 N   0  0  0  0  0  0  0  0  0  0  0  0
   11.6340  -20.2415   21.6960 C   0  0  0  0  0  0  0  0  0  0  0  0
   10.9168  -16.3887   24.5999 O   0  0  0  0  0  0  0  0  0  0  0  0
   11.3491  -17.0063   25.7638 O   0  0  0  0  0  0  0  0  0  0  0  0
  2  4  1  0
  2  1  1  0
  3  2  2  0
  5  6  1  0
  5  4  1  0
  7  6  1  0
  8  7  1  0
  8  9  1  6
 10 11  2  0
 10  8  1  0
 12 10  1  0
 13 12  1  0
 13 14  1  1
 15 14  1  0
 16 13  1  0
 16 18  1  0
 17 16  2  0
 19 18  1  0
 19 20  1  1
 20 21  1  0
 21 22  2  0
 21 25  1  0
 22 23  1  0
 23 24  1  0
 25 24  2  0
 26 19  1  0
 27 26  1  0
 28 26  2  0
M  END
$$$$
