RCH.pdb
     RDKit          3D

 28 28  0  0  1  0  0  0  0  0999 V2000
   10.1140  -13.4643   19.1948 N   0  0  0  0  0  0  0  0  0  0  0  0
    8.8614  -12.8312   19.0914 C   0  0  0  0  0  0  0  0  0  0  0  0
    8.7235  -11.5450   19.0057 N   0  0  0  0  0  0  0  0  0  0  0  0
    7.7036  -13.6397   19.0811 N   0  0  0  0  0  0  0  0  0  0  0  0
    7.7935  -14.9825   18.4904 C   0  0  0  0  0  0  0  0  0  0  0  0
    8.6038  -15.8566   19.3972 C   0  0  0  0  0  0  0  0  0  0  0  0
    7.8565  -17.0243   19.9271 C   0  0  0  0  0  0  0  0  0  0  0  0
    7.0962  -16.8323   21.1963 C   0  0  2  0  0  0  0  0  0  0  0  0
    5.9734  -15.9715   21.0677 N   0  0  0  0  0  0  0  0  0  0  0  0
    8.0614  -16.3183   22.2245 C   0  0  0  0  0  0  0  0  0  0  0  0
    9.1435  -15.8508   21.7844 O   0  0  0  0  0  0  0  0  0  0  0  0
    7.7830  -11.1003   19.0544 N   0  0  0  0  0  0  0  0  0  0  0  0
    7.7473  -16.3684   23.6061 C   0  0  1  0  0  0  0  0  0  0  0  0
    8.7658  -16.0624   24.5667 C   0  0  0  0  0  0  0  0  0  0  0  0
    8.3442  -14.8893   25.4239 S   0  0  0  0  0  0  0  0  0  0  0  0
    6.5657  -14.8000   25.6676 C   0  0  0  0  0  0  0  0  0  0  0  0
    9.1361  -17.2376   25.3954 O   0  0  0  0  0  0  0  0  0  0  0  0
    8.2343  -18.0282   25.7789 N   0  0  0  0  0  0  0  0  0  0  0  0
   10.4507  -17.5328   25.7882 C   0  0  1  0  0  0  0  0  0  0  0  0
   10.9083  -18.6751   26.4979 C   0  0  0  0  0  0  0  0  0  0  0  0
   12.2863  -19.1466   26.2261 C   0  0  0  0  0  0  0  0  0  0  0  0
   12.5631  -19.5811   24.8411 C   0  0  0  0  0  0  0  0  0  0  0  0
   11.8290  -20.3636   23.9911 N   0  0  0  0  0  0  0  0  0  0  0  0
   12.4888  -20.4950   22.8300 C   0  0  0  0  0  0  0  0  0  0  0  0
   13.6250  -19.8055   22.9429 N   0  0  0  0  0  0  0  0  0  0  0  0
   13.6821  -19.2494   24.1512 C   0  0  0  0  0  0  0  0  0  0  0  0
   10.8928  -18.3168   27.9653 O   0  0  0  0  0  0  0  0  0  0  0  0
   11.1385  -19.2752   28.9370 O   0  0  0  0  0  0  0  0  0  0  0  0
  2  4  1  0
  2  1  1  0
  3  2  2  0
  5  6  1  0
  5  4  1  0
  7  6  1  0
  8  7  1  0
  8  9  1  6
 10 11  2  0
 10  8  1  0
 12 10  1  0
 13 12  1  0
 13 14  1  1
 15 14  1  0
 16 13  1  0
 16 18  1  0
 17 16  2  0
 19 18  1  0
 19 20  1  1
 20 21  1  0
 21 22  2  0
 21 25  1  0
 22 23  1  0
 23 24  1  0
 25 24  2  0
 26 19  1  0
 27 26  1  0
 28 26  2  0
M  END
$$$$
