RCH.pdb
     RDKit          3D

 28 28  0  0  1  0  0  0  0  0999 V2000
   11.7379  -17.8031   14.8266 N   0  0  0  0  0  0  0  0  0  0  0  0
   11.5891  -19.1484   15.2121 C   0  0  0  0  0  0  0  0  0  0  0  0
   12.5179  -20.0380   15.0494 N   0  0  0  0  0  0  0  0  0  0  0  0
   10.3686  -19.5423   15.8035 N   0  0  0  0  0  0  0  0  0  0  0  0
    9.8450  -18.7467   16.9228 C   0  0  0  0  0  0  0  0  0  0  0  0
   10.9670  -17.9549   17.5202 C   0  0  0  0  0  0  0  0  0  0  0  0
   10.5716  -17.1613   18.7103 C   0  0  0  0  0  0  0  0  0  0  0  0
    9.7441  -17.8458   19.7459 C   0  0  2  0  0  0  0  0  0  0  0  0
    8.3467  -17.7811   19.4984 N   0  0  0  0  0  0  0  0  0  0  0  0
   10.0907  -17.2358   21.0729 C   0  0  0  0  0  0  0  0  0  0  0  0
   11.2996  -17.3034   21.4153 O   0  0  0  0  0  0  0  0  0  0  0  0
   12.3865  -21.0188   15.3747 N   0  0  0  0  0  0  0  0  0  0  0  0
    9.0942  -16.6246   21.8749 C   0  0  1  0  0  0  0  0  0  0  0  0
    9.4312  -16.1879   23.1976 C   0  0  0  0  0  0  0  0  0  0  0  0
    8.2314  -15.5487   23.8615 S   0  0  0  0  0  0  0  0  0  0  0  0
    8.6288  -14.7710   25.4325 C   0  0  0  0  0  0  0  0  0  0  0  0
    9.9967  -17.2803   24.0294 O   0  0  0  0  0  0  0  0  0  0  0  0
   10.2311  -18.3981   23.4995 N   0  0  0  0  0  0  0  0  0  0  0  0
   10.2937  -17.1481   25.3946 C   0  0  1  0  0  0  0  0  0  0  0  0
   10.8212  -18.1370   26.2674 C   0  0  0  0  0  0  0  0  0  0  0  0
   12.2675  -18.4423   26.1661 C   0  0  0  0  0  0  0  0  0  0  0  0
   12.6920  -19.1851   24.9613 C   0  0  0  0  0  0  0  0  0  0  0  0
   11.9618  -19.6559   23.9036 N   0  0  0  0  0  0  0  0  0  0  0  0
   12.7808  -20.2814   23.0441 C   0  0  0  0  0  0  0  0  0  0  0  0
   14.0127  -20.2080   23.5504 N   0  0  0  0  0  0  0  0  0  0  0  0
   13.9729  -19.5493   24.7067 C   0  0  0  0  0  0  0  0  0  0  0  0
   10.6188  -17.6330   27.6769 O   0  0  0  0  0  0  0  0  0  0  0  0
   10.0559  -16.3885   27.9164 O   0  0  0  0  0  0  0  0  0  0  0  0
  2  4  1  0
  2  1  1  0
  3  2  2  0
  5  6  1  0
  5  4  1  0
  7  6  1  0
  8  7  1  0
  8  9  1  6
 10 11  2  0
 10  8  1  0
 12 10  1  0
 13 12  1  0
 13 14  1  1
 15 14  1  0
 16 13  1  0
 16 18  1  0
 17 16  2  0
 19 18  1  0
 19 20  1  1
 20 21  1  0
 21 22  2  0
 21 25  1  0
 22 23  1  0
 23 24  1  0
 25 24  2  0
 26 19  1  0
 27 26  1  0
 28 26  2  0
M  END
$$$$
