RCH.pdb
     RDKit          3D

 28 28  0  0  1  0  0  0  0  0999 V2000
   14.0409  -14.1112   18.0012 N   0  0  0  0  0  0  0  0  0  0  0  0
   13.9054  -15.4051   18.5379 C   0  0  0  0  0  0  0  0  0  0  0  0
   14.9003  -16.0750   19.0298 N   0  0  0  0  0  0  0  0  0  0  0  0
   12.6231  -15.9968   18.5381 N   0  0  0  0  0  0  0  0  0  0  0  0
   11.4990  -15.2300   17.9827 C   0  0  0  0  0  0  0  0  0  0  0  0
   11.3048  -13.9928   18.8038 C   0  0  0  0  0  0  0  0  0  0  0  0
   10.1792  -13.1411   18.3451 C   0  0  0  0  0  0  0  0  0  0  0  0
    8.7984  -13.6781   18.5206 C   0  0  2  0  0  0  0  0  0  0  0  0
    7.7816  -12.8200   18.0226 N   0  0  0  0  0  0  0  0  0  0  0  0
    8.6075  -13.9568   19.9831 C   0  0  0  0  0  0  0  0  0  0  0  0
    8.7833  -12.9833   20.7606 O   0  0  0  0  0  0  0  0  0  0  0  0
   14.7656  -17.0328   19.4160 N   0  0  0  0  0  0  0  0  0  0  0  0
    8.2497  -15.2517   20.4361 C   0  0  2  0  0  0  0  0  0  0  0  0
    8.2620  -15.5293   21.8420 C   0  0  0  0  0  0  0  0  0  0  0  0
    6.8505  -15.7187   22.3525 S   0  0  0  0  0  0  0  0  0  0  0  0
    6.7898  -16.2977   24.0530 C   0  0  0  0  0  0  0  0  0  0  0  0
    9.1254  -16.6878   22.1844 O   0  0  0  0  0  0  0  0  0  0  0  0
    9.1495  -17.6850   21.4161 N   0  0  0  0  0  0  0  0  0  0  0  0
    9.9331  -16.7477   23.3305 C   0  0  1  0  0  0  0  0  0  0  0  0
   11.3244  -17.0261   23.3978 C   0  0  0  0  0  0  0  0  0  0  0  0
   12.2619  -15.8970   23.1942 C   0  0  0  0  0  0  0  0  0  0  0  0
   13.6969  -16.2454   23.1400 C   0  0  0  0  0  0  0  0  0  0  0  0
   14.3210  -17.4603   23.2310 N   0  0  0  0  0  0  0  0  0  0  0  0
   15.6479  -17.2841   23.1364 C   0  0  0  0  0  0  0  0  0  0  0  0
   15.8614  -15.9758   22.9877 N   0  0  0  0  0  0  0  0  0  0  0  0
   14.6928  -15.3380   22.9882 C   0  0  0  0  0  0  0  0  0  0  0  0
   11.6055  -17.5296   24.7939 O   0  0  0  0  0  0  0  0  0  0  0  0
   12.1966  -18.7668   25.0013 O   0  0  0  0  0  0  0  0  0  0  0  0
  2  4  1  0
  2  1  1  0
  3  2  2  0
  5  6  1  0
  5  4  1  0
  7  6  1  0
  8  7  1  0
  8  9  1  1
 10 11  2  0
 10  8  1  0
 12 10  1  0
 13 12  1  0
 13 14  1  6
 15 14  1  0
 16 13  1  0
 16 18  1  0
 17 16  2  0
 19 18  1  0
 19 20  1  1
 20 21  1  0
 21 22  2  0
 21 25  1  0
 22 23  1  0
 23 24  1  0
 25 24  2  0
 26 19  1  0
 27 26  1  0
 28 26  2  0
M  END
$$$$
