RCH.pdb
     RDKit          3D

 28 28  0  0  1  0  0  0  0  0999 V2000
   14.6834  -14.3433   20.5580 N   0  0  0  0  0  0  0  0  0  0  0  0
   13.9903  -15.5218   20.2244 C   0  0  0  0  0  0  0  0  0  0  0  0
   14.4619  -16.7081   20.4499 N   0  0  0  0  0  0  0  0  0  0  0  0
   12.7218  -15.4006   19.6155 N   0  0  0  0  0  0  0  0  0  0  0  0
   12.1853  -14.0528   19.3794 C   0  0  0  0  0  0  0  0  0  0  0  0
   11.0685  -14.1438   18.3859 C   0  0  0  0  0  0  0  0  0  0  0  0
    9.8696  -14.8539   18.8970 C   0  0  0  0  0  0  0  0  0  0  0  0
    8.6252  -14.0518   19.0810 C   0  0  2  0  0  0  0  0  0  0  0  0
    8.5144  -12.9520   18.1885 N   0  0  0  0  0  0  0  0  0  0  0  0
    8.5910  -13.5978   20.5114 C   0  0  0  0  0  0  0  0  0  0  0  0
    8.1644  -12.4314   20.7127 O   0  0  0  0  0  0  0  0  0  0  0  0
   13.9211  -17.5601   20.1921 N   0  0  0  0  0  0  0  0  0  0  0  0
    9.0206  -14.4539   21.5565 C   0  0  2  0  0  0  0  0  0  0  0  0
    8.5160  -14.2475   22.8819 C   0  0  0  0  0  0  0  0  0  0  0  0
    7.0035  -14.2800   22.8793 S   0  0  0  0  0  0  0  0  0  0  0  0
    6.2945  -14.1386   24.5249 C   0  0  0  0  0  0  0  0  0  0  0  0
    9.0801  -15.2112   23.8606 O   0  0  0  0  0  0  0  0  0  0  0  0
    8.7352  -16.4206   23.8013 N   0  0  0  0  0  0  0  0  0  0  0  0
    9.9907  -14.8577   24.8683 C   0  0  2  0  0  0  0  0  0  0  0  0
   10.0108  -15.3066   26.2159 C   0  0  0  0  0  0  0  0  0  0  0  0
    8.7137  -15.4142   26.9239 C   0  0  0  0  0  0  0  0  0  0  0  0
    7.9471  -14.1595   27.0701 C   0  0  0  0  0  0  0  0  0  0  0  0
    8.2761  -12.8727   26.7390 N   0  0  0  0  0  0  0  0  0  0  0  0
    7.2612  -12.0583   27.0671 C   0  0  0  0  0  0  0  0  0  0  0  0
    6.3029  -12.8186   27.5988 N   0  0  0  0  0  0  0  0  0  0  0  0
    6.7040  -14.0881   27.6065 C   0  0  0  0  0  0  0  0  0  0  0  0
   10.5753  -16.7077   26.2046 O   0  0  0  0  0  0  0  0  0  0  0  0
   10.7373  -17.4027   25.0157 O   0  0  0  0  0  0  0  0  0  0  0  0
  2  4  1  0
  2  1  1  0
  3  2  2  0
  5  6  1  0
  5  4  1  0
  7  6  1  0
  8  7  1  0
  8  9  1  6
 10 11  2  0
 10  8  1  0
 12 10  1  0
 13 12  1  0
 13 14  1  6
 15 14  1  0
 16 13  1  0
 16 18  1  0
 17 16  2  0
 19 18  1  0
 19 20  1  6
 20 21  1  0
 21 22  2  0
 21 25  1  0
 22 23  1  0
 23 24  1  0
 25 24  2  0
 26 19  1  0
 27 26  1  0
 28 26  2  0
M  END
$$$$
