YYW.pdb
     RDKit          3D

 39 42  0  0  1  0  0  0  0  0999 V2000
   18.1211  -21.8730  -18.0983 O   0  0  0  0  0  0  0  0  0  0  0  0
   19.2799  -22.0381  -17.3528 C   0  0  0  0  0  0  0  0  0  0  0  0
   20.1144  -23.1103  -17.6450 C   0  0  0  0  0  0  0  0  0  0  0  0
   21.2654  -23.2881  -16.9167 C   0  0  0  0  0  0  0  0  0  0  0  0
   21.5573  -22.3818  -15.9048 C   0  0  0  0  0  0  0  0  0  0  0  0
   22.7827  -22.5503  -15.1105 C   0  0  0  0  0  0  0  0  0  0  0  0
   23.7864  -21.4901  -15.5138 C   0  0  2  0  0  0  0  0  0  0  0  0
   24.2707  -21.7065  -16.8619 N   0  0  0  0  0  0  0  0  0  0  0  0
   24.8979  -21.5498  -14.5330 C   0  0  0  0  0  0  0  0  0  0  0  0
   25.6404  -22.5551  -14.4325 O   0  0  0  0  0  0  0  0  0  0  0  0
   20.7195  -21.3179  -15.6223 C   0  0  0  0  0  0  0  0  0  0  0  0
   19.5749  -21.1522  -16.3562 C   0  0  0  0  0  0  0  0  0  0  0  0
   29.5136  -18.5467  -17.8059 O   0  0  0  0  0  0  0  0  0  0  0  0
   28.8921  -18.6845  -16.5780 C   0  0  0  0  0  0  0  0  0  0  0  0
   27.7997  -17.8902  -16.2820 C   0  0  0  0  0  0  0  0  0  0  0  0
   27.1913  -18.0458  -15.0422 C   0  0  0  0  0  0  0  0  0  0  0  0
   27.6326  -18.9530  -14.1080 C   0  0  0  0  0  0  0  0  0  0  0  0
   26.9815  -19.1149  -12.7871 C   0  0  0  0  0  0  0  0  0  0  0  0
   26.1776  -20.3955  -12.7312 C   0  0  2  0  0  0  0  0  0  0  0  0
   25.1133  -20.4259  -13.6907 N   0  0  0  0  0  0  0  0  0  0  0  0
   25.6609  -20.5308  -11.3284 C   0  0  0  0  0  0  0  0  0  0  0  0
   24.5634  -20.0138  -10.9928 O   0  0  0  0  0  0  0  0  0  0  0  0
   28.7368  -19.7362  -14.4427 C   0  0  0  0  0  0  0  0  0  0  0  0
   29.3491  -19.5980  -15.6571 C   0  0  0  0  0  0  0  0  0  0  0  0
   26.3753  -21.2365  -10.3333 N   0  0  0  0  0  0  0  0  0  0  0  0
   25.9840  -21.3131   -8.9386 C   0  0  1  0  0  0  0  0  0  0  0  0
   27.2708  -21.5344   -8.1494 C   0  0  0  0  0  0  0  0  0  0  0  0
   27.1135  -21.2089   -6.7310 C   0  0  0  0  0  0  0  0  0  0  0  0
   26.1048  -21.6087   -5.8925 C   0  0  0  0  0  0  0  0  0  0  0  0
   26.3343  -21.0934   -4.6713 N   0  0  0  0  0  0  0  0  0  0  0  0
   27.4680  -20.3621   -4.6757 C   0  0  0  0  0  0  0  0  0  0  0  0
   28.1621  -19.6357   -3.7509 C   0  0  0  0  0  0  0  0  0  0  0  0
   29.3222  -18.9926   -4.1051 C   0  0  0  0  0  0  0  0  0  0  0  0
   29.8255  -19.0529   -5.3880 C   0  0  0  0  0  0  0  0  0  0  0  0
   29.1357  -19.7808   -6.3274 C   0  0  0  0  0  0  0  0  0  0  0  0
   27.9596  -20.4344   -5.9736 C   0  0  0  0  0  0  0  0  0  0  0  0
   25.2553  -20.1326   -8.4855 C   0  0  0  0  0  0  0  0  0  0  0  0
   24.2078  -20.2466   -7.8176 O   0  0  0  0  0  0  0  0  0  0  0  0
   25.7169  -18.8699   -8.7909 O   0  0  0  0  0  0  0  0  0  0  0  0
  2 12  2  0
  2  1  1  0
  3  2  1  0
  4  5  1  0
  4  3  2  0
  5 11  2  0
  6  5  1  0
  6  7  1  0
  7  9  1  0
  7  8  1  6
  9 10  2  0
 11 12  1  0
 13 14  1  0
 14 15  2  0
 15 16  1  0
 17 18  1  0
 17 16  2  0
 19 18  1  1
 19 21  1  0
 20 19  1  0
 20  9  1  0
 21 22  2  0
 21 25  1  0
 23 17  1  0
 24 14  1  0
 24 23  2  0
 25 26  1  0
 26 27  1  1
 27 28  1  0
 28 29  2  0
 30 29  1  0
 31 30  1  0
 32 31  2  0
 33 32  1  0
 34 33  2  0
 34 35  1  0
 35 36  2  0
 36 31  1  0
 36 28  1  0
 37 26  1  0
 37 39  1  0
 38 37  2  0
M  END
$$$$
