YYW.pdb
     RDKit          3D

 39 42  0  0  1  0  0  0  0  0999 V2000
   16.7500  -24.8633  -14.1756 O   0  0  0  0  0  0  0  0  0  0  0  0
   17.7255  -23.8923  -13.9985 C   0  0  0  0  0  0  0  0  0  0  0  0
   17.3277  -22.5829  -13.7563 C   0  0  0  0  0  0  0  0  0  0  0  0
   18.2807  -21.6097  -13.5786 C   0  0  0  0  0  0  0  0  0  0  0  0
   19.6204  -21.9719  -13.6479 C   0  0  0  0  0  0  0  0  0  0  0  0
   20.6595  -20.9489  -13.4618 C   0  0  0  0  0  0  0  0  0  0  0  0
   21.3358  -21.1648  -12.1239 C   0  0  2  0  0  0  0  0  0  0  0  0
   20.4567  -20.8191  -11.0255 N   0  0  0  0  0  0  0  0  0  0  0  0
   22.5565  -20.3218  -12.1140 C   0  0  0  0  0  0  0  0  0  0  0  0
   22.5125  -19.0938  -11.8644 O   0  0  0  0  0  0  0  0  0  0  0  0
   20.0052  -23.2784  -13.8896 C   0  0  0  0  0  0  0  0  0  0  0  0
   19.0448  -24.2391  -14.0649 C   0  0  0  0  0  0  0  0  0  0  0  0
   26.2283  -20.2894   -6.1389 O   0  0  0  0  0  0  0  0  0  0  0  0
   26.2128  -20.4602   -7.5114 C   0  0  0  0  0  0  0  0  0  0  0  0
   25.6532  -21.6078   -8.0421 C   0  0  0  0  0  0  0  0  0  0  0  0
   25.6488  -21.7579   -9.4237 C   0  0  0  0  0  0  0  0  0  0  0  0
   26.1761  -20.8148  -10.2740 C   0  0  0  0  0  0  0  0  0  0  0  0
   26.1703  -20.9795  -11.7463 C   0  0  0  0  0  0  0  0  0  0  0  0
   25.0334  -20.2039  -12.3750 C   0  0  2  0  0  0  0  0  0  0  0  0
   23.8039  -20.9403  -12.3977 N   0  0  0  0  0  0  0  0  0  0  0  0
   25.4731  -19.8200  -13.7579 C   0  0  0  0  0  0  0  0  0  0  0  0
   25.2948  -20.5986  -14.7307 O   0  0  0  0  0  0  0  0  0  0  0  0
   26.7317  -19.6709   -9.7017 C   0  0  0  0  0  0  0  0  0  0  0  0
   26.7456  -19.5047   -8.3449 C   0  0  0  0  0  0  0  0  0  0  0  0
   26.0998  -18.5816  -14.0264 N   0  0  0  0  0  0  0  0  0  0  0  0
   26.5424  -18.1515  -15.3391 C   0  0  1  0  0  0  0  0  0  0  0  0
   27.1142  -16.7491  -15.1547 C   0  0  0  0  0  0  0  0  0  0  0  0
   27.6198  -16.1880  -16.4086 C   0  0  0  0  0  0  0  0  0  0  0  0
   26.9633  -15.3437  -17.2668 C   0  0  0  0  0  0  0  0  0  0  0  0
   27.7791  -15.0640  -18.2991 N   0  0  0  0  0  0  0  0  0  0  0  0
   28.9597  -15.6996  -18.1502 C   0  0  0  0  0  0  0  0  0  0  0  0
   30.1203  -15.7787  -18.8653 C   0  0  0  0  0  0  0  0  0  0  0  0
   31.1634  -16.5458  -18.4088 C   0  0  0  0  0  0  0  0  0  0  0  0
   31.0829  -17.2560  -17.2289 C   0  0  0  0  0  0  0  0  0  0  0  0
   29.9199  -17.1842  -16.5006 C   0  0  0  0  0  0  0  0  0  0  0  0
   28.8600  -16.4082  -16.9588 C   0  0  0  0  0  0  0  0  0  0  0  0
   27.5068  -19.0654  -15.9430 C   0  0  0  0  0  0  0  0  0  0  0  0
   28.3447  -19.6651  -15.2397 O   0  0  0  0  0  0  0  0  0  0  0  0
   27.5047  -19.2791  -17.3050 O   0  0  0  0  0  0  0  0  0  0  0  0
  2 12  2  0
  2  1  1  0
  3  2  1  0
  4  5  1  0
  4  3  2  0
  5 11  2  0
  6  5  1  0
  6  7  1  0
  7  9  1  0
  7  8  1  1
  9 10  2  0
 11 12  1  0
 13 14  1  0
 14 15  2  0
 15 16  1  0
 17 18  1  0
 17 16  2  0
 19 18  1  6
 19 21  1  0
 20 19  1  0
 20  9  1  0
 21 22  2  0
 21 25  1  0
 23 17  1  0
 24 14  1  0
 24 23  2  0
 25 26  1  0
 26 27  1  1
 27 28  1  0
 28 29  2  0
 30 29  1  0
 31 30  1  0
 32 31  2  0
 33 32  1  0
 34 33  2  0
 34 35  1  0
 35 36  2  0
 36 31  1  0
 36 28  1  0
 37 26  1  0
 37 39  1  0
 38 37  2  0
M  END
$$$$
