YYW.pdb
     RDKit          3D

 39 42  0  0  1  0  0  0  0  0999 V2000
   27.5415  -15.8658  -16.3543 O   0  0  0  0  0  0  0  0  0  0  0  0
   26.4642  -15.0570  -16.6877 C   0  0  0  0  0  0  0  0  0  0  0  0
   25.6894  -14.5222  -15.6654 C   0  0  0  0  0  0  0  0  0  0  0  0
   24.6196  -13.7195  -15.9783 C   0  0  0  0  0  0  0  0  0  0  0  0
   24.3475  -13.4683  -17.3175 C   0  0  0  0  0  0  0  0  0  0  0  0
   23.2078  -12.6129  -17.6786 C   0  0  0  0  0  0  0  0  0  0  0  0
   21.9214  -13.3855  -17.4730 C   0  0  2  0  0  0  0  0  0  0  0  0
   21.9013  -14.5987  -18.2645 N   0  0  0  0  0  0  0  0  0  0  0  0
   20.8077  -12.4827  -17.8545 C   0  0  0  0  0  0  0  0  0  0  0  0
   20.4314  -12.3598  -19.0442 O   0  0  0  0  0  0  0  0  0  0  0  0
   25.1253  -14.0058  -18.3272 C   0  0  0  0  0  0  0  0  0  0  0  0
   26.1892  -14.8046  -18.0014 C   0  0  0  0  0  0  0  0  0  0  0  0
   15.3426  -16.1039  -17.7891 O   0  0  0  0  0  0  0  0  0  0  0  0
   15.9511  -14.9254  -17.3966 C   0  0  0  0  0  0  0  0  0  0  0  0
   15.5516  -13.7348  -17.9750 C   0  0  0  0  0  0  0  0  0  0  0  0
   16.1771  -12.5633  -17.5652 C   0  0  0  0  0  0  0  0  0  0  0  0
   17.1698  -12.5460  -16.6140 C   0  0  0  0  0  0  0  0  0  0  0  0
   17.8346  -11.2949  -16.1809 C   0  0  0  0  0  0  0  0  0  0  0  0
   18.9932  -10.9522  -17.0916 C   0  0  2  0  0  0  0  0  0  0  0  0
   20.1593  -11.7431  -16.8290 N   0  0  0  0  0  0  0  0  0  0  0  0
   19.2696   -9.4868  -16.9211 C   0  0  0  0  0  0  0  0  0  0  0  0
   19.8950   -9.0613  -15.9150 O   0  0  0  0  0  0  0  0  0  0  0  0
   17.5456  -13.7664  -16.0535 C   0  0  0  0  0  0  0  0  0  0  0  0
   16.9424  -14.9296  -16.4432 C   0  0  0  0  0  0  0  0  0  0  0  0
   18.8449   -8.5302  -17.8716 N   0  0  0  0  0  0  0  0  0  0  0  0
   18.9585   -7.0943  -17.7003 C   0  0  1  0  0  0  0  0  0  0  0  0
   18.7033   -6.4825  -19.0744 C   0  0  0  0  0  0  0  0  0  0  0  0
   18.8014   -5.0221  -19.0572 C   0  0  0  0  0  0  0  0  0  0  0  0
   19.9420   -4.2658  -18.9717 C   0  0  0  0  0  0  0  0  0  0  0  0
   19.5956   -2.9661  -18.9878 N   0  0  0  0  0  0  0  0  0  0  0  0
   18.2558   -2.8383  -19.0817 C   0  0  0  0  0  0  0  0  0  0  0  0
   17.3785   -1.7934  -19.1370 C   0  0  0  0  0  0  0  0  0  0  0  0
   16.0291   -2.0272  -19.2340 C   0  0  0  0  0  0  0  0  0  0  0  0
   15.5132   -3.3058  -19.2788 C   0  0  0  0  0  0  0  0  0  0  0  0
   16.3863   -4.3654  -19.2238 C   0  0  0  0  0  0  0  0  0  0  0  0
   17.7546   -4.1339  -19.1254 C   0  0  0  0  0  0  0  0  0  0  0  0
   18.0517   -6.5680  -16.6851 C   0  0  0  0  0  0  0  0  0  0  0  0
   16.9242   -7.0733  -16.5128 O   0  0  0  0  0  0  0  0  0  0  0  0
   18.4307   -5.5004  -15.8994 O   0  0  0  0  0  0  0  0  0  0  0  0
  2 12  2  0
  2  1  1  0
  3  2  1  0
  4  5  1  0
  4  3  2  0
  5 11  2  0
  6  5  1  0
  6  7  1  0
  7  9  1  0
  7  8  1  6
  9 10  2  0
 11 12  1  0
 13 14  1  0
 14 15  2  0
 15 16  1  0
 17 18  1  0
 17 16  2  0
 19 18  1  1
 19 21  1  0
 20 19  1  0
 20  9  1  0
 21 22  2  0
 21 25  1  0
 23 17  1  0
 24 14  1  0
 24 23  2  0
 25 26  1  0
 26 27  1  6
 27 28  1  0
 28 29  2  0
 30 29  1  0
 31 30  1  0
 32 31  2  0
 33 32  1  0
 34 33  2  0
 34 35  1  0
 35 36  2  0
 36 31  1  0
 36 28  1  0
 37 26  1  0
 37 39  1  0
 38 37  2  0
M  END
$$$$
