YYW.pdb
     RDKit          3D

 39 42  0  0  1  0  0  0  0  0999 V2000
   16.6632  -18.2899  -18.8669 O   0  0  0  0  0  0  0  0  0  0  0  0
   17.8809  -18.3758  -18.2069 C   0  0  0  0  0  0  0  0  0  0  0  0
   18.8298  -19.2787  -18.6715 C   0  0  0  0  0  0  0  0  0  0  0  0
   20.0403  -19.3761  -18.0296 C   0  0  0  0  0  0  0  0  0  0  0  0
   20.2754  -18.5614  -16.9288 C   0  0  0  0  0  0  0  0  0  0  0  0
   21.5627  -18.6469  -16.2241 C   0  0  0  0  0  0  0  0  0  0  0  0
   21.5341  -19.8295  -15.2783 C   0  0  2  0  0  0  0  0  0  0  0  0
   20.6090  -19.6098  -14.1853 N   0  0  0  0  0  0  0  0  0  0  0  0
   22.9173  -20.0161  -14.7755 C   0  0  0  0  0  0  0  0  0  0  0  0
   23.6385  -19.0459  -14.4427 O   0  0  0  0  0  0  0  0  0  0  0  0
   19.3237  -17.6660  -16.4748 C   0  0  0  0  0  0  0  0  0  0  0  0
   18.1208  -17.5789  -17.1240 C   0  0  0  0  0  0  0  0  0  0  0  0
   21.6115  -20.3228   -8.8535 O   0  0  0  0  0  0  0  0  0  0  0  0
   22.3897  -20.8519   -9.8672 C   0  0  0  0  0  0  0  0  0  0  0  0
   21.7970  -21.6571  -10.8222 C   0  0  0  0  0  0  0  0  0  0  0  0
   22.5983  -22.1777  -11.8313 C   0  0  0  0  0  0  0  0  0  0  0  0
   23.9470  -21.9231  -11.9133 C   0  0  0  0  0  0  0  0  0  0  0  0
   24.7978  -22.4810  -12.9903 C   0  0  0  0  0  0  0  0  0  0  0  0
   24.7582  -21.6042  -14.2228 C   0  0  2  0  0  0  0  0  0  0  0  0
   23.4238  -21.3398  -14.6741 N   0  0  0  0  0  0  0  0  0  0  0  0
   25.5728  -22.2919  -15.2794 C   0  0  0  0  0  0  0  0  0  0  0  0
   25.0305  -23.0690  -16.1078 O   0  0  0  0  0  0  0  0  0  0  0  0
   24.5088  -21.1067  -10.9321 C   0  0  0  0  0  0  0  0  0  0  0  0
   23.7374  -20.5850   -9.9314 C   0  0  0  0  0  0  0  0  0  0  0  0
   26.9691  -22.1000  -15.3900 N   0  0  0  0  0  0  0  0  0  0  0  0
   27.6198  -21.4091  -16.4869 C   0  0  1  0  0  0  0  0  0  0  0  0
   27.0016  -20.0151  -16.5356 C   0  0  0  0  0  0  0  0  0  0  0  0
   27.5760  -19.1915  -17.6006 C   0  0  0  0  0  0  0  0  0  0  0  0
   27.0084  -18.8798  -18.8093 C   0  0  0  0  0  0  0  0  0  0  0  0
   27.8636  -18.1003  -19.4951 N   0  0  0  0  0  0  0  0  0  0  0  0
   28.9840  -17.8855  -18.7750 C   0  0  0  0  0  0  0  0  0  0  0  0
   30.1467  -17.1953  -18.9652 C   0  0  0  0  0  0  0  0  0  0  0  0
   31.1133  -17.1861  -17.9902 C   0  0  0  0  0  0  0  0  0  0  0  0
   30.9520  -17.8623  -16.7988 C   0  0  0  0  0  0  0  0  0  0  0  0
   29.7860  -18.5605  -16.5959 C   0  0  0  0  0  0  0  0  0  0  0  0
   28.8033  -18.5730  -17.5807 C   0  0  0  0  0  0  0  0  0  0  0  0
   29.0722  -21.3638  -16.3505 C   0  0  0  0  0  0  0  0  0  0  0  0
   29.8098  -21.4298  -17.3544 O   0  0  0  0  0  0  0  0  0  0  0  0
   29.6510  -21.2468  -15.1047 O   0  0  0  0  0  0  0  0  0  0  0  0
  2 12  2  0
  2  1  1  0
  3  2  1  0
  4  5  1  0
  4  3  2  0
  5 11  2  0
  6  5  1  0
  6  7  1  0
  7  9  1  0
  7  8  1  1
  9 10  2  0
 11 12  1  0
 13 14  1  0
 14 15  2  0
 15 16  1  0
 17 18  1  0
 17 16  2  0
 19 18  1  1
 19 21  1  0
 20 19  1  0
 20  9  1  0
 21 22  2  0
 21 25  1  0
 23 17  1  0
 24 14  1  0
 24 23  2  0
 25 26  1  0
 26 27  1  1
 27 28  1  0
 28 29  2  0
 30 29  1  0
 31 30  1  0
 32 31  2  0
 33 32  1  0
 34 33  2  0
 34 35  1  0
 35 36  2  0
 36 31  1  0
 36 28  1  0
 37 26  1  0
 37 39  1  0
 38 37  2  0
M  END
$$$$
