YYW.pdb
     RDKit          3D

 39 42  0  0  1  0  0  0  0  0999 V2000
   22.5187  -28.7615  -23.9742 O   0  0  0  0  0  0  0  0  0  0  0  0
   21.6789  -27.9537  -24.7281 C   0  0  0  0  0  0  0  0  0  0  0  0
   21.6105  -26.5984  -24.4282 C   0  0  0  0  0  0  0  0  0  0  0  0
   20.7843  -25.7849  -25.1648 C   0  0  0  0  0  0  0  0  0  0  0  0
   20.0399  -26.3507  -26.1926 C   0  0  0  0  0  0  0  0  0  0  0  0
   19.1478  -25.5015  -26.9953 C   0  0  0  0  0  0  0  0  0  0  0  0
   17.7250  -25.6722  -26.5050 C   0  0  2  0  0  0  0  0  0  0  0  0
   17.2600  -27.0311  -26.6948 N   0  0  0  0  0  0  0  0  0  0  0  0
   16.8867  -24.7120  -27.2642 C   0  0  0  0  0  0  0  0  0  0  0  0
   16.4620  -24.9685  -28.4157 O   0  0  0  0  0  0  0  0  0  0  0  0
   20.1157  -27.7011  -26.4825 C   0  0  0  0  0  0  0  0  0  0  0  0
   20.9435  -28.5011  -25.7402 C   0  0  0  0  0  0  0  0  0  0  0  0
   12.4945  -24.2197  -22.1786 O   0  0  0  0  0  0  0  0  0  0  0  0
   12.9376  -23.8765  -23.4432 C   0  0  0  0  0  0  0  0  0  0  0  0
   13.4362  -24.8628  -24.2739 C   0  0  0  0  0  0  0  0  0  0  0  0
   13.8757  -24.4948  -25.5400 C   0  0  0  0  0  0  0  0  0  0  0  0
   13.8329  -23.1969  -25.9918 C   0  0  0  0  0  0  0  0  0  0  0  0
   14.3036  -22.8088  -27.3419 C   0  0  0  0  0  0  0  0  0  0  0  0
   15.7801  -22.4786  -27.3283 C   0  0  2  0  0  0  0  0  0  0  0  0
   16.5650  -23.4700  -26.6534 N   0  0  0  0  0  0  0  0  0  0  0  0
   15.9242  -21.1292  -26.6870 C   0  0  0  0  0  0  0  0  0  0  0  0
   16.0225  -21.0162  -25.4372 O   0  0  0  0  0  0  0  0  0  0  0  0
   13.3236  -22.2301  -25.1254 C   0  0  0  0  0  0  0  0  0  0  0  0
   12.8863  -22.5722  -23.8762 C   0  0  0  0  0  0  0  0  0  0  0  0
   15.9554  -19.9387  -27.4490 N   0  0  0  0  0  0  0  0  0  0  0  0
   16.2411  -18.6235  -26.9081 C   0  0  1  0  0  0  0  0  0  0  0  0
   17.5989  -18.7339  -26.2212 C   0  0  0  0  0  0  0  0  0  0  0  0
   17.5844  -18.1674  -24.8716 C   0  0  0  0  0  0  0  0  0  0  0  0
   17.6302  -18.8488  -23.6826 C   0  0  0  0  0  0  0  0  0  0  0  0
   17.5970  -17.9565  -22.6766 N   0  0  0  0  0  0  0  0  0  0  0  0
   17.5305  -16.7006  -23.1648 C   0  0  0  0  0  0  0  0  0  0  0  0
   17.4749  -15.4475  -22.6252 C   0  0  0  0  0  0  0  0  0  0  0  0
   17.4124  -14.3450  -23.4411 C   0  0  0  0  0  0  0  0  0  0  0  0
   17.4036  -14.4564  -24.8160 C   0  0  0  0  0  0  0  0  0  0  0  0
   17.4591  -15.7124  -25.3706 C   0  0  0  0  0  0  0  0  0  0  0  0
   17.5224  -16.8328  -24.5483 C   0  0  0  0  0  0  0  0  0  0  0  0
   16.2194  -17.5735  -27.9214 C   0  0  0  0  0  0  0  0  0  0  0  0
   15.7514  -16.4464  -27.6627 O   0  0  0  0  0  0  0  0  0  0  0  0
   16.7181  -17.8142  -29.1840 O   0  0  0  0  0  0  0  0  0  0  0  0
  2 12  2  0
  2  1  1  0
  3  2  1  0
  4  5  1  0
  4  3  2  0
  5 11  2  0
  6  5  1  0
  6  7  1  0
  7  9  1  0
  7  8  1  6
  9 10  2  0
 11 12  1  0
 13 14  1  0
 14 15  2  0
 15 16  1  0
 17 18  1  0
 17 16  2  0
 19 18  1  1
 19 21  1  0
 20 19  1  0
 20  9  1  0
 21 22  2  0
 21 25  1  0
 23 17  1  0
 24 14  1  0
 24 23  2  0
 25 26  1  0
 26 27  1  6
 27 28  1  0
 28 29  2  0
 30 29  1  0
 31 30  1  0
 32 31  2  0
 33 32  1  0
 34 33  2  0
 34 35  1  0
 35 36  2  0
 36 31  1  0
 36 28  1  0
 37 26  1  0
 37 39  1  0
 38 37  2  0
M  END
$$$$
