YYW.pdb
     RDKit          3D

 39 42  0  0  1  0  0  0  0  0999 V2000
   23.4972  -13.7898  -27.4687 O   0  0  0  0  0  0  0  0  0  0  0  0
   22.8112  -13.9105  -26.2684 C   0  0  0  0  0  0  0  0  0  0  0  0
   21.4380  -13.6965  -26.2599 C   0  0  0  0  0  0  0  0  0  0  0  0
   20.7440  -13.8121  -25.0802 C   0  0  0  0  0  0  0  0  0  0  0  0
   21.4454  -14.1418  -23.9270 C   0  0  0  0  0  0  0  0  0  0  0  0
   20.7258  -14.2710  -22.6516 C   0  0  0  0  0  0  0  0  0  0  0  0
   20.4474  -12.8899  -22.0957 C   0  0  2  0  0  0  0  0  0  0  0  0
   21.3537  -12.5633  -21.0136 N   0  0  0  0  0  0  0  0  0  0  0  0
   19.0389  -12.8858  -21.6297 C   0  0  0  0  0  0  0  0  0  0  0  0
   18.7297  -13.1791  -20.4505 O   0  0  0  0  0  0  0  0  0  0  0  0
   22.8124  -14.3527  -23.9467 C   0  0  0  0  0  0  0  0  0  0  0  0
   23.4923  -14.2342  -25.1298 C   0  0  0  0  0  0  0  0  0  0  0  0
   18.0011   -7.2895  -18.7630 O   0  0  0  0  0  0  0  0  0  0  0  0
   17.5205   -8.2242  -19.6623 C   0  0  0  0  0  0  0  0  0  0  0  0
   18.1622   -8.3841  -20.8765 C   0  0  0  0  0  0  0  0  0  0  0  0
   17.6618   -9.3290  -21.7643 C   0  0  0  0  0  0  0  0  0  0  0  0
   16.5616  -10.1034  -21.4811 C   0  0  0  0  0  0  0  0  0  0  0  0
   16.0308  -11.1089  -22.4309 C   0  0  0  0  0  0  0  0  0  0  0  0
   16.6429  -12.4696  -22.1797 C   0  0  2  0  0  0  0  0  0  0  0  0
   18.0232  -12.5368  -22.5600 N   0  0  0  0  0  0  0  0  0  0  0  0
   15.8138  -13.4713  -22.9294 C   0  0  0  0  0  0  0  0  0  0  0  0
   15.6660  -13.3821  -24.1762 O   0  0  0  0  0  0  0  0  0  0  0  0
   15.9412   -9.9135  -20.2466 C   0  0  0  0  0  0  0  0  0  0  0  0
   16.4183   -8.9891  -19.3597 C   0  0  0  0  0  0  0  0  0  0  0  0
   15.1695  -14.5470  -22.2764 N   0  0  0  0  0  0  0  0  0  0  0  0
   14.3056  -15.5091  -22.9337 C   0  0  1  0  0  0  0  0  0  0  0  0
   15.1665  -16.7410  -23.1964 C   0  0  0  0  0  0  0  0  0  0  0  0
   15.8225  -17.2274  -21.9817 C   0  0  0  0  0  0  0  0  0  0  0  0
   15.3092  -17.2488  -20.7104 C   0  0  0  0  0  0  0  0  0  0  0  0
   16.2323  -17.7743  -19.8851 N   0  0  0  0  0  0  0  0  0  0  0  0
   17.3452  -18.1025  -20.5735 C   0  0  0  0  0  0  0  0  0  0  0  0
   18.5561  -18.6519  -20.2629 C   0  0  0  0  0  0  0  0  0  0  0  0
   19.4950  -18.8565  -21.2435 C   0  0  0  0  0  0  0  0  0  0  0  0
   19.2575  -18.5211  -22.5602 C   0  0  0  0  0  0  0  0  0  0  0  0
   18.0424  -17.9674  -22.8849 C   0  0  0  0  0  0  0  0  0  0  0  0
   17.0875  -17.7580  -21.8951 C   0  0  0  0  0  0  0  0  0  0  0  0
   13.1112  -15.8264  -22.1572 C   0  0  0  0  0  0  0  0  0  0  0  0
   12.5691  -16.9462  -22.2491 O   0  0  0  0  0  0  0  0  0  0  0  0
   12.5637  -14.8885  -21.3079 O   0  0  0  0  0  0  0  0  0  0  0  0
  2 12  2  0
  2  1  1  0
  3  2  1  0
  4  5  1  0
  4  3  2  0
  5 11  2  0
  6  5  1  0
  6  7  1  0
  7  9  1  0
  7  8  1  1
  9 10  2  0
 11 12  1  0
 13 14  1  0
 14 15  2  0
 15 16  1  0
 17 18  1  0
 17 16  2  0
 19 18  1  6
 19 21  1  0
 20 19  1  0
 20  9  1  0
 21 22  2  0
 21 25  1  0
 23 17  1  0
 24 14  1  0
 24 23  2  0
 25 26  1  0
 26 27  1  1
 27 28  1  0
 28 29  2  0
 30 29  1  0
 31 30  1  0
 32 31  2  0
 33 32  1  0
 34 33  2  0
 34 35  1  0
 35 36  2  0
 36 31  1  0
 36 28  1  0
 37 26  1  0
 37 39  1  0
 38 37  2  0
M  END
$$$$
