YYW.pdb
     RDKit          3D

 39 42  0  0  1  0  0  0  0  0999 V2000
   29.1545  -12.4601  -21.2081 O   0  0  0  0  0  0  0  0  0  0  0  0
   28.6587  -13.7369  -20.9845 C   0  0  0  0  0  0  0  0  0  0  0  0
   29.0357  -14.4059  -19.8261 C   0  0  0  0  0  0  0  0  0  0  0  0
   28.5538  -15.6703  -19.5895 C   0  0  0  0  0  0  0  0  0  0  0  0
   27.6991  -16.2407  -20.5248 C   0  0  0  0  0  0  0  0  0  0  0  0
   27.1702  -17.5930  -20.2952 C   0  0  0  0  0  0  0  0  0  0  0  0
   28.3179  -18.5812  -20.2887 C   0  0  2  0  0  0  0  0  0  0  0  0
   28.9790  -18.6319  -21.5768 N   0  0  0  0  0  0  0  0  0  0  0  0
   27.7492  -19.9037  -19.9300 C   0  0  0  0  0  0  0  0  0  0  0  0
   27.1426  -20.6138  -20.7666 O   0  0  0  0  0  0  0  0  0  0  0  0
   27.3304  -15.5658  -21.6746 C   0  0  0  0  0  0  0  0  0  0  0  0
   27.8181  -14.3055  -21.8983 C   0  0  0  0  0  0  0  0  0  0  0  0
   26.3554  -27.4158  -15.7652 O   0  0  0  0  0  0  0  0  0  0  0  0
   26.7733  -26.1280  -16.0483 C   0  0  0  0  0  0  0  0  0  0  0  0
   26.1225  -25.0620  -15.4550 C   0  0  0  0  0  0  0  0  0  0  0  0
   26.5595  -23.7771  -15.7542 C   0  0  0  0  0  0  0  0  0  0  0  0
   27.6060  -23.5301  -16.6110 C   0  0  0  0  0  0  0  0  0  0  0  0
   28.0678  -22.1586  -16.9279 C   0  0  0  0  0  0  0  0  0  0  0  0
   27.3793  -21.6260  -18.1655 C   0  0  2  0  0  0  0  0  0  0  0  0
   27.9058  -20.3640  -18.5948 N   0  0  0  0  0  0  0  0  0  0  0  0
   25.9145  -21.5352  -17.8505 C   0  0  0  0  0  0  0  0  0  0  0  0
   25.4912  -20.7340  -16.9768 O   0  0  0  0  0  0  0  0  0  0  0  0
   28.2375  -24.6306  -17.1899 C   0  0  0  0  0  0  0  0  0  0  0  0
   27.8225  -25.9022  -16.9083 C   0  0  0  0  0  0  0  0  0  0  0  0
   24.9562  -22.3360  -18.5130 N   0  0  0  0  0  0  0  0  0  0  0  0
   23.5455  -22.3767  -18.1779 C   0  0  1  0  0  0  0  0  0  0  0  0
   22.7942  -22.3603  -19.5057 C   0  0  0  0  0  0  0  0  0  0  0  0
   21.3431  -22.3113  -19.3203 C   0  0  0  0  0  0  0  0  0  0  0  0
   20.5987  -21.2575  -18.8560 C   0  0  0  0  0  0  0  0  0  0  0  0
   19.3043  -21.6230  -18.8384 N   0  0  0  0  0  0  0  0  0  0  0  0
   19.1683  -22.8910  -19.2784 C   0  0  0  0  0  0  0  0  0  0  0  0
   18.1236  -23.7499  -19.4670 C   0  0  0  0  0  0  0  0  0  0  0  0
   18.3472  -25.0163  -19.9478 C   0  0  0  0  0  0  0  0  0  0  0  0
   19.6149  -25.4652  -20.2549 C   0  0  0  0  0  0  0  0  0  0  0  0
   20.6742  -24.6098  -20.0693 C   0  0  0  0  0  0  0  0  0  0  0  0
   20.4530  -23.3255  -19.5823 C   0  0  0  0  0  0  0  0  0  0  0  0
   23.1879  -23.5286  -17.3561 C   0  0  0  0  0  0  0  0  0  0  0  0
   22.5496  -23.3816  -16.2944 O   0  0  0  0  0  0  0  0  0  0  0  0
   23.5525  -24.8003  -17.7439 O   0  0  0  0  0  0  0  0  0  0  0  0
  2 12  2  0
  2  1  1  0
  3  2  1  0
  4  5  1  0
  4  3  2  0
  5 11  2  0
  6  5  1  0
  6  7  1  0
  7  9  1  0
  7  8  1  6
  9 10  2  0
 11 12  1  0
 13 14  1  0
 14 15  2  0
 15 16  1  0
 17 18  1  0
 17 16  2  0
 19 18  1  1
 19 21  1  0
 20 19  1  0
 20  9  1  0
 21 22  2  0
 21 25  1  0
 23 17  1  0
 24 14  1  0
 24 23  2  0
 25 26  1  0
 26 27  1  6
 27 28  1  0
 28 29  2  0
 30 29  1  0
 31 30  1  0
 32 31  2  0
 33 32  1  0
 34 33  2  0
 34 35  1  0
 35 36  2  0
 36 31  1  0
 36 28  1  0
 37 26  1  0
 37 39  1  0
 38 37  2  0
M  END
$$$$
