YYW.pdb
     RDKit          3D

 39 42  0  0  1  0  0  0  0  0999 V2000
   24.6183  -24.0261  -22.4244 O   0  0  0  0  0  0  0  0  0  0  0  0
   24.4167  -24.0048  -21.0515 C   0  0  0  0  0  0  0  0  0  0  0  0
   24.5428  -25.1918  -20.3399 C   0  0  0  0  0  0  0  0  0  0  0  0
   24.3466  -25.1880  -18.9803 C   0  0  0  0  0  0  0  0  0  0  0  0
   24.0262  -23.9871  -18.3592 C   0  0  0  0  0  0  0  0  0  0  0  0
   23.8107  -23.9566  -16.9053 C   0  0  0  0  0  0  0  0  0  0  0  0
   25.0389  -23.3792  -16.2328 C   0  0  2  0  0  0  0  0  0  0  0  0
   26.1452  -24.3141  -16.2604 N   0  0  0  0  0  0  0  0  0  0  0  0
   24.6550  -23.0500  -14.8381 C   0  0  0  0  0  0  0  0  0  0  0  0
   24.5729  -23.9290  -13.9477 O   0  0  0  0  0  0  0  0  0  0  0  0
   23.9032  -22.8112  -19.0774 C   0  0  0  0  0  0  0  0  0  0  0  0
   24.1014  -22.8290  -20.4325 C   0  0  0  0  0  0  0  0  0  0  0  0
   30.1922  -20.6477  -11.8970 O   0  0  0  0  0  0  0  0  0  0  0  0
   28.8349  -20.4875  -12.1095 C   0  0  0  0  0  0  0  0  0  0  0  0
   27.9426  -20.9956  -11.1836 C   0  0  0  0  0  0  0  0  0  0  0  0
   26.5837  -20.8229  -11.4179 C   0  0  0  0  0  0  0  0  0  0  0  0
   26.0991  -20.1708  -12.5272 C   0  0  0  0  0  0  0  0  0  0  0  0
   24.6495  -19.9899  -12.7734 C   0  0  0  0  0  0  0  0  0  0  0  0
   24.0035  -21.2917  -13.1947 C   0  0  2  0  0  0  0  0  0  0  0  0
   24.3759  -21.6937  -14.5191 N   0  0  0  0  0  0  0  0  0  0  0  0
   22.5191  -21.1080  -13.0698 C   0  0  0  0  0  0  0  0  0  0  0  0
   21.8896  -20.3760  -13.8775 O   0  0  0  0  0  0  0  0  0  0  0  0
   27.0296  -19.6722  -13.4384 C   0  0  0  0  0  0  0  0  0  0  0  0
   28.3705  -19.8319  -13.2258 C   0  0  0  0  0  0  0  0  0  0  0  0
   21.7704  -21.7414  -12.0515 N   0  0  0  0  0  0  0  0  0  0  0  0
   20.3444  -21.5678  -11.8504 C   0  0  1  0  0  0  0  0  0  0  0  0
   19.8588  -22.8320  -11.1478 C   0  0  0  0  0  0  0  0  0  0  0  0
   18.4442  -22.7528  -10.7804 C   0  0  0  0  0  0  0  0  0  0  0  0
   17.3973  -22.3694  -11.5788 C   0  0  0  0  0  0  0  0  0  0  0  0
   16.2633  -22.4360  -10.8584 N   0  0  0  0  0  0  0  0  0  0  0  0
   16.5281  -22.8532   -9.6031 C   0  0  0  0  0  0  0  0  0  0  0  0
   15.7889  -23.0951   -8.4807 C   0  0  0  0  0  0  0  0  0  0  0  0
   16.3999  -23.5272   -7.3296 C   0  0  0  0  0  0  0  0  0  0  0  0
   17.7625  -23.7311   -7.2611 C   0  0  0  0  0  0  0  0  0  0  0  0
   18.5168  -23.4909   -8.3842 C   0  0  0  0  0  0  0  0  0  0  0  0
   17.9026  -23.0530   -9.5532 C   0  0  0  0  0  0  0  0  0  0  0  0
   20.0176  -20.3596  -11.0998 C   0  0  0  0  0  0  0  0  0  0  0  0
   20.7664  -19.9519  -10.1891 O   0  0  0  0  0  0  0  0  0  0  0  0
   18.8717  -19.6494  -11.3885 O   0  0  0  0  0  0  0  0  0  0  0  0
  2 12  2  0
  2  1  1  0
  3  2  1  0
  4  5  1  0
  4  3  2  0
  5 11  2  0
  6  5  1  0
  6  7  1  0
  7  9  1  0
  7  8  1  1
  9 10  2  0
 11 12  1  0
 13 14  1  0
 14 15  2  0
 15 16  1  0
 17 18  1  0
 17 16  2  0
 19 18  1  6
 19 21  1  0
 20 19  1  0
 20  9  1  0
 21 22  2  0
 21 25  1  0
 23 17  1  0
 24 14  1  0
 24 23  2  0
 25 26  1  0
 26 27  1  1
 27 28  1  0
 28 29  2  0
 30 29  1  0
 31 30  1  0
 32 31  2  0
 33 32  1  0
 34 33  2  0
 34 35  1  0
 35 36  2  0
 36 31  1  0
 36 28  1  0
 37 26  1  0
 37 39  1  0
 38 37  2  0
M  END
$$$$
