YYW.pdb
     RDKit          3D

 39 42  0  0  1  0  0  0  0  0999 V2000
   17.4987  -18.6494  -16.9211 O   0  0  0  0  0  0  0  0  0  0  0  0
   18.5698  -19.3045  -16.3300 C   0  0  0  0  0  0  0  0  0  0  0  0
   19.0582  -18.8276  -15.1194 C   0  0  0  0  0  0  0  0  0  0  0  0
   20.1178  -19.4645  -14.5209 C   0  0  0  0  0  0  0  0  0  0  0  0
   20.6689  -20.5727  -15.1525 C   0  0  0  0  0  0  0  0  0  0  0  0
   21.8040  -21.2717  -14.5327 C   0  0  0  0  0  0  0  0  0  0  0  0
   23.0969  -20.6708  -15.0439 C   0  0  2  0  0  0  0  0  0  0  0  0
   23.3734  -21.0898  -16.4029 N   0  0  0  0  0  0  0  0  0  0  0  0
   24.1733  -21.1100  -14.1223 C   0  0  0  0  0  0  0  0  0  0  0  0
   24.5957  -22.2905  -14.1105 O   0  0  0  0  0  0  0  0  0  0  0  0
   20.1749  -21.0390  -16.3575 C   0  0  0  0  0  0  0  0  0  0  0  0
   19.1178  -20.3946  -16.9435 C   0  0  0  0  0  0  0  0  0  0  0  0
   29.5489  -20.1196  -17.4625 O   0  0  0  0  0  0  0  0  0  0  0  0
   28.9213  -19.9804  -16.2378 C   0  0  0  0  0  0  0  0  0  0  0  0
   29.0802  -20.9672  -15.2824 C   0  0  0  0  0  0  0  0  0  0  0  0
   28.4403  -20.8061  -14.0593 C   0  0  0  0  0  0  0  0  0  0  0  0
   27.6620  -19.7108  -13.7678 C   0  0  0  0  0  0  0  0  0  0  0  0
   26.9808  -19.5436  -12.4629 C   0  0  0  0  0  0  0  0  0  0  0  0
   25.8021  -20.4845  -12.3411 C   0  0  2  0  0  0  0  0  0  0  0  0
   24.7310  -20.1518  -13.2335 N   0  0  0  0  0  0  0  0  0  0  0  0
   25.3577  -20.4513  -10.9078 C   0  0  0  0  0  0  0  0  0  0  0  0
   24.4727  -19.6419  -10.5256 O   0  0  0  0  0  0  0  0  0  0  0  0
   27.5255  -18.7367  -14.7564 C   0  0  0  0  0  0  0  0  0  0  0  0
   28.1469  -18.8768  -15.9659 C   0  0  0  0  0  0  0  0  0  0  0  0
   25.9068  -21.3173   -9.9345 N   0  0  0  0  0  0  0  0  0  0  0  0
   25.8271  -21.1006   -8.5025 C   0  0  1  0  0  0  0  0  0  0  0  0
   26.8732  -22.0181   -7.8766 C   0  0  0  0  0  0  0  0  0  0  0  0
   27.0186  -21.7916   -6.4378 C   0  0  0  0  0  0  0  0  0  0  0  0
   26.3275  -22.4052   -5.4249 C   0  0  0  0  0  0  0  0  0  0  0  0
   26.7627  -21.9133   -4.2509 N   0  0  0  0  0  0  0  0  0  0  0  0
   27.7242  -20.9896   -4.4563 C   0  0  0  0  0  0  0  0  0  0  0  0
   28.4954  -20.1927   -3.6596 C   0  0  0  0  0  0  0  0  0  0  0  0
   29.4106  -19.3348   -4.2177 C   0  0  0  0  0  0  0  0  0  0  0  0
   29.5853  -19.2443   -5.5830 C   0  0  0  0  0  0  0  0  0  0  0  0
   28.8148  -20.0412   -6.3950 C   0  0  0  0  0  0  0  0  0  0  0  0
   27.8860  -20.9123   -5.8345 C   0  0  0  0  0  0  0  0  0  0  0  0
   26.0220  -19.7042   -8.1256 C   0  0  0  0  0  0  0  0  0  0  0  0
   26.9689  -19.0423   -8.5965 O   0  0  0  0  0  0  0  0  0  0  0  0
   25.1583  -19.0951   -7.2404 O   0  0  0  0  0  0  0  0  0  0  0  0
  2 12  2  0
  2  1  1  0
  3  2  1  0
  4  5  1  0
  4  3  2  0
  5 11  2  0
  6  5  1  0
  6  7  1  0
  7  9  1  0
  7  8  1  6
  9 10  2  0
 11 12  1  0
 13 14  1  0
 14 15  2  0
 15 16  1  0
 17 18  1  0
 17 16  2  0
 19 18  1  1
 19 21  1  0
 20 19  1  0
 20  9  1  0
 21 22  2  0
 21 25  1  0
 23 17  1  0
 24 14  1  0
 24 23  2  0
 25 26  1  0
 26 27  1  1
 27 28  1  0
 28 29  2  0
 30 29  1  0
 31 30  1  0
 32 31  2  0
 33 32  1  0
 34 33  2  0
 34 35  1  0
 35 36  2  0
 36 31  1  0
 36 28  1  0
 37 26  1  0
 37 39  1  0
 38 37  2  0
M  END
$$$$
