YYW.pdb
     RDKit          3D

 39 42  0  0  1  0  0  0  0  0999 V2000
   29.8849  -14.9988  -21.7214 O   0  0  0  0  0  0  0  0  0  0  0  0
   29.0485  -16.0313  -21.3211 C   0  0  0  0  0  0  0  0  0  0  0  0
   28.2806  -16.6787  -22.2816 C   0  0  0  0  0  0  0  0  0  0  0  0
   27.4476  -17.7029  -21.9021 C   0  0  0  0  0  0  0  0  0  0  0  0
   27.4018  -18.0585  -20.5596 C   0  0  0  0  0  0  0  0  0  0  0  0
   26.5179  -19.1509  -20.1278 C   0  0  0  0  0  0  0  0  0  0  0  0
   27.3528  -20.2467  -19.4984 C   0  0  2  0  0  0  0  0  0  0  0  0
   28.2745  -20.8245  -20.4552 N   0  0  0  0  0  0  0  0  0  0  0  0
   26.4093  -21.2694  -18.9839 C   0  0  0  0  0  0  0  0  0  0  0  0
   25.8594  -22.1047  -19.7403 O   0  0  0  0  0  0  0  0  0  0  0  0
   28.1705  -17.4072  -19.6118 C   0  0  0  0  0  0  0  0  0  0  0  0
   28.9970  -16.3877  -20.0037 C   0  0  0  0  0  0  0  0  0  0  0  0
   29.7196  -26.7561  -17.1716 O   0  0  0  0  0  0  0  0  0  0  0  0
   28.7649  -25.8147  -16.8318 C   0  0  0  0  0  0  0  0  0  0  0  0
   29.1137  -24.4769  -16.8123 C   0  0  0  0  0  0  0  0  0  0  0  0
   28.1381  -23.5489  -16.4680 C   0  0  0  0  0  0  0  0  0  0  0  0
   26.8504  -23.9100  -16.1490 C   0  0  0  0  0  0  0  0  0  0  0  0
   25.8138  -22.9174  -15.7815 C   0  0  0  0  0  0  0  0  0  0  0  0
   25.2399  -22.2504  -17.0124 C   0  0  2  0  0  0  0  0  0  0  0  0
   26.1320  -21.2889  -17.5905 N   0  0  0  0  0  0  0  0  0  0  0  0
   23.9381  -21.6227  -16.6073 C   0  0  0  0  0  0  0  0  0  0  0  0
   23.9166  -20.5500  -15.9491 O   0  0  0  0  0  0  0  0  0  0  0  0
   26.5364  -25.2685  -16.1797 C   0  0  0  0  0  0  0  0  0  0  0  0
   27.4820  -26.1967  -16.5159 C   0  0  0  0  0  0  0  0  0  0  0  0
   22.6926  -22.2014  -16.9428 N   0  0  0  0  0  0  0  0  0  0  0  0
   21.4038  -21.6645  -16.5492 C   0  0  1  0  0  0  0  0  0  0  0  0
   20.6292  -21.4316  -17.8429 C   0  0  0  0  0  0  0  0  0  0  0  0
   19.3026  -20.8630  -17.5993 C   0  0  0  0  0  0  0  0  0  0  0  0
   18.9999  -19.5642  -17.2800 C   0  0  0  0  0  0  0  0  0  0  0  0
   17.6662  -19.4577  -17.1409 N   0  0  0  0  0  0  0  0  0  0  0  0
   17.0745  -20.6503  -17.3591 C   0  0  0  0  0  0  0  0  0  0  0  0
   15.7911  -21.1164  -17.3538 C   0  0  0  0  0  0  0  0  0  0  0  0
   15.5331  -22.4364  -17.6296 C   0  0  0  0  0  0  0  0  0  0  0  0
   16.5429  -23.3306  -17.9186 C   0  0  0  0  0  0  0  0  0  0  0  0
   17.8387  -22.8732  -17.9269 C   0  0  0  0  0  0  0  0  0  0  0  0
   18.1054  -21.5365  -17.6480 C   0  0  0  0  0  0  0  0  0  0  0  0
   20.6832  -22.5329  -15.6237 C   0  0  0  0  0  0  0  0  0  0  0  0
   20.7917  -23.7736  -15.6970 O   0  0  0  0  0  0  0  0  0  0  0  0
   19.8694  -21.9914  -14.6516 O   0  0  0  0  0  0  0  0  0  0  0  0
  2 12  2  0
  2  1  1  0
  3  2  1  0
  4  5  1  0
  4  3  2  0
  5 11  2  0
  6  5  1  0
  6  7  1  0
  7  9  1  0
  7  8  1  6
  9 10  2  0
 11 12  1  0
 13 14  1  0
 14 15  2  0
 15 16  1  0
 17 18  1  0
 17 16  2  0
 19 18  1  1
 19 21  1  0
 20 19  1  0
 20  9  1  0
 21 22  2  0
 21 25  1  0
 23 17  1  0
 24 14  1  0
 24 23  2  0
 25 26  1  0
 26 27  1  6
 27 28  1  0
 28 29  2  0
 30 29  1  0
 31 30  1  0
 32 31  2  0
 33 32  1  0
 34 33  2  0
 34 35  1  0
 35 36  2  0
 36 31  1  0
 36 28  1  0
 37 26  1  0
 37 39  1  0
 38 37  2  0
M  END
$$$$
