YYW.pdb
     RDKit          3D

 39 42  0  0  1  0  0  0  0  0999 V2000
   18.2468  -19.5134  -17.4305 O   0  0  0  0  0  0  0  0  0  0  0  0
   19.3816  -20.1615  -16.9634 C   0  0  0  0  0  0  0  0  0  0  0  0
   20.0470  -19.6333  -15.8636 C   0  0  0  0  0  0  0  0  0  0  0  0
   21.1717  -20.2627  -15.3886 C   0  0  0  0  0  0  0  0  0  0  0  0
   21.6083  -21.4153  -16.0302 C   0  0  0  0  0  0  0  0  0  0  0  0
   22.8098  -22.1073  -15.5416 C   0  0  0  0  0  0  0  0  0  0  0  0
   24.0394  -21.4296  -16.1097 C   0  0  2  0  0  0  0  0  0  0  0  0
   24.4805  -22.0724  -17.3308 N   0  0  0  0  0  0  0  0  0  0  0  0
   25.0910  -21.4930  -15.0651 C   0  0  0  0  0  0  0  0  0  0  0  0
   25.8399  -22.4905  -14.9376 O   0  0  0  0  0  0  0  0  0  0  0  0
   20.9382  -21.9326  -17.1243 C   0  0  0  0  0  0  0  0  0  0  0  0
   19.8180  -21.2951  -17.5877 C   0  0  0  0  0  0  0  0  0  0  0  0
   29.7428  -17.9936  -17.9260 O   0  0  0  0  0  0  0  0  0  0  0  0
   29.0683  -18.2491  -16.7457 C   0  0  0  0  0  0  0  0  0  0  0  0
   29.5867  -19.1752  -15.8595 C   0  0  0  0  0  0  0  0  0  0  0  0
   28.8919  -19.4158  -14.6801 C   0  0  0  0  0  0  0  0  0  0  0  0
   27.7184  -18.7719  -14.3659 C   0  0  0  0  0  0  0  0  0  0  0  0
   26.9806  -19.0323  -13.1079 C   0  0  0  0  0  0  0  0  0  0  0  0
   26.2469  -20.3540  -13.1722 C   0  0  2  0  0  0  0  0  0  0  0  0
   25.2403  -20.3818  -14.1921 N   0  0  0  0  0  0  0  0  0  0  0  0
   25.6622  -20.6004  -11.8119 C   0  0  0  0  0  0  0  0  0  0  0  0
   24.4921  -20.2277  -11.5358 O   0  0  0  0  0  0  0  0  0  0  0  0
   27.2269  -17.8448  -15.2845 C   0  0  0  0  0  0  0  0  0  0  0  0
   27.8957  -17.5942  -16.4501 C   0  0  0  0  0  0  0  0  0  0  0  0
   26.3910  -21.2542  -10.7920 N   0  0  0  0  0  0  0  0  0  0  0  0
   25.9375  -21.4005   -9.4219 C   0  0  1  0  0  0  0  0  0  0  0  0
   27.1783  -21.7314   -8.5982 C   0  0  0  0  0  0  0  0  0  0  0  0
   27.1805  -21.0507   -7.3024 C   0  0  0  0  0  0  0  0  0  0  0  0
   26.0955  -20.7424   -6.5226 C   0  0  0  0  0  0  0  0  0  0  0  0
   26.5299  -20.1198   -5.4122 N   0  0  0  0  0  0  0  0  0  0  0  0
   27.8740  -20.0060   -5.4329 C   0  0  0  0  0  0  0  0  0  0  0  0
   28.8201  -19.4814   -4.5997 C   0  0  0  0  0  0  0  0  0  0  0  0
   30.1491  -19.5367   -4.9399 C   0  0  0  0  0  0  0  0  0  0  0  0
   30.5757  -20.1148   -6.1175 C   0  0  0  0  0  0  0  0  0  0  0  0
   29.6327  -20.6460   -6.9641 C   0  0  0  0  0  0  0  0  0  0  0  0
   28.2847  -20.5926   -6.6241 C   0  0  0  0  0  0  0  0  0  0  0  0
   25.2429  -20.2183   -8.9222 C   0  0  0  0  0  0  0  0  0  0  0  0
   25.7762  -19.0921   -8.9815 O   0  0  0  0  0  0  0  0  0  0  0  0
   23.9823  -20.3307   -8.3755 O   0  0  0  0  0  0  0  0  0  0  0  0
  2 12  2  0
  2  1  1  0
  3  2  1  0
  4  5  1  0
  4  3  2  0
  5 11  2  0
  6  5  1  0
  6  7  1  0
  7  9  1  0
  7  8  1  6
  9 10  2  0
 11 12  1  0
 13 14  1  0
 14 15  2  0
 15 16  1  0
 17 18  1  0
 17 16  2  0
 19 18  1  1
 19 21  1  0
 20 19  1  0
 20  9  1  0
 21 22  2  0
 21 25  1  0
 23 17  1  0
 24 14  1  0
 24 23  2  0
 25 26  1  0
 26 27  1  1
 27 28  1  0
 28 29  2  0
 30 29  1  0
 31 30  1  0
 32 31  2  0
 33 32  1  0
 34 33  2  0
 34 35  1  0
 35 36  2  0
 36 31  1  0
 36 28  1  0
 37 26  1  0
 37 39  1  0
 38 37  2  0
M  END
$$$$
