YYW.pdb
     RDKit          3D

 39 42  0  0  1  0  0  0  0  0999 V2000
   16.8667  -16.1888  -14.3850 O   0  0  0  0  0  0  0  0  0  0  0  0
   17.7274  -17.2101  -14.0083 C   0  0  0  0  0  0  0  0  0  0  0  0
   17.3864  -18.5202  -14.3224 C   0  0  0  0  0  0  0  0  0  0  0  0
   18.2275  -19.5429  -13.9568 C   0  0  0  0  0  0  0  0  0  0  0  0
   19.3996  -19.2287  -13.2800 C   0  0  0  0  0  0  0  0  0  0  0  0
   20.3162  -20.3051  -12.8773 C   0  0  0  0  0  0  0  0  0  0  0  0
   21.3365  -20.5258  -13.9747 C   0  0  2  0  0  0  0  0  0  0  0  0
   20.7676  -21.2628  -15.0848 N   0  0  0  0  0  0  0  0  0  0  0  0
   22.4707  -21.2665  -13.3697 C   0  0  0  0  0  0  0  0  0  0  0  0
   22.3055  -22.3492  -12.7592 O   0  0  0  0  0  0  0  0  0  0  0  0
   19.7292  -17.9209  -12.9724 C   0  0  0  0  0  0  0  0  0  0  0  0
   18.8817  -16.9107  -13.3428 C   0  0  0  0  0  0  0  0  0  0  0  0
   24.1089  -25.7099  -17.4803 O   0  0  0  0  0  0  0  0  0  0  0  0
   24.5662  -24.7330  -16.6144 C   0  0  0  0  0  0  0  0  0  0  0  0
   25.0657  -25.1057  -15.3802 C   0  0  0  0  0  0  0  0  0  0  0  0
   25.5195  -24.1072  -14.5267 C   0  0  0  0  0  0  0  0  0  0  0  0
   25.4898  -22.7742  -14.8625 C   0  0  0  0  0  0  0  0  0  0  0  0
   25.9737  -21.7129  -13.9490 C   0  0  0  0  0  0  0  0  0  0  0  0
   24.9214  -21.3603  -12.9206 C   0  0  2  0  0  0  0  0  0  0  0  0
   23.7757  -20.7187  -13.4952 N   0  0  0  0  0  0  0  0  0  0  0  0
   25.5840  -20.4905  -11.8922 C   0  0  0  0  0  0  0  0  0  0  0  0
   25.8097  -19.2743  -12.1250 O   0  0  0  0  0  0  0  0  0  0  0  0
   24.9790  -22.4372  -16.1157 C   0  0  0  0  0  0  0  0  0  0  0  0
   24.5278  -23.4048  -16.9694 C   0  0  0  0  0  0  0  0  0  0  0  0
   25.9795  -20.9925  -10.6312 N   0  0  0  0  0  0  0  0  0  0  0  0
   26.7651  -20.2532   -9.6614 C   0  0  1  0  0  0  0  0  0  0  0  0
   26.4456  -20.8666   -8.3016 C   0  0  0  0  0  0  0  0  0  0  0  0
   27.1463  -20.1886   -7.2098 C   0  0  0  0  0  0  0  0  0  0  0  0
   26.7117  -19.1077   -6.4866 C   0  0  0  0  0  0  0  0  0  0  0  0
   27.6524  -18.7953   -5.5772 N   0  0  0  0  0  0  0  0  0  0  0  0
   28.7002  -19.6392   -5.6766 C   0  0  0  0  0  0  0  0  0  0  0  0
   29.8946  -19.7892   -5.0320 C   0  0  0  0  0  0  0  0  0  0  0  0
   30.7583  -20.7911   -5.3997 C   0  0  0  0  0  0  0  0  0  0  0  0
   30.4597  -21.6723   -6.4181 C   0  0  0  0  0  0  0  0  0  0  0  0
   29.2606  -21.5313   -7.0742 C   0  0  0  0  0  0  0  0  0  0  0  0
   28.3819  -20.5176   -6.7055 C   0  0  0  0  0  0  0  0  0  0  0  0
   28.1950  -20.2723   -9.9528 C   0  0  0  0  0  0  0  0  0  0  0  0
   28.7364  -21.2920  -10.4256 O   0  0  0  0  0  0  0  0  0  0  0  0
   28.9701  -19.1587   -9.7084 O   0  0  0  0  0  0  0  0  0  0  0  0
  2 12  2  0
  2  1  1  0
  3  2  1  0
  4  5  1  0
  4  3  2  0
  5 11  2  0
  6  5  1  0
  6  7  1  0
  7  9  1  0
  7  8  1  6
  9 10  2  0
 11 12  1  0
 13 14  1  0
 14 15  2  0
 15 16  1  0
 17 18  1  0
 17 16  2  0
 19 18  1  6
 19 21  1  0
 20 19  1  0
 20  9  1  0
 21 22  2  0
 21 25  1  0
 23 17  1  0
 24 14  1  0
 24 23  2  0
 25 26  1  0
 26 27  1  1
 27 28  1  0
 28 29  2  0
 30 29  1  0
 31 30  1  0
 32 31  2  0
 33 32  1  0
 34 33  2  0
 34 35  1  0
 35 36  2  0
 36 31  1  0
 36 28  1  0
 37 26  1  0
 37 39  1  0
 38 37  2  0
M  END
$$$$
