YYW.pdb
     RDKit          3D

 39 42  0  0  1  0  0  0  0  0999 V2000
   25.3807  -15.4547  -21.2726 O   0  0  0  0  0  0  0  0  0  0  0  0
   24.7137  -16.2634  -20.3631 C   0  0  0  0  0  0  0  0  0  0  0  0
   24.7996  -15.9580  -19.0101 C   0  0  0  0  0  0  0  0  0  0  0  0
   24.1453  -16.7483  -18.0967 C   0  0  0  0  0  0  0  0  0  0  0  0
   23.4144  -17.8346  -18.5619 C   0  0  0  0  0  0  0  0  0  0  0  0
   22.7056  -18.6961  -17.6047 C   0  0  0  0  0  0  0  0  0  0  0  0
   23.6831  -19.6891  -17.0110 C   0  0  2  0  0  0  0  0  0  0  0  0
   24.1455  -20.6350  -18.0062 N   0  0  0  0  0  0  0  0  0  0  0  0
   22.9787  -20.3824  -15.9046 C   0  0  0  0  0  0  0  0  0  0  0  0
   22.2928  -21.4140  -16.0985 O   0  0  0  0  0  0  0  0  0  0  0  0
   23.3357  -18.1295  -19.9111 C   0  0  0  0  0  0  0  0  0  0  0  0
   23.9929  -17.3333  -20.8113 C   0  0  0  0  0  0  0  0  0  0  0  0
   20.3127  -22.3814   -7.7872 O   0  0  0  0  0  0  0  0  0  0  0  0
   20.9691  -21.7970   -8.8553 C   0  0  0  0  0  0  0  0  0  0  0  0
   20.5478  -22.0786  -10.1417 C   0  0  0  0  0  0  0  0  0  0  0  0
   21.2222  -21.4801  -11.1993 C   0  0  0  0  0  0  0  0  0  0  0  0
   22.2836  -20.6259  -11.0140 C   0  0  0  0  0  0  0  0  0  0  0  0
   23.0003  -19.9909  -12.1444 C   0  0  0  0  0  0  0  0  0  0  0  0
   22.4392  -20.4529  -13.4714 C   0  0  2  0  0  0  0  0  0  0  0  0
   23.0957  -19.8485  -14.5931 N   0  0  0  0  0  0  0  0  0  0  0  0
   20.9700  -20.1457  -13.4598 C   0  0  0  0  0  0  0  0  0  0  0  0
   20.5554  -18.9875  -13.1932 O   0  0  0  0  0  0  0  0  0  0  0  0
   22.6794  -20.3662   -9.7022 C   0  0  0  0  0  0  0  0  0  0  0  0
   22.0288  -20.9451   -8.6485 C   0  0  0  0  0  0  0  0  0  0  0  0
   19.9977  -21.1318  -13.7443 N   0  0  0  0  0  0  0  0  0  0  0  0
   18.5647  -20.9176  -13.6753 C   0  0  1  0  0  0  0  0  0  0  0  0
   18.0892  -20.7670  -15.1171 C   0  0  0  0  0  0  0  0  0  0  0  0
   16.6666  -20.4322  -15.1990 C   0  0  0  0  0  0  0  0  0  0  0  0
   16.0631  -19.2636  -14.8111 C   0  0  0  0  0  0  0  0  0  0  0  0
   14.7441  -19.3615  -15.0560 N   0  0  0  0  0  0  0  0  0  0  0  0
   14.4547  -20.5635  -15.5960 C   0  0  0  0  0  0  0  0  0  0  0  0
   13.3210  -21.1890  -16.0297 C   0  0  0  0  0  0  0  0  0  0  0  0
   13.3857  -22.4605  -16.5435 C   0  0  0  0  0  0  0  0  0  0  0  0
   14.5785  -23.1465  -16.6412 C   0  0  0  0  0  0  0  0  0  0  0  0
   15.7261  -22.5273  -16.2079 C   0  0  0  0  0  0  0  0  0  0  0  0
   15.6660  -21.2388  -15.6864 C   0  0  0  0  0  0  0  0  0  0  0  0
   17.8620  -21.9857  -12.9715 C   0  0  0  0  0  0  0  0  0  0  0  0
   18.1856  -23.1792  -13.1364 O   0  0  0  0  0  0  0  0  0  0  0  0
   16.8265  -21.6887  -12.1112 O   0  0  0  0  0  0  0  0  0  0  0  0
  2 12  2  0
  2  1  1  0
  3  2  1  0
  4  5  1  0
  4  3  2  0
  5 11  2  0
  6  5  1  0
  6  7  1  0
  7  9  1  0
  7  8  1  6
  9 10  2  0
 11 12  1  0
 13 14  1  0
 14 15  2  0
 15 16  1  0
 17 18  1  0
 17 16  2  0
 19 18  1  1
 19 21  1  0
 20 19  1  0
 20  9  1  0
 21 22  2  0
 21 25  1  0
 23 17  1  0
 24 14  1  0
 24 23  2  0
 25 26  1  0
 26 27  1  6
 27 28  1  0
 28 29  2  0
 30 29  1  0
 31 30  1  0
 32 31  2  0
 33 32  1  0
 34 33  2  0
 34 35  1  0
 35 36  2  0
 36 31  1  0
 36 28  1  0
 37 26  1  0
 37 39  1  0
 38 37  2  0
M  END
$$$$
