ELH.pdb
     RDKit          3D

 28 28  0  0  1  0  0  0  0  0999 V2000
   10.0680  -16.2446   14.3039 N   0  0  0  0  0  0  0  0  0  0  0  0
    9.6180  -16.7871   15.5545 C   0  0  1  0  0  0  0  0  0  0  0  0
    9.9310  -18.2159   15.8074 C   0  0  0  0  0  0  0  0  0  0  0  0
   11.2554  -18.6804   15.3493 C   0  0  0  0  0  0  0  0  0  0  0  0
   12.1119  -19.3675   16.3152 C   0  0  0  0  0  0  0  0  0  0  0  0
   11.6874  -20.1161   17.2057 O   0  0  0  0  0  0  0  0  0  0  0  0
   10.1648  -15.8996   16.6348 C   0  0  0  0  0  0  0  0  0  0  0  0
   11.2574  -15.3336   16.4874 O   0  0  0  0  0  0  0  0  0  0  0  0
   13.5009  -19.1816   16.2480 O   0  0  0  0  0  0  0  0  0  0  0  0
    8.0853  -12.3801   18.7835 C   0  0  0  0  0  0  0  0  0  0  0  0
    7.6065  -13.7708   19.1361 C   0  0  2  0  0  0  0  0  0  0  0  0
    6.4940  -13.5949   20.1652 C   0  0  0  0  0  0  0  0  0  0  0  0
    8.7216  -14.5522   19.8411 C   0  0  0  0  0  0  0  0  0  0  0  0
    9.7976  -14.9426   18.8969 C   0  0  2  0  0  0  0  0  0  0  0  0
    9.3894  -15.7465   17.7974 N   0  0  0  0  0  0  0  0  0  0  0  0
   11.0234  -15.4967   19.5821 C   0  0  0  0  0  0  0  0  0  0  0  0
   11.1800  -16.7145   19.8387 O   0  0  0  0  0  0  0  0  0  0  0  0
   12.0862  -14.6419   19.9793 N   0  0  0  0  0  0  0  0  0  0  0  0
   13.3627  -15.1610   20.4921 C   0  0  1  0  0  0  0  0  0  0  0  0
   14.4228  -14.1157   20.4642 C   0  0  0  0  0  0  0  0  0  0  0  0
   15.7366  -14.7174   20.7703 C   0  0  0  0  0  0  0  0  0  0  0  0
   15.9930  -16.0873   20.8145 C   0  0  0  0  0  0  0  0  0  0  0  0
   17.2840  -16.3041   21.1209 N   0  0  0  0  0  0  0  0  0  0  0  0
   17.8458  -15.0874   21.2708 C   0  0  0  0  0  0  0  0  0  0  0  0
   16.9175  -14.1477   21.0603 N   0  0  0  0  0  0  0  0  0  0  0  0
   13.1554  -15.6704   21.8657 C   0  0  0  0  0  0  0  0  0  0  0  0
   11.8689  -15.6508   22.4237 O   0  0  0  0  0  0  0  0  0  0  0  0
   14.0667  -16.1258   22.5766 O   0  0  0  0  0  0  0  0  0  0  0  0
  2  3  1  0
  2  1  1  6
  4  3  1  0
  4  5  1  0
  5  6  2  0
  7  2  1  0
  8  7  2  0
  9  5  1  0
 11 10  1  1
 12 11  1  0
 13 11  1  0
 14 13  1  1
 14 15  1  0
 15  7  1  0
 16 17  2  0
 16 14  1  0
 18 16  1  0
 19 18  1  0
 19 20  1  1
 21 20  1  0
 22 21  2  0
 23 24  1  0
 23 22  1  0
 24 25  2  0
 25 21  1  0
 26 19  1  0
 27 26  1  0
 28 26  2  0
M  END
$$$$
