ELH.pdb
     RDKit          3D

 28 28  0  0  1  0  0  0  0  0999 V2000
    8.1570  -14.0098   20.4630 N   0  0  0  0  0  0  0  0  0  0  0  0
    7.3668  -14.7293   21.4214 C   0  0  1  0  0  0  0  0  0  0  0  0
    6.9925  -16.1198   21.0607 C   0  0  0  0  0  0  0  0  0  0  0  0
    8.1006  -17.0022   20.6447 C   0  0  0  0  0  0  0  0  0  0  0  0
    7.7672  -18.3506   20.1868 C   0  0  0  0  0  0  0  0  0  0  0  0
    8.6099  -19.2043   19.8793 O   0  0  0  0  0  0  0  0  0  0  0  0
    8.1093  -14.6749   22.7250 C   0  0  0  0  0  0  0  0  0  0  0  0
    9.3479  -14.6342   22.7393 O   0  0  0  0  0  0  0  0  0  0  0  0
    6.4180  -18.7206   20.0814 O   0  0  0  0  0  0  0  0  0  0  0  0
    7.8450  -11.7368   26.1963 C   0  0  0  0  0  0  0  0  0  0  0  0
    6.6645  -12.6608   25.9957 C   0  0  2  0  0  0  0  0  0  0  0  0
    5.6397  -12.2874   27.0623 C   0  0  0  0  0  0  0  0  0  0  0  0
    7.0719  -14.1108   26.2829 C   0  0  0  0  0  0  0  0  0  0  0  0
    7.9240  -14.6644   25.2016 C   0  0  2  0  0  0  0  0  0  0  0  0
    7.3432  -14.6720   23.9037 N   0  0  0  0  0  0  0  0  0  0  0  0
    8.5486  -15.9932   25.5526 C   0  0  0  0  0  0  0  0  0  0  0  0
    7.8954  -17.0598   25.6476 O   0  0  0  0  0  0  0  0  0  0  0  0
    9.9436  -16.1013   25.7984 N   0  0  0  0  0  0  0  0  0  0  0  0
   10.5532  -17.3231   26.3437 C   0  0  1  0  0  0  0  0  0  0  0  0
   11.9695  -17.4637   25.9055 C   0  0  0  0  0  0  0  0  0  0  0  0
   12.0309  -17.6577   24.4425 C   0  0  0  0  0  0  0  0  0  0  0  0
   10.9440  -18.0018   23.6396 C   0  0  0  0  0  0  0  0  0  0  0  0
   11.3332  -18.1018   22.3566 N   0  0  0  0  0  0  0  0  0  0  0  0
   12.6530  -17.8250   22.3399 C   0  0  0  0  0  0  0  0  0  0  0  0
   13.0608  -17.5615   23.5862 N   0  0  0  0  0  0  0  0  0  0  0  0
   10.4550  -17.2898   27.8196 C   0  0  0  0  0  0  0  0  0  0  0  0
   10.9361  -18.3731   28.5693 O   0  0  0  0  0  0  0  0  0  0  0  0
    9.9626  -16.3435   28.4563 O   0  0  0  0  0  0  0  0  0  0  0  0
  2  3  1  0
  2  1  1  6
  4  3  1  0
  4  5  1  0
  5  6  2  0
  7  2  1  0
  8  7  2  0
  9  5  1  0
 11 10  1  1
 12 11  1  0
 13 11  1  0
 14 13  1  1
 14 15  1  0
 15  7  1  0
 16 17  2  0
 16 14  1  0
 18 16  1  0
 19 18  1  0
 19 20  1  1
 21 20  1  0
 22 21  2  0
 23 24  1  0
 23 22  1  0
 24 25  2  0
 25 21  1  0
 26 19  1  0
 27 26  1  0
 28 26  2  0
M  END
$$$$
