ELH.pdb
     RDKit          3D

 28 28  0  0  1  0  0  0  0  0999 V2000
    8.8470  -17.6108   17.3571 N   0  0  0  0  0  0  0  0  0  0  0  0
   10.2524  -17.5821   17.6488 C   0  0  1  0  0  0  0  0  0  0  0  0
   11.1521  -17.1922   16.5343 C   0  0  0  0  0  0  0  0  0  0  0  0
   10.5750  -17.2699   15.1777 C   0  0  0  0  0  0  0  0  0  0  0  0
   11.4162  -16.8660   14.0516 C   0  0  0  0  0  0  0  0  0  0  0  0
   11.0476  -16.0958   13.1547 O   0  0  0  0  0  0  0  0  0  0  0  0
   10.4299  -16.6902   18.8432 C   0  0  0  0  0  0  0  0  0  0  0  0
   11.5658  -16.3902   19.2378 O   0  0  0  0  0  0  0  0  0  0  0  0
   12.7226  -17.3696   13.9615 O   0  0  0  0  0  0  0  0  0  0  0  0
    9.1232  -12.6050   19.4614 C   0  0  0  0  0  0  0  0  0  0  0  0
    7.9774  -13.5862   19.5702 C   0  0  2  0  0  0  0  0  0  0  0  0
    6.7223  -12.7561   19.8214 C   0  0  0  0  0  0  0  0  0  0  0  0
    8.1568  -14.4752   20.8065 C   0  0  0  0  0  0  0  0  0  0  0  0
    9.2954  -15.4130   20.6459 C   0  0  2  0  0  0  0  0  0  0  0  0
    9.2656  -16.2222   19.4771 N   0  0  0  0  0  0  0  0  0  0  0  0
    9.5866  -16.2196   21.8883 C   0  0  0  0  0  0  0  0  0  0  0  0
    8.7674  -17.0200   22.3998 O   0  0  0  0  0  0  0  0  0  0  0  0
   10.8360  -16.1071   22.5549 N   0  0  0  0  0  0  0  0  0  0  0  0
   11.1322  -16.8350   23.7976 C   0  0  1  0  0  0  0  0  0  0  0  0
   12.5621  -17.2466   23.8564 C   0  0  0  0  0  0  0  0  0  0  0  0
   12.8398  -18.2647   22.8228 C   0  0  0  0  0  0  0  0  0  0  0  0
   11.9662  -19.2895   22.4610 C   0  0  0  0  0  0  0  0  0  0  0  0
   12.5170  -20.0436   21.4938 N   0  0  0  0  0  0  0  0  0  0  0  0
   13.7281  -19.5071   21.2406 C   0  0  0  0  0  0  0  0  0  0  0  0
   13.9127  -18.4480   22.0363 N   0  0  0  0  0  0  0  0  0  0  0  0
   10.7787  -15.9779   24.9506 C   0  0  0  0  0  0  0  0  0  0  0  0
   10.9484  -16.4674   26.2539 O   0  0  0  0  0  0  0  0  0  0  0  0
   10.3300  -14.8247   24.8400 O   0  0  0  0  0  0  0  0  0  0  0  0
  2  3  1  0
  2  1  1  6
  4  3  1  0
  4  5  1  0
  5  6  2  0
  7  2  1  0
  8  7  2  0
  9  5  1  0
 11 10  1  1
 12 11  1  0
 13 11  1  0
 14 13  1  1
 14 15  1  0
 15  7  1  0
 16 17  2  0
 16 14  1  0
 18 16  1  0
 19 18  1  0
 19 20  1  1
 21 20  1  0
 22 21  2  0
 23 24  1  0
 23 22  1  0
 24 25  2  0
 25 21  1  0
 26 19  1  0
 27 26  1  0
 28 26  2  0
M  END
$$$$
