ELH.pdb
     RDKit          3D

 28 28  0  0  1  0  0  0  0  0999 V2000
    8.1893  -16.9912   21.6762 N   0  0  0  0  0  0  0  0  0  0  0  0
    9.5631  -17.0579   22.0876 C   0  0  1  0  0  0  0  0  0  0  0  0
   10.5821  -16.8342   21.0315 C   0  0  0  0  0  0  0  0  0  0  0  0
   10.5535  -17.7741   19.8934 C   0  0  0  0  0  0  0  0  0  0  0  0
   11.5733  -17.6243   18.8559 C   0  0  0  0  0  0  0  0  0  0  0  0
   11.3463  -17.7303   17.6432 O   0  0  0  0  0  0  0  0  0  0  0  0
    9.7229  -16.0928   23.2262 C   0  0  0  0  0  0  0  0  0  0  0  0
   10.8522  -15.7351   23.5906 O   0  0  0  0  0  0  0  0  0  0  0  0
   12.8949  -17.3441   19.2344 O   0  0  0  0  0  0  0  0  0  0  0  0
    6.1121  -12.5974   26.8914 C   0  0  0  0  0  0  0  0  0  0  0  0
    7.4767  -13.0631   26.4348 C   0  0  2  0  0  0  0  0  0  0  0  0
    8.2216  -11.8173   25.9651 C   0  0  0  0  0  0  0  0  0  0  0  0
    7.3431  -13.9702   25.2059 C   0  0  0  0  0  0  0  0  0  0  0  0
    8.5647  -14.7848   24.9914 C   0  0  2  0  0  0  0  0  0  0  0  0
    8.5501  -15.6251   23.8444 N   0  0  0  0  0  0  0  0  0  0  0  0
    9.0189  -15.5202   26.2291 C   0  0  0  0  0  0  0  0  0  0  0  0
    8.2661  -16.2574   26.9097 O   0  0  0  0  0  0  0  0  0  0  0  0
   10.3567  -15.4091   26.6939 N   0  0  0  0  0  0  0  0  0  0  0  0
   10.8330  -16.1133   27.8935 C   0  0  1  0  0  0  0  0  0  0  0  0
   12.2530  -16.5364   27.7451 C   0  0  0  0  0  0  0  0  0  0  0  0
   12.3355  -17.7514   26.9092 C   0  0  0  0  0  0  0  0  0  0  0  0
   11.2376  -18.4278   26.3786 C   0  0  0  0  0  0  0  0  0  0  0  0
   11.6518  -19.4911   25.6678 N   0  0  0  0  0  0  0  0  0  0  0  0
   12.9982  -19.4944   25.7434 C   0  0  0  0  0  0  0  0  0  0  0  0
   13.3975  -18.4550   26.4845 N   0  0  0  0  0  0  0  0  0  0  0  0
   10.6625  -15.2289   29.0673 C   0  0  0  0  0  0  0  0  0  0  0  0
   10.2856  -13.8916   28.8766 O   0  0  0  0  0  0  0  0  0  0  0  0
   10.8351  -15.5998   30.2404 O   0  0  0  0  0  0  0  0  0  0  0  0
  2  3  1  0
  2  1  1  6
  4  3  1  0
  4  5  1  0
  5  6  2  0
  7  2  1  0
  8  7  2  0
  9  5  1  0
 11 10  1  6
 12 11  1  0
 13 11  1  0
 14 13  1  1
 14 15  1  0
 15  7  1  0
 16 17  2  0
 16 14  1  0
 18 16  1  0
 19 18  1  0
 19 20  1  6
 21 20  1  0
 22 21  2  0
 23 24  1  0
 23 22  1  0
 24 25  2  0
 25 21  1  0
 26 19  1  0
 27 26  1  0
 28 26  2  0
M  END
$$$$
