ELH.pdb
     RDKit          3D

 28 28  0  0  1  0  0  0  0  0999 V2000
   12.1706  -16.4181   16.9487 N   0  0  0  0  0  0  0  0  0  0  0  0
   11.0747  -16.8659   17.7608 C   0  0  1  0  0  0  0  0  0  0  0  0
   11.0600  -18.3070   18.1168 C   0  0  0  0  0  0  0  0  0  0  0  0
   12.1937  -18.7849   18.9328 C   0  0  0  0  0  0  0  0  0  0  0  0
   12.2399  -20.2060   19.2752 C   0  0  0  0  0  0  0  0  0  0  0  0
   13.1513  -20.7300   19.9295 O   0  0  0  0  0  0  0  0  0  0  0  0
   11.0536  -15.9926   18.9817 C   0  0  0  0  0  0  0  0  0  0  0  0
   12.1139  -15.6064   19.4941 O   0  0  0  0  0  0  0  0  0  0  0  0
   11.2000  -21.0446   18.8466 O   0  0  0  0  0  0  0  0  0  0  0  0
    8.5019  -12.1897   19.3828 C   0  0  0  0  0  0  0  0  0  0  0  0
    7.7522  -13.4906   19.5643 C   0  0  2  0  0  0  0  0  0  0  0  0
    6.3033  -13.1148   19.8591 C   0  0  0  0  0  0  0  0  0  0  0  0
    8.2641  -14.2281   20.8073 C   0  0  0  0  0  0  0  0  0  0  0  0
    9.6351  -14.7577   20.6037 C   0  0  2  0  0  0  0  0  0  0  0  0
    9.7955  -15.6425   19.5022 N   0  0  0  0  0  0  0  0  0  0  0  0
   10.2603  -15.3018   21.8655 C   0  0  0  0  0  0  0  0  0  0  0  0
   10.2700  -14.6803   22.9550 O   0  0  0  0  0  0  0  0  0  0  0  0
   10.8841  -16.5781   21.8789 N   0  0  0  0  0  0  0  0  0  0  0  0
   11.3605  -17.2071   23.1196 C   0  0  1  0  0  0  0  0  0  0  0  0
   10.9393  -18.6331   23.2002 C   0  0  0  0  0  0  0  0  0  0  0  0
   11.4793  -19.2528   24.4274 C   0  0  0  0  0  0  0  0  0  0  0  0
   12.2079  -18.5767   25.4054 C   0  0  0  0  0  0  0  0  0  0  0  0
   12.5531  -19.4244   26.3902 N   0  0  0  0  0  0  0  0  0  0  0  0
   12.0512  -20.6277   26.0456 C   0  0  0  0  0  0  0  0  0  0  0  0
   11.4131  -20.5170   24.8754 N   0  0  0  0  0  0  0  0  0  0  0  0
   12.8336  -17.0842   23.1837 C   0  0  0  0  0  0  0  0  0  0  0  0
   13.5044  -17.4180   24.3692 O   0  0  0  0  0  0  0  0  0  0  0  0
   13.5346  -16.6954   22.2346 O   0  0  0  0  0  0  0  0  0  0  0  0
  2  3  1  0
  2  1  1  1
  4  3  1  0
  4  5  1  0
  5  6  2  0
  7  2  1  0
  8  7  2  0
  9  5  1  0
 11 10  1  1
 12 11  1  0
 13 11  1  0
 14 13  1  1
 14 15  1  0
 15  7  1  0
 16 17  2  0
 16 14  1  0
 18 16  1  0
 19 18  1  0
 19 20  1  6
 21 20  1  0
 22 21  2  0
 23 24  1  0
 23 22  1  0
 24 25  2  0
 25 21  1  0
 26 19  1  0
 27 26  1  0
 28 26  2  0
M  END
$$$$
