ELH.pdb
     RDKit          3D

 28 28  0  0  1  0  0  0  0  0999 V2000
    9.9115  -17.8016   18.0585 N   0  0  0  0  0  0  0  0  0  0  0  0
   11.1372  -17.0548   18.0285 C   0  0  1  0  0  0  0  0  0  0  0  0
   11.5366  -16.4905   16.7149 C   0  0  0  0  0  0  0  0  0  0  0  0
   11.7220  -17.4638   15.6204 C   0  0  0  0  0  0  0  0  0  0  0  0
   12.9078  -17.3265   14.7755 C   0  0  0  0  0  0  0  0  0  0  0  0
   13.8799  -16.6138   15.0591 O   0  0  0  0  0  0  0  0  0  0  0  0
   11.0218  -15.9884   19.0787 C   0  0  0  0  0  0  0  0  0  0  0  0
   12.0073  -15.3026   19.3861 O   0  0  0  0  0  0  0  0  0  0  0  0
   12.9691  -18.0354   13.5663 O   0  0  0  0  0  0  0  0  0  0  0  0
    8.9758  -12.1543   19.2153 C   0  0  0  0  0  0  0  0  0  0  0  0
    8.0560  -13.3549   19.2133 C   0  0  2  0  0  0  0  0  0  0  0  0
    6.6327  -12.8066   19.1815 C   0  0  0  0  0  0  0  0  0  0  0  0
    8.1880  -14.1256   20.5323 C   0  0  0  0  0  0  0  0  0  0  0  0
    9.5066  -14.7966   20.6446 C   0  0  2  0  0  0  0  0  0  0  0  0
    9.7645  -15.8111   19.6821 N   0  0  0  0  0  0  0  0  0  0  0  0
    9.8307  -15.2489   22.0479 C   0  0  0  0  0  0  0  0  0  0  0  0
    8.9611  -15.4270   22.9342 O   0  0  0  0  0  0  0  0  0  0  0  0
   11.1721  -15.5011   22.4416 N   0  0  0  0  0  0  0  0  0  0  0  0
   11.5348  -16.6182   23.3262 C   0  0  1  0  0  0  0  0  0  0  0  0
   11.0592  -17.9189   22.7789 C   0  0  0  0  0  0  0  0  0  0  0  0
   11.4885  -19.0261   23.6573 C   0  0  0  0  0  0  0  0  0  0  0  0
   12.1616  -18.8656   24.8680 C   0  0  0  0  0  0  0  0  0  0  0  0
   12.4081  -20.0665   25.4200 N   0  0  0  0  0  0  0  0  0  0  0  0
   11.8990  -20.9833   24.5722 C   0  0  0  0  0  0  0  0  0  0  0  0
   11.3530  -20.3555   23.5249 N   0  0  0  0  0  0  0  0  0  0  0  0
   13.0028  -16.6252   23.5114 C   0  0  0  0  0  0  0  0  0  0  0  0
   13.7910  -15.6905   22.8243 O   0  0  0  0  0  0  0  0  0  0  0  0
   13.6000  -17.4232   24.2530 O   0  0  0  0  0  0  0  0  0  0  0  0
  2  3  1  0
  2  1  1  6
  4  3  1  0
  4  5  1  0
  5  6  2  0
  7  2  1  0
  8  7  2  0
  9  5  1  0
 11 10  1  1
 12 11  1  0
 13 11  1  0
 14 13  1  1
 14 15  1  0
 15  7  1  0
 16 17  2  0
 16 14  1  0
 18 16  1  0
 19 18  1  0
 19 20  1  6
 21 20  1  0
 22 21  2  0
 23 24  1  0
 23 22  1  0
 24 25  2  0
 25 21  1  0
 26 19  1  0
 27 26  1  0
 28 26  2  0
M  END
$$$$
