ELH.pdb
     RDKit          3D

 28 28  0  0  1  0  0  0  0  0999 V2000
    9.7407  -16.5486   20.9388 N   0  0  0  0  0  0  0  0  0  0  0  0
    8.7382  -16.7657   21.9432 C   0  0  1  0  0  0  0  0  0  0  0  0
    8.5485  -18.1661   22.3975 C   0  0  0  0  0  0  0  0  0  0  0  0
    9.3568  -19.1880   21.7033 C   0  0  0  0  0  0  0  0  0  0  0  0
    9.1574  -20.5881   22.0760 C   0  0  0  0  0  0  0  0  0  0  0  0
    8.4557  -21.3811   21.4340 O   0  0  0  0  0  0  0  0  0  0  0  0
    9.0645  -15.8504   23.0875 C   0  0  0  0  0  0  0  0  0  0  0  0
   10.2434  -15.5759   23.3536 O   0  0  0  0  0  0  0  0  0  0  0  0
    9.7890  -21.0839   23.2265 O   0  0  0  0  0  0  0  0  0  0  0  0
    6.0565  -12.2584   27.1982 C   0  0  0  0  0  0  0  0  0  0  0  0
    7.3168  -12.9081   26.6716 C   0  0  2  0  0  0  0  0  0  0  0  0
    8.2207  -11.7736   26.1990 C   0  0  0  0  0  0  0  0  0  0  0  0
    7.0001  -13.7486   25.4289 C   0  0  0  0  0  0  0  0  0  0  0  0
    8.1599  -14.5786   25.0193 C   0  0  2  0  0  0  0  0  0  0  0  0
    7.9865  -15.3314   23.8256 N   0  0  0  0  0  0  0  0  0  0  0  0
    8.7237  -15.4153   26.1423 C   0  0  0  0  0  0  0  0  0  0  0  0
    8.0576  -16.2793   26.7613 O   0  0  0  0  0  0  0  0  0  0  0  0
   10.0718  -15.2596   26.5621 N   0  0  0  0  0  0  0  0  0  0  0  0
   10.6369  -16.0175   27.6883 C   0  0  1  0  0  0  0  0  0  0  0  0
   12.0221  -16.4763   27.3915 C   0  0  0  0  0  0  0  0  0  0  0  0
   11.9891  -17.6111   26.4465 C   0  0  0  0  0  0  0  0  0  0  0  0
   10.8420  -18.3241   26.0998 C   0  0  0  0  0  0  0  0  0  0  0  0
   11.1508  -19.2929   25.2203 N   0  0  0  0  0  0  0  0  0  0  0  0
   12.4792  -19.2003   25.0077 C   0  0  0  0  0  0  0  0  0  0  0  0
   12.9710  -18.1960   25.7417 N   0  0  0  0  0  0  0  0  0  0  0  0
   10.6069  -15.1687   28.8998 C   0  0  0  0  0  0  0  0  0  0  0  0
   10.3614  -13.7936   28.7749 O   0  0  0  0  0  0  0  0  0  0  0  0
   10.7892  -15.6023   30.0496 O   0  0  0  0  0  0  0  0  0  0  0  0
  2  3  1  0
  2  1  1  6
  4  3  1  0
  4  5  1  0
  5  6  2  0
  7  2  1  0
  8  7  2  0
  9  5  1  0
 11 10  1  6
 12 11  1  0
 13 11  1  0
 14 13  1  1
 14 15  1  0
 15  7  1  0
 16 17  2  0
 16 14  1  0
 18 16  1  0
 19 18  1  0
 19 20  1  6
 21 20  1  0
 22 21  2  0
 23 24  1  0
 23 22  1  0
 24 25  2  0
 25 21  1  0
 26 19  1  0
 27 26  1  0
 28 26  2  0
M  END
$$$$
