ELH.pdb
     RDKit          3D

 28 28  0  0  1  0  0  0  0  0999 V2000
    7.2452  -17.3906   21.2613 N   0  0  0  0  0  0  0  0  0  0  0  0
    8.5999  -16.9534   21.0753 C   0  0  1  0  0  0  0  0  0  0  0  0
    8.9448  -16.4186   19.7342 C   0  0  0  0  0  0  0  0  0  0  0  0
    8.4638  -17.2033   18.5799 C   0  0  0  0  0  0  0  0  0  0  0  0
    8.7857  -16.7164   17.2390 C   0  0  0  0  0  0  0  0  0  0  0  0
    7.9728  -16.1516   16.4950 O   0  0  0  0  0  0  0  0  0  0  0  0
    8.8875  -15.9571   22.1608 C   0  0  0  0  0  0  0  0  0  0  0  0
    9.9689  -15.3522   22.1854 O   0  0  0  0  0  0  0  0  0  0  0  0
   10.0875  -16.8895   16.7452 O   0  0  0  0  0  0  0  0  0  0  0  0
    5.7611  -13.0313   26.6633 C   0  0  0  0  0  0  0  0  0  0  0  0
    7.0623  -13.3736   25.9724 C   0  0  2  0  0  0  0  0  0  0  0  0
    7.6237  -12.0601   25.4368 C   0  0  0  0  0  0  0  0  0  0  0  0
    6.7954  -14.2559   24.7471 C   0  0  0  0  0  0  0  0  0  0  0  0
    8.0465  -14.8572   24.2226 C   0  0  2  0  0  0  0  0  0  0  0  0
    7.8878  -15.7498   23.1272 N   0  0  0  0  0  0  0  0  0  0  0  0
    8.9322  -15.4328   25.3011 C   0  0  0  0  0  0  0  0  0  0  0  0
    9.3855  -14.7574   26.2559 O   0  0  0  0  0  0  0  0  0  0  0  0
    9.3040  -16.8038   25.2852 N   0  0  0  0  0  0  0  0  0  0  0  0
   10.4152  -17.3262   26.0940 C   0  0  1  0  0  0  0  0  0  0  0  0
   11.6618  -16.5425   25.8722 C   0  0  0  0  0  0  0  0  0  0  0  0
   12.3740  -17.0487   24.6813 C   0  0  0  0  0  0  0  0  0  0  0  0
   11.8715  -18.0071   23.8018 C   0  0  0  0  0  0  0  0  0  0  0  0
   12.7636  -18.2483   22.8253 N   0  0  0  0  0  0  0  0  0  0  0  0
   13.8236  -17.4537   23.0779 C   0  0  0  0  0  0  0  0  0  0  0  0
   13.5835  -16.7424   24.1849 N   0  0  0  0  0  0  0  0  0  0  0  0
   10.0212  -17.3045   27.5200 C   0  0  0  0  0  0  0  0  0  0  0  0
    8.7650  -16.7971   27.8827 O   0  0  0  0  0  0  0  0  0  0  0  0
   10.7459  -17.7156   28.4415 O   0  0  0  0  0  0  0  0  0  0  0  0
  2  3  1  0
  2  1  1  6
  4  3  1  0
  4  5  1  0
  5  6  2  0
  7  2  1  0
  8  7  2  0
  9  5  1  0
 11 10  1  6
 12 11  1  0
 13 11  1  0
 14 13  1  1
 14 15  1  0
 15  7  1  0
 16 17  2  0
 16 14  1  0
 18 16  1  0
 19 18  1  0
 19 20  1  1
 21 20  1  0
 22 21  2  0
 23 24  1  0
 23 22  1  0
 24 25  2  0
 25 21  1  0
 26 19  1  0
 27 26  1  0
 28 26  2  0
M  END
$$$$
