ELH.pdb
     RDKit          3D

 28 28  0  0  1  0  0  0  0  0999 V2000
    9.7189  -18.3516   16.7738 N   0  0  0  0  0  0  0  0  0  0  0  0
   11.0411  -18.0914   17.2688 C   0  0  1  0  0  0  0  0  0  0  0  0
   12.0965  -17.8638   16.2500 C   0  0  0  0  0  0  0  0  0  0  0  0
   11.6678  -17.1796   15.0140 C   0  0  0  0  0  0  0  0  0  0  0  0
   12.6637  -16.9784   13.9621 C   0  0  0  0  0  0  0  0  0  0  0  0
   13.8507  -17.3170   14.0601 O   0  0  0  0  0  0  0  0  0  0  0  0
   10.9292  -16.9352   18.2197 C   0  0  0  0  0  0  0  0  0  0  0  0
   11.9478  -16.4216   18.7041 O   0  0  0  0  0  0  0  0  0  0  0  0
   12.2729  -16.3665   12.7615 O   0  0  0  0  0  0  0  0  0  0  0  0
    6.5449  -12.9963   20.1565 C   0  0  0  0  0  0  0  0  0  0  0  0
    7.9649  -13.5135   20.2166 C   0  0  2  0  0  0  0  0  0  0  0  0
    8.8654  -12.3446   19.8290 C   0  0  0  0  0  0  0  0  0  0  0  0
    8.1814  -14.5925   19.1490 C   0  0  0  0  0  0  0  0  0  0  0  0
    9.3924  -15.4034   19.4279 C   0  0  2  0  0  0  0  0  0  0  0  0
    9.6366  -16.4747   18.5254 N   0  0  0  0  0  0  0  0  0  0  0  0
    9.5030  -15.8380   20.8694 C   0  0  0  0  0  0  0  0  0  0  0  0
    8.5439  -16.3143   21.5226 O   0  0  0  0  0  0  0  0  0  0  0  0
   10.7318  -15.7251   21.5731 N   0  0  0  0  0  0  0  0  0  0  0  0
   11.2964  -16.8368   22.3523 C   0  0  1  0  0  0  0  0  0  0  0  0
   11.9077  -17.8646   21.4650 C   0  0  0  0  0  0  0  0  0  0  0  0
   12.4287  -18.9866   22.2723 C   0  0  0  0  0  0  0  0  0  0  0  0
   12.2075  -19.1529   23.6390 C   0  0  0  0  0  0  0  0  0  0  0  0
   12.8169  -20.2707   24.0710 N   0  0  0  0  0  0  0  0  0  0  0  0
   13.4204  -20.8121   22.9934 C   0  0  0  0  0  0  0  0  0  0  0  0
   13.1843  -20.0413   21.9261 N   0  0  0  0  0  0  0  0  0  0  0  0
   12.2922  -16.2973   23.3043 C   0  0  0  0  0  0  0  0  0  0  0  0
   12.4104  -16.8690   24.5795 O   0  0  0  0  0  0  0  0  0  0  0  0
   13.0501  -15.3479   23.0444 O   0  0  0  0  0  0  0  0  0  0  0  0
  2  3  1  0
  2  1  1  6
  4  3  1  0
  4  5  1  0
  5  6  2  0
  7  2  1  0
  8  7  2  0
  9  5  1  0
 11 10  1  6
 12 11  1  0
 13 11  1  0
 14 13  1  1
 14 15  1  0
 15  7  1  0
 16 17  2  0
 16 14  1  0
 18 16  1  0
 19 18  1  0
 19 20  1  6
 21 20  1  0
 22 21  2  0
 23 24  1  0
 23 22  1  0
 24 25  2  0
 25 21  1  0
 26 19  1  0
 27 26  1  0
 28 26  2  0
M  END
$$$$
