ELH.pdb
     RDKit          3D

 28 28  0  0  1  0  0  0  0  0999 V2000
   13.1675  -15.1597   16.2836 N   0  0  0  0  0  0  0  0  0  0  0  0
   11.8288  -15.5023   16.6727 C   0  0  1  0  0  0  0  0  0  0  0  0
   11.4179  -16.9128   16.4598 C   0  0  0  0  0  0  0  0  0  0  0  0
   12.3978  -17.9413   16.8617 C   0  0  0  0  0  0  0  0  0  0  0  0
   12.1027  -19.3348   16.5304 C   0  0  0  0  0  0  0  0  0  0  0  0
   12.8529  -20.2828   16.7983 O   0  0  0  0  0  0  0  0  0  0  0  0
   11.6747  -15.0900   18.1079 C   0  0  0  0  0  0  0  0  0  0  0  0
   12.6655  -14.7580   18.7742 O   0  0  0  0  0  0  0  0  0  0  0  0
   10.9034  -19.6389   15.8689 O   0  0  0  0  0  0  0  0  0  0  0  0
    9.0065  -11.8614   19.6763 C   0  0  0  0  0  0  0  0  0  0  0  0
    8.2345  -13.1128   19.3221 C   0  0  2  0  0  0  0  0  0  0  0  0
    6.7763  -12.8324   19.6718 C   0  0  0  0  0  0  0  0  0  0  0  0
    8.6729  -14.2772   20.2183 C   0  0  0  0  0  0  0  0  0  0  0  0
   10.0839  -14.6608   19.9662 C   0  0  2  0  0  0  0  0  0  0  0  0
   10.3757  -15.0991   18.6454 N   0  0  0  0  0  0  0  0  0  0  0  0
   10.6469  -15.5929   21.0118 C   0  0  0  0  0  0  0  0  0  0  0  0
   10.5608  -15.3801   22.2449 O   0  0  0  0  0  0  0  0  0  0  0  0
   11.3189  -16.7874   20.6383 N   0  0  0  0  0  0  0  0  0  0  0  0
   11.8722  -17.7211   21.6303 C   0  0  1  0  0  0  0  0  0  0  0  0
   13.3603  -17.6718   21.6494 C   0  0  0  0  0  0  0  0  0  0  0  0
   13.8891  -18.6777   22.5931 C   0  0  0  0  0  0  0  0  0  0  0  0
   13.4752  -20.0079   22.6518 C   0  0  0  0  0  0  0  0  0  0  0  0
   14.1488  -20.6572   23.6174 N   0  0  0  0  0  0  0  0  0  0  0  0
   14.9830  -19.7526   24.1692 C   0  0  0  0  0  0  0  0  0  0  0  0
   14.8221  -18.5761   23.5534 N   0  0  0  0  0  0  0  0  0  0  0  0
   11.3131  -17.3934   22.9604 C   0  0  0  0  0  0  0  0  0  0  0  0
   11.0940  -18.4200   23.8905 O   0  0  0  0  0  0  0  0  0  0  0  0
   11.0166  -16.2414   23.3185 O   0  0  0  0  0  0  0  0  0  0  0  0
  2  3  1  0
  2  1  1  1
  4  3  1  0
  4  5  1  0
  5  6  2  0
  7  2  1  0
  8  7  2  0
  9  5  1  0
 11 10  1  1
 12 11  1  0
 13 11  1  0
 14 13  1  6
 14 15  1  0
 15  7  1  0
 16 17  2  0
 16 14  1  0
 18 16  1  0
 19 18  1  0
 19 20  1  1
 21 20  1  0
 22 21  2  0
 23 24  1  0
 23 22  1  0
 24 25  2  0
 25 21  1  0
 26 19  1  0
 27 26  1  0
 28 26  2  0
M  END
$$$$
