ELH.pdb
     RDKit          3D

 28 28  0  0  1  0  0  0  0  0999 V2000
    9.7467  -16.2742   20.7462 N   0  0  0  0  0  0  0  0  0  0  0  0
    8.4598  -16.1395   21.3680 C   0  0  1  0  0  0  0  0  0  0  0  0
    7.5452  -17.3033   21.2559 C   0  0  0  0  0  0  0  0  0  0  0  0
    8.1530  -18.6297   21.4814 C   0  0  0  0  0  0  0  0  0  0  0  0
    7.2917  -19.8060   21.3668 C   0  0  0  0  0  0  0  0  0  0  0  0
    7.6667  -20.9628   21.6006 O   0  0  0  0  0  0  0  0  0  0  0  0
    8.7067  -15.7637   22.8003 C   0  0  0  0  0  0  0  0  0  0  0  0
    9.7363  -16.1404   23.3783 O   0  0  0  0  0  0  0  0  0  0  0  0
    5.9569  -19.6374   20.9690 O   0  0  0  0  0  0  0  0  0  0  0  0
    6.1132  -12.0668   27.1066 C   0  0  0  0  0  0  0  0  0  0  0  0
    7.2452  -12.9284   26.5930 C   0  0  2  0  0  0  0  0  0  0  0  0
    8.4411  -12.0001   26.4044 C   0  0  0  0  0  0  0  0  0  0  0  0
    6.9052  -13.4759   25.2017 C   0  0  0  0  0  0  0  0  0  0  0  0
    7.8532  -14.5385   24.7848 C   0  0  2  0  0  0  0  0  0  0  0  0
    7.7306  -14.9786   23.4383 N   0  0  0  0  0  0  0  0  0  0  0  0
    7.9241  -15.6922   25.7558 C   0  0  0  0  0  0  0  0  0  0  0  0
    7.1462  -16.6755   25.7179 O   0  0  0  0  0  0  0  0  0  0  0  0
    8.9018  -15.7197   26.7860 N   0  0  0  0  0  0  0  0  0  0  0  0
    9.3678  -16.9746   27.3942 C   0  0  1  0  0  0  0  0  0  0  0  0
   10.0408  -17.8454   26.3910 C   0  0  0  0  0  0  0  0  0  0  0  0
    9.0845  -18.8361   25.8565 C   0  0  0  0  0  0  0  0  0  0  0  0
    7.7393  -18.9168   26.2151 C   0  0  0  0  0  0  0  0  0  0  0  0
    7.1461  -19.9248   25.5521 N   0  0  0  0  0  0  0  0  0  0  0  0
    8.1007  -20.4817   24.7794 C   0  0  0  0  0  0  0  0  0  0  0  0
    9.2522  -19.8274   24.9664 N   0  0  0  0  0  0  0  0  0  0  0  0
   10.2788  -16.6542   28.5152 C   0  0  0  0  0  0  0  0  0  0  0  0
   10.4857  -17.5999   29.5300 O   0  0  0  0  0  0  0  0  0  0  0  0
   10.8882  -15.5769   28.6215 O   0  0  0  0  0  0  0  0  0  0  0  0
  2  3  1  0
  2  1  1  1
  4  3  1  0
  4  5  1  0
  5  6  2  0
  7  2  1  0
  8  7  2  0
  9  5  1  0
 11 10  1  6
 12 11  1  0
 13 11  1  0
 14 13  1  1
 14 15  1  0
 15  7  1  0
 16 17  2  0
 16 14  1  0
 18 16  1  0
 19 18  1  0
 19 20  1  6
 21 20  1  0
 22 21  2  0
 23 24  1  0
 23 22  1  0
 24 25  2  0
 25 21  1  0
 26 19  1  0
 27 26  1  0
 28 26  2  0
M  END
$$$$
