ELH.pdb
     RDKit          3D

 28 28  0  0  1  0  0  0  0  0999 V2000
    8.4385  -14.8701   20.8259 N   0  0  0  0  0  0  0  0  0  0  0  0
    8.7152  -16.0565   21.5855 C   0  0  1  0  0  0  0  0  0  0  0  0
    9.7582  -16.9622   21.0423 C   0  0  0  0  0  0  0  0  0  0  0  0
   10.0096  -16.8648   19.5908 C   0  0  0  0  0  0  0  0  0  0  0  0
   10.9797  -17.7864   19.0004 C   0  0  0  0  0  0  0  0  0  0  0  0
   10.8077  -19.0097   18.9153 O   0  0  0  0  0  0  0  0  0  0  0  0
    9.0389  -15.6121   22.9824 C   0  0  0  0  0  0  0  0  0  0  0  0
   10.2029  -15.6693   23.4042 O   0  0  0  0  0  0  0  0  0  0  0  0
   12.1845  -17.2758   18.4944 O   0  0  0  0  0  0  0  0  0  0  0  0
    8.1914  -11.9601   25.8781 C   0  0  0  0  0  0  0  0  0  0  0  0
    7.0096  -12.7059   25.2996 C   0  0  2  0  0  0  0  0  0  0  0  0
    5.7605  -12.0464   25.8759 C   0  0  0  0  0  0  0  0  0  0  0  0
    6.9993  -14.1543   25.8025 C   0  0  0  0  0  0  0  0  0  0  0  0
    8.0783  -14.9585   25.1775 C   0  0  2  0  0  0  0  0  0  0  0  0
    7.9760  -15.1371   23.7705 N   0  0  0  0  0  0  0  0  0  0  0  0
    8.3504  -16.2574   25.8971 C   0  0  0  0  0  0  0  0  0  0  0  0
    7.5134  -17.1876   25.9832 O   0  0  0  0  0  0  0  0  0  0  0  0
    9.6012  -16.4939   26.5276 N   0  0  0  0  0  0  0  0  0  0  0  0
   10.0324  -17.8380   26.9391 C   0  0  1  0  0  0  0  0  0  0  0  0
   11.1200  -18.3505   26.0606 C   0  0  0  0  0  0  0  0  0  0  0  0
   11.5793  -19.6702   26.5393 C   0  0  0  0  0  0  0  0  0  0  0  0
   10.7993  -20.5672   27.2684 C   0  0  0  0  0  0  0  0  0  0  0  0
   11.5110  -21.6726   27.5496 N   0  0  0  0  0  0  0  0  0  0  0  0
   12.7311  -21.4843   27.0068 C   0  0  0  0  0  0  0  0  0  0  0  0
   12.7635  -20.2893   26.4069 N   0  0  0  0  0  0  0  0  0  0  0  0
   10.4696  -17.7891   28.3517 C   0  0  0  0  0  0  0  0  0  0  0  0
   10.3970  -16.5789   29.0567 O   0  0  0  0  0  0  0  0  0  0  0  0
   10.9081  -18.7723   28.9717 O   0  0  0  0  0  0  0  0  0  0  0  0
  2  3  1  0
  2  1  1  6
  4  3  1  0
  4  5  1  0
  5  6  2  0
  7  2  1  0
  8  7  2  0
  9  5  1  0
 11 10  1  1
 12 11  1  0
 13 11  1  0
 14 13  1  1
 14 15  1  0
 15  7  1  0
 16 17  2  0
 16 14  1  0
 18 16  1  0
 19 18  1  0
 19 20  1  6
 21 20  1  0
 22 21  2  0
 23 24  1  0
 23 22  1  0
 24 25  2  0
 25 21  1  0
 26 19  1  0
 27 26  1  0
 28 26  2  0
M  END
$$$$
