ELH.pdb
     RDKit          3D

 28 28  0  0  1  0  0  0  0  0999 V2000
    8.2789  -15.4464   20.4891 N   0  0  0  0  0  0  0  0  0  0  0  0
    8.4962  -16.1147   21.7409 C   0  0  1  0  0  0  0  0  0  0  0  0
    9.5558  -17.1542   21.7613 C   0  0  0  0  0  0  0  0  0  0  0  0
    9.4109  -18.2472   20.7795 C   0  0  0  0  0  0  0  0  0  0  0  0
   10.4603  -19.2644   20.7273 C   0  0  0  0  0  0  0  0  0  0  0  0
   11.4566  -19.2681   21.4627 O   0  0  0  0  0  0  0  0  0  0  0  0
    8.7467  -15.0468   22.7656 C   0  0  0  0  0  0  0  0  0  0  0  0
    8.7406  -13.8512   22.4390 O   0  0  0  0  0  0  0  0  0  0  0  0
   10.3527  -20.3077   19.7955 O   0  0  0  0  0  0  0  0  0  0  0  0
    5.6025  -12.8696   26.6038 C   0  0  0  0  0  0  0  0  0  0  0  0
    7.0546  -13.2860   26.5284 C   0  0  2  0  0  0  0  0  0  0  0  0
    7.8661  -11.9991   26.4165 C   0  0  0  0  0  0  0  0  0  0  0  0
    7.3147  -14.0694   25.2363 C   0  0  0  0  0  0  0  0  0  0  0  0
    8.6769  -14.6576   25.2175 C   0  0  2  0  0  0  0  0  0  0  0  0
    8.9832  -15.4640   24.0871 N   0  0  0  0  0  0  0  0  0  0  0  0
    9.0569  -15.3296   26.5149 C   0  0  0  0  0  0  0  0  0  0  0  0
    8.7161  -14.8975   27.6421 O   0  0  0  0  0  0  0  0  0  0  0  0
    9.8394  -16.5151   26.5205 N   0  0  0  0  0  0  0  0  0  0  0  0
   10.9403  -16.7258   27.4721 C   0  0  1  0  0  0  0  0  0  0  0  0
   12.1628  -15.9826   27.0591 C   0  0  0  0  0  0  0  0  0  0  0  0
   12.5172  -16.3233   25.6662 C   0  0  0  0  0  0  0  0  0  0  0  0
   11.7752  -17.1671   24.8405 C   0  0  0  0  0  0  0  0  0  0  0  0
   12.3666  -17.2703   23.6375 N   0  0  0  0  0  0  0  0  0  0  0  0
   13.4733  -16.5018   23.6939 C   0  0  0  0  0  0  0  0  0  0  0  0
   13.5557  -15.9412   24.9055 N   0  0  0  0  0  0  0  0  0  0  0  0
   10.4950  -16.3080   28.8198 C   0  0  0  0  0  0  0  0  0  0  0  0
   10.5506  -17.2232   29.8810 O   0  0  0  0  0  0  0  0  0  0  0  0
   10.0639  -15.1728   29.0819 O   0  0  0  0  0  0  0  0  0  0  0  0
  2  3  1  0
  2  1  1  6
  4  3  1  0
  4  5  1  0
  5  6  2  0
  7  2  1  0
  8  7  2  0
  9  5  1  0
 11 10  1  6
 12 11  1  0
 13 11  1  0
 14 13  1  1
 14 15  1  0
 15  7  1  0
 16 17  2  0
 16 14  1  0
 18 16  1  0
 19 18  1  0
 19 20  1  6
 21 20  1  0
 22 21  2  0
 23 24  1  0
 23 22  1  0
 24 25  2  0
 25 21  1  0
 26 19  1  0
 27 26  1  0
 28 26  2  0
M  END
$$$$
