AGV.pdb
     RDKit          3D

 17 16  0  0  1  0  0  0  0  0999 V2000
    7.7268  -12.5534   20.0120 C   0  0  0  0  0  0  0  0  0  0  0  0
    8.4734  -13.8784   20.1258 C   0  0  2  0  0  0  0  0  0  0  0  0
    8.6880  -14.3516   18.7729 N   0  0  0  0  0  0  0  0  0  0  0  0
    7.6360  -14.9034   20.8260 C   0  0  0  0  0  0  0  0  0  0  0  0
    6.9694  -15.7600   20.1885 O   0  0  0  0  0  0  0  0  0  0  0  0
    7.5547  -14.9569   22.2444 N   0  0  0  0  0  0  0  0  0  0  0  0
    6.7728  -15.8660   23.0037 C   0  0  0  0  0  0  0  0  0  0  0  0
    6.6526  -15.5887   24.4430 C   0  0  0  0  0  0  0  0  0  0  0  0
    5.8072  -16.3026   25.0732 O   0  0  0  0  0  0  0  0  0  0  0  0
    9.2716  -13.8643   27.2944 C   0  0  0  0  0  0  0  0  0  0  0  0
    7.9341  -13.2096   27.1038 C   0  0  1  0  0  0  0  0  0  0  0  0
    8.0939  -11.9063   26.3461 C   0  0  0  0  0  0  0  0  0  0  0  0
    6.9124  -14.1102   26.4646 C   0  0  2  0  0  0  0  0  0  0  0  0
    7.3559  -14.6353   25.1905 N   0  0  0  0  0  0  0  0  0  0  0  0
    5.7003  -13.2891   26.2032 C   0  0  0  0  0  0  0  0  0  0  0  0
    4.9778  -12.8459   27.1480 O   0  0  0  0  0  0  0  0  0  0  0  0
    5.2859  -12.9581   24.9196 O   0  0  0  0  0  0  0  0  0  0  0  0
  2  1  1  6
  2  3  1  0
  4  2  1  0
  5  4  2  0
  6  4  1  0
  7  8  1  0
  7  6  1  0
  8  9  2  0
 11 10  1  6
 11 13  1  0
 12 11  1  0
 13 14  1  6
 14  8  1  0
 15 13  1  0
 16 15  2  0
 17 15  1  0
M  END
$$$$
