AGV.pdb
     RDKit          3D

 17 16  0  0  1  0  0  0  0  0999 V2000
    5.3035  -18.7815   21.4053 C   0  0  0  0  0  0  0  0  0  0  0  0
    6.6064  -18.9751   22.1740 C   0  0  2  0  0  0  0  0  0  0  0  0
    6.2754  -18.8831   23.5819 N   0  0  0  0  0  0  0  0  0  0  0  0
    7.5718  -17.8709   21.8729 C   0  0  0  0  0  0  0  0  0  0  0  0
    8.1153  -17.7578   20.7432 O   0  0  0  0  0  0  0  0  0  0  0  0
    7.9198  -16.8980   22.8495 N   0  0  0  0  0  0  0  0  0  0  0  0
    8.7796  -15.7860   22.6531 C   0  0  0  0  0  0  0  0  0  0  0  0
    8.9319  -14.8629   23.7879 C   0  0  0  0  0  0  0  0  0  0  0  0
    9.8441  -13.9831   23.6640 O   0  0  0  0  0  0  0  0  0  0  0  0
    7.1813  -12.0571   25.3424 C   0  0  0  0  0  0  0  0  0  0  0  0
    7.4490  -13.0295   26.4545 C   0  0  1  0  0  0  0  0  0  0  0  0
    6.1595  -13.7025   26.8815 C   0  0  0  0  0  0  0  0  0  0  0  0
    8.5245  -14.0299   26.1290 C   0  0  2  0  0  0  0  0  0  0  0  0
    8.1942  -14.8445   24.9786 N   0  0  0  0  0  0  0  0  0  0  0  0
    8.6454  -14.9451   27.2949 C   0  0  0  0  0  0  0  0  0  0  0  0
    8.2361  -16.1456   27.2464 O   0  0  0  0  0  0  0  0  0  0  0  0
    9.2090  -14.5473   28.5004 O   0  0  0  0  0  0  0  0  0  0  0  0
  2  1  1  6
  2  3  1  0
  4  2  1  0
  5  4  2  0
  6  4  1  0
  7  8  1  0
  7  6  1  0
  8  9  2  0
 11 10  1  6
 11 13  1  0
 12 11  1  0
 13 14  1  6
 14  8  1  0
 15 13  1  0
 16 15  2  0
 17 15  1  0
M  END
$$$$
