AGV.pdb
     RDKit          3D

 17 16  0  0  1  0  0  0  0  0999 V2000
    8.9429  -17.8689   18.5649 C   0  0  0  0  0  0  0  0  0  0  0  0
    9.4426  -17.6067   19.9819 C   0  0  2  0  0  0  0  0  0  0  0  0
    8.8604  -18.6326   20.8239 N   0  0  0  0  0  0  0  0  0  0  0  0
    8.9473  -16.2865   20.4856 C   0  0  0  0  0  0  0  0  0  0  0  0
    9.4679  -15.2011   20.1177 O   0  0  0  0  0  0  0  0  0  0  0  0
    7.8653  -16.1973   21.4036 N   0  0  0  0  0  0  0  0  0  0  0  0
    7.2930  -15.0005   21.9081 C   0  0  0  0  0  0  0  0  0  0  0  0
    7.7990  -14.5239   23.2042 C   0  0  0  0  0  0  0  0  0  0  0  0
    9.0307  -14.7523   23.4328 O   0  0  0  0  0  0  0  0  0  0  0  0
    5.4440  -12.8613   26.4217 C   0  0  0  0  0  0  0  0  0  0  0  0
    6.7679  -12.2609   26.0466 C   0  0  1  0  0  0  0  0  0  0  0  0
    7.4142  -11.6219   27.2599 C   0  0  0  0  0  0  0  0  0  0  0  0
    7.6924  -13.2306   25.3621 C   0  0  2  0  0  0  0  0  0  0  0  0
    7.0842  -13.8548   24.2061 N   0  0  0  0  0  0  0  0  0  0  0  0
    7.9985  -14.3126   26.3353 C   0  0  0  0  0  0  0  0  0  0  0  0
    7.3427  -15.3992   26.3535 O   0  0  0  0  0  0  0  0  0  0  0  0
    9.0128  -14.2034   27.2779 O   0  0  0  0  0  0  0  0  0  0  0  0
  2  1  1  6
  2  3  1  0
  4  2  1  0
  5  4  2  0
  6  4  1  0
  7  8  1  0
  7  6  1  0
  8  9  2  0
 11 10  1  1
 11 13  1  0
 12 11  1  0
 13 14  1  6
 14  8  1  0
 15 13  1  0
 16 15  2  0
 17 15  1  0
M  END
$$$$
