AGV.pdb
     RDKit          3D

 17 16  0  0  1  0  0  0  0  0999 V2000
    7.2715  -17.8598   19.4104 C   0  0  0  0  0  0  0  0  0  0  0  0
    8.2372  -17.6530   20.5726 C   0  0  2  0  0  0  0  0  0  0  0  0
    8.4445  -18.9539   21.1767 N   0  0  0  0  0  0  0  0  0  0  0  0
    7.6304  -16.7704   21.6189 C   0  0  0  0  0  0  0  0  0  0  0  0
    7.3889  -15.5547   21.3993 O   0  0  0  0  0  0  0  0  0  0  0  0
    7.2985  -17.2647   22.9100 N   0  0  0  0  0  0  0  0  0  0  0  0
    6.6976  -16.5232   23.9605 C   0  0  0  0  0  0  0  0  0  0  0  0
    7.5090  -15.4520   24.5582 C   0  0  0  0  0  0  0  0  0  0  0  0
    8.7001  -15.3524   24.1191 O   0  0  0  0  0  0  0  0  0  0  0  0
    6.6549  -11.4537   25.3661 C   0  0  0  0  0  0  0  0  0  0  0  0
    7.1843  -12.2784   26.5034 C   0  0  1  0  0  0  0  0  0  0  0  0
    6.0569  -12.6558   27.4439 C   0  0  0  0  0  0  0  0  0  0  0  0
    7.9698  -13.4810   26.0560 C   0  0  2  0  0  0  0  0  0  0  0  0
    7.1224  -14.5392   25.5480 N   0  0  0  0  0  0  0  0  0  0  0  0
    8.6751  -14.0183   27.2499 C   0  0  0  0  0  0  0  0  0  0  0  0
    9.5703  -13.3505   27.8531 O   0  0  0  0  0  0  0  0  0  0  0  0
    8.4012  -15.2743   27.7759 O   0  0  0  0  0  0  0  0  0  0  0  0
  2  1  1  6
  2  3  1  0
  4  2  1  0
  5  4  2  0
  6  4  1  0
  7  8  1  0
  7  6  1  0
  8  9  2  0
 11 10  1  6
 11 13  1  0
 12 11  1  0
 13 14  1  1
 14  8  1  0
 15 13  1  0
 16 15  2  0
 17 15  1  0
M  END
$$$$
