AGV.pdb
     RDKit          3D

 17 16  0  0  1  0  0  0  0  0999 V2000
   -4.6127  -26.2536   26.8332 C   0  0  0  0  0  0  0  0  0  0  0  0
   -4.2549  -27.0847   28.0610 C   0  0  2  0  0  0  0  0  0  0  0  0
   -5.4522  -27.8108   28.4342 N   0  0  0  0  0  0  0  0  0  0  0  0
   -3.8944  -26.2017   29.2154 C   0  0  0  0  0  0  0  0  0  0  0  0
   -2.8292  -25.5312   29.2274 O   0  0  0  0  0  0  0  0  0  0  0  0
   -4.7391  -26.0795   30.3525 N   0  0  0  0  0  0  0  0  0  0  0  0
   -4.4662  -25.3190   31.5193 C   0  0  0  0  0  0  0  0  0  0  0  0
   -5.0072  -23.9519   31.5559 C   0  0  0  0  0  0  0  0  0  0  0  0
   -4.7886  -23.3012   32.6284 O   0  0  0  0  0  0  0  0  0  0  0  0
   -4.0157  -20.9464   29.6632 C   0  0  0  0  0  0  0  0  0  0  0  0
   -5.5064  -21.0701   29.5350 C   0  0  1  0  0  0  0  0  0  0  0  0
   -5.8718  -21.5714   28.1518 C   0  0  0  0  0  0  0  0  0  0  0  0
   -6.1334  -21.9038   30.6192 C   0  0  2  0  0  0  0  0  0  0  0  0
   -5.7304  -23.2928   30.5535 N   0  0  0  0  0  0  0  0  0  0  0  0
   -7.6056  -21.8635   30.4131 C   0  0  0  0  0  0  0  0  0  0  0  0
   -8.2781  -20.8046   30.6072 O   0  0  0  0  0  0  0  0  0  0  0  0
   -8.3317  -22.9726   29.9986 O   0  0  0  0  0  0  0  0  0  0  0  0
  2  1  1  6
  2  3  1  0
  4  2  1  0
  5  4  2  0
  6  4  1  0
  7  8  1  0
  7  6  1  0
  8  9  2  0
 11 10  1  1
 11 13  1  0
 12 11  1  0
 13 14  1  6
 14  8  1  0
 15 13  1  0
 16 15  2  0
 17 15  1  0
M  END
$$$$
