AGV.pdb
     RDKit          3D

 17 16  0  0  1  0  0  0  0  0999 V2000
    9.1838  -17.4968   18.9996 C   0  0  0  0  0  0  0  0  0  0  0  0
    9.6504  -17.2927   20.4372 C   0  0  2  0  0  0  0  0  0  0  0  0
    9.2220  -18.4594   21.1824 N   0  0  0  0  0  0  0  0  0  0  0  0
    8.9789  -16.1037   21.0515 C   0  0  0  0  0  0  0  0  0  0  0  0
    9.2784  -14.9282   20.7151 O   0  0  0  0  0  0  0  0  0  0  0  0
    7.9710  -16.2469   22.0440 N   0  0  0  0  0  0  0  0  0  0  0  0
    7.2512  -15.1922   22.6635 C   0  0  0  0  0  0  0  0  0  0  0  0
    7.8580  -14.5969   23.8637 C   0  0  0  0  0  0  0  0  0  0  0  0
    9.0656  -14.9293   24.0934 O   0  0  0  0  0  0  0  0  0  0  0  0
    6.9259  -10.8458   25.7472 C   0  0  0  0  0  0  0  0  0  0  0  0
    7.1269  -12.0704   26.5921 C   0  0  1  0  0  0  0  0  0  0  0  0
    5.7897  -12.5981   27.0733 C   0  0  0  0  0  0  0  0  0  0  0  0
    7.9420  -13.1381   25.9143 C   0  0  2  0  0  0  0  0  0  0  0  0
    7.2615  -13.7151   24.7742 N   0  0  0  0  0  0  0  0  0  0  0  0
    8.1485  -14.2309   26.9016 C   0  0  0  0  0  0  0  0  0  0  0  0
    7.5157  -15.3284   26.8247 O   0  0  0  0  0  0  0  0  0  0  0  0
    9.0395  -14.1204   27.9614 O   0  0  0  0  0  0  0  0  0  0  0  0
  2  1  1  6
  2  3  1  0
  4  2  1  0
  5  4  2  0
  6  4  1  0
  7  8  1  0
  7  6  1  0
  8  9  2  0
 11 10  1  6
 11 13  1  0
 12 11  1  0
 13 14  1  6
 14  8  1  0
 15 13  1  0
 16 15  2  0
 17 15  1  0
M  END
$$$$
