AGV.pdb
     RDKit          3D

 17 16  0  0  1  0  0  0  0  0999 V2000
    5.8888  -19.3611   23.2002 C   0  0  0  0  0  0  0  0  0  0  0  0
    6.3400  -18.8244   21.8458 C   0  0  2  0  0  0  0  0  0  0  0  0
    7.7070  -19.2675   21.6580 N   0  0  0  0  0  0  0  0  0  0  0  0
    6.3556  -17.3271   21.8444 C   0  0  0  0  0  0  0  0  0  0  0  0
    5.3005  -16.6549   21.9838 O   0  0  0  0  0  0  0  0  0  0  0  0
    7.5636  -16.5944   21.6854 N   0  0  0  0  0  0  0  0  0  0  0  0
    7.7093  -15.1871   21.7979 C   0  0  0  0  0  0  0  0  0  0  0  0
    8.1833  -14.6755   23.0927 C   0  0  0  0  0  0  0  0  0  0  0  0
    9.4443  -14.5357   23.2018 O   0  0  0  0  0  0  0  0  0  0  0  0
    5.6973  -13.0005   26.2217 C   0  0  0  0  0  0  0  0  0  0  0  0
    7.1337  -12.6429   25.9710 C   0  0  1  0  0  0  0  0  0  0  0  0
    7.7477  -12.0415   27.2198 C   0  0  0  0  0  0  0  0  0  0  0  0
    7.9513  -13.7877   25.4376 C   0  0  2  0  0  0  0  0  0  0  0  0
    7.4106  -14.3299   24.2089 N   0  0  0  0  0  0  0  0  0  0  0  0
    7.9083  -14.8733   26.4530 C   0  0  0  0  0  0  0  0  0  0  0  0
    7.0411  -15.7989   26.4042 O   0  0  0  0  0  0  0  0  0  0  0  0
    8.8067  -14.9425   27.5099 O   0  0  0  0  0  0  0  0  0  0  0  0
  2  1  1  1
  2  3  1  0
  4  2  1  0
  5  4  2  0
  6  4  1  0
  7  8  1  0
  7  6  1  0
  8  9  2  0
 11 10  1  1
 11 13  1  0
 12 11  1  0
 13 14  1  6
 14  8  1  0
 15 13  1  0
 16 15  2  0
 17 15  1  0
M  END
$$$$
