AGV.pdb
     RDKit          3D

 17 16  0  0  1  0  0  0  0  0999 V2000
    7.1422  -18.6541   19.3605 C   0  0  0  0  0  0  0  0  0  0  0  0
    8.0988  -17.8784   20.2602 C   0  0  2  0  0  0  0  0  0  0  0  0
    8.9222  -18.8612   20.9359 N   0  0  0  0  0  0  0  0  0  0  0  0
    7.3472  -17.1290   21.3163 C   0  0  0  0  0  0  0  0  0  0  0  0
    6.6341  -16.1299   21.0371 O   0  0  0  0  0  0  0  0  0  0  0  0
    7.4039  -17.5110   22.6846 N   0  0  0  0  0  0  0  0  0  0  0  0
    6.7565  -16.8548   23.7638 C   0  0  0  0  0  0  0  0  0  0  0  0
    7.4649  -15.7121   24.3600 C   0  0  0  0  0  0  0  0  0  0  0  0
    8.6454  -15.5091   23.9278 O   0  0  0  0  0  0  0  0  0  0  0  0
    7.6827  -11.6322   27.2677 C   0  0  0  0  0  0  0  0  0  0  0  0
    6.9084  -12.7798   26.6870 C   0  0  1  0  0  0  0  0  0  0  0  0
    5.7251  -12.2627   25.8928 C   0  0  0  0  0  0  0  0  0  0  0  0
    7.7556  -13.7269   25.8816 C   0  0  2  0  0  0  0  0  0  0  0  0
    6.9916  -14.8317   25.3414 N   0  0  0  0  0  0  0  0  0  0  0  0
    8.7714  -14.3039   26.8017 C   0  0  0  0  0  0  0  0  0  0  0  0
    8.5712  -15.3961   27.4167 O   0  0  0  0  0  0  0  0  0  0  0  0
    9.9931  -13.6894   27.0443 O   0  0  0  0  0  0  0  0  0  0  0  0
  2  1  1  6
  2  3  1  0
  4  2  1  0
  5  4  2  0
  6  4  1  0
  7  8  1  0
  7  6  1  0
  8  9  2  0
 11 10  1  6
 11 13  1  0
 12 11  1  0
 13 14  1  1
 14  8  1  0
 15 13  1  0
 16 15  2  0
 17 15  1  0
M  END
$$$$
