AGV.pdb
     RDKit          3D

 17 16  0  0  1  0  0  0  0  0999 V2000
    6.9314  -19.8524   21.1554 C   0  0  0  0  0  0  0  0  0  0  0  0
    7.7064  -19.0891   22.2244 C   0  0  2  0  0  0  0  0  0  0  0  0
    6.9862  -19.2709   23.4688 N   0  0  0  0  0  0  0  0  0  0  0  0
    7.7166  -17.6212   21.9290 C   0  0  0  0  0  0  0  0  0  0  0  0
    8.4399  -17.1346   21.0209 O   0  0  0  0  0  0  0  0  0  0  0  0
    6.9093  -16.7080   22.6609 N   0  0  0  0  0  0  0  0  0  0  0  0
    6.9148  -15.2949   22.5286 C   0  0  0  0  0  0  0  0  0  0  0  0
    7.6593  -14.5408   23.5484 C   0  0  0  0  0  0  0  0  0  0  0  0
    8.7760  -14.0588   23.1716 O   0  0  0  0  0  0  0  0  0  0  0  0
    7.0131  -11.2961   25.4693 C   0  0  0  0  0  0  0  0  0  0  0  0
    7.3129  -12.4036   26.4375 C   0  0  1  0  0  0  0  0  0  0  0  0
    6.0360  -12.8713   27.1076 C   0  0  0  0  0  0  0  0  0  0  0  0
    8.0765  -13.5452   25.8233 C   0  0  2  0  0  0  0  0  0  0  0  0
    7.2819  -14.2974   24.8753 N   0  0  0  0  0  0  0  0  0  0  0  0
    8.4435  -14.4753   26.9242 C   0  0  0  0  0  0  0  0  0  0  0  0
    7.9293  -15.6318   27.0203 O   0  0  0  0  0  0  0  0  0  0  0  0
    9.3644  -14.1401   27.9084 O   0  0  0  0  0  0  0  0  0  0  0  0
  2  1  1  6
  2  3  1  0
  4  2  1  0
  5  4  2  0
  6  4  1  0
  7  8  1  0
  7  6  1  0
  8  9  2  0
 11 10  1  6
 11 13  1  0
 12 11  1  0
 13 14  1  6
 14  8  1  0
 15 13  1  0
 16 15  2  0
 17 15  1  0
M  END
$$$$
