AGV.pdb
     RDKit          3D

 17 16  0  0  1  0  0  0  0  0999 V2000
    7.0185  -17.9570   19.4680 C   0  0  0  0  0  0  0  0  0  0  0  0
    8.0063  -17.7739   20.6156 C   0  0  2  0  0  0  0  0  0  0  0  0
    8.2180  -19.0855   21.1945 N   0  0  0  0  0  0  0  0  0  0  0  0
    7.4230  -16.9057   21.6871 C   0  0  0  0  0  0  0  0  0  0  0  0
    7.1965  -15.6823   21.4963 O   0  0  0  0  0  0  0  0  0  0  0  0
    7.0977  -17.4231   22.9708 N   0  0  0  0  0  0  0  0  0  0  0  0
    6.5641  -16.6852   24.0594 C   0  0  0  0  0  0  0  0  0  0  0  0
    7.3931  -15.5878   24.5805 C   0  0  0  0  0  0  0  0  0  0  0  0
    8.5893  -15.5464   24.1458 O   0  0  0  0  0  0  0  0  0  0  0  0
    6.4488  -11.5992   25.2346 C   0  0  0  0  0  0  0  0  0  0  0  0
    7.1322  -12.3036   26.3707 C   0  0  1  0  0  0  0  0  0  0  0  0
    6.1355  -12.6078   27.4717 C   0  0  0  0  0  0  0  0  0  0  0  0
    7.8912  -13.5306   25.9444 C   0  0  2  0  0  0  0  0  0  0  0  0
    7.0182  -14.5940   25.4938 N   0  0  0  0  0  0  0  0  0  0  0  0
    8.6202  -14.0370   27.1376 C   0  0  0  0  0  0  0  0  0  0  0  0
    9.5649  -13.3788   27.6718 O   0  0  0  0  0  0  0  0  0  0  0  0
    8.3158  -15.2520   27.7379 O   0  0  0  0  0  0  0  0  0  0  0  0
  2  1  1  6
  2  3  1  0
  4  2  1  0
  5  4  2  0
  6  4  1  0
  7  8  1  0
  7  6  1  0
  8  9  2  0
 11 10  1  6
 11 13  1  0
 12 11  1  0
 13 14  1  1
 14  8  1  0
 15 13  1  0
 16 15  2  0
 17 15  1  0
M  END
$$$$
