AGV.pdb
     RDKit          3D

 17 16  0  0  1  0  0  0  0  0999 V2000
    8.6348  -19.6076   20.4911 C   0  0  0  0  0  0  0  0  0  0  0  0
    8.7265  -18.1139   20.1972 C   0  0  2  0  0  0  0  0  0  0  0  0
   10.0408  -17.6850   20.6319 N   0  0  0  0  0  0  0  0  0  0  0  0
    7.7222  -17.3497   21.0030 C   0  0  0  0  0  0  0  0  0  0  0  0
    6.4877  -17.4324   20.7713 O   0  0  0  0  0  0  0  0  0  0  0  0
    8.1163  -16.4946   22.0683 N   0  0  0  0  0  0  0  0  0  0  0  0
    7.2479  -15.8363   22.9776 C   0  0  0  0  0  0  0  0  0  0  0  0
    7.8814  -14.9712   23.9842 C   0  0  0  0  0  0  0  0  0  0  0  0
    9.1522  -14.9073   23.9349 O   0  0  0  0  0  0  0  0  0  0  0  0
    6.5636  -11.2984   25.4038 C   0  0  0  0  0  0  0  0  0  0  0  0
    7.0491  -12.2600   26.4495 C   0  0  1  0  0  0  0  0  0  0  0  0
    5.8747  -12.8320   27.2187 C   0  0  0  0  0  0  0  0  0  0  0  0
    7.9420  -13.3398   25.9014 C   0  0  2  0  0  0  0  0  0  0  0  0
    7.2495  -14.2185   24.9825 N   0  0  0  0  0  0  0  0  0  0  0  0
    8.3887  -14.1708   27.0510 C   0  0  0  0  0  0  0  0  0  0  0  0
    7.9249  -15.3348   27.2533 O   0  0  0  0  0  0  0  0  0  0  0  0
    9.3337  -13.7292   27.9682 O   0  0  0  0  0  0  0  0  0  0  0  0
  2  1  1  1
  2  3  1  0
  4  2  1  0
  5  4  2  0
  6  4  1  0
  7  8  1  0
  7  6  1  0
  8  9  2  0
 11 10  1  6
 11 13  1  0
 12 11  1  0
 13 14  1  6
 14  8  1  0
 15 13  1  0
 16 15  2  0
 17 15  1  0
M  END
$$$$
