HPL.pdb
     RDKit          3D

 26 27  0  0  1  0  0  0  0  0999 V2000
   22.4565  -21.5838  -15.2373 N   0  0  0  0  0  0  0  0  0  0  0  0
   23.4386  -20.6232  -14.8618 C   0  0  1  0  0  0  0  0  0  0  0  0
   22.8538  -19.2383  -14.6381 C   0  0  0  0  0  0  0  0  0  0  0  0
   22.2835  -18.7539  -15.9172 C   0  0  0  0  0  0  0  0  0  0  0  0
   21.1162  -19.0775  -16.5362 C   0  0  0  0  0  0  0  0  0  0  0  0
   21.0170  -18.3676  -17.6635 N   0  0  0  0  0  0  0  0  0  0  0  0
   22.1173  -17.5711  -17.7934 C   0  0  0  0  0  0  0  0  0  0  0  0
   22.8850  -17.8185  -16.7160 N   0  0  0  0  0  0  0  0  0  0  0  0
   24.2543  -21.0317  -13.6829 C   0  0  0  0  0  0  0  0  0  0  0  0
   23.6539  -21.5099  -12.6683 O   0  0  0  0  0  0  0  0  0  0  0  0
   25.6532  -20.8807  -13.7216 N   0  0  0  0  0  0  0  0  0  0  0  0
   26.4598  -20.3679  -14.7713 C   0  0  0  0  0  0  0  0  0  0  0  0
   27.9039  -20.6015  -14.3825 C   0  0  0  0  0  0  0  0  0  0  0  0
   27.9026  -21.3988  -13.1302 C   0  0  0  0  0  0  0  0  0  0  0  0
   26.4937  -21.2670  -12.5974 C   0  0  1  0  0  0  0  0  0  0  0  0
   26.4155  -20.2606  -11.5002 C   0  0  0  0  0  0  0  0  0  0  0  0
   25.7578  -19.1675  -11.6868 O   0  0  0  0  0  0  0  0  0  0  0  0
   25.3096  -21.0188   -6.3265 C   0  0  0  0  0  0  0  0  0  0  0  0
   24.3976  -20.6662   -7.5271 C   0  0  2  0  0  0  0  0  0  0  0  0
   23.1221  -21.4428   -7.3321 C   0  0  0  0  0  0  0  0  0  0  0  0
   25.1367  -20.9770   -8.7884 C   0  0  0  0  0  0  0  0  0  0  0  0
   26.3305  -20.1024   -8.9605 C   0  0  2  0  0  0  0  0  0  0  0  0
   27.0082  -20.3776  -10.2325 N   0  0  0  0  0  0  0  0  0  0  0  0
   27.2508  -20.2244   -7.8362 C   0  0  0  0  0  0  0  0  0  0  0  0
   27.3477  -19.0855   -6.9919 O   0  0  0  0  0  0  0  0  0  0  0  0
   27.9490  -21.2116   -7.5502 O   0  0  0  0  0  0  0  0  0  0  0  0
  2  1  1  1
  3  2  1  0
  4  3  1  0
  5  4  2  0
  6  7  1  0
  6  5  1  0
  7  8  2  0
  8  4  1  0
  9  2  1  0
  9 11  1  0
 10  9  2  0
 11 12  1  0
 12 13  1  0
 14 13  1  0
 15 11  1  0
 15 14  1  0
 15 16  1  1
 16 17  2  0
 19 18  1  1
 19 20  1  0
 19 21  1  0
 22 21  1  1
 22 23  1  0
 22 24  1  0
 23 16  1  0
 24 26  2  0
 24 25  1  0
M  END
$$$$
