HPL.pdb
     RDKit          3D

 26 27  0  0  1  0  0  0  0  0999 V2000
   20.6423  -20.9593  -12.9649 N   0  0  0  0  0  0  0  0  0  0  0  0
   21.8088  -21.2041  -13.7443 C   0  0  1  0  0  0  0  0  0  0  0  0
   21.5277  -21.2191  -15.2378 C   0  0  0  0  0  0  0  0  0  0  0  0
   20.5672  -22.3100  -15.5270 C   0  0  0  0  0  0  0  0  0  0  0  0
   20.6890  -23.6543  -15.3580 C   0  0  0  0  0  0  0  0  0  0  0  0
   19.5505  -24.2397  -15.7396 N   0  0  0  0  0  0  0  0  0  0  0  0
   18.6714  -23.2849  -16.1608 C   0  0  0  0  0  0  0  0  0  0  0  0
   19.3081  -22.1070  -16.0251 N   0  0  0  0  0  0  0  0  0  0  0  0
   22.9345  -20.2742  -13.4439 C   0  0  0  0  0  0  0  0  0  0  0  0
   22.6851  -19.0296  -13.3604 O   0  0  0  0  0  0  0  0  0  0  0  0
   24.2310  -20.7910  -13.2612 N   0  0  0  0  0  0  0  0  0  0  0  0
   24.6534  -22.1463  -13.2700 C   0  0  0  0  0  0  0  0  0  0  0  0
   26.1034  -22.1671  -12.8359 C   0  0  0  0  0  0  0  0  0  0  0  0
   26.4667  -20.7841  -12.4371 C   0  0  0  0  0  0  0  0  0  0  0  0
   25.3729  -19.9200  -13.0228 C   0  0  1  0  0  0  0  0  0  0  0  0
   25.8142  -19.2588  -14.2841 C   0  0  0  0  0  0  0  0  0  0  0  0
   25.6961  -19.8854  -15.4045 O   0  0  0  0  0  0  0  0  0  0  0  0
   24.8993  -15.5397  -15.0854 C   0  0  0  0  0  0  0  0  0  0  0  0
   26.2033  -15.0150  -15.7348 C   0  0  2  0  0  0  0  0  0  0  0  0
   25.9109  -14.8573  -17.2037 C   0  0  0  0  0  0  0  0  0  0  0  0
   27.3080  -15.9686  -15.4121 C   0  0  0  0  0  0  0  0  0  0  0  0
   26.8969  -17.3847  -15.6249 C   0  0  2  0  0  0  0  0  0  0  0  0
   26.3710  -17.9738  -14.3883 N   0  0  0  0  0  0  0  0  0  0  0  0
   27.9894  -18.1843  -16.1662 C   0  0  0  0  0  0  0  0  0  0  0  0
   28.1031  -18.1950  -17.5827 O   0  0  0  0  0  0  0  0  0  0  0  0
   28.8166  -18.8484  -15.5193 O   0  0  0  0  0  0  0  0  0  0  0  0
  2  1  1  1
  3  2  1  0
  4  3  1  0
  5  4  2  0
  6  7  1  0
  6  5  1  0
  7  8  2  0
  8  4  1  0
  9  2  1  0
  9 11  1  0
 10  9  2  0
 11 12  1  0
 12 13  1  0
 14 13  1  0
 15 11  1  0
 15 14  1  0
 15 16  1  6
 16 17  2  0
 19 18  1  1
 19 20  1  0
 19 21  1  0
 22 21  1  1
 22 23  1  0
 22 24  1  0
 23 16  1  0
 24 26  2  0
 24 25  1  0
M  END
$$$$
