HPL.pdb
     RDKit          3D

 26 27  0  0  1  0  0  0  0  0999 V2000
   17.3954  -11.3325  -15.4009 N   0  0  0  0  0  0  0  0  0  0  0  0
   17.6149   -9.9519  -15.1293 C   0  0  1  0  0  0  0  0  0  0  0  0
   16.5622   -9.0528  -15.7564 C   0  0  0  0  0  0  0  0  0  0  0  0
   16.6032   -9.2316  -17.2270 C   0  0  0  0  0  0  0  0  0  0  0  0
   15.7374   -9.8725  -18.0577 C   0  0  0  0  0  0  0  0  0  0  0  0
   16.1783   -9.7521  -19.3129 N   0  0  0  0  0  0  0  0  0  0  0  0
   17.3361   -9.0300  -19.3171 C   0  0  0  0  0  0  0  0  0  0  0  0
   17.5846   -8.7178  -18.0318 N   0  0  0  0  0  0  0  0  0  0  0  0
   17.7541   -9.6430  -13.6777 C   0  0  0  0  0  0  0  0  0  0  0  0
   17.0027  -10.2557  -12.8541 O   0  0  0  0  0  0  0  0  0  0  0  0
   18.7037   -8.6921  -13.2589 N   0  0  0  0  0  0  0  0  0  0  0  0
   19.6152   -7.9436  -14.0491 C   0  0  0  0  0  0  0  0  0  0  0  0
   20.5385   -7.2129  -13.0978 C   0  0  0  0  0  0  0  0  0  0  0  0
   20.2185   -7.6776  -11.7246 C   0  0  0  0  0  0  0  0  0  0  0  0
   18.8682   -8.3454  -11.8546 C   0  0  1  0  0  0  0  0  0  0  0  0
   17.7686   -7.4512  -11.3918 C   0  0  0  0  0  0  0  0  0  0  0  0
   17.3301   -6.5262  -12.1754 O   0  0  0  0  0  0  0  0  0  0  0  0
   13.6092   -7.2951  -10.9693 C   0  0  0  0  0  0  0  0  0  0  0  0
   14.2490   -8.1554   -9.8520 C   0  0  2  0  0  0  0  0  0  0  0  0
   13.1187   -8.8993   -9.1910 C   0  0  0  0  0  0  0  0  0  0  0  0
   15.0228   -7.2528   -8.9463 C   0  0  0  0  0  0  0  0  0  0  0  0
   16.1231   -6.5544   -9.6684 C   0  0  2  0  0  0  0  0  0  0  0  0
   17.1338   -7.5076  -10.1404 N   0  0  0  0  0  0  0  0  0  0  0  0
   16.7256   -5.5113   -8.8470 C   0  0  0  0  0  0  0  0  0  0  0  0
   15.9444   -4.3376   -8.6692 O   0  0  0  0  0  0  0  0  0  0  0  0
   17.8395   -5.5477   -8.2975 O   0  0  0  0  0  0  0  0  0  0  0  0
  2  1  1  1
  3  2  1  0
  4  3  1  0
  5  4  2  0
  6  7  1  0
  6  5  1  0
  7  8  2  0
  8  4  1  0
  9  2  1  0
  9 11  1  0
 10  9  2  0
 11 12  1  0
 12 13  1  0
 14 13  1  0
 15 11  1  0
 15 14  1  0
 15 16  1  6
 16 17  2  0
 19 18  1  6
 19 20  1  0
 19 21  1  0
 22 21  1  1
 22 23  1  0
 22 24  1  0
 23 16  1  0
 24 26  2  0
 24 25  1  0
M  END
$$$$
