HPL.pdb
     RDKit          3D

 26 27  0  0  1  0  0  0  0  0999 V2000
   23.1188  -18.6695  -18.0641 N   0  0  0  0  0  0  0  0  0  0  0  0
   23.9020  -18.0948  -17.0227 C   0  0  1  0  0  0  0  0  0  0  0  0
   23.1076  -17.1424  -16.1443 C   0  0  0  0  0  0  0  0  0  0  0  0
   22.5869  -16.0425  -16.9901 C   0  0  0  0  0  0  0  0  0  0  0  0
   23.0666  -15.5284  -18.1546 C   0  0  0  0  0  0  0  0  0  0  0  0
   22.2473  -14.5559  -18.5640 N   0  0  0  0  0  0  0  0  0  0  0  0
   21.2224  -14.4244  -17.6729 C   0  0  0  0  0  0  0  0  0  0  0  0
   21.4436  -15.3418  -16.7133 N   0  0  0  0  0  0  0  0  0  0  0  0
   24.6072  -19.1020  -16.1798 C   0  0  0  0  0  0  0  0  0  0  0  0
   23.9482  -20.1044  -15.7565 O   0  0  0  0  0  0  0  0  0  0  0  0
   25.9700  -18.9212  -15.8775 N   0  0  0  0  0  0  0  0  0  0  0  0
   26.8435  -17.8890  -16.3098 C   0  0  0  0  0  0  0  0  0  0  0  0
   28.2392  -18.2650  -15.8604 C   0  0  0  0  0  0  0  0  0  0  0  0
   28.1644  -19.6265  -15.2735 C   0  0  0  0  0  0  0  0  0  0  0  0
   26.6908  -19.8501  -15.0190 C   0  0  1  0  0  0  0  0  0  0  0  0
   26.3439  -19.6330  -13.5854 C   0  0  0  0  0  0  0  0  0  0  0  0
   26.0968  -18.4394  -13.1655 O   0  0  0  0  0  0  0  0  0  0  0  0
   21.6617  -21.2685  -11.2652 C   0  0  0  0  0  0  0  0  0  0  0  0
   22.9392  -20.5215  -10.8095 C   0  0  2  0  0  0  0  0  0  0  0  0
   22.4909  -19.1606  -10.3459 C   0  0  0  0  0  0  0  0  0  0  0  0
   23.9101  -20.5108  -11.9457 C   0  0  0  0  0  0  0  0  0  0  0  0
   25.3187  -20.6141  -11.4715 C   0  0  2  0  0  0  0  0  0  0  0  0
   26.2563  -20.6297  -12.6000 N   0  0  0  0  0  0  0  0  0  0  0  0
   25.5106  -21.7754  -10.6111 C   0  0  0  0  0  0  0  0  0  0  0  0
   25.6118  -21.5027   -9.2201 O   0  0  0  0  0  0  0  0  0  0  0  0
   25.5947  -22.9618  -10.9706 O   0  0  0  0  0  0  0  0  0  0  0  0
  2  1  1  6
  3  2  1  0
  4  3  1  0
  5  4  2  0
  6  7  1  0
  6  5  1  0
  7  8  2  0
  8  4  1  0
  9  2  1  0
  9 11  1  0
 10  9  2  0
 11 12  1  0
 12 13  1  0
 14 13  1  0
 15 11  1  0
 15 14  1  0
 15 16  1  1
 16 17  2  0
 19 18  1  6
 19 20  1  0
 19 21  1  0
 22 21  1  6
 22 23  1  0
 22 24  1  0
 23 16  1  0
 24 26  2  0
 24 25  1  0
M  END
$$$$
