HPL.pdb
     RDKit          3D

 26 27  0  0  1  0  0  0  0  0999 V2000
   25.6931  -19.0651  -16.9033 N   0  0  0  0  0  0  0  0  0  0  0  0
   26.3161  -18.7550  -15.6608 C   0  0  1  0  0  0  0  0  0  0  0  0
   25.8563  -17.4252  -15.0863 C   0  0  0  0  0  0  0  0  0  0  0  0
   26.1745  -16.3543  -16.0600 C   0  0  0  0  0  0  0  0  0  0  0  0
   27.3754  -15.9350  -16.5422 C   0  0  0  0  0  0  0  0  0  0  0  0
   27.1651  -14.9505  -17.4204 N   0  0  0  0  0  0  0  0  0  0  0  0
   25.8248  -14.7163  -17.5232 C   0  0  0  0  0  0  0  0  0  0  0  0
   25.2299  -15.5839  -16.6838 N   0  0  0  0  0  0  0  0  0  0  0  0
   26.1781  -19.8305  -14.6379 C   0  0  0  0  0  0  0  0  0  0  0  0
   25.0763  -20.4628  -14.5700 O   0  0  0  0  0  0  0  0  0  0  0  0
   27.2588  -20.1171  -13.7828 N   0  0  0  0  0  0  0  0  0  0  0  0
   28.5268  -19.4825  -13.7151 C   0  0  0  0  0  0  0  0  0  0  0  0
   29.3836  -20.2923  -12.7657 C   0  0  0  0  0  0  0  0  0  0  0  0
   28.6101  -21.5036  -12.3938 C   0  0  0  0  0  0  0  0  0  0  0  0
   27.1877  -21.1839  -12.7947 C   0  0  1  0  0  0  0  0  0  0  0  0
   26.3675  -20.7714  -11.6200 C   0  0  0  0  0  0  0  0  0  0  0  0
   26.2735  -19.5214  -11.3186 O   0  0  0  0  0  0  0  0  0  0  0  0
   25.9202  -21.4781   -7.0906 C   0  0  0  0  0  0  0  0  0  0  0  0
   26.3660  -20.4435   -8.1529 C   0  0  2  0  0  0  0  0  0  0  0  0
   27.0070  -19.3098   -7.3967 C   0  0  0  0  0  0  0  0  0  0  0  0
   25.1734  -20.0608   -8.9684 C   0  0  0  0  0  0  0  0  0  0  0  0
   24.6653  -21.2044   -9.7769 C   0  0  2  0  0  0  0  0  0  0  0  0
   25.6585  -21.6336  -10.7679 N   0  0  0  0  0  0  0  0  0  0  0  0
   23.3911  -20.8881  -10.4110 C   0  0  0  0  0  0  0  0  0  0  0  0
   22.3026  -20.6567   -9.5272 O   0  0  0  0  0  0  0  0  0  0  0  0
   23.1676  -20.8043  -11.6305 O   0  0  0  0  0  0  0  0  0  0  0  0
  2  1  1  6
  3  2  1  0
  4  3  1  0
  5  4  2  0
  6  7  1  0
  6  5  1  0
  7  8  2  0
  8  4  1  0
  9  2  1  0
  9 11  1  0
 10  9  2  0
 11 12  1  0
 12 13  1  0
 14 13  1  0
 15 11  1  0
 15 14  1  0
 15 16  1  1
 16 17  2  0
 19 18  1  1
 19 20  1  0
 19 21  1  0
 22 21  1  6
 22 23  1  0
 22 24  1  0
 23 16  1  0
 24 26  2  0
 24 25  1  0
M  END
$$$$
