HPL.pdb
     RDKit          3D

 26 27  0  0  1  0  0  0  0  0999 V2000
   24.4695  -21.8601  -13.3845 N   0  0  0  0  0  0  0  0  0  0  0  0
   25.3824  -20.8952  -12.8709 C   0  0  1  0  0  0  0  0  0  0  0  0
   24.7654  -19.5129  -12.7357 C   0  0  0  0  0  0  0  0  0  0  0  0
   24.4686  -18.9932  -14.0915 C   0  0  0  0  0  0  0  0  0  0  0  0
   25.3072  -18.5279  -15.0561 C   0  0  0  0  0  0  0  0  0  0  0  0
   24.5836  -18.1868  -16.1259 N   0  0  0  0  0  0  0  0  0  0  0  0
   23.2643  -18.4266  -15.8734 C   0  0  0  0  0  0  0  0  0  0  0  0
   23.2087  -18.9206  -14.6227 N   0  0  0  0  0  0  0  0  0  0  0  0
   26.0195  -21.3001  -11.5855 C   0  0  0  0  0  0  0  0  0  0  0  0
   25.2760  -21.7539  -10.6584 O   0  0  0  0  0  0  0  0  0  0  0  0
   27.4128  -21.1724  -11.4317 N   0  0  0  0  0  0  0  0  0  0  0  0
   28.3595  -20.6403  -12.3460 C   0  0  0  0  0  0  0  0  0  0  0  0
   29.7353  -20.9114  -11.7758 C   0  0  0  0  0  0  0  0  0  0  0  0
   29.5556  -21.7483  -10.5628 C   0  0  0  0  0  0  0  0  0  0  0  0
   28.0897  -21.6091  -10.2190 C   0  0  1  0  0  0  0  0  0  0  0  0
   27.8781  -20.6371   -9.1084 C   0  0  0  0  0  0  0  0  0  0  0  0
   27.5903  -19.4110   -9.3838 O   0  0  0  0  0  0  0  0  0  0  0  0
   25.4595  -20.9867   -5.2290 C   0  0  0  0  0  0  0  0  0  0  0  0
   26.8577  -21.6517   -5.2090 C   0  0  2  0  0  0  0  0  0  0  0  0
   26.9227  -22.4624   -3.9414 C   0  0  0  0  0  0  0  0  0  0  0  0
   27.8921  -20.5790   -5.3234 C   0  0  0  0  0  0  0  0  0  0  0  0
   27.8688  -19.9279   -6.6632 C   0  0  2  0  0  0  0  0  0  0  0  0
   27.9648  -20.9238   -7.7364 N   0  0  0  0  0  0  0  0  0  0  0  0
   28.9134  -18.9182   -6.7866 C   0  0  0  0  0  0  0  0  0  0  0  0
   28.6724  -17.6947   -6.1052 O   0  0  0  0  0  0  0  0  0  0  0  0
   29.9765  -19.0215   -7.4214 O   0  0  0  0  0  0  0  0  0  0  0  0
  2  1  1  1
  3  2  1  0
  4  3  1  0
  5  4  2  0
  6  7  1  0
  6  5  1  0
  7  8  2  0
  8  4  1  0
  9  2  1  0
  9 11  1  0
 10  9  2  0
 11 12  1  0
 12 13  1  0
 14 13  1  0
 15 11  1  0
 15 14  1  0
 15 16  1  1
 16 17  2  0
 19 18  1  1
 19 20  1  0
 19 21  1  0
 22 21  1  1
 22 23  1  0
 22 24  1  0
 23 16  1  0
 24 26  2  0
 24 25  1  0
M  END
$$$$
