HPL.pdb
     RDKit          3D

 26 27  0  0  1  0  0  0  0  0999 V2000
   18.3874  -27.3035   10.4381 N   0  0  0  0  0  0  0  0  0  0  0  0
   19.7023  -26.9038   10.0645 C   0  0  1  0  0  0  0  0  0  0  0  0
   19.8930  -25.3964   10.1005 C   0  0  0  0  0  0  0  0  0  0  0  0
   19.2237  -24.8070    8.9169 C   0  0  0  0  0  0  0  0  0  0  0  0
   19.3109  -25.1426    7.6015 C   0  0  0  0  0  0  0  0  0  0  0  0
   18.5051  -24.3408    6.8998 N   0  0  0  0  0  0  0  0  0  0  0  0
   17.8812  -23.4733    7.7484 C   0  0  0  0  0  0  0  0  0  0  0  0
   18.3314  -23.7705    8.9814 N   0  0  0  0  0  0  0  0  0  0  0  0
   20.7770  -27.5754   10.8494 C   0  0  0  0  0  0  0  0  0  0  0  0
   20.6376  -27.6670   12.1106 O   0  0  0  0  0  0  0  0  0  0  0  0
   21.9063  -28.0866   10.1827 N   0  0  0  0  0  0  0  0  0  0  0  0
   22.1994  -28.0660    8.7938 C   0  0  0  0  0  0  0  0  0  0  0  0
   23.4362  -28.9131    8.5837 C   0  0  0  0  0  0  0  0  0  0  0  0
   23.7684  -29.5434    9.8861 C   0  0  0  0  0  0  0  0  0  0  0  0
   22.9843  -28.7472   10.9046 C   0  0  1  0  0  0  0  0  0  0  0  0
   23.8474  -27.7533   11.6045 C   0  0  0  0  0  0  0  0  0  0  0  0
   23.9847  -26.5711   11.1090 O   0  0  0  0  0  0  0  0  0  0  0  0
   23.6263  -25.4691   15.2913 C   0  0  0  0  0  0  0  0  0  0  0  0
   24.0197  -26.9523   15.4986 C   0  0  2  0  0  0  0  0  0  0  0  0
   23.8919  -27.2216   16.9748 C   0  0  0  0  0  0  0  0  0  0  0  0
   25.3893  -27.1601   14.9375 C   0  0  0  0  0  0  0  0  0  0  0  0
   25.4142  -26.9845   13.4582 C   0  0  2  0  0  0  0  0  0  0  0  0
   24.5599  -27.9754   12.7941 N   0  0  0  0  0  0  0  0  0  0  0  0
   26.7749  -27.0279   12.9363 C   0  0  0  0  0  0  0  0  0  0  0  0
   27.0761  -28.1285   12.0893 O   0  0  0  0  0  0  0  0  0  0  0  0
   27.6832  -26.2095   13.1583 O   0  0  0  0  0  0  0  0  0  0  0  0
  2  1  1  1
  3  2  1  0
  4  3  1  0
  5  4  2  0
  6  7  1  0
  6  5  1  0
  7  8  2  0
  8  4  1  0
  9  2  1  0
  9 11  1  0
 10  9  2  0
 11 12  1  0
 12 13  1  0
 14 13  1  0
 15 11  1  0
 15 14  1  0
 15 16  1  6
 16 17  2  0
 19 18  1  1
 19 20  1  0
 19 21  1  0
 22 21  1  1
 22 23  1  0
 22 24  1  0
 23 16  1  0
 24 26  2  0
 24 25  1  0
M  END
$$$$
