HPL.pdb
     RDKit          3D

 26 27  0  0  1  0  0  0  0  0999 V2000
   23.5916  -19.2874  -18.6891 N   0  0  0  0  0  0  0  0  0  0  0  0
   24.4441  -18.6421  -17.7483 C   0  0  1  0  0  0  0  0  0  0  0  0
   23.8507  -17.3544  -17.2011 C   0  0  0  0  0  0  0  0  0  0  0  0
   23.7211  -16.3837  -18.3133 C   0  0  0  0  0  0  0  0  0  0  0  0
   24.6673  -15.6288  -18.9341 C   0  0  0  0  0  0  0  0  0  0  0  0
   24.0815  -14.9156  -19.8999 N   0  0  0  0  0  0  0  0  0  0  0  0
   22.7466  -15.1971  -19.9222 C   0  0  0  0  0  0  0  0  0  0  0  0
   22.5399  -16.0983  -18.9443 N   0  0  0  0  0  0  0  0  0  0  0  0
   24.8741  -19.5254  -16.6272 C   0  0  0  0  0  0  0  0  0  0  0  0
   23.9978  -20.2522  -16.0594 O   0  0  0  0  0  0  0  0  0  0  0  0
   26.2244  -19.5339  -16.2297 N   0  0  0  0  0  0  0  0  0  0  0  0
   27.2895  -18.7190  -16.6951 C   0  0  0  0  0  0  0  0  0  0  0  0
   28.5664  -19.2599  -16.0882 C   0  0  0  0  0  0  0  0  0  0  0  0
   28.2191  -20.5087  -15.3645 C   0  0  0  0  0  0  0  0  0  0  0  0
   26.7153  -20.4558  -15.2156 C   0  0  1  0  0  0  0  0  0  0  0  0
   26.3161  -20.0111  -13.8497 C   0  0  0  0  0  0  0  0  0  0  0  0
   26.1715  -18.7529  -13.6085 O   0  0  0  0  0  0  0  0  0  0  0  0
   24.3218  -22.2307   -8.4228 C   0  0  0  0  0  0  0  0  0  0  0  0
   24.4781  -20.9895   -9.3352 C   0  0  2  0  0  0  0  0  0  0  0  0
   23.1521  -20.2761   -9.3100 C   0  0  0  0  0  0  0  0  0  0  0  0
   24.9190  -21.4502  -10.6869 C   0  0  0  0  0  0  0  0  0  0  0  0
   25.6678  -20.3888  -11.4168 C   0  0  2  0  0  0  0  0  0  0  0  0
   26.0729  -20.8494  -12.7497 N   0  0  0  0  0  0  0  0  0  0  0  0
   26.8157  -19.9194  -10.6502 C   0  0  0  0  0  0  0  0  0  0  0  0
   26.5444  -18.9072   -9.6903 O   0  0  0  0  0  0  0  0  0  0  0  0
   27.9903  -20.3109  -10.7545 O   0  0  0  0  0  0  0  0  0  0  0  0
  2  1  1  1
  3  2  1  0
  4  3  1  0
  5  4  2  0
  6  7  1  0
  6  5  1  0
  7  8  2  0
  8  4  1  0
  9  2  1  0
  9 11  1  0
 10  9  2  0
 11 12  1  0
 12 13  1  0
 14 13  1  0
 15 11  1  0
 15 14  1  0
 15 16  1  1
 16 17  2  0
 19 18  1  1
 19 20  1  0
 19 21  1  0
 22 21  1  1
 22 23  1  0
 22 24  1  0
 23 16  1  0
 24 26  2  0
 24 25  1  0
M  END
$$$$
