HPL.pdb
     RDKit          3D

 26 27  0  0  1  0  0  0  0  0999 V2000
   23.5201  -21.9451  -13.2539 N   0  0  0  0  0  0  0  0  0  0  0  0
   24.2398  -20.8892  -12.6252 C   0  0  1  0  0  0  0  0  0  0  0  0
   23.3306  -19.8091  -12.0625 C   0  0  0  0  0  0  0  0  0  0  0  0
   22.5906  -19.1830  -13.1834 C   0  0  0  0  0  0  0  0  0  0  0  0
   21.2534  -19.1160  -13.4236 C   0  0  0  0  0  0  0  0  0  0  0  0
   21.0538  -18.4288  -14.5515 N   0  0  0  0  0  0  0  0  0  0  0  0
   22.2579  -18.0376  -15.0606 C   0  0  0  0  0  0  0  0  0  0  0  0
   23.1909  -18.5070  -14.2118 N   0  0  0  0  0  0  0  0  0  0  0  0
   25.1913  -21.3558  -11.5768 C   0  0  0  0  0  0  0  0  0  0  0  0
   24.7583  -22.1383  -10.6720 O   0  0  0  0  0  0  0  0  0  0  0  0
   26.5306  -20.9244  -11.6142 N   0  0  0  0  0  0  0  0  0  0  0  0
   27.1458  -20.0243  -12.5235 C   0  0  0  0  0  0  0  0  0  0  0  0
   28.6334  -20.0520  -12.2446 C   0  0  0  0  0  0  0  0  0  0  0  0
   28.8752  -21.1104  -11.2322 C   0  0  0  0  0  0  0  0  0  0  0  0
   27.5107  -21.3938  -10.6455 C   0  0  1  0  0  0  0  0  0  0  0  0
   27.3294  -20.7167   -9.3297 C   0  0  0  0  0  0  0  0  0  0  0  0
   26.8179  -19.5341   -9.2892 O   0  0  0  0  0  0  0  0  0  0  0  0
   29.8828  -20.9163   -3.7233 C   0  0  0  0  0  0  0  0  0  0  0  0
   28.7241  -20.3375   -4.5718 C   0  0  2  0  0  0  0  0  0  0  0  0
   27.5005  -20.3686   -3.6943 C   0  0  0  0  0  0  0  0  0  0  0  0
   28.6161  -21.1364   -5.8303 C   0  0  0  0  0  0  0  0  0  0  0  0
   27.7168  -20.4856   -6.8239 C   0  0  2  0  0  0  0  0  0  0  0  0
   27.6726  -21.2489   -8.0762 N   0  0  0  0  0  0  0  0  0  0  0  0
   28.0987  -19.0993   -7.0651 C   0  0  0  0  0  0  0  0  0  0  0  0
   27.2251  -18.1161   -6.5270 O   0  0  0  0  0  0  0  0  0  0  0  0
   29.0974  -18.7004   -7.6875 O   0  0  0  0  0  0  0  0  0  0  0  0
  2  1  1  1
  3  2  1  0
  4  3  1  0
  5  4  2  0
  6  7  1  0
  6  5  1  0
  7  8  2  0
  8  4  1  0
  9  2  1  0
  9 11  1  0
 10  9  2  0
 11 12  1  0
 12 13  1  0
 14 13  1  0
 15 11  1  0
 15 14  1  0
 15 16  1  1
 16 17  2  0
 19 18  1  1
 19 20  1  0
 19 21  1  0
 22 21  1  1
 22 23  1  0
 22 24  1  0
 23 16  1  0
 24 26  2  0
 24 25  1  0
M  END
$$$$
