HPL.pdb
     RDKit          3D

 26 27  0  0  1  0  0  0  0  0999 V2000
   13.8863   -8.9693  -12.4418 N   0  0  0  0  0  0  0  0  0  0  0  0
   14.6185   -8.5672  -11.2884 C   0  0  1  0  0  0  0  0  0  0  0  0
   15.2312   -9.7397  -10.5403 C   0  0  0  0  0  0  0  0  0  0  0  0
   14.1445  -10.6637  -10.1383 C   0  0  0  0  0  0  0  0  0  0  0  0
   13.8006  -11.8828  -10.6342 C   0  0  0  0  0  0  0  0  0  0  0  0
   12.7620  -12.3521   -9.9374 N   0  0  0  0  0  0  0  0  0  0  0  0
   12.4162  -11.4461   -8.9775 C   0  0  0  0  0  0  0  0  0  0  0  0
   13.2720  -10.4162   -9.1125 N   0  0  0  0  0  0  0  0  0  0  0  0
   15.6598   -7.5383  -11.5700 C   0  0  0  0  0  0  0  0  0  0  0  0
   16.2489   -7.5667  -12.6971 O   0  0  0  0  0  0  0  0  0  0  0  0
   15.9612   -6.5711  -10.5927 N   0  0  0  0  0  0  0  0  0  0  0  0
   15.4690   -6.4707   -9.2650 C   0  0  0  0  0  0  0  0  0  0  0  0
   15.9543   -5.1505   -8.7054 C   0  0  0  0  0  0  0  0  0  0  0  0
   16.6294   -4.4224   -9.8090 C   0  0  0  0  0  0  0  0  0  0  0  0
   16.8854   -5.4786  -10.8602 C   0  0  1  0  0  0  0  0  0  0  0  0
   18.2985   -5.9528  -10.8267 C   0  0  0  0  0  0  0  0  0  0  0  0
   18.6283   -6.9101  -10.0288 O   0  0  0  0  0  0  0  0  0  0  0  0
   21.2514   -9.1857  -14.1008 C   0  0  0  0  0  0  0  0  0  0  0  0
   21.6016   -8.1007  -13.0531 C   0  0  2  0  0  0  0  0  0  0  0  0
   22.3454   -8.8037  -11.9483 C   0  0  0  0  0  0  0  0  0  0  0  0
   20.3361   -7.4274  -12.6301 C   0  0  0  0  0  0  0  0  0  0  0  0
   20.6026   -6.1624  -11.8894 C   0  0  2  0  0  0  0  0  0  0  0  0
   19.3550   -5.4462  -11.6008 N   0  0  0  0  0  0  0  0  0  0  0  0
   21.5454   -5.3110  -12.6049 C   0  0  0  0  0  0  0  0  0  0  0  0
   20.9701   -4.2636  -13.3739 O   0  0  0  0  0  0  0  0  0  0  0  0
   22.7838   -5.4120  -12.6090 O   0  0  0  0  0  0  0  0  0  0  0  0
  2  1  1  6
  3  2  1  0
  4  3  1  0
  5  4  2  0
  6  7  1  0
  6  5  1  0
  7  8  2  0
  8  4  1  0
  9  2  1  0
  9 11  1  0
 10  9  2  0
 11 12  1  0
 12 13  1  0
 14 13  1  0
 15 11  1  0
 15 14  1  0
 15 16  1  1
 16 17  2  0
 19 18  1  6
 19 20  1  0
 19 21  1  0
 22 21  1  6
 22 23  1  0
 22 24  1  0
 23 16  1  0
 24 26  2  0
 24 25  1  0
M  END
$$$$
