HPL.pdb
     RDKit          3D

 26 27  0  0  1  0  0  0  0  0999 V2000
   23.5935  -21.8748  -13.0003 N   0  0  0  0  0  0  0  0  0  0  0  0
   24.6589  -20.9826  -12.6889 C   0  0  1  0  0  0  0  0  0  0  0  0
   24.2141  -19.5305  -12.6301 C   0  0  0  0  0  0  0  0  0  0  0  0
   23.7660  -19.1184  -13.9812 C   0  0  0  0  0  0  0  0  0  0  0  0
   24.3931  -19.2232  -15.1838 C   0  0  0  0  0  0  0  0  0  0  0  0
   23.5886  -18.7338  -16.1313 N   0  0  0  0  0  0  0  0  0  0  0  0
   22.4264  -18.3050  -15.5593 C   0  0  0  0  0  0  0  0  0  0  0  0
   22.5492  -18.5468  -14.2410 N   0  0  0  0  0  0  0  0  0  0  0  0
   25.3967  -21.3435  -11.4449 C   0  0  0  0  0  0  0  0  0  0  0  0
   24.7366  -21.8177  -10.4662 O   0  0  0  0  0  0  0  0  0  0  0  0
   26.7901  -21.1536  -11.3852 N   0  0  0  0  0  0  0  0  0  0  0  0
   27.6463  -20.5675  -12.3541 C   0  0  0  0  0  0  0  0  0  0  0  0
   29.0690  -20.7818  -11.8839 C   0  0  0  0  0  0  0  0  0  0  0  0
   29.0117  -21.6407  -10.6744 C   0  0  0  0  0  0  0  0  0  0  0  0
   27.5684  -21.5733  -10.2287 C   0  0  1  0  0  0  0  0  0  0  0  0
   27.3905  -20.6256   -9.0915 C   0  0  0  0  0  0  0  0  0  0  0  0
   26.8922  -19.4571   -9.3107 O   0  0  0  0  0  0  0  0  0  0  0  0
   26.3836  -21.5796   -4.5306 C   0  0  0  0  0  0  0  0  0  0  0  0
   27.8461  -21.7250   -5.0180 C   0  0  2  0  0  0  0  0  0  0  0  0
   28.6112  -22.3486   -3.8806 C   0  0  0  0  0  0  0  0  0  0  0  0
   28.3375  -20.3793   -5.4437 C   0  0  0  0  0  0  0  0  0  0  0  0
   27.6357  -19.8943   -6.6651 C   0  0  2  0  0  0  0  0  0  0  0  0
   27.7239  -20.8773   -7.7508 N   0  0  0  0  0  0  0  0  0  0  0  0
   28.1375  -18.5932   -7.0905 C   0  0  0  0  0  0  0  0  0  0  0  0
   27.5184  -17.4655   -6.4867 O   0  0  0  0  0  0  0  0  0  0  0  0
   29.0389  -18.3779   -7.9183 O   0  0  0  0  0  0  0  0  0  0  0  0
  2  1  1  1
  3  2  1  0
  4  3  1  0
  5  4  2  0
  6  7  1  0
  6  5  1  0
  7  8  2  0
  8  4  1  0
  9  2  1  0
  9 11  1  0
 10  9  2  0
 11 12  1  0
 12 13  1  0
 14 13  1  0
 15 11  1  0
 15 14  1  0
 15 16  1  1
 16 17  2  0
 19 18  1  1
 19 20  1  0
 19 21  1  0
 22 21  1  1
 22 23  1  0
 22 24  1  0
 23 16  1  0
 24 26  2  0
 24 25  1  0
M  END
$$$$
