ANC.pdb
     RDKit          3D

 20 19  0  0  1  0  0  0  0  0999 V2000
   14.3972   -8.9960   -9.9513 C   0  0  0  0  0  0  0  0  0  0  0  0
   13.9576   -9.7270  -11.1985 C   0  0  2  0  0  0  0  0  0  0  0  0
   13.3322  -11.0002  -10.9046 N   0  0  0  0  0  0  0  0  0  0  0  0
   15.1202   -9.9683  -12.0625 C   0  0  0  0  0  0  0  0  0  0  0  0
   15.8947  -10.9317  -11.8633 O   0  0  0  0  0  0  0  0  0  0  0  0
   17.6980  -10.9790  -16.7488 N   0  0  0  0  0  0  0  0  0  0  0  0
   17.1225   -9.7197  -16.4711 C   0  0  0  0  0  0  0  0  0  0  0  0
   17.5485   -8.7337  -17.1335 O   0  0  0  0  0  0  0  0  0  0  0  0
   16.0732   -9.4436  -15.4836 C   0  0  0  0  0  0  0  0  0  0  0  0
   16.5656   -9.3539  -14.0585 C   0  0  2  0  0  0  0  0  0  0  0  0
   15.4405   -9.1205  -13.1831 N   0  0  0  0  0  0  0  0  0  0  0  0
   17.5367   -8.2015  -13.9954 C   0  0  0  0  0  0  0  0  0  0  0  0
   17.1098   -7.0337  -13.8292 O   0  0  0  0  0  0  0  0  0  0  0  0
   18.9405   -8.3726  -14.1170 N   0  0  0  0  0  0  0  0  0  0  0  0
   19.8739   -7.2655  -14.0478 C   0  0  1  0  0  0  0  0  0  0  0  0
   21.2370   -7.7220  -13.5742 C   0  0  0  0  0  0  0  0  0  0  0  0
   21.1852   -8.3473  -11.8830 S   0  0  0  0  0  0  0  0  0  0  0  0
   19.9567   -6.5940  -15.3764 C   0  0  0  0  0  0  0  0  0  0  0  0
   20.3452   -5.2663  -15.4963 O   0  0  0  0  0  0  0  0  0  0  0  0
   19.6770   -7.2076  -16.4375 O   0  0  0  0  0  0  0  0  0  0  0  0
  2  1  1  1
  2  4  1  0
  3  2  1  0
  4  5  2  0
  6  7  1  0
  7  9  1  0
  8  7  2  0
 10  9  1  6
 11 10  1  0
 11  4  1  0
 12 10  1  0
 12 14  1  0
 13 12  2  0
 15 14  1  0
 15 16  1  6
 17 16  1  0
 18 15  1  0
 19 18  1  0
 20 18  2  0
M  END
$$$$
