ANC.pdb
     RDKit          3D

 20 19  0  0  1  0  0  0  0  0999 V2000
   19.8073  -15.0617  -17.0450 C   0  0  0  0  0  0  0  0  0  0  0  0
   18.8056  -14.4212  -17.9773 C   0  0  2  0  0  0  0  0  0  0  0  0
   18.8323  -15.0011  -19.3045 N   0  0  0  0  0  0  0  0  0  0  0  0
   19.0889  -12.9848  -18.0916 C   0  0  0  0  0  0  0  0  0  0  0  0
   20.0613  -12.5606  -18.7566 O   0  0  0  0  0  0  0  0  0  0  0  0
   16.3220   -7.4743  -17.4765 N   0  0  0  0  0  0  0  0  0  0  0  0
   17.2761   -8.4090  -17.9351 C   0  0  0  0  0  0  0  0  0  0  0  0
   18.3104   -7.9491  -18.4928 O   0  0  0  0  0  0  0  0  0  0  0  0
   17.1827   -9.8691  -17.8264 C   0  0  0  0  0  0  0  0  0  0  0  0
   18.5041  -10.5634  -17.5958 C   0  0  2  0  0  0  0  0  0  0  0  0
   18.2742  -11.9824  -17.4523 N   0  0  0  0  0  0  0  0  0  0  0  0
   19.0930   -9.9895  -16.3314 C   0  0  0  0  0  0  0  0  0  0  0  0
   18.6110  -10.3076  -15.2177 O   0  0  0  0  0  0  0  0  0  0  0  0
   20.1890   -9.0877  -16.3350 N   0  0  0  0  0  0  0  0  0  0  0  0
   20.6977   -8.4672  -15.1275 C   0  0  1  0  0  0  0  0  0  0  0  0
   21.8827   -9.2283  -14.5734 C   0  0  0  0  0  0  0  0  0  0  0  0
   22.2972   -8.6987  -12.8995 S   0  0  0  0  0  0  0  0  0  0  0  0
   21.0459   -7.0437  -15.4022 C   0  0  0  0  0  0  0  0  0  0  0  0
   21.0304   -6.0853  -14.3976 O   0  0  0  0  0  0  0  0  0  0  0  0
   21.3667   -6.6601  -16.5557 O   0  0  0  0  0  0  0  0  0  0  0  0
  2  1  1  1
  2  4  1  0
  3  2  1  0
  4  5  2  0
  6  7  1  0
  7  9  1  0
  8  7  2  0
 10  9  1  1
 11 10  1  0
 11  4  1  0
 12 10  1  0
 12 14  1  0
 13 12  2  0
 15 14  1  0
 15 16  1  6
 17 16  1  0
 18 15  1  0
 19 18  1  0
 20 18  2  0
M  END
$$$$
