ANC.pdb
     RDKit          3D

 20 19  0  0  1  0  0  0  0  0999 V2000
   19.7938  -12.4383  -18.6845 C   0  0  0  0  0  0  0  0  0  0  0  0
   20.5783  -11.8405  -17.5399 C   0  0  2  0  0  0  0  0  0  0  0  0
   20.3726  -12.5514  -16.2945 N   0  0  0  0  0  0  0  0  0  0  0  0
   20.1783  -10.4407  -17.3479 C   0  0  0  0  0  0  0  0  0  0  0  0
   20.3560   -9.5811  -18.2408 O   0  0  0  0  0  0  0  0  0  0  0  0
   16.5114   -9.0180  -17.2856 N   0  0  0  0  0  0  0  0  0  0  0  0
   16.6060   -8.8631  -15.8852 C   0  0  0  0  0  0  0  0  0  0  0  0
   15.5323   -8.9266  -15.2253 O   0  0  0  0  0  0  0  0  0  0  0  0
   17.8357   -8.6347  -15.1182 C   0  0  0  0  0  0  0  0  0  0  0  0
   19.0959   -8.6168  -15.9505 C   0  0  2  0  0  0  0  0  0  0  0  0
   19.5621   -9.9719  -16.1323 N   0  0  0  0  0  0  0  0  0  0  0  0
   20.1153   -7.8003  -15.1960 C   0  0  0  0  0  0  0  0  0  0  0  0
   20.5756   -8.2258  -14.1093 O   0  0  0  0  0  0  0  0  0  0  0  0
   20.5924   -6.5472  -15.6613 N   0  0  0  0  0  0  0  0  0  0  0  0
   21.5816   -5.7689  -14.9420 C   0  0  1  0  0  0  0  0  0  0  0  0
   22.9552   -5.9155  -15.5605 C   0  0  0  0  0  0  0  0  0  0  0  0
   24.1623   -4.8253  -14.7807 S   0  0  0  0  0  0  0  0  0  0  0  0
   21.1577   -4.3403  -14.8916 C   0  0  0  0  0  0  0  0  0  0  0  0
   21.4069   -3.5475  -13.7792 O   0  0  0  0  0  0  0  0  0  0  0  0
   20.5583   -3.8019  -15.8567 O   0  0  0  0  0  0  0  0  0  0  0  0
  2  1  1  6
  2  4  1  0
  3  2  1  0
  4  5  2  0
  6  7  1  0
  7  9  1  0
  8  7  2  0
 10  9  1  1
 11 10  1  0
 11  4  1  0
 12 10  1  0
 12 14  1  0
 13 12  2  0
 15 14  1  0
 15 16  1  6
 17 16  1  0
 18 15  1  0
 19 18  1  0
 20 18  2  0
M  END
$$$$
