ANC.pdb
     RDKit          3D

 20 19  0  0  1  0  0  0  0  0999 V2000
   15.8637   -9.8665  -14.5110 C   0  0  0  0  0  0  0  0  0  0  0  0
   17.3342   -9.7271  -14.1927 C   0  0  2  0  0  0  0  0  0  0  0  0
   17.7741  -10.6637  -13.1789 N   0  0  0  0  0  0  0  0  0  0  0  0
   17.6073   -8.3648  -13.7173 C   0  0  0  0  0  0  0  0  0  0  0  0
   17.2727   -7.3596  -14.3845 O   0  0  0  0  0  0  0  0  0  0  0  0
   15.9904   -6.2303  -10.6302 N   0  0  0  0  0  0  0  0  0  0  0  0
   17.1667   -6.5153   -9.9026 C   0  0  0  0  0  0  0  0  0  0  0  0
   17.0711   -6.5506   -8.6448 O   0  0  0  0  0  0  0  0  0  0  0  0
   18.4953   -6.7757  -10.4678 C   0  0  0  0  0  0  0  0  0  0  0  0
   18.5435   -6.7689  -11.9774 C   0  0  2  0  0  0  0  0  0  0  0  0
   18.2711   -8.1009  -12.4655 N   0  0  0  0  0  0  0  0  0  0  0  0
   19.9304   -6.3298  -12.3758 C   0  0  0  0  0  0  0  0  0  0  0  0
   20.9317   -6.8511  -11.8287 O   0  0  0  0  0  0  0  0  0  0  0  0
   20.1680   -5.3349  -13.3598 N   0  0  0  0  0  0  0  0  0  0  0  0
   21.4997   -4.9783  -13.8085 C   0  0  1  0  0  0  0  0  0  0  0  0
   21.8842   -5.7425  -15.0571 C   0  0  0  0  0  0  0  0  0  0  0  0
   21.9415   -7.5215  -14.7641 S   0  0  0  0  0  0  0  0  0  0  0  0
   21.5791   -3.5055  -14.0265 C   0  0  0  0  0  0  0  0  0  0  0  0
   22.7961   -2.8370  -14.0347 O   0  0  0  0  0  0  0  0  0  0  0  0
   20.5446   -2.8152  -14.2109 O   0  0  0  0  0  0  0  0  0  0  0  0
  2  1  1  1
  2  4  1  0
  3  2  1  0
  4  5  2  0
  6  7  1  0
  7  9  1  0
  8  7  2  0
 10  9  1  1
 11 10  1  0
 11  4  1  0
 12 10  1  0
 12 14  1  0
 13 12  2  0
 15 14  1  0
 15 16  1  6
 17 16  1  0
 18 15  1  0
 19 18  1  0
 20 18  2  0
M  END
$$$$
