ANC.pdb
     RDKit          3D

 20 19  0  0  1  0  0  0  0  0999 V2000
   26.7999  -10.2801  -15.7897 C   0  0  0  0  0  0  0  0  0  0  0  0
   25.6869  -11.2794  -15.5760 C   0  0  2  0  0  0  0  0  0  0  0  0
   25.9224  -12.5295  -16.2691 N   0  0  0  0  0  0  0  0  0  0  0  0
   24.4194  -10.7136  -16.0551 C   0  0  0  0  0  0  0  0  0  0  0  0
   23.8924  -11.1004  -17.1230 O   0  0  0  0  0  0  0  0  0  0  0  0
   19.5820   -8.6913  -16.3550 N   0  0  0  0  0  0  0  0  0  0  0  0
   20.0182   -9.9522  -15.8924 C   0  0  0  0  0  0  0  0  0  0  0  0
   19.1444  -10.8543  -15.7703 O   0  0  0  0  0  0  0  0  0  0  0  0
   21.3940  -10.3183  -15.5379 C   0  0  0  0  0  0  0  0  0  0  0  0
   22.4017   -9.2080  -15.7194 C   0  0  2  0  0  0  0  0  0  0  0  0
   23.7087   -9.6876  -15.3343 N   0  0  0  0  0  0  0  0  0  0  0  0
   21.9709   -8.0673  -14.8316 C   0  0  0  0  0  0  0  0  0  0  0  0
   22.2449   -8.0908  -13.6076 O   0  0  0  0  0  0  0  0  0  0  0  0
   21.2552   -6.9426  -15.3190 N   0  0  0  0  0  0  0  0  0  0  0  0
   21.2639   -5.6573  -14.6485 C   0  0  1  0  0  0  0  0  0  0  0  0
   22.5536   -4.9087  -14.9074 C   0  0  0  0  0  0  0  0  0  0  0  0
   22.6641   -3.4015  -13.9226 S   0  0  0  0  0  0  0  0  0  0  0  0
   20.0779   -4.8603  -15.0743 C   0  0  0  0  0  0  0  0  0  0  0  0
   19.3698   -4.0745  -14.1747 O   0  0  0  0  0  0  0  0  0  0  0  0
   19.6761   -4.8717  -16.2656 O   0  0  0  0  0  0  0  0  0  0  0  0
  2  1  1  6
  2  4  1  0
  3  2  1  0
  4  5  2  0
  6  7  1  0
  7  9  1  0
  8  7  2  0
 10  9  1  1
 11 10  1  0
 11  4  1  0
 12 10  1  0
 12 14  1  0
 13 12  2  0
 15 14  1  0
 15 16  1  6
 17 16  1  0
 18 15  1  0
 19 18  1  0
 20 18  2  0
M  END
$$$$
