ANC.pdb
     RDKit          3D

 20 19  0  0  1  0  0  0  0  0999 V2000
   31.2547  -20.6140  -10.8784 C   0  0  0  0  0  0  0  0  0  0  0  0
   30.1183  -21.5459  -11.2294 C   0  0  2  0  0  0  0  0  0  0  0  0
   30.4664  -22.4724  -12.2872 N   0  0  0  0  0  0  0  0  0  0  0  0
   28.9550  -20.7612  -11.6625 C   0  0  0  0  0  0  0  0  0  0  0  0
   28.5319  -19.7932  -10.9906 O   0  0  0  0  0  0  0  0  0  0  0  0
   28.5557  -18.3458  -14.8422 N   0  0  0  0  0  0  0  0  0  0  0  0
   27.8167  -19.3754  -15.4650 C   0  0  0  0  0  0  0  0  0  0  0  0
   27.9023  -19.4666  -16.7208 O   0  0  0  0  0  0  0  0  0  0  0  0
   26.9551  -20.3542  -14.7927 C   0  0  0  0  0  0  0  0  0  0  0  0
   27.0481  -20.3361  -13.2854 C   0  0  2  0  0  0  0  0  0  0  0  0
   28.2338  -21.0524  -12.8759 N   0  0  0  0  0  0  0  0  0  0  0  0
   25.8084  -21.0124  -12.7553 C   0  0  0  0  0  0  0  0  0  0  0  0
   25.6000  -22.2228  -13.0105 O   0  0  0  0  0  0  0  0  0  0  0  0
   24.8430  -20.3360  -11.9648 N   0  0  0  0  0  0  0  0  0  0  0  0
   23.6989  -21.0076  -11.3801 C   0  0  1  0  0  0  0  0  0  0  0  0
   23.6004  -20.7369   -9.8943 C   0  0  0  0  0  0  0  0  0  0  0  0
   25.0750  -21.2869   -9.0127 S   0  0  0  0  0  0  0  0  0  0  0  0
   22.4556  -20.5941  -12.0916 C   0  0  0  0  0  0  0  0  0  0  0  0
   22.4856  -19.6752  -13.1322 O   0  0  0  0  0  0  0  0  0  0  0  0
   21.3336  -21.0640  -11.7739 O   0  0  0  0  0  0  0  0  0  0  0  0
  2  1  1  6
  2  4  1  0
  3  2  1  0
  4  5  2  0
  6  7  1  0
  7  9  1  0
  8  7  2  0
 10  9  1  6
 11 10  1  0
 11  4  1  0
 12 10  1  0
 12 14  1  0
 13 12  2  0
 15 14  1  0
 15 16  1  1
 17 16  1  0
 18 15  1  0
 19 18  1  0
 20 18  2  0
M  END
$$$$
