ANC.pdb
     RDKit          3D

 20 19  0  0  1  0  0  0  0  0999 V2000
   15.0349  -10.2293  -15.0307 C   0  0  0  0  0  0  0  0  0  0  0  0
   15.8192  -10.9967  -16.0694 C   0  0  2  0  0  0  0  0  0  0  0  0
   15.6604  -12.4305  -15.9377 N   0  0  0  0  0  0  0  0  0  0  0  0
   17.2463  -10.6735  -15.9457 C   0  0  0  0  0  0  0  0  0  0  0  0
   17.9762  -11.2455  -15.1044 O   0  0  0  0  0  0  0  0  0  0  0  0
   22.1170   -8.5954  -16.8695 N   0  0  0  0  0  0  0  0  0  0  0  0
   21.2647   -8.6256  -17.9950 C   0  0  0  0  0  0  0  0  0  0  0  0
   21.7782   -8.3461  -19.1134 O   0  0  0  0  0  0  0  0  0  0  0  0
   19.8342   -8.9513  -17.9922 C   0  0  0  0  0  0  0  0  0  0  0  0
   19.2804   -9.3181  -16.6357 C   0  0  2  0  0  0  0  0  0  0  0  0
   17.8910   -9.6875  -16.7761 N   0  0  0  0  0  0  0  0  0  0  0  0
   19.4211   -8.1021  -15.7545 C   0  0  0  0  0  0  0  0  0  0  0  0
   18.6813   -7.1065  -15.9416 O   0  0  0  0  0  0  0  0  0  0  0  0
   20.3682   -8.0229  -14.7004 N   0  0  0  0  0  0  0  0  0  0  0  0
   20.4738   -6.8711  -13.8263 C   0  0  1  0  0  0  0  0  0  0  0  0
   20.8401   -7.2805  -12.4160 C   0  0  0  0  0  0  0  0  0  0  0  0
   19.5875   -8.3504  -11.6810 S   0  0  0  0  0  0  0  0  0  0  0  0
   21.4617   -5.9045  -14.3858 C   0  0  0  0  0  0  0  0  0  0  0  0
   21.6698   -4.6606  -13.8049 O   0  0  0  0  0  0  0  0  0  0  0  0
   22.1426   -6.1823  -15.4055 O   0  0  0  0  0  0  0  0  0  0  0  0
  2  1  1  1
  2  4  1  0
  3  2  1  0
  4  5  2  0
  6  7  1  0
  7  9  1  0
  8  7  2  0
 10  9  1  6
 11 10  1  0
 11  4  1  0
 12 10  1  0
 12 14  1  0
 13 12  2  0
 15 14  1  0
 15 16  1  1
 17 16  1  0
 18 15  1  0
 19 18  1  0
 20 18  2  0
M  END
$$$$
