ANC.pdb
     RDKit          3D

 20 19  0  0  1  0  0  0  0  0999 V2000
   13.7723  -12.3047  -12.5002 C   0  0  0  0  0  0  0  0  0  0  0  0
   15.0812  -11.5511  -12.5454 C   0  0  2  0  0  0  0  0  0  0  0  0
   16.0903  -12.1390  -11.6883 N   0  0  0  0  0  0  0  0  0  0  0  0
   14.8634  -10.1619  -12.1222 C   0  0  0  0  0  0  0  0  0  0  0  0
   14.0133   -9.4329  -12.6822 O   0  0  0  0  0  0  0  0  0  0  0  0
   16.5436   -5.8824   -8.1529 N   0  0  0  0  0  0  0  0  0  0  0  0
   15.5264   -6.7857   -8.5318 C   0  0  0  0  0  0  0  0  0  0  0  0
   14.3331   -6.4186   -8.3486 O   0  0  0  0  0  0  0  0  0  0  0  0
   15.7214   -8.1155   -9.1203 C   0  0  0  0  0  0  0  0  0  0  0  0
   15.3798   -8.2041  -10.5889 C   0  0  2  0  0  0  0  0  0  0  0  0
   15.6067   -9.5553  -11.0466 N   0  0  0  0  0  0  0  0  0  0  0  0
   16.2829   -7.2380  -11.3143 C   0  0  0  0  0  0  0  0  0  0  0  0
   17.5179   -7.4534  -11.3619 O   0  0  0  0  0  0  0  0  0  0  0  0
   15.7981   -6.0712  -11.9609 N   0  0  0  0  0  0  0  0  0  0  0  0
   16.6696   -5.1304  -12.6370 C   0  0  1  0  0  0  0  0  0  0  0  0
   16.7122   -5.3909  -14.1273 C   0  0  0  0  0  0  0  0  0  0  0  0
   17.7102   -4.1640  -14.9948 S   0  0  0  0  0  0  0  0  0  0  0  0
   16.2305   -3.7366  -12.3411 C   0  0  0  0  0  0  0  0  0  0  0  0
   17.1424   -2.6949  -12.2347 O   0  0  0  0  0  0  0  0  0  0  0  0
   15.0163   -3.4546  -12.1771 O   0  0  0  0  0  0  0  0  0  0  0  0
  2  1  1  1
  2  4  1  0
  3  2  1  0
  4  5  2  0
  6  7  1  0
  7  9  1  0
  8  7  2  0
 10  9  1  1
 11 10  1  0
 11  4  1  0
 12 10  1  0
 12 14  1  0
 13 12  2  0
 15 14  1  0
 15 16  1  6
 17 16  1  0
 18 15  1  0
 19 18  1  0
 20 18  2  0
M  END
$$$$
