ANC.pdb
     RDKit          3D

 20 19  0  0  1  0  0  0  0  0999 V2000
   13.3781  -11.5004  -14.5816 C   0  0  0  0  0  0  0  0  0  0  0  0
   14.8359  -11.5006  -14.1846 C   0  0  2  0  0  0  0  0  0  0  0  0
   15.1224  -12.4442  -13.1235 N   0  0  0  0  0  0  0  0  0  0  0  0
   15.2219  -10.1586  -13.7303 C   0  0  0  0  0  0  0  0  0  0  0  0
   15.2641   -9.1875  -14.5196 O   0  0  0  0  0  0  0  0  0  0  0  0
   16.0917   -6.8851   -8.4407 N   0  0  0  0  0  0  0  0  0  0  0  0
   15.9797   -7.1590   -9.8215 C   0  0  0  0  0  0  0  0  0  0  0  0
   16.2116   -6.2078  -10.6176 O   0  0  0  0  0  0  0  0  0  0  0  0
   15.6186   -8.4468  -10.4245 C   0  0  0  0  0  0  0  0  0  0  0  0
   15.9504   -8.5629  -11.8934 C   0  0  2  0  0  0  0  0  0  0  0  0
   15.5731   -9.8766  -12.3612 N   0  0  0  0  0  0  0  0  0  0  0  0
   17.4381   -8.3564  -12.0307 C   0  0  0  0  0  0  0  0  0  0  0  0
   18.2326   -9.1973  -11.5457 O   0  0  0  0  0  0  0  0  0  0  0  0
   17.9997   -7.2349  -12.6950 N   0  0  0  0  0  0  0  0  0  0  0  0
   19.4190   -7.1132  -12.9646 C   0  0  1  0  0  0  0  0  0  0  0  0
   19.9318   -8.2921  -13.7632 C   0  0  0  0  0  0  0  0  0  0  0  0
   21.6739   -8.1052  -14.1923 S   0  0  0  0  0  0  0  0  0  0  0  0
   19.6892   -5.8242  -13.6635 C   0  0  0  0  0  0  0  0  0  0  0  0
   18.7978   -5.2995  -14.5900 O   0  0  0  0  0  0  0  0  0  0  0  0
   20.7360   -5.1653  -13.4382 O   0  0  0  0  0  0  0  0  0  0  0  0
  2  1  1  1
  2  4  1  0
  3  2  1  0
  4  5  2  0
  6  7  1  0
  7  9  1  0
  8  7  2  0
 10  9  1  1
 11 10  1  0
 11  4  1  0
 12 10  1  0
 12 14  1  0
 13 12  2  0
 15 14  1  0
 15 16  1  6
 17 16  1  0
 18 15  1  0
 19 18  1  0
 20 18  2  0
M  END
$$$$
