ANC.pdb
     RDKit          3D

 20 19  0  0  1  0  0  0  0  0999 V2000
   21.9095  -15.3350  -18.2763 C   0  0  0  0  0  0  0  0  0  0  0  0
   21.7888  -13.8860  -18.6874 C   0  0  2  0  0  0  0  0  0  0  0  0
   22.5767  -13.5746  -19.8624 N   0  0  0  0  0  0  0  0  0  0  0  0
   22.2356  -13.0237  -17.5859 C   0  0  0  0  0  0  0  0  0  0  0  0
   21.7234  -13.1002  -16.4459 O   0  0  0  0  0  0  0  0  0  0  0  0
   26.3616  -10.1250  -14.7622 N   0  0  0  0  0  0  0  0  0  0  0  0
   25.6225   -9.7729  -15.9127 C   0  0  0  0  0  0  0  0  0  0  0  0
   25.3856   -8.5464  -16.0916 O   0  0  0  0  0  0  0  0  0  0  0  0
   25.1003  -10.6971  -16.9255 C   0  0  0  0  0  0  0  0  0  0  0  0
   23.6671  -11.1197  -16.7049 C   0  0  2  0  0  0  0  0  0  0  0  0
   23.2811  -12.0445  -17.7452 N   0  0  0  0  0  0  0  0  0  0  0  0
   22.8219   -9.8718  -16.7620 C   0  0  0  0  0  0  0  0  0  0  0  0
   22.5830   -9.3296  -17.8677 O   0  0  0  0  0  0  0  0  0  0  0  0
   22.2698   -9.2644  -15.6040 N   0  0  0  0  0  0  0  0  0  0  0  0
   21.3731   -8.1270  -15.6674 C   0  0  1  0  0  0  0  0  0  0  0  0
   20.1089   -8.3763  -14.8735 C   0  0  0  0  0  0  0  0  0  0  0  0
   19.2932   -9.9056  -15.3733 S   0  0  0  0  0  0  0  0  0  0  0  0
   22.0801   -6.9027  -15.1936 C   0  0  0  0  0  0  0  0  0  0  0  0
   21.4462   -5.6680  -15.1524 O   0  0  0  0  0  0  0  0  0  0  0  0
   23.2778   -6.9452  -14.8138 O   0  0  0  0  0  0  0  0  0  0  0  0
  2  1  1  1
  2  4  1  0
  3  2  1  0
  4  5  2  0
  6  7  1  0
  7  9  1  0
  8  7  2  0
 10  9  1  6
 11 10  1  0
 11  4  1  0
 12 10  1  0
 12 14  1  0
 13 12  2  0
 15 14  1  0
 15 16  1  1
 17 16  1  0
 18 15  1  0
 19 18  1  0
 20 18  2  0
M  END
$$$$
