ANC.pdb
     RDKit          3D

 20 19  0  0  1  0  0  0  0  0999 V2000
   20.4545  -12.0535  -17.8020 C   0  0  0  0  0  0  0  0  0  0  0  0
   20.0445  -10.7101  -18.3589 C   0  0  2  0  0  0  0  0  0  0  0  0
   20.7200  -10.3942  -19.6008 N   0  0  0  0  0  0  0  0  0  0  0  0
   20.3521   -9.6582  -17.3815 C   0  0  0  0  0  0  0  0  0  0  0  0
   19.9064   -9.7008  -16.2123 O   0  0  0  0  0  0  0  0  0  0  0  0
   23.4151   -9.2004  -15.3566 N   0  0  0  0  0  0  0  0  0  0  0  0
   23.8354   -8.0939  -16.1268 C   0  0  0  0  0  0  0  0  0  0  0  0
   25.0778   -7.8880  -16.2081 O   0  0  0  0  0  0  0  0  0  0  0  0
   22.9659   -7.1557  -16.8451 C   0  0  0  0  0  0  0  0  0  0  0  0
   21.4927   -7.4768  -16.7558 C   0  0  2  0  0  0  0  0  0  0  0  0
   21.1780   -8.5215  -17.7026 N   0  0  0  0  0  0  0  0  0  0  0  0
   20.7411   -6.2124  -17.0895 C   0  0  0  0  0  0  0  0  0  0  0  0
   20.8274   -5.7200  -18.2401 O   0  0  0  0  0  0  0  0  0  0  0  0
   19.9224   -5.5346  -16.1489 N   0  0  0  0  0  0  0  0  0  0  0  0
   19.1295   -4.3712  -16.4945 C   0  0  1  0  0  0  0  0  0  0  0  0
   17.7477   -4.4433  -15.8811 C   0  0  0  0  0  0  0  0  0  0  0  0
   16.9155   -5.9927  -16.2820 S   0  0  0  0  0  0  0  0  0  0  0  0
   19.8460   -3.1323  -16.0765 C   0  0  0  0  0  0  0  0  0  0  0  0
   19.3246   -1.8708  -16.3310 O   0  0  0  0  0  0  0  0  0  0  0  0
   20.9500   -3.1862  -15.4774 O   0  0  0  0  0  0  0  0  0  0  0  0
  2  1  1  1
  2  4  1  0
  3  2  1  0
  4  5  2  0
  6  7  1  0
  7  9  1  0
  8  7  2  0
 10  9  1  6
 11 10  1  0
 11  4  1  0
 12 10  1  0
 12 14  1  0
 13 12  2  0
 15 14  1  0
 15 16  1  1
 17 16  1  0
 18 15  1  0
 19 18  1  0
 20 18  2  0
M  END
$$$$
