ANC.pdb
     RDKit          3D

 20 19  0  0  1  0  0  0  0  0999 V2000
   18.9268  -13.3535  -17.5490 C   0  0  0  0  0  0  0  0  0  0  0  0
   18.5259  -12.3477  -16.4951 C   0  0  2  0  0  0  0  0  0  0  0  0
   17.1227  -12.4379  -16.1466 N   0  0  0  0  0  0  0  0  0  0  0  0
   18.7976  -10.9896  -16.9831 C   0  0  0  0  0  0  0  0  0  0  0  0
   19.3114  -10.7888  -18.1071 O   0  0  0  0  0  0  0  0  0  0  0  0
   17.6991   -5.8844  -18.7679 N   0  0  0  0  0  0  0  0  0  0  0  0
   17.6271   -6.3950  -17.4533 C   0  0  0  0  0  0  0  0  0  0  0  0
   17.6883   -5.5613  -16.5079 O   0  0  0  0  0  0  0  0  0  0  0  0
   17.4873   -7.8060  -17.0764 C   0  0  0  0  0  0  0  0  0  0  0  0
   18.7773   -8.4708  -16.6579 C   0  0  2  0  0  0  0  0  0  0  0  0
   18.4931   -9.8136  -16.2075 N   0  0  0  0  0  0  0  0  0  0  0  0
   19.3592   -7.6458  -15.5371 C   0  0  0  0  0  0  0  0  0  0  0  0
   18.8111   -7.6508  -14.4087 O   0  0  0  0  0  0  0  0  0  0  0  0
   20.5208   -6.8458  -15.6954 N   0  0  0  0  0  0  0  0  0  0  0  0
   21.1582   -6.1615  -14.5876 C   0  0  1  0  0  0  0  0  0  0  0  0
   22.3854   -6.9080  -14.1107 C   0  0  0  0  0  0  0  0  0  0  0  0
   21.9652   -8.5247  -13.4299 S   0  0  0  0  0  0  0  0  0  0  0  0
   21.4923   -4.7639  -14.9854 C   0  0  0  0  0  0  0  0  0  0  0  0
   21.2964   -4.3117  -16.2835 O   0  0  0  0  0  0  0  0  0  0  0  0
   21.9643   -3.9438  -14.1576 O   0  0  0  0  0  0  0  0  0  0  0  0
  2  1  1  6
  2  4  1  0
  3  2  1  0
  4  5  2  0
  6  7  1  0
  7  9  1  0
  8  7  2  0
 10  9  1  1
 11 10  1  0
 11  4  1  0
 12 10  1  0
 12 14  1  0
 13 12  2  0
 15 14  1  0
 15 16  1  6
 17 16  1  0
 18 15  1  0
 19 18  1  0
 20 18  2  0
M  END
$$$$
