ANC.pdb
     RDKit          3D

 20 19  0  0  1  0  0  0  0  0999 V2000
   26.5675  -32.7826  -10.5957 C   0  0  0  0  0  0  0  0  0  0  0  0
   25.1581  -33.3257  -10.5549 C   0  0  2  0  0  0  0  0  0  0  0  0
   24.2901  -32.6910  -11.5256 N   0  0  0  0  0  0  0  0  0  0  0  0
   24.5897  -33.1182   -9.2169 C   0  0  0  0  0  0  0  0  0  0  0  0
   23.9203  -32.0965   -8.9417 O   0  0  0  0  0  0  0  0  0  0  0  0
   21.2070  -34.8163   -8.3265 N   0  0  0  0  0  0  0  0  0  0  0  0
   21.8155  -34.3447   -7.1427 C   0  0  0  0  0  0  0  0  0  0  0  0
   21.2079  -33.4421   -6.5035 O   0  0  0  0  0  0  0  0  0  0  0  0
   23.0906  -34.8030   -6.5800 C   0  0  0  0  0  0  0  0  0  0  0  0
   24.2492  -33.8624   -6.8126 C   0  0  2  0  0  0  0  0  0  0  0  0
   24.7645  -34.0672   -8.1464 N   0  0  0  0  0  0  0  0  0  0  0  0
   25.3000  -34.1879   -5.7806 C   0  0  0  0  0  0  0  0  0  0  0  0
   26.1818  -35.0430   -6.0356 O   0  0  0  0  0  0  0  0  0  0  0  0
   25.3448  -33.5636   -4.5067 N   0  0  0  0  0  0  0  0  0  0  0  0
   26.3551  -33.8770   -3.5153 C   0  0  1  0  0  0  0  0  0  0  0  0
   26.4448  -32.7971   -2.4587 C   0  0  0  0  0  0  0  0  0  0  0  0
   27.7884  -33.1063   -1.2955 S   0  0  0  0  0  0  0  0  0  0  0  0
   26.0680  -35.2085   -2.9088 C   0  0  0  0  0  0  0  0  0  0  0  0
   27.0700  -35.9717   -2.3244 O   0  0  0  0  0  0  0  0  0  0  0  0
   24.9059  -35.6883   -2.9052 O   0  0  0  0  0  0  0  0  0  0  0  0
  2  1  1  1
  2  4  1  0
  3  2  1  0
  4  5  2  0
  6  7  1  0
  7  9  1  0
  8  7  2  0
 10  9  1  1
 11 10  1  0
 11  4  1  0
 12 10  1  0
 12 14  1  0
 13 12  2  0
 15 14  1  0
 15 16  1  1
 17 16  1  0
 18 15  1  0
 19 18  1  0
 20 18  2  0
M  END
$$$$
