ANC.pdb
     RDKit          3D

 20 19  0  0  1  0  0  0  0  0999 V2000
   22.5777  -15.3629  -17.4998 C   0  0  0  0  0  0  0  0  0  0  0  0
   22.4596  -13.9920  -18.1241 C   0  0  2  0  0  0  0  0  0  0  0  0
   23.3325  -13.8258  -19.2682 N   0  0  0  0  0  0  0  0  0  0  0  0
   22.7981  -12.9674  -17.1281 C   0  0  0  0  0  0  0  0  0  0  0  0
   22.2700  -12.9588  -15.9929 O   0  0  0  0  0  0  0  0  0  0  0  0
   26.1275  -12.4411  -15.2793 N   0  0  0  0  0  0  0  0  0  0  0  0
   26.4082  -11.2464  -15.9780 C   0  0  0  0  0  0  0  0  0  0  0  0
   27.6178  -10.8954  -16.0550 O   0  0  0  0  0  0  0  0  0  0  0  0
   25.4272  -10.3689  -16.6262 C   0  0  0  0  0  0  0  0  0  0  0  0
   23.9935  -10.8217  -16.4818 C   0  0  2  0  0  0  0  0  0  0  0  0
   23.7496  -11.9174  -17.3911 N   0  0  0  0  0  0  0  0  0  0  0  0
   23.1182   -9.6419  -16.8236 C   0  0  0  0  0  0  0  0  0  0  0  0
   23.0649   -9.2257  -18.0058 O   0  0  0  0  0  0  0  0  0  0  0  0
   22.3335   -8.9619  -15.8559 N   0  0  0  0  0  0  0  0  0  0  0  0
   21.4208   -7.8893  -16.1999 C   0  0  1  0  0  0  0  0  0  0  0  0
   20.0086   -8.4031  -16.3798 C   0  0  0  0  0  0  0  0  0  0  0  0
   18.8117   -7.0569  -16.4749 S   0  0  0  0  0  0  0  0  0  0  0  0
   21.4831   -6.8232  -15.1595 C   0  0  0  0  0  0  0  0  0  0  0  0
   21.1694   -5.5027  -15.4529 O   0  0  0  0  0  0  0  0  0  0  0  0
   21.8226   -7.0827  -13.9771 O   0  0  0  0  0  0  0  0  0  0  0  0
  2  1  1  1
  2  4  1  0
  3  2  1  0
  4  5  2  0
  6  7  1  0
  7  9  1  0
  8  7  2  0
 10  9  1  6
 11 10  1  0
 11  4  1  0
 12 10  1  0
 12 14  1  0
 13 12  2  0
 15 14  1  0
 15 16  1  1
 17 16  1  0
 18 15  1  0
 19 18  1  0
 20 18  2  0
M  END
$$$$
