CNW.pdb
     RDKit          3D

 29 30  0  0  1  0  0  0  0  0999 V2000
   26.7820  -18.3780  -16.5279 N   0  0  0  0  0  0  0  0  0  0  0  0
   27.3508  -18.4100  -15.2050 C   0  0  1  0  0  0  0  0  0  0  0  0
   28.3504  -17.2974  -14.9769 C   0  0  0  0  0  0  0  0  0  0  0  0
   29.9103  -17.6083  -15.8177 S   0  0  0  0  0  0  0  0  0  0  0  0
   26.2928  -18.4212  -14.1704 C   0  0  0  0  0  0  0  0  0  0  0  0
   25.6827  -17.3484  -13.9406 O   0  0  0  0  0  0  0  0  0  0  0  0
   23.3960  -18.3927  -14.2252 N   0  0  0  0  0  0  0  0  0  0  0  0
   22.9021  -19.6623  -13.7720 C   0  0  0  0  0  0  0  0  0  0  0  0
   21.8070  -20.0343  -14.2205 O   0  0  0  0  0  0  0  0  0  0  0  0
   23.7619  -20.3760  -12.8212 C   0  0  0  0  0  0  0  0  0  0  0  0
   25.0007  -19.6656  -12.4134 C   0  0  2  0  0  0  0  0  0  0  0  0
   25.9941  -19.6190  -13.4704 N   0  0  0  0  0  0  0  0  0  0  0  0
   25.6184  -20.2101  -11.1768 C   0  0  0  0  0  0  0  0  0  0  0  0
   26.8668  -20.2984  -11.1161 O   0  0  0  0  0  0  0  0  0  0  0  0
   24.8728  -20.6390  -10.0497 N   0  0  0  0  0  0  0  0  0  0  0  0
   25.4673  -21.2214   -8.8494 C   0  0  1  0  0  0  0  0  0  0  0  0
   26.6151  -20.4037   -8.3697 C   0  0  0  0  0  0  0  0  0  0  0  0
   26.8949  -20.4732   -6.9353 C   0  0  0  0  0  0  0  0  0  0  0  0
   26.2202  -21.2324   -5.9824 C   0  0  0  0  0  0  0  0  0  0  0  0
   26.7621  -20.9958   -4.7750 N   0  0  0  0  0  0  0  0  0  0  0  0
   27.7805  -20.1016   -4.8865 C   0  0  0  0  0  0  0  0  0  0  0  0
   28.6460  -19.5502   -3.9854 C   0  0  0  0  0  0  0  0  0  0  0  0
   29.5905  -18.6723   -4.4616 C   0  0  0  0  0  0  0  0  0  0  0  0
   29.7053  -18.3270   -5.7813 C   0  0  0  0  0  0  0  0  0  0  0  0
   28.8255  -18.8899   -6.6792 C   0  0  0  0  0  0  0  0  0  0  0  0
   27.8569  -19.7792   -6.2448 C   0  0  0  0  0  0  0  0  0  0  0  0
   24.4895  -21.6689   -7.8587 C   0  0  0  0  0  0  0  0  0  0  0  0
   23.3139  -21.2171   -7.7726 O   0  0  0  0  0  0  0  0  0  0  0  0
   24.8364  -22.6496   -6.9473 O   0  0  0  0  0  0  0  0  0  0  0  0
  2  5  1  0
  2  1  1  6
  3  2  1  0
  4  3  1  0
  5  6  2  0
  7  8  1  0
  8 10  1  0
  9  8  2  0
 11 10  1  6
 12 11  1  0
 12  5  1  0
 13 11  1  0
 13 14  2  0
 15 13  1  0
 16 15  1  0
 16 27  1  0
 16 17  1  1
 18 17  1  0
 19 18  2  0
 20 21  1  0
 20 19  1  0
 21 26  2  0
 22 21  1  0
 22 23  2  0
 23 24  1  0
 24 25  2  0
 26 18  1  0
 26 25  1  0
 27 28  2  0
 27 29  1  0
M  END
$$$$
