CNW.pdb
     RDKit          3D

 29 30  0  0  1  0  0  0  0  0999 V2000
   27.7820  -19.4877  -17.2909 N   0  0  0  0  0  0  0  0  0  0  0  0
   27.4464  -19.3314  -15.8989 C   0  0  1  0  0  0  0  0  0  0  0  0
   27.9335  -18.0172  -15.3292 C   0  0  0  0  0  0  0  0  0  0  0  0
   29.6364  -17.6696  -15.7940 S   0  0  0  0  0  0  0  0  0  0  0  0
   25.9963  -19.5253  -15.6757 C   0  0  0  0  0  0  0  0  0  0  0  0
   25.2105  -19.2091  -16.6021 O   0  0  0  0  0  0  0  0  0  0  0  0
   24.4030  -24.0720  -15.9470 N   0  0  0  0  0  0  0  0  0  0  0  0
   25.3752  -23.7952  -14.9275 C   0  0  0  0  0  0  0  0  0  0  0  0
   25.6783  -24.7286  -14.1687 O   0  0  0  0  0  0  0  0  0  0  0  0
   25.8999  -22.4252  -14.9048 C   0  0  0  0  0  0  0  0  0  0  0  0
   24.9921  -21.3966  -14.3358 C   0  0  2  0  0  0  0  0  0  0  0  0
   25.5299  -20.0530  -14.4435 N   0  0  0  0  0  0  0  0  0  0  0  0
   24.6014  -21.6623  -12.9273 C   0  0  0  0  0  0  0  0  0  0  0  0
   23.9959  -22.7265  -12.6611 O   0  0  0  0  0  0  0  0  0  0  0  0
   24.8760  -20.7757  -11.8556 N   0  0  0  0  0  0  0  0  0  0  0  0
   24.2194  -20.8400  -10.5524 C   0  0  1  0  0  0  0  0  0  0  0  0
   25.0405  -20.1721   -9.5056 C   0  0  0  0  0  0  0  0  0  0  0  0
   26.4279  -20.6237   -9.3960 C   0  0  0  0  0  0  0  0  0  0  0  0
   27.1305  -21.4112  -10.3047 C   0  0  0  0  0  0  0  0  0  0  0  0
   28.3671  -21.6302   -9.8248 N   0  0  0  0  0  0  0  0  0  0  0  0
   28.5180  -21.0138   -8.6221 C   0  0  0  0  0  0  0  0  0  0  0  0
   29.5599  -20.9137   -7.7449 C   0  0  0  0  0  0  0  0  0  0  0  0
   29.3645  -20.1744   -6.6026 C   0  0  0  0  0  0  0  0  0  0  0  0
   28.1888  -19.5400   -6.3039 C   0  0  0  0  0  0  0  0  0  0  0  0
   27.1459  -19.6498   -7.1970 C   0  0  0  0  0  0  0  0  0  0  0  0
   27.2970  -20.3849   -8.3609 C   0  0  0  0  0  0  0  0  0  0  0  0
   22.7894  -20.5371  -10.5916 C   0  0  0  0  0  0  0  0  0  0  0  0
   22.2393  -19.8411  -11.4896 O   0  0  0  0  0  0  0  0  0  0  0  0
   21.9566  -21.0310   -9.6039 O   0  0  0  0  0  0  0  0  0  0  0  0
  2  5  1  0
  2  1  1  6
  3  2  1  0
  4  3  1  0
  5  6  2  0
  7  8  1  0
  8 10  1  0
  9  8  2  0
 11 10  1  1
 12 11  1  0
 12  5  1  0
 13 11  1  0
 13 14  2  0
 15 13  1  0
 16 15  1  0
 16 27  1  0
 16 17  1  1
 18 17  1  0
 19 18  2  0
 20 21  1  0
 20 19  1  0
 21 26  2  0
 22 21  1  0
 22 23  2  0
 23 24  1  0
 24 25  2  0
 26 18  1  0
 26 25  1  0
 27 28  2  0
 27 29  1  0
M  END
$$$$
