CNW.pdb
     RDKit          3D

 29 30  0  0  1  0  0  0  0  0999 V2000
   25.1024  -17.1353  -18.3628 N   0  0  0  0  0  0  0  0  0  0  0  0
   24.4687  -17.9331  -17.3447 C   0  0  1  0  0  0  0  0  0  0  0  0
   23.0268  -18.2530  -17.6729 C   0  0  0  0  0  0  0  0  0  0  0  0
   22.0070  -16.7727  -17.7480 S   0  0  0  0  0  0  0  0  0  0  0  0
   25.2535  -19.1551  -17.0603 C   0  0  0  0  0  0  0  0  0  0  0  0
   25.1803  -20.1053  -17.8774 O   0  0  0  0  0  0  0  0  0  0  0  0
   27.8262  -17.9757  -14.0216 N   0  0  0  0  0  0  0  0  0  0  0  0
   28.5669  -19.1993  -14.1453 C   0  0  0  0  0  0  0  0  0  0  0  0
   29.3293  -19.4940  -13.2121 O   0  0  0  0  0  0  0  0  0  0  0  0
   28.3308  -19.9637  -15.3751 C   0  0  0  0  0  0  0  0  0  0  0  0
   26.9224  -20.3635  -15.6252 C   0  0  2  0  0  0  0  0  0  0  0  0
   26.0568  -19.2297  -15.8927 N   0  0  0  0  0  0  0  0  0  0  0  0
   26.3365  -21.1881  -14.5371 C   0  0  0  0  0  0  0  0  0  0  0  0
   26.8730  -22.2854  -14.2579 O   0  0  0  0  0  0  0  0  0  0  0  0
   25.1959  -20.8037  -13.7877 N   0  0  0  0  0  0  0  0  0  0  0  0
   24.6189  -21.6021  -12.7093 C   0  0  1  0  0  0  0  0  0  0  0  0
   25.6736  -22.0809  -11.7742 C   0  0  0  0  0  0  0  0  0  0  0  0
   25.9852  -21.1940  -10.6530 C   0  0  0  0  0  0  0  0  0  0  0  0
   25.0881  -20.4315   -9.9091 C   0  0  0  0  0  0  0  0  0  0  0  0
   25.7727  -19.7301   -8.9889 N   0  0  0  0  0  0  0  0  0  0  0  0
   27.1020  -19.9978   -9.0905 C   0  0  0  0  0  0  0  0  0  0  0  0
   28.1993  -19.5701   -8.3990 C   0  0  0  0  0  0  0  0  0  0  0  0
   29.4235  -20.0755   -8.7673 C   0  0  0  0  0  0  0  0  0  0  0  0
   29.5951  -20.9773   -9.7829 C   0  0  0  0  0  0  0  0  0  0  0  0
   28.4801  -21.3996  -10.4725 C   0  0  0  0  0  0  0  0  0  0  0  0
   27.2263  -20.9169  -10.1367 C   0  0  0  0  0  0  0  0  0  0  0  0
   23.4046  -21.0296  -12.1299 C   0  0  0  0  0  0  0  0  0  0  0  0
   23.0630  -19.8211  -12.2577 O   0  0  0  0  0  0  0  0  0  0  0  0
   22.5511  -21.8323  -11.3950 O   0  0  0  0  0  0  0  0  0  0  0  0
  2  5  1  0
  2  1  1  6
  3  2  1  0
  4  3  1  0
  5  6  2  0
  7  8  1  0
  8 10  1  0
  9  8  2  0
 11 10  1  1
 12 11  1  0
 12  5  1  0
 13 11  1  0
 13 14  2  0
 15 13  1  0
 16 15  1  0
 16 27  1  0
 16 17  1  1
 18 17  1  0
 19 18  2  0
 20 21  1  0
 20 19  1  0
 21 26  2  0
 22 21  1  0
 22 23  2  0
 23 24  1  0
 24 25  2  0
 26 18  1  0
 26 25  1  0
 27 28  2  0
 27 29  1  0
M  END
$$$$
