CNW.pdb
     RDKit          3D

 29 30  0  0  1  0  0  0  0  0999 V2000
   29.0716  -17.4809  -17.7330 N   0  0  0  0  0  0  0  0  0  0  0  0
   29.0316  -18.4491  -16.6674 C   0  0  1  0  0  0  0  0  0  0  0  0
   29.9800  -18.1084  -15.5389 C   0  0  0  0  0  0  0  0  0  0  0  0
   31.6932  -18.0649  -16.0865 S   0  0  0  0  0  0  0  0  0  0  0  0
   27.6480  -18.6509  -16.1827 C   0  0  0  0  0  0  0  0  0  0  0  0
   27.0022  -17.6417  -15.8083 O   0  0  0  0  0  0  0  0  0  0  0  0
   22.6914  -20.1198  -17.7638 N   0  0  0  0  0  0  0  0  0  0  0  0
   24.0700  -19.7679  -17.5716 C   0  0  0  0  0  0  0  0  0  0  0  0
   24.4461  -18.6831  -18.0412 O   0  0  0  0  0  0  0  0  0  0  0  0
   24.8785  -20.7452  -16.8341 C   0  0  0  0  0  0  0  0  0  0  0  0
   25.7168  -20.1933  -15.7394 C   0  0  2  0  0  0  0  0  0  0  0  0
   27.0884  -19.9547  -16.1493 N   0  0  0  0  0  0  0  0  0  0  0  0
   25.7055  -21.0222  -14.5065 C   0  0  0  0  0  0  0  0  0  0  0  0
   26.5270  -21.9630  -14.4060 O   0  0  0  0  0  0  0  0  0  0  0  0
   24.8127  -20.8100  -13.4257 N   0  0  0  0  0  0  0  0  0  0  0  0
   24.7862  -21.6261  -12.2146 C   0  0  1  0  0  0  0  0  0  0  0  0
   26.1491  -21.7636  -11.6318 C   0  0  0  0  0  0  0  0  0  0  0  0
   26.4026  -20.9996  -10.4100 C   0  0  0  0  0  0  0  0  0  0  0  0
   25.4677  -20.3177   -9.6351 C   0  0  0  0  0  0  0  0  0  0  0  0
   26.1043  -19.7178   -8.6141 N   0  0  0  0  0  0  0  0  0  0  0  0
   27.4378  -19.9756   -8.6782 C   0  0  0  0  0  0  0  0  0  0  0  0
   28.4986  -19.6246   -7.8929 C   0  0  0  0  0  0  0  0  0  0  0  0
   29.7410  -20.0908   -8.2519 C   0  0  0  0  0  0  0  0  0  0  0  0
   29.9651  -20.8815   -9.3467 C   0  0  0  0  0  0  0  0  0  0  0  0
   28.8864  -21.2273  -10.1304 C   0  0  0  0  0  0  0  0  0  0  0  0
   27.6161  -20.7803   -9.8075 C   0  0  0  0  0  0  0  0  0  0  0  0
   23.6866  -21.3056  -11.3056 C   0  0  0  0  0  0  0  0  0  0  0  0
   23.3346  -22.0358  -10.3380 O   0  0  0  0  0  0  0  0  0  0  0  0
   22.9691  -20.1366  -11.4828 O   0  0  0  0  0  0  0  0  0  0  0  0
  2  5  1  0
  2  1  1  6
  3  2  1  0
  4  3  1  0
  5  6  2  0
  7  8  1  0
  8 10  1  0
  9  8  2  0
 11 10  1  6
 12 11  1  0
 12  5  1  0
 13 11  1  0
 13 14  2  0
 15 13  1  0
 16 15  1  0
 16 27  1  0
 16 17  1  1
 18 17  1  0
 19 18  2  0
 20 21  1  0
 20 19  1  0
 21 26  2  0
 22 21  1  0
 22 23  2  0
 23 24  1  0
 24 25  2  0
 26 18  1  0
 26 25  1  0
 27 28  2  0
 27 29  1  0
M  END
$$$$
