CNW.pdb
     RDKit          3D

 29 30  0  0  1  0  0  0  0  0999 V2000
   26.2118  -14.3252  -18.5228 N   0  0  0  0  0  0  0  0  0  0  0  0
   25.4042  -13.9464  -17.3919 C   0  0  1  0  0  0  0  0  0  0  0  0
   26.2175  -13.3100  -16.2861 C   0  0  0  0  0  0  0  0  0  0  0  0
   27.4956  -14.4143  -15.6667 S   0  0  0  0  0  0  0  0  0  0  0  0
   24.2734  -13.0876  -17.8087 C   0  0  0  0  0  0  0  0  0  0  0  0
   24.4716  -12.2600  -18.7316 O   0  0  0  0  0  0  0  0  0  0  0  0
   20.2726  -15.6515  -18.3471 N   0  0  0  0  0  0  0  0  0  0  0  0
   20.6063  -14.3165  -18.7564 C   0  0  0  0  0  0  0  0  0  0  0  0
   20.8454  -14.1388  -19.9606 O   0  0  0  0  0  0  0  0  0  0  0  0
   20.6249  -13.3104  -17.6887 C   0  0  0  0  0  0  0  0  0  0  0  0
   21.8472  -12.4698  -17.6163 C   0  0  2  0  0  0  0  0  0  0  0  0
   23.0121  -13.2114  -17.1700 N   0  0  0  0  0  0  0  0  0  0  0  0
   21.6835  -11.2537  -16.7787 C   0  0  0  0  0  0  0  0  0  0  0  0
   22.0250  -11.3021  -15.5741 O   0  0  0  0  0  0  0  0  0  0  0  0
   21.1597  -10.0295  -17.2655 N   0  0  0  0  0  0  0  0  0  0  0  0
   21.0721   -8.8051  -16.4738 C   0  0  1  0  0  0  0  0  0  0  0  0
   22.2938   -8.6150  -15.6449 C   0  0  0  0  0  0  0  0  0  0  0  0
   22.4747   -7.2826  -15.0682 C   0  0  0  0  0  0  0  0  0  0  0  0
   21.7900   -6.7340  -13.9865 C   0  0  0  0  0  0  0  0  0  0  0  0
   22.2259   -5.4778  -13.7881 N   0  0  0  0  0  0  0  0  0  0  0  0
   23.1828   -5.1649  -14.7022 C   0  0  0  0  0  0  0  0  0  0  0  0
   23.9399   -4.0496  -14.9216 C   0  0  0  0  0  0  0  0  0  0  0  0
   24.8505   -4.0879  -15.9506 C   0  0  0  0  0  0  0  0  0  0  0  0
   25.0341   -5.1779  -16.7582 C   0  0  0  0  0  0  0  0  0  0  0  0
   24.2634   -6.2957  -16.5264 C   0  0  0  0  0  0  0  0  0  0  0  0
   23.3326   -6.3025  -15.5010 C   0  0  0  0  0  0  0  0  0  0  0  0
   20.5676   -7.6514  -17.2170 C   0  0  0  0  0  0  0  0  0  0  0  0
   20.8758   -7.3923  -18.4134 O   0  0  0  0  0  0  0  0  0  0  0  0
   19.6931   -6.7712  -16.6060 O   0  0  0  0  0  0  0  0  0  0  0  0
  2  5  1  0
  2  1  1  6
  3  2  1  0
  4  3  1  0
  5  6  2  0
  7  8  1  0
  8 10  1  0
  9  8  2  0
 11 10  1  1
 12 11  1  0
 12  5  1  0
 13 11  1  0
 13 14  2  0
 15 13  1  0
 16 15  1  0
 16 27  1  0
 16 17  1  6
 18 17  1  0
 19 18  2  0
 20 21  1  0
 20 19  1  0
 21 26  2  0
 22 21  1  0
 22 23  2  0
 23 24  1  0
 24 25  2  0
 26 18  1  0
 26 25  1  0
 27 28  2  0
 27 29  1  0
M  END
$$$$
