CNW.pdb
     RDKit          3D

 29 30  0  0  1  0  0  0  0  0999 V2000
   30.5320  -23.0307  -18.5968 N   0  0  0  0  0  0  0  0  0  0  0  0
   29.3455  -23.3055  -17.8279 C   0  0  1  0  0  0  0  0  0  0  0  0
   29.4003  -24.6513  -17.1387 C   0  0  0  0  0  0  0  0  0  0  0  0
   30.5104  -24.6402  -15.7229 S   0  0  0  0  0  0  0  0  0  0  0  0
   29.0627  -22.2092  -16.8749 C   0  0  0  0  0  0  0  0  0  0  0  0
   30.0382  -21.6291  -16.3384 O   0  0  0  0  0  0  0  0  0  0  0  0
   25.4531  -17.7830  -15.2129 N   0  0  0  0  0  0  0  0  0  0  0  0
   26.5879  -18.4168  -15.8227 C   0  0  0  0  0  0  0  0  0  0  0  0
   27.6093  -17.7276  -15.9665 O   0  0  0  0  0  0  0  0  0  0  0  0
   26.4014  -19.8203  -16.2073 C   0  0  0  0  0  0  0  0  0  0  0  0
   27.3968  -20.7767  -15.6592 C   0  0  2  0  0  0  0  0  0  0  0  0
   27.7218  -21.8422  -16.5894 N   0  0  0  0  0  0  0  0  0  0  0  0
   27.0008  -21.3632  -14.3529 C   0  0  0  0  0  0  0  0  0  0  0  0
   27.6562  -22.3327  -13.9050 O   0  0  0  0  0  0  0  0  0  0  0  0
   25.9158  -20.8866  -13.5747 N   0  0  0  0  0  0  0  0  0  0  0  0
   25.7617  -21.1403  -12.1445 C   0  0  1  0  0  0  0  0  0  0  0  0
   27.0408  -20.9096  -11.4189 C   0  0  0  0  0  0  0  0  0  0  0  0
   26.9181  -20.5115  -10.0164 C   0  0  0  0  0  0  0  0  0  0  0  0
   25.8050  -19.9498   -9.3958 C   0  0  0  0  0  0  0  0  0  0  0  0
   26.1046  -19.7004   -8.1090 N   0  0  0  0  0  0  0  0  0  0  0  0
   27.3841  -20.0776   -7.8452 C   0  0  0  0  0  0  0  0  0  0  0  0
   28.1540  -20.0543   -6.7174 C   0  0  0  0  0  0  0  0  0  0  0  0
   29.4340  -20.5473   -6.8075 C   0  0  0  0  0  0  0  0  0  0  0  0
   29.9697  -21.0553   -7.9603 C   0  0  0  0  0  0  0  0  0  0  0  0
   29.1826  -21.0720   -9.0905 C   0  0  0  0  0  0  0  0  0  0  0  0
   27.8868  -20.5852   -9.0469 C   0  0  0  0  0  0  0  0  0  0  0  0
   24.5415  -20.5766  -11.5688 C   0  0  0  0  0  0  0  0  0  0  0  0
   24.0100  -19.4993  -11.9566 O   0  0  0  0  0  0  0  0  0  0  0  0
   23.8998  -21.2394  -10.5384 O   0  0  0  0  0  0  0  0  0  0  0  0
  2  5  1  0
  2  1  1  1
  3  2  1  0
  4  3  1  0
  5  6  2  0
  7  8  1  0
  8 10  1  0
  9  8  2  0
 11 10  1  6
 12 11  1  0
 12  5  1  0
 13 11  1  0
 13 14  2  0
 15 13  1  0
 16 15  1  0
 16 27  1  0
 16 17  1  1
 18 17  1  0
 19 18  2  0
 20 21  1  0
 20 19  1  0
 21 26  2  0
 22 21  1  0
 22 23  2  0
 23 24  1  0
 24 25  2  0
 26 18  1  0
 26 25  1  0
 27 28  2  0
 27 29  1  0
M  END
$$$$
