CNW.pdb
     RDKit          3D

 29 30  0  0  1  0  0  0  0  0999 V2000
   30.3528  -21.1063  -18.9085 N   0  0  0  0  0  0  0  0  0  0  0  0
   29.0299  -21.1366  -18.3398 C   0  0  1  0  0  0  0  0  0  0  0  0
   28.4912  -22.5434  -18.1996 C   0  0  0  0  0  0  0  0  0  0  0  0
   29.1254  -23.3661  -16.7307 S   0  0  0  0  0  0  0  0  0  0  0  0
   28.9843  -20.3986  -17.0578 C   0  0  0  0  0  0  0  0  0  0  0  0
   29.9233  -19.6061  -16.8009 O   0  0  0  0  0  0  0  0  0  0  0  0
   26.6481  -17.6176  -13.5047 N   0  0  0  0  0  0  0  0  0  0  0  0
   26.7871  -17.2230  -14.8781 C   0  0  0  0  0  0  0  0  0  0  0  0
   26.5458  -16.0373  -15.1515 O   0  0  0  0  0  0  0  0  0  0  0  0
   27.2028  -18.2818  -15.8047 C   0  0  0  0  0  0  0  0  0  0  0  0
   27.5185  -19.5938  -15.1845 C   0  0  2  0  0  0  0  0  0  0  0  0
   27.9031  -20.5971  -16.1601 N   0  0  0  0  0  0  0  0  0  0  0  0
   26.4252  -20.1263  -14.3311 C   0  0  0  0  0  0  0  0  0  0  0  0
   25.2944  -20.3017  -14.8414 O   0  0  0  0  0  0  0  0  0  0  0  0
   26.5864  -20.4518  -12.9606 N   0  0  0  0  0  0  0  0  0  0  0  0
   25.6155  -21.2164  -12.1820 C   0  0  1  0  0  0  0  0  0  0  0  0
   26.2467  -21.8062  -10.9697 C   0  0  0  0  0  0  0  0  0  0  0  0
   26.4538  -20.8915   -9.8468 C   0  0  0  0  0  0  0  0  0  0  0  0
   25.5150  -20.0374   -9.2734 C   0  0  0  0  0  0  0  0  0  0  0  0
   26.1062  -19.3416   -8.2864 N   0  0  0  0  0  0  0  0  0  0  0  0
   27.4129  -19.7018   -8.1781 C   0  0  0  0  0  0  0  0  0  0  0  0
   28.4248  -19.3170   -7.3456 C   0  0  0  0  0  0  0  0  0  0  0  0
   29.6497  -19.9194   -7.5080 C   0  0  0  0  0  0  0  0  0  0  0  0
   29.9027  -20.8764   -8.4536 C   0  0  0  0  0  0  0  0  0  0  0  0
   28.8734  -21.2546   -9.2871 C   0  0  0  0  0  0  0  0  0  0  0  0
   27.6224  -20.6743   -9.1604 C   0  0  0  0  0  0  0  0  0  0  0  0
   24.3247  -20.5486  -12.0206 C   0  0  0  0  0  0  0  0  0  0  0  0
   24.1574  -19.3014  -12.1204 O   0  0  0  0  0  0  0  0  0  0  0  0
   23.1947  -21.2976  -11.7468 O   0  0  0  0  0  0  0  0  0  0  0  0
  2  5  1  0
  2  1  1  1
  3  2  1  0
  4  3  1  0
  5  6  2  0
  7  8  1  0
  8 10  1  0
  9  8  2  0
 11 10  1  6
 12 11  1  0
 12  5  1  0
 13 11  1  0
 13 14  2  0
 15 13  1  0
 16 15  1  0
 16 27  1  0
 16 17  1  1
 18 17  1  0
 19 18  2  0
 20 21  1  0
 20 19  1  0
 21 26  2  0
 22 21  1  0
 22 23  2  0
 23 24  1  0
 24 25  2  0
 26 18  1  0
 26 25  1  0
 27 28  2  0
 27 29  1  0
M  END
$$$$
