CNW.pdb
     RDKit          3D

 29 30  0  0  1  0  0  0  0  0999 V2000
   30.2729  -21.7225  -18.8880 N   0  0  0  0  0  0  0  0  0  0  0  0
   28.9136  -21.5712  -18.4365 C   0  0  1  0  0  0  0  0  0  0  0  0
   28.1830  -22.8929  -18.3444 C   0  0  0  0  0  0  0  0  0  0  0  0
   27.8221  -23.5795  -19.9677 S   0  0  0  0  0  0  0  0  0  0  0  0
   28.8559  -20.8196  -17.1630 C   0  0  0  0  0  0  0  0  0  0  0  0
   29.7135  -19.9237  -16.9687 O   0  0  0  0  0  0  0  0  0  0  0  0
   28.6495  -17.1089  -16.4791 N   0  0  0  0  0  0  0  0  0  0  0  0
   27.8103  -17.6820  -15.4650 C   0  0  0  0  0  0  0  0  0  0  0  0
   27.8323  -17.1472  -14.3459 O   0  0  0  0  0  0  0  0  0  0  0  0
   27.0178  -18.8454  -15.8785 C   0  0  0  0  0  0  0  0  0  0  0  0
   27.3879  -20.1361  -15.2438 C   0  0  2  0  0  0  0  0  0  0  0  0
   27.8538  -21.1197  -16.2039 N   0  0  0  0  0  0  0  0  0  0  0  0
   26.3024  -20.7253  -14.4182 C   0  0  0  0  0  0  0  0  0  0  0  0
   25.2837  -21.1734  -14.9940 O   0  0  0  0  0  0  0  0  0  0  0  0
   26.3508  -20.8128  -13.0039 N   0  0  0  0  0  0  0  0  0  0  0  0
   25.3825  -21.5505  -12.1966 C   0  0  1  0  0  0  0  0  0  0  0  0
   26.0283  -22.1397  -10.9917 C   0  0  0  0  0  0  0  0  0  0  0  0
   26.3403  -21.2041   -9.9110 C   0  0  0  0  0  0  0  0  0  0  0  0
   25.4618  -20.3305   -9.2748 C   0  0  0  0  0  0  0  0  0  0  0  0
   26.1428  -19.6200   -8.3589 N   0  0  0  0  0  0  0  0  0  0  0  0
   27.4515  -19.9891   -8.3590 C   0  0  0  0  0  0  0  0  0  0  0  0
   28.5358  -19.5962   -7.6275 C   0  0  0  0  0  0  0  0  0  0  0  0
   29.7373  -20.2122   -7.8849 C   0  0  0  0  0  0  0  0  0  0  0  0
   29.8991  -21.1904   -8.8289 C   0  0  0  0  0  0  0  0  0  0  0  0
   28.7974  -21.5766   -9.5599 C   0  0  0  0  0  0  0  0  0  0  0  0
   27.5665  -20.9832   -9.3353 C   0  0  0  0  0  0  0  0  0  0  0  0
   24.1083  -20.8566  -12.0151 C   0  0  0  0  0  0  0  0  0  0  0  0
   23.9645  -19.6065  -12.1145 O   0  0  0  0  0  0  0  0  0  0  0  0
   22.9683  -21.5823  -11.7208 O   0  0  0  0  0  0  0  0  0  0  0  0
  2  5  1  0
  2  1  1  1
  3  2  1  0
  4  3  1  0
  5  6  2  0
  7  8  1  0
  8 10  1  0
  9  8  2  0
 11 10  1  6
 12 11  1  0
 12  5  1  0
 13 11  1  0
 13 14  2  0
 15 13  1  0
 16 15  1  0
 16 27  1  0
 16 17  1  1
 18 17  1  0
 19 18  2  0
 20 21  1  0
 20 19  1  0
 21 26  2  0
 22 21  1  0
 22 23  2  0
 23 24  1  0
 24 25  2  0
 26 18  1  0
 26 25  1  0
 27 28  2  0
 27 29  1  0
M  END
$$$$
