CNW.pdb
     RDKit          3D

 29 30  0  0  1  0  0  0  0  0999 V2000
   34.3489  -18.0699  -19.7371 N   0  0  0  0  0  0  0  0  0  0  0  0
   32.9687  -18.3298  -20.0566 C   0  0  1  0  0  0  0  0  0  0  0  0
   32.4107  -19.5132  -19.2969 C   0  0  0  0  0  0  0  0  0  0  0  0
   33.1541  -21.0648  -19.8231 S   0  0  0  0  0  0  0  0  0  0  0  0
   32.1417  -17.1165  -19.8719 C   0  0  0  0  0  0  0  0  0  0  0  0
   32.6497  -16.1452  -19.2601 O   0  0  0  0  0  0  0  0  0  0  0  0
   32.6649  -13.3801  -20.2181 N   0  0  0  0  0  0  0  0  0  0  0  0
   31.3042  -13.7579  -19.9591 C   0  0  0  0  0  0  0  0  0  0  0  0
   30.7627  -13.2650  -18.9578 O   0  0  0  0  0  0  0  0  0  0  0  0
   30.7101  -14.6930  -20.9211 C   0  0  0  0  0  0  0  0  0  0  0  0
   30.0137  -15.8660  -20.3339 C   0  0  2  0  0  0  0  0  0  0  0  0
   30.8164  -17.0744  -20.3779 N   0  0  0  0  0  0  0  0  0  0  0  0
   28.6838  -16.1325  -20.9402 C   0  0  0  0  0  0  0  0  0  0  0  0
   28.6318  -16.7462  -22.0314 O   0  0  0  0  0  0  0  0  0  0  0  0
   27.4579  -15.7309  -20.3520 N   0  0  0  0  0  0  0  0  0  0  0  0
   26.1490  -15.9423  -20.9647 C   0  0  1  0  0  0  0  0  0  0  0  0
   25.0737  -15.9662  -19.9355 C   0  0  0  0  0  0  0  0  0  0  0  0
   23.7579  -16.4116  -20.3952 C   0  0  0  0  0  0  0  0  0  0  0  0
   23.1153  -17.6054  -20.0768 C   0  0  0  0  0  0  0  0  0  0  0  0
   21.9378  -17.6511  -20.7239 N   0  0  0  0  0  0  0  0  0  0  0  0
   21.7684  -16.5249  -21.4669 C   0  0  0  0  0  0  0  0  0  0  0  0
   20.7633  -16.0795  -22.2772 C   0  0  0  0  0  0  0  0  0  0  0  0
   20.9196  -14.8501  -22.8719 C   0  0  0  0  0  0  0  0  0  0  0  0
   22.0219  -14.0581  -22.6938 C   0  0  0  0  0  0  0  0  0  0  0  0
   23.0284  -14.5199  -21.8746 C   0  0  0  0  0  0  0  0  0  0  0  0
   22.9146  -15.7530  -21.2548 C   0  0  0  0  0  0  0  0  0  0  0  0
   25.9205  -15.1452  -22.1691 C   0  0  0  0  0  0  0  0  0  0  0  0
   25.9783  -13.8847  -22.2032 O   0  0  0  0  0  0  0  0  0  0  0  0
   25.6261  -15.7769  -23.3637 O   0  0  0  0  0  0  0  0  0  0  0  0
  2  5  1  0
  2  1  1  1
  3  2  1  0
  4  3  1  0
  5  6  2  0
  7  8  1  0
  8 10  1  0
  9  8  2  0
 11 10  1  6
 12 11  1  0
 12  5  1  0
 13 11  1  0
 13 14  2  0
 15 13  1  0
 16 15  1  0
 16 27  1  0
 16 17  1  1
 18 17  1  0
 19 18  2  0
 20 21  1  0
 20 19  1  0
 21 26  2  0
 22 21  1  0
 22 23  2  0
 23 24  1  0
 24 25  2  0
 26 18  1  0
 26 25  1  0
 27 28  2  0
 27 29  1  0
M  END
$$$$
