CNW.pdb
     RDKit          3D

 29 30  0  0  1  0  0  0  0  0999 V2000
   28.9612  -20.6282  -15.3945 N   0  0  0  0  0  0  0  0  0  0  0  0
   28.0990  -19.9318  -16.3144 C   0  0  1  0  0  0  0  0  0  0  0  0
   28.3611  -20.3119  -17.7552 C   0  0  0  0  0  0  0  0  0  0  0  0
   30.1204  -20.4215  -18.1154 S   0  0  0  0  0  0  0  0  0  0  0  0
   26.6761  -20.1078  -15.9479 C   0  0  0  0  0  0  0  0  0  0  0  0
   25.8084  -19.8618  -16.8211 O   0  0  0  0  0  0  0  0  0  0  0  0
   24.5002  -24.2633  -14.0643 N   0  0  0  0  0  0  0  0  0  0  0  0
   25.5705  -24.2232  -15.0204 C   0  0  0  0  0  0  0  0  0  0  0  0
   25.8264  -25.2757  -15.6252 O   0  0  0  0  0  0  0  0  0  0  0  0
   26.2415  -22.9270  -15.1693 C   0  0  0  0  0  0  0  0  0  0  0  0
   25.6446  -21.8009  -14.4069 C   0  0  2  0  0  0  0  0  0  0  0  0
   26.3254  -20.5410  -14.6427 N   0  0  0  0  0  0  0  0  0  0  0  0
   25.5596  -22.0518  -12.9450 C   0  0  0  0  0  0  0  0  0  0  0  0
   24.9016  -23.0385  -12.5409 O   0  0  0  0  0  0  0  0  0  0  0  0
   26.1852  -21.2341  -11.9702 N   0  0  0  0  0  0  0  0  0  0  0  0
   25.8038  -21.2049  -10.5605 C   0  0  1  0  0  0  0  0  0  0  0  0
   27.0010  -21.0833   -9.6843 C   0  0  0  0  0  0  0  0  0  0  0  0
   26.7418  -20.7004   -8.2962 C   0  0  0  0  0  0  0  0  0  0  0  0
   25.5027  -20.6030   -7.6678 C   0  0  0  0  0  0  0  0  0  0  0  0
   25.6888  -20.1923   -6.4012 N   0  0  0  0  0  0  0  0  0  0  0  0
   27.0144  -20.0112   -6.1583 C   0  0  0  0  0  0  0  0  0  0  0  0
   27.7205  -19.6263   -5.0545 C   0  0  0  0  0  0  0  0  0  0  0  0
   29.0898  -19.5679   -5.1604 C   0  0  0  0  0  0  0  0  0  0  0  0
   29.7737  -19.8736   -6.3063 C   0  0  0  0  0  0  0  0  0  0  0  0
   29.0491  -20.2595   -7.4123 C   0  0  0  0  0  0  0  0  0  0  0  0
   27.6675  -20.3321   -7.3521 C   0  0  0  0  0  0  0  0  0  0  0  0
   24.6590  -20.3423  -10.2721 C   0  0  0  0  0  0  0  0  0  0  0  0
   24.3264  -19.3504  -10.9786 O   0  0  0  0  0  0  0  0  0  0  0  0
   23.8657  -20.6015   -9.1692 O   0  0  0  0  0  0  0  0  0  0  0  0
  2  5  1  0
  2  1  1  1
  3  2  1  0
  4  3  1  0
  5  6  2  0
  7  8  1  0
  8 10  1  0
  9  8  2  0
 11 10  1  6
 12 11  1  0
 12  5  1  0
 13 11  1  0
 13 14  2  0
 15 13  1  0
 16 15  1  0
 16 27  1  0
 16 17  1  1
 18 17  1  0
 19 18  2  0
 20 21  1  0
 20 19  1  0
 21 26  2  0
 22 21  1  0
 22 23  2  0
 23 24  1  0
 24 25  2  0
 26 18  1  0
 26 25  1  0
 27 28  2  0
 27 29  1  0
M  END
$$$$
