CNW.pdb
     RDKit          3D

 29 30  0  0  1  0  0  0  0  0999 V2000
   26.4712  -17.0117  -16.7124 N   0  0  0  0  0  0  0  0  0  0  0  0
   27.2723  -17.9766  -16.0039 C   0  0  1  0  0  0  0  0  0  0  0  0
   28.1995  -17.3325  -14.9967 C   0  0  0  0  0  0  0  0  0  0  0  0
   29.5440  -16.4393  -15.7913 S   0  0  0  0  0  0  0  0  0  0  0  0
   26.4252  -19.0203  -15.3848 C   0  0  0  0  0  0  0  0  0  0  0  0
   25.2847  -18.6885  -14.9787 O   0  0  0  0  0  0  0  0  0  0  0  0
   25.2231  -24.8334  -15.8139 N   0  0  0  0  0  0  0  0  0  0  0  0
   25.5699  -23.8542  -14.8228 C   0  0  0  0  0  0  0  0  0  0  0  0
   25.1394  -24.0375  -13.6739 O   0  0  0  0  0  0  0  0  0  0  0  0
   26.4017  -22.7409  -15.2932 C   0  0  0  0  0  0  0  0  0  0  0  0
   26.0980  -21.4138  -14.6997 C   0  0  2  0  0  0  0  0  0  0  0  0
   26.9080  -20.3493  -15.2626 N   0  0  0  0  0  0  0  0  0  0  0  0
   26.2047  -21.3867  -13.2181 C   0  0  0  0  0  0  0  0  0  0  0  0
   27.3338  -21.5272  -12.6933 O   0  0  0  0  0  0  0  0  0  0  0  0
   25.0948  -21.2090  -12.3539 N   0  0  0  0  0  0  0  0  0  0  0  0
   25.1845  -21.2141  -10.8961 C   0  0  1  0  0  0  0  0  0  0  0  0
   26.3699  -20.4437  -10.4299 C   0  0  0  0  0  0  0  0  0  0  0  0
   26.4521  -20.2061   -8.9885 C   0  0  0  0  0  0  0  0  0  0  0  0
   25.4001  -19.9204   -8.1217 C   0  0  0  0  0  0  0  0  0  0  0  0
   25.8936  -19.7391   -6.8843 N   0  0  0  0  0  0  0  0  0  0  0  0
   27.2444  -19.8947   -6.8921 C   0  0  0  0  0  0  0  0  0  0  0  0
   28.2002  -19.8326   -5.9186 C   0  0  0  0  0  0  0  0  0  0  0  0
   29.5034  -20.0688   -6.2867 C   0  0  0  0  0  0  0  0  0  0  0  0
   29.8865  -20.3602   -7.5683 C   0  0  0  0  0  0  0  0  0  0  0  0
   28.9125  -20.4189   -8.5404 C   0  0  0  0  0  0  0  0  0  0  0  0
   27.5863  -20.1874   -8.2158 C   0  0  0  0  0  0  0  0  0  0  0  0
   23.9096  -20.9757  -10.2211 C   0  0  0  0  0  0  0  0  0  0  0  0
   23.0692  -20.1071  -10.5855 O   0  0  0  0  0  0  0  0  0  0  0  0
   23.5669  -21.7328   -9.1155 O   0  0  0  0  0  0  0  0  0  0  0  0
  2  5  1  0
  2  1  1  1
  3  2  1  0
  4  3  1  0
  5  6  2  0
  7  8  1  0
  8 10  1  0
  9  8  2  0
 11 10  1  6
 12 11  1  0
 12  5  1  0
 13 11  1  0
 13 14  2  0
 15 13  1  0
 16 15  1  0
 16 27  1  0
 16 17  1  6
 18 17  1  0
 19 18  2  0
 20 21  1  0
 20 19  1  0
 21 26  2  0
 22 21  1  0
 22 23  2  0
 23 24  1  0
 24 25  2  0
 26 18  1  0
 26 25  1  0
 27 28  2  0
 27 29  1  0
M  END
$$$$
