CNW.pdb
     RDKit          3D

 29 30  0  0  1  0  0  0  0  0999 V2000
   20.1853  -11.8863  -19.9714 N   0  0  0  0  0  0  0  0  0  0  0  0
   20.5944  -11.1767  -18.7866 C   0  0  1  0  0  0  0  0  0  0  0  0
   21.7705  -11.8314  -18.0959 C   0  0  0  0  0  0  0  0  0  0  0  0
   21.3240  -13.4066  -17.3499 S   0  0  0  0  0  0  0  0  0  0  0  0
   20.8536   -9.7501  -19.0832 C   0  0  0  0  0  0  0  0  0  0  0  0
   21.1849   -9.4430  -20.2544 O   0  0  0  0  0  0  0  0  0  0  0  0
   19.0687   -4.9095  -20.5630 N   0  0  0  0  0  0  0  0  0  0  0  0
   20.1416   -5.4710  -19.7917 C   0  0  0  0  0  0  0  0  0  0  0  0
   21.0964   -4.7247  -19.5265 O   0  0  0  0  0  0  0  0  0  0  0  0
   19.9784   -6.8769  -19.4051 C   0  0  0  0  0  0  0  0  0  0  0  0
   20.8769   -7.3567  -18.3242 C   0  0  2  0  0  0  0  0  0  0  0  0
   20.7270   -8.7757  -18.0592 N   0  0  0  0  0  0  0  0  0  0  0  0
   20.7369   -6.5982  -17.0544 C   0  0  0  0  0  0  0  0  0  0  0  0
   19.6997   -6.7570  -16.3696 O   0  0  0  0  0  0  0  0  0  0  0  0
   21.7165   -5.6971  -16.5658 N   0  0  0  0  0  0  0  0  0  0  0  0
   21.6273   -5.0111  -15.2794 C   0  0  1  0  0  0  0  0  0  0  0  0
   22.5809   -5.5927  -14.2953 C   0  0  0  0  0  0  0  0  0  0  0  0
   22.4290   -7.0227  -14.0254 C   0  0  0  0  0  0  0  0  0  0  0  0
   21.3715   -7.6472  -13.3686 C   0  0  0  0  0  0  0  0  0  0  0  0
   21.6227   -8.9660  -13.2966 N   0  0  0  0  0  0  0  0  0  0  0  0
   22.8158   -9.2477  -13.8852 C   0  0  0  0  0  0  0  0  0  0  0  0
   23.5089  -10.4064  -14.0899 C   0  0  0  0  0  0  0  0  0  0  0  0
   24.7080  -10.3242  -14.7570 C   0  0  0  0  0  0  0  0  0  0  0  0
   25.2363   -9.1498  -15.2216 C   0  0  0  0  0  0  0  0  0  0  0  0
   24.5271   -7.9885  -15.0076 C   0  0  0  0  0  0  0  0  0  0  0  0
   23.3146   -8.0232  -14.3395 C   0  0  0  0  0  0  0  0  0  0  0  0
   21.5634   -3.5542  -15.3857 C   0  0  0  0  0  0  0  0  0  0  0  0
   21.5671   -2.9251  -16.4802 O   0  0  0  0  0  0  0  0  0  0  0  0
   21.4880   -2.7856  -14.2384 O   0  0  0  0  0  0  0  0  0  0  0  0
  2  5  1  0
  2  1  1  6
  3  2  1  0
  4  3  1  0
  5  6  2  0
  7  8  1  0
  8 10  1  0
  9  8  2  0
 11 10  1  6
 12 11  1  0
 12  5  1  0
 13 11  1  0
 13 14  2  0
 15 13  1  0
 16 15  1  0
 16 27  1  0
 16 17  1  1
 18 17  1  0
 19 18  2  0
 20 21  1  0
 20 19  1  0
 21 26  2  0
 22 21  1  0
 22 23  2  0
 23 24  1  0
 24 25  2  0
 26 18  1  0
 26 25  1  0
 27 28  2  0
 27 29  1  0
M  END
$$$$
