CNW.pdb
     RDKit          3D

 29 30  0  0  1  0  0  0  0  0999 V2000
   26.1358  -17.3493  -17.1515 N   0  0  0  0  0  0  0  0  0  0  0  0
   26.9365  -17.7757  -16.0326 C   0  0  1  0  0  0  0  0  0  0  0  0
   26.6013  -17.0270  -14.7613 C   0  0  0  0  0  0  0  0  0  0  0  0
   27.0244  -15.2820  -14.8739 S   0  0  0  0  0  0  0  0  0  0  0  0
   26.8544  -19.2416  -15.8470 C   0  0  0  0  0  0  0  0  0  0  0  0
   25.7671  -19.8091  -16.1145 O   0  0  0  0  0  0  0  0  0  0  0  0
   28.5222  -21.6732  -17.8040 N   0  0  0  0  0  0  0  0  0  0  0  0
   29.5272  -22.1769  -16.9110 C   0  0  0  0  0  0  0  0  0  0  0  0
   30.5529  -22.6490  -17.4247 O   0  0  0  0  0  0  0  0  0  0  0  0
   29.2170  -22.0719  -15.4808 C   0  0  0  0  0  0  0  0  0  0  0  0
   27.9374  -21.3962  -15.1467 C   0  0  2  0  0  0  0  0  0  0  0  0
   27.9825  -19.9642  -15.3783 N   0  0  0  0  0  0  0  0  0  0  0  0
   27.4704  -21.6593  -13.7610 C   0  0  0  0  0  0  0  0  0  0  0  0
   28.1306  -22.4452  -13.0424 O   0  0  0  0  0  0  0  0  0  0  0  0
   26.3117  -21.0680  -13.1973 N   0  0  0  0  0  0  0  0  0  0  0  0
   25.9176  -21.2134  -11.7983 C   0  0  1  0  0  0  0  0  0  0  0  0
   27.0732  -20.9800  -10.8895 C   0  0  0  0  0  0  0  0  0  0  0  0
   26.7480  -20.7979   -9.4747 C   0  0  0  0  0  0  0  0  0  0  0  0
   25.4796  -20.6826   -8.9112 C   0  0  0  0  0  0  0  0  0  0  0  0
   25.6081  -20.4968   -7.5858 N   0  0  0  0  0  0  0  0  0  0  0  0
   26.9233  -20.4843   -7.2407 C   0  0  0  0  0  0  0  0  0  0  0  0
   27.5781  -20.3481   -6.0500 C   0  0  0  0  0  0  0  0  0  0  0  0
   28.9515  -20.4055   -6.0659 C   0  0  0  0  0  0  0  0  0  0  0  0
   29.6878  -20.5906   -7.2051 C   0  0  0  0  0  0  0  0  0  0  0  0
   29.0146  -20.7257   -8.3992 C   0  0  0  0  0  0  0  0  0  0  0  0
   27.6311  -20.6739   -8.4313 C   0  0  0  0  0  0  0  0  0  0  0  0
   24.6497  -20.5647  -11.4673 C   0  0  0  0  0  0  0  0  0  0  0  0
   23.9320  -20.8804  -10.4780 O   0  0  0  0  0  0  0  0  0  0  0  0
   24.1788  -19.5345  -12.2609 O   0  0  0  0  0  0  0  0  0  0  0  0
  2  5  1  0
  2  1  1  6
  3  2  1  0
  4  3  1  0
  5  6  2  0
  7  8  1  0
  8 10  1  0
  9  8  2  0
 11 10  1  1
 12 11  1  0
 12  5  1  0
 13 11  1  0
 13 14  2  0
 15 13  1  0
 16 15  1  0
 16 27  1  0
 16 17  1  1
 18 17  1  0
 19 18  2  0
 20 21  1  0
 20 19  1  0
 21 26  2  0
 22 21  1  0
 22 23  2  0
 23 24  1  0
 24 25  2  0
 26 18  1  0
 26 25  1  0
 27 28  2  0
 27 29  1  0
M  END
$$$$
