CNW.pdb
     RDKit          3D

 29 30  0  0  1  0  0  0  0  0999 V2000
   22.1417  -16.8553  -17.2247 N   0  0  0  0  0  0  0  0  0  0  0  0
   23.3690  -17.2351  -16.5735 C   0  0  1  0  0  0  0  0  0  0  0  0
   24.4055  -16.1333  -16.6025 C   0  0  0  0  0  0  0  0  0  0  0  0
   25.2081  -16.0034  -18.2074 S   0  0  0  0  0  0  0  0  0  0  0  0
   23.1149  -17.7168  -15.1975 C   0  0  0  0  0  0  0  0  0  0  0  0
   22.0916  -17.2946  -14.6054 O   0  0  0  0  0  0  0  0  0  0  0  0
   21.8036  -21.0432  -11.9802 N   0  0  0  0  0  0  0  0  0  0  0  0
   21.3420  -20.7941  -13.3166 C   0  0  0  0  0  0  0  0  0  0  0  0
   20.1256  -20.9186  -13.5257 O   0  0  0  0  0  0  0  0  0  0  0  0
   22.3765  -20.4177  -14.2865 C   0  0  0  0  0  0  0  0  0  0  0  0
   23.5545  -19.7055  -13.7288 C   0  0  2  0  0  0  0  0  0  0  0  0
   24.0145  -18.6272  -14.5843 N   0  0  0  0  0  0  0  0  0  0  0  0
   24.6940  -20.6028  -13.4068 C   0  0  0  0  0  0  0  0  0  0  0  0
   24.6623  -21.7866  -13.8162 O   0  0  0  0  0  0  0  0  0  0  0  0
   25.8267  -20.1957  -12.6575 N   0  0  0  0  0  0  0  0  0  0  0  0
   27.1707  -20.7345  -12.8493 C   0  0  1  0  0  0  0  0  0  0  0  0
   27.6909  -21.3361  -11.5909 C   0  0  0  0  0  0  0  0  0  0  0  0
   27.2612  -20.6929  -10.3489 C   0  0  0  0  0  0  0  0  0  0  0  0
   26.0248  -20.1070  -10.0891 C   0  0  0  0  0  0  0  0  0  0  0  0
   26.0370  -19.6007   -8.8437 N   0  0  0  0  0  0  0  0  0  0  0  0
   27.2428  -19.8286   -8.2579 C   0  0  0  0  0  0  0  0  0  0  0  0
   27.7551  -19.5396   -7.0254 C   0  0  0  0  0  0  0  0  0  0  0  0
   29.0400  -19.9470   -6.7561 C   0  0  0  0  0  0  0  0  0  0  0  0
   29.8236  -20.6214   -7.6535 C   0  0  0  0  0  0  0  0  0  0  0  0
   29.2947  -20.9057   -8.8931 C   0  0  0  0  0  0  0  0  0  0  0  0
   28.0044  -20.5142   -9.2089 C   0  0  0  0  0  0  0  0  0  0  0  0
   27.3348  -21.4965  -14.0863 C   0  0  0  0  0  0  0  0  0  0  0  0
   28.3153  -21.3669  -14.8708 O   0  0  0  0  0  0  0  0  0  0  0  0
   26.3802  -22.4293  -14.4489 O   0  0  0  0  0  0  0  0  0  0  0  0
  2  5  1  0
  2  1  1  1
  3  2  1  0
  4  3  1  0
  5  6  2  0
  7  8  1  0
  8 10  1  0
  9  8  2  0
 11 10  1  6
 12 11  1  0
 12  5  1  0
 13 11  1  0
 13 14  2  0
 15 13  1  0
 16 15  1  0
 16 27  1  0
 16 17  1  1
 18 17  1  0
 19 18  2  0
 20 21  1  0
 20 19  1  0
 21 26  2  0
 22 21  1  0
 22 23  2  0
 23 24  1  0
 24 25  2  0
 26 18  1  0
 26 25  1  0
 27 28  2  0
 27 29  1  0
M  END
$$$$
