RFP.pdb
     RDKit          3D

 30 31  0  0  1  0  0  0  0  0999 V2000
    9.1341  -19.4139   19.9542 N   0  0  0  0  0  0  0  0  0  0  0  0
    9.2742  -19.2499   18.5480 C   0  0  0  0  0  0  0  0  0  0  0  0
    9.2016  -20.3159   17.8266 N   0  0  0  0  0  0  0  0  0  0  0  0
    9.4854  -17.9743   17.9566 N   0  0  0  0  0  0  0  0  0  0  0  0
    9.4770  -16.7989   18.7750 C   0  0  0  0  0  0  0  0  0  0  0  0
    8.8910  -15.6729   17.9992 C   0  0  0  0  0  0  0  0  0  0  0  0
    7.4845  -15.3979   18.4317 C   0  0  0  0  0  0  0  0  0  0  0  0
    7.3706  -14.0267   19.0114 C   0  0  2  0  0  0  0  0  0  0  0  0
    8.0267  -13.0324   18.1836 N   0  0  0  0  0  0  0  0  0  0  0  0
    8.0086  -13.9599   20.3722 C   0  0  0  0  0  0  0  0  0  0  0  0
    9.1474  -13.4682   20.4673 O   0  0  0  0  0  0  0  0  0  0  0  0
    9.3351  -20.2898   16.8010 N   0  0  0  0  0  0  0  0  0  0  0  0
    7.3689  -14.4317   21.5412 C   0  0  1  0  0  0  0  0  0  0  0  0
    7.9651  -14.1702   22.8967 C   0  0  0  0  0  0  0  0  0  0  0  0
    6.8721  -13.4199   23.5788 C   0  0  0  0  0  0  0  0  0  0  0  0
    7.0141  -12.9804   24.9350 C   0  0  0  0  0  0  0  0  0  0  0  0
    6.4232  -13.6559   25.9793 C   0  0  0  0  0  0  0  0  0  0  0  0
    6.5514  -13.2014   27.2976 C   0  0  0  0  0  0  0  0  0  0  0  0
    7.2749  -12.0637   27.5827 C   0  0  0  0  0  0  0  0  0  0  0  0
    7.8698  -11.3814   26.5496 C   0  0  0  0  0  0  0  0  0  0  0  0
    7.7324  -11.8404   25.2752 C   0  0  0  0  0  0  0  0  0  0  0  0
    8.2598  -15.4935   23.4504 O   0  0  0  0  0  0  0  0  0  0  0  0
    7.6208  -16.4786   22.8989 N   0  0  0  0  0  0  0  0  0  0  0  0
    9.1479  -15.8182   24.4907 C   0  0  0  0  0  0  0  0  0  0  0  0
    9.8087  -14.8624   25.3355 C   0  0  0  0  0  0  0  0  0  0  0  0
   11.1339  -15.5001   25.6230 C   0  0  0  0  0  0  0  0  0  0  0  0
   11.0169  -16.9478   25.1991 C   0  0  1  0  0  0  0  0  0  0  0  0
    9.5377  -17.1129   24.9238 C   0  0  0  0  0  0  0  0  0  0  0  0
    8.8699  -17.4617   26.2462 O   0  0  0  0  0  0  0  0  0  0  0  0
    9.0630  -18.7226   26.7830 O   0  0  0  0  0  0  0  0  0  0  0  0
  1  2  1  0
  2  3  2  0
  4  2  1  0
  4  5  1  0
  6  5  1  0
  7  8  1  0
  7  6  1  0
  8  9  1  6
 10  8  1  0
 11 10  2  0
 12 10  1  0
 13 12  1  0
 13 14  1  1
 15 14  1  0
 16 15  2  0
 17 16  1  0
 18 17  2  0
 18 19  1  0
 19 20  2  0
 20 15  1  0
 21 13  1  0
 21 23  1  0
 22 21  2  0
 23 27  1  0
 24 23  1  0
 24 25  1  0
 25 26  1  0
 27 26  1  0
 27 28  1  1
 28 29  1  0
 30 28  2  0
M  END
$$$$
