RFP.pdb
     RDKit          3D

 30 31  0  0  1  0  0  0  0  0999 V2000
    9.7319  -14.6067   15.7854 N   0  0  0  0  0  0  0  0  0  0  0  0
    8.6029  -13.9054   16.2927 C   0  0  0  0  0  0  0  0  0  0  0  0
    7.6787  -13.5992   15.4477 N   0  0  0  0  0  0  0  0  0  0  0  0
    8.4903  -13.5537   17.6657 N   0  0  0  0  0  0  0  0  0  0  0  0
    9.5490  -13.8785   18.5740 C   0  0  0  0  0  0  0  0  0  0  0  0
    9.4370  -15.3120   18.9556 C   0  0  0  0  0  0  0  0  0  0  0  0
   10.6020  -15.7367   19.7942 C   0  0  0  0  0  0  0  0  0  0  0  0
   10.1459  -16.5734   20.9436 C   0  0  2  0  0  0  0  0  0  0  0  0
    8.8353  -17.1490   20.7083 N   0  0  0  0  0  0  0  0  0  0  0  0
   10.0505  -15.7564   22.2032 C   0  0  0  0  0  0  0  0  0  0  0  0
   11.0241  -15.0524   22.5260 O   0  0  0  0  0  0  0  0  0  0  0  0
    6.7902  -13.1616   15.7469 N   0  0  0  0  0  0  0  0  0  0  0  0
    8.9043  -15.7570   23.0306 C   0  0  1  0  0  0  0  0  0  0  0  0
    8.8832  -14.9625   24.3072 C   0  0  0  0  0  0  0  0  0  0  0  0
    7.4357  -14.6340   24.4464 C   0  0  0  0  0  0  0  0  0  0  0  0
    6.9966  -13.5959   25.3308 C   0  0  0  0  0  0  0  0  0  0  0  0
    6.0940  -13.8412   26.3414 C   0  0  0  0  0  0  0  0  0  0  0  0
    5.6562  -12.8118   27.1838 C   0  0  0  0  0  0  0  0  0  0  0  0
    6.1201  -11.5243   27.0217 C   0  0  0  0  0  0  0  0  0  0  0  0
    7.0215  -11.2671   26.0175 C   0  0  0  0  0  0  0  0  0  0  0  0
    7.4339  -12.2824   25.2096 C   0  0  0  0  0  0  0  0  0  0  0  0
    9.4254  -15.8601   25.3294 O   0  0  0  0  0  0  0  0  0  0  0  0
    9.6463  -17.0765   24.9362 N   0  0  0  0  0  0  0  0  0  0  0  0
    9.7376  -15.5604   26.6669 C   0  0  0  0  0  0  0  0  0  0  0  0
    9.1920  -14.4594   27.4114 C   0  0  0  0  0  0  0  0  0  0  0  0
   10.3148  -14.0525   28.3164 C   0  0  0  0  0  0  0  0  0  0  0  0
   11.3302  -15.1734   28.2746 C   0  0  1  0  0  0  0  0  0  0  0  0
   10.6034  -16.2761   27.5352 C   0  0  0  0  0  0  0  0  0  0  0  0
    9.8040  -17.0589   28.5670 O   0  0  0  0  0  0  0  0  0  0  0  0
   10.4734  -17.9084   29.4304 O   0  0  0  0  0  0  0  0  0  0  0  0
  1  2  1  0
  2  3  2  0
  4  2  1  0
  4  5  1  0
  6  5  1  0
  7  8  1  0
  7  6  1  0
  8  9  1  6
 10  8  1  0
 11 10  2  0
 12 10  1  0
 13 12  1  0
 13 14  1  6
 15 14  1  0
 16 15  2  0
 17 16  1  0
 18 17  2  0
 18 19  1  0
 19 20  2  0
 20 15  1  0
 21 13  1  0
 21 23  1  0
 22 21  2  0
 23 27  1  0
 24 23  1  0
 24 25  1  0
 25 26  1  0
 27 26  1  0
 27 28  1  1
 28 29  1  0
 30 28  2  0
M  END
$$$$
