RFP.pdb
     RDKit          3D

 30 31  0  0  1  0  0  0  0  0999 V2000
   11.4962  -23.2254   21.6204 N   0  0  0  0  0  0  0  0  0  0  0  0
   12.0640  -22.1932   20.8229 C   0  0  0  0  0  0  0  0  0  0  0  0
   12.4242  -22.5119   19.6268 N   0  0  0  0  0  0  0  0  0  0  0  0
   12.2313  -20.8693   21.3135 N   0  0  0  0  0  0  0  0  0  0  0  0
   11.1277  -20.1905   21.9239 C   0  0  0  0  0  0  0  0  0  0  0  0
   10.3639  -19.4654   20.8731 C   0  0  0  0  0  0  0  0  0  0  0  0
    9.1893  -18.7483   21.4620 C   0  0  0  0  0  0  0  0  0  0  0  0
    9.0880  -17.3639   20.9120 C   0  0  2  0  0  0  0  0  0  0  0  0
   10.0746  -17.1185   19.8772 N   0  0  0  0  0  0  0  0  0  0  0  0
    9.3112  -16.3366   21.9883 C   0  0  0  0  0  0  0  0  0  0  0  0
   10.4566  -15.8736   22.1347 O   0  0  0  0  0  0  0  0  0  0  0  0
   12.8929  -21.8349   19.0004 N   0  0  0  0  0  0  0  0  0  0  0  0
    8.2764  -15.8791   22.8357 C   0  0  2  0  0  0  0  0  0  0  0  0
    8.5760  -14.9314   23.9642 C   0  0  0  0  0  0  0  0  0  0  0  0
    7.2993  -14.1704   24.0799 C   0  0  0  0  0  0  0  0  0  0  0  0
    7.1126  -13.1956   25.1131 C   0  0  0  0  0  0  0  0  0  0  0  0
    7.6633  -11.9365   25.0269 C   0  0  0  0  0  0  0  0  0  0  0  0
    7.4918  -11.0016   26.0552 C   0  0  0  0  0  0  0  0  0  0  0  0
    6.7647  -11.3199   27.1818 C   0  0  0  0  0  0  0  0  0  0  0  0
    6.2096  -12.5726   27.2792 C   0  0  0  0  0  0  0  0  0  0  0  0
    6.3888  -13.4665   26.2681 C   0  0  0  0  0  0  0  0  0  0  0  0
    8.9049  -15.7849   25.1078 O   0  0  0  0  0  0  0  0  0  0  0  0
    8.5778  -17.0336   24.9781 N   0  0  0  0  0  0  0  0  0  0  0  0
    9.5323  -15.4164   26.3107 C   0  0  0  0  0  0  0  0  0  0  0  0
    9.4604  -14.1122   26.9091 C   0  0  0  0  0  0  0  0  0  0  0  0
   10.8006  -13.9459   27.5584 C   0  0  0  0  0  0  0  0  0  0  0  0
   11.4415  -15.3163   27.5819 C   0  0  1  0  0  0  0  0  0  0  0  0
   10.3140  -16.2366   27.1662 C   0  0  0  0  0  0  0  0  0  0  0  0
    9.5377  -16.5946   28.4254 O   0  0  0  0  0  0  0  0  0  0  0  0
   10.1031  -17.4705   29.3356 O   0  0  0  0  0  0  0  0  0  0  0  0
  1  2  1  0
  2  3  2  0
  4  2  1  0
  4  5  1  0
  6  5  1  0
  7  8  1  0
  7  6  1  0
  8  9  1  6
 10  8  1  0
 11 10  2  0
 12 10  1  0
 13 12  1  0
 13 14  1  6
 15 14  1  0
 16 15  2  0
 17 16  1  0
 18 17  2  0
 18 19  1  0
 19 20  2  0
 20 15  1  0
 21 13  1  0
 21 23  1  0
 22 21  2  0
 23 27  1  0
 24 23  1  0
 24 25  1  0
 25 26  1  0
 27 26  1  0
 27 28  1  1
 28 29  1  0
 30 28  2  0
M  END
$$$$
