RFP.pdb
     RDKit          3D

 30 31  0  0  1  0  0  0  0  0999 V2000
   15.6703  -19.5504   18.6891 N   0  0  0  0  0  0  0  0  0  0  0  0
   14.3143  -19.8242   18.3572 C   0  0  0  0  0  0  0  0  0  0  0  0
   14.0364  -19.9603   17.1058 N   0  0  0  0  0  0  0  0  0  0  0  0
   13.3056  -19.9432   19.3521 N   0  0  0  0  0  0  0  0  0  0  0  0
   11.9954  -19.4200   19.1050 C   0  0  0  0  0  0  0  0  0  0  0  0
   11.9052  -18.0497   19.6773 C   0  0  0  0  0  0  0  0  0  0  0  0
   11.3629  -18.0853   21.0720 C   0  0  0  0  0  0  0  0  0  0  0  0
   10.0407  -17.3951   21.1404 C   0  0  2  0  0  0  0  0  0  0  0  0
    9.7291  -16.6979   19.9070 N   0  0  0  0  0  0  0  0  0  0  0  0
   10.0206  -16.3725   22.2436 C   0  0  0  0  0  0  0  0  0  0  0  0
   11.0739  -15.7640   22.5043 O   0  0  0  0  0  0  0  0  0  0  0  0
   13.0634  -20.0742   16.7731 N   0  0  0  0  0  0  0  0  0  0  0  0
    8.8585  -16.0773   22.9924 C   0  0  1  0  0  0  0  0  0  0  0  0
    8.9125  -15.0984   24.1326 C   0  0  0  0  0  0  0  0  0  0  0  0
    7.5590  -14.4761   24.0739 C   0  0  0  0  0  0  0  0  0  0  0  0
    7.1566  -13.4937   25.0360 C   0  0  0  0  0  0  0  0  0  0  0  0
    6.4013  -13.8280   26.1378 C   0  0  0  0  0  0  0  0  0  0  0  0
    5.9957  -12.8533   27.0577 C   0  0  0  0  0  0  0  0  0  0  0  0
    6.3442  -11.5315   26.8823 C   0  0  0  0  0  0  0  0  0  0  0  0
    7.0982  -11.1855   25.7875 C   0  0  0  0  0  0  0  0  0  0  0  0
    7.4817  -12.1489   24.9052 C   0  0  0  0  0  0  0  0  0  0  0  0
    9.1814  -15.9074   25.3233 O   0  0  0  0  0  0  0  0  0  0  0  0
    9.1221  -17.1909   25.1447 N   0  0  0  0  0  0  0  0  0  0  0  0
    9.4996  -15.4623   26.6183 C   0  0  0  0  0  0  0  0  0  0  0  0
    9.0341  -14.2354   27.2032 C   0  0  0  0  0  0  0  0  0  0  0  0
   10.1742  -13.8031   28.0741 C   0  0  0  0  0  0  0  0  0  0  0  0
   11.0975  -14.9952   28.1992 C   0  0  1  0  0  0  0  0  0  0  0  0
   10.2945  -16.1246   27.5905 C   0  0  0  0  0  0  0  0  0  0  0  0
    9.4221  -16.7031   28.6954 O   0  0  0  0  0  0  0  0  0  0  0  0
   10.0203  -17.4250   29.7135 O   0  0  0  0  0  0  0  0  0  0  0  0
  1  2  1  0
  2  3  2  0
  4  2  1  0
  4  5  1  0
  6  5  1  0
  7  8  1  0
  7  6  1  0
  8  9  1  6
 10  8  1  0
 11 10  2  0
 12 10  1  0
 13 12  1  0
 13 14  1  1
 15 14  1  0
 16 15  2  0
 17 16  1  0
 18 17  2  0
 18 19  1  0
 19 20  2  0
 20 15  1  0
 21 13  1  0
 21 23  1  0
 22 21  2  0
 23 27  1  0
 24 23  1  0
 24 25  1  0
 25 26  1  0
 27 26  1  0
 27 28  1  1
 28 29  1  0
 30 28  2  0
M  END
$$$$
