RFP.pdb
     RDKit          3D

 30 31  0  0  1  0  0  0  0  0999 V2000
    8.6433  -20.3760   18.2087 N   0  0  0  0  0  0  0  0  0  0  0  0
    7.6356  -19.4677   17.7806 C   0  0  0  0  0  0  0  0  0  0  0  0
    7.4388  -19.3717   16.5101 N   0  0  0  0  0  0  0  0  0  0  0  0
    6.8763  -18.6969   18.7030 N   0  0  0  0  0  0  0  0  0  0  0  0
    7.0999  -18.8453   20.1099 C   0  0  0  0  0  0  0  0  0  0  0  0
    6.3438  -20.0298   20.5981 C   0  0  0  0  0  0  0  0  0  0  0  0
    6.5331  -20.2175   22.0711 C   0  0  0  0  0  0  0  0  0  0  0  0
    5.3509  -19.7021   22.8236 C   0  0  2  0  0  0  0  0  0  0  0  0
    4.1138  -19.9045   22.0935 N   0  0  0  0  0  0  0  0  0  0  0  0
    5.4757  -18.2252   23.0815 C   0  0  0  0  0  0  0  0  0  0  0  0
    4.7712  -17.4473   22.4136 O   0  0  0  0  0  0  0  0  0  0  0  0
    6.6780  -18.7896   16.1191 N   0  0  0  0  0  0  0  0  0  0  0  0
    6.3575  -17.6890   24.0476 C   0  0  1  0  0  0  0  0  0  0  0  0
    6.6222  -16.2097   24.1026 C   0  0  0  0  0  0  0  0  0  0  0  0
    6.8576  -15.9889   25.5581 C   0  0  0  0  0  0  0  0  0  0  0  0
    7.1325  -14.6795   26.0705 C   0  0  0  0  0  0  0  0  0  0  0  0
    8.4185  -14.2585   26.3258 C   0  0  0  0  0  0  0  0  0  0  0  0
    8.6704  -12.9840   26.8484 C   0  0  0  0  0  0  0  0  0  0  0  0
    7.6341  -12.1171   27.1202 C   0  0  0  0  0  0  0  0  0  0  0  0
    6.3468  -12.5252   26.8690 C   0  0  0  0  0  0  0  0  0  0  0  0
    6.1239  -13.7686   26.3610 C   0  0  0  0  0  0  0  0  0  0  0  0
    7.7841  -15.9932   23.2379 O   0  0  0  0  0  0  0  0  0  0  0  0
    8.5048  -17.0466   23.0060 N   0  0  0  0  0  0  0  0  0  0  0  0
    8.2002  -14.7952   22.6313 C   0  0  0  0  0  0  0  0  0  0  0  0
    7.7773  -13.4816   23.0308 C   0  0  0  0  0  0  0  0  0  0  0  0
    7.7389  -12.7150   21.7439 C   0  0  0  0  0  0  0  0  0  0  0  0
    8.4767  -13.5514   20.7215 C   0  0  1  0  0  0  0  0  0  0  0  0
    9.1145  -14.6412   21.5561 C   0  0  0  0  0  0  0  0  0  0  0  0
   10.4476  -14.1034   22.0561 O   0  0  0  0  0  0  0  0  0  0  0  0
   11.5189  -14.0480   21.1817 O   0  0  0  0  0  0  0  0  0  0  0  0
  1  2  1  0
  2  3  2  0
  4  2  1  0
  4  5  1  0
  6  5  1  0
  7  8  1  0
  7  6  1  0
  8  9  1  6
 10  8  1  0
 11 10  2  0
 12 10  1  0
 13 12  1  0
 13 14  1  1
 15 14  1  0
 16 15  2  0
 17 16  1  0
 18 17  2  0
 18 19  1  0
 19 20  2  0
 20 15  1  0
 21 13  1  0
 21 23  1  0
 22 21  2  0
 23 27  1  0
 24 23  1  0
 24 25  1  0
 25 26  1  0
 27 26  1  0
 27 28  1  1
 28 29  1  0
 30 28  2  0
M  END
$$$$
