RFP.pdb
     RDKit          3D

 30 31  0  0  1  0  0  0  0  0999 V2000
    8.8902  -15.2816   14.8791 N   0  0  0  0  0  0  0  0  0  0  0  0
    8.4441  -14.4805   15.9667 C   0  0  0  0  0  0  0  0  0  0  0  0
    8.7476  -13.2280   15.9313 N   0  0  0  0  0  0  0  0  0  0  0  0
    7.6984  -15.0265   17.0472 N   0  0  0  0  0  0  0  0  0  0  0  0
    8.3101  -15.9762   17.9275 C   0  0  0  0  0  0  0  0  0  0  0  0
    9.7371  -15.6046   18.1249 C   0  0  0  0  0  0  0  0  0  0  0  0
    9.9307  -14.8915   19.4267 C   0  0  0  0  0  0  0  0  0  0  0  0
    9.9934  -15.8659   20.5563 C   0  0  2  0  0  0  0  0  0  0  0  0
    8.8878  -16.8045   20.5242 N   0  0  0  0  0  0  0  0  0  0  0  0
    9.9357  -15.1599   21.8835 C   0  0  0  0  0  0  0  0  0  0  0  0
   10.8219  -14.3282   22.1494 O   0  0  0  0  0  0  0  0  0  0  0  0
    8.4022  -12.5634   16.6450 N   0  0  0  0  0  0  0  0  0  0  0  0
    8.9197  -15.4029   22.8360 C   0  0  1  0  0  0  0  0  0  0  0  0
    8.9052  -14.6607   24.1437 C   0  0  0  0  0  0  0  0  0  0  0  0
    7.4846  -14.2180   24.2355 C   0  0  0  0  0  0  0  0  0  0  0  0
    7.0310  -13.4176   25.3338 C   0  0  0  0  0  0  0  0  0  0  0  0
    6.2112  -13.9323   26.3132 C   0  0  0  0  0  0  0  0  0  0  0  0
    5.7568  -13.1318   27.3685 C   0  0  0  0  0  0  0  0  0  0  0  0
    6.1208  -11.8054   27.4531 C   0  0  0  0  0  0  0  0  0  0  0  0
    6.9390  -11.2804   26.4826 C   0  0  0  0  0  0  0  0  0  0  0  0
    7.3692  -12.0761   25.4650 C   0  0  0  0  0  0  0  0  0  0  0  0
    9.3245  -15.6406   25.1481 O   0  0  0  0  0  0  0  0  0  0  0  0
    9.3619  -16.8709   24.7385 N   0  0  0  0  0  0  0  0  0  0  0  0
    9.6938  -15.4066   26.4842 C   0  0  0  0  0  0  0  0  0  0  0  0
    9.2434  -14.2978   27.2792 C   0  0  0  0  0  0  0  0  0  0  0  0
   10.4159  -13.9953   28.1618 C   0  0  0  0  0  0  0  0  0  0  0  0
   11.3535  -15.1779   28.0539 C   0  0  1  0  0  0  0  0  0  0  0  0
   10.5347  -16.2057   27.3028 C   0  0  0  0  0  0  0  0  0  0  0  0
    9.7149  -16.9687   28.3334 O   0  0  0  0  0  0  0  0  0  0  0  0
   10.3518  -17.8850   29.1519 O   0  0  0  0  0  0  0  0  0  0  0  0
  1  2  1  0
  2  3  2  0
  4  2  1  0
  4  5  1  0
  6  5  1  0
  7  8  1  0
  7  6  1  0
  8  9  1  6
 10  8  1  0
 11 10  2  0
 12 10  1  0
 13 12  1  0
 13 14  1  1
 15 14  1  0
 16 15  2  0
 17 16  1  0
 18 17  2  0
 18 19  1  0
 19 20  2  0
 20 15  1  0
 21 13  1  0
 21 23  1  0
 22 21  2  0
 23 27  1  0
 24 23  1  0
 24 25  1  0
 25 26  1  0
 27 26  1  0
 27 28  1  1
 28 29  1  0
 30 28  2  0
M  END
$$$$
