RFP.pdb
     RDKit          3D

 30 31  0  0  1  0  0  0  0  0999 V2000
    7.2653  -14.1978   16.1020 N   0  0  0  0  0  0  0  0  0  0  0  0
    8.4677  -14.8102   15.6514 C   0  0  0  0  0  0  0  0  0  0  0  0
    8.7299  -14.7233   14.3922 N   0  0  0  0  0  0  0  0  0  0  0  0
    9.3452  -15.4892   16.5405 N   0  0  0  0  0  0  0  0  0  0  0  0
    8.9513  -15.7117   17.8994 C   0  0  0  0  0  0  0  0  0  0  0  0
    9.0612  -14.4326   18.6511 C   0  0  0  0  0  0  0  0  0  0  0  0
   10.2272  -14.4601   19.5893 C   0  0  0  0  0  0  0  0  0  0  0  0
   10.0589  -15.5398   20.6068 C   0  0  2  0  0  0  0  0  0  0  0  0
    8.8411  -16.2990   20.3946 N   0  0  0  0  0  0  0  0  0  0  0  0
    9.9867  -14.9673   21.9962 C   0  0  0  0  0  0  0  0  0  0  0  0
   10.7842  -14.0638   22.3050 O   0  0  0  0  0  0  0  0  0  0  0  0
    9.5853  -15.1381   13.9839 N   0  0  0  0  0  0  0  0  0  0  0  0
    9.0538  -15.4133   22.9600 C   0  0  1  0  0  0  0  0  0  0  0  0
    8.9744  -14.7535   24.3089 C   0  0  0  0  0  0  0  0  0  0  0  0
    7.5182  -14.4559   24.4255 C   0  0  0  0  0  0  0  0  0  0  0  0
    7.0393  -13.4625   25.3400 C   0  0  0  0  0  0  0  0  0  0  0  0
    6.1776  -13.7802   26.3661 C   0  0  0  0  0  0  0  0  0  0  0  0
    5.6994  -12.7946   27.2384 C   0  0  0  0  0  0  0  0  0  0  0  0
    6.0813  -11.4787   27.0910 C   0  0  0  0  0  0  0  0  0  0  0  0
    6.9412  -11.1493   26.0717 C   0  0  0  0  0  0  0  0  0  0  0  0
    7.3940  -12.1230   25.2347 C   0  0  0  0  0  0  0  0  0  0  0  0
    9.4912  -15.7451   25.2545 O   0  0  0  0  0  0  0  0  0  0  0  0
    9.8444  -16.8778   24.7300 N   0  0  0  0  0  0  0  0  0  0  0  0
    9.6543  -15.6127   26.6446 C   0  0  0  0  0  0  0  0  0  0  0  0
    8.9486  -14.6711   27.4689 C   0  0  0  0  0  0  0  0  0  0  0  0
    9.9452  -14.3111   28.5284 C   0  0  0  0  0  0  0  0  0  0  0  0
   11.0557  -15.3351   28.4418 C   0  0  1  0  0  0  0  0  0  0  0  0
   10.4988  -16.3753   27.4937 C   0  0  0  0  0  0  0  0  0  0  0  0
    9.6826  -17.3529   28.3271 O   0  0  0  0  0  0  0  0  0  0  0  0
   10.3437  -18.2409   29.1576 O   0  0  0  0  0  0  0  0  0  0  0  0
  1  2  1  0
  2  3  2  0
  4  2  1  0
  4  5  1  0
  6  5  1  0
  7  8  1  0
  7  6  1  0
  8  9  1  6
 10  8  1  0
 11 10  2  0
 12 10  1  0
 13 12  1  0
 13 14  1  1
 15 14  1  0
 16 15  2  0
 17 16  1  0
 18 17  2  0
 18 19  1  0
 19 20  2  0
 20 15  1  0
 21 13  1  0
 21 23  1  0
 22 21  2  0
 23 27  1  0
 24 23  1  0
 24 25  1  0
 25 26  1  0
 27 26  1  0
 27 28  1  1
 28 29  1  0
 30 28  2  0
M  END
$$$$
