RFP.pdb
     RDKit          3D

 30 31  0  0  1  0  0  0  0  0999 V2000
    9.2439  -13.2458   18.4472 N   0  0  0  0  0  0  0  0  0  0  0  0
    8.6077  -13.8950   17.3529 C   0  0  0  0  0  0  0  0  0  0  0  0
    7.6800  -13.2383   16.7446 N   0  0  0  0  0  0  0  0  0  0  0  0
    8.9705  -15.2070   16.9422 N   0  0  0  0  0  0  0  0  0  0  0  0
    8.8189  -16.3053   17.8488 C   0  0  0  0  0  0  0  0  0  0  0  0
   10.1414  -16.6209   18.4528 C   0  0  0  0  0  0  0  0  0  0  0  0
   10.4006  -15.7659   19.6538 C   0  0  0  0  0  0  0  0  0  0  0  0
   10.3767  -16.5878   20.9001 C   0  0  2  0  0  0  0  0  0  0  0  0
    9.2641  -17.5186   20.9140 N   0  0  0  0  0  0  0  0  0  0  0  0
   10.2404  -15.7174   22.1196 C   0  0  0  0  0  0  0  0  0  0  0  0
   11.0968  -14.8367   22.3155 O   0  0  0  0  0  0  0  0  0  0  0  0
    7.2202  -13.6062   15.8940 N   0  0  0  0  0  0  0  0  0  0  0  0
    9.1832  -15.8601   23.0472 C   0  0  1  0  0  0  0  0  0  0  0  0
    9.1442  -15.0228   24.2957 C   0  0  0  0  0  0  0  0  0  0  0  0
    7.7156  -14.5993   24.3428 C   0  0  0  0  0  0  0  0  0  0  0  0
    7.2690  -13.6135   25.2816 C   0  0  0  0  0  0  0  0  0  0  0  0
    7.6336  -12.2904   25.1687 C   0  0  0  0  0  0  0  0  0  0  0  0
    7.2083  -11.3419   26.1071 C   0  0  0  0  0  0  0  0  0  0  0  0
    6.4116  -11.7107   27.1693 C   0  0  0  0  0  0  0  0  0  0  0  0
    6.0405  -13.0276   27.2924 C   0  0  0  0  0  0  0  0  0  0  0  0
    6.4652  -13.9336   26.3691 C   0  0  0  0  0  0  0  0  0  0  0  0
    9.5706  -15.9175   25.3738 O   0  0  0  0  0  0  0  0  0  0  0  0
    9.8241  -17.1373   25.0123 N   0  0  0  0  0  0  0  0  0  0  0  0
    9.7425  -15.6118   26.7351 C   0  0  0  0  0  0  0  0  0  0  0  0
    9.0219  -14.5920   27.4458 C   0  0  0  0  0  0  0  0  0  0  0  0
   10.0188  -14.0825   28.4418 C   0  0  0  0  0  0  0  0  0  0  0  0
   11.1523  -15.0843   28.4687 C   0  0  1  0  0  0  0  0  0  0  0  0
   10.6119  -16.2452   27.6617 C   0  0  0  0  0  0  0  0  0  0  0  0
    9.8261  -17.1310   28.6179 O   0  0  0  0  0  0  0  0  0  0  0  0
   10.5145  -17.8891   29.5489 O   0  0  0  0  0  0  0  0  0  0  0  0
  1  2  1  0
  2  3  2  0
  4  2  1  0
  4  5  1  0
  6  5  1  0
  7  8  1  0
  7  6  1  0
  8  9  1  6
 10  8  1  0
 11 10  2  0
 12 10  1  0
 13 12  1  0
 13 14  1  1
 15 14  1  0
 16 15  2  0
 17 16  1  0
 18 17  2  0
 18 19  1  0
 19 20  2  0
 20 15  1  0
 21 13  1  0
 21 23  1  0
 22 21  2  0
 23 27  1  0
 24 23  1  0
 24 25  1  0
 25 26  1  0
 27 26  1  0
 27 28  1  1
 28 29  1  0
 30 28  2  0
M  END
$$$$
