RFP.pdb
     RDKit          3D

 30 31  0  0  1  0  0  0  0  0999 V2000
    9.4855  -13.6669   16.2557 N   0  0  0  0  0  0  0  0  0  0  0  0
    8.1659  -13.9127   16.7269 C   0  0  0  0  0  0  0  0  0  0  0  0
    7.3614  -14.5158   15.9200 N   0  0  0  0  0  0  0  0  0  0  0  0
    7.7443  -13.5150   18.0253 N   0  0  0  0  0  0  0  0  0  0  0  0
    8.6028  -13.7317   19.1511 C   0  0  0  0  0  0  0  0  0  0  0  0
    8.4496  -15.1374   19.6134 C   0  0  0  0  0  0  0  0  0  0  0  0
    9.7510  -15.8728   19.5351 C   0  0  0  0  0  0  0  0  0  0  0  0
    9.9895  -16.6551   20.7844 C   0  0  2  0  0  0  0  0  0  0  0  0
    9.0165  -17.7178   20.9522 N   0  0  0  0  0  0  0  0  0  0  0  0
    9.8964  -15.7742   22.0003 C   0  0  0  0  0  0  0  0  0  0  0  0
   10.6451  -14.7830   22.0706 O   0  0  0  0  0  0  0  0  0  0  0  0
    6.3625  -14.6558   16.1501 N   0  0  0  0  0  0  0  0  0  0  0  0
    8.9968  -16.0267   23.0611 C   0  0  1  0  0  0  0  0  0  0  0  0
    8.9688  -15.1310   24.2686 C   0  0  0  0  0  0  0  0  0  0  0  0
    7.5335  -14.7326   24.3285 C   0  0  0  0  0  0  0  0  0  0  0  0
    7.0819  -13.7386   25.2563 C   0  0  0  0  0  0  0  0  0  0  0  0
    6.3455  -14.0720   26.3711 C   0  0  0  0  0  0  0  0  0  0  0  0
    5.8911  -13.0873   27.2570 C   0  0  0  0  0  0  0  0  0  0  0  0
    6.1714  -11.7566   27.0343 C   0  0  0  0  0  0  0  0  0  0  0  0
    6.9059  -11.4114   25.9260 C   0  0  0  0  0  0  0  0  0  0  0  0
    7.3377  -12.3844   25.0774 C   0  0  0  0  0  0  0  0  0  0  0  0
    9.4367  -15.9645   25.3782 O   0  0  0  0  0  0  0  0  0  0  0  0
    9.7045  -17.1958   25.0701 N   0  0  0  0  0  0  0  0  0  0  0  0
    9.6344  -15.5898   26.7186 C   0  0  0  0  0  0  0  0  0  0  0  0
    8.9643  -14.5016   27.3752 C   0  0  0  0  0  0  0  0  0  0  0  0
    9.9912  -13.9795   28.3334 C   0  0  0  0  0  0  0  0  0  0  0  0
   11.0817  -15.0257   28.4092 C   0  0  1  0  0  0  0  0  0  0  0  0
   10.4851  -16.2063   27.6735 C   0  0  0  0  0  0  0  0  0  0  0  0
    9.6718  -17.0022   28.6842 O   0  0  0  0  0  0  0  0  0  0  0  0
   10.3360  -17.7172   29.6656 O   0  0  0  0  0  0  0  0  0  0  0  0
  1  2  1  0
  2  3  2  0
  4  2  1  0
  4  5  1  0
  6  5  1  0
  7  8  1  0
  7  6  1  0
  8  9  1  1
 10  8  1  0
 11 10  2  0
 12 10  1  0
 13 12  1  0
 13 14  1  6
 15 14  1  0
 16 15  2  0
 17 16  1  0
 18 17  2  0
 18 19  1  0
 19 20  2  0
 20 15  1  0
 21 13  1  0
 21 23  1  0
 22 21  2  0
 23 27  1  0
 24 23  1  0
 24 25  1  0
 25 26  1  0
 27 26  1  0
 27 28  1  1
 28 29  1  0
 30 28  2  0
M  END
$$$$
