RFP.pdb
     RDKit          3D

 30 31  0  0  1  0  0  0  0  0999 V2000
    7.9454  -14.3902   16.7367 N   0  0  0  0  0  0  0  0  0  0  0  0
    8.3163  -13.5514   17.8242 C   0  0  0  0  0  0  0  0  0  0  0  0
    7.7870  -12.3765   17.8612 N   0  0  0  0  0  0  0  0  0  0  0  0
    9.2278  -13.9796   18.8278 N   0  0  0  0  0  0  0  0  0  0  0  0
    9.8026  -15.2895   18.7568 C   0  0  0  0  0  0  0  0  0  0  0  0
    8.8060  -16.2825   19.2404 C   0  0  0  0  0  0  0  0  0  0  0  0
    9.2728  -16.9409   20.5011 C   0  0  0  0  0  0  0  0  0  0  0  0
    8.1759  -16.9767   21.5136 C   0  0  2  0  0  0  0  0  0  0  0  0
    6.8977  -16.5990   20.9410 N   0  0  0  0  0  0  0  0  0  0  0  0
    8.4526  -16.0241   22.6446 C   0  0  0  0  0  0  0  0  0  0  0  0
    8.6895  -14.8341   22.3703 O   0  0  0  0  0  0  0  0  0  0  0  0
    8.0336  -11.6907   18.5955 N   0  0  0  0  0  0  0  0  0  0  0  0
    8.4542  -16.4256   24.0001 C   0  0  1  0  0  0  0  0  0  0  0  0
    8.8669  -15.4649   25.0808 C   0  0  0  0  0  0  0  0  0  0  0  0
    7.5795  -15.2252   25.7934 C   0  0  0  0  0  0  0  0  0  0  0  0
    7.1087  -13.8944   26.0385 C   0  0  0  0  0  0  0  0  0  0  0  0
    7.9228  -12.9296   26.5885 C   0  0  0  0  0  0  0  0  0  0  0  0
    7.4422  -11.6393   26.8438 C   0  0  0  0  0  0  0  0  0  0  0  0
    6.1387  -11.3027   26.5493 C   0  0  0  0  0  0  0  0  0  0  0  0
    5.3169  -12.2563   25.9995 C   0  0  0  0  0  0  0  0  0  0  0  0
    5.8043  -13.5047   25.7596 C   0  0  0  0  0  0  0  0  0  0  0  0
    9.8913  -16.1704   25.8537 O   0  0  0  0  0  0  0  0  0  0  0  0
   10.5778  -17.0484   25.1899 N   0  0  0  0  0  0  0  0  0  0  0  0
   10.2190  -16.0046   27.2107 C   0  0  0  0  0  0  0  0  0  0  0  0
    9.5197  -15.1458   28.1260 C   0  0  0  0  0  0  0  0  0  0  0  0
   10.5965  -14.6575   29.0466 C   0  0  0  0  0  0  0  0  0  0  0  0
   11.8011  -15.5416   28.8087 C   0  0  1  0  0  0  0  0  0  0  0  0
   11.2535  -16.6511   27.9369 C   0  0  0  0  0  0  0  0  0  0  0  0
   10.6779  -17.7108   28.8655 O   0  0  0  0  0  0  0  0  0  0  0  0
   10.4661  -18.9878   28.3761 O   0  0  0  0  0  0  0  0  0  0  0  0
  1  2  1  0
  2  3  2  0
  4  2  1  0
  4  5  1  0
  6  5  1  0
  7  8  1  0
  7  6  1  0
  8  9  1  6
 10  8  1  0
 11 10  2  0
 12 10  1  0
 13 12  1  0
 13 14  1  1
 15 14  1  0
 16 15  2  0
 17 16  1  0
 18 17  2  0
 18 19  1  0
 19 20  2  0
 20 15  1  0
 21 13  1  0
 21 23  1  0
 22 21  2  0
 23 27  1  0
 24 23  1  0
 24 25  1  0
 25 26  1  0
 27 26  1  0
 27 28  1  1
 28 29  1  0
 30 28  2  0
M  END
$$$$
