RFP.pdb
     RDKit          3D

 30 31  0  0  1  0  0  0  0  0999 V2000
    9.7589  -13.1995   18.7473 N   0  0  0  0  0  0  0  0  0  0  0  0
    8.4666  -13.5082   18.2389 C   0  0  0  0  0  0  0  0  0  0  0  0
    7.6973  -12.5125   17.9582 N   0  0  0  0  0  0  0  0  0  0  0  0
    8.0342  -14.8490   18.0468 N   0  0  0  0  0  0  0  0  0  0  0  0
    8.1566  -15.7973   19.1131 C   0  0  0  0  0  0  0  0  0  0  0  0
    9.2694  -16.7345   18.8023 C   0  0  0  0  0  0  0  0  0  0  0  0
   10.3441  -16.6548   19.8412 C   0  0  0  0  0  0  0  0  0  0  0  0
    9.8665  -17.2217   21.1373 C   0  0  2  0  0  0  0  0  0  0  0  0
    8.5902  -17.8965   20.9958 N   0  0  0  0  0  0  0  0  0  0  0  0
    9.6831  -16.1397   22.1662 C   0  0  0  0  0  0  0  0  0  0  0  0
   10.3269  -15.0834   22.0340 O   0  0  0  0  0  0  0  0  0  0  0  0
    6.7201  -12.6498   17.6474 N   0  0  0  0  0  0  0  0  0  0  0  0
    8.8128  -16.2748   23.2719 C   0  0  1  0  0  0  0  0  0  0  0  0
    8.9037  -15.3272   24.4360 C   0  0  0  0  0  0  0  0  0  0  0  0
    7.4675  -15.0813   24.7511 C   0  0  0  0  0  0  0  0  0  0  0  0
    7.0494  -13.8681   25.3883 C   0  0  0  0  0  0  0  0  0  0  0  0
    6.1441  -13.8716   26.4260 C   0  0  0  0  0  0  0  0  0  0  0  0
    5.7270  -12.6760   27.0240 C   0  0  0  0  0  0  0  0  0  0  0  0
    6.2145  -11.4632   26.5876 C   0  0  0  0  0  0  0  0  0  0  0  0
    7.1188  -11.4466   25.5537 C   0  0  0  0  0  0  0  0  0  0  0  0
    7.5108  -12.6205   24.9862 C   0  0  0  0  0  0  0  0  0  0  0  0
    9.6581  -16.0489   25.4630 O   0  0  0  0  0  0  0  0  0  0  0  0
   10.1256  -17.2025   25.0975 N   0  0  0  0  0  0  0  0  0  0  0  0
    9.9380  -15.6403   26.7787 C   0  0  0  0  0  0  0  0  0  0  0  0
    9.2666  -14.5737   27.4684 C   0  0  0  0  0  0  0  0  0  0  0  0
   10.3361  -13.9850   28.3373 C   0  0  0  0  0  0  0  0  0  0  0  0
   11.4795  -14.9760   28.3450 C   0  0  1  0  0  0  0  0  0  0  0  0
   10.8879  -16.1974   27.6747 C   0  0  0  0  0  0  0  0  0  0  0  0
   10.1938  -17.0126   28.7564 O   0  0  0  0  0  0  0  0  0  0  0  0
   10.9644  -17.7441   29.6432 O   0  0  0  0  0  0  0  0  0  0  0  0
  1  2  1  0
  2  3  2  0
  4  2  1  0
  4  5  1  0
  6  5  1  0
  7  8  1  0
  7  6  1  0
  8  9  1  6
 10  8  1  0
 11 10  2  0
 12 10  1  0
 13 12  1  0
 13 14  1  6
 15 14  1  0
 16 15  2  0
 17 16  1  0
 18 17  2  0
 18 19  1  0
 19 20  2  0
 20 15  1  0
 21 13  1  0
 21 23  1  0
 22 21  2  0
 23 27  1  0
 24 23  1  0
 24 25  1  0
 25 26  1  0
 27 26  1  0
 27 28  1  1
 28 29  1  0
 30 28  2  0
M  END
$$$$
