GIM.pdb
     RDKit          3D

 21 20  0  0  1  0  0  0  0  0999 V2000
    6.0506  -18.8760   19.1210 N   0  0  0  0  0  0  0  0  0  0  0  0
    5.6853  -18.2734   20.3790 C   0  0  0  0  0  0  0  0  0  0  0  0
    6.7722  -17.3753   20.8206 C   0  0  0  0  0  0  0  0  0  0  0  0
    7.8650  -17.8474   21.2048 O   0  0  0  0  0  0  0  0  0  0  0  0
    7.5284  -12.4287   18.6335 C   0  0  0  0  0  0  0  0  0  0  0  0
    7.6045  -13.7594   19.2848 C   0  0  0  0  0  0  0  0  0  0  0  0
    7.7567  -13.7880   20.7595 C   0  0  2  0  0  0  0  0  0  0  0  0
    8.9340  -12.9947   21.2647 C   0  0  0  0  0  0  0  0  0  0  0  0
    7.6545  -15.1277   21.3838 C   0  0  2  0  0  0  0  0  0  0  0  0
    6.6217  -15.9583   20.8265 N   0  0  0  0  0  0  0  0  0  0  0  0
    7.5038  -15.0465   22.8805 C   0  0  0  0  0  0  0  0  0  0  0  0
    6.5199  -14.5136   23.4145 O   0  0  0  0  0  0  0  0  0  0  0  0
    7.0020  -11.7134   27.4395 C   0  0  0  0  0  0  0  0  0  0  0  0
    5.9748  -13.1249   27.0254 S   0  0  0  0  0  0  0  0  0  0  0  0
    6.5593  -14.0181   25.5580 C   0  0  0  0  0  0  0  0  0  0  0  0
    7.4743  -15.1441   25.8957 C   0  0  0  0  0  0  0  0  0  0  0  0
    8.7290  -15.1400   25.0991 C   0  0  2  0  0  0  0  0  0  0  0  0
    8.5068  -15.5902   23.7281 N   0  0  0  0  0  0  0  0  0  0  0  0
    9.8764  -15.8465   25.7097 C   0  0  0  0  0  0  0  0  0  0  0  0
   10.4003  -15.5683   26.8013 O   0  0  0  0  0  0  0  0  0  0  0  0
   10.4070  -16.9296   24.9687 O   0  0  0  0  0  0  0  0  0  0  0  0
  2  1  1  0
  2  3  1  0
  3 10  1  0
  4  3  2  0
  6  5  1  0
  7  6  1  0
  7  8  1  6
  9  7  1  0
  9 10  1  6
 11 18  1  0
 11  9  1  0
 12 11  2  0
 14 13  1  0
 15 14  1  0
 16 15  1  0
 17 16  1  1
 17 18  1  0
 19 17  1  0
 20 19  2  0
 21 19  1  0
M  END
$$$$
