GIM.pdb
     RDKit          3D

 21 20  0  0  1  0  0  0  0  0999 V2000
    8.4019  -19.2256   18.5896 N   0  0  0  0  0  0  0  0  0  0  0  0
    7.5598  -18.7058   19.6383 C   0  0  0  0  0  0  0  0  0  0  0  0
    8.2251  -17.5443   20.2638 C   0  0  0  0  0  0  0  0  0  0  0  0
    9.4199  -17.6202   20.6264 O   0  0  0  0  0  0  0  0  0  0  0  0
    7.4225  -12.3071   18.9208 C   0  0  0  0  0  0  0  0  0  0  0  0
    7.9381  -13.6097   19.4089 C   0  0  0  0  0  0  0  0  0  0  0  0
    7.7883  -13.9027   20.8547 C   0  0  2  0  0  0  0  0  0  0  0  0
    8.3757  -12.8456   21.7534 C   0  0  0  0  0  0  0  0  0  0  0  0
    8.1555  -15.2778   21.2665 C   0  0  2  0  0  0  0  0  0  0  0  0
    7.5434  -16.3110   20.4759 N   0  0  0  0  0  0  0  0  0  0  0  0
    7.8940  -15.5209   22.7300 C   0  0  0  0  0  0  0  0  0  0  0  0
    6.7974  -15.9251   23.1440 O   0  0  0  0  0  0  0  0  0  0  0  0
    6.2123  -11.1566   26.9976 C   0  0  0  0  0  0  0  0  0  0  0  0
    5.7888  -12.8984   27.0742 S   0  0  0  0  0  0  0  0  0  0  0  0
    7.2151  -13.9854   26.7968 C   0  0  0  0  0  0  0  0  0  0  0  0
    7.5139  -14.1858   25.3512 C   0  0  0  0  0  0  0  0  0  0  0  0
    8.6614  -15.0990   25.1102 C   0  0  2  0  0  0  0  0  0  0  0  0
    8.9198  -15.2870   23.6855 N   0  0  0  0  0  0  0  0  0  0  0  0
    8.6032  -16.3987   25.8144 C   0  0  0  0  0  0  0  0  0  0  0  0
    7.9788  -17.4022   25.4315 O   0  0  0  0  0  0  0  0  0  0  0  0
    9.3289  -16.4835   27.0268 O   0  0  0  0  0  0  0  0  0  0  0  0
  2  1  1  0
  2  3  1  0
  3 10  1  0
  4  3  2  0
  6  5  1  0
  7  6  1  0
  7  8  1  1
  9  7  1  0
  9 10  1  6
 11 18  1  0
 11  9  1  0
 12 11  2  0
 14 13  1  0
 15 14  1  0
 16 15  1  0
 17 16  1  6
 17 18  1  0
 19 17  1  0
 20 19  2  0
 21 19  1  0
M  END
$$$$
