GIM.pdb
     RDKit          3D

 21 20  0  0  1  0  0  0  0  0999 V2000
   11.4076  -18.1054   18.3969 N   0  0  0  0  0  0  0  0  0  0  0  0
   10.1976  -18.1836   19.1772 C   0  0  0  0  0  0  0  0  0  0  0  0
   10.1499  -17.0423   20.1143 C   0  0  0  0  0  0  0  0  0  0  0  0
   11.2079  -16.5509   20.5657 O   0  0  0  0  0  0  0  0  0  0  0  0
    6.7033  -12.7954   19.6671 C   0  0  0  0  0  0  0  0  0  0  0  0
    7.8614  -13.6648   19.9889 C   0  0  0  0  0  0  0  0  0  0  0  0
    7.8232  -14.4014   21.2753 C   0  0  2  0  0  0  0  0  0  0  0  0
    7.5963  -13.5184   22.4749 C   0  0  0  0  0  0  0  0  0  0  0  0
    8.9152  -15.3816   21.4799 C   0  0  2  0  0  0  0  0  0  0  0  0
    8.9168  -16.4651   20.5348 N   0  0  0  0  0  0  0  0  0  0  0  0
    8.9384  -15.9201   22.8865 C   0  0  0  0  0  0  0  0  0  0  0  0
    8.2636  -16.9034   23.2256 O   0  0  0  0  0  0  0  0  0  0  0  0
   10.5883  -13.8947   30.3389 C   0  0  0  0  0  0  0  0  0  0  0  0
    9.8531  -13.5060   28.7491 S   0  0  0  0  0  0  0  0  0  0  0  0
    9.7812  -14.9366   27.6351 C   0  0  0  0  0  0  0  0  0  0  0  0
    9.7982  -14.5481   26.1970 C   0  0  0  0  0  0  0  0  0  0  0  0
    9.7685  -15.7125   25.2741 C   0  0  2  0  0  0  0  0  0  0  0  0
    9.7508  -15.2992   23.8738 N   0  0  0  0  0  0  0  0  0  0  0  0
    8.7151  -16.7157   25.5439 C   0  0  0  0  0  0  0  0  0  0  0  0
    7.4944  -16.5426   25.3910 O   0  0  0  0  0  0  0  0  0  0  0  0
    9.1593  -17.9739   26.0162 O   0  0  0  0  0  0  0  0  0  0  0  0
  2  1  1  0
  2  3  1  0
  3 10  1  0
  4  3  2  0
  6  5  1  0
  7  6  1  0
  7  8  1  1
  9  7  1  0
  9 10  1  6
 11 18  1  0
 11  9  1  0
 12 11  2  0
 14 13  1  0
 15 14  1  0
 16 15  1  0
 17 16  1  1
 17 18  1  0
 19 17  1  0
 20 19  2  0
 21 19  1  0
M  END
$$$$
