GIM.pdb
     RDKit          3D

 21 20  0  0  1  0  0  0  0  0999 V2000
    9.2066  -19.8465   19.6042 N   0  0  0  0  0  0  0  0  0  0  0  0
    8.2106  -19.2435   20.4548 C   0  0  0  0  0  0  0  0  0  0  0  0
    8.6698  -17.8997   20.8624 C   0  0  0  0  0  0  0  0  0  0  0  0
    9.8813  -17.6882   21.0904 O   0  0  0  0  0  0  0  0  0  0  0  0
    7.8277  -11.8877   20.2853 C   0  0  0  0  0  0  0  0  0  0  0  0
    8.3717  -13.0828   20.9758 C   0  0  0  0  0  0  0  0  0  0  0  0
    7.6757  -14.3732   20.7539 C   0  0  2  0  0  0  0  0  0  0  0  0
    6.1766  -14.2842   20.8765 C   0  0  0  0  0  0  0  0  0  0  0  0
    8.2447  -15.5352   21.4756 C   0  0  2  0  0  0  0  0  0  0  0  0
    7.7655  -16.8082   21.0098 N   0  0  0  0  0  0  0  0  0  0  0  0
    8.0578  -15.4245   22.9663 C   0  0  0  0  0  0  0  0  0  0  0  0
    6.9965  -15.7445   23.5217 O   0  0  0  0  0  0  0  0  0  0  0  0
    7.1346  -10.6752   26.6476 C   0  0  0  0  0  0  0  0  0  0  0  0
    6.5289  -12.2090   27.3544 S   0  0  0  0  0  0  0  0  0  0  0  0
    7.5961  -13.6286   26.9824 C   0  0  0  0  0  0  0  0  0  0  0  0
    7.8325  -13.8044   25.5221 C   0  0  0  0  0  0  0  0  0  0  0  0
    8.9773  -14.7014   25.2166 C   0  0  2  0  0  0  0  0  0  0  0  0
    9.1159  -14.9412   23.7830 N   0  0  0  0  0  0  0  0  0  0  0  0
    9.0131  -15.9726   25.9725 C   0  0  0  0  0  0  0  0  0  0  0  0
    8.8205  -17.1038   25.4962 O   0  0  0  0  0  0  0  0  0  0  0  0
    9.2927  -15.8671   27.3561 O   0  0  0  0  0  0  0  0  0  0  0  0
  2  1  1  0
  2  3  1  0
  3 10  1  0
  4  3  2  0
  6  5  1  0
  7  6  1  0
  7  8  1  1
  9  7  1  0
  9 10  1  6
 11 18  1  0
 11  9  1  0
 12 11  2  0
 14 13  1  0
 15 14  1  0
 16 15  1  0
 17 16  1  6
 17 18  1  0
 19 17  1  0
 20 19  2  0
 21 19  1  0
M  END
$$$$
