GIM.pdb
     RDKit          3D

 21 20  0  0  1  0  0  0  0  0999 V2000
    8.5141  -12.0729   18.7469 N   0  0  0  0  0  0  0  0  0  0  0  0
    9.2698  -13.2715   19.0140 C   0  0  0  0  0  0  0  0  0  0  0  0
    8.5375  -14.0981   19.9955 C   0  0  0  0  0  0  0  0  0  0  0  0
    7.5119  -13.6529   20.5563 O   0  0  0  0  0  0  0  0  0  0  0  0
    7.8824  -19.5473   19.6250 C   0  0  0  0  0  0  0  0  0  0  0  0
    7.8283  -18.0867   19.8793 C   0  0  0  0  0  0  0  0  0  0  0  0
    8.2975  -17.6080   21.2020 C   0  0  2  0  0  0  0  0  0  0  0  0
    7.6870  -18.3440   22.3665 C   0  0  0  0  0  0  0  0  0  0  0  0
    8.2942  -16.1377   21.3842 C   0  0  2  0  0  0  0  0  0  0  0  0
    8.9634  -15.4144   20.3372 N   0  0  0  0  0  0  0  0  0  0  0  0
    8.8416  -15.7310   22.7274 C   0  0  0  0  0  0  0  0  0  0  0  0
   10.0419  -15.8538   23.0131 O   0  0  0  0  0  0  0  0  0  0  0  0
    5.2865  -11.7664   26.7764 C   0  0  0  0  0  0  0  0  0  0  0  0
    6.9653  -11.6691   27.4018 S   0  0  0  0  0  0  0  0  0  0  0  0
    8.0183  -13.0247   26.8135 C   0  0  0  0  0  0  0  0  0  0  0  0
    7.5692  -13.5764   25.5046 C   0  0  0  0  0  0  0  0  0  0  0  0
    8.4466  -14.6612   24.9928 C   0  0  2  0  0  0  0  0  0  0  0  0
    7.9758  -15.1872   23.7147 N   0  0  0  0  0  0  0  0  0  0  0  0
    8.7299  -15.7574   25.9451 C   0  0  0  0  0  0  0  0  0  0  0  0
    8.1333  -16.8460   25.9942 O   0  0  0  0  0  0  0  0  0  0  0  0
    9.7749  -15.5239   26.8709 O   0  0  0  0  0  0  0  0  0  0  0  0
  2  1  1  0
  2  3  1  0
  3 10  1  0
  4  3  2  0
  6  5  1  0
  7  6  1  0
  7  8  1  1
  9  7  1  0
  9 10  1  6
 11 18  1  0
 11  9  1  0
 12 11  2  0
 14 13  1  0
 15 14  1  0
 16 15  1  0
 17 16  1  1
 17 18  1  0
 19 17  1  0
 20 19  2  0
 21 19  1  0
M  END
$$$$
