GIM.pdb
     RDKit          3D

 21 20  0  0  1  0  0  0  0  0999 V2000
    4.9494  -18.8356   20.2242 N   0  0  0  0  0  0  0  0  0  0  0  0
    4.7750  -17.6935   21.0869 C   0  0  0  0  0  0  0  0  0  0  0  0
    6.0618  -16.9783   21.2112 C   0  0  0  0  0  0  0  0  0  0  0  0
    7.1300  -17.6169   21.3368 O   0  0  0  0  0  0  0  0  0  0  0  0
    7.2820  -12.5108   18.4636 C   0  0  0  0  0  0  0  0  0  0  0  0
    7.2800  -13.7678   19.2516 C   0  0  0  0  0  0  0  0  0  0  0  0
    7.6177  -13.6690   20.6921 C   0  0  2  0  0  0  0  0  0  0  0  0
    8.9648  -13.0493   20.9596 C   0  0  0  0  0  0  0  0  0  0  0  0
    7.3805  -14.8968   21.4867 C   0  0  2  0  0  0  0  0  0  0  0  0
    6.1365  -15.5553   21.1933 N   0  0  0  0  0  0  0  0  0  0  0  0
    7.4981  -14.6460   22.9675 C   0  0  0  0  0  0  0  0  0  0  0  0
    6.8008  -13.8016   23.5490 O   0  0  0  0  0  0  0  0  0  0  0  0
    7.7016  -11.5633   27.0822 C   0  0  0  0  0  0  0  0  0  0  0  0
    6.9323  -12.9809   27.8681 S   0  0  0  0  0  0  0  0  0  0  0  0
    7.6631  -14.5590   27.3503 C   0  0  0  0  0  0  0  0  0  0  0  0
    7.4326  -14.8549   25.9086 C   0  0  0  0  0  0  0  0  0  0  0  0
    8.6861  -15.1232   25.1568 C   0  0  2  0  0  0  0  0  0  0  0  0
    8.4297  -15.3873   23.7438 N   0  0  0  0  0  0  0  0  0  0  0  0
    9.5710  -16.1572   25.7371 C   0  0  0  0  0  0  0  0  0  0  0  0
    9.9655  -16.1946   26.9145 O   0  0  0  0  0  0  0  0  0  0  0  0
    9.9921  -17.1824   24.8566 O   0  0  0  0  0  0  0  0  0  0  0  0
  2  1  1  0
  2  3  1  0
  3 10  1  0
  4  3  2  0
  6  5  1  0
  7  6  1  0
  7  8  1  6
  9  7  1  0
  9 10  1  1
 11 18  1  0
 11  9  1  0
 12 11  2  0
 14 13  1  0
 15 14  1  0
 16 15  1  0
 17 16  1  1
 17 18  1  0
 19 17  1  0
 20 19  2  0
 21 19  1  0
M  END
$$$$
