GIM.pdb
     RDKit          3D

 21 20  0  0  1  0  0  0  0  0999 V2000
    8.5551  -19.6653   19.3927 N   0  0  0  0  0  0  0  0  0  0  0  0
    7.7032  -18.8668   20.2387 C   0  0  0  0  0  0  0  0  0  0  0  0
    8.4564  -17.6862   20.7098 C   0  0  0  0  0  0  0  0  0  0  0  0
    9.7014  -17.7340   20.8202 O   0  0  0  0  0  0  0  0  0  0  0  0
    6.6804  -12.5241   19.5692 C   0  0  0  0  0  0  0  0  0  0  0  0
    7.5208  -13.7226   19.8100 C   0  0  0  0  0  0  0  0  0  0  0  0
    7.8929  -14.0225   21.2138 C   0  0  2  0  0  0  0  0  0  0  0  0
    8.5661  -12.8758   21.9225 C   0  0  0  0  0  0  0  0  0  0  0  0
    8.5832  -15.3161   21.4265 C   0  0  2  0  0  0  0  0  0  0  0  0
    7.8052  -16.4657   21.0518 N   0  0  0  0  0  0  0  0  0  0  0  0
    9.0840  -15.4666   22.8392 C   0  0  0  0  0  0  0  0  0  0  0  0
   10.1785  -15.0101   23.2012 O   0  0  0  0  0  0  0  0  0  0  0  0
    6.1436  -11.2828   26.5085 C   0  0  0  0  0  0  0  0  0  0  0  0
    7.0794  -12.6976   27.0930 S   0  0  0  0  0  0  0  0  0  0  0  0
    7.1196  -14.0614   25.8967 C   0  0  0  0  0  0  0  0  0  0  0  0
    8.4920  -14.6004   25.6838 C   0  0  0  0  0  0  0  0  0  0  0  0
    8.5033  -16.0203   25.2451 C   0  0  2  0  0  0  0  0  0  0  0  0
    8.2961  -16.1488   23.8055 N   0  0  0  0  0  0  0  0  0  0  0  0
    7.6055  -16.9278   25.9929 C   0  0  0  0  0  0  0  0  0  0  0  0
    6.6095  -17.5063   25.5274 O   0  0  0  0  0  0  0  0  0  0  0  0
    7.9284  -17.1409   27.3546 O   0  0  0  0  0  0  0  0  0  0  0  0
  2  1  1  0
  2  3  1  0
  3 10  1  0
  4  3  2  0
  6  5  1  0
  7  6  1  0
  7  8  1  6
  9  7  1  0
  9 10  1  1
 11 18  1  0
 11  9  1  0
 12 11  2  0
 14 13  1  0
 15 14  1  0
 16 15  1  0
 17 16  1  1
 17 18  1  0
 19 17  1  0
 20 19  2  0
 21 19  1  0
M  END
$$$$
