GIM.pdb
     RDKit          3D

 21 20  0  0  1  0  0  0  0  0999 V2000
    5.2871  -18.9285   20.6545 N   0  0  0  0  0  0  0  0  0  0  0  0
    5.0830  -17.6347   21.2574 C   0  0  0  0  0  0  0  0  0  0  0  0
    6.3692  -16.9087   21.2952 C   0  0  0  0  0  0  0  0  0  0  0  0
    7.4486  -17.5382   21.3504 O   0  0  0  0  0  0  0  0  0  0  0  0
    7.4784  -12.7511   18.1480 C   0  0  0  0  0  0  0  0  0  0  0  0
    7.4706  -13.9132   19.0701 C   0  0  0  0  0  0  0  0  0  0  0  0
    7.8707  -13.6689   20.4769 C   0  0  2  0  0  0  0  0  0  0  0  0
    9.2139  -13.0012   20.6197 C   0  0  0  0  0  0  0  0  0  0  0  0
    7.6980  -14.8179   21.3961 C   0  0  2  0  0  0  0  0  0  0  0  0
    6.4306  -15.4852   21.2707 N   0  0  0  0  0  0  0  0  0  0  0  0
    7.9440  -14.4374   22.8328 C   0  0  0  0  0  0  0  0  0  0  0  0
    7.7728  -13.2808   23.2454 O   0  0  0  0  0  0  0  0  0  0  0  0
    6.9532  -11.2189   27.5303 C   0  0  0  0  0  0  0  0  0  0  0  0
    6.3981  -12.8962   27.8430 S   0  0  0  0  0  0  0  0  0  0  0  0
    7.5544  -14.1502   27.2238 C   0  0  0  0  0  0  0  0  0  0  0  0
    7.4456  -14.3574   25.7526 C   0  0  0  0  0  0  0  0  0  0  0  0
    8.5713  -15.1451   25.1861 C   0  0  2  0  0  0  0  0  0  0  0  0
    8.3864  -15.4164   23.7633 N   0  0  0  0  0  0  0  0  0  0  0  0
    8.9202  -16.3812   25.9203 C   0  0  0  0  0  0  0  0  0  0  0  0
    8.8596  -17.5354   25.4648 O   0  0  0  0  0  0  0  0  0  0  0  0
    9.3583  -16.2100   27.2554 O   0  0  0  0  0  0  0  0  0  0  0  0
  2  1  1  0
  2  3  1  0
  3 10  1  0
  4  3  2  0
  6  5  1  0
  7  6  1  0
  7  8  1  6
  9  7  1  0
  9 10  1  1
 11 18  1  0
 11  9  1  0
 12 11  2  0
 14 13  1  0
 15 14  1  0
 16 15  1  0
 17 16  1  1
 17 18  1  0
 19 17  1  0
 20 19  2  0
 21 19  1  0
M  END
$$$$
