GIM.pdb
     RDKit          3D

 21 20  0  0  1  0  0  0  0  0999 V2000
    9.8615  -19.2864   18.8006 N   0  0  0  0  0  0  0  0  0  0  0  0
    9.0243  -19.0862   19.9574 C   0  0  0  0  0  0  0  0  0  0  0  0
    9.3773  -17.8010   20.5951 C   0  0  0  0  0  0  0  0  0  0  0  0
   10.5256  -17.3235   20.4610 O   0  0  0  0  0  0  0  0  0  0  0  0
    7.6047  -12.1853   21.8637 C   0  0  0  0  0  0  0  0  0  0  0  0
    8.4338  -13.3719   22.1886 C   0  0  0  0  0  0  0  0  0  0  0  0
    7.9410  -14.6931   21.7297 C   0  0  2  0  0  0  0  0  0  0  0  0
    6.5056  -14.9676   22.0967 C   0  0  0  0  0  0  0  0  0  0  0  0
    8.8368  -15.8391   22.0115 C   0  0  2  0  0  0  0  0  0  0  0  0
    8.4389  -17.0659   21.3760 N   0  0  0  0  0  0  0  0  0  0  0  0
    9.0293  -16.0590   23.4893 C   0  0  0  0  0  0  0  0  0  0  0  0
    8.2146  -16.6987   24.1707 O   0  0  0  0  0  0  0  0  0  0  0  0
    9.7585  -12.4739   28.6473 C   0  0  0  0  0  0  0  0  0  0  0  0
    8.5184  -12.5812   27.3551 S   0  0  0  0  0  0  0  0  0  0  0  0
    9.0324  -13.6318   25.9678 C   0  0  0  0  0  0  0  0  0  0  0  0
    9.3330  -15.0301   26.3848 C   0  0  0  0  0  0  0  0  0  0  0  0
   10.4096  -15.6639   25.5800 C   0  0  2  0  0  0  0  0  0  0  0  0
   10.1721  -15.5269   24.1459 N   0  0  0  0  0  0  0  0  0  0  0  0
   10.7314  -17.0642   25.9325 C   0  0  0  0  0  0  0  0  0  0  0  0
   11.1034  -17.4626   27.0490 O   0  0  0  0  0  0  0  0  0  0  0  0
   10.5969  -18.0151   24.8926 O   0  0  0  0  0  0  0  0  0  0  0  0
  2  1  1  0
  2  3  1  0
  3 10  1  0
  4  3  2  0
  6  5  1  0
  7  6  1  0
  7  8  1  1
  9  7  1  0
  9 10  1  1
 11 18  1  0
 11  9  1  0
 12 11  2  0
 14 13  1  0
 15 14  1  0
 16 15  1  0
 17 16  1  1
 17 18  1  0
 19 17  1  0
 20 19  2  0
 21 19  1  0
M  END
$$$$
