GIM.pdb
     RDKit          3D

 21 20  0  0  1  0  0  0  0  0999 V2000
    6.0797  -19.8228   23.0707 N   0  0  0  0  0  0  0  0  0  0  0  0
    5.6536  -18.4453   23.0818 C   0  0  0  0  0  0  0  0  0  0  0  0
    6.7806  -17.5855   22.6650 C   0  0  0  0  0  0  0  0  0  0  0  0
    7.9517  -18.0242   22.6870 O   0  0  0  0  0  0  0  0  0  0  0  0
    8.3572  -12.7408   19.1613 C   0  0  0  0  0  0  0  0  0  0  0  0
    8.5942  -13.9050   20.0498 C   0  0  0  0  0  0  0  0  0  0  0  0
    7.4100  -14.5204   20.6962 C   0  0  2  0  0  0  0  0  0  0  0  0
    6.3174  -13.5366   21.0258 C   0  0  0  0  0  0  0  0  0  0  0  0
    7.7052  -15.4488   21.8125 C   0  0  2  0  0  0  0  0  0  0  0  0
    6.5816  -16.2437   22.2283 N   0  0  0  0  0  0  0  0  0  0  0  0
    8.3052  -14.7385   22.9978 C   0  0  0  0  0  0  0  0  0  0  0  0
    8.2778  -13.5038   23.1078 O   0  0  0  0  0  0  0  0  0  0  0  0
    5.9921  -11.9324   27.1013 C   0  0  0  0  0  0  0  0  0  0  0  0
    6.9275  -13.0396   28.1588 S   0  0  0  0  0  0  0  0  0  0  0  0
    8.3916  -13.7306   27.3393 C   0  0  0  0  0  0  0  0  0  0  0  0
    8.0881  -14.2871   25.9911 C   0  0  0  0  0  0  0  0  0  0  0  0
    9.2643  -14.9192   25.3387 C   0  0  2  0  0  0  0  0  0  0  0  0
    8.9275  -15.4845   24.0352 N   0  0  0  0  0  0  0  0  0  0  0  0
   10.0050  -15.8974   26.1652 C   0  0  0  0  0  0  0  0  0  0  0  0
   10.6474  -15.6351   27.1958 O   0  0  0  0  0  0  0  0  0  0  0  0
    9.9646  -17.2421   25.7251 O   0  0  0  0  0  0  0  0  0  0  0  0
  2  1  1  0
  2  3  1  0
  3 10  1  0
  4  3  2  0
  6  5  1  0
  7  6  1  0
  7  8  1  1
  9  7  1  0
  9 10  1  1
 11 18  1  0
 11  9  1  0
 12 11  2  0
 14 13  1  0
 15 14  1  0
 16 15  1  0
 17 16  1  1
 17 18  1  0
 19 17  1  0
 20 19  2  0
 21 19  1  0
M  END
$$$$
