GIM.pdb
     RDKit          3D

 21 20  0  0  1  0  0  0  0  0999 V2000
    7.7046  -15.3071   19.6244 N   0  0  0  0  0  0  0  0  0  0  0  0
    6.9313  -15.5438   20.8182 C   0  0  0  0  0  0  0  0  0  0  0  0
    7.6909  -15.0642   21.9912 C   0  0  0  0  0  0  0  0  0  0  0  0
    8.9051  -14.7832   21.8858 O   0  0  0  0  0  0  0  0  0  0  0  0
    5.3007  -11.7548   25.6641 C   0  0  0  0  0  0  0  0  0  0  0  0
    6.2440  -12.4593   24.7615 C   0  0  0  0  0  0  0  0  0  0  0  0
    7.0201  -13.5863   25.3329 C   0  0  2  0  0  0  0  0  0  0  0  0
    7.7817  -13.2280   26.5827 C   0  0  0  0  0  0  0  0  0  0  0  0
    7.8343  -14.3547   24.3626 C   0  0  2  0  0  0  0  0  0  0  0  0
    7.0805  -14.9053   23.2691 N   0  0  0  0  0  0  0  0  0  0  0  0
    8.6436  -15.4354   25.0309 C   0  0  0  0  0  0  0  0  0  0  0  0
    8.2478  -16.6086   25.0957 O   0  0  0  0  0  0  0  0  0  0  0  0
   10.8456  -14.5175   30.2434 C   0  0  0  0  0  0  0  0  0  0  0  0
   12.0962  -15.7854   30.0258 S   0  0  0  0  0  0  0  0  0  0  0  0
   12.2241  -16.3650   28.3110 C   0  0  0  0  0  0  0  0  0  0  0  0
   11.6065  -15.4221   27.3369 C   0  0  0  0  0  0  0  0  0  0  0  0
   10.6947  -16.0895   26.3715 C   0  0  2  0  0  0  0  0  0  0  0  0
    9.9029  -15.1257   25.6124 N   0  0  0  0  0  0  0  0  0  0  0  0
    9.8360  -17.1546   26.9344 C   0  0  0  0  0  0  0  0  0  0  0  0
   10.0814  -18.3722   26.9075 O   0  0  0  0  0  0  0  0  0  0  0  0
    8.6365  -16.7264   27.5521 O   0  0  0  0  0  0  0  0  0  0  0  0
  2  1  1  0
  2  3  1  0
  3 10  1  0
  4  3  2  0
  6  5  1  0
  7  6  1  0
  7  8  1  1
  9  7  1  0
  9 10  1  6
 11 18  1  0
 11  9  1  0
 12 11  2  0
 14 13  1  0
 15 14  1  0
 16 15  1  0
 17 16  1  1
 17 18  1  0
 19 17  1  0
 20 19  2  0
 21 19  1  0
M  END
$$$$
