WGG.pdb
     RDKit          3D

 23 24  0  0  1  0  0  0  0  0999 V2000
    8.3784  -16.5472   23.2819 N   0  0  0  0  0  0  0  0  0  0  0  0
    9.4267  -15.7795   23.9017 C   0  0  1  0  0  0  0  0  0  0  0  0
    9.1851  -15.7422   25.3938 C   0  0  0  0  0  0  0  0  0  0  0  0
    7.9064  -15.1474   25.7920 C   0  0  0  0  0  0  0  0  0  0  0  0
    6.7581  -15.8646   26.0629 C   0  0  0  0  0  0  0  0  0  0  0  0
    5.7992  -15.0171   26.4216 N   0  0  0  0  0  0  0  0  0  0  0  0
    6.2716  -13.7524   26.3985 C   0  0  0  0  0  0  0  0  0  0  0  0
    5.6857  -12.5459   26.6744 C   0  0  0  0  0  0  0  0  0  0  0  0
    6.3827  -11.3542   26.5710 C   0  0  0  0  0  0  0  0  0  0  0  0
    7.6930  -11.4420   26.1770 C   0  0  0  0  0  0  0  0  0  0  0  0
    8.3149  -12.6499   25.8906 C   0  0  0  0  0  0  0  0  0  0  0  0
    7.5992  -13.8146   26.0030 C   0  0  0  0  0  0  0  0  0  0  0  0
   10.7193  -16.4818   23.7130 C   0  0  0  0  0  0  0  0  0  0  0  0
   11.7353  -16.0163   24.2823 O   0  0  0  0  0  0  0  0  0  0  0  0
   10.8066  -17.6704   22.8949 N   0  0  0  0  0  0  0  0  0  0  0  0
   12.1295  -18.1457   22.6416 C   0  0  0  0  0  0  0  0  0  0  0  0
   12.6709  -17.8625   21.3166 C   0  0  0  0  0  0  0  0  0  0  0  0
   11.9227  -18.1334   20.3281 O   0  0  0  0  0  0  0  0  0  0  0  0
   13.9436  -17.3175   21.0286 N   0  0  0  0  0  0  0  0  0  0  0  0
   14.0584  -15.9888   20.4272 C   0  0  0  0  0  0  0  0  0  0  0  0
   14.0737  -16.0846   18.9533 C   0  0  0  0  0  0  0  0  0  0  0  0
   13.6580  -17.1128   18.3886 O   0  0  0  0  0  0  0  0  0  0  0  0
   14.5478  -15.0377   18.1942 O   0  0  0  0  0  0  0  0  0  0  0  0
  2 13  1  0
  2  1  1  6
  3  2  1  0
  4  5  2  0
  4  3  1  0
  6  5  1  0
  7 12  2  0
  7  6  1  0
  8  7  1  0
  9 10  1  0
  9  8  2  0
 10 11  2  0
 11 12  1  0
 12  4  1  0
 13 15  1  0
 14 13  2  0
 15 16  1  0
 16 17  1  0
 17 19  1  0
 17 18  2  0
 19 20  1  0
 20 21  1  0
 21 22  2  0
 21 23  1  0
M  END
$$$$
