WGG.pdb
     RDKit          3D

 23 24  0  0  1  0  0  0  0  0999 V2000
    7.5499  -17.3697   23.0431 N   0  0  0  0  0  0  0  0  0  0  0  0
    7.4131  -15.9847   22.6752 C   0  0  1  0  0  0  0  0  0  0  0  0
    8.2965  -15.1524   23.5768 C   0  0  0  0  0  0  0  0  0  0  0  0
    7.6677  -14.7332   24.8322 C   0  0  0  0  0  0  0  0  0  0  0  0
    7.1538  -15.5970   25.7789 C   0  0  0  0  0  0  0  0  0  0  0  0
    6.6895  -14.8847   26.8005 N   0  0  0  0  0  0  0  0  0  0  0  0
    6.8771  -13.5684   26.5656 C   0  0  0  0  0  0  0  0  0  0  0  0
    6.5721  -12.4506   27.2955 C   0  0  0  0  0  0  0  0  0  0  0  0
    6.8596  -11.1767   26.8360 C   0  0  0  0  0  0  0  0  0  0  0  0
    7.4666  -11.0892   25.6097 C   0  0  0  0  0  0  0  0  0  0  0  0
    7.7885  -12.2036   24.8465 C   0  0  0  0  0  0  0  0  0  0  0  0
    7.4925  -13.4532   25.3283 C   0  0  0  0  0  0  0  0  0  0  0  0
    7.9347  -15.7939   21.3000 C   0  0  0  0  0  0  0  0  0  0  0  0
    8.8509  -16.5529   20.9031 O   0  0  0  0  0  0  0  0  0  0  0  0
    7.4021  -14.7612   20.4400 N   0  0  0  0  0  0  0  0  0  0  0  0
    7.9853  -14.6848   19.1384 C   0  0  0  0  0  0  0  0  0  0  0  0
    9.2390  -13.9450   19.0388 C   0  0  0  0  0  0  0  0  0  0  0  0
    9.3658  -13.1754   18.0378 O   0  0  0  0  0  0  0  0  0  0  0  0
   10.3220  -14.0023   19.9463 N   0  0  0  0  0  0  0  0  0  0  0  0
   11.5705  -13.2995   19.6504 C   0  0  0  0  0  0  0  0  0  0  0  0
   12.6179  -14.2536   19.2328 C   0  0  0  0  0  0  0  0  0  0  0  0
   12.4999  -15.4653   19.4910 O   0  0  0  0  0  0  0  0  0  0  0  0
   13.7318  -13.8093   18.5552 O   0  0  0  0  0  0  0  0  0  0  0  0
  2 13  1  0
  2  1  1  1
  3  2  1  0
  4  5  2  0
  4  3  1  0
  6  5  1  0
  7 12  2  0
  7  6  1  0
  8  7  1  0
  9 10  1  0
  9  8  2  0
 10 11  2  0
 11 12  1  0
 12  4  1  0
 13 15  1  0
 14 13  2  0
 15 16  1  0
 16 17  1  0
 17 19  1  0
 17 18  2  0
 19 20  1  0
 20 21  1  0
 21 22  2  0
 21 23  1  0
M  END
$$$$
