WGG.pdb
     RDKit          3D

 23 24  0  0  1  0  0  0  0  0999 V2000
    8.5912  -16.9586   23.7551 N   0  0  0  0  0  0  0  0  0  0  0  0
    9.6019  -16.0720   24.2697 C   0  0  1  0  0  0  0  0  0  0  0  0
    9.2729  -15.7418   25.7079 C   0  0  0  0  0  0  0  0  0  0  0  0
    7.9325  -15.1882   25.9176 C   0  0  0  0  0  0  0  0  0  0  0  0
    6.7882  -15.9436   26.0794 C   0  0  0  0  0  0  0  0  0  0  0  0
    5.7598  -15.1250   26.2771 N   0  0  0  0  0  0  0  0  0  0  0  0
    6.1819  -13.8427   26.2518 C   0  0  0  0  0  0  0  0  0  0  0  0
    5.5197  -12.6529   26.3960 C   0  0  0  0  0  0  0  0  0  0  0  0
    6.1773  -11.4368   26.3222 C   0  0  0  0  0  0  0  0  0  0  0  0
    7.5289  -11.4829   26.0965 C   0  0  0  0  0  0  0  0  0  0  0  0
    8.2281  -12.6731   25.9464 C   0  0  0  0  0  0  0  0  0  0  0  0
    7.5498  -13.8626   26.0256 C   0  0  0  0  0  0  0  0  0  0  0  0
   10.9027  -16.7840   24.2994 C   0  0  0  0  0  0  0  0  0  0  0  0
   11.4879  -16.9031   25.4023 O   0  0  0  0  0  0  0  0  0  0  0  0
   11.4810  -17.3258   23.0905 N   0  0  0  0  0  0  0  0  0  0  0  0
   12.8738  -17.6346   23.1609 C   0  0  0  0  0  0  0  0  0  0  0  0
   13.7294  -16.9688   22.1843 C   0  0  0  0  0  0  0  0  0  0  0  0
   14.8575  -16.5638   22.6009 O   0  0  0  0  0  0  0  0  0  0  0  0
   13.4242  -16.7320   20.8240 N   0  0  0  0  0  0  0  0  0  0  0  0
   14.3805  -16.0353   19.9636 C   0  0  0  0  0  0  0  0  0  0  0  0
   13.6899  -15.0420   19.1162 C   0  0  0  0  0  0  0  0  0  0  0  0
   12.4785  -15.1706   18.8616 O   0  0  0  0  0  0  0  0  0  0  0  0
   14.3812  -13.9673   18.6020 O   0  0  0  0  0  0  0  0  0  0  0  0
  2 13  1  0
  2  1  1  1
  3  2  1  0
  4  5  2  0
  4  3  1  0
  6  5  1  0
  7 12  2  0
  7  6  1  0
  8  7  1  0
  9 10  1  0
  9  8  2  0
 10 11  2  0
 11 12  1  0
 12  4  1  0
 13 15  1  0
 14 13  2  0
 15 16  1  0
 16 17  1  0
 17 19  1  0
 17 18  2  0
 19 20  1  0
 20 21  1  0
 21 22  2  0
 21 23  1  0
M  END
$$$$
