WGG.pdb
     RDKit          3D

 23 24  0  0  1  0  0  0  0  0999 V2000
    7.8200  -17.2900   23.2079 N   0  0  0  0  0  0  0  0  0  0  0  0
    8.3863  -16.0323   22.7959 C   0  0  1  0  0  0  0  0  0  0  0  0
    8.8766  -15.2947   24.0213 C   0  0  0  0  0  0  0  0  0  0  0  0
    7.8318  -14.9594   24.9925 C   0  0  0  0  0  0  0  0  0  0  0  0
    6.9830  -15.8764   25.5798 C   0  0  0  0  0  0  0  0  0  0  0  0
    6.1844  -15.2375   26.4286 N   0  0  0  0  0  0  0  0  0  0  0  0
    6.4732  -13.9185   26.4269 C   0  0  0  0  0  0  0  0  0  0  0  0
    5.9398  -12.8587   27.1104 C   0  0  0  0  0  0  0  0  0  0  0  0
    6.4046  -11.5666   26.9340 C   0  0  0  0  0  0  0  0  0  0  0  0
    7.4287  -11.4000   26.0376 C   0  0  0  0  0  0  0  0  0  0  0  0
    7.9902  -12.4543   25.3299 C   0  0  0  0  0  0  0  0  0  0  0  0
    7.5097  -13.7239   25.5265 C   0  0  0  0  0  0  0  0  0  0  0  0
    9.5871  -16.2897   21.9643 C   0  0  0  0  0  0  0  0  0  0  0  0
   10.3125  -15.3150   21.6531 O   0  0  0  0  0  0  0  0  0  0  0  0
    9.9130  -17.6274   21.5238 N   0  0  0  0  0  0  0  0  0  0  0  0
   11.0795  -17.7379   20.7070 C   0  0  0  0  0  0  0  0  0  0  0  0
   12.3524  -17.8303   21.4143 C   0  0  0  0  0  0  0  0  0  0  0  0
   13.3945  -17.9281   20.6969 O   0  0  0  0  0  0  0  0  0  0  0  0
   12.5363  -17.8214   22.8164 N   0  0  0  0  0  0  0  0  0  0  0  0
   13.8527  -18.1016   23.3897 C   0  0  0  0  0  0  0  0  0  0  0  0
   14.6370  -16.8572   23.5241 C   0  0  0  0  0  0  0  0  0  0  0  0
   14.2470  -15.8094   22.9774 O   0  0  0  0  0  0  0  0  0  0  0  0
   15.8046  -16.8477   24.2547 O   0  0  0  0  0  0  0  0  0  0  0  0
  2 13  1  0
  2  1  1  1
  3  2  1  0
  4  5  2  0
  4  3  1  0
  6  5  1  0
  7 12  2  0
  7  6  1  0
  8  7  1  0
  9 10  1  0
  9  8  2  0
 10 11  2  0
 11 12  1  0
 12  4  1  0
 13 15  1  0
 14 13  2  0
 15 16  1  0
 16 17  1  0
 17 19  1  0
 17 18  2  0
 19 20  1  0
 20 21  1  0
 21 22  2  0
 21 23  1  0
M  END
$$$$
