WGG.pdb
     RDKit          3D

 23 24  0  0  1  0  0  0  0  0999 V2000
    8.0236  -17.5417   25.3595 N   0  0  0  0  0  0  0  0  0  0  0  0
    7.2041  -16.6815   24.5466 C   0  0  1  0  0  0  0  0  0  0  0  0
    7.8987  -15.3469   24.3971 C   0  0  0  0  0  0  0  0  0  0  0  0
    7.9906  -14.5631   25.6318 C   0  0  0  0  0  0  0  0  0  0  0  0
    8.8460  -14.8451   26.6782 C   0  0  0  0  0  0  0  0  0  0  0  0
    8.6904  -13.9193   27.6192 N   0  0  0  0  0  0  0  0  0  0  0  0
    7.7550  -13.0252   27.2337 C   0  0  0  0  0  0  0  0  0  0  0  0
    7.2411  -11.9110   27.8415 C   0  0  0  0  0  0  0  0  0  0  0  0
    6.2610  -11.1381   27.2426 C   0  0  0  0  0  0  0  0  0  0  0  0
    5.8285  -11.5451   26.0068 C   0  0  0  0  0  0  0  0  0  0  0  0
    6.3301  -12.6695   25.3650 C   0  0  0  0  0  0  0  0  0  0  0  0
    7.3016  -13.4152   25.9825 C   0  0  0  0  0  0  0  0  0  0  0  0
    7.1098  -17.2503   23.1801 C   0  0  0  0  0  0  0  0  0  0  0  0
    6.3302  -16.7042   22.3634 O   0  0  0  0  0  0  0  0  0  0  0  0
    7.8948  -18.4028   22.7992 N   0  0  0  0  0  0  0  0  0  0  0  0
    8.4198  -18.3766   21.4712 C   0  0  0  0  0  0  0  0  0  0  0  0
    9.6286  -17.5833   21.2741 C   0  0  0  0  0  0  0  0  0  0  0  0
   10.0290  -17.4469   20.0777 O   0  0  0  0  0  0  0  0  0  0  0  0
   10.3938  -16.9544   22.2833 N   0  0  0  0  0  0  0  0  0  0  0  0
   11.5988  -16.2018   21.9344 C   0  0  0  0  0  0  0  0  0  0  0  0
   12.8072  -17.0203   22.1612 C   0  0  0  0  0  0  0  0  0  0  0  0
   13.5391  -16.7974   23.1428 O   0  0  0  0  0  0  0  0  0  0  0  0
   13.1323  -18.0353   21.2887 O   0  0  0  0  0  0  0  0  0  0  0  0
  2 13  1  0
  2  1  1  1
  3  2  1  0
  4  5  2  0
  4  3  1  0
  6  5  1  0
  7 12  2  0
  7  6  1  0
  8  7  1  0
  9 10  1  0
  9  8  2  0
 10 11  2  0
 11 12  1  0
 12  4  1  0
 13 15  1  0
 14 13  2  0
 15 16  1  0
 16 17  1  0
 17 19  1  0
 17 18  2  0
 19 20  1  0
 20 21  1  0
 21 22  2  0
 21 23  1  0
M  END
$$$$
