WGG.pdb
     RDKit          3D

 23 24  0  0  1  0  0  0  0  0999 V2000
    8.0370  -17.6615   24.2442 N   0  0  0  0  0  0  0  0  0  0  0  0
    7.6876  -16.6164   23.3180 C   0  0  1  0  0  0  0  0  0  0  0  0
    8.1496  -15.2920   23.8821 C   0  0  0  0  0  0  0  0  0  0  0  0
    7.2525  -14.7061   24.8817 C   0  0  0  0  0  0  0  0  0  0  0  0
    6.2483  -15.3939   25.5336 C   0  0  0  0  0  0  0  0  0  0  0  0
    5.6529  -14.5708   26.3907 N   0  0  0  0  0  0  0  0  0  0  0  0
    6.2288  -13.3510   26.3316 C   0  0  0  0  0  0  0  0  0  0  0  0
    5.9780  -12.1816   26.9985 C   0  0  0  0  0  0  0  0  0  0  0  0
    6.7111  -11.0319   26.7589 C   0  0  0  0  0  0  0  0  0  0  0  0
    7.7038  -11.1222   25.8174 C   0  0  0  0  0  0  0  0  0  0  0  0
    7.9821  -12.2932   25.1252 C   0  0  0  0  0  0  0  0  0  0  0  0
    7.2397  -13.4169   25.3847 C   0  0  0  0  0  0  0  0  0  0  0  0
    8.4444  -16.8118   22.0575 C   0  0  0  0  0  0  0  0  0  0  0  0
    9.6879  -16.9590   22.1296 O   0  0  0  0  0  0  0  0  0  0  0  0
    7.7680  -16.8318   20.7802 N   0  0  0  0  0  0  0  0  0  0  0  0
    8.4651  -16.1990   19.7061 C   0  0  0  0  0  0  0  0  0  0  0  0
    9.6293  -16.9104   19.1886 C   0  0  0  0  0  0  0  0  0  0  0  0
   10.1556  -16.4445   18.1321 O   0  0  0  0  0  0  0  0  0  0  0  0
   10.2253  -18.0641   19.7483 N   0  0  0  0  0  0  0  0  0  0  0  0
   11.2791  -18.7752   19.0244 C   0  0  0  0  0  0  0  0  0  0  0  0
   12.5954  -18.1567   19.2819 C   0  0  0  0  0  0  0  0  0  0  0  0
   13.6353  -18.7048   18.8731 O   0  0  0  0  0  0  0  0  0  0  0  0
   12.6813  -16.9699   19.9758 O   0  0  0  0  0  0  0  0  0  0  0  0
  2 13  1  0
  2  1  1  1
  3  2  1  0
  4  5  2  0
  4  3  1  0
  6  5  1  0
  7 12  2  0
  7  6  1  0
  8  7  1  0
  9 10  1  0
  9  8  2  0
 10 11  2  0
 11 12  1  0
 12  4  1  0
 13 15  1  0
 14 13  2  0
 15 16  1  0
 16 17  1  0
 17 19  1  0
 17 18  2  0
 19 20  1  0
 20 21  1  0
 21 22  2  0
 21 23  1  0
M  END
$$$$
