WGG.pdb
     RDKit          3D

 23 24  0  0  1  0  0  0  0  0999 V2000
    6.9440  -17.7761   24.2104 N   0  0  0  0  0  0  0  0  0  0  0  0
    7.2215  -16.6310   23.3834 C   0  0  1  0  0  0  0  0  0  0  0  0
    8.0534  -15.6485   24.1762 C   0  0  0  0  0  0  0  0  0  0  0  0
    7.3159  -14.9154   25.2086 C   0  0  0  0  0  0  0  0  0  0  0  0
    6.5265  -15.5042   26.1763 C   0  0  0  0  0  0  0  0  0  0  0  0
    6.0337  -14.5530   26.9632 N   0  0  0  0  0  0  0  0  0  0  0  0
    6.4698  -13.3437   26.5505 C   0  0  0  0  0  0  0  0  0  0  0  0
    6.2441  -12.0759   27.0161 C   0  0  0  0  0  0  0  0  0  0  0  0
    6.8053  -10.9643   26.4111 C   0  0  0  0  0  0  0  0  0  0  0  0
    7.6007  -11.1964   25.3186 C   0  0  0  0  0  0  0  0  0  0  0  0
    7.8485  -12.4696   24.8231 C   0  0  0  0  0  0  0  0  0  0  0  0
    7.2795  -13.5521   25.4443 C   0  0  0  0  0  0  0  0  0  0  0  0
    8.0647  -17.0520   22.2382 C   0  0  0  0  0  0  0  0  0  0  0  0
    9.2664  -17.3349   22.4596 O   0  0  0  0  0  0  0  0  0  0  0  0
    7.5172  -17.1343   20.9029 N   0  0  0  0  0  0  0  0  0  0  0  0
    7.9887  -16.1477   19.9840 C   0  0  0  0  0  0  0  0  0  0  0  0
    9.4174  -16.1754   19.6891 C   0  0  0  0  0  0  0  0  0  0  0  0
    9.7968  -15.5383   18.6594 O   0  0  0  0  0  0  0  0  0  0  0  0
   10.4162  -16.8409   20.4369 N   0  0  0  0  0  0  0  0  0  0  0  0
   11.8143  -16.7913   20.0091 C   0  0  0  0  0  0  0  0  0  0  0  0
   12.1548  -17.9828   19.2053 C   0  0  0  0  0  0  0  0  0  0  0  0
   12.3746  -19.0729   19.7642 O   0  0  0  0  0  0  0  0  0  0  0  0
   12.2313  -17.8960   17.8328 O   0  0  0  0  0  0  0  0  0  0  0  0
  2 13  1  0
  2  1  1  1
  3  2  1  0
  4  5  2  0
  4  3  1  0
  6  5  1  0
  7 12  2  0
  7  6  1  0
  8  7  1  0
  9 10  1  0
  9  8  2  0
 10 11  2  0
 11 12  1  0
 12  4  1  0
 13 15  1  0
 14 13  2  0
 15 16  1  0
 16 17  1  0
 17 19  1  0
 17 18  2  0
 19 20  1  0
 20 21  1  0
 21 22  2  0
 21 23  1  0
M  END
$$$$
