WGG.pdb
     RDKit          3D

 23 24  0  0  1  0  0  0  0  0999 V2000
    9.9166  -17.5561   22.7028 N   0  0  0  0  0  0  0  0  0  0  0  0
   10.6282  -16.3048   22.6979 C   0  0  1  0  0  0  0  0  0  0  0  0
    9.7203  -15.2267   23.2451 C   0  0  0  0  0  0  0  0  0  0  0  0
    8.5969  -14.8723   22.3736 C   0  0  0  0  0  0  0  0  0  0  0  0
    7.2784  -15.1988   22.6215 C   0  0  0  0  0  0  0  0  0  0  0  0
    6.5237  -14.6981   21.6486 N   0  0  0  0  0  0  0  0  0  0  0  0
    7.2985  -14.0459   20.7556 C   0  0  0  0  0  0  0  0  0  0  0  0
    7.0045  -13.3774   19.5973 C   0  0  0  0  0  0  0  0  0  0  0  0
    7.9888  -12.7821   18.8270 C   0  0  0  0  0  0  0  0  0  0  0  0
    9.2771  -12.8956   19.2827 C   0  0  0  0  0  0  0  0  0  0  0  0
    9.6065  -13.5665   20.4529 C   0  0  0  0  0  0  0  0  0  0  0  0
    8.6096  -14.1455   21.1959 C   0  0  0  0  0  0  0  0  0  0  0  0
   11.7724  -16.3934   23.6375 C   0  0  0  0  0  0  0  0  0  0  0  0
   11.7830  -17.3299   24.4718 O   0  0  0  0  0  0  0  0  0  0  0  0
   12.8464  -15.4268   23.5937 N   0  0  0  0  0  0  0  0  0  0  0  0
   14.0304  -15.7917   24.3045 C   0  0  0  0  0  0  0  0  0  0  0  0
   15.1861  -16.1466   23.4876 C   0  0  0  0  0  0  0  0  0  0  0  0
   15.8860  -17.1258   23.8896 O   0  0  0  0  0  0  0  0  0  0  0  0
   15.6001  -15.5075   22.2960 N   0  0  0  0  0  0  0  0  0  0  0  0
   16.7718  -15.9931   21.5671 C   0  0  0  0  0  0  0  0  0  0  0  0
   17.9663  -15.1957   21.9122 C   0  0  0  0  0  0  0  0  0  0  0  0
   18.3727  -14.3100   21.1380 O   0  0  0  0  0  0  0  0  0  0  0  0
   18.6382  -15.4264   23.0923 O   0  0  0  0  0  0  0  0  0  0  0  0
  2 13  1  0
  2  1  1  1
  3  2  1  0
  4  5  2  0
  4  3  1  0
  6  5  1  0
  7 12  2  0
  7  6  1  0
  8  7  1  0
  9 10  1  0
  9  8  2  0
 10 11  2  0
 11 12  1  0
 12  4  1  0
 13 15  1  0
 14 13  2  0
 15 16  1  0
 16 17  1  0
 17 19  1  0
 17 18  2  0
 19 20  1  0
 20 21  1  0
 21 22  2  0
 21 23  1  0
M  END
$$$$
