WGG.pdb
     RDKit          3D

 23 24  0  0  1  0  0  0  0  0999 V2000
    6.9860  -15.6658   22.1284 N   0  0  0  0  0  0  0  0  0  0  0  0
    8.3708  -15.5552   22.5055 C   0  0  1  0  0  0  0  0  0  0  0  0
    8.5050  -15.9017   23.9711 C   0  0  0  0  0  0  0  0  0  0  0  0
    7.5360  -15.2389   24.8479 C   0  0  0  0  0  0  0  0  0  0  0  0
    6.4934  -15.8775   25.4895 C   0  0  0  0  0  0  0  0  0  0  0  0
    5.8337  -14.9874   26.2238 N   0  0  0  0  0  0  0  0  0  0  0  0
    6.4038  -13.7705   26.0924 C   0  0  0  0  0  0  0  0  0  0  0  0
    6.0987  -12.5485   26.6296 C   0  0  0  0  0  0  0  0  0  0  0  0
    6.8388  -11.4158   26.3362 C   0  0  0  0  0  0  0  0  0  0  0  0
    7.8956  -11.5786   25.4780 C   0  0  0  0  0  0  0  0  0  0  0  0
    8.2299  -12.8042   24.9176 C   0  0  0  0  0  0  0  0  0  0  0  0
    7.4789  -13.9093   25.2277 C   0  0  0  0  0  0  0  0  0  0  0  0
    9.1574  -16.5745   21.7693 C   0  0  0  0  0  0  0  0  0  0  0  0
    8.7070  -16.9954   20.6771 O   0  0  0  0  0  0  0  0  0  0  0  0
   10.4091  -17.0700   22.2959 N   0  0  0  0  0  0  0  0  0  0  0  0
   11.5384  -16.9256   21.4332 C   0  0  0  0  0  0  0  0  0  0  0  0
   12.7446  -16.3739   22.0413 C   0  0  0  0  0  0  0  0  0  0  0  0
   13.6531  -15.9830   21.2462 O   0  0  0  0  0  0  0  0  0  0  0  0
   12.9981  -16.2332   23.4253 N   0  0  0  0  0  0  0  0  0  0  0  0
   13.9965  -17.0770   24.0820 C   0  0  0  0  0  0  0  0  0  0  0  0
   15.3066  -16.3960   24.1238 C   0  0  0  0  0  0  0  0  0  0  0  0
   16.1109  -16.5282   23.1833 O   0  0  0  0  0  0  0  0  0  0  0  0
   15.6471  -15.6107   25.2029 O   0  0  0  0  0  0  0  0  0  0  0  0
  2 13  1  0
  2  1  1  6
  3  2  1  0
  4  5  2  0
  4  3  1  0
  6  5  1  0
  7 12  2  0
  7  6  1  0
  8  7  1  0
  9 10  1  0
  9  8  2  0
 10 11  2  0
 11 12  1  0
 12  4  1  0
 13 15  1  0
 14 13  2  0
 15 16  1  0
 16 17  1  0
 17 19  1  0
 17 18  2  0
 19 20  1  0
 20 21  1  0
 21 22  2  0
 21 23  1  0
M  END
$$$$
