WGG.pdb
     RDKit          3D

 23 24  0  0  1  0  0  0  0  0999 V2000
    7.5025  -16.5170   22.9983 N   0  0  0  0  0  0  0  0  0  0  0  0
    8.8239  -16.2576   23.5070 C   0  0  1  0  0  0  0  0  0  0  0  0
    8.7365  -16.0426   25.0010 C   0  0  0  0  0  0  0  0  0  0  0  0
    7.6217  -15.1955   25.4332 C   0  0  0  0  0  0  0  0  0  0  0  0
    6.4006  -15.6688   25.8706 C   0  0  0  0  0  0  0  0  0  0  0  0
    5.6381  -14.6345   26.2109 N   0  0  0  0  0  0  0  0  0  0  0  0
    6.3129  -13.4818   26.0137 C   0  0  0  0  0  0  0  0  0  0  0  0
    5.9690  -12.1700   26.2034 C   0  0  0  0  0  0  0  0  0  0  0  0
    6.8439  -11.1362   25.9166 C   0  0  0  0  0  0  0  0  0  0  0  0
    8.0759  -11.4918   25.4312 C   0  0  0  0  0  0  0  0  0  0  0  0
    8.4539  -12.8124   25.2284 C   0  0  0  0  0  0  0  0  0  0  0  0
    7.5661  -13.8156   25.5228 C   0  0  0  0  0  0  0  0  0  0  0  0
    9.6637  -17.4649   23.3148 C   0  0  0  0  0  0  0  0  0  0  0  0
    9.3211  -18.2912   22.4357 O   0  0  0  0  0  0  0  0  0  0  0  0
   10.8450  -17.6839   24.1186 N   0  0  0  0  0  0  0  0  0  0  0  0
   11.9543  -16.8337   23.8244 C   0  0  0  0  0  0  0  0  0  0  0  0
   12.7998  -17.2441   22.7083 C   0  0  0  0  0  0  0  0  0  0  0  0
   14.0419  -17.0107   22.8215 O   0  0  0  0  0  0  0  0  0  0  0  0
   12.3705  -17.8742   21.5173 N   0  0  0  0  0  0  0  0  0  0  0  0
   13.3478  -18.4513   20.5943 C   0  0  0  0  0  0  0  0  0  0  0  0
   13.8263  -17.4313   19.6391 C   0  0  0  0  0  0  0  0  0  0  0  0
   14.6564  -17.7348   18.7629 O   0  0  0  0  0  0  0  0  0  0  0  0
   13.3575  -16.1381   19.7112 O   0  0  0  0  0  0  0  0  0  0  0  0
  2 13  1  0
  2  1  1  1
  3  2  1  0
  4  5  2  0
  4  3  1  0
  6  5  1  0
  7 12  2  0
  7  6  1  0
  8  7  1  0
  9 10  1  0
  9  8  2  0
 10 11  2  0
 11 12  1  0
 12  4  1  0
 13 15  1  0
 14 13  2  0
 15 16  1  0
 16 17  1  0
 17 19  1  0
 17 18  2  0
 19 20  1  0
 20 21  1  0
 21 22  2  0
 21 23  1  0
M  END
$$$$
