WGG.pdb
     RDKit          3D

 23 24  0  0  1  0  0  0  0  0999 V2000
    7.2292  -17.9135   23.9711 N   0  0  0  0  0  0  0  0  0  0  0  0
    7.4071  -16.6228   23.3590 C   0  0  1  0  0  0  0  0  0  0  0  0
    8.2075  -15.7464   24.2956 C   0  0  0  0  0  0  0  0  0  0  0  0
    7.4059  -14.9925   25.2631 C   0  0  0  0  0  0  0  0  0  0  0  0
    6.5767  -15.5626   26.2085 C   0  0  0  0  0  0  0  0  0  0  0  0
    6.0287  -14.5946   26.9361 N   0  0  0  0  0  0  0  0  0  0  0  0
    6.4664  -13.3922   26.5053 C   0  0  0  0  0  0  0  0  0  0  0  0
    6.1968  -12.1138   26.9152 C   0  0  0  0  0  0  0  0  0  0  0  0
    6.7710  -11.0132   26.3023 C   0  0  0  0  0  0  0  0  0  0  0  0
    7.6257  -11.2675   25.2606 C   0  0  0  0  0  0  0  0  0  0  0  0
    7.9190  -12.5519   24.8223 C   0  0  0  0  0  0  0  0  0  0  0  0
    7.3358  -13.6230   25.4499 C   0  0  0  0  0  0  0  0  0  0  0  0
    8.2312  -16.7753   22.1353 C   0  0  0  0  0  0  0  0  0  0  0  0
    8.8979  -17.8287   21.9973 O   0  0  0  0  0  0  0  0  0  0  0  0
    8.2656  -15.7384   21.1287 N   0  0  0  0  0  0  0  0  0  0  0  0
    9.1904  -15.9497   20.0608 C   0  0  0  0  0  0  0  0  0  0  0  0
   10.6045  -15.8566   20.4080 C   0  0  0  0  0  0  0  0  0  0  0  0
   11.4250  -15.8181   19.4407 O   0  0  0  0  0  0  0  0  0  0  0  0
   11.1470  -15.8053   21.7129 N   0  0  0  0  0  0  0  0  0  0  0  0
   12.5960  -15.7577   21.9081 C   0  0  0  0  0  0  0  0  0  0  0  0
   13.1613  -17.1219   21.9426 C   0  0  0  0  0  0  0  0  0  0  0  0
   12.5807  -18.0242   22.5733 O   0  0  0  0  0  0  0  0  0  0  0  0
   14.3338  -17.4049   21.2775 O   0  0  0  0  0  0  0  0  0  0  0  0
  2 13  1  0
  2  1  1  1
  3  2  1  0
  4  5  2  0
  4  3  1  0
  6  5  1  0
  7 12  2  0
  7  6  1  0
  8  7  1  0
  9 10  1  0
  9  8  2  0
 10 11  2  0
 11 12  1  0
 12  4  1  0
 13 15  1  0
 14 13  2  0
 15 16  1  0
 16 17  1  0
 17 19  1  0
 17 18  2  0
 19 20  1  0
 20 21  1  0
 21 22  2  0
 21 23  1  0
M  END
$$$$
