WGG.pdb
     RDKit          3D

 23 24  0  0  1  0  0  0  0  0999 V2000
    7.7185  -17.3575   23.6022 N   0  0  0  0  0  0  0  0  0  0  0  0
    8.8092  -16.4181   23.5944 C   0  0  1  0  0  0  0  0  0  0  0  0
    8.9301  -15.8016   24.9697 C   0  0  0  0  0  0  0  0  0  0  0  0
    7.7244  -15.1148   25.4406 C   0  0  0  0  0  0  0  0  0  0  0  0
    6.5449  -15.7459   25.7825 C   0  0  0  0  0  0  0  0  0  0  0  0
    5.6736  -14.8303   26.1939 N   0  0  0  0  0  0  0  0  0  0  0  0
    6.2350  -13.6037   26.1370 C   0  0  0  0  0  0  0  0  0  0  0  0
    5.7564  -12.3575   26.4419 C   0  0  0  0  0  0  0  0  0  0  0  0
    6.5312  -11.2201   26.2919 C   0  0  0  0  0  0  0  0  0  0  0  0
    7.8058  -11.4036   25.8210 C   0  0  0  0  0  0  0  0  0  0  0  0
    8.3195  -12.6539   25.5036 C   0  0  0  0  0  0  0  0  0  0  0  0
    7.5286  -13.7630   25.6636 C   0  0  0  0  0  0  0  0  0  0  0  0
   10.0781  -17.1492   23.3597 C   0  0  0  0  0  0  0  0  0  0  0  0
   10.1934  -18.3039   23.8356 O   0  0  0  0  0  0  0  0  0  0  0  0
   11.1532  -16.5479   22.6033 N   0  0  0  0  0  0  0  0  0  0  0  0
   12.4275  -17.1786   22.7395 C   0  0  0  0  0  0  0  0  0  0  0  0
   13.5443  -16.5213   22.0688 C   0  0  0  0  0  0  0  0  0  0  0  0
   14.4949  -16.1220   22.8085 O   0  0  0  0  0  0  0  0  0  0  0  0
   13.6692  -16.2872   20.6798 N   0  0  0  0  0  0  0  0  0  0  0  0
   14.0599  -14.9666   20.1864 C   0  0  0  0  0  0  0  0  0  0  0  0
   14.1106  -14.9571   18.7102 C   0  0  0  0  0  0  0  0  0  0  0  0
   14.4314  -13.9199   18.1016 O   0  0  0  0  0  0  0  0  0  0  0  0
   13.8034  -16.0949   17.9974 O   0  0  0  0  0  0  0  0  0  0  0  0
  2 13  1  0
  2  1  1  1
  3  2  1  0
  4  5  2  0
  4  3  1  0
  6  5  1  0
  7 12  2  0
  7  6  1  0
  8  7  1  0
  9 10  1  0
  9  8  2  0
 10 11  2  0
 11 12  1  0
 12  4  1  0
 13 15  1  0
 14 13  2  0
 15 16  1  0
 16 17  1  0
 17 19  1  0
 17 18  2  0
 19 20  1  0
 20 21  1  0
 21 22  2  0
 21 23  1  0
M  END
$$$$
