NFL.pdb
     RDKit          3D

 28 28  0  0  1  0  0  0  0  0999 V2000
   11.7551  -19.1070   18.3703 N   0  0  0  0  0  0  0  0  0  0  0  0
   11.9043  -17.7017   18.2921 C   0  0  0  0  0  0  0  0  0  0  0  0
   12.5145  -17.2503   17.2920 O   0  0  0  0  0  0  0  0  0  0  0  0
   11.3870  -16.7710   19.3085 C   0  0  0  0  0  0  0  0  0  0  0  0
   10.9312  -17.5456   20.5062 C   0  0  2  0  0  0  0  0  0  0  0  0
    9.9004  -18.4917   20.2226 N   0  0  0  0  0  0  0  0  0  0  0  0
   10.5884  -16.6565   21.6567 C   0  0  0  0  0  0  0  0  0  0  0  0
   11.4731  -15.8334   22.0487 O   0  0  0  0  0  0  0  0  0  0  0  0
    9.3315  -16.7199   22.2923 N   0  0  0  0  0  0  0  0  0  0  0  0
    9.0387  -15.9143   23.4627 C   0  0  1  0  0  0  0  0  0  0  0  0
    7.6306  -15.4746   23.4093 C   0  0  0  0  0  0  0  0  0  0  0  0
    7.1900  -14.4634   24.3528 C   0  0  0  0  0  0  0  0  0  0  0  0
    7.5983  -13.1622   24.1742 C   0  0  0  0  0  0  0  0  0  0  0  0
    7.1966  -12.1477   25.0517 C   0  0  0  0  0  0  0  0  0  0  0  0
    6.3774  -12.4246   26.1242 C   0  0  0  0  0  0  0  0  0  0  0  0
    5.9703  -13.7264   26.3013 C   0  0  0  0  0  0  0  0  0  0  0  0
    6.3694  -14.7135   25.4356 C   0  0  0  0  0  0  0  0  0  0  0  0
    9.4495  -16.6134   24.7100 C   0  0  0  0  0  0  0  0  0  0  0  0
    9.8779  -17.7904   24.6153 O   0  0  0  0  0  0  0  0  0  0  0  0
    9.2280  -13.5354   29.3583 C   0  0  0  0  0  0  0  0  0  0  0  0
    9.6013  -14.3534   28.1836 C   0  0  1  0  0  0  0  0  0  0  0  0
   10.7643  -13.6084   27.5007 C   0  0  0  0  0  0  0  0  0  0  0  0
    9.8723  -15.7806   28.3321 C   0  0  0  0  0  0  0  0  0  0  0  0
   10.0101  -16.6502   27.1544 C   0  0  2  0  0  0  0  0  0  0  0  0
    9.3778  -16.0211   25.9828 N   0  0  0  0  0  0  0  0  0  0  0  0
    9.5820  -18.0370   27.2130 C   0  0  0  0  0  0  0  0  0  0  0  0
   10.3386  -18.9795   27.9311 O   0  0  0  0  0  0  0  0  0  0  0  0
    8.5556  -18.4582   26.6509 O   0  0  0  0  0  0  0  0  0  0  0  0
  1  2  1  0
  2  3  2  0
  4  5  1  0
  4  2  1  0
  5  7  1  0
  5  6  1  6
  7  8  2  0
  9  7  1  0
 10  9  1  0
 11 12  1  0
 10 11  1  1
 12 17  2  0
 13 12  1  0
 13 14  2  0
 14 15  1  0
 15 16  2  0
 17 16  1  0
 18 10  1  0
 19 18  2  0
 21 20  1  1
 21 22  1  0
 23 21  1  0
 24 25  1  0
 24 23  1  1
 25 18  1  0
 26 24  1  0
 27 26  1  0
 28 26  2  0
M  END
$$$$
