NFL.pdb
     RDKit          3D

 28 28  0  0  1  0  0  0  0  0999 V2000
   12.6691  -19.0205   18.7451 N   0  0  0  0  0  0  0  0  0  0  0  0
   12.4677  -17.6606   18.4086 C   0  0  0  0  0  0  0  0  0  0  0  0
   12.9662  -17.2636   17.3269 O   0  0  0  0  0  0  0  0  0  0  0  0
   11.7172  -16.7164   19.2524 C   0  0  0  0  0  0  0  0  0  0  0  0
   11.0641  -17.4627   20.3744 C   0  0  2  0  0  0  0  0  0  0  0  0
    9.9909  -18.3068   19.9575 N   0  0  0  0  0  0  0  0  0  0  0  0
   10.6765  -16.5621   21.5015 C   0  0  0  0  0  0  0  0  0  0  0  0
   11.5543  -15.7543   21.9382 O   0  0  0  0  0  0  0  0  0  0  0  0
    9.3859  -16.5986   22.0679 N   0  0  0  0  0  0  0  0  0  0  0  0
    9.0628  -15.8287   23.2543 C   0  0  1  0  0  0  0  0  0  0  0  0
    7.6257  -15.4917   23.2375 C   0  0  0  0  0  0  0  0  0  0  0  0
    7.1210  -14.5829   24.2506 C   0  0  0  0  0  0  0  0  0  0  0  0
    6.4134  -15.0956   25.3129 C   0  0  0  0  0  0  0  0  0  0  0  0
    5.9105  -14.2631   26.3202 C   0  0  0  0  0  0  0  0  0  0  0  0
    6.1103  -12.9007   26.2764 C   0  0  0  0  0  0  0  0  0  0  0  0
    6.8179  -12.3900   25.2132 C   0  0  0  0  0  0  0  0  0  0  0  0
    7.3068  -13.2142   24.2310 C   0  0  0  0  0  0  0  0  0  0  0  0
    9.5517  -16.5093   24.4835 C   0  0  0  0  0  0  0  0  0  0  0  0
    9.6295  -17.7629   24.4750 O   0  0  0  0  0  0  0  0  0  0  0  0
    9.3346  -14.4757   29.1472 C   0  0  0  0  0  0  0  0  0  0  0  0
   10.3941  -14.3555   28.1218 C   0  0  1  0  0  0  0  0  0  0  0  0
   11.3071  -13.2054   28.5886 C   0  0  0  0  0  0  0  0  0  0  0  0
   11.1557  -15.5292   27.7042 C   0  0  0  0  0  0  0  0  0  0  0  0
   10.5820  -16.5094   26.7703 C   0  0  2  0  0  0  0  0  0  0  0  0
    9.9258  -15.8172   25.6484 N   0  0  0  0  0  0  0  0  0  0  0  0
    9.6851  -17.5448   27.2536 C   0  0  0  0  0  0  0  0  0  0  0  0
    8.3493  -17.5817   26.8169 O   0  0  0  0  0  0  0  0  0  0  0  0
   10.0339  -18.4299   28.0547 O   0  0  0  0  0  0  0  0  0  0  0  0
  1  2  1  0
  2  3  2  0
  4  5  1  0
  4  2  1  0
  5  7  1  0
  5  6  1  6
  7  8  2  0
  9  7  1  0
 10  9  1  0
 11 12  1  0
 10 11  1  1
 12 17  2  0
 13 12  1  0
 13 14  2  0
 14 15  1  0
 15 16  2  0
 17 16  1  0
 18 10  1  0
 19 18  2  0
 21 20  1  1
 21 22  1  0
 23 21  1  0
 24 25  1  0
 24 23  1  1
 25 18  1  0
 26 24  1  0
 27 26  1  0
 28 26  2  0
M  END
$$$$
