NFL.pdb
     RDKit          3D

 28 28  0  0  1  0  0  0  0  0999 V2000
    7.5666  -20.1938   20.6914 N   0  0  0  0  0  0  0  0  0  0  0  0
    8.9426  -19.9259   20.8868 C   0  0  0  0  0  0  0  0  0  0  0  0
    9.7556  -20.6295   20.2385 O   0  0  0  0  0  0  0  0  0  0  0  0
    9.4473  -18.8834   21.7951 C   0  0  0  0  0  0  0  0  0  0  0  0
    9.2319  -17.5371   21.1759 C   0  0  2  0  0  0  0  0  0  0  0  0
   10.0347  -17.2995   20.0196 N   0  0  0  0  0  0  0  0  0  0  0  0
    9.3323  -16.4326   22.1768 C   0  0  0  0  0  0  0  0  0  0  0  0
   10.4923  -16.0006   22.4625 O   0  0  0  0  0  0  0  0  0  0  0  0
    8.1877  -15.8819   22.7886 N   0  0  0  0  0  0  0  0  0  0  0  0
    8.3008  -14.8937   23.8447 C   0  0  1  0  0  0  0  0  0  0  0  0
    7.0302  -14.1500   23.9513 C   0  0  0  0  0  0  0  0  0  0  0  0
    6.8848  -13.1888   25.0292 C   0  0  0  0  0  0  0  0  0  0  0  0
    7.6060  -12.0185   24.9805 C   0  0  0  0  0  0  0  0  0  0  0  0
    7.4973  -11.0556   25.9912 C   0  0  0  0  0  0  0  0  0  0  0  0
    6.6616  -11.2531   27.0685 C   0  0  0  0  0  0  0  0  0  0  0  0
    5.9415  -12.4240   27.1156 C   0  0  0  0  0  0  0  0  0  0  0  0
    6.0549  -13.3616   26.1199 C   0  0  0  0  0  0  0  0  0  0  0  0
    8.7949  -15.5112   25.1048 C   0  0  0  0  0  0  0  0  0  0  0  0
    9.1493  -14.7490   26.0381 O   0  0  0  0  0  0  0  0  0  0  0  0
    7.9322  -20.6847   28.3052 C   0  0  0  0  0  0  0  0  0  0  0  0
    8.6542  -19.4060   28.1266 C   0  0  1  0  0  0  0  0  0  0  0  0
   10.1530  -19.7469   28.2340 C   0  0  0  0  0  0  0  0  0  0  0  0
    8.3648  -18.5468   26.9819 C   0  0  0  0  0  0  0  0  0  0  0  0
    9.2861  -17.4682   26.5945 C   0  0  2  0  0  0  0  0  0  0  0  0
    8.8852  -16.9008   25.2962 N   0  0  0  0  0  0  0  0  0  0  0  0
   10.7192  -17.7032   26.5656 C   0  0  0  0  0  0  0  0  0  0  0  0
   11.5231  -17.2964   27.6449 O   0  0  0  0  0  0  0  0  0  0  0  0
   11.3001  -18.2597   25.6171 O   0  0  0  0  0  0  0  0  0  0  0  0
  1  2  1  0
  2  3  2  0
  4  5  1  0
  4  2  1  0
  5  7  1  0
  5  6  1  6
  7  8  2  0
  9  7  1  0
 10  9  1  0
 11 12  1  0
 10 11  1  1
 12 17  2  0
 13 12  1  0
 13 14  2  0
 14 15  1  0
 15 16  2  0
 17 16  1  0
 18 10  1  0
 19 18  2  0
 21 20  1  6
 21 22  1  0
 23 21  1  0
 24 25  1  0
 24 23  1  6
 25 18  1  0
 26 24  1  0
 27 26  1  0
 28 26  2  0
M  END
$$$$
