NFL.pdb
     RDKit          3D

 28 28  0  0  1  0  0  0  0  0999 V2000
   10.7826  -17.1974   17.0396 N   0  0  0  0  0  0  0  0  0  0  0  0
   11.3613  -16.8421   18.2814 C   0  0  0  0  0  0  0  0  0  0  0  0
   12.5782  -17.1082   18.4375 O   0  0  0  0  0  0  0  0  0  0  0  0
   10.6148  -16.1903   19.3698 C   0  0  0  0  0  0  0  0  0  0  0  0
   10.7578  -16.9966   20.6235 C   0  0  2  0  0  0  0  0  0  0  0  0
   10.2089  -18.3110   20.5292 N   0  0  0  0  0  0  0  0  0  0  0  0
   10.2692  -16.2596   21.8276 C   0  0  0  0  0  0  0  0  0  0  0  0
   10.6271  -15.0481   21.9619 O   0  0  0  0  0  0  0  0  0  0  0  0
    9.4402  -16.8762   22.7870 N   0  0  0  0  0  0  0  0  0  0  0  0
    9.0859  -16.2006   24.0209 C   0  0  1  0  0  0  0  0  0  0  0  0
    7.6181  -16.0620   24.0940 C   0  0  0  0  0  0  0  0  0  0  0  0
    7.0702  -14.8452   24.6652 C   0  0  0  0  0  0  0  0  0  0  0  0
    7.1914  -13.6672   23.9656 C   0  0  0  0  0  0  0  0  0  0  0  0
    6.6748  -12.4670   24.4689 C   0  0  0  0  0  0  0  0  0  0  0  0
    6.0277  -12.4308   25.6846 C   0  0  0  0  0  0  0  0  0  0  0  0
    5.9077  -13.6098   26.3827 C   0  0  0  0  0  0  0  0  0  0  0  0
    6.4173  -14.7810   25.8809 C   0  0  0  0  0  0  0  0  0  0  0  0
    9.7316  -16.8520   25.1922 C   0  0  0  0  0  0  0  0  0  0  0  0
   10.1666  -18.0221   25.0536 O   0  0  0  0  0  0  0  0  0  0  0  0
   10.9682  -13.4953   29.4432 C   0  0  0  0  0  0  0  0  0  0  0  0
   10.7147  -14.4636   28.3539 C   0  0  1  0  0  0  0  0  0  0  0  0
   11.4010  -13.8830   27.1025 C   0  0  0  0  0  0  0  0  0  0  0  0
   11.0142  -15.8806   28.5395 C   0  0  0  0  0  0  0  0  0  0  0  0
   10.5809  -16.8803   27.5520 C   0  0  2  0  0  0  0  0  0  0  0  0
    9.8738  -16.2220   26.4408 N   0  0  0  0  0  0  0  0  0  0  0  0
    9.8009  -18.0325   27.9691 C   0  0  0  0  0  0  0  0  0  0  0  0
   10.3684  -18.9996   28.8171 O   0  0  0  0  0  0  0  0  0  0  0  0
    8.6248  -18.2249   27.6132 O   0  0  0  0  0  0  0  0  0  0  0  0
  1  2  1  0
  2  3  2  0
  4  5  1  0
  4  2  1  0
  5  7  1  0
  5  6  1  6
  7  8  2  0
  9  7  1  0
 10  9  1  0
 11 12  1  0
 10 11  1  1
 12 17  2  0
 13 12  1  0
 13 14  2  0
 14 15  1  0
 15 16  2  0
 17 16  1  0
 18 10  1  0
 19 18  2  0
 21 20  1  1
 21 22  1  0
 23 21  1  0
 24 25  1  0
 24 23  1  1
 25 18  1  0
 26 24  1  0
 27 26  1  0
 28 26  2  0
M  END
$$$$
