NFL.pdb
     RDKit          3D

 28 28  0  0  1  0  0  0  0  0999 V2000
   13.5462  -18.5054   18.2747 N   0  0  0  0  0  0  0  0  0  0  0  0
   12.6311  -18.6564   19.3438 C   0  0  0  0  0  0  0  0  0  0  0  0
   12.0353  -19.7582   19.4297 O   0  0  0  0  0  0  0  0  0  0  0  0
   12.3557  -17.6025   20.3339 C   0  0  0  0  0  0  0  0  0  0  0  0
   10.8752  -17.4333   20.4816 C   0  0  2  0  0  0  0  0  0  0  0  0
   10.2174  -17.0381   19.2778 N   0  0  0  0  0  0  0  0  0  0  0  0
   10.5196  -16.5588   21.6394 C   0  0  0  0  0  0  0  0  0  0  0  0
   11.2348  -15.5283   21.8405 O   0  0  0  0  0  0  0  0  0  0  0  0
    9.4315  -16.8565   22.4851 N   0  0  0  0  0  0  0  0  0  0  0  0
    9.1071  -16.0123   23.6194 C   0  0  1  0  0  0  0  0  0  0  0  0
    7.7043  -15.5667   23.5071 C   0  0  0  0  0  0  0  0  0  0  0  0
    7.2462  -14.5092   24.3895 C   0  0  0  0  0  0  0  0  0  0  0  0
    7.5050  -13.2011   24.0524 C   0  0  0  0  0  0  0  0  0  0  0  0
    7.0796  -12.1435   24.8656 C   0  0  0  0  0  0  0  0  0  0  0  0
    6.3867  -12.3834   26.0319 C   0  0  0  0  0  0  0  0  0  0  0  0
    6.1291  -13.6922   26.3674 C   0  0  0  0  0  0  0  0  0  0  0  0
    6.5502  -14.7217   25.5637 C   0  0  0  0  0  0  0  0  0  0  0  0
    9.4736  -16.6733   24.9007 C   0  0  0  0  0  0  0  0  0  0  0  0
    9.5082  -17.9285   24.9306 O   0  0  0  0  0  0  0  0  0  0  0  0
    9.6478  -13.4931   29.4957 C   0  0  0  0  0  0  0  0  0  0  0  0
    9.8866  -14.3454   28.3105 C   0  0  1  0  0  0  0  0  0  0  0  0
   11.0429  -13.6822   27.5376 C   0  0  0  0  0  0  0  0  0  0  0  0
   10.0786  -15.7851   28.4612 C   0  0  0  0  0  0  0  0  0  0  0  0
   10.2492  -16.6519   27.2859 C   0  0  2  0  0  0  0  0  0  0  0  0
    9.7786  -15.9611   26.0736 N   0  0  0  0  0  0  0  0  0  0  0  0
    9.7046  -17.9986   27.2828 C   0  0  0  0  0  0  0  0  0  0  0  0
   10.3941  -19.0402   27.9280 O   0  0  0  0  0  0  0  0  0  0  0  0
    8.6326  -18.2995   26.7287 O   0  0  0  0  0  0  0  0  0  0  0  0
  1  2  1  0
  2  3  2  0
  4  5  1  0
  4  2  1  0
  5  7  1  0
  5  6  1  6
  7  8  2  0
  9  7  1  0
 10  9  1  0
 11 12  1  0
 10 11  1  1
 12 17  2  0
 13 12  1  0
 13 14  2  0
 14 15  1  0
 15 16  2  0
 17 16  1  0
 18 10  1  0
 19 18  2  0
 21 20  1  1
 21 22  1  0
 23 21  1  0
 24 25  1  0
 24 23  1  1
 25 18  1  0
 26 24  1  0
 27 26  1  0
 28 26  2  0
M  END
$$$$
