NFL.pdb
     RDKit          3D

 28 28  0  0  1  0  0  0  0  0999 V2000
   11.0317  -17.5223   17.2954 N   0  0  0  0  0  0  0  0  0  0  0  0
   11.9188  -17.6109   18.3948 C   0  0  0  0  0  0  0  0  0  0  0  0
   12.8403  -18.4596   18.3137 O   0  0  0  0  0  0  0  0  0  0  0  0
   11.8087  -16.7708   19.5985 C   0  0  0  0  0  0  0  0  0  0  0  0
   11.2323  -17.5799   20.7189 C   0  0  2  0  0  0  0  0  0  0  0  0
   10.1763  -18.4520   20.3161 N   0  0  0  0  0  0  0  0  0  0  0  0
   10.8574  -16.7339   21.8916 C   0  0  0  0  0  0  0  0  0  0  0  0
   11.7220  -15.9094   22.3233 O   0  0  0  0  0  0  0  0  0  0  0  0
    9.5923  -16.8383   22.5053 N   0  0  0  0  0  0  0  0  0  0  0  0
    9.2515  -16.0395   23.6673 C   0  0  1  0  0  0  0  0  0  0  0  0
    7.8130  -15.7109   23.6253 C   0  0  0  0  0  0  0  0  0  0  0  0
    7.3141  -14.6913   24.5300 C   0  0  0  0  0  0  0  0  0  0  0  0
    7.4627  -13.3671   24.1889 C   0  0  0  0  0  0  0  0  0  0  0  0
    6.9936  -12.3450   25.0231 C   0  0  0  0  0  0  0  0  0  0  0  0
    6.3671  -12.6371   26.2147 C   0  0  0  0  0  0  0  0  0  0  0  0
    6.2196  -13.9618   26.5542 C   0  0  0  0  0  0  0  0  0  0  0  0
    6.6828  -14.9563   25.7297 C   0  0  0  0  0  0  0  0  0  0  0  0
    9.7296  -16.6849   24.9195 C   0  0  0  0  0  0  0  0  0  0  0  0
    9.9673  -17.9180   24.8964 O   0  0  0  0  0  0  0  0  0  0  0  0
   10.7761  -13.2198   29.1318 C   0  0  0  0  0  0  0  0  0  0  0  0
   10.7669  -14.2156   28.0379 C   0  0  1  0  0  0  0  0  0  0  0  0
   11.8824  -13.7870   27.0651 C   0  0  0  0  0  0  0  0  0  0  0  0
   10.8157  -15.6440   28.3375 C   0  0  0  0  0  0  0  0  0  0  0  0
   10.4871  -16.6433   27.3102 C   0  0  2  0  0  0  0  0  0  0  0  0
    9.9238  -15.9820   26.1212 N   0  0  0  0  0  0  0  0  0  0  0  0
    9.6481  -17.7829   27.6377 C   0  0  0  0  0  0  0  0  0  0  0  0
    8.3477  -17.8763   27.1117 O   0  0  0  0  0  0  0  0  0  0  0  0
   10.0179  -18.7120   28.3773 O   0  0  0  0  0  0  0  0  0  0  0  0
  1  2  1  0
  2  3  2  0
  4  5  1  0
  4  2  1  0
  5  7  1  0
  5  6  1  6
  7  8  2  0
  9  7  1  0
 10  9  1  0
 11 12  1  0
 10 11  1  1
 12 17  2  0
 13 12  1  0
 13 14  2  0
 14 15  1  0
 15 16  2  0
 17 16  1  0
 18 10  1  0
 19 18  2  0
 21 20  1  1
 21 22  1  0
 23 21  1  0
 24 25  1  0
 24 23  1  1
 25 18  1  0
 26 24  1  0
 27 26  1  0
 28 26  2  0
M  END
$$$$
