NFL.pdb
     RDKit          3D

 28 28  0  0  1  0  0  0  0  0999 V2000
   12.9618  -22.3084   21.3983 N   0  0  0  0  0  0  0  0  0  0  0  0
   11.8867  -21.6495   22.0413 C   0  0  0  0  0  0  0  0  0  0  0  0
   10.9310  -22.3662   22.4275 O   0  0  0  0  0  0  0  0  0  0  0  0
   11.8435  -20.1960   22.2702 C   0  0  0  0  0  0  0  0  0  0  0  0
   10.8452  -19.5757   21.3424 C   0  0  2  0  0  0  0  0  0  0  0  0
   11.1110  -19.8220   19.9616 N   0  0  0  0  0  0  0  0  0  0  0  0
   10.6298  -18.1261   21.6321 C   0  0  0  0  0  0  0  0  0  0  0  0
   11.5420  -17.3140   21.2827 O   0  0  0  0  0  0  0  0  0  0  0  0
    9.4601  -17.6646   22.2698 N   0  0  0  0  0  0  0  0  0  0  0  0
    9.3236  -16.2801   22.6810 C   0  0  1  0  0  0  0  0  0  0  0  0
    7.9138  -15.8674   22.5353 C   0  0  0  0  0  0  0  0  0  0  0  0
    7.5912  -14.4597   22.6809 C   0  0  0  0  0  0  0  0  0  0  0  0
    7.9033  -13.5952   21.6576 C   0  0  0  0  0  0  0  0  0  0  0  0
    7.6077  -12.2293   21.7450 C   0  0  0  0  0  0  0  0  0  0  0  0
    6.9934  -11.7093   22.8631 C   0  0  0  0  0  0  0  0  0  0  0  0
    6.6823  -12.5754   23.8853 C   0  0  0  0  0  0  0  0  0  0  0  0
    6.9760  -13.9125   23.7901 C   0  0  0  0  0  0  0  0  0  0  0  0
    9.9254  -16.0587   24.0234 C   0  0  0  0  0  0  0  0  0  0  0  0
   10.9841  -15.3864   24.0939 O   0  0  0  0  0  0  0  0  0  0  0  0
    7.3718  -12.9023   27.2457 C   0  0  0  0  0  0  0  0  0  0  0  0
    8.5535  -13.7003   26.8519 C   0  0  1  0  0  0  0  0  0  0  0  0
    9.7557  -13.0621   27.5741 C   0  0  0  0  0  0  0  0  0  0  0  0
    8.5408  -15.1546   26.9821 C   0  0  0  0  0  0  0  0  0  0  0  0
    9.6762  -15.9650   26.5173 C   0  0  2  0  0  0  0  0  0  0  0  0
    9.3678  -16.5670   25.2094 N   0  0  0  0  0  0  0  0  0  0  0  0
   10.2394  -16.9960   27.3716 C   0  0  0  0  0  0  0  0  0  0  0  0
   11.2002  -16.6616   28.3419 O   0  0  0  0  0  0  0  0  0  0  0  0
    9.9158  -18.1947   27.2980 O   0  0  0  0  0  0  0  0  0  0  0  0
  1  2  1  0
  2  3  2  0
  4  5  1  0
  4  2  1  0
  5  7  1  0
  5  6  1  6
  7  8  2  0
  9  7  1  0
 10  9  1  0
 11 12  1  0
 10 11  1  1
 12 17  2  0
 13 12  1  0
 13 14  2  0
 14 15  1  0
 15 16  2  0
 17 16  1  0
 18 10  1  0
 19 18  2  0
 21 20  1  1
 21 22  1  0
 23 21  1  0
 24 25  1  0
 24 23  1  1
 25 18  1  0
 26 24  1  0
 27 26  1  0
 28 26  2  0
M  END
$$$$
