NFL.pdb
     RDKit          3D

 28 28  0  0  1  0  0  0  0  0999 V2000
   10.5773  -18.8130   17.0437 N   0  0  0  0  0  0  0  0  0  0  0  0
   11.2953  -18.3485   18.1715 C   0  0  0  0  0  0  0  0  0  0  0  0
   12.3468  -18.9665   18.4691 O   0  0  0  0  0  0  0  0  0  0  0  0
   10.8713  -17.2004   18.9893 C   0  0  0  0  0  0  0  0  0  0  0  0
   10.4840  -17.6780   20.3546 C   0  0  2  0  0  0  0  0  0  0  0  0
    9.3934  -18.5992   20.3551 N   0  0  0  0  0  0  0  0  0  0  0  0
   10.2769  -16.5486   21.3103 C   0  0  0  0  0  0  0  0  0  0  0  0
   11.1945  -15.6744   21.3964 O   0  0  0  0  0  0  0  0  0  0  0  0
    9.1090  -16.4465   22.0935 N   0  0  0  0  0  0  0  0  0  0  0  0
    8.9511  -15.3897   23.0747 C   0  0  1  0  0  0  0  0  0  0  0  0
    7.5221  -15.2587   23.4211 C   0  0  0  0  0  0  0  0  0  0  0  0
    7.1320  -14.2086   24.3442 C   0  0  0  0  0  0  0  0  0  0  0  0
    7.6330  -12.9408   24.1615 C   0  0  0  0  0  0  0  0  0  0  0  0
    7.2833  -11.8909   25.0196 C   0  0  0  0  0  0  0  0  0  0  0  0
    6.4240  -12.0982   26.0762 C   0  0  0  0  0  0  0  0  0  0  0  0
    5.9243  -13.3668   26.2573 C   0  0  0  0  0  0  0  0  0  0  0  0
    6.2730  -14.3891   25.4108 C   0  0  0  0  0  0  0  0  0  0  0  0
    9.8782  -15.5817   24.2222 C   0  0  0  0  0  0  0  0  0  0  0  0
   10.8756  -14.8234   24.3107 O   0  0  0  0  0  0  0  0  0  0  0  0
   11.0112  -14.1995   28.9050 C   0  0  0  0  0  0  0  0  0  0  0  0
    9.7132  -14.8270   28.5734 C   0  0  1  0  0  0  0  0  0  0  0  0
    8.6311  -13.8838   29.1334 C   0  0  0  0  0  0  0  0  0  0  0  0
    9.4232  -15.2481   27.2056 C   0  0  0  0  0  0  0  0  0  0  0  0
   10.1517  -16.3665   26.5886 C   0  0  2  0  0  0  0  0  0  0  0  0
    9.6914  -16.5695   25.2047 N   0  0  0  0  0  0  0  0  0  0  0  0
   10.2015  -17.6607   27.2463 C   0  0  0  0  0  0  0  0  0  0  0  0
    9.2195  -18.6291   26.9738 O   0  0  0  0  0  0  0  0  0  0  0  0
   11.0860  -17.9780   28.0612 O   0  0  0  0  0  0  0  0  0  0  0  0
  1  2  1  0
  2  3  2  0
  4  5  1  0
  4  2  1  0
  5  7  1  0
  5  6  1  6
  7  8  2  0
  9  7  1  0
 10  9  1  0
 11 12  1  0
 10 11  1  1
 12 17  2  0
 13 12  1  0
 13 14  2  0
 14 15  1  0
 15 16  2  0
 17 16  1  0
 18 10  1  0
 19 18  2  0
 21 20  1  6
 21 22  1  0
 23 21  1  0
 24 25  1  0
 24 23  1  1
 25 18  1  0
 26 24  1  0
 27 26  1  0
 28 26  2  0
M  END
$$$$
