NFL.pdb
     RDKit          3D

 28 28  0  0  1  0  0  0  0  0999 V2000
   11.6241  -19.9867   19.2873 N   0  0  0  0  0  0  0  0  0  0  0  0
   12.6954  -19.3767   19.9826 C   0  0  0  0  0  0  0  0  0  0  0  0
   13.8566  -19.7131   19.6443 O   0  0  0  0  0  0  0  0  0  0  0  0
   12.5095  -18.3893   21.0585 C   0  0  0  0  0  0  0  0  0  0  0  0
   11.3793  -17.4735   20.7033 C   0  0  2  0  0  0  0  0  0  0  0  0
   11.6083  -16.7070   19.5210 N   0  0  0  0  0  0  0  0  0  0  0  0
   10.9544  -16.6268   21.8584 C   0  0  0  0  0  0  0  0  0  0  0  0
   11.7873  -15.7773   22.3037 O   0  0  0  0  0  0  0  0  0  0  0  0
    9.6773  -16.7571   22.4414 N   0  0  0  0  0  0  0  0  0  0  0  0
    9.2844  -15.9500   23.5811 C   0  0  1  0  0  0  0  0  0  0  0  0
    7.8731  -15.5462   23.4263 C   0  0  0  0  0  0  0  0  0  0  0  0
    7.3254  -14.5867   24.3678 C   0  0  0  0  0  0  0  0  0  0  0  0
    7.6180  -13.2526   24.2059 C   0  0  0  0  0  0  0  0  0  0  0  0
    7.1100  -12.2859   25.0823 C   0  0  0  0  0  0  0  0  0  0  0  0
    6.2991  -12.6444   26.1368 C   0  0  0  0  0  0  0  0  0  0  0  0
    6.0078  -13.9791   26.2971 C   0  0  0  0  0  0  0  0  0  0  0  0
    6.5106  -14.9189   25.4327 C   0  0  0  0  0  0  0  0  0  0  0  0
    9.6247  -16.6288   24.8604 C   0  0  0  0  0  0  0  0  0  0  0  0
    9.8664  -17.8610   24.8307 O   0  0  0  0  0  0  0  0  0  0  0  0
    9.6130  -13.4156   29.4331 C   0  0  0  0  0  0  0  0  0  0  0  0
    9.8599  -14.2923   28.2674 C   0  0  1  0  0  0  0  0  0  0  0  0
   10.9653  -13.6025   27.4449 C   0  0  0  0  0  0  0  0  0  0  0  0
   10.1201  -15.7168   28.4553 C   0  0  0  0  0  0  0  0  0  0  0  0
   10.1817  -16.6318   27.3059 C   0  0  2  0  0  0  0  0  0  0  0  0
    9.6852  -15.9582   26.0943 N   0  0  0  0  0  0  0  0  0  0  0  0
    9.5666  -17.9455   27.3809 C   0  0  0  0  0  0  0  0  0  0  0  0
    8.5096  -18.2804   26.5165 O   0  0  0  0  0  0  0  0  0  0  0  0
    9.9265  -18.8222   28.1865 O   0  0  0  0  0  0  0  0  0  0  0  0
  1  2  1  0
  2  3  2  0
  4  5  1  0
  4  2  1  0
  5  7  1  0
  5  6  1  6
  7  8  2  0
  9  7  1  0
 10  9  1  0
 11 12  1  0
 10 11  1  1
 12 17  2  0
 13 12  1  0
 13 14  2  0
 14 15  1  0
 15 16  2  0
 17 16  1  0
 18 10  1  0
 19 18  2  0
 21 20  1  1
 21 22  1  0
 23 21  1  0
 24 25  1  0
 24 23  1  1
 25 18  1  0
 26 24  1  0
 27 26  1  0
 28 26  2  0
M  END
$$$$
