NFL.pdb
     RDKit          3D

 28 28  0  0  1  0  0  0  0  0999 V2000
    9.7240  -19.8801   18.0295 N   0  0  0  0  0  0  0  0  0  0  0  0
   10.6057  -18.9230   18.5861 C   0  0  0  0  0  0  0  0  0  0  0  0
   11.8353  -19.1481   18.4692 O   0  0  0  0  0  0  0  0  0  0  0  0
   10.1527  -17.7057   19.2788 C   0  0  0  0  0  0  0  0  0  0  0  0
   10.1804  -17.9357   20.7582 C   0  0  2  0  0  0  0  0  0  0  0  0
    9.3491  -19.0131   21.1897 N   0  0  0  0  0  0  0  0  0  0  0  0
    9.9332  -16.6804   21.5295 C   0  0  0  0  0  0  0  0  0  0  0  0
   10.6802  -15.6824   21.2851 O   0  0  0  0  0  0  0  0  0  0  0  0
    8.9104  -16.5949   22.4961 N   0  0  0  0  0  0  0  0  0  0  0  0
    8.7790  -15.4307   23.3517 C   0  0  1  0  0  0  0  0  0  0  0  0
    7.3521  -15.2152   23.6622 C   0  0  0  0  0  0  0  0  0  0  0  0
    6.9998  -14.1271   24.5560 C   0  0  0  0  0  0  0  0  0  0  0  0
    7.4581  -12.8606   24.2770 C   0  0  0  0  0  0  0  0  0  0  0  0
    7.1419  -11.7752   25.1032 C   0  0  0  0  0  0  0  0  0  0  0  0
    6.3595  -11.9450   26.2244 C   0  0  0  0  0  0  0  0  0  0  0  0
    5.9024  -13.2123   26.5018 C   0  0  0  0  0  0  0  0  0  0  0  0
    6.2178  -14.2695   25.6857 C   0  0  0  0  0  0  0  0  0  0  0  0
    9.6880  -15.5240   24.5257 C   0  0  0  0  0  0  0  0  0  0  0  0
   10.7608  -14.8714   24.4971 O   0  0  0  0  0  0  0  0  0  0  0  0
    9.8734  -13.4066   28.9869 C   0  0  0  0  0  0  0  0  0  0  0  0
   10.1163  -14.2357   27.7862 C   0  0  1  0  0  0  0  0  0  0  0  0
   11.4137  -13.6963   27.1539 C   0  0  0  0  0  0  0  0  0  0  0  0
   10.1136  -15.6929   27.8807 C   0  0  0  0  0  0  0  0  0  0  0  0
   10.4131  -16.5269   26.7073 C   0  0  2  0  0  0  0  0  0  0  0  0
    9.4037  -16.3071   25.6579 N   0  0  0  0  0  0  0  0  0  0  0  0
   10.6107  -17.9582   26.8563 C   0  0  0  0  0  0  0  0  0  0  0  0
   11.7396  -18.4479   27.5362 O   0  0  0  0  0  0  0  0  0  0  0  0
    9.8196  -18.8063   26.4071 O   0  0  0  0  0  0  0  0  0  0  0  0
  1  2  1  0
  2  3  2  0
  4  5  1  0
  4  2  1  0
  5  7  1  0
  5  6  1  6
  7  8  2  0
  9  7  1  0
 10  9  1  0
 11 12  1  0
 10 11  1  1
 12 17  2  0
 13 12  1  0
 13 14  2  0
 14 15  1  0
 15 16  2  0
 17 16  1  0
 18 10  1  0
 19 18  2  0
 21 20  1  1
 21 22  1  0
 23 21  1  0
 24 25  1  0
 24 23  1  1
 25 18  1  0
 26 24  1  0
 27 26  1  0
 28 26  2  0
M  END
$$$$
