NFL.pdb
     RDKit          3D

 28 28  0  0  1  0  0  0  0  0999 V2000
   12.7730  -19.0142   19.0710 N   0  0  0  0  0  0  0  0  0  0  0  0
   12.5710  -17.6454   18.7728 C   0  0  0  0  0  0  0  0  0  0  0  0
   13.2958  -17.1464   17.8773 O   0  0  0  0  0  0  0  0  0  0  0  0
   11.5719  -16.8039   19.4515 C   0  0  0  0  0  0  0  0  0  0  0  0
   10.9872  -17.5585   20.6052 C   0  0  2  0  0  0  0  0  0  0  0  0
    9.8954  -18.4052   20.2461 N   0  0  0  0  0  0  0  0  0  0  0  0
   10.6611  -16.6649   21.7571 C   0  0  0  0  0  0  0  0  0  0  0  0
   11.5615  -15.8603   22.1515 O   0  0  0  0  0  0  0  0  0  0  0  0
    9.4025  -16.7046   22.3914 N   0  0  0  0  0  0  0  0  0  0  0  0
    9.1193  -15.8834   23.5533 C   0  0  1  0  0  0  0  0  0  0  0  0
    7.6826  -15.5448   23.5697 C   0  0  0  0  0  0  0  0  0  0  0  0
    7.2328  -14.5003   24.4716 C   0  0  0  0  0  0  0  0  0  0  0  0
    7.5103  -13.1888   24.1638 C   0  0  0  0  0  0  0  0  0  0  0  0
    7.0935  -12.1432   24.9966 C   0  0  0  0  0  0  0  0  0  0  0  0
    6.3906  -12.3987   26.1536 C   0  0  0  0  0  0  0  0  0  0  0  0
    6.1143  -13.7108   26.4599 C   0  0  0  0  0  0  0  0  0  0  0  0
    6.5271  -14.7285   25.6370 C   0  0  0  0  0  0  0  0  0  0  0  0
    9.6486  -16.5108   24.7940 C   0  0  0  0  0  0  0  0  0  0  0  0
   10.0028  -17.7148   24.7438 O   0  0  0  0  0  0  0  0  0  0  0  0
   10.2145  -13.1251   29.2026 C   0  0  0  0  0  0  0  0  0  0  0  0
   10.3292  -14.0684   28.0689 C   0  0  1  0  0  0  0  0  0  0  0  0
   11.4786  -13.5378   27.1906 C   0  0  0  0  0  0  0  0  0  0  0  0
   10.4373  -15.5046   28.3097 C   0  0  0  0  0  0  0  0  0  0  0  0
   10.3582  -16.4652   27.1993 C   0  0  2  0  0  0  0  0  0  0  0  0
    9.7671  -15.8222   26.0137 N   0  0  0  0  0  0  0  0  0  0  0  0
    9.7127  -17.7527   27.3882 C   0  0  0  0  0  0  0  0  0  0  0  0
    8.5096  -18.0436   26.7216 O   0  0  0  0  0  0  0  0  0  0  0  0
   10.1707  -18.6436   28.1253 O   0  0  0  0  0  0  0  0  0  0  0  0
  1  2  1  0
  2  3  2  0
  4  5  1  0
  4  2  1  0
  5  7  1  0
  5  6  1  6
  7  8  2  0
  9  7  1  0
 10  9  1  0
 11 12  1  0
 10 11  1  1
 12 17  2  0
 13 12  1  0
 13 14  2  0
 14 15  1  0
 15 16  2  0
 17 16  1  0
 18 10  1  0
 19 18  2  0
 21 20  1  1
 21 22  1  0
 23 21  1  0
 24 25  1  0
 24 23  1  1
 25 18  1  0
 26 24  1  0
 27 26  1  0
 28 26  2  0
M  END
$$$$
