QEM.pdb
     RDKit          3D

 27 26  0  0  1  0  0  0  0  0999 V2000
   26.1677  -25.1681  -15.5450 N   0  0  0  0  0  0  0  0  0  0  0  0
   26.9979  -25.1680  -16.6870 C   0  0  0  0  0  0  0  0  0  0  0  0
   27.0501  -26.1762  -17.4163 O   0  0  0  0  0  0  0  0  0  0  0  0
   27.7954  -23.9785  -17.0078 C   0  0  0  0  0  0  0  0  0  0  0  0
   27.5751  -22.8017  -16.1266 C   0  0  0  0  0  0  0  0  0  0  0  0
   26.1945  -22.2007  -16.1860 C   0  0  2  0  0  0  0  0  0  0  0  0
   26.1188  -21.5475  -17.5051 N   0  0  0  0  0  0  0  0  0  0  0  0
   26.0495  -21.1938  -15.1032 C   0  0  0  0  0  0  0  0  0  0  0  0
   26.1360  -19.9741  -15.3966 O   0  0  0  0  0  0  0  0  0  0  0  0
   25.8195  -21.5207  -13.7574 N   0  0  0  0  0  0  0  0  0  0  0  0
   25.4668  -20.4592  -12.7996 C   0  0  1  0  0  0  0  0  0  0  0  0
   24.0830  -20.0168  -13.2033 C   0  0  0  0  0  0  0  0  0  0  0  0
   23.1983  -21.0896  -13.7277 C   0  0  0  0  0  0  0  0  0  0  0  0
   21.8498  -20.5099  -13.9877 C   0  0  0  0  0  0  0  0  0  0  0  0
   20.8313  -21.1534  -13.7198 O   0  0  0  0  0  0  0  0  0  0  0  0
   25.5209  -20.9859  -11.4125 C   0  0  0  0  0  0  0  0  0  0  0  0
   24.9545  -22.0711  -11.1767 O   0  0  0  0  0  0  0  0  0  0  0  0
   21.7755  -19.2441  -14.5317 O   0  0  0  0  0  0  0  0  0  0  0  0
   29.4775  -19.6926   -5.6601 C   0  0  0  0  0  0  0  0  0  0  0  0
   27.7463  -19.1631   -5.6025 S   0  0  0  0  0  0  0  0  0  0  0  0
   26.7976  -20.2329   -6.7174 C   0  0  0  0  0  0  0  0  0  0  0  0
   26.8597  -19.7605   -8.1297 C   0  0  0  0  0  0  0  0  0  0  0  0
   26.1045  -20.6773   -9.0349 C   0  0  2  0  0  0  0  0  0  0  0  0
   26.1967  -20.2575  -10.4276 N   0  0  0  0  0  0  0  0  0  0  0  0
   24.6868  -20.7593   -8.6389 C   0  0  0  0  0  0  0  0  0  0  0  0
   23.7603  -20.0295   -9.0487 O   0  0  0  0  0  0  0  0  0  0  0  0
   24.2783  -21.7428   -7.7033 O   0  0  0  0  0  0  0  0  0  0  0  0
  1  2  1  0
  2  4  1  0
  2  3  2  0
  4  5  1  0
  5  6  1  0
  6  7  1  6
  8  6  1  0
  8 10  1  0
  9  8  2  0
 10 11  1  0
 11 16  1  0
 11 12  1  6
 13 12  1  0
 13 14  1  0
 14 15  2  0
 16 17  2  0
 16 24  1  0
 18 14  1  0
 19 20  1  0
 20 21  1  0
 22 21  1  0
 23 22  1  1
 23 25  1  0
 24 23  1  0
 25 26  2  0
 25 27  1  0
M  END
$$$$
