QEM.pdb
     RDKit          3D

 27 26  0  0  1  0  0  0  0  0999 V2000
   25.9073  -21.1929  -21.8450 N   0  0  0  0  0  0  0  0  0  0  0  0
   25.8390  -21.6877  -20.5244 C   0  0  0  0  0  0  0  0  0  0  0  0
   24.8391  -22.3310  -20.1537 O   0  0  0  0  0  0  0  0  0  0  0  0
   26.9480  -21.4403  -19.5956 C   0  0  0  0  0  0  0  0  0  0  0  0
   26.5888  -20.7228  -18.3442 C   0  0  0  0  0  0  0  0  0  0  0  0
   25.9683  -19.3630  -18.5356 C   0  0  2  0  0  0  0  0  0  0  0  0
   27.1078  -18.4443  -18.7092 N   0  0  0  0  0  0  0  0  0  0  0  0
   25.1943  -19.0002  -17.3204 C   0  0  0  0  0  0  0  0  0  0  0  0
   25.8023  -18.4834  -16.3486 O   0  0  0  0  0  0  0  0  0  0  0  0
   23.8112  -19.1999  -17.1861 N   0  0  0  0  0  0  0  0  0  0  0  0
   23.1139  -18.6910  -15.9930 C   0  0  1  0  0  0  0  0  0  0  0  0
   21.7723  -18.2233  -16.4979 C   0  0  0  0  0  0  0  0  0  0  0  0
   20.8117  -17.7917  -15.4492 C   0  0  0  0  0  0  0  0  0  0  0  0
   19.5440  -17.3692  -16.1098 C   0  0  0  0  0  0  0  0  0  0  0  0
   19.4978  -16.3208  -16.7593 O   0  0  0  0  0  0  0  0  0  0  0  0
   23.0028  -19.7631  -14.9718 C   0  0  0  0  0  0  0  0  0  0  0  0
   22.5766  -20.8762  -15.3368 O   0  0  0  0  0  0  0  0  0  0  0  0
   18.4344  -18.1781  -15.9745 O   0  0  0  0  0  0  0  0  0  0  0  0
   26.8053  -20.8650   -9.8143 C   0  0  0  0  0  0  0  0  0  0  0  0
   25.1750  -21.1578   -9.0812 S   0  0  0  0  0  0  0  0  0  0  0  0
   23.9792  -21.3379  -10.4322 C   0  0  0  0  0  0  0  0  0  0  0  0
   24.1688  -20.3010  -11.4860 C   0  0  0  0  0  0  0  0  0  0  0  0
   23.2568  -20.5412  -12.6440 C   0  0  2  0  0  0  0  0  0  0  0  0
   23.3749  -19.4935  -13.6504 N   0  0  0  0  0  0  0  0  0  0  0  0
   21.8548  -20.6401  -12.1992 C   0  0  0  0  0  0  0  0  0  0  0  0
   21.0552  -19.6920  -12.0553 O   0  0  0  0  0  0  0  0  0  0  0  0
   21.3078  -21.9107  -11.8895 O   0  0  0  0  0  0  0  0  0  0  0  0
  1  2  1  0
  2  4  1  0
  2  3  2  0
  4  5  1  0
  5  6  1  0
  6  7  1  1
  8  6  1  0
  8 10  1  0
  9  8  2  0
 10 11  1  0
 11 16  1  0
 11 12  1  6
 13 12  1  0
 13 14  1  0
 14 15  2  0
 16 17  2  0
 16 24  1  0
 18 14  1  0
 19 20  1  0
 20 21  1  0
 22 21  1  0
 23 22  1  1
 23 25  1  0
 24 23  1  0
 25 26  2  0
 25 27  1  0
M  END
$$$$
