QEM.pdb
     RDKit          3D

 27 26  0  0  1  0  0  0  0  0999 V2000
   22.8247  -19.7319  -18.2644 N   0  0  0  0  0  0  0  0  0  0  0  0
   21.4903  -19.7709  -17.8046 C   0  0  0  0  0  0  0  0  0  0  0  0
   20.5718  -19.3433  -18.5289 O   0  0  0  0  0  0  0  0  0  0  0  0
   21.1937  -20.3154  -16.4745 C   0  0  0  0  0  0  0  0  0  0  0  0
   22.3674  -20.8080  -15.7066 C   0  0  0  0  0  0  0  0  0  0  0  0
   22.6980  -20.0263  -14.4614 C   0  0  2  0  0  0  0  0  0  0  0  0
   23.0056  -18.6650  -14.9355 N   0  0  0  0  0  0  0  0  0  0  0  0
   23.8894  -20.6254  -13.8065 C   0  0  0  0  0  0  0  0  0  0  0  0
   23.8126  -21.8036  -13.3736 O   0  0  0  0  0  0  0  0  0  0  0  0
   25.1099  -19.9525  -13.6379 N   0  0  0  0  0  0  0  0  0  0  0  0
   26.1950  -20.5915  -12.8745 C   0  0  1  0  0  0  0  0  0  0  0  0
   27.4653  -20.0323  -13.4639 C   0  0  0  0  0  0  0  0  0  0  0  0
   27.5869  -20.1460  -14.9407 C   0  0  0  0  0  0  0  0  0  0  0  0
   27.8124  -21.5774  -15.2909 C   0  0  0  0  0  0  0  0  0  0  0  0
   28.7540  -22.2010  -14.7931 O   0  0  0  0  0  0  0  0  0  0  0  0
   26.0486  -20.2873  -11.4287 C   0  0  0  0  0  0  0  0  0  0  0  0
   25.5937  -19.1715  -11.1093 O   0  0  0  0  0  0  0  0  0  0  0  0
   26.9450  -22.1780  -16.1799 O   0  0  0  0  0  0  0  0  0  0  0  0
   28.4374  -19.4891   -4.7683 C   0  0  0  0  0  0  0  0  0  0  0  0
   28.2328  -20.2513   -6.3987 S   0  0  0  0  0  0  0  0  0  0  0  0
   26.8928  -19.3825   -7.2573 C   0  0  0  0  0  0  0  0  0  0  0  0
   26.9221  -19.6273   -8.7273 C   0  0  0  0  0  0  0  0  0  0  0  0
   26.3018  -20.9436   -9.0636 C   0  0  2  0  0  0  0  0  0  0  0  0
   26.4208  -21.2493  -10.4836 N   0  0  0  0  0  0  0  0  0  0  0  0
   24.8809  -20.9722   -8.6718 C   0  0  0  0  0  0  0  0  0  0  0  0
   23.9138  -20.5962   -9.3662 O   0  0  0  0  0  0  0  0  0  0  0  0
   24.5185  -21.4633   -7.3923 O   0  0  0  0  0  0  0  0  0  0  0  0
  1  2  1  0
  2  4  1  0
  2  3  2  0
  4  5  1  0
  5  6  1  0
  6  7  1  6
  8  6  1  0
  8 10  1  0
  9  8  2  0
 10 11  1  0
 11 16  1  0
 11 12  1  6
 13 12  1  0
 13 14  1  0
 14 15  2  0
 16 17  2  0
 16 24  1  0
 18 14  1  0
 19 20  1  0
 20 21  1  0
 22 21  1  0
 23 22  1  6
 23 25  1  0
 24 23  1  0
 25 26  2  0
 25 27  1  0
M  END
$$$$
