QEM.pdb
     RDKit          3D

 27 26  0  0  1  0  0  0  0  0999 V2000
   29.5058  -28.7023  -21.4917 N   0  0  0  0  0  0  0  0  0  0  0  0
   30.0677  -29.9969  -21.4499 C   0  0  0  0  0  0  0  0  0  0  0  0
   29.8197  -30.8106  -22.3596 O   0  0  0  0  0  0  0  0  0  0  0  0
   30.9413  -30.3762  -20.3333 C   0  0  0  0  0  0  0  0  0  0  0  0
   31.2005  -29.3097  -19.3308 C   0  0  0  0  0  0  0  0  0  0  0  0
   32.6161  -28.7951  -19.2876 C   0  0  2  0  0  0  0  0  0  0  0  0
   33.2119  -29.4163  -18.0912 N   0  0  0  0  0  0  0  0  0  0  0  0
   32.5976  -27.3162  -19.1454 C   0  0  0  0  0  0  0  0  0  0  0  0
   33.6756  -26.6827  -19.2786 O   0  0  0  0  0  0  0  0  0  0  0  0
   31.4399  -26.5721  -18.8683 N   0  0  0  0  0  0  0  0  0  0  0  0
   31.5218  -25.1047  -18.7747 C   0  0  1  0  0  0  0  0  0  0  0  0
   32.1159  -24.6647  -20.0889 C   0  0  0  0  0  0  0  0  0  0  0  0
   32.2130  -23.1946  -20.2843 C   0  0  0  0  0  0  0  0  0  0  0  0
   32.8527  -22.9312  -21.6047 C   0  0  0  0  0  0  0  0  0  0  0  0
   32.3326  -22.1493  -22.4055 O   0  0  0  0  0  0  0  0  0  0  0  0
   30.1729  -24.5335  -18.5328 C   0  0  0  0  0  0  0  0  0  0  0  0
   29.2264  -24.9558  -19.2254 O   0  0  0  0  0  0  0  0  0  0  0  0
   34.0326  -23.5819  -21.9015 O   0  0  0  0  0  0  0  0  0  0  0  0
   25.5832  -19.9057  -14.1562 C   0  0  0  0  0  0  0  0  0  0  0  0
   27.3028  -20.3851  -14.4630 S   0  0  0  0  0  0  0  0  0  0  0  0
   27.3188  -21.5485  -15.8536 C   0  0  0  0  0  0  0  0  0  0  0  0
   28.6940  -22.0384  -16.1544 C   0  0  0  0  0  0  0  0  0  0  0  0
   28.6762  -23.0354  -17.2661 C   0  0  2  0  0  0  0  0  0  0  0  0
   30.0092  -23.5526  -17.5487 N   0  0  0  0  0  0  0  0  0  0  0  0
   28.1066  -22.4477  -18.4923 C   0  0  0  0  0  0  0  0  0  0  0  0
   26.9148  -22.5106  -18.8589 O   0  0  0  0  0  0  0  0  0  0  0  0
   28.9481  -21.7311  -19.3800 O   0  0  0  0  0  0  0  0  0  0  0  0
  1  2  1  0
  2  4  1  0
  2  3  2  0
  4  5  1  0
  5  6  1  0
  6  7  1  1
  8  6  1  0
  8 10  1  0
  9  8  2  0
 10 11  1  0
 11 16  1  0
 11 12  1  6
 13 12  1  0
 13 14  1  0
 14 15  2  0
 16 17  2  0
 16 24  1  0
 18 14  1  0
 19 20  1  0
 20 21  1  0
 22 21  1  0
 23 22  1  1
 23 25  1  0
 24 23  1  0
 25 26  2  0
 25 27  1  0
M  END
$$$$
