QEM.pdb
     RDKit          3D

 27 26  0  0  1  0  0  0  0  0999 V2000
   13.9464  -11.7644  -15.7865 N   0  0  0  0  0  0  0  0  0  0  0  0
   14.8320  -12.6243  -16.4720 C   0  0  0  0  0  0  0  0  0  0  0  0
   14.4378  -13.7404  -16.8591 O   0  0  0  0  0  0  0  0  0  0  0  0
   16.2131  -12.1970  -16.7243 C   0  0  0  0  0  0  0  0  0  0  0  0
   16.5507  -10.8204  -16.2760 C   0  0  0  0  0  0  0  0  0  0  0  0
   17.4361  -10.7370  -15.0595 C   0  0  2  0  0  0  0  0  0  0  0  0
   16.7675  -11.5688  -14.0428 N   0  0  0  0  0  0  0  0  0  0  0  0
   17.5116   -9.3254  -14.6021 C   0  0  0  0  0  0  0  0  0  0  0  0
   17.2600   -8.4090  -15.4257 O   0  0  0  0  0  0  0  0  0  0  0  0
   17.8499   -8.9447  -13.2939 N   0  0  0  0  0  0  0  0  0  0  0  0
   18.0104   -7.5174  -12.9688 C   0  0  1  0  0  0  0  0  0  0  0  0
   17.5044   -7.3823  -11.5548 C   0  0  0  0  0  0  0  0  0  0  0  0
   17.7201   -6.0537  -10.9247 C   0  0  0  0  0  0  0  0  0  0  0  0
   17.1772   -6.0913   -9.5369 C   0  0  0  0  0  0  0  0  0  0  0  0
   17.1521   -5.0674   -8.8484 O   0  0  0  0  0  0  0  0  0  0  0  0
   19.4336   -7.1192  -13.1113 C   0  0  0  0  0  0  0  0  0  0  0  0
   20.3074   -7.9435  -12.7780 O   0  0  0  0  0  0  0  0  0  0  0  0
   16.7082   -7.2942   -9.0502 O   0  0  0  0  0  0  0  0  0  0  0  0
   25.1679   -6.6168  -17.4035 C   0  0  0  0  0  0  0  0  0  0  0  0
   23.5372   -7.2023  -16.8755 S   0  0  0  0  0  0  0  0  0  0  0  0
   22.9342   -6.0845  -15.5816 C   0  0  0  0  0  0  0  0  0  0  0  0
   21.5669   -6.4548  -15.1181 C   0  0  0  0  0  0  0  0  0  0  0  0
   21.1120   -5.5537  -14.0174 C   0  0  2  0  0  0  0  0  0  0  0  0
   19.7446   -5.8490  -13.6084 N   0  0  0  0  0  0  0  0  0  0  0  0
   21.2103   -4.1389  -14.4198 C   0  0  0  0  0  0  0  0  0  0  0  0
   20.3105   -3.4565  -14.9523 O   0  0  0  0  0  0  0  0  0  0  0  0
   22.4217   -3.4342  -14.2066 O   0  0  0  0  0  0  0  0  0  0  0  0
  1  2  1  0
  2  4  1  0
  2  3  2  0
  4  5  1  0
  5  6  1  0
  6  7  1  1
  8  6  1  0
  8 10  1  0
  9  8  2  0
 10 11  1  0
 11 16  1  0
 11 12  1  1
 13 12  1  0
 13 14  1  0
 14 15  2  0
 16 17  2  0
 16 24  1  0
 18 14  1  0
 19 20  1  0
 20 21  1  0
 22 21  1  0
 23 22  1  6
 23 25  1  0
 24 23  1  0
 25 26  2  0
 25 27  1  0
M  END
$$$$
