QEM.pdb
     RDKit          3D

 27 26  0  0  1  0  0  0  0  0999 V2000
   13.3625  -13.7556  -13.3754 N   0  0  0  0  0  0  0  0  0  0  0  0
   14.2787  -13.2159  -14.3043 C   0  0  0  0  0  0  0  0  0  0  0  0
   13.9384  -12.2614  -15.0284 O   0  0  0  0  0  0  0  0  0  0  0  0
   15.6277  -13.7838  -14.4111 C   0  0  0  0  0  0  0  0  0  0  0  0
   16.6917  -12.8349  -14.8322 C   0  0  0  0  0  0  0  0  0  0  0  0
   16.8958  -12.7134  -16.3202 C   0  0  2  0  0  0  0  0  0  0  0  0
   17.4091  -14.0286  -16.7439 N   0  0  0  0  0  0  0  0  0  0  0  0
   17.9020  -11.6550  -16.5937 C   0  0  0  0  0  0  0  0  0  0  0  0
   19.0805  -11.9977  -16.8676 O   0  0  0  0  0  0  0  0  0  0  0  0
   17.6179  -10.2805  -16.5656 N   0  0  0  0  0  0  0  0  0  0  0  0
   18.6510   -9.3143  -16.9754 C   0  0  1  0  0  0  0  0  0  0  0  0
   17.8976   -8.0412  -17.2669 C   0  0  0  0  0  0  0  0  0  0  0  0
   17.0641   -8.0610  -18.4973 C   0  0  0  0  0  0  0  0  0  0  0  0
   16.1443   -6.8884  -18.4680 C   0  0  0  0  0  0  0  0  0  0  0  0
   14.9526   -7.0223  -18.7596 O   0  0  0  0  0  0  0  0  0  0  0  0
   19.6560   -9.1538  -15.8944 C   0  0  0  0  0  0  0  0  0  0  0  0
   19.3088   -9.4256  -14.7283 O   0  0  0  0  0  0  0  0  0  0  0  0
   16.6608   -5.6605  -18.1085 O   0  0  0  0  0  0  0  0  0  0  0  0
   26.4191  -10.1487  -15.9325 C   0  0  0  0  0  0  0  0  0  0  0  0
   25.3856  -10.8537  -14.6226 S   0  0  0  0  0  0  0  0  0  0  0  0
   24.0244   -9.6995  -14.3029 C   0  0  0  0  0  0  0  0  0  0  0  0
   22.9994   -9.7334  -15.3845 C   0  0  0  0  0  0  0  0  0  0  0  0
   21.9680   -8.6732  -15.1786 C   0  0  2  0  0  0  0  0  0  0  0  0
   20.9432   -8.7087  -16.2143 N   0  0  0  0  0  0  0  0  0  0  0  0
   22.5866   -7.3355  -15.1445 C   0  0  0  0  0  0  0  0  0  0  0  0
   22.7685   -6.5789  -16.1209 O   0  0  0  0  0  0  0  0  0  0  0  0
   23.0392   -6.8060  -13.9099 O   0  0  0  0  0  0  0  0  0  0  0  0
  1  2  1  0
  2  4  1  0
  2  3  2  0
  4  5  1  0
  5  6  1  0
  6  7  1  1
  8  6  1  0
  8 10  1  0
  9  8  2  0
 10 11  1  0
 11 16  1  0
 11 12  1  1
 13 12  1  0
 13 14  1  0
 14 15  2  0
 16 17  2  0
 16 24  1  0
 18 14  1  0
 19 20  1  0
 20 21  1  0
 22 21  1  0
 23 22  1  6
 23 25  1  0
 24 23  1  0
 25 26  2  0
 25 27  1  0
M  END
$$$$
