QEM.pdb
     RDKit          3D

 27 26  0  0  1  0  0  0  0  0999 V2000
   25.4362  -15.2793  -19.1910 N   0  0  0  0  0  0  0  0  0  0  0  0
   25.8515  -16.5965  -19.4841 C   0  0  0  0  0  0  0  0  0  0  0  0
   25.8634  -16.9954  -20.6638 O   0  0  0  0  0  0  0  0  0  0  0  0
   26.2670  -17.4885  -18.3953 C   0  0  0  0  0  0  0  0  0  0  0  0
   25.4557  -17.4048  -17.1525 C   0  0  0  0  0  0  0  0  0  0  0  0
   24.5349  -18.5713  -16.9032 C   0  0  2  0  0  0  0  0  0  0  0  0
   23.3612  -18.3209  -17.7590 N   0  0  0  0  0  0  0  0  0  0  0  0
   24.1356  -18.5856  -15.4722 C   0  0  0  0  0  0  0  0  0  0  0  0
   23.7727  -17.5080  -14.9352 O   0  0  0  0  0  0  0  0  0  0  0  0
   24.1377  -19.7389  -14.6716 N   0  0  0  0  0  0  0  0  0  0  0  0
   23.6175  -19.6717  -13.2956 C   0  0  1  0  0  0  0  0  0  0  0  0
   22.2322  -20.2618  -13.3755 C   0  0  0  0  0  0  0  0  0  0  0  0
   21.5346  -20.4294  -12.0739 C   0  0  0  0  0  0  0  0  0  0  0  0
   20.2331  -21.1144  -12.3162 C   0  0  0  0  0  0  0  0  0  0  0  0
   20.2067  -22.2863  -12.7025 O   0  0  0  0  0  0  0  0  0  0  0  0
   24.5103  -20.4213  -12.3762 C   0  0  0  0  0  0  0  0  0  0  0  0
   24.6975  -21.6329  -12.6017 O   0  0  0  0  0  0  0  0  0  0  0  0
   19.0698  -20.4054  -12.0976 O   0  0  0  0  0  0  0  0  0  0  0  0
   29.3510  -19.0303   -7.6180 C   0  0  0  0  0  0  0  0  0  0  0  0
   27.7545  -19.4245   -6.8584 S   0  0  0  0  0  0  0  0  0  0  0  0
   26.8171  -20.4462   -8.0267 C   0  0  0  0  0  0  0  0  0  0  0  0
   26.2748  -19.6428   -9.1589 C   0  0  0  0  0  0  0  0  0  0  0  0
   25.6434  -20.5235  -10.1866 C   0  0  2  0  0  0  0  0  0  0  0  0
   25.1051  -19.7531  -11.3005 N   0  0  0  0  0  0  0  0  0  0  0  0
   24.5718  -21.3430   -9.5921 C   0  0  0  0  0  0  0  0  0  0  0  0
   23.3978  -20.9797   -9.3716 O   0  0  0  0  0  0  0  0  0  0  0  0
   24.8443  -22.6815   -9.2131 O   0  0  0  0  0  0  0  0  0  0  0  0
  1  2  1  0
  2  4  1  0
  2  3  2  0
  4  5  1  0
  5  6  1  0
  6  7  1  6
  8  6  1  0
  8 10  1  0
  9  8  2  0
 10 11  1  0
 11 16  1  0
 11 12  1  6
 13 12  1  0
 13 14  1  0
 14 15  2  0
 16 17  2  0
 16 24  1  0
 18 14  1  0
 19 20  1  0
 20 21  1  0
 22 21  1  0
 23 22  1  1
 23 25  1  0
 24 23  1  0
 25 26  2  0
 25 27  1  0
M  END
$$$$
