QEM.pdb
     RDKit          3D

 27 26  0  0  1  0  0  0  0  0999 V2000
   29.5601  -17.2738  -18.0153 N   0  0  0  0  0  0  0  0  0  0  0  0
   29.6723  -18.5890  -18.5165 C   0  0  0  0  0  0  0  0  0  0  0  0
   30.5554  -18.8616  -19.3512 O   0  0  0  0  0  0  0  0  0  0  0  0
   28.7463  -19.6278  -18.0502 C   0  0  0  0  0  0  0  0  0  0  0  0
   27.8122  -19.2163  -16.9695 C   0  0  0  0  0  0  0  0  0  0  0  0
   26.4494  -18.7682  -17.4306 C   0  0  2  0  0  0  0  0  0  0  0  0
   26.6681  -17.4423  -18.0362 N   0  0  0  0  0  0  0  0  0  0  0  0
   25.5454  -18.6559  -16.2569 C   0  0  0  0  0  0  0  0  0  0  0  0
   25.7318  -17.7201  -15.4379 O   0  0  0  0  0  0  0  0  0  0  0  0
   24.4841  -19.5383  -16.0005 N   0  0  0  0  0  0  0  0  0  0  0  0
   23.6214  -19.3192  -14.8273 C   0  0  1  0  0  0  0  0  0  0  0  0
   22.2186  -19.5531  -15.3282 C   0  0  0  0  0  0  0  0  0  0  0  0
   21.1597  -19.5454  -14.2853 C   0  0  0  0  0  0  0  0  0  0  0  0
   19.8468  -19.8140  -14.9381 C   0  0  0  0  0  0  0  0  0  0  0  0
   18.7928  -19.5718  -14.3435 O   0  0  0  0  0  0  0  0  0  0  0  0
   24.0041  -20.2471  -13.7332 C   0  0  0  0  0  0  0  0  0  0  0  0
   24.0573  -21.4654  -13.9916 O   0  0  0  0  0  0  0  0  0  0  0  0
   19.8458  -20.3367  -16.2150 O   0  0  0  0  0  0  0  0  0  0  0  0
   27.5852  -19.2587   -8.3339 C   0  0  0  0  0  0  0  0  0  0  0  0
   26.1758  -20.1718   -7.6552 S   0  0  0  0  0  0  0  0  0  0  0  0
   25.2773  -20.9223   -9.0396 C   0  0  0  0  0  0  0  0  0  0  0  0
   25.1983  -20.0077  -10.2139 C   0  0  0  0  0  0  0  0  0  0  0  0
   24.4498  -20.6437  -11.3388 C   0  0  2  0  0  0  0  0  0  0  0  0
   24.2890  -19.7316  -12.4641 N   0  0  0  0  0  0  0  0  0  0  0  0
   23.1252  -21.1123  -10.8925 C   0  0  0  0  0  0  0  0  0  0  0  0
   22.0344  -20.5334  -11.0768 O   0  0  0  0  0  0  0  0  0  0  0  0
   23.0195  -22.3323  -10.1783 O   0  0  0  0  0  0  0  0  0  0  0  0
  1  2  1  0
  2  4  1  0
  2  3  2  0
  4  5  1  0
  5  6  1  0
  6  7  1  1
  8  6  1  0
  8 10  1  0
  9  8  2  0
 10 11  1  0
 11 16  1  0
 11 12  1  6
 13 12  1  0
 13 14  1  0
 14 15  2  0
 16 17  2  0
 16 24  1  0
 18 14  1  0
 19 20  1  0
 20 21  1  0
 22 21  1  0
 23 22  1  1
 23 25  1  0
 24 23  1  0
 25 26  2  0
 25 27  1  0
M  END
$$$$
