QEM.pdb
     RDKit          3D

 27 26  0  0  1  0  0  0  0  0999 V2000
   25.2325  -23.4833  -14.2005 N   0  0  0  0  0  0  0  0  0  0  0  0
   24.8772  -24.6754  -14.8685 C   0  0  0  0  0  0  0  0  0  0  0  0
   25.7434  -25.3214  -15.4878 O   0  0  0  0  0  0  0  0  0  0  0  0
   23.4878  -25.1463  -14.8291 C   0  0  0  0  0  0  0  0  0  0  0  0
   22.5855  -24.4061  -13.9083 C   0  0  0  0  0  0  0  0  0  0  0  0
   21.6851  -23.3916  -14.5646 C   0  0  2  0  0  0  0  0  0  0  0  0
   22.5792  -22.2911  -14.9671 N   0  0  0  0  0  0  0  0  0  0  0  0
   20.6861  -22.9087  -13.5765 C   0  0  0  0  0  0  0  0  0  0  0  0
   21.0218  -22.0035  -12.7707 O   0  0  0  0  0  0  0  0  0  0  0  0
   19.3759  -23.4043  -13.4836 N   0  0  0  0  0  0  0  0  0  0  0  0
   18.4467  -22.8273  -12.4975 C   0  0  1  0  0  0  0  0  0  0  0  0
   17.2989  -22.2897  -13.3143 C   0  0  0  0  0  0  0  0  0  0  0  0
   17.4146  -20.8632  -13.7148 C   0  0  0  0  0  0  0  0  0  0  0  0
   16.1305  -20.4394  -14.3423 C   0  0  0  0  0  0  0  0  0  0  0  0
   15.8843  -20.7282  -15.5167 O   0  0  0  0  0  0  0  0  0  0  0  0
   18.0243  -23.8676  -11.5260 C   0  0  0  0  0  0  0  0  0  0  0  0
   17.5795  -24.9417  -11.9761 O   0  0  0  0  0  0  0  0  0  0  0  0
   15.2342  -19.7213  -13.5776 O   0  0  0  0  0  0  0  0  0  0  0  0
   17.3514  -26.7324   -4.4416 C   0  0  0  0  0  0  0  0  0  0  0  0
   18.2747  -25.6411   -5.5541 S   0  0  0  0  0  0  0  0  0  0  0  0
   17.1319  -25.0484   -6.8308 C   0  0  0  0  0  0  0  0  0  0  0  0
   17.7994  -24.1236   -7.7903 C   0  0  0  0  0  0  0  0  0  0  0  0
   17.5634  -24.5533   -9.2009 C   0  0  2  0  0  0  0  0  0  0  0  0
   18.1373  -23.6129  -10.1550 N   0  0  0  0  0  0  0  0  0  0  0  0
   16.1224  -24.7094   -9.4704 C   0  0  0  0  0  0  0  0  0  0  0  0
   15.3049  -23.7895   -9.6813 O   0  0  0  0  0  0  0  0  0  0  0  0
   15.5542  -26.0076   -9.5038 O   0  0  0  0  0  0  0  0  0  0  0  0
  1  2  1  0
  2  4  1  0
  2  3  2  0
  4  5  1  0
  5  6  1  0
  6  7  1  1
  8  6  1  0
  8 10  1  0
  9  8  2  0
 10 11  1  0
 11 16  1  0
 11 12  1  6
 13 12  1  0
 13 14  1  0
 14 15  2  0
 16 17  2  0
 16 24  1  0
 18 14  1  0
 19 20  1  0
 20 21  1  0
 22 21  1  0
 23 22  1  1
 23 25  1  0
 24 23  1  0
 25 26  2  0
 25 27  1  0
M  END
$$$$
