QEM.pdb
     RDKit          3D

 27 26  0  0  1  0  0  0  0  0999 V2000
   29.6695  -20.3001  -18.1199 N   0  0  0  0  0  0  0  0  0  0  0  0
   28.9219  -19.1722  -17.7168 C   0  0  0  0  0  0  0  0  0  0  0  0
   29.4379  -18.0394  -17.7559 O   0  0  0  0  0  0  0  0  0  0  0  0
   27.5397  -19.3420  -17.2536 C   0  0  0  0  0  0  0  0  0  0  0  0
   27.3009  -19.0308  -15.8198 C   0  0  0  0  0  0  0  0  0  0  0  0
   27.5014  -20.1814  -14.8677 C   0  0  2  0  0  0  0  0  0  0  0  0
   26.8019  -21.3192  -15.4911 N   0  0  0  0  0  0  0  0  0  0  0  0
   26.8816  -19.8502  -13.5586 C   0  0  0  0  0  0  0  0  0  0  0  0
   27.2978  -18.8434  -12.9304 O   0  0  0  0  0  0  0  0  0  0  0  0
   25.8490  -20.5980  -12.9711 N   0  0  0  0  0  0  0  0  0  0  0  0
   25.2424  -20.1380  -11.7105 C   0  0  1  0  0  0  0  0  0  0  0  0
   23.7733  -20.4465  -11.8517 C   0  0  0  0  0  0  0  0  0  0  0  0
   23.2077  -20.2466  -13.2115 C   0  0  0  0  0  0  0  0  0  0  0  0
   21.7601  -20.6010  -13.1817 C   0  0  0  0  0  0  0  0  0  0  0  0
   21.2394  -21.0123  -12.1411 O   0  0  0  0  0  0  0  0  0  0  0  0
   25.8690  -20.8356  -10.5592 C   0  0  0  0  0  0  0  0  0  0  0  0
   26.1201  -22.0508  -10.6783 O   0  0  0  0  0  0  0  0  0  0  0  0
   21.0271  -20.4567  -14.3417 O   0  0  0  0  0  0  0  0  0  0  0  0
   28.1526  -18.1477   -4.8197 C   0  0  0  0  0  0  0  0  0  0  0  0
   28.9497  -19.7587   -5.0435 S   0  0  0  0  0  0  0  0  0  0  0  0
   27.8921  -20.7601   -6.1234 C   0  0  0  0  0  0  0  0  0  0  0  0
   27.5134  -20.0291   -7.3659 C   0  0  0  0  0  0  0  0  0  0  0  0
   26.5625  -20.8322   -8.1912 C   0  0  2  0  0  0  0  0  0  0  0  0
   26.1537  -20.1167   -9.3933 N   0  0  0  0  0  0  0  0  0  0  0  0
   25.3687  -21.2025   -7.4094 C   0  0  0  0  0  0  0  0  0  0  0  0
   24.2092  -20.7723   -7.5804 O   0  0  0  0  0  0  0  0  0  0  0  0
   25.4901  -22.1325   -6.3465 O   0  0  0  0  0  0  0  0  0  0  0  0
  1  2  1  0
  2  4  1  0
  2  3  2  0
  4  5  1  0
  5  6  1  0
  6  7  1  6
  8  6  1  0
  8 10  1  0
  9  8  2  0
 10 11  1  0
 11 16  1  0
 11 12  1  6
 13 12  1  0
 13 14  1  0
 14 15  2  0
 16 17  2  0
 16 24  1  0
 18 14  1  0
 19 20  1  0
 20 21  1  0
 22 21  1  0
 23 22  1  1
 23 25  1  0
 24 23  1  0
 25 26  2  0
 25 27  1  0
M  END
$$$$
