QEM.pdb
     RDKit          3D

 27 26  0  0  1  0  0  0  0  0999 V2000
   18.9224  -12.4142  -15.1236 N   0  0  0  0  0  0  0  0  0  0  0  0
   17.5700  -12.7448  -15.3585 C   0  0  0  0  0  0  0  0  0  0  0  0
   17.2669  -13.8971  -15.7212 O   0  0  0  0  0  0  0  0  0  0  0  0
   16.5287  -11.7273  -15.1740 C   0  0  0  0  0  0  0  0  0  0  0  0
   17.0134  -10.3760  -14.7880 C   0  0  0  0  0  0  0  0  0  0  0  0
   17.2224   -9.4151  -15.9298 C   0  0  2  0  0  0  0  0  0  0  0  0
   18.4129   -9.9177  -16.6388 N   0  0  0  0  0  0  0  0  0  0  0  0
   17.4809   -8.0561  -15.3878 C   0  0  0  0  0  0  0  0  0  0  0  0
   16.5699   -7.4807  -14.7395 O   0  0  0  0  0  0  0  0  0  0  0  0
   18.6914   -7.3651  -15.5551 N   0  0  0  0  0  0  0  0  0  0  0  0
   18.8538   -6.0260  -14.9642 C   0  0  1  0  0  0  0  0  0  0  0  0
   20.2926   -5.9714  -14.5168 C   0  0  0  0  0  0  0  0  0  0  0  0
   20.7641   -4.6426  -14.0467 C   0  0  0  0  0  0  0  0  0  0  0  0
   22.1476   -4.7903  -13.5118 C   0  0  0  0  0  0  0  0  0  0  0  0
   22.3401   -5.3309  -12.4191 O   0  0  0  0  0  0  0  0  0  0  0  0
   18.5229   -4.9828  -15.9675 C   0  0  0  0  0  0  0  0  0  0  0  0
   18.9900   -5.1077  -17.1165 O   0  0  0  0  0  0  0  0  0  0  0  0
   23.1964   -4.3089  -14.2681 O   0  0  0  0  0  0  0  0  0  0  0  0
   14.2295    1.2112  -18.0626 C   0  0  0  0  0  0  0  0  0  0  0  0
   14.3701   -0.1559  -16.8827 S   0  0  0  0  0  0  0  0  0  0  0  0
   15.9091   -1.0456  -17.2393 C   0  0  0  0  0  0  0  0  0  0  0  0
   16.1400   -2.1652  -16.2828 C   0  0  0  0  0  0  0  0  0  0  0  0
   17.4406   -2.8454  -16.5582 C   0  0  2  0  0  0  0  0  0  0  0  0
   17.7086   -3.9074  -15.5966 N   0  0  0  0  0  0  0  0  0  0  0  0
   18.5539   -1.8790  -16.5464 C   0  0  0  0  0  0  0  0  0  0  0  0
   19.1755   -1.4781  -15.5406 O   0  0  0  0  0  0  0  0  0  0  0  0
   19.0037   -1.3162  -17.7673 O   0  0  0  0  0  0  0  0  0  0  0  0
  1  2  1  0
  2  4  1  0
  2  3  2  0
  4  5  1  0
  5  6  1  0
  6  7  1  1
  8  6  1  0
  8 10  1  0
  9  8  2  0
 10 11  1  0
 11 16  1  0
 11 12  1  6
 13 12  1  0
 13 14  1  0
 14 15  2  0
 16 17  2  0
 16 24  1  0
 18 14  1  0
 19 20  1  0
 20 21  1  0
 22 21  1  0
 23 22  1  1
 23 25  1  0
 24 23  1  0
 25 26  2  0
 25 27  1  0
M  END
$$$$
