QEM.pdb
     RDKit          3D

 27 26  0  0  1  0  0  0  0  0999 V2000
   22.1975  -16.6494  -15.4381 N   0  0  0  0  0  0  0  0  0  0  0  0
   22.5370  -15.9858  -16.6372 C   0  0  0  0  0  0  0  0  0  0  0  0
   22.4097  -14.7496  -16.7197 O   0  0  0  0  0  0  0  0  0  0  0  0
   23.0381  -16.7577  -17.7803 C   0  0  0  0  0  0  0  0  0  0  0  0
   23.1827  -18.2197  -17.5532 C   0  0  0  0  0  0  0  0  0  0  0  0
   24.4718  -18.6468  -16.9000 C   0  0  2  0  0  0  0  0  0  0  0  0
   25.3527  -19.0396  -18.0146 N   0  0  0  0  0  0  0  0  0  0  0  0
   24.2119  -19.8105  -16.0137 C   0  0  0  0  0  0  0  0  0  0  0  0
   23.0747  -20.3465  -16.0377 O   0  0  0  0  0  0  0  0  0  0  0  0
   25.1661  -20.3565  -15.1406 N   0  0  0  0  0  0  0  0  0  0  0  0
   24.8242  -21.5417  -14.3362 C   0  0  1  0  0  0  0  0  0  0  0  0
   25.6376  -22.6627  -14.9321 C   0  0  0  0  0  0  0  0  0  0  0  0
   25.1670  -23.1606  -16.2511 C   0  0  0  0  0  0  0  0  0  0  0  0
   25.3949  -24.6324  -16.3132 C   0  0  0  0  0  0  0  0  0  0  0  0
   24.6177  -25.3587  -16.9390 O   0  0  0  0  0  0  0  0  0  0  0  0
   25.1423  -21.2965  -12.9069 C   0  0  0  0  0  0  0  0  0  0  0  0
   26.3400  -21.1588  -12.5898 O   0  0  0  0  0  0  0  0  0  0  0  0
   26.4907  -25.1531  -15.6561 O   0  0  0  0  0  0  0  0  0  0  0  0
   28.4736  -19.5064   -8.6519 C   0  0  0  0  0  0  0  0  0  0  0  0
   26.8213  -18.8963   -8.2289 S   0  0  0  0  0  0  0  0  0  0  0  0
   25.6180  -20.1659   -8.7058 C   0  0  0  0  0  0  0  0  0  0  0  0
   25.4202  -20.2196  -10.1821 C   0  0  0  0  0  0  0  0  0  0  0  0
   24.4121  -21.2582  -10.5501 C   0  0  2  0  0  0  0  0  0  0  0  0
   24.1019  -21.2288  -11.9739 N   0  0  0  0  0  0  0  0  0  0  0  0
   23.1712  -21.0871   -9.7728 C   0  0  0  0  0  0  0  0  0  0  0  0
   22.0630  -20.7232  -10.2181 O   0  0  0  0  0  0  0  0  0  0  0  0
   23.1783  -21.3456   -8.3790 O   0  0  0  0  0  0  0  0  0  0  0  0
  1  2  1  0
  2  4  1  0
  2  3  2  0
  4  5  1  0
  5  6  1  0
  6  7  1  6
  8  6  1  0
  8 10  1  0
  9  8  2  0
 10 11  1  0
 11 16  1  0
 11 12  1  6
 13 12  1  0
 13 14  1  0
 14 15  2  0
 16 17  2  0
 16 24  1  0
 18 14  1  0
 19 20  1  0
 20 21  1  0
 22 21  1  0
 23 22  1  6
 23 25  1  0
 24 23  1  0
 25 26  2  0
 25 27  1  0
M  END
$$$$
