QEM.pdb
     RDKit          3D

 27 26  0  0  1  0  0  0  0  0999 V2000
   36.7367  -37.3016   -4.2373 N   0  0  0  0  0  0  0  0  0  0  0  0
   36.2411  -37.3714   -5.5575 C   0  0  0  0  0  0  0  0  0  0  0  0
   36.9209  -37.9162   -6.4475 O   0  0  0  0  0  0  0  0  0  0  0  0
   34.9264  -36.8006   -5.8732 C   0  0  0  0  0  0  0  0  0  0  0  0
   34.2139  -36.1629   -4.7350 C   0  0  0  0  0  0  0  0  0  0  0  0
   32.8158  -36.6665   -4.4854 C   0  0  2  0  0  0  0  0  0  0  0  0
   32.0499  -36.2765   -5.6828 N   0  0  0  0  0  0  0  0  0  0  0  0
   32.2610  -35.9999   -3.2790 C   0  0  0  0  0  0  0  0  0  0  0  0
   31.3565  -35.1388   -3.4264 O   0  0  0  0  0  0  0  0  0  0  0  0
   32.6870  -36.2731   -1.9695 N   0  0  0  0  0  0  0  0  0  0  0  0
   31.9960  -35.6428   -0.8320 C   0  0  1  0  0  0  0  0  0  0  0  0
   30.5469  -36.0248   -0.9986 C   0  0  0  0  0  0  0  0  0  0  0  0
   30.2897  -37.4730   -1.2118 C   0  0  0  0  0  0  0  0  0  0  0  0
   28.8171  -37.6869   -1.3000 C   0  0  0  0  0  0  0  0  0  0  0  0
   28.3070  -38.0933   -2.3478 O   0  0  0  0  0  0  0  0  0  0  0  0
   32.5751  -36.1257    0.4470 C   0  0  0  0  0  0  0  0  0  0  0  0
   32.9534  -37.3120    0.5065 O   0  0  0  0  0  0  0  0  0  0  0  0
   28.0492  -37.4195   -0.1854 O   0  0  0  0  0  0  0  0  0  0  0  0
   38.2725  -31.8190    0.3653 C   0  0  0  0  0  0  0  0  0  0  0  0
   36.7051  -32.4995   -0.2357 S   0  0  0  0  0  0  0  0  0  0  0  0
   35.9339  -33.4136    1.1271 C   0  0  0  0  0  0  0  0  0  0  0  0
   34.6032  -33.9657    0.7451 C   0  0  0  0  0  0  0  0  0  0  0  0
   33.9780  -34.6959    1.8880 C   0  0  2  0  0  0  0  0  0  0  0  0
   32.6766  -35.2459    1.5300 N   0  0  0  0  0  0  0  0  0  0  0  0
   33.8337  -33.8146    3.0609 C   0  0  0  0  0  0  0  0  0  0  0  0
   32.7891  -33.2392    3.4305 O   0  0  0  0  0  0  0  0  0  0  0  0
   34.9582  -33.5586    3.8853 O   0  0  0  0  0  0  0  0  0  0  0  0
  1  2  1  0
  2  4  1  0
  2  3  2  0
  4  5  1  0
  5  6  1  0
  6  7  1  6
  8  6  1  0
  8 10  1  0
  9  8  2  0
 10 11  1  0
 11 16  1  0
 11 12  1  1
 13 12  1  0
 13 14  1  0
 14 15  2  0
 16 17  2  0
 16 24  1  0
 18 14  1  0
 19 20  1  0
 20 21  1  0
 22 21  1  0
 23 22  1  6
 23 25  1  0
 24 23  1  0
 25 26  2  0
 25 27  1  0
M  END
$$$$
