QEM.pdb
     RDKit          3D

 27 26  0  0  1  0  0  0  0  0999 V2000
   26.7792  -16.0847  -14.5842 N   0  0  0  0  0  0  0  0  0  0  0  0
   25.8380  -16.6037  -15.4997 C   0  0  0  0  0  0  0  0  0  0  0  0
   26.2282  -17.1369  -16.5554 O   0  0  0  0  0  0  0  0  0  0  0  0
   24.4040  -16.5112  -15.2015 C   0  0  0  0  0  0  0  0  0  0  0  0
   23.7531  -15.2273  -15.5725 C   0  0  0  0  0  0  0  0  0  0  0  0
   22.7619  -15.3099  -16.7045 C   0  0  2  0  0  0  0  0  0  0  0  0
   23.5633  -15.6685  -17.8884 N   0  0  0  0  0  0  0  0  0  0  0  0
   22.1235  -13.9822  -16.8971 C   0  0  0  0  0  0  0  0  0  0  0  0
   22.6467  -13.1713  -17.7034 O   0  0  0  0  0  0  0  0  0  0  0  0
   20.9599  -13.5700  -16.2285 N   0  0  0  0  0  0  0  0  0  0  0  0
   20.3923  -12.2399  -16.5063 C   0  0  1  0  0  0  0  0  0  0  0  0
   18.9072  -12.4016  -16.3022 C   0  0  0  0  0  0  0  0  0  0  0  0
   18.4752  -12.6014  -14.8943 C   0  0  0  0  0  0  0  0  0  0  0  0
   16.9863  -12.6637  -14.8576 C   0  0  0  0  0  0  0  0  0  0  0  0
   16.3274  -11.6689  -14.5420 O   0  0  0  0  0  0  0  0  0  0  0  0
   20.9916  -11.2302  -15.5976 C   0  0  0  0  0  0  0  0  0  0  0  0
   21.3475  -11.6033  -14.4626 O   0  0  0  0  0  0  0  0  0  0  0  0
   16.3730  -13.8557  -15.1839 O   0  0  0  0  0  0  0  0  0  0  0  0
   27.6447   -8.4761  -16.1066 C   0  0  0  0  0  0  0  0  0  0  0  0
   26.2715   -9.5275  -16.6450 S   0  0  0  0  0  0  0  0  0  0  0  0
   24.7474   -8.8752  -15.9110 C   0  0  0  0  0  0  0  0  0  0  0  0
   23.5532   -9.6769  -16.3018 C   0  0  0  0  0  0  0  0  0  0  0  0
   22.3173   -9.1496  -15.6500 C   0  0  2  0  0  0  0  0  0  0  0  0
   21.1360   -9.9101  -16.0379 N   0  0  0  0  0  0  0  0  0  0  0  0
   22.1151   -7.7264  -15.9769 C   0  0  0  0  0  0  0  0  0  0  0  0
   21.6238   -7.2714  -17.0307 O   0  0  0  0  0  0  0  0  0  0  0  0
   22.4987   -6.7330  -15.0412 O   0  0  0  0  0  0  0  0  0  0  0  0
  1  2  1  0
  2  4  1  0
  2  3  2  0
  4  5  1  0
  5  6  1  0
  6  7  1  6
  8  6  1  0
  8 10  1  0
  9  8  2  0
 10 11  1  0
 11 16  1  0
 11 12  1  1
 13 12  1  0
 13 14  1  0
 14 15  2  0
 16 17  2  0
 16 24  1  0
 18 14  1  0
 19 20  1  0
 20 21  1  0
 22 21  1  0
 23 22  1  6
 23 25  1  0
 24 23  1  0
 25 26  2  0
 25 27  1  0
M  END
$$$$
