QEM.pdb
     RDKit          3D

 27 26  0  0  1  0  0  0  0  0999 V2000
   21.4287  -11.9798    7.9922 N   0  0  0  0  0  0  0  0  0  0  0  0
   21.2420  -11.2926    6.7730 C   0  0  0  0  0  0  0  0  0  0  0  0
   22.0386  -10.3958    6.4379 O   0  0  0  0  0  0  0  0  0  0  0  0
   20.1089  -11.6396    5.9073 C   0  0  0  0  0  0  0  0  0  0  0  0
   19.2691  -12.7741    6.3738 C   0  0  0  0  0  0  0  0  0  0  0  0
   18.1496  -13.1720    5.4468 C   0  0  2  0  0  0  0  0  0  0  0  0
   17.1103  -12.1449    5.6403 N   0  0  0  0  0  0  0  0  0  0  0  0
   17.6342  -14.5079    5.8433 C   0  0  0  0  0  0  0  0  0  0  0  0
   16.8584  -14.5879    6.8297 O   0  0  0  0  0  0  0  0  0  0  0  0
   17.9618  -15.7007    5.1794 N   0  0  0  0  0  0  0  0  0  0  0  0
   17.5908  -16.9937    5.7786 C   0  0  1  0  0  0  0  0  0  0  0  0
   17.0708  -17.8190    4.6288 C   0  0  0  0  0  0  0  0  0  0  0  0
   16.6068  -19.1857    4.9836 C   0  0  0  0  0  0  0  0  0  0  0  0
   16.0354  -19.8257    3.7647 C   0  0  0  0  0  0  0  0  0  0  0  0
   16.7661  -20.1261    2.8164 O   0  0  0  0  0  0  0  0  0  0  0  0
   18.7708  -17.6063    6.4395 C   0  0  0  0  0  0  0  0  0  0  0  0
   19.9037  -17.2515    6.0591 O   0  0  0  0  0  0  0  0  0  0  0  0
   14.6779  -20.0697    3.7290 O   0  0  0  0  0  0  0  0  0  0  0  0
   23.7228  -18.3261   11.6833 C   0  0  0  0  0  0  0  0  0  0  0  0
   22.3588  -17.4854   10.8384 S   0  0  0  0  0  0  0  0  0  0  0  0
   21.5117  -18.7036    9.7963 C   0  0  0  0  0  0  0  0  0  0  0  0
   20.3809  -18.0975    9.0376 C   0  0  0  0  0  0  0  0  0  0  0  0
   19.7316  -19.1057    8.1475 C   0  0  2  0  0  0  0  0  0  0  0  0
   18.5765  -18.5495    7.4544 N   0  0  0  0  0  0  0  0  0  0  0  0
   19.3195  -20.2966    8.9126 C   0  0  0  0  0  0  0  0  0  0  0  0
   18.2047  -20.4877    9.4411 O   0  0  0  0  0  0  0  0  0  0  0  0
   20.2385  -21.3597    9.0994 O   0  0  0  0  0  0  0  0  0  0  0  0
  1  2  1  0
  2  4  1  0
  2  3  2  0
  4  5  1  0
  5  6  1  0
  6  7  1  1
  8  6  1  0
  8 10  1  0
  9  8  2  0
 10 11  1  0
 11 16  1  0
 11 12  1  6
 13 12  1  0
 13 14  1  0
 14 15  2  0
 16 17  2  0
 16 24  1  0
 18 14  1  0
 19 20  1  0
 20 21  1  0
 22 21  1  0
 23 22  1  1
 23 25  1  0
 24 23  1  0
 25 26  2  0
 25 27  1  0
M  END
$$$$
