IEI.pdb
     RDKit          3D

 26 25  0  0  1  0  0  0  0  0999 V2000
   27.9019  -19.3538   -6.2200 C   0  0  0  0  0  0  0  0  0  0  0  0
   26.4446  -19.5839   -6.5177 C   0  0  0  0  0  0  0  0  0  0  0  0
   26.2348  -20.1623   -7.9023 C   0  0  2  0  0  0  0  0  0  0  0  0
   26.7913  -19.1545   -8.8869 C   0  0  0  0  0  0  0  0  0  0  0  0
   24.7640  -20.4315   -8.1656 C   0  0  2  0  0  0  0  0  0  0  0  0
   24.2975  -21.4319   -7.2490 N   0  0  0  0  0  0  0  0  0  0  0  0
   24.6922  -20.9722   -9.5666 C   0  0  0  0  0  0  0  0  0  0  0  0
   25.1804  -22.1015   -9.8413 O   0  0  0  0  0  0  0  0  0  0  0  0
   24.0838  -20.2481  -10.6172 N   0  0  0  0  0  0  0  0  0  0  0  0
   23.9223  -20.7842  -11.9799 C   0  0  1  0  0  0  0  0  0  0  0  0
   22.4910  -20.6063  -12.3946 C   0  0  0  0  0  0  0  0  0  0  0  0
   22.2409  -21.1376  -13.7668 C   0  0  0  0  0  0  0  0  0  0  0  0
   20.7747  -20.9203  -14.1169 C   0  0  0  0  0  0  0  0  0  0  0  0
   20.0597  -20.3165  -13.2858 O   0  0  0  0  0  0  0  0  0  0  0  0
   24.7955  -20.0390  -12.9242 C   0  0  0  0  0  0  0  0  0  0  0  0
   24.9497  -18.8063  -12.7065 O   0  0  0  0  0  0  0  0  0  0  0  0
   20.2394  -21.3704  -15.3104 O   0  0  0  0  0  0  0  0  0  0  0  0
   29.6997  -21.6081  -13.6326 C   0  0  0  0  0  0  0  0  0  0  0  0
   28.4113  -20.8279  -13.5266 C   0  0  0  0  0  0  0  0  0  0  0  0
   27.7924  -20.7175  -14.8958 C   0  0  2  0  0  0  0  0  0  0  0  0
   28.7993  -19.8630  -15.6909 C   0  0  0  0  0  0  0  0  0  0  0  0
   26.4400  -20.0248  -14.8865 C   0  0  2  0  0  0  0  0  0  0  0  0
   25.4590  -20.6128  -14.0306 N   0  0  0  0  0  0  0  0  0  0  0  0
   25.8834  -19.7477  -16.2048 C   0  0  0  0  0  0  0  0  0  0  0  0
   25.0723  -20.5650  -16.7337 O   0  0  0  0  0  0  0  0  0  0  0  0
   26.1723  -18.6228  -16.9670 O   0  0  0  0  0  0  0  0  0  0  0  0
  2  3  1  0
  2  1  1  0
  3  4  1  6
  5  6  1  1
  5  3  1  0
  7  5  1  0
  8  7  2  0
  9  7  1  0
 10  9  1  0
 11 12  1  0
 10 11  1  6
 12 13  1  0
 13 14  2  0
 15 16  2  0
 15 10  1  0
 17 13  1  0
 18 19  1  0
 19 20  1  0
 20 22  1  0
 20 21  1  6
 22 23  1  1
 23 15  1  0
 24 22  1  0
 25 24  2  0
 26 24  1  0
M  END
$$$$
