IEI.pdb
     RDKit          3D

 26 25  0  0  1  0  0  0  0  0999 V2000
   33.6350  -23.0029  -11.7724 C   0  0  0  0  0  0  0  0  0  0  0  0
   33.1716  -22.2466  -12.9883 C   0  0  0  0  0  0  0  0  0  0  0  0
   31.9011  -21.4665  -12.7187 C   0  0  2  0  0  0  0  0  0  0  0  0
   32.2713  -20.3374  -11.7790 C   0  0  0  0  0  0  0  0  0  0  0  0
   30.8310  -22.3564  -12.1118 C   0  0  2  0  0  0  0  0  0  0  0  0
   30.5217  -23.4138  -13.0309 N   0  0  0  0  0  0  0  0  0  0  0  0
   29.6211  -21.4808  -11.9396 C   0  0  0  0  0  0  0  0  0  0  0  0
   29.6950  -20.4124  -11.2747 O   0  0  0  0  0  0  0  0  0  0  0  0
   28.3701  -21.8141  -12.5074 N   0  0  0  0  0  0  0  0  0  0  0  0
   27.1573  -20.9977  -12.3255 C   0  0  1  0  0  0  0  0  0  0  0  0
   26.2009  -21.3120  -13.4383 C   0  0  0  0  0  0  0  0  0  0  0  0
   26.7184  -20.8529  -14.7609 C   0  0  0  0  0  0  0  0  0  0  0  0
   26.5383  -19.3437  -14.8606 C   0  0  0  0  0  0  0  0  0  0  0  0
   27.3929  -18.6957  -15.5058 O   0  0  0  0  0  0  0  0  0  0  0  0
   26.5139  -21.3288  -11.0270 C   0  0  0  0  0  0  0  0  0  0  0  0
   26.4081  -22.5520  -10.7385 O   0  0  0  0  0  0  0  0  0  0  0  0
   25.4703  -18.6995  -14.2626 O   0  0  0  0  0  0  0  0  0  0  0  0
   27.9891  -18.6321   -6.6449 C   0  0  0  0  0  0  0  0  0  0  0  0
   27.5429  -19.7019   -7.6126 C   0  0  0  0  0  0  0  0  0  0  0  0
   26.0403  -19.6712   -7.7167 C   0  0  2  0  0  0  0  0  0  0  0  0
   25.5621  -20.1622   -6.3360 C   0  0  0  0  0  0  0  0  0  0  0  0
   25.4968  -20.5929   -8.7956 C   0  0  2  0  0  0  0  0  0  0  0  0
   26.0249  -20.3774  -10.1053 N   0  0  0  0  0  0  0  0  0  0  0  0
   24.0440  -20.7064   -8.8311 C   0  0  0  0  0  0  0  0  0  0  0  0
   23.3779  -20.0406   -9.6788 O   0  0  0  0  0  0  0  0  0  0  0  0
   23.2907  -21.5111   -7.9856 O   0  0  0  0  0  0  0  0  0  0  0  0
  2  3  1  0
  2  1  1  0
  3  4  1  1
  5  6  1  6
  5  3  1  0
  7  5  1  0
  8  7  2  0
  9  7  1  0
 10  9  1  0
 11 12  1  0
 10 11  1  6
 12 13  1  0
 13 14  2  0
 15 16  2  0
 15 10  1  0
 17 13  1  0
 18 19  1  0
 19 20  1  0
 20 22  1  0
 20 21  1  1
 22 23  1  6
 23 15  1  0
 24 22  1  0
 25 24  2  0
 26 24  1  0
M  END
$$$$
