IEI.pdb
     RDKit          3D

 26 25  0  0  1  0  0  0  0  0999 V2000
   29.7818  -20.1292  -16.7282 C   0  0  0  0  0  0  0  0  0  0  0  0
   29.6724  -18.8969  -15.8710 C   0  0  0  0  0  0  0  0  0  0  0  0
   28.6487  -19.0653  -14.7668 C   0  0  2  0  0  0  0  0  0  0  0  0
   29.1022  -20.2401  -13.9246 C   0  0  0  0  0  0  0  0  0  0  0  0
   27.2621  -19.3027  -15.3377 C   0  0  2  0  0  0  0  0  0  0  0  0
   26.9175  -18.2128  -16.2048 N   0  0  0  0  0  0  0  0  0  0  0  0
   26.3304  -19.3099  -14.1578 C   0  0  0  0  0  0  0  0  0  0  0  0
   26.1862  -18.2759  -13.4513 O   0  0  0  0  0  0  0  0  0  0  0  0
   25.5890  -20.4584  -13.7976 N   0  0  0  0  0  0  0  0  0  0  0  0
   24.6827  -20.5034  -12.6370 C   0  0  1  0  0  0  0  0  0  0  0  0
   23.5888  -21.4894  -12.9256 C   0  0  0  0  0  0  0  0  0  0  0  0
   22.5623  -21.5120  -11.8423 C   0  0  0  0  0  0  0  0  0  0  0  0
   21.5443  -20.4109  -12.1084 C   0  0  0  0  0  0  0  0  0  0  0  0
   21.2211  -19.6715  -11.1517 O   0  0  0  0  0  0  0  0  0  0  0  0
   25.4275  -20.9473  -11.4296 C   0  0  0  0  0  0  0  0  0  0  0  0
   26.5781  -21.4295  -11.6146 O   0  0  0  0  0  0  0  0  0  0  0  0
   20.9883  -20.2242  -13.3613 O   0  0  0  0  0  0  0  0  0  0  0  0
   28.6331  -19.7011   -7.0336 C   0  0  0  0  0  0  0  0  0  0  0  0
   27.6072  -20.7539   -7.3785 C   0  0  0  0  0  0  0  0  0  0  0  0
   26.8638  -20.3252   -8.6167 C   0  0  2  0  0  0  0  0  0  0  0  0
   26.4523  -18.8700   -8.3179 C   0  0  0  0  0  0  0  0  0  0  0  0
   25.6200  -21.1558   -8.8851 C   0  0  2  0  0  0  0  0  0  0  0  0
   24.9411  -20.8610  -10.1068 N   0  0  0  0  0  0  0  0  0  0  0  0
   24.6817  -21.2330   -7.7723 C   0  0  0  0  0  0  0  0  0  0  0  0
   25.0532  -21.7225   -6.6642 O   0  0  0  0  0  0  0  0  0  0  0  0
   23.3621  -20.8010   -7.8165 O   0  0  0  0  0  0  0  0  0  0  0  0
  2  3  1  0
  2  1  1  0
  3  4  1  1
  5  6  1  6
  5  3  1  0
  7  5  1  0
  8  7  2  0
  9  7  1  0
 10  9  1  0
 11 12  1  0
 10 11  1  6
 12 13  1  0
 13 14  2  0
 15 16  2  0
 15 10  1  0
 17 13  1  0
 18 19  1  0
 19 20  1  0
 20 22  1  0
 20 21  1  1
 22 23  1  6
 23 15  1  0
 24 22  1  0
 25 24  2  0
 26 24  1  0
M  END
$$$$
