IEI.pdb
     RDKit          3D

 26 25  0  0  1  0  0  0  0  0999 V2000
   24.4118  -14.1195  -15.9649 C   0  0  0  0  0  0  0  0  0  0  0  0
   22.9252  -13.9031  -15.8729 C   0  0  0  0  0  0  0  0  0  0  0  0
   22.5519  -12.4486  -16.0747 C   0  0  2  0  0  0  0  0  0  0  0  0
   23.3063  -11.6536  -15.0289 C   0  0  0  0  0  0  0  0  0  0  0  0
   21.0532  -12.2450  -15.9427 C   0  0  2  0  0  0  0  0  0  0  0  0
   20.3803  -13.0627  -16.9108 N   0  0  0  0  0  0  0  0  0  0  0  0
   20.8081  -10.7965  -16.2625 C   0  0  0  0  0  0  0  0  0  0  0  0
   21.4082  -10.2441  -17.2237 O   0  0  0  0  0  0  0  0  0  0  0  0
   19.9087  -10.0067  -15.5106 N   0  0  0  0  0  0  0  0  0  0  0  0
   19.6462   -8.5859  -15.7986 C   0  0  1  0  0  0  0  0  0  0  0  0
   18.2753   -8.2433  -15.2933 C   0  0  0  0  0  0  0  0  0  0  0  0
   17.9680   -6.7926  -15.4631 C   0  0  0  0  0  0  0  0  0  0  0  0
   16.5521   -6.5302  -14.9670 C   0  0  0  0  0  0  0  0  0  0  0  0
   16.1220   -5.3562  -15.0245 O   0  0  0  0  0  0  0  0  0  0  0  0
   20.6454   -7.7347  -15.1009 C   0  0  0  0  0  0  0  0  0  0  0  0
   21.0766   -8.1538  -13.9922 O   0  0  0  0  0  0  0  0  0  0  0  0
   15.7583   -7.5470  -14.4673 O   0  0  0  0  0  0  0  0  0  0  0  0
   25.0032   -6.2230  -17.6125 C   0  0  0  0  0  0  0  0  0  0  0  0
   24.0130   -6.6228  -16.5451 C   0  0  0  0  0  0  0  0  0  0  0  0
   23.3216   -5.3866  -16.0318 C   0  0  2  0  0  0  0  0  0  0  0  0
   24.4339   -4.6198  -15.2895 C   0  0  0  0  0  0  0  0  0  0  0  0
   22.1891   -5.6924  -15.0659 C   0  0  2  0  0  0  0  0  0  0  0  0
   21.1409   -6.5074  -15.5928 N   0  0  0  0  0  0  0  0  0  0  0  0
   21.6477   -4.5328  -14.3681 C   0  0  0  0  0  0  0  0  0  0  0  0
   20.6599   -3.9060  -14.8546 O   0  0  0  0  0  0  0  0  0  0  0  0
   22.1355   -4.0303  -13.1683 O   0  0  0  0  0  0  0  0  0  0  0  0
  2  3  1  0
  2  1  1  0
  3  4  1  1
  5  6  1  6
  5  3  1  0
  7  5  1  0
  8  7  2  0
  9  7  1  0
 10  9  1  0
 11 12  1  0
 10 11  1  1
 12 13  1  0
 13 14  2  0
 15 16  2  0
 15 10  1  0
 17 13  1  0
 18 19  1  0
 19 20  1  0
 20 22  1  0
 20 21  1  1
 22 23  1  6
 23 15  1  0
 24 22  1  0
 25 24  2  0
 26 24  1  0
M  END
$$$$
