IEI.pdb
     RDKit          3D

 26 25  0  0  1  0  0  0  0  0999 V2000
   30.0825  -20.8602  -10.7233 C   0  0  0  0  0  0  0  0  0  0  0  0
   28.6390  -21.1296  -10.3933 C   0  0  0  0  0  0  0  0  0  0  0  0
   27.7306  -20.8724  -11.5782 C   0  0  2  0  0  0  0  0  0  0  0  0
   27.8960  -19.4127  -11.9482 C   0  0  0  0  0  0  0  0  0  0  0  0
   26.2855  -21.1917  -11.2392 C   0  0  2  0  0  0  0  0  0  0  0  0
   26.2029  -22.5395  -10.7544 N   0  0  0  0  0  0  0  0  0  0  0  0
   25.5289  -21.0844  -12.5340 C   0  0  0  0  0  0  0  0  0  0  0  0
   25.9784  -21.6200  -13.5828 O   0  0  0  0  0  0  0  0  0  0  0  0
   24.3015  -20.3893  -12.6272 N   0  0  0  0  0  0  0  0  0  0  0  0
   23.5532  -20.2373  -13.8872 C   0  0  1  0  0  0  0  0  0  0  0  0
   22.1210  -20.6097  -13.6378 C   0  0  0  0  0  0  0  0  0  0  0  0
   21.9731  -22.0594  -13.3145 C   0  0  0  0  0  0  0  0  0  0  0  0
   21.8894  -22.8459  -14.6161 C   0  0  0  0  0  0  0  0  0  0  0  0
   20.7704  -22.9427  -15.1683 O   0  0  0  0  0  0  0  0  0  0  0  0
   23.6127  -18.8241  -14.3443 C   0  0  0  0  0  0  0  0  0  0  0  0
   23.3331  -17.9370  -13.4925 O   0  0  0  0  0  0  0  0  0  0  0  0
   23.0057  -23.4380  -15.1789 O   0  0  0  0  0  0  0  0  0  0  0  0
   27.3277  -14.8760  -16.4317 C   0  0  0  0  0  0  0  0  0  0  0  0
   25.8693  -15.2394  -16.5761 C   0  0  0  0  0  0  0  0  0  0  0  0
   25.6556  -16.6290  -16.0347 C   0  0  2  0  0  0  0  0  0  0  0  0
   26.5417  -17.5171  -16.9304 C   0  0  0  0  0  0  0  0  0  0  0  0
   24.2124  -17.0939  -16.1337 C   0  0  2  0  0  0  0  0  0  0  0  0
   23.9620  -18.4143  -15.6496 N   0  0  0  0  0  0  0  0  0  0  0  0
   23.5895  -16.8887  -17.4355 C   0  0  0  0  0  0  0  0  0  0  0  0
   23.4803  -17.8578  -18.2445 O   0  0  0  0  0  0  0  0  0  0  0  0
   23.0832  -15.6775  -17.8901 O   0  0  0  0  0  0  0  0  0  0  0  0
  2  3  1  0
  2  1  1  0
  3  4  1  1
  5  6  1  6
  5  3  1  0
  7  5  1  0
  8  7  2  0
  9  7  1  0
 10  9  1  0
 11 12  1  0
 10 11  1  1
 12 13  1  0
 13 14  2  0
 15 16  2  0
 15 10  1  0
 17 13  1  0
 18 19  1  0
 19 20  1  0
 20 22  1  0
 20 21  1  6
 22 23  1  6
 23 15  1  0
 24 22  1  0
 25 24  2  0
 26 24  1  0
M  END
$$$$
