IEI.pdb
     RDKit          3D

 26 25  0  0  1  0  0  0  0  0999 V2000
   28.1327  -15.9620  -17.0791 C   0  0  0  0  0  0  0  0  0  0  0  0
   26.7511  -15.5730  -16.6262 C   0  0  0  0  0  0  0  0  0  0  0  0
   26.2675  -16.4376  -15.4799 C   0  0  2  0  0  0  0  0  0  0  0  0
   26.9685  -15.9423  -14.2316 C   0  0  0  0  0  0  0  0  0  0  0  0
   26.5709  -17.9033  -15.7342 C   0  0  2  0  0  0  0  0  0  0  0  0
   26.0573  -18.2735  -17.0217 N   0  0  0  0  0  0  0  0  0  0  0  0
   25.8314  -18.6643  -14.6692 C   0  0  0  0  0  0  0  0  0  0  0  0
   24.8016  -18.1742  -14.1322 O   0  0  0  0  0  0  0  0  0  0  0  0
   26.2537  -19.9408  -14.2327 N   0  0  0  0  0  0  0  0  0  0  0  0
   25.5004  -20.7520  -13.2606 C   0  0  1  0  0  0  0  0  0  0  0  0
   25.3942  -22.1521  -13.7901 C   0  0  0  0  0  0  0  0  0  0  0  0
   24.6806  -23.0528  -12.8376 C   0  0  0  0  0  0  0  0  0  0  0  0
   23.3111  -23.3889  -13.4131 C   0  0  0  0  0  0  0  0  0  0  0  0
   23.0621  -23.0165  -14.5818 O   0  0  0  0  0  0  0  0  0  0  0  0
   26.2191  -20.7803  -11.9597 C   0  0  0  0  0  0  0  0  0  0  0  0
   27.4780  -20.8416  -12.0049 O   0  0  0  0  0  0  0  0  0  0  0  0
   22.3656  -24.0818  -12.6786 O   0  0  0  0  0  0  0  0  0  0  0  0
   28.4284  -18.6900   -7.1973 C   0  0  0  0  0  0  0  0  0  0  0  0
   27.6637  -19.9314   -7.5897 C   0  0  0  0  0  0  0  0  0  0  0  0
   26.9877  -19.6910   -8.9144 C   0  0  2  0  0  0  0  0  0  0  0  0
   26.0332  -18.5131   -8.6362 C   0  0  0  0  0  0  0  0  0  0  0  0
   26.1854  -20.8859   -9.4018 C   0  0  2  0  0  0  0  0  0  0  0  0
   25.5946  -20.7383  -10.6940 N   0  0  0  0  0  0  0  0  0  0  0  0
   25.2197  -21.4088   -8.4433 C   0  0  0  0  0  0  0  0  0  0  0  0
   23.9894  -21.4509   -8.7436 O   0  0  0  0  0  0  0  0  0  0  0  0
   25.5372  -21.8853   -7.1776 O   0  0  0  0  0  0  0  0  0  0  0  0
  2  3  1  0
  2  1  1  0
  3  4  1  1
  5  6  1  6
  5  3  1  0
  7  5  1  0
  8  7  2  0
  9  7  1  0
 10  9  1  0
 11 12  1  0
 10 11  1  6
 12 13  1  0
 13 14  2  0
 15 16  2  0
 15 10  1  0
 17 13  1  0
 18 19  1  0
 19 20  1  0
 20 22  1  0
 20 21  1  1
 22 23  1  6
 23 15  1  0
 24 22  1  0
 25 24  2  0
 26 24  1  0
M  END
$$$$
