IEI.pdb
     RDKit          3D

 26 25  0  0  1  0  0  0  0  0999 V2000
   21.7550  -18.7959  -17.9266 C   0  0  0  0  0  0  0  0  0  0  0  0
   22.9218  -19.2326  -17.0822 C   0  0  0  0  0  0  0  0  0  0  0  0
   23.7339  -18.0535  -16.5867 C   0  0  2  0  0  0  0  0  0  0  0  0
   24.2385  -17.3225  -17.8139 C   0  0  0  0  0  0  0  0  0  0  0  0
   24.8852  -18.5120  -15.7095 C   0  0  2  0  0  0  0  0  0  0  0  0
   25.4597  -19.7008  -16.2708 N   0  0  0  0  0  0  0  0  0  0  0  0
   24.2763  -18.8395  -14.3745 C   0  0  0  0  0  0  0  0  0  0  0  0
   23.6970  -17.9458  -13.7001 O   0  0  0  0  0  0  0  0  0  0  0  0
   24.3272  -20.1426  -13.8290 N   0  0  0  0  0  0  0  0  0  0  0  0
   23.7522  -20.4926  -12.5186 C   0  0  1  0  0  0  0  0  0  0  0  0
   22.8655  -21.6908  -12.6929 C   0  0  0  0  0  0  0  0  0  0  0  0
   21.7500  -21.4212  -13.6473 C   0  0  0  0  0  0  0  0  0  0  0  0
   20.5226  -20.9871  -12.8568 C   0  0  0  0  0  0  0  0  0  0  0  0
   19.8724  -21.8720  -12.2564 O   0  0  0  0  0  0  0  0  0  0  0  0
   24.8390  -20.8305  -11.5624 C   0  0  0  0  0  0  0  0  0  0  0  0
   25.8166  -21.4843  -12.0180 O   0  0  0  0  0  0  0  0  0  0  0  0
   20.1296  -19.6621  -12.7969 O   0  0  0  0  0  0  0  0  0  0  0  0
   28.5140  -18.9926   -7.2241 C   0  0  0  0  0  0  0  0  0  0  0  0
   27.7475  -20.1932   -7.7249 C   0  0  0  0  0  0  0  0  0  0  0  0
   26.7523  -19.7404   -8.7614 C   0  0  2  0  0  0  0  0  0  0  0  0
   25.9682  -18.6154   -8.0572 C   0  0  0  0  0  0  0  0  0  0  0  0
   25.7895  -20.8370   -9.1851 C   0  0  2  0  0  0  0  0  0  0  0  0
   24.8519  -20.4682  -10.1977 N   0  0  0  0  0  0  0  0  0  0  0  0
   25.1263  -21.5293   -8.0872 C   0  0  0  0  0  0  0  0  0  0  0  0
   23.9062  -21.2960   -7.8371 O   0  0  0  0  0  0  0  0  0  0  0  0
   25.7341  -22.4605   -7.2545 O   0  0  0  0  0  0  0  0  0  0  0  0
  2  3  1  0
  2  1  1  0
  3  4  1  6
  5  6  1  6
  5  3  1  0
  7  5  1  0
  8  7  2  0
  9  7  1  0
 10  9  1  0
 11 12  1  0
 10 11  1  6
 12 13  1  0
 13 14  2  0
 15 16  2  0
 15 10  1  0
 17 13  1  0
 18 19  1  0
 19 20  1  0
 20 22  1  0
 20 21  1  1
 22 23  1  6
 23 15  1  0
 24 22  1  0
 25 24  2  0
 26 24  1  0
M  END
$$$$
