IEI.pdb
     RDKit          3D

 26 25  0  0  1  0  0  0  0  0999 V2000
   29.3609  -20.6165  -17.8477 C   0  0  0  0  0  0  0  0  0  0  0  0
   28.0386  -20.2416  -18.4610 C   0  0  0  0  0  0  0  0  0  0  0  0
   27.1225  -19.5664  -17.4608 C   0  0  2  0  0  0  0  0  0  0  0  0
   27.7595  -18.2370  -17.1114 C   0  0  0  0  0  0  0  0  0  0  0  0
   26.9343  -20.4263  -16.2238 C   0  0  2  0  0  0  0  0  0  0  0  0
   26.5276  -21.7428  -16.6236 N   0  0  0  0  0  0  0  0  0  0  0  0
   25.8233  -19.7811  -15.4430 C   0  0  0  0  0  0  0  0  0  0  0  0
   26.0210  -18.7006  -14.8245 O   0  0  0  0  0  0  0  0  0  0  0  0
   24.5314  -20.3503  -15.3713 N   0  0  0  0  0  0  0  0  0  0  0  0
   23.4197  -19.7386  -14.6228 C   0  0  1  0  0  0  0  0  0  0  0  0
   22.1960  -19.7536  -15.4914 C   0  0  0  0  0  0  0  0  0  0  0  0
   21.0017  -19.2145  -14.7767 C   0  0  0  0  0  0  0  0  0  0  0  0
   19.8028  -19.2698  -15.7145 C   0  0  0  0  0  0  0  0  0  0  0  0
   19.2903  -20.3890  -15.9408 O   0  0  0  0  0  0  0  0  0  0  0  0
   23.1471  -20.5228  -13.3898 C   0  0  0  0  0  0  0  0  0  0  0  0
   23.2344  -21.7777  -13.4811 O   0  0  0  0  0  0  0  0  0  0  0  0
   19.2886  -18.1282  -16.3026 O   0  0  0  0  0  0  0  0  0  0  0  0
   26.0317  -20.1913   -9.1382 C   0  0  0  0  0  0  0  0  0  0  0  0
   25.0773  -20.6661  -10.2076 C   0  0  0  0  0  0  0  0  0  0  0  0
   23.6760  -20.2673   -9.8244 C   0  0  2  0  0  0  0  0  0  0  0  0
   23.3958  -21.0783   -8.5438 C   0  0  0  0  0  0  0  0  0  0  0  0
   22.6434  -20.6214  -10.8814 C   0  0  2  0  0  0  0  0  0  0  0  0
   22.8067  -19.9634  -12.1388 N   0  0  0  0  0  0  0  0  0  0  0  0
   21.2581  -20.5534  -10.4331 C   0  0  0  0  0  0  0  0  0  0  0  0
   20.6424  -19.4460  -10.4464 O   0  0  0  0  0  0  0  0  0  0  0  0
   20.5194  -21.6364   -9.9732 O   0  0  0  0  0  0  0  0  0  0  0  0
  2  3  1  0
  2  1  1  0
  3  4  1  1
  5  6  1  6
  5  3  1  0
  7  5  1  0
  8  7  2  0
  9  7  1  0
 10  9  1  0
 11 12  1  0
 10 11  1  6
 12 13  1  0
 13 14  2  0
 15 16  2  0
 15 10  1  0
 17 13  1  0
 18 19  1  0
 19 20  1  0
 20 22  1  0
 20 21  1  1
 22 23  1  6
 23 15  1  0
 24 22  1  0
 25 24  2  0
 26 24  1  0
M  END
$$$$
