IEI.pdb
     RDKit          3D

 26 25  0  0  1  0  0  0  0  0999 V2000
   29.6950  -19.1378  -17.5195 C   0  0  0  0  0  0  0  0  0  0  0  0
   28.3015  -18.5691  -17.5246 C   0  0  0  0  0  0  0  0  0  0  0  0
   27.8414  -18.1874  -16.1325 C   0  0  2  0  0  0  0  0  0  0  0  0
   28.5604  -16.9042  -15.7699 C   0  0  0  0  0  0  0  0  0  0  0  0
   28.1482  -19.2889  -15.1336 C   0  0  2  0  0  0  0  0  0  0  0  0
   27.8739  -20.5612  -15.7374 N   0  0  0  0  0  0  0  0  0  0  0  0
   27.2035  -19.0728  -13.9843 C   0  0  0  0  0  0  0  0  0  0  0  0
   27.2605  -18.0152  -13.3006 O   0  0  0  0  0  0  0  0  0  0  0  0
   26.2275  -20.0314  -13.6283 N   0  0  0  0  0  0  0  0  0  0  0  0
   25.3056  -19.8618  -12.4917 C   0  0  1  0  0  0  0  0  0  0  0  0
   23.9788  -20.4571  -12.8623 C   0  0  0  0  0  0  0  0  0  0  0  0
   23.0004  -20.3747  -11.7381 C   0  0  0  0  0  0  0  0  0  0  0  0
   21.6937  -21.0226  -12.1770 C   0  0  0  0  0  0  0  0  0  0  0  0
   21.6410  -21.5066  -13.3300 O   0  0  0  0  0  0  0  0  0  0  0  0
   25.8372  -20.5706  -11.2981 C   0  0  0  0  0  0  0  0  0  0  0  0
   26.4358  -21.6617  -11.5026 O   0  0  0  0  0  0  0  0  0  0  0  0
   20.5951  -21.0804  -11.3384 O   0  0  0  0  0  0  0  0  0  0  0  0
   28.9648  -20.1117   -6.2386 C   0  0  0  0  0  0  0  0  0  0  0  0
   27.7606  -20.8131   -6.8199 C   0  0  0  0  0  0  0  0  0  0  0  0
   27.3006  -20.0628   -8.0426 C   0  0  2  0  0  0  0  0  0  0  0  0
   26.8281  -18.7040   -7.4889 C   0  0  0  0  0  0  0  0  0  0  0  0
   26.1478  -20.7423   -8.7626 C   0  0  2  0  0  0  0  0  0  0  0  0
   25.7226  -20.1071   -9.9693 N   0  0  0  0  0  0  0  0  0  0  0  0
   25.0073  -21.0744   -7.9180 C   0  0  0  0  0  0  0  0  0  0  0  0
   25.1744  -21.7764   -6.8764 O   0  0  0  0  0  0  0  0  0  0  0  0
   23.6987  -20.6754   -8.1597 O   0  0  0  0  0  0  0  0  0  0  0  0
  2  3  1  0
  2  1  1  0
  3  4  1  1
  5  6  1  6
  5  3  1  0
  7  5  1  0
  8  7  2  0
  9  7  1  0
 10  9  1  0
 11 12  1  0
 10 11  1  6
 12 13  1  0
 13 14  2  0
 15 16  2  0
 15 10  1  0
 17 13  1  0
 18 19  1  0
 19 20  1  0
 20 22  1  0
 20 21  1  1
 22 23  1  6
 23 15  1  0
 24 22  1  0
 25 24  2  0
 26 24  1  0
M  END
$$$$
