IEI.pdb
     RDKit          3D

 26 25  0  0  1  0  0  0  0  0999 V2000
   19.0672  -17.1535  -19.5299 C   0  0  0  0  0  0  0  0  0  0  0  0
   18.6343  -16.5012  -18.2444 C   0  0  0  0  0  0  0  0  0  0  0  0
   19.1049  -15.0640  -18.1532 C   0  0  2  0  0  0  0  0  0  0  0  0
   20.6193  -15.0967  -18.1743 C   0  0  0  0  0  0  0  0  0  0  0  0
   18.5883  -14.3982  -16.8903 C   0  0  2  0  0  0  0  0  0  0  0  0
   17.1768  -14.6301  -16.7799 N   0  0  0  0  0  0  0  0  0  0  0  0
   18.8351  -12.9266  -17.0741 C   0  0  0  0  0  0  0  0  0  0  0  0
   19.9754  -12.5071  -17.4100 O   0  0  0  0  0  0  0  0  0  0  0  0
   17.8146  -11.9676  -16.8810 N   0  0  0  0  0  0  0  0  0  0  0  0
   18.0477  -10.5146  -16.9528 C   0  0  1  0  0  0  0  0  0  0  0  0
   16.7238   -9.8150  -16.8540 C   0  0  0  0  0  0  0  0  0  0  0  0
   16.8722   -8.3322  -16.9399 C   0  0  0  0  0  0  0  0  0  0  0  0
   15.7420   -7.7752  -17.7956 C   0  0  0  0  0  0  0  0  0  0  0  0
   14.8884   -8.5805  -18.2308 O   0  0  0  0  0  0  0  0  0  0  0  0
   18.9083  -10.0831  -15.8201 C   0  0  0  0  0  0  0  0  0  0  0  0
   18.6420  -10.5655  -14.6856 O   0  0  0  0  0  0  0  0  0  0  0  0
   15.6512   -6.4264  -18.0890 O   0  0  0  0  0  0  0  0  0  0  0  0
   23.7224  -11.1790  -14.7768 C   0  0  0  0  0  0  0  0  0  0  0  0
   22.2843  -10.7223  -14.7221 C   0  0  0  0  0  0  0  0  0  0  0  0
   22.2419   -9.2226  -14.8601 C   0  0  2  0  0  0  0  0  0  0  0  0
   22.9620   -8.7127  -13.5962 C   0  0  0  0  0  0  0  0  0  0  0  0
   20.8287   -8.6651  -14.8948 C   0  0  2  0  0  0  0  0  0  0  0  0
   19.9926   -9.1854  -15.9296 N   0  0  0  0  0  0  0  0  0  0  0  0
   20.7409   -7.2114  -14.8345 C   0  0  0  0  0  0  0  0  0  0  0  0
   20.6040   -6.5411  -15.9010 O   0  0  0  0  0  0  0  0  0  0  0  0
   20.7958   -6.4615  -13.6664 O   0  0  0  0  0  0  0  0  0  0  0  0
  2  3  1  0
  2  1  1  0
  3  4  1  1
  5  6  1  6
  5  3  1  0
  7  5  1  0
  8  7  2  0
  9  7  1  0
 10  9  1  0
 11 12  1  0
 10 11  1  1
 12 13  1  0
 13 14  2  0
 15 16  2  0
 15 10  1  0
 17 13  1  0
 18 19  1  0
 19 20  1  0
 20 22  1  0
 20 21  1  1
 22 23  1  6
 23 15  1  0
 24 22  1  0
 25 24  2  0
 26 24  1  0
M  END
$$$$
