IEI.pdb
     RDKit          3D

 26 25  0  0  1  0  0  0  0  0999 V2000
   21.3582  -18.0815  -14.8731 C   0  0  0  0  0  0  0  0  0  0  0  0
   20.3085  -17.6014  -15.8388 C   0  0  0  0  0  0  0  0  0  0  0  0
   20.4511  -16.1236  -16.1405 C   0  0  2  0  0  0  0  0  0  0  0  0
   20.3058  -15.3914  -14.8223 C   0  0  0  0  0  0  0  0  0  0  0  0
   19.4044  -15.6657  -17.1404 C   0  0  2  0  0  0  0  0  0  0  0  0
   19.5447  -16.4253  -18.3494 N   0  0  0  0  0  0  0  0  0  0  0  0
   19.7144  -14.2222  -17.4242 C   0  0  0  0  0  0  0  0  0  0  0  0
   20.8166  -13.8952  -17.9413 O   0  0  0  0  0  0  0  0  0  0  0  0
   18.7973  -13.1882  -17.1276 N   0  0  0  0  0  0  0  0  0  0  0  0
   19.0584  -11.7683  -17.4210 C   0  0  1  0  0  0  0  0  0  0  0  0
   17.7653  -11.1191  -17.8189 C   0  0  0  0  0  0  0  0  0  0  0  0
   17.9404   -9.6654  -18.1085 C   0  0  0  0  0  0  0  0  0  0  0  0
   16.5936   -9.0803  -18.5128 C   0  0  0  0  0  0  0  0  0  0  0  0
   16.0026   -9.5960  -19.4881 O   0  0  0  0  0  0  0  0  0  0  0  0
   19.5872  -11.0895  -16.2088 C   0  0  0  0  0  0  0  0  0  0  0  0
   19.0635  -11.4034  -15.1053 O   0  0  0  0  0  0  0  0  0  0  0  0
   16.0320   -8.0146  -17.8327 O   0  0  0  0  0  0  0  0  0  0  0  0
   24.3104  -11.6385  -14.3970 C   0  0  0  0  0  0  0  0  0  0  0  0
   22.8397  -11.3372  -14.5591 C   0  0  0  0  0  0  0  0  0  0  0  0
   22.6675   -9.8615  -14.8088 C   0  0  2  0  0  0  0  0  0  0  0  0
   23.1207   -9.2060  -13.4893 C   0  0  0  0  0  0  0  0  0  0  0  0
   21.2288   -9.4681  -15.0991 C   0  0  2  0  0  0  0  0  0  0  0  0
   20.6265  -10.1336  -16.2104 N   0  0  0  0  0  0  0  0  0  0  0  0
   20.9848   -8.0322  -15.1562 C   0  0  0  0  0  0  0  0  0  0  0  0
   21.0851   -7.4168  -16.2593 O   0  0  0  0  0  0  0  0  0  0  0  0
   20.6379   -7.2430  -14.0669 O   0  0  0  0  0  0  0  0  0  0  0  0
  2  3  1  0
  2  1  1  0
  3  4  1  1
  5  6  1  6
  5  3  1  0
  7  5  1  0
  8  7  2  0
  9  7  1  0
 10  9  1  0
 11 12  1  0
 10 11  1  1
 12 13  1  0
 13 14  2  0
 15 16  2  0
 15 10  1  0
 17 13  1  0
 18 19  1  0
 19 20  1  0
 20 22  1  0
 20 21  1  1
 22 23  1  6
 23 15  1  0
 24 22  1  0
 25 24  2  0
 26 24  1  0
M  END
$$$$
