IEI.pdb
     RDKit          3D

 26 25  0  0  1  0  0  0  0  0999 V2000
   15.2161  -14.1096  -19.3639 C   0  0  0  0  0  0  0  0  0  0  0  0
   15.6599  -13.6991  -17.9855 C   0  0  0  0  0  0  0  0  0  0  0  0
   16.5212  -12.4530  -18.0165 C   0  0  2  0  0  0  0  0  0  0  0  0
   17.7282  -12.7760  -18.8731 C   0  0  0  0  0  0  0  0  0  0  0  0
   16.9373  -12.0406  -16.6158 C   0  0  2  0  0  0  0  0  0  0  0  0
   15.7640  -11.8660  -15.8088 N   0  0  0  0  0  0  0  0  0  0  0  0
   17.6334  -10.7169  -16.7697 C   0  0  0  0  0  0  0  0  0  0  0  0
   18.6749  -10.6208  -17.4734 O   0  0  0  0  0  0  0  0  0  0  0  0
   17.1562   -9.5438  -16.1416 N   0  0  0  0  0  0  0  0  0  0  0  0
   17.8525   -8.2476  -16.2160 C   0  0  1  0  0  0  0  0  0  0  0  0
   16.8529   -7.1558  -15.9692 C   0  0  0  0  0  0  0  0  0  0  0  0
   15.9681   -6.9362  -17.1511 C   0  0  0  0  0  0  0  0  0  0  0  0
   15.0088   -5.7949  -16.8399 C   0  0  0  0  0  0  0  0  0  0  0  0
   15.0740   -4.7676  -17.5518 O   0  0  0  0  0  0  0  0  0  0  0  0
   18.9097   -8.1799  -15.1733 C   0  0  0  0  0  0  0  0  0  0  0  0
   18.6206   -8.6446  -14.0370 O   0  0  0  0  0  0  0  0  0  0  0  0
   14.0917   -5.8791  -15.8078 O   0  0  0  0  0  0  0  0  0  0  0  0
   24.0909  -10.3057  -13.8865 C   0  0  0  0  0  0  0  0  0  0  0  0
   23.3316   -9.0178  -13.6755 C   0  0  0  0  0  0  0  0  0  0  0  0
   22.2108   -8.9408  -14.6793 C   0  0  2  0  0  0  0  0  0  0  0  0
   22.9338   -8.8673  -16.0387 C   0  0  0  0  0  0  0  0  0  0  0  0
   21.3365   -7.7101  -14.5060 C   0  0  2  0  0  0  0  0  0  0  0  0
   20.2005   -7.6421  -15.3694 N   0  0  0  0  0  0  0  0  0  0  0  0
   22.0567   -6.4430  -14.4906 C   0  0  0  0  0  0  0  0  0  0  0  0
   22.0493   -5.6985  -15.5160 O   0  0  0  0  0  0  0  0  0  0  0  0
   22.7809   -5.9556  -13.4099 O   0  0  0  0  0  0  0  0  0  0  0  0
  2  3  1  0
  2  1  1  0
  3  4  1  6
  5  6  1  1
  5  3  1  0
  7  5  1  0
  8  7  2  0
  9  7  1  0
 10  9  1  0
 11 12  1  0
 10 11  1  1
 12 13  1  0
 13 14  2  0
 15 16  2  0
 15 10  1  0
 17 13  1  0
 18 19  1  0
 19 20  1  0
 20 22  1  0
 20 21  1  6
 22 23  1  6
 23 15  1  0
 24 22  1  0
 25 24  2  0
 26 24  1  0
M  END
$$$$
