IEI.pdb
     RDKit          3D

 26 25  0  0  1  0  0  0  0  0999 V2000
   15.5928  -15.4749  -18.2504 C   0  0  0  0  0  0  0  0  0  0  0  0
   15.6614  -14.7128  -16.9544 C   0  0  0  0  0  0  0  0  0  0  0  0
   16.4856  -13.4482  -17.0850 C   0  0  2  0  0  0  0  0  0  0  0  0
   17.9005  -13.8793  -17.4122 C   0  0  0  0  0  0  0  0  0  0  0  0
   16.4429  -12.6326  -15.8051 C   0  0  2  0  0  0  0  0  0  0  0  0
   15.0782  -12.3202  -15.4917 N   0  0  0  0  0  0  0  0  0  0  0  0
   17.1850  -11.3604  -16.1066 C   0  0  0  0  0  0  0  0  0  0  0  0
   18.3231  -11.3974  -16.6474 O   0  0  0  0  0  0  0  0  0  0  0  0
   16.6457  -10.0899  -15.8010 N   0  0  0  0  0  0  0  0  0  0  0  0
   17.3910   -8.8318  -15.9800 C   0  0  1  0  0  0  0  0  0  0  0  0
   16.4929   -7.6893  -15.6056 C   0  0  0  0  0  0  0  0  0  0  0  0
   17.1786   -6.3721  -15.7564 C   0  0  0  0  0  0  0  0  0  0  0  0
   16.2022   -5.2653  -15.3804 C   0  0  0  0  0  0  0  0  0  0  0  0
   15.0511   -5.6001  -15.0206 O   0  0  0  0  0  0  0  0  0  0  0  0
   18.5842   -8.8193  -15.0935 C   0  0  0  0  0  0  0  0  0  0  0  0
   18.4213   -9.2303  -13.9123 O   0  0  0  0  0  0  0  0  0  0  0  0
   16.5636   -3.9310  -15.4310 O   0  0  0  0  0  0  0  0  0  0  0  0
   23.8956  -11.0159  -14.3189 C   0  0  0  0  0  0  0  0  0  0  0  0
   23.1933   -9.6933  -14.1257 C   0  0  0  0  0  0  0  0  0  0  0  0
   21.9241   -9.6905  -14.9373 C   0  0  2  0  0  0  0  0  0  0  0  0
   22.4161   -9.7529  -16.3968 C   0  0  0  0  0  0  0  0  0  0  0  0
   21.0906   -8.4354  -14.7394 C   0  0  2  0  0  0  0  0  0  0  0  0
   19.8715   -8.3889  -15.4824 N   0  0  0  0  0  0  0  0  0  0  0  0
   21.8267   -7.1837  -14.8658 C   0  0  0  0  0  0  0  0  0  0  0  0
   22.8232   -6.9572  -14.1166 O   0  0  0  0  0  0  0  0  0  0  0  0
   21.5239   -6.1736  -15.7702 O   0  0  0  0  0  0  0  0  0  0  0  0
  2  3  1  0
  2  1  1  0
  3  4  1  1
  5  6  1  6
  5  3  1  0
  7  5  1  0
  8  7  2  0
  9  7  1  0
 10  9  1  0
 11 12  1  0
 10 11  1  1
 12 13  1  0
 13 14  2  0
 15 16  2  0
 15 10  1  0
 17 13  1  0
 18 19  1  0
 19 20  1  0
 20 22  1  0
 20 21  1  6
 22 23  1  6
 23 15  1  0
 24 22  1  0
 25 24  2  0
 26 24  1  0
M  END
$$$$
