WAW.pdb
     RDKit          3D

 34 37  0  0  1  0  0  0  0  0999 V2000
    6.9541  -18.0874   21.1598 N   0  0  0  0  0  0  0  0  0  0  0  0
    7.8404  -17.0186   21.5919 C   0  0  1  0  0  0  0  0  0  0  0  0
    7.0526  -15.7700   21.9214 C   0  0  0  0  0  0  0  0  0  0  0  0
    6.8644  -14.8939   20.7650 C   0  0  0  0  0  0  0  0  0  0  0  0
    5.8897  -15.0393   19.7969 C   0  0  0  0  0  0  0  0  0  0  0  0
    6.0133  -14.0763   18.8717 N   0  0  0  0  0  0  0  0  0  0  0  0
    7.0782  -13.2945   19.2353 C   0  0  0  0  0  0  0  0  0  0  0  0
    7.6301  -12.1900   18.6388 C   0  0  0  0  0  0  0  0  0  0  0  0
    8.7209  -11.5701   19.2064 C   0  0  0  0  0  0  0  0  0  0  0  0
    9.2673  -12.0488   20.3730 C   0  0  0  0  0  0  0  0  0  0  0  0
    8.7165  -13.1576   20.9784 C   0  0  0  0  0  0  0  0  0  0  0  0
    7.6160  -13.8034   20.4266 C   0  0  0  0  0  0  0  0  0  0  0  0
    8.4123  -17.5206   22.8940 C   0  0  0  0  0  0  0  0  0  0  0  0
    7.6541  -17.7742   23.8730 O   0  0  0  0  0  0  0  0  0  0  0  0
   11.8043  -18.7870   23.9632 C   0  0  0  0  0  0  0  0  0  0  0  0
   10.4161  -18.2399   24.2469 C   0  0  2  0  0  0  0  0  0  0  0  0
    9.7906  -17.7258   23.0726 N   0  0  0  0  0  0  0  0  0  0  0  0
   10.6236  -17.0914   25.1858 C   0  0  0  0  0  0  0  0  0  0  0  0
   11.2082  -16.0516   24.7872 O   0  0  0  0  0  0  0  0  0  0  0  0
   10.1602  -17.1789   26.5238 N   0  0  0  0  0  0  0  0  0  0  0  0
   10.7227  -16.3610   27.5442 C   0  0  1  0  0  0  0  0  0  0  0  0
   10.1410  -14.9983   27.6961 C   0  0  0  0  0  0  0  0  0  0  0  0
    8.7841  -14.9406   27.0546 C   0  0  0  0  0  0  0  0  0  0  0  0
    7.9593  -16.0088   26.7493 C   0  0  0  0  0  0  0  0  0  0  0  0
    6.8255  -15.5499   26.1790 N   0  0  0  0  0  0  0  0  0  0  0  0
    6.9157  -14.2185   26.1165 C   0  0  0  0  0  0  0  0  0  0  0  0
    5.9854  -13.3133   25.6049 C   0  0  0  0  0  0  0  0  0  0  0  0
    6.3015  -11.9854   25.6479 C   0  0  0  0  0  0  0  0  0  0  0  0
    7.4974  -11.5578   26.1785 C   0  0  0  0  0  0  0  0  0  0  0  0
    8.4158  -12.4526   26.6840 C   0  0  0  0  0  0  0  0  0  0  0  0
    8.1270  -13.7986   26.6550 C   0  0  0  0  0  0  0  0  0  0  0  0
   10.9259  -17.0225   28.8548 C   0  0  0  0  0  0  0  0  0  0  0  0
   11.4577  -16.5019   29.8185 O   0  0  0  0  0  0  0  0  0  0  0  0
   10.4564  -18.3479   28.9486 O   0  0  0  0  0  0  0  0  0  0  0  0
  2  1  1  1
  2  3  1  0
  4  3  1  0
  5  4  2  0
  6  5  1  0
  7  6  1  0
  7 12  2  0
  8  9  2  0
  8  7  1  0
  9 10  1  0
 10 11  2  0
 12 11  1  0
 12  4  1  0
 13  2  1  0
 13 14  2  0
 16 15  1  6
 16 17  1  0
 17 13  1  0
 18 16  1  0
 19 18  2  0
 20 18  1  0
 21 22  1  1
 21 20  1  0
 22 23  1  0
 23 31  1  0
 24 25  1  0
 24 23  2  0
 25 26  1  0
 26 31  2  0
 26 27  1  0
 27 28  2  0
 28 29  1  0
 30 29  2  0
 31 30  1  0
 32 34  1  0
 32 21  1  0
 33 32  2  0
M  END
$$$$
