WAW.pdb
     RDKit          3D

 34 37  0  0  1  0  0  0  0  0999 V2000
    7.0094  -19.7546   25.7358 N   0  0  0  0  0  0  0  0  0  0  0  0
    7.1700  -18.3848   25.2748 C   0  0  1  0  0  0  0  0  0  0  0  0
    8.6051  -17.9323   25.4301 C   0  0  0  0  0  0  0  0  0  0  0  0
    8.9171  -17.4849   26.7876 C   0  0  0  0  0  0  0  0  0  0  0  0
    9.1013  -18.3072   27.8823 C   0  0  0  0  0  0  0  0  0  0  0  0
    9.3544  -17.5699   28.9737 N   0  0  0  0  0  0  0  0  0  0  0  0
    9.3345  -16.2542   28.5917 C   0  0  0  0  0  0  0  0  0  0  0  0
    9.5256  -15.1038   29.3131 C   0  0  0  0  0  0  0  0  0  0  0  0
    9.4502  -13.8773   28.6914 C   0  0  0  0  0  0  0  0  0  0  0  0
    9.1838  -13.7917   27.3460 C   0  0  0  0  0  0  0  0  0  0  0  0
    8.9921  -14.9442   26.6149 C   0  0  0  0  0  0  0  0  0  0  0  0
    9.0616  -16.1952   27.2171 C   0  0  0  0  0  0  0  0  0  0  0  0
    6.9034  -18.4633   23.7924 C   0  0  0  0  0  0  0  0  0  0  0  0
    7.2756  -19.4705   23.1255 O   0  0  0  0  0  0  0  0  0  0  0  0
    5.3639  -16.1176   21.2377 C   0  0  0  0  0  0  0  0  0  0  0  0
    6.3988  -17.1202   21.7178 C   0  0  2  0  0  0  0  0  0  0  0  0
    6.2398  -17.4372   23.0993 N   0  0  0  0  0  0  0  0  0  0  0  0
    7.7214  -16.4342   21.5628 C   0  0  0  0  0  0  0  0  0  0  0  0
    8.0629  -15.9732   20.4436 O   0  0  0  0  0  0  0  0  0  0  0  0
    8.5869  -16.3058   22.6796 N   0  0  0  0  0  0  0  0  0  0  0  0
    9.7647  -15.5102   22.6004 C   0  0  1  0  0  0  0  0  0  0  0  0
    9.6909  -14.1555   23.2151 C   0  0  0  0  0  0  0  0  0  0  0  0
    9.3241  -14.2657   24.6673 C   0  0  0  0  0  0  0  0  0  0  0  0
    9.9756  -15.0048   25.6389 C   0  0  0  0  0  0  0  0  0  0  0  0
    9.3417  -14.8486   26.8201 N   0  0  0  0  0  0  0  0  0  0  0  0
    8.3059  -14.0299   26.6168 C   0  0  0  0  0  0  0  0  0  0  0  0
    7.3646  -13.5820   27.5441 C   0  0  0  0  0  0  0  0  0  0  0  0
    6.3845  -12.7417   27.0987 C   0  0  0  0  0  0  0  0  0  0  0  0
    6.3298  -12.3518   25.7798 C   0  0  0  0  0  0  0  0  0  0  0  0
    7.2602  -12.7944   24.8644 C   0  0  0  0  0  0  0  0  0  0  0  0
    8.2610  -13.6429   25.2820 C   0  0  0  0  0  0  0  0  0  0  0  0
   11.0289  -16.2030   22.9441 C   0  0  0  0  0  0  0  0  0  0  0  0
   12.1424  -15.7545   22.7398 O   0  0  0  0  0  0  0  0  0  0  0  0
   10.8867  -17.4685   23.5475 O   0  0  0  0  0  0  0  0  0  0  0  0
  2  1  1  6
  2  3  1  0
  4  3  1  0
  5  4  2  0
  6  5  1  0
  7  6  1  0
  7 12  2  0
  8  9  2  0
  8  7  1  0
  9 10  1  0
 10 11  2  0
 12 11  1  0
 12  4  1  0
 13  2  1  0
 13 14  2  0
 16 15  1  1
 16 17  1  0
 17 13  1  0
 18 16  1  0
 19 18  2  0
 20 18  1  0
 21 22  1  1
 21 20  1  0
 22 23  1  0
 23 31  1  0
 24 25  1  0
 24 23  2  0
 25 26  1  0
 26 31  2  0
 26 27  1  0
 27 28  2  0
 28 29  1  0
 30 29  2  0
 31 30  1  0
 32 34  1  0
 32 21  1  0
 33 32  2  0
M  END
$$$$
