WAW.pdb
     RDKit          3D

 34 37  0  0  1  0  0  0  0  0999 V2000
    9.5626  -15.5789   21.3981 N   0  0  0  0  0  0  0  0  0  0  0  0
    8.4386  -15.4478   22.3114 C   0  0  1  0  0  0  0  0  0  0  0  0
    7.1385  -15.7753   21.6110 C   0  0  0  0  0  0  0  0  0  0  0  0
    7.0465  -15.1842   20.2759 C   0  0  0  0  0  0  0  0  0  0  0  0
    6.4447  -15.7684   19.1781 C   0  0  0  0  0  0  0  0  0  0  0  0
    6.5560  -14.9642   18.1106 N   0  0  0  0  0  0  0  0  0  0  0  0
    7.2373  -13.8451   18.5113 C   0  0  0  0  0  0  0  0  0  0  0  0
    7.6188  -12.7258   17.8168 C   0  0  0  0  0  0  0  0  0  0  0  0
    8.3116  -11.7200   18.4531 C   0  0  0  0  0  0  0  0  0  0  0  0
    8.6276  -11.8252   19.7864 C   0  0  0  0  0  0  0  0  0  0  0  0
    8.2459  -12.9468   20.4905 C   0  0  0  0  0  0  0  0  0  0  0  0
    7.5467  -13.9776   19.8730 C   0  0  0  0  0  0  0  0  0  0  0  0
    8.6638  -16.5382   23.3288 C   0  0  0  0  0  0  0  0  0  0  0  0
    7.7479  -16.8605   24.1381 O   0  0  0  0  0  0  0  0  0  0  0  0
   11.5434  -18.8740   24.1398 C   0  0  0  0  0  0  0  0  0  0  0  0
   10.2588  -18.1304   24.4618 C   0  0  2  0  0  0  0  0  0  0  0  0
    9.8816  -17.2327   23.4194 N   0  0  0  0  0  0  0  0  0  0  0  0
   10.5671  -17.3073   25.6748 C   0  0  0  0  0  0  0  0  0  0  0  0
   11.3915  -16.3605   25.5988 O   0  0  0  0  0  0  0  0  0  0  0  0
    9.9282  -17.5978   26.9078 N   0  0  0  0  0  0  0  0  0  0  0  0
   10.3415  -16.9580   28.1104 C   0  0  1  0  0  0  0  0  0  0  0  0
    9.3205  -16.1206   28.7994 C   0  0  0  0  0  0  0  0  0  0  0  0
    8.2999  -15.6321   27.8116 C   0  0  0  0  0  0  0  0  0  0  0  0
    7.3539  -16.3906   27.1450 C   0  0  0  0  0  0  0  0  0  0  0  0
    6.6231  -15.5894   26.3416 N   0  0  0  0  0  0  0  0  0  0  0  0
    7.0858  -14.3445   26.4848 C   0  0  0  0  0  0  0  0  0  0  0  0
    6.6433  -13.1812   25.8543 C   0  0  0  0  0  0  0  0  0  0  0  0
    7.2780  -12.0116   26.1615 C   0  0  0  0  0  0  0  0  0  0  0  0
    8.3181  -11.9845   27.0625 C   0  0  0  0  0  0  0  0  0  0  0  0
    8.7546  -13.1341   27.6852 C   0  0  0  0  0  0  0  0  0  0  0  0
    8.1354  -14.3296   27.3967 C   0  0  0  0  0  0  0  0  0  0  0  0
   11.0893  -17.8109   29.0643 C   0  0  0  0  0  0  0  0  0  0  0  0
   11.5906  -17.4156   30.1012 O   0  0  0  0  0  0  0  0  0  0  0  0
   11.2055  -19.1691   28.7069 O   0  0  0  0  0  0  0  0  0  0  0  0
  2  1  1  6
  2  3  1  0
  4  3  1  0
  5  4  2  0
  6  5  1  0
  7  6  1  0
  7 12  2  0
  8  9  2  0
  8  7  1  0
  9 10  1  0
 10 11  2  0
 12 11  1  0
 12  4  1  0
 13  2  1  0
 13 14  2  0
 16 15  1  6
 16 17  1  0
 17 13  1  0
 18 16  1  0
 19 18  2  0
 20 18  1  0
 21 22  1  1
 21 20  1  0
 22 23  1  0
 23 31  1  0
 24 25  1  0
 24 23  2  0
 25 26  1  0
 26 31  2  0
 26 27  1  0
 27 28  2  0
 28 29  1  0
 30 29  2  0
 31 30  1  0
 32 34  1  0
 32 21  1  0
 33 32  2  0
M  END
$$$$
