WAW.pdb
     RDKit          3D

 34 37  0  0  1  0  0  0  0  0999 V2000
    7.4216  -19.1112   20.1562 N   0  0  0  0  0  0  0  0  0  0  0  0
    7.5482  -17.9461   21.0171 C   0  0  1  0  0  0  0  0  0  0  0  0
    6.5684  -16.8688   20.6078 C   0  0  0  0  0  0  0  0  0  0  0  0
    7.1951  -15.7892   19.8450 C   0  0  0  0  0  0  0  0  0  0  0  0
    7.4740  -15.8179   18.4922 C   0  0  0  0  0  0  0  0  0  0  0  0
    8.0655  -14.6731   18.1204 N   0  0  0  0  0  0  0  0  0  0  0  0
    8.1767  -13.8887   19.2382 C   0  0  0  0  0  0  0  0  0  0  0  0
    8.7058  -12.6353   19.4101 C   0  0  0  0  0  0  0  0  0  0  0  0
    8.7042  -12.0491   20.6562 C   0  0  0  0  0  0  0  0  0  0  0  0
    8.1742  -12.7103   21.7382 C   0  0  0  0  0  0  0  0  0  0  0  0
    7.6396  -13.9696   21.5719 C   0  0  0  0  0  0  0  0  0  0  0  0
    7.6291  -14.5853   20.3255 C   0  0  0  0  0  0  0  0  0  0  0  0
    7.1016  -18.4400   22.3703 C   0  0  0  0  0  0  0  0  0  0  0  0
    6.2383  -19.3584   22.4659 O   0  0  0  0  0  0  0  0  0  0  0  0
    7.3291  -19.5388   25.3639 C   0  0  0  0  0  0  0  0  0  0  0  0
    7.0897  -18.1218   24.8726 C   0  0  2  0  0  0  0  0  0  0  0  0
    7.6177  -17.9099   23.5646 N   0  0  0  0  0  0  0  0  0  0  0  0
    7.8507  -17.2388   25.8135 C   0  0  0  0  0  0  0  0  0  0  0  0
    7.2318  -16.4667   26.5898 O   0  0  0  0  0  0  0  0  0  0  0  0
    9.2688  -17.2754   25.8270 N   0  0  0  0  0  0  0  0  0  0  0  0
   10.0258  -16.5062   24.8987 C   0  0  1  0  0  0  0  0  0  0  0  0
    9.6078  -15.0882   24.7177 C   0  0  0  0  0  0  0  0  0  0  0  0
    9.2206  -14.4901   26.0399 C   0  0  0  0  0  0  0  0  0  0  0  0
    9.8533  -14.6748   27.2566 C   0  0  0  0  0  0  0  0  0  0  0  0
    9.2048  -13.9725   28.2093 N   0  0  0  0  0  0  0  0  0  0  0  0
    8.1783  -13.3502   27.6232 C   0  0  0  0  0  0  0  0  0  0  0  0
    7.2281  -12.5130   28.2086 C   0  0  0  0  0  0  0  0  0  0  0  0
    6.2607  -11.9876   27.4005 C   0  0  0  0  0  0  0  0  0  0  0  0
    6.2268  -12.2760   26.0551 C   0  0  0  0  0  0  0  0  0  0  0  0
    7.1659  -13.1030   25.4773 C   0  0  0  0  0  0  0  0  0  0  0  0
    8.1543  -13.6488   26.2654 C   0  0  0  0  0  0  0  0  0  0  0  0
   11.4980  -16.6366   25.0102 C   0  0  0  0  0  0  0  0  0  0  0  0
   12.2984  -16.1266   24.2474 O   0  0  0  0  0  0  0  0  0  0  0  0
   11.9615  -17.4156   26.0892 O   0  0  0  0  0  0  0  0  0  0  0  0
  2  1  1  6
  2  3  1  0
  4  3  1  0
  5  4  2  0
  6  5  1  0
  7  6  1  0
  7 12  2  0
  8  9  2  0
  8  7  1  0
  9 10  1  0
 10 11  2  0
 12 11  1  0
 12  4  1  0
 13  2  1  0
 13 14  2  0
 16 15  1  1
 16 17  1  0
 17 13  1  0
 18 16  1  0
 19 18  2  0
 20 18  1  0
 21 22  1  1
 21 20  1  0
 22 23  1  0
 23 31  1  0
 24 25  1  0
 24 23  2  0
 25 26  1  0
 26 31  2  0
 26 27  1  0
 27 28  2  0
 28 29  1  0
 30 29  2  0
 31 30  1  0
 32 34  1  0
 32 21  1  0
 33 32  2  0
M  END
$$$$
