WAW.pdb
     RDKit          3D

 34 37  0  0  1  0  0  0  0  0999 V2000
    7.5150  -20.5670   25.9140 N   0  0  0  0  0  0  0  0  0  0  0  0
    7.7895  -19.1603   25.6683 C   0  0  1  0  0  0  0  0  0  0  0  0
    9.2706  -18.8754   25.7847 C   0  0  0  0  0  0  0  0  0  0  0  0
    9.6717  -18.4908   27.1379 C   0  0  0  0  0  0  0  0  0  0  0  0
    9.8407  -19.3551   28.2022 C   0  0  0  0  0  0  0  0  0  0  0  0
   10.1932  -18.6696   29.2998 N   0  0  0  0  0  0  0  0  0  0  0  0
   10.2542  -17.3456   28.9526 C   0  0  0  0  0  0  0  0  0  0  0  0
   10.5598  -16.2331   29.6938 C   0  0  0  0  0  0  0  0  0  0  0  0
   10.5488  -14.9872   29.1074 C   0  0  0  0  0  0  0  0  0  0  0  0
   10.2330  -14.8441   27.7776 C   0  0  0  0  0  0  0  0  0  0  0  0
    9.9263  -15.9583   27.0267 C   0  0  0  0  0  0  0  0  0  0  0  0
    9.9287  -17.2278   27.5933 C   0  0  0  0  0  0  0  0  0  0  0  0
    7.4281  -18.9643   24.2172 C   0  0  0  0  0  0  0  0  0  0  0  0
    7.7984  -19.8004   23.3446 O   0  0  0  0  0  0  0  0  0  0  0  0
    5.4710  -16.4590   22.1805 C   0  0  0  0  0  0  0  0  0  0  0  0
    6.7074  -17.2915   22.4721 C   0  0  2  0  0  0  0  0  0  0  0  0
    6.6755  -17.8618   23.7791 N   0  0  0  0  0  0  0  0  0  0  0  0
    7.8556  -16.3304   22.4283 C   0  0  0  0  0  0  0  0  0  0  0  0
    8.1667  -15.7721   21.3451 O   0  0  0  0  0  0  0  0  0  0  0  0
    8.5902  -16.0518   23.6096 N   0  0  0  0  0  0  0  0  0  0  0  0
    9.7488  -15.2256   23.5685 C   0  0  1  0  0  0  0  0  0  0  0  0
    9.6762  -13.9458   24.3270 C   0  0  0  0  0  0  0  0  0  0  0  0
    8.2696  -13.6990   24.7921 C   0  0  0  0  0  0  0  0  0  0  0  0
    7.5022  -14.5187   25.6007 C   0  0  0  0  0  0  0  0  0  0  0  0
    6.2921  -13.9525   25.7919 N   0  0  0  0  0  0  0  0  0  0  0  0
    6.2776  -12.7963   25.1230 C   0  0  0  0  0  0  0  0  0  0  0  0
    5.2405  -11.8680   25.0259 C   0  0  0  0  0  0  0  0  0  0  0  0
    5.4591  -10.7477   24.2761 C   0  0  0  0  0  0  0  0  0  0  0  0
    6.6622  -10.5441   23.6393 C   0  0  0  0  0  0  0  0  0  0  0  0
    7.6864  -11.4614   23.7358 C   0  0  0  0  0  0  0  0  0  0  0  0
    7.4973  -12.6015   24.4843 C   0  0  0  0  0  0  0  0  0  0  0  0
   11.0390  -15.9219   23.7852 C   0  0  0  0  0  0  0  0  0  0  0  0
   11.1504  -17.0974   24.0825 O   0  0  0  0  0  0  0  0  0  0  0  0
   12.1939  -15.1300   23.6268 O   0  0  0  0  0  0  0  0  0  0  0  0
  2  1  1  6
  2  3  1  0
  4  3  1  0
  5  4  2  0
  6  5  1  0
  7  6  1  0
  7 12  2  0
  8  9  2  0
  8  7  1  0
  9 10  1  0
 10 11  2  0
 12 11  1  0
 12  4  1  0
 13  2  1  0
 13 14  2  0
 16 15  1  1
 16 17  1  0
 17 13  1  0
 18 16  1  0
 19 18  2  0
 20 18  1  0
 21 22  1  1
 21 20  1  0
 22 23  1  0
 23 31  1  0
 24 25  1  0
 24 23  2  0
 25 26  1  0
 26 31  2  0
 26 27  1  0
 27 28  2  0
 28 29  1  0
 30 29  2  0
 31 30  1  0
 32 34  1  0
 32 21  1  0
 33 32  2  0
M  END
$$$$
