WAW.pdb
     RDKit          3D

 34 37  0  0  1  0  0  0  0  0999 V2000
    9.5922  -15.8118   21.7909 N   0  0  0  0  0  0  0  0  0  0  0  0
    8.3272  -15.8260   22.5079 C   0  0  1  0  0  0  0  0  0  0  0  0
    7.1753  -16.0650   21.5569 C   0  0  0  0  0  0  0  0  0  0  0  0
    7.4113  -15.5071   20.2253 C   0  0  0  0  0  0  0  0  0  0  0  0
    7.3106  -16.2000   19.0344 C   0  0  0  0  0  0  0  0  0  0  0  0
    7.6109  -15.3929   18.0062 N   0  0  0  0  0  0  0  0  0  0  0  0
    7.9121  -14.1620   18.5272 C   0  0  0  0  0  0  0  0  0  0  0  0
    8.2865  -12.9925   17.9168 C   0  0  0  0  0  0  0  0  0  0  0  0
    8.5434  -11.8700   18.6720 C   0  0  0  0  0  0  0  0  0  0  0  0
    8.4280  -11.9079   20.0408 C   0  0  0  0  0  0  0  0  0  0  0  0
    8.0508  -13.0797   20.6604 C   0  0  0  0  0  0  0  0  0  0  0  0
    7.7864  -14.2280   19.9226 C   0  0  0  0  0  0  0  0  0  0  0  0
    8.4178  -17.0481   23.3870 C   0  0  0  0  0  0  0  0  0  0  0  0
    7.3708  -17.5924   23.8400 O   0  0  0  0  0  0  0  0  0  0  0  0
   10.9617  -19.6506   24.1294 C   0  0  0  0  0  0  0  0  0  0  0  0
    9.8368  -18.7449   24.5996 C   0  0  2  0  0  0  0  0  0  0  0  0
    9.6502  -17.6262   23.7346 N   0  0  0  0  0  0  0  0  0  0  0  0
   10.2789  -18.2165   25.9297 C   0  0  0  0  0  0  0  0  0  0  0  0
   10.6436  -19.0126   26.8324 O   0  0  0  0  0  0  0  0  0  0  0  0
   10.2851  -16.8181   26.1688 N   0  0  0  0  0  0  0  0  0  0  0  0
   10.8146  -16.2888   27.3796 C   0  0  1  0  0  0  0  0  0  0  0  0
   10.2443  -14.9923   27.8404 C   0  0  0  0  0  0  0  0  0  0  0  0
    8.7528  -14.9912   27.6639 C   0  0  0  0  0  0  0  0  0  0  0  0
    7.9185  -16.0937   27.6065 C   0  0  0  0  0  0  0  0  0  0  0  0
    6.6442  -15.6822   27.4379 N   0  0  0  0  0  0  0  0  0  0  0  0
    6.6549  -14.3474   27.3867 C   0  0  0  0  0  0  0  0  0  0  0  0
    5.5737  -13.4812   27.2214 C   0  0  0  0  0  0  0  0  0  0  0  0
    5.8319  -12.1404   27.1986 C   0  0  0  0  0  0  0  0  0  0  0  0
    7.1158  -11.6629   27.3342 C   0  0  0  0  0  0  0  0  0  0  0  0
    8.1833  -12.5192   27.4978 C   0  0  0  0  0  0  0  0  0  0  0  0
    7.9561  -13.8770   27.5248 C   0  0  0  0  0  0  0  0  0  0  0  0
   10.9539  -17.2563   28.4936 C   0  0  0  0  0  0  0  0  0  0  0  0
   10.4850  -18.3800   28.4979 O   0  0  0  0  0  0  0  0  0  0  0  0
   11.6878  -16.8025   29.6077 O   0  0  0  0  0  0  0  0  0  0  0  0
  2  1  1  6
  2  3  1  0
  4  3  1  0
  5  4  2  0
  6  5  1  0
  7  6  1  0
  7 12  2  0
  8  9  2  0
  8  7  1  0
  9 10  1  0
 10 11  2  0
 12 11  1  0
 12  4  1  0
 13  2  1  0
 13 14  2  0
 16 15  1  6
 16 17  1  0
 17 13  1  0
 18 16  1  0
 19 18  2  0
 20 18  1  0
 21 22  1  1
 21 20  1  0
 22 23  1  0
 23 31  1  0
 24 25  1  0
 24 23  2  0
 25 26  1  0
 26 31  2  0
 26 27  1  0
 27 28  2  0
 28 29  1  0
 30 29  2  0
 31 30  1  0
 32 34  1  0
 32 21  1  0
 33 32  2  0
M  END
$$$$
