WAW.pdb
     RDKit          3D

 34 37  0  0  1  0  0  0  0  0999 V2000
    6.4989  -18.9199   23.6408 N   0  0  0  0  0  0  0  0  0  0  0  0
    7.1124  -17.8787   22.8321 C   0  0  1  0  0  0  0  0  0  0  0  0
    6.6510  -16.5099   23.2815 C   0  0  0  0  0  0  0  0  0  0  0  0
    6.6235  -15.5327   22.1931 C   0  0  0  0  0  0  0  0  0  0  0  0
    5.7083  -15.5076   21.1586 C   0  0  0  0  0  0  0  0  0  0  0  0
    5.9828  -14.4922   20.3265 N   0  0  0  0  0  0  0  0  0  0  0  0
    7.0873  -13.8478   20.8185 C   0  0  0  0  0  0  0  0  0  0  0  0
    7.7777  -12.7589   20.3512 C   0  0  0  0  0  0  0  0  0  0  0  0
    8.8791  -12.2934   21.0342 C   0  0  0  0  0  0  0  0  0  0  0  0
    9.2981  -12.9118   22.1877 C   0  0  0  0  0  0  0  0  0  0  0  0
    8.6079  -14.0057   22.6635 C   0  0  0  0  0  0  0  0  0  0  0  0
    7.4933  -14.4971   21.9936 C   0  0  0  0  0  0  0  0  0  0  0  0
    8.5795  -17.9687   23.1700 C   0  0  0  0  0  0  0  0  0  0  0  0
    8.9750  -18.6960   24.1252 O   0  0  0  0  0  0  0  0  0  0  0  0
   11.7184  -16.6191   21.5091 C   0  0  0  0  0  0  0  0  0  0  0  0
   10.9640  -17.4723   22.5140 C   0  0  2  0  0  0  0  0  0  0  0  0
    9.5551  -17.2600   22.4491 N   0  0  0  0  0  0  0  0  0  0  0  0
   11.4276  -17.0074   23.8604 C   0  0  0  0  0  0  0  0  0  0  0  0
   12.6497  -17.0523   24.1542 O   0  0  0  0  0  0  0  0  0  0  0  0
   10.4866  -16.5171   24.8021 N   0  0  0  0  0  0  0  0  0  0  0  0
   10.9033  -16.0984   26.0974 C   0  0  1  0  0  0  0  0  0  0  0  0
   10.3044  -14.8343   26.6089 C   0  0  0  0  0  0  0  0  0  0  0  0
    8.8142  -14.9792   26.7286 C   0  0  0  0  0  0  0  0  0  0  0  0
    8.1038  -16.1474   26.9410 C   0  0  0  0  0  0  0  0  0  0  0  0
    6.7844  -15.8667   26.9866 N   0  0  0  0  0  0  0  0  0  0  0  0
    6.6457  -14.5502   26.8072 C   0  0  0  0  0  0  0  0  0  0  0  0
    5.4681  -13.8027   26.7749 C   0  0  0  0  0  0  0  0  0  0  0  0
    5.5760  -12.4562   26.5741 C   0  0  0  0  0  0  0  0  0  0  0  0
    6.8056  -11.8599   26.4097 C   0  0  0  0  0  0  0  0  0  0  0  0
    7.9685  -12.5989   26.4420 C   0  0  0  0  0  0  0  0  0  0  0  0
    7.8935  -13.9591   26.6424 C   0  0  0  0  0  0  0  0  0  0  0  0
   10.9262  -17.1565   27.1349 C   0  0  0  0  0  0  0  0  0  0  0  0
   11.3059  -16.9952   28.2805 O   0  0  0  0  0  0  0  0  0  0  0  0
   10.4687  -18.4244   26.7237 O   0  0  0  0  0  0  0  0  0  0  0  0
  2  1  1  1
  2  3  1  0
  4  3  1  0
  5  4  2  0
  6  5  1  0
  7  6  1  0
  7 12  2  0
  8  9  2  0
  8  7  1  0
  9 10  1  0
 10 11  2  0
 12 11  1  0
 12  4  1  0
 13  2  1  0
 13 14  2  0
 16 15  1  6
 16 17  1  0
 17 13  1  0
 18 16  1  0
 19 18  2  0
 20 18  1  0
 21 22  1  1
 21 20  1  0
 22 23  1  0
 23 31  1  0
 24 25  1  0
 24 23  2  0
 25 26  1  0
 26 31  2  0
 26 27  1  0
 27 28  2  0
 28 29  1  0
 30 29  2  0
 31 30  1  0
 32 34  1  0
 32 21  1  0
 33 32  2  0
M  END
$$$$
