WAW.pdb
     RDKit          3D

 34 37  0  0  1  0  0  0  0  0999 V2000
    8.1902  -21.6941   25.2980 N   0  0  0  0  0  0  0  0  0  0  0  0
    8.1928  -20.2784   25.6306 C   0  0  1  0  0  0  0  0  0  0  0  0
    9.5128  -19.8765   26.2506 C   0  0  0  0  0  0  0  0  0  0  0  0
    9.3518  -19.1291   27.4979 C   0  0  0  0  0  0  0  0  0  0  0  0
    8.4563  -19.4307   28.5056 C   0  0  0  0  0  0  0  0  0  0  0  0
    8.5589  -18.5322   29.4959 N   0  0  0  0  0  0  0  0  0  0  0  0
    9.5281  -17.6339   29.1340 C   0  0  0  0  0  0  0  0  0  0  0  0
   10.0162  -16.5266   29.7791 C   0  0  0  0  0  0  0  0  0  0  0  0
   11.0073  -15.7682   29.1971 C   0  0  0  0  0  0  0  0  0  0  0  0
   11.5174  -16.1105   27.9678 C   0  0  0  0  0  0  0  0  0  0  0  0
   11.0323  -17.2230   27.3148 C   0  0  0  0  0  0  0  0  0  0  0  0
   10.0314  -18.0058   27.8787 C   0  0  0  0  0  0  0  0  0  0  0  0
    8.1198  -19.5873   24.2921 C   0  0  0  0  0  0  0  0  0  0  0  0
    8.9009  -19.9183   23.3551 O   0  0  0  0  0  0  0  0  0  0  0  0
    5.7626  -17.1126   22.6828 C   0  0  0  0  0  0  0  0  0  0  0  0
    7.1126  -17.7915   22.8348 C   0  0  2  0  0  0  0  0  0  0  0  0
    7.1949  -18.5623   24.0322 N   0  0  0  0  0  0  0  0  0  0  0  0
    8.1091  -16.6786   22.9466 C   0  0  0  0  0  0  0  0  0  0  0  0
    8.3328  -15.9340   21.9581 O   0  0  0  0  0  0  0  0  0  0  0  0
    8.7989  -16.4669   24.1681 N   0  0  0  0  0  0  0  0  0  0  0  0
    9.7847  -15.4459   24.2800 C   0  0  1  0  0  0  0  0  0  0  0  0
    9.5060  -14.3617   25.2624 C   0  0  0  0  0  0  0  0  0  0  0  0
    8.0339  -14.0670   25.3040 C   0  0  0  0  0  0  0  0  0  0  0  0
    7.0112  -14.9605   25.5698 C   0  0  0  0  0  0  0  0  0  0  0  0
    5.8272  -14.3153   25.5127 N   0  0  0  0  0  0  0  0  0  0  0  0
    6.0783  -13.0371   25.2165 C   0  0  0  0  0  0  0  0  0  0  0  0
    5.1666  -11.9939   25.0516 C   0  0  0  0  0  0  0  0  0  0  0  0
    5.6631  -10.7589   24.7465 C   0  0  0  0  0  0  0  0  0  0  0  0
    7.0169  -10.5533   24.6071 C   0  0  0  0  0  0  0  0  0  0  0  0
    7.9170  -11.5842   24.7704 C   0  0  0  0  0  0  0  0  0  0  0  0
    7.4480  -12.8416   25.0783 C   0  0  0  0  0  0  0  0  0  0  0  0
   11.1873  -15.9174   24.3631 C   0  0  0  0  0  0  0  0  0  0  0  0
   11.5212  -17.0842   24.4623 O   0  0  0  0  0  0  0  0  0  0  0  0
   12.1728  -14.9110   24.3219 O   0  0  0  0  0  0  0  0  0  0  0  0
  2  1  1  6
  2  3  1  0
  4  3  1  0
  5  4  2  0
  6  5  1  0
  7  6  1  0
  7 12  2  0
  8  9  2  0
  8  7  1  0
  9 10  1  0
 10 11  2  0
 12 11  1  0
 12  4  1  0
 13  2  1  0
 13 14  2  0
 16 15  1  1
 16 17  1  0
 17 13  1  0
 18 16  1  0
 19 18  2  0
 20 18  1  0
 21 22  1  1
 21 20  1  0
 22 23  1  0
 23 31  1  0
 24 25  1  0
 24 23  2  0
 25 26  1  0
 26 31  2  0
 26 27  1  0
 27 28  2  0
 28 29  1  0
 30 29  2  0
 31 30  1  0
 32 34  1  0
 32 21  1  0
 33 32  2  0
M  END
$$$$
