WAW.pdb
     RDKit          3D

 34 37  0  0  1  0  0  0  0  0999 V2000
    7.1436  -18.9401   25.8876 N   0  0  0  0  0  0  0  0  0  0  0  0
    7.1851  -17.9226   24.8495 C   0  0  1  0  0  0  0  0  0  0  0  0
    8.0263  -16.7443   25.2879 C   0  0  0  0  0  0  0  0  0  0  0  0
    7.2574  -15.7360   26.0176 C   0  0  0  0  0  0  0  0  0  0  0  0
    6.2112  -15.9936   26.8822 C   0  0  0  0  0  0  0  0  0  0  0  0
    5.7191  -14.8428   27.3641 N   0  0  0  0  0  0  0  0  0  0  0  0
    6.4473  -13.8230   26.8099 C   0  0  0  0  0  0  0  0  0  0  0  0
    6.3536  -12.4633   26.9616 C   0  0  0  0  0  0  0  0  0  0  0  0
    7.2140  -11.6309   26.2811 C   0  0  0  0  0  0  0  0  0  0  0  0
    8.1732  -12.1504   25.4453 C   0  0  0  0  0  0  0  0  0  0  0  0
    8.2736  -13.5161   25.2895 C   0  0  0  0  0  0  0  0  0  0  0  0
    7.4174  -14.3795   25.9634 C   0  0  0  0  0  0  0  0  0  0  0  0
    7.9309  -18.5840   23.7176 C   0  0  0  0  0  0  0  0  0  0  0  0
    8.7921  -19.4790   23.9523 O   0  0  0  0  0  0  0  0  0  0  0  0
    7.4704  -18.7463   19.9946 C   0  0  0  0  0  0  0  0  0  0  0  0
    8.3354  -18.8312   21.2401 C   0  0  2  0  0  0  0  0  0  0  0  0
    7.7040  -18.2403   22.3744 N   0  0  0  0  0  0  0  0  0  0  0  0
    9.5580  -18.0219   20.9332 C   0  0  0  0  0  0  0  0  0  0  0  0
    9.9276  -17.8694   19.7407 O   0  0  0  0  0  0  0  0  0  0  0  0
   10.2972  -17.4289   21.9890 N   0  0  0  0  0  0  0  0  0  0  0  0
   11.4485  -16.6371   21.7166 C   0  0  1  0  0  0  0  0  0  0  0  0
   11.2579  -15.4900   20.7859 C   0  0  0  0  0  0  0  0  0  0  0  0
    9.8916  -14.8946   20.9716 C   0  0  0  0  0  0  0  0  0  0  0  0
    9.0009  -15.1538   21.9983 C   0  0  0  0  0  0  0  0  0  0  0  0
    7.8794  -14.4263   21.8121 N   0  0  0  0  0  0  0  0  0  0  0  0
    8.0411  -13.7154   20.6928 C   0  0  0  0  0  0  0  0  0  0  0  0
    7.1475  -12.8224   20.1006 C   0  0  0  0  0  0  0  0  0  0  0  0
    7.5363  -12.2075   18.9449 C   0  0  0  0  0  0  0  0  0  0  0  0
    8.7680  -12.4620   18.3858 C   0  0  0  0  0  0  0  0  0  0  0  0
    9.6504  -13.3442   18.9714 C   0  0  0  0  0  0  0  0  0  0  0  0
    9.2880  -13.9806   20.1374 C   0  0  0  0  0  0  0  0  0  0  0  0
   12.2588  -16.2589   22.8984 C   0  0  0  0  0  0  0  0  0  0  0  0
   11.8979  -16.3837   24.0546 O   0  0  0  0  0  0  0  0  0  0  0  0
   13.5304  -15.7195   22.6191 O   0  0  0  0  0  0  0  0  0  0  0  0
  2  1  1  1
  2  3  1  0
  4  3  1  0
  5  4  2  0
  6  5  1  0
  7  6  1  0
  7 12  2  0
  8  9  2  0
  8  7  1  0
  9 10  1  0
 10 11  2  0
 12 11  1  0
 12  4  1  0
 13  2  1  0
 13 14  2  0
 16 15  1  6
 16 17  1  0
 17 13  1  0
 18 16  1  0
 19 18  2  0
 20 18  1  0
 21 22  1  1
 21 20  1  0
 22 23  1  0
 23 31  1  0
 24 25  1  0
 24 23  2  0
 25 26  1  0
 26 31  2  0
 26 27  1  0
 27 28  2  0
 28 29  1  0
 30 29  2  0
 31 30  1  0
 32 34  1  0
 32 21  1  0
 33 32  2  0
M  END
$$$$
