GMY.pdb
     RDKit          3D

 25 25  0  0  1  0  0  0  0  0999 V2000
   29.0266  -22.7991  -16.9335 N   0  0  0  0  0  0  0  0  0  0  0  0
   28.2145  -21.6038  -16.8115 C   0  0  0  0  0  0  0  0  0  0  0  0
   27.3150  -21.7496  -15.6315 C   0  0  0  0  0  0  0  0  0  0  0  0
   26.5714  -22.7764  -15.5292 O   0  0  0  0  0  0  0  0  0  0  0  0
   25.0449  -20.9798   -8.4617 C   0  0  0  0  0  0  0  0  0  0  0  0
   26.2511  -21.1367   -9.8371 S   0  0  0  0  0  0  0  0  0  0  0  0
   25.8259  -20.0091  -11.1610 C   0  0  0  0  0  0  0  0  0  0  0  0
   26.7112  -20.0520  -12.3565 C   0  0  0  0  0  0  0  0  0  0  0  0
   26.2950  -20.9510  -13.4649 C   0  0  2  0  0  0  0  0  0  0  0  0
   27.2423  -20.7841  -14.5954 N   0  0  0  0  0  0  0  0  0  0  0  0
   24.9102  -20.8003  -13.9607 C   0  0  0  0  0  0  0  0  0  0  0  0
   24.6170  -19.7550  -14.6263 O   0  0  0  0  0  0  0  0  0  0  0  0
   16.2950  -22.6858  -15.6354 O   0  0  0  0  0  0  0  0  0  0  0  0
   17.6427  -22.7484  -15.2716 C   0  0  0  0  0  0  0  0  0  0  0  0
   18.6312  -22.6717  -16.2332 C   0  0  0  0  0  0  0  0  0  0  0  0
   19.9644  -22.7333  -15.8770 C   0  0  0  0  0  0  0  0  0  0  0  0
   20.3616  -22.8741  -14.5469 C   0  0  0  0  0  0  0  0  0  0  0  0
   21.7862  -22.9407  -14.1734 C   0  0  0  0  0  0  0  0  0  0  0  0
   22.4910  -21.6513  -14.0266 C   0  0  2  0  0  0  0  0  0  0  0  0
   23.8916  -21.7514  -13.7481 N   0  0  0  0  0  0  0  0  0  0  0  0
   21.7493  -20.6007  -13.3045 C   0  0  0  0  0  0  0  0  0  0  0  0
   20.9777  -19.6456  -13.9861 O   0  0  0  0  0  0  0  0  0  0  0  0
   19.3652  -22.9498  -13.5929 C   0  0  0  0  0  0  0  0  0  0  0  0
   18.0337  -22.8872  -13.9585 C   0  0  0  0  0  0  0  0  0  0  0  0
   21.7574  -20.4877  -12.0596 O   0  0  0  0  0  0  0  0  0  0  0  0
  2  1  1  0
  3  2  1  0
  4  3  2  0
  5  6  1  0
  6  7  1  0
  7  8  1  0
  9  8  1  1
  9 11  1  0
  9 10  1  0
 10  3  1  0
 11 20  1  0
 12 11  2  0
 14 24  2  0
 14 13  1  0
 15 14  1  0
 16 17  1  0
 16 15  2  0
 17 23  2  0
 18 17  1  0
 19 18  1  1
 20 19  1  0
 21 22  1  0
 21 19  1  0
 23 24  1  0
 25 21  2  0
M  END
$$$$
