GMY.pdb
     RDKit          3D

 25 25  0  0  1  0  0  0  0  0999 V2000
   25.1567  -20.3944  -20.0342 N   0  0  0  0  0  0  0  0  0  0  0  0
   26.0724  -19.2732  -20.1207 C   0  0  0  0  0  0  0  0  0  0  0  0
   25.5498  -18.1570  -19.2818 C   0  0  0  0  0  0  0  0  0  0  0  0
   24.3220  -17.8336  -19.3574 O   0  0  0  0  0  0  0  0  0  0  0  0
   24.2300  -13.1831  -14.2228 C   0  0  0  0  0  0  0  0  0  0  0  0
   24.5820  -14.7516  -15.1101 S   0  0  0  0  0  0  0  0  0  0  0  0
   26.2852  -14.7789  -15.6608 C   0  0  0  0  0  0  0  0  0  0  0  0
   26.6751  -15.9447  -16.4998 C   0  0  0  0  0  0  0  0  0  0  0  0
   25.8468  -16.2076  -17.7058 C   0  0  2  0  0  0  0  0  0  0  0  0
   26.3656  -17.4210  -18.3854 N   0  0  0  0  0  0  0  0  0  0  0  0
   25.7321  -15.1081  -18.6878 C   0  0  0  0  0  0  0  0  0  0  0  0
   26.6684  -14.9567  -19.5376 O   0  0  0  0  0  0  0  0  0  0  0  0
   22.9067   -9.3147  -24.6686 O   0  0  0  0  0  0  0  0  0  0  0  0
   23.2258  -10.3478  -23.7835 C   0  0  0  0  0  0  0  0  0  0  0  0
   22.2905  -10.8053  -22.8759 C   0  0  0  0  0  0  0  0  0  0  0  0
   22.6027  -11.8263  -21.9994 C   0  0  0  0  0  0  0  0  0  0  0  0
   23.8608  -12.4295  -21.9955 C   0  0  0  0  0  0  0  0  0  0  0  0
   24.1882  -13.5178  -21.0564 C   0  0  0  0  0  0  0  0  0  0  0  0
   24.4108  -13.1303  -19.6489 C   0  0  2  0  0  0  0  0  0  0  0  0
   24.6405  -14.2181  -18.7470 N   0  0  0  0  0  0  0  0  0  0  0  0
   23.5640  -12.0299  -19.1515 C   0  0  0  0  0  0  0  0  0  0  0  0
   23.8852  -10.6857  -19.4000 O   0  0  0  0  0  0  0  0  0  0  0  0
   24.7890  -11.9647  -22.9072 C   0  0  0  0  0  0  0  0  0  0  0  0
   24.4679  -10.9426  -23.7805 C   0  0  0  0  0  0  0  0  0  0  0  0
   22.5226  -12.2134  -18.4848 O   0  0  0  0  0  0  0  0  0  0  0  0
  2  1  1  0
  3  2  1  0
  4  3  2  0
  5  6  1  0
  6  7  1  0
  7  8  1  0
  9  8  1  1
  9 11  1  0
  9 10  1  0
 10  3  1  0
 11 20  1  0
 12 11  2  0
 14 24  2  0
 14 13  1  0
 15 14  1  0
 16 17  1  0
 16 15  2  0
 17 23  2  0
 18 17  1  0
 19 18  1  6
 20 19  1  0
 21 22  1  0
 21 19  1  0
 23 24  1  0
 25 21  2  0
M  END
$$$$
