GMY.pdb
     RDKit          3D

 25 25  0  0  1  0  0  0  0  0999 V2000
   27.5578  -22.1117  -16.7361 N   0  0  0  0  0  0  0  0  0  0  0  0
   26.9908  -20.9602  -16.0611 C   0  0  0  0  0  0  0  0  0  0  0  0
   26.3133  -21.4169  -14.8140 C   0  0  0  0  0  0  0  0  0  0  0  0
   25.7607  -22.5620  -14.7803 O   0  0  0  0  0  0  0  0  0  0  0  0
   25.5039  -20.6914   -6.9466 C   0  0  0  0  0  0  0  0  0  0  0  0
   26.2777  -20.0580   -8.4866 S   0  0  0  0  0  0  0  0  0  0  0  0
   25.5513  -20.8570   -9.9145 C   0  0  0  0  0  0  0  0  0  0  0  0
   26.1555  -20.5067  -11.2288 C   0  0  0  0  0  0  0  0  0  0  0  0
   25.5281  -21.1082  -12.4348 C   0  0  2  0  0  0  0  0  0  0  0  0
   26.2504  -20.6261  -13.6386 N   0  0  0  0  0  0  0  0  0  0  0  0
   24.0773  -20.8851  -12.6126 C   0  0  0  0  0  0  0  0  0  0  0  0
   23.6869  -19.7433  -13.0198 O   0  0  0  0  0  0  0  0  0  0  0  0
   15.2625  -22.5909  -11.8454 O   0  0  0  0  0  0  0  0  0  0  0  0
   16.6580  -22.6367  -11.7885 C   0  0  0  0  0  0  0  0  0  0  0  0
   17.3755  -23.3172  -12.7528 C   0  0  0  0  0  0  0  0  0  0  0  0
   18.7551  -23.3645  -12.6994 C   0  0  0  0  0  0  0  0  0  0  0  0
   19.4708  -22.7342  -11.6811 C   0  0  0  0  0  0  0  0  0  0  0  0
   20.9432  -22.7897  -11.6290 C   0  0  0  0  0  0  0  0  0  0  0  0
   21.6698  -21.7358  -12.3656 C   0  0  2  0  0  0  0  0  0  0  0  0
   23.0954  -21.8660  -12.3660 N   0  0  0  0  0  0  0  0  0  0  0  0
   21.1331  -20.3704  -12.2149 C   0  0  0  0  0  0  0  0  0  0  0  0
   21.3887  -19.6030  -11.0670 O   0  0  0  0  0  0  0  0  0  0  0  0
   18.7438  -22.0562  -10.7217 C   0  0  0  0  0  0  0  0  0  0  0  0
   17.3636  -22.0141  -10.7830 C   0  0  0  0  0  0  0  0  0  0  0  0
   20.4249  -19.8123  -13.0808 O   0  0  0  0  0  0  0  0  0  0  0  0
  2  1  1  0
  3  2  1  0
  4  3  2  0
  5  6  1  0
  6  7  1  0
  7  8  1  0
  9  8  1  1
  9 11  1  0
  9 10  1  0
 10  3  1  0
 11 20  1  0
 12 11  2  0
 14 24  2  0
 14 13  1  0
 15 14  1  0
 16 17  1  0
 16 15  2  0
 17 23  2  0
 18 17  1  0
 19 18  1  1
 20 19  1  0
 21 22  1  0
 21 19  1  0
 23 24  1  0
 25 21  2  0
M  END
$$$$
