GMY.pdb
     RDKit          3D

 25 25  0  0  1  0  0  0  0  0999 V2000
   12.7334  -11.8880    5.0753 N   0  0  0  0  0  0  0  0  0  0  0  0
   13.9330  -12.0007    5.8823 C   0  0  0  0  0  0  0  0  0  0  0  0
   14.7078  -13.1921    5.4317 C   0  0  0  0  0  0  0  0  0  0  0  0
   14.2419  -14.3587    5.6307 O   0  0  0  0  0  0  0  0  0  0  0  0
   21.1705  -15.9448    1.6147 C   0  0  0  0  0  0  0  0  0  0  0  0
   20.0177  -14.5433    1.8947 S   0  0  0  0  0  0  0  0  0  0  0  0
   18.7331  -15.0230    3.0455 C   0  0  0  0  0  0  0  0  0  0  0  0
   17.8074  -13.9379    3.4706 C   0  0  0  0  0  0  0  0  0  0  0  0
   16.7435  -14.3083    4.4406 C   0  0  2  0  0  0  0  0  0  0  0  0
   15.9631  -13.0920    4.7797 N   0  0  0  0  0  0  0  0  0  0  0  0
   17.1805  -14.9726    5.6872 C   0  0  0  0  0  0  0  0  0  0  0  0
   17.6782  -14.2533    6.6128 O   0  0  0  0  0  0  0  0  0  0  0  0
   13.9010  -22.5017    6.7949 O   0  0  0  0  0  0  0  0  0  0  0  0
   14.5238  -21.2840    7.0811 C   0  0  0  0  0  0  0  0  0  0  0  0
   15.6960  -21.2521    7.8111 C   0  0  0  0  0  0  0  0  0  0  0  0
   16.3142  -20.0501    8.0958 C   0  0  0  0  0  0  0  0  0  0  0  0
   15.7854  -18.8338    7.6626 C   0  0  0  0  0  0  0  0  0  0  0  0
   16.4493  -17.5540    7.9711 C   0  0  0  0  0  0  0  0  0  0  0  0
   17.5157  -17.1235    7.0445 C   0  0  2  0  0  0  0  0  0  0  0  0
   17.0717  -16.3589    5.9186 N   0  0  0  0  0  0  0  0  0  0  0  0
   18.5748  -18.1177    6.7891 C   0  0  0  0  0  0  0  0  0  0  0  0
   18.9156  -18.5094    5.4844 O   0  0  0  0  0  0  0  0  0  0  0  0
   14.6130  -18.8765    6.9332 C   0  0  0  0  0  0  0  0  0  0  0  0
   14.0013  -20.0839    6.6530 C   0  0  0  0  0  0  0  0  0  0  0  0
   19.2289  -18.6720    7.6988 O   0  0  0  0  0  0  0  0  0  0  0  0
  2  1  1  0
  3  2  1  0
  4  3  2  0
  5  6  1  0
  6  7  1  0
  7  8  1  0
  9  8  1  6
  9 11  1  0
  9 10  1  0
 10  3  1  0
 11 20  1  0
 12 11  2  0
 14 24  2  0
 14 13  1  0
 15 14  1  0
 16 17  1  0
 16 15  2  0
 17 23  2  0
 18 17  1  0
 19 18  1  6
 20 19  1  0
 21 22  1  0
 21 19  1  0
 23 24  1  0
 25 21  2  0
M  END
$$$$
