GMY.pdb
     RDKit          3D

 25 25  0  0  1  0  0  0  0  0999 V2000
   28.9719  -21.8753  -16.1294 N   0  0  0  0  0  0  0  0  0  0  0  0
   27.7854  -22.7086  -16.1608 C   0  0  0  0  0  0  0  0  0  0  0  0
   26.5798  -21.8355  -16.0768 C   0  0  0  0  0  0  0  0  0  0  0  0
   26.7180  -20.5715  -16.0496 O   0  0  0  0  0  0  0  0  0  0  0  0
   21.3741  -17.7270  -17.2321 C   0  0  0  0  0  0  0  0  0  0  0  0
   22.6449  -18.9547  -16.7330 S   0  0  0  0  0  0  0  0  0  0  0  0
   22.2901  -20.5448  -17.4752 C   0  0  0  0  0  0  0  0  0  0  0  0
   23.2329  -21.6439  -17.1312 C   0  0  0  0  0  0  0  0  0  0  0  0
   24.0909  -21.4390  -15.9347 C   0  0  2  0  0  0  0  0  0  0  0  0
   25.2594  -22.3499  -16.0243 N   0  0  0  0  0  0  0  0  0  0  0  0
   23.4438  -21.6016  -14.6152 C   0  0  0  0  0  0  0  0  0  0  0  0
   23.2062  -22.7818  -14.1999 O   0  0  0  0  0  0  0  0  0  0  0  0
   28.4047  -21.5016   -9.9115 O   0  0  0  0  0  0  0  0  0  0  0  0
   27.1315  -21.0661  -10.2881 C   0  0  0  0  0  0  0  0  0  0  0  0
   26.8181  -20.8909  -11.6219 C   0  0  0  0  0  0  0  0  0  0  0  0
   25.5604  -20.4604  -11.9976 C   0  0  0  0  0  0  0  0  0  0  0  0
   24.5676  -20.1882  -11.0558 C   0  0  0  0  0  0  0  0  0  0  0  0
   23.2277  -19.7276  -11.4633 C   0  0  0  0  0  0  0  0  0  0  0  0
   22.5213  -20.5541  -12.4627 C   0  0  2  0  0  0  0  0  0  0  0  0
   23.0797  -20.5254  -13.7806 N   0  0  0  0  0  0  0  0  0  0  0  0
   21.0494  -20.5424  -12.3707 C   0  0  0  0  0  0  0  0  0  0  0  0
   20.3758  -21.1409  -11.2937 O   0  0  0  0  0  0  0  0  0  0  0  0
   24.8911  -20.3667   -9.7246 C   0  0  0  0  0  0  0  0  0  0  0  0
   26.1521  -20.7978   -9.3579 C   0  0  0  0  0  0  0  0  0  0  0  0
   20.3127  -20.0110  -13.2296 O   0  0  0  0  0  0  0  0  0  0  0  0
  2  1  1  0
  3  2  1  0
  4  3  2  0
  5  6  1  0
  6  7  1  0
  7  8  1  0
  9  8  1  6
  9 11  1  0
  9 10  1  0
 10  3  1  0
 11 20  1  0
 12 11  2  0
 14 24  2  0
 14 13  1  0
 15 14  1  0
 16 17  1  0
 16 15  2  0
 17 23  2  0
 18 17  1  0
 19 18  1  1
 20 19  1  0
 21 22  1  0
 21 19  1  0
 23 24  1  0
 25 21  2  0
M  END
$$$$
