GMY.pdb
     RDKit          3D

 25 25  0  0  1  0  0  0  0  0999 V2000
   28.3453  -22.3009  -16.4403 N   0  0  0  0  0  0  0  0  0  0  0  0
   27.9965  -21.1312  -15.6573 C   0  0  0  0  0  0  0  0  0  0  0  0
   27.1037  -21.5477  -14.5383 C   0  0  0  0  0  0  0  0  0  0  0  0
   26.3188  -22.5365  -14.6932 O   0  0  0  0  0  0  0  0  0  0  0  0
   26.6138  -19.5036   -7.4759 C   0  0  0  0  0  0  0  0  0  0  0  0
   25.2990  -19.7841   -8.7265 S   0  0  0  0  0  0  0  0  0  0  0  0
   25.7167  -21.1886   -9.7549 C   0  0  0  0  0  0  0  0  0  0  0  0
   26.5983  -20.8988  -10.9185 C   0  0  0  0  0  0  0  0  0  0  0  0
   26.0566  -21.2215  -12.2647 C   0  0  2  0  0  0  0  0  0  0  0  0
   27.0821  -20.8863  -13.2842 N   0  0  0  0  0  0  0  0  0  0  0  0
   24.7729  -20.5885  -12.6355 C   0  0  0  0  0  0  0  0  0  0  0  0
   24.7604  -19.3356  -12.8635 O   0  0  0  0  0  0  0  0  0  0  0  0
   24.4900  -17.4880  -18.0571 O   0  0  0  0  0  0  0  0  0  0  0  0
   23.8177  -18.3055  -17.1446 C   0  0  0  0  0  0  0  0  0  0  0  0
   22.6648  -17.8629  -16.5260 C   0  0  0  0  0  0  0  0  0  0  0  0
   21.9979  -18.6683  -15.6235 C   0  0  0  0  0  0  0  0  0  0  0  0
   22.4568  -19.9467  -15.3041 C   0  0  0  0  0  0  0  0  0  0  0  0
   21.7412  -20.8009  -14.3388 C   0  0  0  0  0  0  0  0  0  0  0  0
   22.2336  -20.7793  -12.9466 C   0  0  2  0  0  0  0  0  0  0  0  0
   23.5575  -21.2915  -12.7612 N   0  0  0  0  0  0  0  0  0  0  0  0
   21.2400  -21.1335  -11.9159 C   0  0  0  0  0  0  0  0  0  0  0  0
   19.9382  -20.6073  -11.9387 O   0  0  0  0  0  0  0  0  0  0  0  0
   23.6106  -20.3799  -15.9283 C   0  0  0  0  0  0  0  0  0  0  0  0
   24.2714  -19.5671  -16.8301 C   0  0  0  0  0  0  0  0  0  0  0  0
   21.4831  -21.9102  -10.9670 O   0  0  0  0  0  0  0  0  0  0  0  0
  2  1  1  0
  3  2  1  0
  4  3  2  0
  5  6  1  0
  6  7  1  0
  7  8  1  0
  9  8  1  1
  9 11  1  0
  9 10  1  0
 10  3  1  0
 11 20  1  0
 12 11  2  0
 14 24  2  0
 14 13  1  0
 15 14  1  0
 16 17  1  0
 16 15  2  0
 17 23  2  0
 18 17  1  0
 19 18  1  6
 20 19  1  0
 21 22  1  0
 21 19  1  0
 23 24  1  0
 25 21  2  0
M  END
$$$$
