GMY.pdb
     RDKit          3D

 25 25  0  0  1  0  0  0  0  0999 V2000
   28.8527  -24.9003  -20.2561 N   0  0  0  0  0  0  0  0  0  0  0  0
   28.9496  -25.3924  -18.8954 C   0  0  0  0  0  0  0  0  0  0  0  0
   28.0562  -26.5765  -18.7454 C   0  0  0  0  0  0  0  0  0  0  0  0
   27.3180  -26.9358  -19.7168 O   0  0  0  0  0  0  0  0  0  0  0  0
   31.1829  -30.2714  -17.5670 C   0  0  0  0  0  0  0  0  0  0  0  0
   29.5819  -30.4603  -18.4460 S   0  0  0  0  0  0  0  0  0  0  0  0
   28.2638  -30.7492  -17.2696 C   0  0  0  0  0  0  0  0  0  0  0  0
   27.7270  -29.5391  -16.5896 C   0  0  0  0  0  0  0  0  0  0  0  0
   27.0836  -28.5158  -17.4548 C   0  0  2  0  0  0  0  0  0  0  0  0
   27.9839  -27.3396  -17.5524 N   0  0  0  0  0  0  0  0  0  0  0  0
   25.7313  -28.0655  -17.0614 C   0  0  0  0  0  0  0  0  0  0  0  0
   25.6267  -27.2299  -16.1061 O   0  0  0  0  0  0  0  0  0  0  0  0
   25.3945  -22.2697  -19.1528 O   0  0  0  0  0  0  0  0  0  0  0  0
   24.7073  -23.4711  -18.9604 C   0  0  0  0  0  0  0  0  0  0  0  0
   24.9248  -24.5442  -19.8024 C   0  0  0  0  0  0  0  0  0  0  0  0
   24.2472  -25.7332  -19.6151 C   0  0  0  0  0  0  0  0  0  0  0  0
   23.3263  -25.8963  -18.5797 C   0  0  0  0  0  0  0  0  0  0  0  0
   22.6051  -27.1675  -18.3859 C   0  0  0  0  0  0  0  0  0  0  0  0
   23.1917  -28.1185  -17.4202 C   0  0  2  0  0  0  0  0  0  0  0  0
   24.5454  -28.5001  -17.6874 N   0  0  0  0  0  0  0  0  0  0  0  0
   22.2876  -29.1843  -16.9493 C   0  0  0  0  0  0  0  0  0  0  0  0
   20.9934  -28.8982  -16.4857 O   0  0  0  0  0  0  0  0  0  0  0  0
   23.1160  -24.8172  -17.7430 C   0  0  0  0  0  0  0  0  0  0  0  0
   23.7986  -23.6312  -17.9381 C   0  0  0  0  0  0  0  0  0  0  0  0
   22.6050  -30.3932  -16.9281 O   0  0  0  0  0  0  0  0  0  0  0  0
  2  1  1  0
  3  2  1  0
  4  3  2  0
  5  6  1  0
  6  7  1  0
  7  8  1  0
  9  8  1  1
  9 11  1  0
  9 10  1  0
 10  3  1  0
 11 20  1  0
 12 11  2  0
 14 24  2  0
 14 13  1  0
 15 14  1  0
 16 17  1  0
 16 15  2  0
 17 23  2  0
 18 17  1  0
 19 18  1  6
 20 19  1  0
 21 22  1  0
 21 19  1  0
 23 24  1  0
 25 21  2  0
M  END
$$$$
