GMY.pdb
     RDKit          3D

 25 25  0  0  1  0  0  0  0  0999 V2000
   32.4508  -22.8730  -10.1207 N   0  0  0  0  0  0  0  0  0  0  0  0
   31.6694  -21.6991  -10.4589 C   0  0  0  0  0  0  0  0  0  0  0  0
   30.4432  -21.6745   -9.6112 C   0  0  0  0  0  0  0  0  0  0  0  0
   29.6754  -22.6882   -9.5844 O   0  0  0  0  0  0  0  0  0  0  0  0
   27.9664  -19.9117   -3.3431 C   0  0  0  0  0  0  0  0  0  0  0  0
   27.3612  -20.5491   -4.9552 S   0  0  0  0  0  0  0  0  0  0  0  0
   27.5932  -19.3155   -6.2315 C   0  0  0  0  0  0  0  0  0  0  0  0
   28.8126  -19.4737   -7.0699 C   0  0  0  0  0  0  0  0  0  0  0  0
   28.7582  -20.5019   -8.1421 C   0  0  2  0  0  0  0  0  0  0  0  0
   30.0794  -20.5578   -8.8165 N   0  0  0  0  0  0  0  0  0  0  0  0
   27.6960  -20.3484   -9.1591 C   0  0  0  0  0  0  0  0  0  0  0  0
   27.9087  -19.5672  -10.1421 O   0  0  0  0  0  0  0  0  0  0  0  0
   20.8849  -22.9909  -14.3266 O   0  0  0  0  0  0  0  0  0  0  0  0
   21.9133  -22.8699  -13.3882 C   0  0  0  0  0  0  0  0  0  0  0  0
   21.6309  -22.5211  -12.0819 C   0  0  0  0  0  0  0  0  0  0  0  0
   22.6451  -22.4005  -11.1518 C   0  0  0  0  0  0  0  0  0  0  0  0
   23.9801  -22.6234  -11.4906 C   0  0  0  0  0  0  0  0  0  0  0  0
   25.0581  -22.4916  -10.4935 C   0  0  0  0  0  0  0  0  0  0  0  0
   25.4430  -21.1168  -10.1156 C   0  0  2  0  0  0  0  0  0  0  0  0
   26.4593  -21.0235   -9.1117 N   0  0  0  0  0  0  0  0  0  0  0  0
   24.3335  -20.1497  -10.0216 C   0  0  0  0  0  0  0  0  0  0  0  0
   23.8835  -19.4364  -11.1444 O   0  0  0  0  0  0  0  0  0  0  0  0
   24.2518  -22.9719  -12.7996 C   0  0  0  0  0  0  0  0  0  0  0  0
   23.2307  -23.0903  -13.7235 C   0  0  0  0  0  0  0  0  0  0  0  0
   23.7293  -19.9005   -8.9560 O   0  0  0  0  0  0  0  0  0  0  0  0
  2  1  1  0
  3  2  1  0
  4  3  2  0
  5  6  1  0
  6  7  1  0
  7  8  1  0
  9  8  1  1
  9 11  1  0
  9 10  1  0
 10  3  1  0
 11 20  1  0
 12 11  2  0
 14 24  2  0
 14 13  1  0
 15 14  1  0
 16 17  1  0
 16 15  2  0
 17 23  2  0
 18 17  1  0
 19 18  1  1
 20 19  1  0
 21 22  1  0
 21 19  1  0
 23 24  1  0
 25 21  2  0
M  END
$$$$
