GMY.pdb
     RDKit          3D

 25 25  0  0  1  0  0  0  0  0999 V2000
   28.2074  -21.8736  -15.3744 N   0  0  0  0  0  0  0  0  0  0  0  0
   28.0685  -20.8208  -14.3867 C   0  0  0  0  0  0  0  0  0  0  0  0
   27.1881  -21.3051  -13.2853 C   0  0  0  0  0  0  0  0  0  0  0  0
   26.2155  -22.0806  -13.5509 O   0  0  0  0  0  0  0  0  0  0  0  0
   28.4040  -20.6920   -6.8621 C   0  0  0  0  0  0  0  0  0  0  0  0
   26.5727  -20.5642   -6.8224 S   0  0  0  0  0  0  0  0  0  0  0  0
   25.8941  -20.9387   -8.4362 C   0  0  0  0  0  0  0  0  0  0  0  0
   26.8463  -20.8441   -9.5760 C   0  0  0  0  0  0  0  0  0  0  0  0
   26.2995  -21.1259  -10.9293 C   0  0  2  0  0  0  0  0  0  0  0  0
   27.3810  -20.9396  -11.9288 N   0  0  0  0  0  0  0  0  0  0  0  0
   25.1117  -20.3487  -11.3431 C   0  0  0  0  0  0  0  0  0  0  0  0
   25.2876  -19.1723  -11.7980 O   0  0  0  0  0  0  0  0  0  0  0  0
   18.5980  -19.1759  -16.9718 O   0  0  0  0  0  0  0  0  0  0  0  0
   19.6684  -19.4902  -16.1303 C   0  0  0  0  0  0  0  0  0  0  0  0
   20.6180  -18.5364  -15.8202 C   0  0  0  0  0  0  0  0  0  0  0  0
   21.6774  -18.8438  -14.9887 C   0  0  0  0  0  0  0  0  0  0  0  0
   21.8292  -20.1155  -14.4353 C   0  0  0  0  0  0  0  0  0  0  0  0
   22.9630  -20.4377  -13.5497 C   0  0  0  0  0  0  0  0  0  0  0  0
   22.6684  -20.5240  -12.1051 C   0  0  2  0  0  0  0  0  0  0  0  0
   23.7906  -20.8354  -11.2726 N   0  0  0  0  0  0  0  0  0  0  0  0
   21.3894  -21.1697  -11.7553 C   0  0  0  0  0  0  0  0  0  0  0  0
   21.2446  -22.5665  -11.7652 O   0  0  0  0  0  0  0  0  0  0  0  0
   20.8740  -21.0622  -14.7516 C   0  0  0  0  0  0  0  0  0  0  0  0
   19.8173  -20.7457  -15.5844 C   0  0  0  0  0  0  0  0  0  0  0  0
   20.3640  -20.5311  -11.4338 O   0  0  0  0  0  0  0  0  0  0  0  0
  2  1  1  0
  3  2  1  0
  4  3  2  0
  5  6  1  0
  6  7  1  0
  7  8  1  0
  9  8  1  1
  9 11  1  0
  9 10  1  0
 10  3  1  0
 11 20  1  0
 12 11  2  0
 14 24  2  0
 14 13  1  0
 15 14  1  0
 16 17  1  0
 16 15  2  0
 17 23  2  0
 18 17  1  0
 19 18  1  6
 20 19  1  0
 21 22  1  0
 21 19  1  0
 23 24  1  0
 25 21  2  0
M  END
$$$$
