GMY.pdb
     RDKit          3D

 25 25  0  0  1  0  0  0  0  0999 V2000
   22.5689  -12.3742  -19.0761 N   0  0  0  0  0  0  0  0  0  0  0  0
   22.5453  -10.9486  -19.3412 C   0  0  0  0  0  0  0  0  0  0  0  0
   22.4058  -10.2194  -18.0484 C   0  0  0  0  0  0  0  0  0  0  0  0
   21.2505   -9.8831  -17.6362 O   0  0  0  0  0  0  0  0  0  0  0  0
   21.2189   -9.1294  -11.6978 C   0  0  0  0  0  0  0  0  0  0  0  0
   21.9313   -8.8801  -13.3717 S   0  0  0  0  0  0  0  0  0  0  0  0
   23.3943   -9.8916  -13.5753 C   0  0  0  0  0  0  0  0  0  0  0  0
   24.0809   -9.7784  -14.8909 C   0  0  0  0  0  0  0  0  0  0  0  0
   23.3296   -9.1030  -15.9814 C   0  0  2  0  0  0  0  0  0  0  0  0
   23.5157   -9.8731  -17.2366 N   0  0  0  0  0  0  0  0  0  0  0  0
   23.6486   -7.6805  -16.2283 C   0  0  0  0  0  0  0  0  0  0  0  0
   24.7001   -7.4031  -16.8911 O   0  0  0  0  0  0  0  0  0  0  0  0
   19.5160   -5.5133  -21.5024 O   0  0  0  0  0  0  0  0  0  0  0  0
   20.4767   -5.3573  -20.4998 C   0  0  0  0  0  0  0  0  0  0  0  0
   20.2820   -4.4465  -19.4798 C   0  0  0  0  0  0  0  0  0  0  0  0
   21.2297   -4.2897  -18.4871 C   0  0  0  0  0  0  0  0  0  0  0  0
   22.4083   -5.0364  -18.4751 C   0  0  0  0  0  0  0  0  0  0  0  0
   23.4166   -4.8632  -17.4135 C   0  0  0  0  0  0  0  0  0  0  0  0
   22.9951   -5.2068  -16.0405 C   0  0  2  0  0  0  0  0  0  0  0  0
   22.8520   -6.6072  -15.7802 N   0  0  0  0  0  0  0  0  0  0  0  0
   21.9771   -4.3193  -15.4477 C   0  0  0  0  0  0  0  0  0  0  0  0
   20.8423   -4.8330  -14.7994 O   0  0  0  0  0  0  0  0  0  0  0  0
   22.5934   -5.9446  -19.4995 C   0  0  0  0  0  0  0  0  0  0  0  0
   21.6397   -6.0948  -20.4886 C   0  0  0  0  0  0  0  0  0  0  0  0
   22.0508   -3.0719  -15.4824 O   0  0  0  0  0  0  0  0  0  0  0  0
  2  1  1  0
  3  2  1  0
  4  3  2  0
  5  6  1  0
  6  7  1  0
  7  8  1  0
  9  8  1  1
  9 11  1  0
  9 10  1  0
 10  3  1  0
 11 20  1  0
 12 11  2  0
 14 24  2  0
 14 13  1  0
 15 14  1  0
 16 17  1  0
 16 15  2  0
 17 23  2  0
 18 17  1  0
 19 18  1  6
 20 19  1  0
 21 22  1  0
 21 19  1  0
 23 24  1  0
 25 21  2  0
M  END
$$$$
