GMY.pdb
     RDKit          3D

 25 25  0  0  1  0  0  0  0  0999 V2000
   30.0025  -22.1649  -11.7535 N   0  0  0  0  0  0  0  0  0  0  0  0
   29.8671  -20.9981  -10.9029 C   0  0  0  0  0  0  0  0  0  0  0  0
   28.6699  -21.1720  -10.0316 C   0  0  0  0  0  0  0  0  0  0  0  0
   27.8090  -22.0645  -10.3146 O   0  0  0  0  0  0  0  0  0  0  0  0
   27.3290  -19.0852   -3.7700 C   0  0  0  0  0  0  0  0  0  0  0  0
   28.8412  -19.9331   -4.3748 S   0  0  0  0  0  0  0  0  0  0  0  0
   28.5845  -20.5365   -6.0406 C   0  0  0  0  0  0  0  0  0  0  0  0
   27.3789  -20.0137   -6.7393 C   0  0  0  0  0  0  0  0  0  0  0  0
   27.1567  -20.4834   -8.1320 C   0  0  2  0  0  0  0  0  0  0  0  0
   28.4345  -20.3787   -8.8801 N   0  0  0  0  0  0  0  0  0  0  0  0
   26.0848  -19.8127   -8.8984 C   0  0  0  0  0  0  0  0  0  0  0  0
   26.3038  -18.6402   -9.3446 O   0  0  0  0  0  0  0  0  0  0  0  0
   22.1312  -20.5148  -16.5803 O   0  0  0  0  0  0  0  0  0  0  0  0
   22.8159  -20.5279  -15.3622 C   0  0  0  0  0  0  0  0  0  0  0  0
   23.0974  -21.7237  -14.7307 C   0  0  0  0  0  0  0  0  0  0  0  0
   23.7739  -21.7403  -13.5265 C   0  0  0  0  0  0  0  0  0  0  0  0
   24.1952  -20.5634  -12.9067 C   0  0  0  0  0  0  0  0  0  0  0  0
   24.9156  -20.5878  -11.6206 C   0  0  0  0  0  0  0  0  0  0  0  0
   24.0974  -20.4202  -10.4026 C   0  0  2  0  0  0  0  0  0  0  0  0
   24.8321  -20.3976   -9.1741 N   0  0  0  0  0  0  0  0  0  0  0  0
   22.8177  -21.1532  -10.3912 C   0  0  0  0  0  0  0  0  0  0  0  0
   22.7599  -22.5262  -10.1024 O   0  0  0  0  0  0  0  0  0  0  0  0
   23.9088  -19.3728  -13.5464 C   0  0  0  0  0  0  0  0  0  0  0  0
   23.2314  -19.3658  -14.7512 C   0  0  0  0  0  0  0  0  0  0  0  0
   21.7164  -20.6144  -10.6355 O   0  0  0  0  0  0  0  0  0  0  0  0
  2  1  1  0
  3  2  1  0
  4  3  2  0
  5  6  1  0
  6  7  1  0
  7  8  1  0
  9  8  1  1
  9 11  1  0
  9 10  1  0
 10  3  1  0
 11 20  1  0
 12 11  2  0
 14 24  2  0
 14 13  1  0
 15 14  1  0
 16 17  1  0
 16 15  2  0
 17 23  2  0
 18 17  1  0
 19 18  1  6
 20 19  1  0
 21 22  1  0
 21 19  1  0
 23 24  1  0
 25 21  2  0
M  END
$$$$
