GMY.pdb
     RDKit          3D

 25 25  0  0  1  0  0  0  0  0999 V2000
   25.8454  -19.2145  -18.6540 N   0  0  0  0  0  0  0  0  0  0  0  0
   24.4837  -19.2398  -19.1524 C   0  0  0  0  0  0  0  0  0  0  0  0
   23.5499  -18.9828  -18.0189 C   0  0  0  0  0  0  0  0  0  0  0  0
   24.0128  -18.6210  -16.8909 O   0  0  0  0  0  0  0  0  0  0  0  0
   19.8475  -15.0300  -16.2605 C   0  0  0  0  0  0  0  0  0  0  0  0
   18.4205  -16.1472  -16.5550 S   0  0  0  0  0  0  0  0  0  0  0  0
   18.9555  -17.8551  -16.5089 C   0  0  0  0  0  0  0  0  0  0  0  0
   19.9841  -18.2379  -17.5141 C   0  0  0  0  0  0  0  0  0  0  0  0
   21.2516  -18.8103  -16.9891 C   0  0  2  0  0  0  0  0  0  0  0  0
   22.1435  -19.1232  -18.1337 N   0  0  0  0  0  0  0  0  0  0  0  0
   21.1354  -20.0007  -16.1198 C   0  0  0  0  0  0  0  0  0  0  0  0
   20.9121  -21.1290  -16.6666 O   0  0  0  0  0  0  0  0  0  0  0  0
   26.8188  -22.8981  -16.3703 O   0  0  0  0  0  0  0  0  0  0  0  0
   25.7443  -22.5184  -15.5616 C   0  0  0  0  0  0  0  0  0  0  0  0
   24.8195  -23.4546  -15.1419 C   0  0  0  0  0  0  0  0  0  0  0  0
   23.7560  -23.0826  -14.3427 C   0  0  0  0  0  0  0  0  0  0  0  0
   23.5753  -21.7615  -13.9319 C   0  0  0  0  0  0  0  0  0  0  0  0
   22.4373  -21.3707  -13.0800 C   0  0  0  0  0  0  0  0  0  0  0  0
   21.1768  -21.0385  -13.7741 C   0  0  2  0  0  0  0  0  0  0  0  0
   21.2656  -19.9647  -14.7166 N   0  0  0  0  0  0  0  0  0  0  0  0
   19.9613  -21.0839  -12.9399 C   0  0  0  0  0  0  0  0  0  0  0  0
   19.5935  -22.2444  -12.2400 O   0  0  0  0  0  0  0  0  0  0  0  0
   24.5058  -20.8330  -14.3570 C   0  0  0  0  0  0  0  0  0  0  0  0
   25.5668  -21.2142  -15.1566 C   0  0  0  0  0  0  0  0  0  0  0  0
   19.1873  -20.1120  -12.8021 O   0  0  0  0  0  0  0  0  0  0  0  0
  2  1  1  0
  3  2  1  0
  4  3  2  0
  5  6  1  0
  6  7  1  0
  7  8  1  0
  9  8  1  6
  9 11  1  0
  9 10  1  0
 10  3  1  0
 11 20  1  0
 12 11  2  0
 14 24  2  0
 14 13  1  0
 15 14  1  0
 16 17  1  0
 16 15  2  0
 17 23  2  0
 18 17  1  0
 19 18  1  1
 20 19  1  0
 21 22  1  0
 21 19  1  0
 23 24  1  0
 25 21  2  0
M  END
$$$$
