FWM.pdb
     RDKit          3D

 34 36  0  0  1  0  0  0  0  0999 V2000
    9.4138  -17.9154   19.9746 N   0  0  0  0  0  0  0  0  0  0  0  0
    9.3057  -16.4924   20.1279 C   0  0  1  0  0  0  0  0  0  0  0  0
    7.9963  -16.0515   19.4774 C   0  0  0  0  0  0  0  0  0  0  0  0
    7.9214  -14.5756   19.6556 C   0  0  0  0  0  0  0  0  0  0  0  0
    8.6880  -13.7162   18.8995 C   0  0  0  0  0  0  0  0  0  0  0  0
    8.6129  -12.3356   19.0738 C   0  0  0  0  0  0  0  0  0  0  0  0
    7.7718  -11.7730   20.0070 C   0  0  0  0  0  0  0  0  0  0  0  0
    7.0005  -12.6340   20.7681 C   0  0  0  0  0  0  0  0  0  0  0  0
    7.0839  -13.9973   20.5857 C   0  0  0  0  0  0  0  0  0  0  0  0
    9.3696  -16.0511   21.5581 C   0  0  0  0  0  0  0  0  0  0  0  0
    9.7762  -14.8983   21.8531 O   0  0  0  0  0  0  0  0  0  0  0  0
    8.9588  -16.9733   22.5477 N   0  0  0  0  0  0  0  0  0  0  0  0
    8.9664  -16.7272   23.9783 C   0  0  1  0  0  0  0  0  0  0  0  0
    7.7074  -17.1249   24.6495 C   0  0  0  0  0  0  0  0  0  0  0  0
    6.9071  -16.0138   25.1602 C   0  0  0  0  0  0  0  0  0  0  0  0
    5.5815  -16.0689   25.5944 C   0  0  0  0  0  0  0  0  0  0  0  0
    5.1633  -14.8651   25.9626 N   0  0  0  0  0  0  0  0  0  0  0  0
    6.1785  -14.0009   25.7865 C   0  0  0  0  0  0  0  0  0  0  0  0
    6.1896  -12.6517   26.0538 C   0  0  0  0  0  0  0  0  0  0  0  0
    7.3700  -11.9409   25.8098 C   0  0  0  0  0  0  0  0  0  0  0  0
    8.4680  -12.6023   25.3179 C   0  0  0  0  0  0  0  0  0  0  0  0
    8.4225  -13.9549   25.0611 C   0  0  0  0  0  0  0  0  0  0  0  0
    7.2694  -14.6769   25.2930 C   0  0  0  0  0  0  0  0  0  0  0  0
   10.2183  -17.1425   24.6159 C   0  0  0  0  0  0  0  0  0  0  0  0
   11.0484  -17.9307   24.0924 O   0  0  0  0  0  0  0  0  0  0  0  0
   11.6262  -14.6407   30.5403 C   0  0  0  0  0  0  0  0  0  0  0  0
   10.9551  -14.0582   28.9597 S   0  0  0  0  0  0  0  0  0  0  0  0
   11.8513  -14.7818   27.5593 C   0  0  0  0  0  0  0  0  0  0  0  0
   12.0393  -16.2425   27.8150 C   0  0  0  0  0  0  0  0  0  0  0  0
   11.7964  -17.0663   26.5984 C   0  0  2  0  0  0  0  0  0  0  0  0
   10.5807  -16.6588   25.9117 N   0  0  0  0  0  0  0  0  0  0  0  0
   11.7779  -18.5164   26.8102 C   0  0  0  0  0  0  0  0  0  0  0  0
   12.8167  -19.2455   26.7045 O   0  0  0  0  0  0  0  0  0  0  0  0
   10.6127  -19.1678   27.1428 O   0  0  0  0  0  0  0  0  0  0  0  0
  2  1  1  1
  3  2  1  0
  4  3  1  0
  4  5  2  0
  6  5  1  0
  7  6  2  0
  8  9  2  0
  8  7  1  0
  9  4  1  0
 10 11  2  0
 10  2  1  0
 12 10  1  0
 13 12  1  0
 13 14  1  1
 15 23  1  0
 15 14  1  0
 16 15  2  0
 17 16  1  0
 17 18  1  0
 18 23  2  0
 19 18  1  0
 19 20  2  0
 20 21  1  0
 21 22  2  0
 23 22  1  0
 24 25  2  0
 24 13  1  0
 26 27  1  0
 28 27  1  0
 28 29  1  0
 30 29  1  1
 30 31  1  0
 31 24  1  0
 32 30  1  0
 33 32  2  0
 34 32  1  0
M  END
$$$$
