FWM.pdb
     RDKit          3D

 34 36  0  0  1  0  0  0  0  0999 V2000
    7.7000  -21.8781   21.6007 N   0  0  0  0  0  0  0  0  0  0  0  0
    8.1059  -21.2822   22.8418 C   0  0  1  0  0  0  0  0  0  0  0  0
    9.2936  -22.0800   23.3756 C   0  0  0  0  0  0  0  0  0  0  0  0
    8.7353  -23.3602   23.8902 C   0  0  0  0  0  0  0  0  0  0  0  0
    7.9076  -23.3975   24.9909 C   0  0  0  0  0  0  0  0  0  0  0  0
    7.3904  -24.6007   25.4671 C   0  0  0  0  0  0  0  0  0  0  0  0
    7.6842  -25.8006   24.8598 C   0  0  0  0  0  0  0  0  0  0  0  0
    8.5156  -25.7662   23.7540 C   0  0  0  0  0  0  0  0  0  0  0  0
    9.0202  -24.5697   23.2928 C   0  0  0  0  0  0  0  0  0  0  0  0
    8.4508  -19.8305   22.7091 C   0  0  0  0  0  0  0  0  0  0  0  0
    9.1407  -19.4241   21.7393 O   0  0  0  0  0  0  0  0  0  0  0  0
    7.9742  -18.9495   23.7066 N   0  0  0  0  0  0  0  0  0  0  0  0
    8.2493  -17.5255   23.7691 C   0  0  1  0  0  0  0  0  0  0  0  0
    7.0260  -16.6933   23.8383 C   0  0  0  0  0  0  0  0  0  0  0  0
    7.2615  -15.2517   23.7916 C   0  0  0  0  0  0  0  0  0  0  0  0
    7.8228  -14.5303   22.7365 C   0  0  0  0  0  0  0  0  0  0  0  0
    7.9147  -13.2447   23.0503 N   0  0  0  0  0  0  0  0  0  0  0  0
    7.4268  -13.0847   24.2932 C   0  0  0  0  0  0  0  0  0  0  0  0
    7.3164  -11.9151   25.0086 C   0  0  0  0  0  0  0  0  0  0  0  0
    6.7576  -11.9762   26.2901 C   0  0  0  0  0  0  0  0  0  0  0  0
    6.3407  -13.1855   26.7887 C   0  0  0  0  0  0  0  0  0  0  0  0
    6.4660  -14.3384   26.0452 C   0  0  0  0  0  0  0  0  0  0  0  0
    7.0149  -14.3032   24.7794 C   0  0  0  0  0  0  0  0  0  0  0  0
    9.3277  -17.1995   24.7057 C   0  0  0  0  0  0  0  0  0  0  0  0
    9.3389  -17.5452   25.9159 O   0  0  0  0  0  0  0  0  0  0  0  0
    9.6943  -12.7874   27.8817 C   0  0  0  0  0  0  0  0  0  0  0  0
   10.2768  -14.3360   28.6238 S   0  0  0  0  0  0  0  0  0  0  0  0
   10.4690  -15.6327   27.3712 C   0  0  0  0  0  0  0  0  0  0  0  0
   11.1113  -15.0366   26.1602 C   0  0  0  0  0  0  0  0  0  0  0  0
   11.5475  -16.0720   25.1827 C   0  0  2  0  0  0  0  0  0  0  0  0
   10.4672  -16.4460   24.2835 N   0  0  0  0  0  0  0  0  0  0  0  0
   12.1427  -17.2788   25.7635 C   0  0  0  0  0  0  0  0  0  0  0  0
   11.4988  -18.3677   25.9095 O   0  0  0  0  0  0  0  0  0  0  0  0
   13.4530  -17.2897   26.1829 O   0  0  0  0  0  0  0  0  0  0  0  0
  2  1  1  6
  3  2  1  0
  4  3  1  0
  4  5  2  0
  6  5  1  0
  7  6  2  0
  8  9  2  0
  8  7  1  0
  9  4  1  0
 10 11  2  0
 10  2  1  0
 12 10  1  0
 13 12  1  0
 13 14  1  1
 15 23  1  0
 15 14  1  0
 16 15  2  0
 17 16  1  0
 17 18  1  0
 18 23  2  0
 19 18  1  0
 19 20  2  0
 20 21  1  0
 21 22  2  0
 23 22  1  0
 24 25  2  0
 24 13  1  0
 26 27  1  0
 28 27  1  0
 28 29  1  0
 30 29  1  1
 30 31  1  0
 31 24  1  0
 32 30  1  0
 33 32  2  0
 34 32  1  0
M  END
$$$$
