FWM.pdb
     RDKit          3D

 34 36  0  0  1  0  0  0  0  0999 V2000
    8.1537  -16.4263   18.8193 N   0  0  0  0  0  0  0  0  0  0  0  0
    9.1295  -15.4244   19.1421 C   0  0  1  0  0  0  0  0  0  0  0  0
    8.7614  -14.1528   18.3808 C   0  0  0  0  0  0  0  0  0  0  0  0
    8.7843  -14.5130   16.9367 C   0  0  0  0  0  0  0  0  0  0  0  0
    7.6408  -14.4946   16.1686 C   0  0  0  0  0  0  0  0  0  0  0  0
    7.6708  -14.8349   14.8176 C   0  0  0  0  0  0  0  0  0  0  0  0
    8.8416  -15.2034   14.1944 C   0  0  0  0  0  0  0  0  0  0  0  0
    9.9919  -15.2229   14.9636 C   0  0  0  0  0  0  0  0  0  0  0  0
    9.9488  -14.8839   16.2986 C   0  0  0  0  0  0  0  0  0  0  0  0
    9.2313  -15.1586   20.6129 C   0  0  0  0  0  0  0  0  0  0  0  0
    9.4818  -14.0015   21.0369 O   0  0  0  0  0  0  0  0  0  0  0  0
    9.0363  -16.2491   21.4912 N   0  0  0  0  0  0  0  0  0  0  0  0
    8.9359  -16.1545   22.9363 C   0  0  1  0  0  0  0  0  0  0  0  0
    7.6219  -16.5896   23.4636 C   0  0  0  0  0  0  0  0  0  0  0  0
    7.0965  -15.7698   24.5534 C   0  0  0  0  0  0  0  0  0  0  0  0
    6.2961  -16.2011   25.6127 C   0  0  0  0  0  0  0  0  0  0  0  0
    5.9789  -15.1816   26.3998 N   0  0  0  0  0  0  0  0  0  0  0  0
    6.5489  -14.0735   25.8941 C   0  0  0  0  0  0  0  0  0  0  0  0
    6.4932  -12.7949   26.3981 C   0  0  0  0  0  0  0  0  0  0  0  0
    7.1809  -11.7861   25.7145 C   0  0  0  0  0  0  0  0  0  0  0  0
    7.8823  -12.0981   24.5762 C   0  0  0  0  0  0  0  0  0  0  0  0
    7.9172  -13.3897   24.0985 C   0  0  0  0  0  0  0  0  0  0  0  0
    7.2460  -14.4012   24.7551 C   0  0  0  0  0  0  0  0  0  0  0  0
   10.1272  -16.6648   23.6195 C   0  0  0  0  0  0  0  0  0  0  0  0
   10.7509  -17.7007   23.2700 O   0  0  0  0  0  0  0  0  0  0  0  0
    9.7038  -13.4228   29.5387 C   0  0  0  0  0  0  0  0  0  0  0  0
   11.1827  -13.9539   28.6337 S   0  0  0  0  0  0  0  0  0  0  0  0
   10.8272  -15.3832   27.5762 C   0  0  0  0  0  0  0  0  0  0  0  0
   12.0358  -15.6774   26.7474 C   0  0  0  0  0  0  0  0  0  0  0  0
   11.7253  -16.5540   25.5842 C   0  0  2  0  0  0  0  0  0  0  0  0
   10.6675  -15.9916   24.7594 N   0  0  0  0  0  0  0  0  0  0  0  0
   11.4059  -17.9468   25.9098 C   0  0  0  0  0  0  0  0  0  0  0  0
   10.2125  -18.3853   25.9825 O   0  0  0  0  0  0  0  0  0  0  0  0
   12.4031  -18.8628   26.1535 O   0  0  0  0  0  0  0  0  0  0  0  0
  2  1  1  1
  3  2  1  0
  4  3  1  0
  4  5  2  0
  6  5  1  0
  7  6  2  0
  8  9  2  0
  8  7  1  0
  9  4  1  0
 10 11  2  0
 10  2  1  0
 12 10  1  0
 13 12  1  0
 13 14  1  1
 15 23  1  0
 15 14  1  0
 16 15  2  0
 17 16  1  0
 17 18  1  0
 18 23  2  0
 19 18  1  0
 19 20  2  0
 20 21  1  0
 21 22  2  0
 23 22  1  0
 24 25  2  0
 24 13  1  0
 26 27  1  0
 28 27  1  0
 28 29  1  0
 30 29  1  1
 30 31  1  0
 31 24  1  0
 32 30  1  0
 33 32  2  0
 34 32  1  0
M  END
$$$$
