FWM.pdb
     RDKit          3D

 34 36  0  0  1  0  0  0  0  0999 V2000
    8.0924  -18.5573   20.4097 N   0  0  0  0  0  0  0  0  0  0  0  0
    8.3722  -17.1532   20.3077 C   0  0  1  0  0  0  0  0  0  0  0  0
    7.0993  -16.4577   19.8301 C   0  0  0  0  0  0  0  0  0  0  0  0
    7.4453  -15.0178   19.6795 C   0  0  0  0  0  0  0  0  0  0  0  0
    8.1717  -14.5575   18.6032 C   0  0  0  0  0  0  0  0  0  0  0  0
    8.4927  -13.2079   18.4707 C   0  0  0  0  0  0  0  0  0  0  0  0
    8.0990  -12.2794   19.4076 C   0  0  0  0  0  0  0  0  0  0  0  0
    7.3692  -12.7391   20.4899 C   0  0  0  0  0  0  0  0  0  0  0  0
    7.0580  -14.0762   20.6091 C   0  0  0  0  0  0  0  0  0  0  0  0
    8.8585  -16.5581   21.5935 C   0  0  0  0  0  0  0  0  0  0  0  0
   10.0074  -16.0523   21.6689 O   0  0  0  0  0  0  0  0  0  0  0  0
    7.9829  -16.5892   22.7029 N   0  0  0  0  0  0  0  0  0  0  0  0
    8.2480  -15.9890   23.9978 C   0  0  1  0  0  0  0  0  0  0  0  0
    7.2360  -14.9841   24.3977 C   0  0  0  0  0  0  0  0  0  0  0  0
    7.5224  -14.2910   25.6521 C   0  0  0  0  0  0  0  0  0  0  0  0
    8.3839  -14.7168   26.6645 C   0  0  0  0  0  0  0  0  0  0  0  0
    8.3773  -13.8549   27.6727 N   0  0  0  0  0  0  0  0  0  0  0  0
    7.5308  -12.8575   27.3609 C   0  0  0  0  0  0  0  0  0  0  0  0
    7.2294  -11.7454   28.1120 C   0  0  0  0  0  0  0  0  0  0  0  0
    6.3261  -10.8171   27.5824 C   0  0  0  0  0  0  0  0  0  0  0  0
    5.7751  -11.0403   26.3449 C   0  0  0  0  0  0  0  0  0  0  0  0
    6.0990  -12.1654   25.6189 C   0  0  0  0  0  0  0  0  0  0  0  0
    6.9866  -13.0954   26.1208 C   0  0  0  0  0  0  0  0  0  0  0  0
    8.6390  -16.9755   25.0078 C   0  0  0  0  0  0  0  0  0  0  0  0
    8.9985  -16.6821   26.1778 O   0  0  0  0  0  0  0  0  0  0  0  0
    6.7460  -23.2803   25.6031 C   0  0  0  0  0  0  0  0  0  0  0  0
    5.8780  -21.8609   24.8820 S   0  0  0  0  0  0  0  0  0  0  0  0
    6.7472  -20.3099   25.2378 C   0  0  0  0  0  0  0  0  0  0  0  0
    8.1795  -20.6207   25.5316 C   0  0  0  0  0  0  0  0  0  0  0  0
    9.0064  -19.3913   25.6826 C   0  0  2  0  0  0  0  0  0  0  0  0
    8.6332  -18.3744   24.7120 N   0  0  0  0  0  0  0  0  0  0  0  0
   10.4570  -19.5967   25.6452 C   0  0  0  0  0  0  0  0  0  0  0  0
   11.0687  -20.3683   26.4528 O   0  0  0  0  0  0  0  0  0  0  0  0
   11.2387  -18.9533   24.7137 O   0  0  0  0  0  0  0  0  0  0  0  0
  2  1  1  1
  3  2  1  0
  4  3  1  0
  4  5  2  0
  6  5  1  0
  7  6  2  0
  8  9  2  0
  8  7  1  0
  9  4  1  0
 10 11  2  0
 10  2  1  0
 12 10  1  0
 13 12  1  0
 13 14  1  1
 15 23  1  0
 15 14  1  0
 16 15  2  0
 17 16  1  0
 17 18  1  0
 18 23  2  0
 19 18  1  0
 19 20  2  0
 20 21  1  0
 21 22  2  0
 23 22  1  0
 24 25  2  0
 24 13  1  0
 26 27  1  0
 28 27  1  0
 28 29  1  0
 30 29  1  6
 30 31  1  0
 31 24  1  0
 32 30  1  0
 33 32  2  0
 34 32  1  0
M  END
$$$$
