FWM.pdb
     RDKit          3D

 34 36  0  0  1  0  0  0  0  0999 V2000
    8.0101  -20.5101   19.2187 N   0  0  0  0  0  0  0  0  0  0  0  0
    8.1288  -20.4697   20.6486 C   0  0  1  0  0  0  0  0  0  0  0  0
    9.1644  -21.5139   21.0601 C   0  0  0  0  0  0  0  0  0  0  0  0
    8.4302  -22.8038   21.1730 C   0  0  0  0  0  0  0  0  0  0  0  0
    9.0595  -23.9612   21.5762 C   0  0  0  0  0  0  0  0  0  0  0  0
    8.3649  -25.1650   21.6777 C   0  0  0  0  0  0  0  0  0  0  0  0
    7.0236  -25.2490   21.3798 C   0  0  0  0  0  0  0  0  0  0  0  0
    6.3889  -24.0879   20.9744 C   0  0  0  0  0  0  0  0  0  0  0  0
    7.0870  -22.9038   20.8784 C   0  0  0  0  0  0  0  0  0  0  0  0
    8.4985  -19.1139   21.1674 C   0  0  0  0  0  0  0  0  0  0  0  0
    9.2980  -18.3822   20.5295 O   0  0  0  0  0  0  0  0  0  0  0  0
    7.9183  -18.6982   22.3877 N   0  0  0  0  0  0  0  0  0  0  0  0
    8.1823  -17.4364   23.0551 C   0  0  1  0  0  0  0  0  0  0  0  0
    6.9603  -16.6387   23.3081 C   0  0  0  0  0  0  0  0  0  0  0  0
    7.1892  -15.2067   23.4890 C   0  0  0  0  0  0  0  0  0  0  0  0
    7.9201  -14.3645   22.6492 C   0  0  0  0  0  0  0  0  0  0  0  0
    7.9460  -13.1312   23.1370 N   0  0  0  0  0  0  0  0  0  0  0  0
    7.2479  -13.1244   24.2864 C   0  0  0  0  0  0  0  0  0  0  0  0
    7.0057  -12.0546   25.1162 C   0  0  0  0  0  0  0  0  0  0  0  0
    6.2327  -12.2709   26.2624 C   0  0  0  0  0  0  0  0  0  0  0  0
    5.7448  -13.5278   26.5213 C   0  0  0  0  0  0  0  0  0  0  0  0
    6.0065  -14.5777   25.6687 C   0  0  0  0  0  0  0  0  0  0  0  0
    6.7670  -14.3889   24.5326 C   0  0  0  0  0  0  0  0  0  0  0  0
    9.1280  -17.5724   24.1658 C   0  0  0  0  0  0  0  0  0  0  0  0
    8.8363  -18.0741   25.2827 O   0  0  0  0  0  0  0  0  0  0  0  0
   10.3633  -12.5912   28.9550 C   0  0  0  0  0  0  0  0  0  0  0  0
    9.6292  -13.6165   27.6518 S   0  0  0  0  0  0  0  0  0  0  0  0
   10.8920  -14.6021   26.8024 C   0  0  0  0  0  0  0  0  0  0  0  0
   10.2416  -15.3527   25.6853 C   0  0  0  0  0  0  0  0  0  0  0  0
   11.1583  -16.3470   25.0617 C   0  0  2  0  0  0  0  0  0  0  0  0
   10.4815  -17.1291   24.0391 N   0  0  0  0  0  0  0  0  0  0  0  0
   11.8438  -17.2464   25.9940 C   0  0  0  0  0  0  0  0  0  0  0  0
   12.7154  -16.8440   26.8308 O   0  0  0  0  0  0  0  0  0  0  0  0
   11.5678  -18.5942   26.0086 O   0  0  0  0  0  0  0  0  0  0  0  0
  2  1  1  6
  3  2  1  0
  4  3  1  0
  4  5  2  0
  6  5  1  0
  7  6  2  0
  8  9  2  0
  8  7  1  0
  9  4  1  0
 10 11  2  0
 10  2  1  0
 12 10  1  0
 13 12  1  0
 13 14  1  1
 15 23  1  0
 15 14  1  0
 16 15  2  0
 17 16  1  0
 17 18  1  0
 18 23  2  0
 19 18  1  0
 19 20  2  0
 20 21  1  0
 21 22  2  0
 23 22  1  0
 24 25  2  0
 24 13  1  0
 26 27  1  0
 28 27  1  0
 28 29  1  0
 30 29  1  1
 30 31  1  0
 31 24  1  0
 32 30  1  0
 33 32  2  0
 34 32  1  0
M  END
$$$$
