FWM.pdb
     RDKit          3D

 34 36  0  0  1  0  0  0  0  0999 V2000
    8.8724  -16.2142   19.4381 N   0  0  0  0  0  0  0  0  0  0  0  0
    9.3160  -14.9674   19.9940 C   0  0  1  0  0  0  0  0  0  0  0  0
    8.1944  -13.9481   19.8066 C   0  0  0  0  0  0  0  0  0  0  0  0
    8.0161  -13.7936   18.3370 C   0  0  0  0  0  0  0  0  0  0  0  0
    7.4727  -14.7970   17.5651 C   0  0  0  0  0  0  0  0  0  0  0  0
    7.3107  -14.6447   16.1894 C   0  0  0  0  0  0  0  0  0  0  0  0
    7.6863  -13.4880   15.5445 C   0  0  0  0  0  0  0  0  0  0  0  0
    8.2326  -12.4783   16.3174 C   0  0  0  0  0  0  0  0  0  0  0  0
    8.3871  -12.6413   17.6769 C   0  0  0  0  0  0  0  0  0  0  0  0
    9.7073  -15.0755   21.4360 C   0  0  0  0  0  0  0  0  0  0  0  0
   10.5435  -14.2781   21.9323 O   0  0  0  0  0  0  0  0  0  0  0  0
    9.1046  -16.0980   22.2040 N   0  0  0  0  0  0  0  0  0  0  0  0
    9.0460  -16.1340   23.6540 C   0  0  1  0  0  0  0  0  0  0  0  0
    7.7794  -16.6963   24.1770 C   0  0  0  0  0  0  0  0  0  0  0  0
    6.9495  -15.7508   24.9206 C   0  0  0  0  0  0  0  0  0  0  0  0
    5.6817  -15.9908   25.4534 C   0  0  0  0  0  0  0  0  0  0  0  0
    5.2095  -14.8980   26.0383 N   0  0  0  0  0  0  0  0  0  0  0  0
    6.1319  -13.9276   25.9118 C   0  0  0  0  0  0  0  0  0  0  0  0
    6.0643  -12.6372   26.3831 C   0  0  0  0  0  0  0  0  0  0  0  0
    7.1558  -11.7926   26.1518 C   0  0  0  0  0  0  0  0  0  0  0  0
    8.2479  -12.2707   25.4708 C   0  0  0  0  0  0  0  0  0  0  0  0
    8.2828  -13.5692   25.0122 C   0  0  0  0  0  0  0  0  0  0  0  0
    7.2180  -14.4204   25.2275 C   0  0  0  0  0  0  0  0  0  0  0  0
   10.2883  -16.6230   24.2572 C   0  0  0  0  0  0  0  0  0  0  0  0
   11.0231  -17.5050   23.7411 O   0  0  0  0  0  0  0  0  0  0  0  0
    9.7717  -14.3378   30.6239 C   0  0  0  0  0  0  0  0  0  0  0  0
   11.1870  -14.4489   29.4958 S   0  0  0  0  0  0  0  0  0  0  0  0
   11.0584  -15.9046   28.4225 C   0  0  0  0  0  0  0  0  0  0  0  0
   12.1969  -15.8870   27.4540 C   0  0  0  0  0  0  0  0  0  0  0  0
   11.8985  -16.6574   26.2149 C   0  0  2  0  0  0  0  0  0  0  0  0
   10.7525  -16.1077   25.5076 N   0  0  0  0  0  0  0  0  0  0  0  0
   11.7176  -18.1004   26.3960 C   0  0  0  0  0  0  0  0  0  0  0  0
   10.5745  -18.6428   26.5406 O   0  0  0  0  0  0  0  0  0  0  0  0
   12.7981  -18.9518   26.4151 O   0  0  0  0  0  0  0  0  0  0  0  0
  2  1  1  1
  3  2  1  0
  4  3  1  0
  4  5  2  0
  6  5  1  0
  7  6  2  0
  8  9  2  0
  8  7  1  0
  9  4  1  0
 10 11  2  0
 10  2  1  0
 12 10  1  0
 13 12  1  0
 13 14  1  6
 15 23  1  0
 15 14  1  0
 16 15  2  0
 17 16  1  0
 17 18  1  0
 18 23  2  0
 19 18  1  0
 19 20  2  0
 20 21  1  0
 21 22  2  0
 23 22  1  0
 24 25  2  0
 24 13  1  0
 26 27  1  0
 28 27  1  0
 28 29  1  0
 30 29  1  1
 30 31  1  0
 31 24  1  0
 32 30  1  0
 33 32  2  0
 34 32  1  0
M  END
$$$$
