FWM.pdb
     RDKit          3D

 34 36  0  0  1  0  0  0  0  0999 V2000
   11.1509  -16.8364   18.2328 N   0  0  0  0  0  0  0  0  0  0  0  0
   10.7319  -17.5932   19.3781 C   0  0  1  0  0  0  0  0  0  0  0  0
   11.8361  -18.5968   19.7032 C   0  0  0  0  0  0  0  0  0  0  0  0
   11.8120  -19.6078   18.6110 C   0  0  0  0  0  0  0  0  0  0  0  0
   10.9324  -20.6681   18.6264 C   0  0  0  0  0  0  0  0  0  0  0  0
   10.9175  -21.6111   17.6005 C   0  0  0  0  0  0  0  0  0  0  0  0
   11.7793  -21.5239   16.5307 C   0  0  0  0  0  0  0  0  0  0  0  0
   12.6641  -20.4598   16.5126 C   0  0  0  0  0  0  0  0  0  0  0  0
   12.6684  -19.5339   17.5331 C   0  0  0  0  0  0  0  0  0  0  0  0
   10.4208  -16.7345   20.5655 C   0  0  0  0  0  0  0  0  0  0  0  0
   11.1435  -15.7437   20.8440 O   0  0  0  0  0  0  0  0  0  0  0  0
    9.2958  -17.0808   21.3484 N   0  0  0  0  0  0  0  0  0  0  0  0
    8.8665  -16.3908   22.5513 C   0  0  1  0  0  0  0  0  0  0  0  0
    7.3986  -16.4103   22.7476 C   0  0  0  0  0  0  0  0  0  0  0  0
    6.9379  -15.7966   23.9913 C   0  0  0  0  0  0  0  0  0  0  0  0
    6.3133  -16.4416   25.0603 C   0  0  0  0  0  0  0  0  0  0  0  0
    6.0040  -15.5704   26.0114 N   0  0  0  0  0  0  0  0  0  0  0  0
    6.4074  -14.3530   25.6067 C   0  0  0  0  0  0  0  0  0  0  0  0
    6.2992  -13.1625   26.2872 C   0  0  0  0  0  0  0  0  0  0  0  0
    6.8064  -12.0079   25.6807 C   0  0  0  0  0  0  0  0  0  0  0  0
    7.3898  -12.0962   24.4410 C   0  0  0  0  0  0  0  0  0  0  0  0
    7.4817  -13.3051   23.7869 C   0  0  0  0  0  0  0  0  0  0  0  0
    6.9880  -14.4571   24.3646 C   0  0  0  0  0  0  0  0  0  0  0  0
    9.6961  -16.7150   23.7145 C   0  0  0  0  0  0  0  0  0  0  0  0
   10.3032  -17.8073   23.8650 O   0  0  0  0  0  0  0  0  0  0  0  0
    8.8742  -13.6213   29.4947 C   0  0  0  0  0  0  0  0  0  0  0  0
   10.6248  -14.0901   29.5552 S   0  0  0  0  0  0  0  0  0  0  0  0
   10.9961  -15.3979   28.3553 C   0  0  0  0  0  0  0  0  0  0  0  0
   10.3287  -15.0627   27.0605 C   0  0  0  0  0  0  0  0  0  0  0  0
   10.5531  -16.1052   26.0211 C   0  0  2  0  0  0  0  0  0  0  0  0
    9.8696  -15.7771   24.7797 N   0  0  0  0  0  0  0  0  0  0  0  0
   10.2189  -17.4759   26.4179 C   0  0  0  0  0  0  0  0  0  0  0  0
    9.0522  -17.9698   26.2888 O   0  0  0  0  0  0  0  0  0  0  0  0
   11.1723  -18.3087   26.9565 O   0  0  0  0  0  0  0  0  0  0  0  0
  2  1  1  6
  3  2  1  0
  4  3  1  0
  4  5  2  0
  6  5  1  0
  7  6  2  0
  8  9  2  0
  8  7  1  0
  9  4  1  0
 10 11  2  0
 10  2  1  0
 12 10  1  0
 13 12  1  0
 13 14  1  1
 15 23  1  0
 15 14  1  0
 16 15  2  0
 17 16  1  0
 17 18  1  0
 18 23  2  0
 19 18  1  0
 19 20  2  0
 20 21  1  0
 21 22  2  0
 23 22  1  0
 24 25  2  0
 24 13  1  0
 26 27  1  0
 28 27  1  0
 28 29  1  0
 30 29  1  1
 30 31  1  0
 31 24  1  0
 32 30  1  0
 33 32  2  0
 34 32  1  0
M  END
$$$$
