FWM.pdb
     RDKit          3D

 34 36  0  0  1  0  0  0  0  0999 V2000
   11.3904  -16.7642   18.3659 N   0  0  0  0  0  0  0  0  0  0  0  0
   11.2018  -17.4854   19.5924 C   0  0  1  0  0  0  0  0  0  0  0  0
   12.5113  -18.2001   19.9191 C   0  0  0  0  0  0  0  0  0  0  0  0
   12.7411  -19.1700   18.8136 C   0  0  0  0  0  0  0  0  0  0  0  0
   12.0577  -20.3643   18.7458 C   0  0  0  0  0  0  0  0  0  0  0  0
   12.2800  -21.2675   17.7081 C   0  0  0  0  0  0  0  0  0  0  0  0
   13.1901  -21.0057   16.7091 C   0  0  0  0  0  0  0  0  0  0  0  0
   13.8783  -19.8067   16.7748 C   0  0  0  0  0  0  0  0  0  0  0  0
   13.6489  -18.9220   17.8060 C   0  0  0  0  0  0  0  0  0  0  0  0
   10.7720  -16.6076   20.7277 C   0  0  0  0  0  0  0  0  0  0  0  0
   11.3657  -15.5230   20.9565 O   0  0  0  0  0  0  0  0  0  0  0  0
    9.6855  -17.0449   21.5195 N   0  0  0  0  0  0  0  0  0  0  0  0
    9.1978  -16.3806   22.7146 C   0  0  1  0  0  0  0  0  0  0  0  0
    7.7222  -16.4064   22.8402 C   0  0  0  0  0  0  0  0  0  0  0  0
    7.2005  -15.8048   24.0657 C   0  0  0  0  0  0  0  0  0  0  0  0
    6.5412  -16.4634   25.1051 C   0  0  0  0  0  0  0  0  0  0  0  0
    6.1791  -15.6007   26.0454 N   0  0  0  0  0  0  0  0  0  0  0  0
    6.5809  -14.3758   25.6623 C   0  0  0  0  0  0  0  0  0  0  0  0
    6.4264  -13.1899   26.3418 C   0  0  0  0  0  0  0  0  0  0  0  0
    6.9412  -12.0254   25.7612 C   0  0  0  0  0  0  0  0  0  0  0  0
    7.5776  -12.0999   24.5470 C   0  0  0  0  0  0  0  0  0  0  0  0
    7.7150  -13.3046   23.8931 C   0  0  0  0  0  0  0  0  0  0  0  0
    7.2148  -14.4662   24.4454 C   0  0  0  0  0  0  0  0  0  0  0  0
    9.9718  -16.7276   23.9090 C   0  0  0  0  0  0  0  0  0  0  0  0
   10.4257  -17.8775   24.1455 O   0  0  0  0  0  0  0  0  0  0  0  0
    9.1438  -13.2445   29.3319 C   0  0  0  0  0  0  0  0  0  0  0  0
   10.7290  -14.0384   29.7123 S   0  0  0  0  0  0  0  0  0  0  0  0
   11.0695  -15.4052   28.5705 C   0  0  0  0  0  0  0  0  0  0  0  0
   10.5698  -15.0299   27.2126 C   0  0  0  0  0  0  0  0  0  0  0  0
   10.8570  -16.0776   26.1939 C   0  0  2  0  0  0  0  0  0  0  0  0
   10.2663  -15.7465   24.9066 N   0  0  0  0  0  0  0  0  0  0  0  0
   10.4821  -17.4438   26.5691 C   0  0  0  0  0  0  0  0  0  0  0  0
   11.2988  -18.2666   27.0961 O   0  0  0  0  0  0  0  0  0  0  0  0
    9.2024  -17.9069   26.3670 O   0  0  0  0  0  0  0  0  0  0  0  0
  2  1  1  6
  3  2  1  0
  4  3  1  0
  4  5  2  0
  6  5  1  0
  7  6  2  0
  8  9  2  0
  8  7  1  0
  9  4  1  0
 10 11  2  0
 10  2  1  0
 12 10  1  0
 13 12  1  0
 13 14  1  1
 15 23  1  0
 15 14  1  0
 16 15  2  0
 17 16  1  0
 17 18  1  0
 18 23  2  0
 19 18  1  0
 19 20  2  0
 20 21  1  0
 21 22  2  0
 23 22  1  0
 24 25  2  0
 24 13  1  0
 26 27  1  0
 28 27  1  0
 28 29  1  0
 30 29  1  1
 30 31  1  0
 31 24  1  0
 32 30  1  0
 33 32  2  0
 34 32  1  0
M  END
$$$$
