FWM.pdb
     RDKit          3D

 34 36  0  0  1  0  0  0  0  0999 V2000
    5.1288  -16.9976   21.4383 N   0  0  0  0  0  0  0  0  0  0  0  0
    6.5390  -17.1688   21.2327 C   0  0  1  0  0  0  0  0  0  0  0  0
    6.8383  -16.8537   19.7687 C   0  0  0  0  0  0  0  0  0  0  0  0
    7.3496  -15.4560   19.7417 C   0  0  0  0  0  0  0  0  0  0  0  0
    6.6013  -14.4030   20.2206 C   0  0  0  0  0  0  0  0  0  0  0  0
    7.0869  -13.0972   20.1901 C   0  0  0  0  0  0  0  0  0  0  0  0
    8.3319  -12.8043   19.6811 C   0  0  0  0  0  0  0  0  0  0  0  0
    9.0857  -13.8602   19.1992 C   0  0  0  0  0  0  0  0  0  0  0  0
    8.5941  -15.1470   19.2353 C   0  0  0  0  0  0  0  0  0  0  0  0
    7.3710  -16.3206   22.1450 C   0  0  0  0  0  0  0  0  0  0  0  0
    7.2866  -15.0665   22.1045 O   0  0  0  0  0  0  0  0  0  0  0  0
    8.2427  -16.9811   23.0407 N   0  0  0  0  0  0  0  0  0  0  0  0
    9.2756  -16.3387   23.8331 C   0  0  1  0  0  0  0  0  0  0  0  0
    9.0123  -16.3849   25.2899 C   0  0  0  0  0  0  0  0  0  0  0  0
    7.8784  -15.5770   25.7341 C   0  0  0  0  0  0  0  0  0  0  0  0
    6.5348  -15.9558   25.7430 C   0  0  0  0  0  0  0  0  0  0  0  0
    5.7751  -14.9611   26.1822 N   0  0  0  0  0  0  0  0  0  0  0  0
    6.5777  -13.9212   26.4701 C   0  0  0  0  0  0  0  0  0  0  0  0
    6.2141  -12.6911   26.9667 C   0  0  0  0  0  0  0  0  0  0  0  0
    7.2241  -11.7541   27.2116 C   0  0  0  0  0  0  0  0  0  0  0  0
    8.5311  -12.0859   26.9531 C   0  0  0  0  0  0  0  0  0  0  0  0
    8.8606  -13.3275   26.4557 C   0  0  0  0  0  0  0  0  0  0  0  0
    7.8818  -14.2677   26.2053 C   0  0  0  0  0  0  0  0  0  0  0  0
   10.6271  -16.6914   23.3913 C   0  0  0  0  0  0  0  0  0  0  0  0
   11.1171  -17.8477   23.4755 O   0  0  0  0  0  0  0  0  0  0  0  0
   16.9517  -14.0431   19.3233 C   0  0  0  0  0  0  0  0  0  0  0  0
   15.2275  -13.8511   19.8513 S   0  0  0  0  0  0  0  0  0  0  0  0
   14.7164  -15.2139   20.9327 C   0  0  0  0  0  0  0  0  0  0  0  0
   13.3087  -14.9724   21.3737 C   0  0  0  0  0  0  0  0  0  0  0  0
   12.8199  -16.0235   22.3087 C   0  0  2  0  0  0  0  0  0  0  0  0
   11.4947  -15.7093   22.8193 N   0  0  0  0  0  0  0  0  0  0  0  0
   13.7138  -16.3411   23.4258 C   0  0  0  0  0  0  0  0  0  0  0  0
   13.6565  -15.7458   24.5501 O   0  0  0  0  0  0  0  0  0  0  0  0
   14.6733  -17.3200   23.3076 O   0  0  0  0  0  0  0  0  0  0  0  0
  2  1  1  1
  3  2  1  0
  4  3  1  0
  4  5  2  0
  6  5  1  0
  7  6  2  0
  8  9  2  0
  8  7  1  0
  9  4  1  0
 10 11  2  0
 10  2  1  0
 12 10  1  0
 13 12  1  0
 13 14  1  1
 15 23  1  0
 15 14  1  0
 16 15  2  0
 17 16  1  0
 17 18  1  0
 18 23  2  0
 19 18  1  0
 19 20  2  0
 20 21  1  0
 21 22  2  0
 23 22  1  0
 24 25  2  0
 24 13  1  0
 26 27  1  0
 28 27  1  0
 28 29  1  0
 30 29  1  1
 30 31  1  0
 31 24  1  0
 32 30  1  0
 33 32  2  0
 34 32  1  0
M  END
$$$$
