FWM.pdb
     RDKit          3D

 34 36  0  0  1  0  0  0  0  0999 V2000
    7.7017  -14.4122   20.7101 N   0  0  0  0  0  0  0  0  0  0  0  0
    9.0420  -14.9019   20.5547 C   0  0  1  0  0  0  0  0  0  0  0  0
    9.8160  -13.8848   19.7189 C   0  0  0  0  0  0  0  0  0  0  0  0
    9.1461  -13.8445   18.3903 C   0  0  0  0  0  0  0  0  0  0  0  0
    8.2486  -12.8519   18.0629 C   0  0  0  0  0  0  0  0  0  0  0  0
    7.6246  -12.8225   16.8171 C   0  0  0  0  0  0  0  0  0  0  0  0
    7.8776  -13.7820   15.8630 C   0  0  0  0  0  0  0  0  0  0  0  0
    8.7787  -14.7804   16.1893 C   0  0  0  0  0  0  0  0  0  0  0  0
    9.3892  -14.7980   17.4245 C   0  0  0  0  0  0  0  0  0  0  0  0
    9.7281  -15.1553   21.8621 C   0  0  0  0  0  0  0  0  0  0  0  0
   10.5675  -14.3344   22.3124 O   0  0  0  0  0  0  0  0  0  0  0  0
    9.3958  -16.3401   22.5580 N   0  0  0  0  0  0  0  0  0  0  0  0
    9.2363  -16.4512   23.9966 C   0  0  1  0  0  0  0  0  0  0  0  0
    7.9143  -16.9820   24.4018 C   0  0  0  0  0  0  0  0  0  0  0  0
    6.9772  -15.9781   24.9016 C   0  0  0  0  0  0  0  0  0  0  0  0
    5.6302  -16.1732   25.2120 C   0  0  0  0  0  0  0  0  0  0  0  0
    5.0760  -15.0355   25.6094 N   0  0  0  0  0  0  0  0  0  0  0  0
    6.0205  -14.0788   25.5743 C   0  0  0  0  0  0  0  0  0  0  0  0
    5.8877  -12.7537   25.9181 C   0  0  0  0  0  0  0  0  0  0  0  0
    7.0155  -11.9311   25.8214 C   0  0  0  0  0  0  0  0  0  0  0  0
    8.2059  -12.4640   25.3925 C   0  0  0  0  0  0  0  0  0  0  0  0
    8.3042  -13.7961   25.0559 C   0  0  0  0  0  0  0  0  0  0  0  0
    7.2053  -14.6267   25.1423 C   0  0  0  0  0  0  0  0  0  0  0  0
   10.4126  -17.0282   24.6521 C   0  0  0  0  0  0  0  0  0  0  0  0
   11.2394  -17.7842   24.0784 O   0  0  0  0  0  0  0  0  0  0  0  0
   10.6346  -13.3123   30.2048 C   0  0  0  0  0  0  0  0  0  0  0  0
   11.5059  -14.8817   29.9476 S   0  0  0  0  0  0  0  0  0  0  0  0
   11.3869  -15.4234   28.2213 C   0  0  0  0  0  0  0  0  0  0  0  0
   11.9488  -16.8044   28.1135 C   0  0  0  0  0  0  0  0  0  0  0  0
   11.8049  -17.3690   26.7430 C   0  0  2  0  0  0  0  0  0  0  0  0
   10.6979  -16.7553   26.0263 N   0  0  0  0  0  0  0  0  0  0  0  0
   11.6886  -18.8281   26.6694 C   0  0  0  0  0  0  0  0  0  0  0  0
   12.6809  -19.6111   26.8242 O   0  0  0  0  0  0  0  0  0  0  0  0
   10.4751  -19.4296   26.4275 O   0  0  0  0  0  0  0  0  0  0  0  0
  2  1  1  1
  3  2  1  0
  4  3  1  0
  4  5  2  0
  6  5  1  0
  7  6  2  0
  8  9  2  0
  8  7  1  0
  9  4  1  0
 10 11  2  0
 10  2  1  0
 12 10  1  0
 13 12  1  0
 13 14  1  6
 15 23  1  0
 15 14  1  0
 16 15  2  0
 17 16  1  0
 17 18  1  0
 18 23  2  0
 19 18  1  0
 19 20  2  0
 20 21  1  0
 21 22  2  0
 23 22  1  0
 24 25  2  0
 24 13  1  0
 26 27  1  0
 28 27  1  0
 28 29  1  0
 30 29  1  1
 30 31  1  0
 31 24  1  0
 32 30  1  0
 33 32  2  0
 34 32  1  0
M  END
$$$$
