FWM.pdb
     RDKit          3D

 34 36  0  0  1  0  0  0  0  0999 V2000
    8.7986  -16.0740   20.2359 N   0  0  0  0  0  0  0  0  0  0  0  0
    9.9093  -15.2919   20.6997 C   0  0  1  0  0  0  0  0  0  0  0  0
    9.5362  -13.8185   20.5514 C   0  0  0  0  0  0  0  0  0  0  0  0
    8.6662  -13.7305   19.3468 C   0  0  0  0  0  0  0  0  0  0  0  0
    8.3974  -14.8338   18.5669 C   0  0  0  0  0  0  0  0  0  0  0  0
    7.5830  -14.7423   17.4397 C   0  0  0  0  0  0  0  0  0  0  0  0
    7.0142  -13.5483   17.0582 C   0  0  0  0  0  0  0  0  0  0  0  0
    7.2827  -12.4381   17.8398 C   0  0  0  0  0  0  0  0  0  0  0  0
    8.0894  -12.5420   18.9522 C   0  0  0  0  0  0  0  0  0  0  0  0
   10.2986  -15.6074   22.1115 C   0  0  0  0  0  0  0  0  0  0  0  0
   11.3428  -15.1160   22.6110 O   0  0  0  0  0  0  0  0  0  0  0  0
    9.4535  -16.4690   22.8477 N   0  0  0  0  0  0  0  0  0  0  0  0
    9.3330  -16.4910   24.2942 C   0  0  1  0  0  0  0  0  0  0  0  0
    7.9994  -16.9301   24.7659 C   0  0  0  0  0  0  0  0  0  0  0  0
    7.1216  -15.8511   25.2144 C   0  0  0  0  0  0  0  0  0  0  0  0
    5.7912  -15.9700   25.6201 C   0  0  0  0  0  0  0  0  0  0  0  0
    5.2928  -14.7808   25.9313 N   0  0  0  0  0  0  0  0  0  0  0  0
    6.2587  -13.8639   25.7448 C   0  0  0  0  0  0  0  0  0  0  0  0
    6.1826  -12.5074   25.9594 C   0  0  0  0  0  0  0  0  0  0  0  0
    7.3242  -11.7361   25.7148 C   0  0  0  0  0  0  0  0  0  0  0  0
    8.4717  -12.3478   25.2744 C   0  0  0  0  0  0  0  0  0  0  0  0
    8.5135  -13.7094   25.0696 C   0  0  0  0  0  0  0  0  0  0  0  0
    7.4001  -14.4907   25.3031 C   0  0  0  0  0  0  0  0  0  0  0  0
   10.4989  -17.0899   24.9486 C   0  0  0  0  0  0  0  0  0  0  0  0
   11.1174  -18.0932   24.5069 O   0  0  0  0  0  0  0  0  0  0  0  0
   11.8668  -14.7786   31.5338 C   0  0  0  0  0  0  0  0  0  0  0  0
   11.1479  -14.6366   29.8751 S   0  0  0  0  0  0  0  0  0  0  0  0
   10.9899  -16.2617   29.0866 C   0  0  0  0  0  0  0  0  0  0  0  0
   12.2217  -16.5246   28.2816 C   0  0  0  0  0  0  0  0  0  0  0  0
   11.9310  -17.2803   27.0317 C   0  0  2  0  0  0  0  0  0  0  0  0
   11.0182  -16.5498   26.1664 N   0  0  0  0  0  0  0  0  0  0  0  0
   11.4401  -18.6483   27.2198 C   0  0  0  0  0  0  0  0  0  0  0  0
   12.2145  -19.6520   27.3404 O   0  0  0  0  0  0  0  0  0  0  0  0
   10.0914  -18.9139   27.2788 O   0  0  0  0  0  0  0  0  0  0  0  0
  2  1  1  1
  3  2  1  0
  4  3  1  0
  4  5  2  0
  6  5  1  0
  7  6  2  0
  8  9  2  0
  8  7  1  0
  9  4  1  0
 10 11  2  0
 10  2  1  0
 12 10  1  0
 13 12  1  0
 13 14  1  6
 15 23  1  0
 15 14  1  0
 16 15  2  0
 17 16  1  0
 17 18  1  0
 18 23  2  0
 19 18  1  0
 19 20  2  0
 20 21  1  0
 21 22  2  0
 23 22  1  0
 24 25  2  0
 24 13  1  0
 26 27  1  0
 28 27  1  0
 28 29  1  0
 30 29  1  1
 30 31  1  0
 31 24  1  0
 32 30  1  0
 33 32  2  0
 34 32  1  0
M  END
$$$$
