FWM.pdb
     RDKit          3D

 34 36  0  0  1  0  0  0  0  0999 V2000
    8.8928  -16.4225   20.7352 N   0  0  0  0  0  0  0  0  0  0  0  0
    9.4463  -15.2572   21.3644 C   0  0  1  0  0  0  0  0  0  0  0  0
    8.3357  -14.2147   21.4740 C   0  0  0  0  0  0  0  0  0  0  0  0
    7.9859  -13.8334   20.0783 C   0  0  0  0  0  0  0  0  0  0  0  0
    8.6891  -12.8653   19.3954 C   0  0  0  0  0  0  0  0  0  0  0  0
    8.3539  -12.5132   18.0894 C   0  0  0  0  0  0  0  0  0  0  0  0
    7.3082  -13.1160   17.4277 C   0  0  0  0  0  0  0  0  0  0  0  0
    6.6000  -14.0888   18.1113 C   0  0  0  0  0  0  0  0  0  0  0  0
    6.9417  -14.4281   19.4025 C   0  0  0  0  0  0  0  0  0  0  0  0
   10.0459  -15.5456   22.7066 C   0  0  0  0  0  0  0  0  0  0  0  0
   11.0729  -14.9310   23.0925 O   0  0  0  0  0  0  0  0  0  0  0  0
    9.4164  -16.5243   23.5092 N   0  0  0  0  0  0  0  0  0  0  0  0
    9.5165  -16.6147   24.9546 C   0  0  1  0  0  0  0  0  0  0  0  0
    8.2342  -16.9576   25.6120 C   0  0  0  0  0  0  0  0  0  0  0  0
    7.2127  -15.9146   25.5451 C   0  0  0  0  0  0  0  0  0  0  0  0
    5.8487  -16.0946   25.3089 C   0  0  0  0  0  0  0  0  0  0  0  0
    5.2233  -14.9250   25.2855 N   0  0  0  0  0  0  0  0  0  0  0  0
    6.1363  -13.9615   25.5017 C   0  0  0  0  0  0  0  0  0  0  0  0
    5.9248  -12.6044   25.5738 C   0  0  0  0  0  0  0  0  0  0  0  0
    7.0254  -11.7781   25.8271 C   0  0  0  0  0  0  0  0  0  0  0  0
    8.2673  -12.3389   25.9946 C   0  0  0  0  0  0  0  0  0  0  0  0
    8.4439  -13.7028   25.9160 C   0  0  0  0  0  0  0  0  0  0  0  0
    7.3738  -14.5378   25.6662 C   0  0  0  0  0  0  0  0  0  0  0  0
   10.7048  -17.3508   25.3932 C   0  0  0  0  0  0  0  0  0  0  0  0
   11.1709  -18.3567   24.7972 O   0  0  0  0  0  0  0  0  0  0  0  0
   10.6809  -13.6470   29.1315 C   0  0  0  0  0  0  0  0  0  0  0  0
   11.2095  -15.3770   29.2575 S   0  0  0  0  0  0  0  0  0  0  0  0
   12.7668  -15.6539   28.3710 C   0  0  0  0  0  0  0  0  0  0  0  0
   13.0575  -17.1201   28.3611 C   0  0  0  0  0  0  0  0  0  0  0  0
   12.3696  -17.8264   27.2449 C   0  0  2  0  0  0  0  0  0  0  0  0
   11.4272  -16.9542   26.5617 N   0  0  0  0  0  0  0  0  0  0  0  0
   11.7042  -19.0813   27.6056 C   0  0  0  0  0  0  0  0  0  0  0  0
   12.3394  -20.1596   27.8414 O   0  0  0  0  0  0  0  0  0  0  0  0
   10.3342  -19.1508   27.7108 O   0  0  0  0  0  0  0  0  0  0  0  0
  2  1  1  1
  3  2  1  0
  4  3  1  0
  4  5  2  0
  6  5  1  0
  7  6  2  0
  8  9  2  0
  8  7  1  0
  9  4  1  0
 10 11  2  0
 10  2  1  0
 12 10  1  0
 13 12  1  0
 13 14  1  6
 15 23  1  0
 15 14  1  0
 16 15  2  0
 17 16  1  0
 17 18  1  0
 18 23  2  0
 19 18  1  0
 19 20  2  0
 20 21  1  0
 21 22  2  0
 23 22  1  0
 24 25  2  0
 24 13  1  0
 26 27  1  0
 28 27  1  0
 28 29  1  0
 30 29  1  1
 30 31  1  0
 31 24  1  0
 32 30  1  0
 33 32  2  0
 34 32  1  0
M  END
$$$$
