FWM.pdb
     RDKit          3D

 34 36  0  0  1  0  0  0  0  0999 V2000
    8.8344  -16.6625   21.7361 N   0  0  0  0  0  0  0  0  0  0  0  0
    9.1317  -15.3428   22.2159 C   0  0  1  0  0  0  0  0  0  0  0  0
    7.8297  -14.5447   22.2222 C   0  0  0  0  0  0  0  0  0  0  0  0
    7.7037  -13.9465   20.8650 C   0  0  0  0  0  0  0  0  0  0  0  0
    8.5526  -12.9517   20.4316 C   0  0  0  0  0  0  0  0  0  0  0  0
    8.4266  -12.3960   19.1599 C   0  0  0  0  0  0  0  0  0  0  0  0
    7.4507  -12.8160   18.2847 C   0  0  0  0  0  0  0  0  0  0  0  0
    6.5964  -13.8151   18.7175 C   0  0  0  0  0  0  0  0  0  0  0  0
    6.7317  -14.3566   19.9774 C   0  0  0  0  0  0  0  0  0  0  0  0
    9.7678  -15.3424   23.5722 C   0  0  0  0  0  0  0  0  0  0  0  0
   10.5327  -14.4062   23.9185 O   0  0  0  0  0  0  0  0  0  0  0  0
    9.4753  -16.4243   24.4338 N   0  0  0  0  0  0  0  0  0  0  0  0
    9.9766  -16.5776   25.7875 C   0  0  1  0  0  0  0  0  0  0  0  0
    8.9036  -16.6655   26.8048 C   0  0  0  0  0  0  0  0  0  0  0  0
    7.7913  -15.7391   26.6045 C   0  0  0  0  0  0  0  0  0  0  0  0
    6.5146  -16.0547   26.1363 C   0  0  0  0  0  0  0  0  0  0  0  0
    5.7684  -14.9614   26.0499 N   0  0  0  0  0  0  0  0  0  0  0  0
    6.5145  -13.9167   26.4505 C   0  0  0  0  0  0  0  0  0  0  0  0
    6.1362  -12.5969   26.5344 C   0  0  0  0  0  0  0  0  0  0  0  0
    7.0761  -11.6698   26.9982 C   0  0  0  0  0  0  0  0  0  0  0  0
    8.3313  -12.0990   27.3519 C   0  0  0  0  0  0  0  0  0  0  0  0
    8.6773  -13.4289   27.2554 C   0  0  0  0  0  0  0  0  0  0  0  0
    7.7677  -14.3616   26.7999 C   0  0  0  0  0  0  0  0  0  0  0  0
   11.0610  -17.5583   25.8802 C   0  0  0  0  0  0  0  0  0  0  0  0
   11.5970  -17.9166   26.9612 O   0  0  0  0  0  0  0  0  0  0  0  0
   10.6297  -20.3264   20.2054 C   0  0  0  0  0  0  0  0  0  0  0  0
   12.1845  -20.7914   21.0144 S   0  0  0  0  0  0  0  0  0  0  0  0
   12.6363  -19.5988   22.3033 C   0  0  0  0  0  0  0  0  0  0  0  0
   12.3869  -20.2210   23.6394 C   0  0  0  0  0  0  0  0  0  0  0  0
   12.5732  -19.2552   24.7576 C   0  0  2  0  0  0  0  0  0  0  0  0
   11.5888  -18.1856   24.7087 N   0  0  0  0  0  0  0  0  0  0  0  0
   13.9161  -18.6812   24.8800 C   0  0  0  0  0  0  0  0  0  0  0  0
   14.9459  -19.3791   25.1527 O   0  0  0  0  0  0  0  0  0  0  0  0
   14.1287  -17.3341   24.6987 O   0  0  0  0  0  0  0  0  0  0  0  0
  2  1  1  1
  3  2  1  0
  4  3  1  0
  4  5  2  0
  6  5  1  0
  7  6  2  0
  8  9  2  0
  8  7  1  0
  9  4  1  0
 10 11  2  0
 10  2  1  0
 12 10  1  0
 13 12  1  0
 13 14  1  1
 15 23  1  0
 15 14  1  0
 16 15  2  0
 17 16  1  0
 17 18  1  0
 18 23  2  0
 19 18  1  0
 19 20  2  0
 20 21  1  0
 21 22  2  0
 23 22  1  0
 24 25  2  0
 24 13  1  0
 26 27  1  0
 28 27  1  0
 28 29  1  0
 30 29  1  6
 30 31  1  0
 31 24  1  0
 32 30  1  0
 33 32  2  0
 34 32  1  0
M  END
$$$$
