FWM.pdb
     RDKit          3D

 34 36  0  0  1  0  0  0  0  0999 V2000
    8.6728  -16.3847   18.4513 N   0  0  0  0  0  0  0  0  0  0  0  0
    8.3772  -16.9147   19.7520 C   0  0  1  0  0  0  0  0  0  0  0  0
    8.4853  -18.4359   19.6712 C   0  0  0  0  0  0  0  0  0  0  0  0
    7.4928  -18.8682   18.6496 C   0  0  0  0  0  0  0  0  0  0  0  0
    6.1606  -19.0325   18.9599 C   0  0  0  0  0  0  0  0  0  0  0  0
    5.2382  -19.4391   17.9977 C   0  0  0  0  0  0  0  0  0  0  0  0
    5.6181  -19.6938   16.6993 C   0  0  0  0  0  0  0  0  0  0  0  0
    6.9558  -19.5297   16.3848 C   0  0  0  0  0  0  0  0  0  0  0  0
    7.8578  -19.1268   17.3455 C   0  0  0  0  0  0  0  0  0  0  0  0
    9.2712  -16.3695   20.8234 C   0  0  0  0  0  0  0  0  0  0  0  0
   10.3918  -15.8790   20.5317 O   0  0  0  0  0  0  0  0  0  0  0  0
    8.8073  -16.4291   22.1574 N   0  0  0  0  0  0  0  0  0  0  0  0
    9.6353  -16.2814   23.3407 C   0  0  1  0  0  0  0  0  0  0  0  0
    9.5024  -14.9564   23.9890 C   0  0  0  0  0  0  0  0  0  0  0  0
    8.2572  -14.7572   24.7277 C   0  0  0  0  0  0  0  0  0  0  0  0
    7.4482  -15.7490   25.2849 C   0  0  0  0  0  0  0  0  0  0  0  0
    6.3797  -15.2095   25.8566 N   0  0  0  0  0  0  0  0  0  0  0  0
    6.4520  -13.8761   25.6972 C   0  0  0  0  0  0  0  0  0  0  0  0
    5.5632  -12.9267   26.1451 C   0  0  0  0  0  0  0  0  0  0  0  0
    5.8458  -11.5820   25.8806 C   0  0  0  0  0  0  0  0  0  0  0  0
    6.9871  -11.2541   25.1916 C   0  0  0  0  0  0  0  0  0  0  0  0
    7.8563  -12.2305   24.7570 C   0  0  0  0  0  0  0  0  0  0  0  0
    7.5983  -13.5634   25.0052 C   0  0  0  0  0  0  0  0  0  0  0  0
    9.5853  -17.4560   24.2148 C   0  0  0  0  0  0  0  0  0  0  0  0
    8.5306  -18.0849   24.4910 O   0  0  0  0  0  0  0  0  0  0  0  0
   11.2571  -13.0816   29.2597 C   0  0  0  0  0  0  0  0  0  0  0  0
   10.8935  -14.8100   28.8490 S   0  0  0  0  0  0  0  0  0  0  0  0
   11.5440  -15.2472   27.2140 C   0  0  0  0  0  0  0  0  0  0  0  0
   10.9295  -16.5404   26.7847 C   0  0  0  0  0  0  0  0  0  0  0  0
   11.6580  -17.1628   25.6447 C   0  0  2  0  0  0  0  0  0  0  0  0
   10.7718  -17.9724   24.8232 N   0  0  0  0  0  0  0  0  0  0  0  0
   12.8446  -17.9443   26.0038 C   0  0  0  0  0  0  0  0  0  0  0  0
   13.9981  -17.7175   25.5141 O   0  0  0  0  0  0  0  0  0  0  0  0
   12.7637  -18.9783   26.9078 O   0  0  0  0  0  0  0  0  0  0  0  0
  2  1  1  6
  3  2  1  0
  4  3  1  0
  4  5  2  0
  6  5  1  0
  7  6  2  0
  8  9  2  0
  8  7  1  0
  9  4  1  0
 10 11  2  0
 10  2  1  0
 12 10  1  0
 13 12  1  0
 13 14  1  1
 15 23  1  0
 15 14  1  0
 16 15  2  0
 17 16  1  0
 17 18  1  0
 18 23  2  0
 19 18  1  0
 19 20  2  0
 20 21  1  0
 21 22  2  0
 23 22  1  0
 24 25  2  0
 24 13  1  0
 26 27  1  0
 28 27  1  0
 28 29  1  0
 30 29  1  1
 30 31  1  0
 31 24  1  0
 32 30  1  0
 33 32  2  0
 34 32  1  0
M  END
$$$$
