GLR.pdb
     RDKit          3D

 24 23  0  0  1  0  0  0  0  0999 V2000
    8.9854  -18.5046   28.2972 N   0  0  0  0  0  0  0  0  0  0  0  0
    9.1329  -17.1323   27.9260 C   0  0  0  0  0  0  0  0  0  0  0  0
    8.1400  -16.7064   26.8774 C   0  0  0  0  0  0  0  0  0  0  0  0
    7.3228  -17.5675   26.5057 O   0  0  0  0  0  0  0  0  0  0  0  0
    7.3790  -11.3709   26.8506 C   0  0  0  0  0  0  0  0  0  0  0  0
    6.8774  -12.7915   26.7651 C   0  0  1  0  0  0  0  0  0  0  0  0
    5.4610  -12.9817   27.1948 C   0  0  0  0  0  0  0  0  0  0  0  0
    7.1265  -13.4242   25.4304 C   0  0  0  0  0  0  0  0  0  0  0  0
    7.2719  -14.8960   25.4192 C   0  0  2  0  0  0  0  0  0  0  0  0
    8.2059  -15.3740   26.3951 N   0  0  0  0  0  0  0  0  0  0  0  0
    7.6578  -15.4394   24.0845 C   0  0  0  0  0  0  0  0  0  0  0  0
    6.8021  -15.5048   23.1687 O   0  0  0  0  0  0  0  0  0  0  0  0
    7.8344  -14.3634   16.6494 N   0  0  0  0  0  0  0  0  0  0  0  0
    8.3178  -13.3670   17.5309 C   0  0  0  0  0  0  0  0  0  0  0  0
    8.7368  -12.2640   17.0726 N   0  0  0  0  0  0  0  0  0  0  0  0
    8.3329  -13.6078   18.9225 N   0  0  0  0  0  0  0  0  0  0  0  0
    7.8838  -14.9580   19.3705 C   0  0  0  0  0  0  0  0  0  0  0  0
    7.8981  -14.8972   20.8464 C   0  0  0  0  0  0  0  0  0  0  0  0
    9.1068  -15.1759   21.5886 C   0  0  0  0  0  0  0  0  0  0  0  0
    9.2743  -16.4007   22.4091 C   0  0  2  0  0  0  0  0  0  0  0  0
    8.9473  -15.8876   23.7952 N   0  0  0  0  0  0  0  0  0  0  0  0
   10.6184  -16.9627   22.5537 C   0  0  0  0  0  0  0  0  0  0  0  0
   11.2794  -17.5276   21.6400 O   0  0  0  0  0  0  0  0  0  0  0  0
   11.2444  -16.8703   23.8256 O   0  0  0  0  0  0  0  0  0  0  0  0
  1  2  1  0
  3  2  1  0
  3  4  2  0
  6  5  1  6
  6  8  1  0
  7  6  1  0
  9  8  1  6
  9 10  1  0
 10  3  1  0
 11  9  1  0
 12 11  2  0
 13 14  1  0
 14 15  2  0
 16 14  1  0
 16 17  1  0
 17 18  1  0
 20 19  1  6
 19 18  1  0
 20 21  1  0
 21 11  1  0
 22 20  1  0
 23 22  2  0
 24 22  1  0
M  END
$$$$
