GLR.pdb
     RDKit          3D

 24 23  0  0  1  0  0  0  0  0999 V2000
    6.9977  -19.5704   19.5450 N   0  0  0  0  0  0  0  0  0  0  0  0
    6.4020  -18.3232   19.9084 C   0  0  0  0  0  0  0  0  0  0  0  0
    7.3535  -17.4213   20.6486 C   0  0  0  0  0  0  0  0  0  0  0  0
    8.4682  -17.8992   20.9254 O   0  0  0  0  0  0  0  0  0  0  0  0
    6.9271  -11.8727   20.0293 C   0  0  0  0  0  0  0  0  0  0  0  0
    7.5279  -13.2487   20.1803 C   0  0  1  0  0  0  0  0  0  0  0  0
    8.9311  -13.3759   19.6885 C   0  0  0  0  0  0  0  0  0  0  0  0
    7.3885  -13.8030   21.5649 C   0  0  0  0  0  0  0  0  0  0  0  0
    7.7456  -15.2274   21.7401 C   0  0  2  0  0  0  0  0  0  0  0  0
    6.9182  -16.1107   20.9730 N   0  0  0  0  0  0  0  0  0  0  0  0
    7.7216  -15.6697   23.1647 C   0  0  0  0  0  0  0  0  0  0  0  0
    6.6239  -15.9175   23.7204 O   0  0  0  0  0  0  0  0  0  0  0  0
    6.6307  -22.6094   23.9844 N   0  0  0  0  0  0  0  0  0  0  0  0
    5.6891  -21.6837   24.4943 C   0  0  0  0  0  0  0  0  0  0  0  0
    4.4543  -21.8456   24.2682 N   0  0  0  0  0  0  0  0  0  0  0  0
    6.1315  -20.5784   25.2541 N   0  0  0  0  0  0  0  0  0  0  0  0
    7.5988  -20.3086   25.2469 C   0  0  0  0  0  0  0  0  0  0  0  0
    7.7301  -18.8895   25.6357 C   0  0  0  0  0  0  0  0  0  0  0  0
    8.3666  -17.9353   24.7560 C   0  0  0  0  0  0  0  0  0  0  0  0
    8.8304  -16.6057   25.2235 C   0  0  2  0  0  0  0  0  0  0  0  0
    8.8800  -15.8257   23.9270 N   0  0  0  0  0  0  0  0  0  0  0  0
   10.1908  -16.4898   25.7520 C   0  0  0  0  0  0  0  0  0  0  0  0
   11.1967  -16.0872   25.1062 O   0  0  0  0  0  0  0  0  0  0  0  0
   10.4117  -16.8576   27.1062 O   0  0  0  0  0  0  0  0  0  0  0  0
  1  2  1  0
  3  2  1  0
  3  4  2  0
  6  5  1  1
  6  8  1  0
  7  6  1  0
  9  8  1  1
  9 10  1  0
 10  3  1  0
 11  9  1  0
 12 11  2  0
 13 14  1  0
 14 15  2  0
 16 14  1  0
 16 17  1  0
 17 18  1  0
 20 19  1  6
 19 18  1  0
 20 21  1  0
 21 11  1  0
 22 20  1  0
 23 22  2  0
 24 22  1  0
M  END
$$$$
