GLR.pdb
     RDKit          3D

 24 23  0  0  1  0  0  0  0  0999 V2000
    8.2949  -18.3213   16.2371 N   0  0  0  0  0  0  0  0  0  0  0  0
    7.7833  -18.4354   17.5666 C   0  0  0  0  0  0  0  0  0  0  0  0
    8.3295  -17.3789   18.4897 C   0  0  0  0  0  0  0  0  0  0  0  0
    9.5515  -17.4209   18.7186 O   0  0  0  0  0  0  0  0  0  0  0  0
    7.4875  -13.5642   22.4554 C   0  0  0  0  0  0  0  0  0  0  0  0
    7.2946  -13.1937   21.0054 C   0  0  1  0  0  0  0  0  0  0  0  0
    8.4423  -12.4672   20.3874 C   0  0  0  0  0  0  0  0  0  0  0  0
    6.8661  -14.3498   20.1546 C   0  0  0  0  0  0  0  0  0  0  0  0
    7.8778  -15.4029   19.9213 C   0  0  2  0  0  0  0  0  0  0  0  0
    7.4259  -16.4252   19.0247 N   0  0  0  0  0  0  0  0  0  0  0  0
    8.3557  -16.0491   21.1782 C   0  0  0  0  0  0  0  0  0  0  0  0
    7.5548  -16.7153   21.8781 O   0  0  0  0  0  0  0  0  0  0  0  0
   11.3308  -19.3887   18.4614 N   0  0  0  0  0  0  0  0  0  0  0  0
   12.5788  -19.7551   19.0197 C   0  0  0  0  0  0  0  0  0  0  0  0
   13.6086  -19.8147   18.2861 N   0  0  0  0  0  0  0  0  0  0  0  0
   12.6712  -20.0556   20.3966 N   0  0  0  0  0  0  0  0  0  0  0  0
   11.4081  -19.9648   21.1852 C   0  0  0  0  0  0  0  0  0  0  0  0
   11.3391  -18.5607   21.6393 C   0  0  0  0  0  0  0  0  0  0  0  0
   10.2022  -18.0793   22.3911 C   0  0  0  0  0  0  0  0  0  0  0  0
   10.1027  -16.6816   22.8789 C   0  0  2  0  0  0  0  0  0  0  0  0
    9.6739  -15.9497   21.6250 N   0  0  0  0  0  0  0  0  0  0  0  0
   11.3324  -15.9954   23.2795 C   0  0  0  0  0  0  0  0  0  0  0  0
   11.9536  -16.1761   24.3623 O   0  0  0  0  0  0  0  0  0  0  0  0
   11.8850  -15.0431   22.3821 O   0  0  0  0  0  0  0  0  0  0  0  0
  1  2  1  0
  3  2  1  0
  3  4  2  0
  6  5  1  1
  6  8  1  0
  7  6  1  0
  9  8  1  1
  9 10  1  0
 10  3  1  0
 11  9  1  0
 12 11  2  0
 13 14  1  0
 14 15  2  0
 16 14  1  0
 16 17  1  0
 17 18  1  0
 20 19  1  6
 19 18  1  0
 20 21  1  0
 21 11  1  0
 22 20  1  0
 23 22  2  0
 24 22  1  0
M  END
$$$$
