GLR.pdb
     RDKit          3D

 24 23  0  0  1  0  0  0  0  0999 V2000
    7.3144  -18.9932   17.5200 N   0  0  0  0  0  0  0  0  0  0  0  0
    6.8933  -18.2509   18.6663 C   0  0  0  0  0  0  0  0  0  0  0  0
    7.9820  -17.3682   19.2163 C   0  0  0  0  0  0  0  0  0  0  0  0
    9.1171  -17.5207   18.7310 O   0  0  0  0  0  0  0  0  0  0  0  0
    6.4112  -12.4146   21.1179 C   0  0  0  0  0  0  0  0  0  0  0  0
    7.2524  -13.4487   20.4109 C   0  0  1  0  0  0  0  0  0  0  0  0
    8.1284  -12.9097   19.3297 C   0  0  0  0  0  0  0  0  0  0  0  0
    8.0285  -14.3190   21.3513 C   0  0  0  0  0  0  0  0  0  0  0  0
    8.6212  -15.5443   20.7728 C   0  0  2  0  0  0  0  0  0  0  0  0
    7.6412  -16.4397   20.2332 N   0  0  0  0  0  0  0  0  0  0  0  0
    9.4747  -16.2975   21.7371 C   0  0  0  0  0  0  0  0  0  0  0  0
    8.9464  -16.8612   22.7262 O   0  0  0  0  0  0  0  0  0  0  0  0
   11.5877  -20.7223   18.1706 N   0  0  0  0  0  0  0  0  0  0  0  0
   11.3983  -21.6610   19.2129 C   0  0  0  0  0  0  0  0  0  0  0  0
   11.3280  -22.8968   18.9482 N   0  0  0  0  0  0  0  0  0  0  0  0
   11.2863  -21.2148   20.5482 N   0  0  0  0  0  0  0  0  0  0  0  0
   11.1377  -19.7441   20.7495 C   0  0  0  0  0  0  0  0  0  0  0  0
   12.3743  -19.3242   21.4400 C   0  0  0  0  0  0  0  0  0  0  0  0
   12.6004  -17.9372   21.7786 C   0  0  0  0  0  0  0  0  0  0  0  0
   11.6655  -17.1616   22.6305 C   0  0  2  0  0  0  0  0  0  0  0  0
   10.8581  -16.4104   21.5934 N   0  0  0  0  0  0  0  0  0  0  0  0
   12.2137  -16.1024   23.4795 C   0  0  0  0  0  0  0  0  0  0  0  0
   12.4578  -14.9207   23.1122 O   0  0  0  0  0  0  0  0  0  0  0  0
   12.4992  -16.4175   24.8349 O   0  0  0  0  0  0  0  0  0  0  0  0
  1  2  1  0
  3  2  1  0
  3  4  2  0
  6  5  1  1
  6  8  1  0
  7  6  1  0
  9  8  1  1
  9 10  1  0
 10  3  1  0
 11  9  1  0
 12 11  2  0
 13 14  1  0
 14 15  2  0
 16 14  1  0
 16 17  1  0
 17 18  1  0
 20 19  1  6
 19 18  1  0
 20 21  1  0
 21 11  1  0
 22 20  1  0
 23 22  2  0
 24 22  1  0
M  END
$$$$
