GLR.pdb
     RDKit          3D

 24 23  0  0  1  0  0  0  0  0999 V2000
    4.8807  -19.5799   23.4799 N   0  0  0  0  0  0  0  0  0  0  0  0
    5.2740  -18.9130   24.6812 C   0  0  0  0  0  0  0  0  0  0  0  0
    6.0727  -17.6648   24.4153 C   0  0  0  0  0  0  0  0  0  0  0  0
    6.3715  -17.4402   23.2289 O   0  0  0  0  0  0  0  0  0  0  0  0
    6.9518  -12.3980   25.2388 C   0  0  0  0  0  0  0  0  0  0  0  0
    7.5878  -13.3119   26.2572 C   0  0  1  0  0  0  0  0  0  0  0  0
    7.8257  -12.6906   27.5930 C   0  0  0  0  0  0  0  0  0  0  0  0
    6.8815  -14.6261   26.3909 C   0  0  0  0  0  0  0  0  0  0  0  0
    7.1460  -15.6235   25.3314 C   0  0  2  0  0  0  0  0  0  0  0  0
    6.4224  -16.8459   25.5196 N   0  0  0  0  0  0  0  0  0  0  0  0
    8.5940  -15.9465   25.1750 C   0  0  0  0  0  0  0  0  0  0  0  0
    9.1491  -16.7240   25.9890 O   0  0  0  0  0  0  0  0  0  0  0  0
   12.2737  -15.8629   18.0084 N   0  0  0  0  0  0  0  0  0  0  0  0
   12.8573  -14.9494   18.9186 C   0  0  0  0  0  0  0  0  0  0  0  0
   14.0617  -14.5892   18.7710 N   0  0  0  0  0  0  0  0  0  0  0  0
   12.0926  -14.4428   19.9925 N   0  0  0  0  0  0  0  0  0  0  0  0
   10.6847  -14.9255   20.0948 C   0  0  0  0  0  0  0  0  0  0  0  0
   10.6703  -15.8210   21.2695 C   0  0  0  0  0  0  0  0  0  0  0  0
   11.0831  -15.3448   22.5704 C   0  0  0  0  0  0  0  0  0  0  0  0
   10.7200  -16.0440   23.8277 C   0  0  2  0  0  0  0  0  0  0  0  0
    9.3794  -15.4186   24.1494 N   0  0  0  0  0  0  0  0  0  0  0  0
   11.5219  -15.7843   25.0247 C   0  0  0  0  0  0  0  0  0  0  0  0
   11.2861  -14.8939   25.8864 O   0  0  0  0  0  0  0  0  0  0  0  0
   12.6653  -16.5969   25.2483 O   0  0  0  0  0  0  0  0  0  0  0  0
  1  2  1  0
  3  2  1  0
  3  4  2  0
  6  5  1  6
  6  8  1  0
  7  6  1  0
  9  8  1  1
  9 10  1  0
 10  3  1  0
 11  9  1  0
 12 11  2  0
 13 14  1  0
 14 15  2  0
 16 14  1  0
 16 17  1  0
 17 18  1  0
 20 19  1  6
 19 18  1  0
 20 21  1  0
 21 11  1  0
 22 20  1  0
 23 22  2  0
 24 22  1  0
M  END
$$$$
