GLR.pdb
     RDKit          3D

 24 23  0  0  1  0  0  0  0  0999 V2000
    9.3994  -16.2551   20.6195 N   0  0  0  0  0  0  0  0  0  0  0  0
    8.2966  -16.1536   21.5229 C   0  0  0  0  0  0  0  0  0  0  0  0
    8.6314  -15.3604   22.7581 C   0  0  0  0  0  0  0  0  0  0  0  0
    9.8295  -15.0684   22.9213 O   0  0  0  0  0  0  0  0  0  0  0  0
    7.7319  -11.5328   26.3700 C   0  0  0  0  0  0  0  0  0  0  0  0
    6.8368  -12.7298   26.5771 C   0  0  1  0  0  0  0  0  0  0  0  0
    5.5296  -12.4278   27.2305 C   0  0  0  0  0  0  0  0  0  0  0  0
    6.6440  -13.5426   25.3337 C   0  0  0  0  0  0  0  0  0  0  0  0
    7.8275  -14.2816   24.8432 C   0  0  2  0  0  0  0  0  0  0  0  0
    7.5731  -15.0079   23.6345 N   0  0  0  0  0  0  0  0  0  0  0  0
    8.3950  -15.2216   25.8531 C   0  0  0  0  0  0  0  0  0  0  0  0
    7.7133  -16.2004   26.2435 O   0  0  0  0  0  0  0  0  0  0  0  0
   14.5960  -16.2642   25.4802 N   0  0  0  0  0  0  0  0  0  0  0  0
   14.1136  -16.2746   24.1496 C   0  0  0  0  0  0  0  0  0  0  0  0
   14.6393  -15.5213   23.2787 N   0  0  0  0  0  0  0  0  0  0  0  0
   13.0433  -17.1261   23.7971 N   0  0  0  0  0  0  0  0  0  0  0  0
   12.4630  -17.9560   24.8925 C   0  0  0  0  0  0  0  0  0  0  0  0
   11.3343  -17.1617   25.4192 C   0  0  0  0  0  0  0  0  0  0  0  0
   11.3792  -16.6014   26.7509 C   0  0  0  0  0  0  0  0  0  0  0  0
   10.1771  -16.0538   27.4266 C   0  0  2  0  0  0  0  0  0  0  0  0
    9.6706  -15.0662   26.3971 N   0  0  0  0  0  0  0  0  0  0  0  0
   10.3652  -15.2388   28.6282 C   0  0  0  0  0  0  0  0  0  0  0  0
   10.3624  -13.9781   28.6671 O   0  0  0  0  0  0  0  0  0  0  0  0
   10.5683  -15.9114   29.8628 O   0  0  0  0  0  0  0  0  0  0  0  0
  1  2  1  0
  3  2  1  0
  3  4  2  0
  6  5  1  6
  6  8  1  0
  7  6  1  0
  9  8  1  1
  9 10  1  0
 10  3  1  0
 11  9  1  0
 12 11  2  0
 13 14  1  0
 14 15  2  0
 16 14  1  0
 16 17  1  0
 17 18  1  0
 20 19  1  6
 19 18  1  0
 20 21  1  0
 21 11  1  0
 22 20  1  0
 23 22  2  0
 24 22  1  0
M  END
$$$$
