GLR.pdb
     RDKit          3D

 24 23  0  0  1  0  0  0  0  0999 V2000
    5.5565  -19.8531   26.1854 N   0  0  0  0  0  0  0  0  0  0  0  0
    6.3248  -18.8392   26.8368 C   0  0  0  0  0  0  0  0  0  0  0  0
    6.6577  -17.6892   25.9239 C   0  0  0  0  0  0  0  0  0  0  0  0
    6.4466  -17.8655   24.7108 O   0  0  0  0  0  0  0  0  0  0  0  0
    7.2256  -12.0270   27.4115 C   0  0  0  0  0  0  0  0  0  0  0  0
    6.8308  -13.2956   26.6963 C   0  0  1  0  0  0  0  0  0  0  0  0
    6.0289  -13.0901   25.4547 C   0  0  0  0  0  0  0  0  0  0  0  0
    7.9872  -14.2146   26.4465 C   0  0  0  0  0  0  0  0  0  0  0  0
    7.6927  -15.4467   25.6833 C   0  0  2  0  0  0  0  0  0  0  0  0
    7.1803  -16.5044   26.5031 N   0  0  0  0  0  0  0  0  0  0  0  0
    8.8667  -15.9616   24.9204 C   0  0  0  0  0  0  0  0  0  0  0  0
    9.7629  -16.6053   25.5182 O   0  0  0  0  0  0  0  0  0  0  0  0
    7.3322  -13.4981   19.5585 N   0  0  0  0  0  0  0  0  0  0  0  0
    8.4192  -13.4418   18.6536 C   0  0  0  0  0  0  0  0  0  0  0  0
    8.7333  -12.3441   18.1073 N   0  0  0  0  0  0  0  0  0  0  0  0
    9.1507  -14.6140   18.3608 N   0  0  0  0  0  0  0  0  0  0  0  0
    8.7819  -15.8392   19.1279 C   0  0  0  0  0  0  0  0  0  0  0  0
    9.4781  -15.7050   20.4238 C   0  0  0  0  0  0  0  0  0  0  0  0
    9.3346  -16.7120   21.4508 C   0  0  0  0  0  0  0  0  0  0  0  0
   10.0069  -16.6078   22.7694 C   0  0  2  0  0  0  0  0  0  0  0  0
    9.0233  -15.7608   23.5483 N   0  0  0  0  0  0  0  0  0  0  0  0
   11.2592  -15.8541   22.8541 C   0  0  0  0  0  0  0  0  0  0  0  0
   11.3868  -14.6960   23.3372 O   0  0  0  0  0  0  0  0  0  0  0  0
   12.4393  -16.4670   22.3545 O   0  0  0  0  0  0  0  0  0  0  0  0
  1  2  1  0
  3  2  1  0
  3  4  2  0
  6  5  1  6
  6  8  1  0
  7  6  1  0
  9  8  1  1
  9 10  1  0
 10  3  1  0
 11  9  1  0
 12 11  2  0
 13 14  1  0
 14 15  2  0
 16 14  1  0
 16 17  1  0
 17 18  1  0
 20 19  1  6
 19 18  1  0
 20 21  1  0
 21 11  1  0
 22 20  1  0
 23 22  2  0
 24 22  1  0
M  END
$$$$
