GLR.pdb
     RDKit          3D

 24 23  0  0  1  0  0  0  0  0999 V2000
    5.3448  -19.9224   25.5017 N   0  0  0  0  0  0  0  0  0  0  0  0
    6.2107  -19.0354   26.2130 C   0  0  0  0  0  0  0  0  0  0  0  0
    6.4315  -17.7355   25.4862 C   0  0  0  0  0  0  0  0  0  0  0  0
    6.1073  -17.7099   24.2855 O   0  0  0  0  0  0  0  0  0  0  0  0
    7.1675  -12.4460   27.9089 C   0  0  0  0  0  0  0  0  0  0  0  0
    6.7083  -13.5337   26.9692 C   0  0  1  0  0  0  0  0  0  0  0  0
    5.8396  -13.0671   25.8491 C   0  0  0  0  0  0  0  0  0  0  0  0
    7.8309  -14.3866   26.4629 C   0  0  0  0  0  0  0  0  0  0  0  0
    7.4592  -15.4773   25.5359 C   0  0  2  0  0  0  0  0  0  0  0  0
    6.9850  -16.6489   26.2110 N   0  0  0  0  0  0  0  0  0  0  0  0
    8.5663  -15.8723   24.6173 C   0  0  0  0  0  0  0  0  0  0  0  0
    9.3628  -16.7804   24.9579 O   0  0  0  0  0  0  0  0  0  0  0  0
    9.0265  -12.2508   18.2005 N   0  0  0  0  0  0  0  0  0  0  0  0
    8.3549  -13.3721   17.6572 C   0  0  0  0  0  0  0  0  0  0  0  0
    8.5307  -13.6903   16.4447 N   0  0  0  0  0  0  0  0  0  0  0  0
    7.4872  -14.1333   18.4710 N   0  0  0  0  0  0  0  0  0  0  0  0
    7.6024  -13.9271   19.9441 C   0  0  0  0  0  0  0  0  0  0  0  0
    8.2663  -15.1453   20.4515 C   0  0  0  0  0  0  0  0  0  0  0  0
    9.5110  -15.0622   21.1818 C   0  0  0  0  0  0  0  0  0  0  0  0
    9.7721  -15.8592   22.4058 C   0  0  2  0  0  0  0  0  0  0  0  0
    8.7662  -15.2726   23.3732 N   0  0  0  0  0  0  0  0  0  0  0  0
   11.0551  -15.6847   23.0890 C   0  0  0  0  0  0  0  0  0  0  0  0
   11.2488  -14.9799   24.1169 O   0  0  0  0  0  0  0  0  0  0  0  0
   12.1869  -16.3616   22.5611 O   0  0  0  0  0  0  0  0  0  0  0  0
  1  2  1  0
  3  2  1  0
  3  4  2  0
  6  5  1  6
  6  8  1  0
  7  6  1  0
  9  8  1  1
  9 10  1  0
 10  3  1  0
 11  9  1  0
 12 11  2  0
 13 14  1  0
 14 15  2  0
 16 14  1  0
 16 17  1  0
 17 18  1  0
 20 19  1  6
 19 18  1  0
 20 21  1  0
 21 11  1  0
 22 20  1  0
 23 22  2  0
 24 22  1  0
M  END
$$$$
