GLR.pdb
     RDKit          3D

 24 23  0  0  1  0  0  0  0  0999 V2000
    5.2675  -18.6545   21.8150 N   0  0  0  0  0  0  0  0  0  0  0  0
    5.1162  -17.9571   23.0532 C   0  0  0  0  0  0  0  0  0  0  0  0
    6.0933  -16.8212   23.2010 C   0  0  0  0  0  0  0  0  0  0  0  0
    6.9939  -16.7502   22.3458 O   0  0  0  0  0  0  0  0  0  0  0  0
    7.7401  -11.8877   24.5949 C   0  0  0  0  0  0  0  0  0  0  0  0
    7.3504  -12.7430   25.7754 C   0  0  1  0  0  0  0  0  0  0  0  0
    6.8920  -11.9825   26.9747 C   0  0  0  0  0  0  0  0  0  0  0  0
    6.3807  -13.8285   25.4210 C   0  0  0  0  0  0  0  0  0  0  0  0
    6.9070  -14.9320   24.5890 C   0  0  2  0  0  0  0  0  0  0  0  0
    5.9202  -15.9264   24.2880 N   0  0  0  0  0  0  0  0  0  0  0  0
    8.0952  -15.6064   25.1883 C   0  0  0  0  0  0  0  0  0  0  0  0
    7.9674  -16.2639   26.2496 O   0  0  0  0  0  0  0  0  0  0  0  0
    9.1349  -22.3977   21.7404 N   0  0  0  0  0  0  0  0  0  0  0  0
    9.7624  -22.5408   23.0011 C   0  0  0  0  0  0  0  0  0  0  0  0
    9.9759  -23.6946   23.4758 N   0  0  0  0  0  0  0  0  0  0  0  0
   10.1476  -21.3929   23.7282 N   0  0  0  0  0  0  0  0  0  0  0  0
    9.6756  -20.0798   23.2005 C   0  0  0  0  0  0  0  0  0  0  0  0
   10.2437  -19.0708   24.1178 C   0  0  0  0  0  0  0  0  0  0  0  0
   10.0090  -17.6602   23.9062 C   0  0  0  0  0  0  0  0  0  0  0  0
   10.3792  -16.6310   24.9087 C   0  0  2  0  0  0  0  0  0  0  0  0
    9.3674  -15.5431   24.6182 N   0  0  0  0  0  0  0  0  0  0  0  0
   11.6694  -15.9538   24.7667 C   0  0  0  0  0  0  0  0  0  0  0  0
   11.8771  -14.9042   24.0988 O   0  0  0  0  0  0  0  0  0  0  0  0
   12.7916  -16.5148   25.4328 O   0  0  0  0  0  0  0  0  0  0  0  0
  1  2  1  0
  3  2  1  0
  3  4  2  0
  6  5  1  6
  6  8  1  0
  7  6  1  0
  9  8  1  1
  9 10  1  0
 10  3  1  0
 11  9  1  0
 12 11  2  0
 13 14  1  0
 14 15  2  0
 16 14  1  0
 16 17  1  0
 17 18  1  0
 20 19  1  6
 19 18  1  0
 20 21  1  0
 21 11  1  0
 22 20  1  0
 23 22  2  0
 24 22  1  0
M  END
$$$$
