GLR.pdb
     RDKit          3D

 24 23  0  0  1  0  0  0  0  0999 V2000
    7.8929  -18.5506   16.8916 N   0  0  0  0  0  0  0  0  0  0  0  0
    7.6080  -19.5152   17.9069 C   0  0  0  0  0  0  0  0  0  0  0  0
    6.9726  -18.9016   19.1262 C   0  0  0  0  0  0  0  0  0  0  0  0
    7.3471  -17.7545   19.4284 O   0  0  0  0  0  0  0  0  0  0  0  0
    2.6257  -18.6300   19.8506 C   0  0  0  0  0  0  0  0  0  0  0  0
    2.8165  -19.2489   21.2135 C   0  0  1  0  0  0  0  0  0  0  0  0
    1.7093  -20.1479   21.6528 C   0  0  0  0  0  0  0  0  0  0  0  0
    4.1490  -19.9136   21.3766 C   0  0  0  0  0  0  0  0  0  0  0  0
    5.3309  -19.1210   20.9740 C   0  0  2  0  0  0  0  0  0  0  0  0
    6.0067  -19.6633   19.8328 N   0  0  0  0  0  0  0  0  0  0  0  0
    6.3225  -18.9422   22.0742 C   0  0  0  0  0  0  0  0  0  0  0  0
    7.2580  -19.7681   22.2084 O   0  0  0  0  0  0  0  0  0  0  0  0
    7.3284  -12.0762   27.5843 N   0  0  0  0  0  0  0  0  0  0  0  0
    8.3274  -13.0020   27.9693 C   0  0  0  0  0  0  0  0  0  0  0  0
    9.1249  -12.7194   28.9108 N   0  0  0  0  0  0  0  0  0  0  0  0
    8.4328  -14.2407   27.2990 N   0  0  0  0  0  0  0  0  0  0  0  0
    7.5019  -14.4608   26.1542 C   0  0  0  0  0  0  0  0  0  0  0  0
    7.8340  -15.8062   25.6425 C   0  0  0  0  0  0  0  0  0  0  0  0
    7.1339  -16.3613   24.5062 C   0  0  0  0  0  0  0  0  0  0  0  0
    7.2940  -17.7745   24.0834 C   0  0  2  0  0  0  0  0  0  0  0  0
    6.2631  -17.8825   22.9801 N   0  0  0  0  0  0  0  0  0  0  0  0
    6.9104  -18.8295   25.0232 C   0  0  0  0  0  0  0  0  0  0  0  0
    5.7307  -19.2093   25.2577 O   0  0  0  0  0  0  0  0  0  0  0  0
    7.9442  -19.4912   25.7383 O   0  0  0  0  0  0  0  0  0  0  0  0
  1  2  1  0
  3  2  1  0
  3  4  2  0
  6  5  1  6
  6  8  1  0
  7  6  1  0
  9  8  1  1
  9 10  1  0
 10  3  1  0
 11  9  1  0
 12 11  2  0
 13 14  1  0
 14 15  2  0
 16 14  1  0
 16 17  1  0
 17 18  1  0
 20 19  1  1
 19 18  1  0
 20 21  1  0
 21 11  1  0
 22 20  1  0
 23 22  2  0
 24 22  1  0
M  END
$$$$
