GLR.pdb
     RDKit          3D

 24 23  0  0  1  0  0  0  0  0999 V2000
    5.9857  -19.2601   26.4382 N   0  0  0  0  0  0  0  0  0  0  0  0
    5.6227  -18.8392   25.1215 C   0  0  0  0  0  0  0  0  0  0  0  0
    6.2588  -17.5301   24.7364 C   0  0  0  0  0  0  0  0  0  0  0  0
    6.0737  -17.1466   23.5675 O   0  0  0  0  0  0  0  0  0  0  0  0
    7.2960  -13.0849   28.1580 C   0  0  0  0  0  0  0  0  0  0  0  0
    6.9932  -13.8625   26.9008 C   0  0  1  0  0  0  0  0  0  0  0  0
    6.5720  -13.0297   25.7364 C   0  0  0  0  0  0  0  0  0  0  0  0
    8.0870  -14.8119   26.5182 C   0  0  0  0  0  0  0  0  0  0  0  0
    7.8117  -15.7008   25.3688 C   0  0  2  0  0  0  0  0  0  0  0  0
    7.0123  -16.8374   25.7185 N   0  0  0  0  0  0  0  0  0  0  0  0
    9.0483  -16.1802   24.6857 C   0  0  0  0  0  0  0  0  0  0  0  0
    9.6894  -17.1460   25.1665 O   0  0  0  0  0  0  0  0  0  0  0  0
    7.9998  -14.2403   16.9643 N   0  0  0  0  0  0  0  0  0  0  0  0
    8.1718  -13.5576   18.1923 C   0  0  0  0  0  0  0  0  0  0  0  0
    8.1257  -12.2931   18.2267 N   0  0  0  0  0  0  0  0  0  0  0  0
    8.3967  -14.2911   19.3781 N   0  0  0  0  0  0  0  0  0  0  0  0
    9.2886  -15.4817   19.2667 C   0  0  0  0  0  0  0  0  0  0  0  0
    9.4178  -15.9950   20.6458 C   0  0  0  0  0  0  0  0  0  0  0  0
   10.5856  -15.6943   21.4429 C   0  0  0  0  0  0  0  0  0  0  0  0
   10.7528  -16.1904   22.8313 C   0  0  2  0  0  0  0  0  0  0  0  0
    9.5389  -15.5991   23.5157 N   0  0  0  0  0  0  0  0  0  0  0  0
   11.8780  -15.6850   23.6198 C   0  0  0  0  0  0  0  0  0  0  0  0
   11.7998  -14.8344   24.5479 O   0  0  0  0  0  0  0  0  0  0  0  0
   13.1742  -16.1869   23.3264 O   0  0  0  0  0  0  0  0  0  0  0  0
  1  2  1  0
  3  2  1  0
  3  4  2  0
  6  5  1  1
  6  8  1  0
  7  6  1  0
  9  8  1  1
  9 10  1  0
 10  3  1  0
 11  9  1  0
 12 11  2  0
 13 14  1  0
 14 15  2  0
 16 14  1  0
 16 17  1  0
 17 18  1  0
 20 19  1  6
 19 18  1  0
 20 21  1  0
 21 11  1  0
 22 20  1  0
 23 22  2  0
 24 22  1  0
M  END
$$$$
