GLR.pdb
     RDKit          3D

 24 23  0  0  1  0  0  0  0  0999 V2000
    4.8991  -19.2547   22.8301 N   0  0  0  0  0  0  0  0  0  0  0  0
    5.2869  -18.6856   24.0824 C   0  0  0  0  0  0  0  0  0  0  0  0
    6.1054  -17.4325   23.9200 C   0  0  0  0  0  0  0  0  0  0  0  0
    6.8056  -17.3568   22.8946 O   0  0  0  0  0  0  0  0  0  0  0  0
    7.4389  -12.2824   24.4826 C   0  0  0  0  0  0  0  0  0  0  0  0
    7.3394  -12.9951   25.8090 C   0  0  1  0  0  0  0  0  0  0  0  0
    6.9955  -12.1178   26.9661 C   0  0  0  0  0  0  0  0  0  0  0  0
    6.4529  -14.2017   25.7637 C   0  0  0  0  0  0  0  0  0  0  0  0
    6.9480  -15.3500   24.9741 C   0  0  2  0  0  0  0  0  0  0  0  0
    6.0214  -16.4421   24.9322 N   0  0  0  0  0  0  0  0  0  0  0  0
    8.2676  -15.8629   25.4447 C   0  0  0  0  0  0  0  0  0  0  0  0
    8.3623  -16.3837   26.5826 O   0  0  0  0  0  0  0  0  0  0  0  0
    8.4528  -21.2944   21.5275 N   0  0  0  0  0  0  0  0  0  0  0  0
    9.5088  -21.6712   22.3914 C   0  0  0  0  0  0  0  0  0  0  0  0
    9.5538  -22.8448   22.8635 N   0  0  0  0  0  0  0  0  0  0  0  0
   10.5106  -20.7337   22.7265 N   0  0  0  0  0  0  0  0  0  0  0  0
   10.2731  -19.3235   22.3018 C   0  0  0  0  0  0  0  0  0  0  0  0
   10.0730  -18.5727   23.5582 C   0  0  0  0  0  0  0  0  0  0  0  0
   10.8829  -17.4162   23.8682 C   0  0  0  0  0  0  0  0  0  0  0  0
   10.6530  -16.5815   25.0732 C   0  0  2  0  0  0  0  0  0  0  0  0
    9.4256  -15.7926   24.6693 N   0  0  0  0  0  0  0  0  0  0  0  0
   11.6376  -15.5494   25.4027 C   0  0  0  0  0  0  0  0  0  0  0  0
   11.5838  -14.3423   25.0409 O   0  0  0  0  0  0  0  0  0  0  0  0
   12.7535  -15.9246   26.1976 O   0  0  0  0  0  0  0  0  0  0  0  0
  1  2  1  0
  3  2  1  0
  3  4  2  0
  6  5  1  6
  6  8  1  0
  7  6  1  0
  9  8  1  1
  9 10  1  0
 10  3  1  0
 11  9  1  0
 12 11  2  0
 13 14  1  0
 14 15  2  0
 16 14  1  0
 16 17  1  0
 17 18  1  0
 20 19  1  6
 19 18  1  0
 20 21  1  0
 21 11  1  0
 22 20  1  0
 23 22  2  0
 24 22  1  0
M  END
$$$$
