GLR.pdb
     RDKit          3D

 24 23  0  0  1  0  0  0  0  0999 V2000
    8.2894  -14.0532   19.1943 N   0  0  0  0  0  0  0  0  0  0  0  0
    7.4371  -14.5172   20.2434 C   0  0  0  0  0  0  0  0  0  0  0  0
    7.9388  -14.1323   21.6097 C   0  0  0  0  0  0  0  0  0  0  0  0
    9.1574  -13.9030   21.7083 O   0  0  0  0  0  0  0  0  0  0  0  0
    7.8534  -11.9828   26.4386 C   0  0  0  0  0  0  0  0  0  0  0  0
    6.7134  -12.9603   26.2908 C   0  0  1  0  0  0  0  0  0  0  0  0
    5.5006  -12.6332   27.0963 C   0  0  0  0  0  0  0  0  0  0  0  0
    6.3552  -13.2350   24.8624 C   0  0  0  0  0  0  0  0  0  0  0  0
    7.4263  -13.8028   24.0153 C   0  0  2  0  0  0  0  0  0  0  0  0
    7.0007  -14.0595   22.6713 N   0  0  0  0  0  0  0  0  0  0  0  0
    8.0189  -15.0526   24.5741 C   0  0  0  0  0  0  0  0  0  0  0  0
    7.3014  -16.0731   24.7124 O   0  0  0  0  0  0  0  0  0  0  0  0
   13.5288  -15.6483   20.0579 N   0  0  0  0  0  0  0  0  0  0  0  0
   12.2013  -15.1855   20.2224 C   0  0  0  0  0  0  0  0  0  0  0  0
   11.7352  -14.3054   19.4412 N   0  0  0  0  0  0  0  0  0  0  0  0
   11.3993  -15.7072   21.2614 N   0  0  0  0  0  0  0  0  0  0  0  0
   12.0165  -16.7651   22.1131 C   0  0  0  0  0  0  0  0  0  0  0  0
   10.9886  -17.0941   23.1218 C   0  0  0  0  0  0  0  0  0  0  0  0
   11.0994  -16.6095   24.4791 C   0  0  0  0  0  0  0  0  0  0  0  0
    9.9270  -16.4858   25.3800 C   0  0  2  0  0  0  0  0  0  0  0  0
    9.3569  -15.1483   24.9585 N   0  0  0  0  0  0  0  0  0  0  0  0
   10.1664  -16.3258   26.8154 C   0  0  0  0  0  0  0  0  0  0  0  0
   10.3329  -15.2277   27.4132 O   0  0  0  0  0  0  0  0  0  0  0  0
   10.2172  -17.4983   27.6158 O   0  0  0  0  0  0  0  0  0  0  0  0
  1  2  1  0
  3  2  1  0
  3  4  2  0
  6  5  1  6
  6  8  1  0
  7  6  1  0
  9  8  1  1
  9 10  1  0
 10  3  1  0
 11  9  1  0
 12 11  2  0
 13 14  1  0
 14 15  2  0
 16 14  1  0
 16 17  1  0
 17 18  1  0
 20 19  1  6
 19 18  1  0
 20 21  1  0
 21 11  1  0
 22 20  1  0
 23 22  2  0
 24 22  1  0
M  END
$$$$
