GLR.pdb
     RDKit          3D

 24 23  0  0  1  0  0  0  0  0999 V2000
    8.8102  -18.2131   16.2752 N   0  0  0  0  0  0  0  0  0  0  0  0
    8.0702  -17.8569   17.4448 C   0  0  0  0  0  0  0  0  0  0  0  0
    8.8724  -17.0191   18.4045 C   0  0  0  0  0  0  0  0  0  0  0  0
   10.1040  -17.0026   18.2301 O   0  0  0  0  0  0  0  0  0  0  0  0
    6.4604  -12.5959   20.7591 C   0  0  0  0  0  0  0  0  0  0  0  0
    7.5166  -13.4609   20.1163 C   0  0  1  0  0  0  0  0  0  0  0  0
    8.6181  -12.7093   19.4463 C   0  0  0  0  0  0  0  0  0  0  0  0
    8.0607  -14.5085   21.0385 C   0  0  0  0  0  0  0  0  0  0  0  0
    8.8865  -15.5656   20.4158 C   0  0  2  0  0  0  0  0  0  0  0  0
    8.1777  -16.3186   19.4239 N   0  0  0  0  0  0  0  0  0  0  0  0
    9.4723  -16.5152   21.4061 C   0  0  0  0  0  0  0  0  0  0  0  0
    8.7678  -17.4461   21.8668 O   0  0  0  0  0  0  0  0  0  0  0  0
   15.9957  -20.5741   24.2380 N   0  0  0  0  0  0  0  0  0  0  0  0
   15.7869  -20.5920   22.8382 C   0  0  0  0  0  0  0  0  0  0  0  0
   16.0014  -21.6508   22.1785 N   0  0  0  0  0  0  0  0  0  0  0  0
   15.3406  -19.4249   22.1797 N   0  0  0  0  0  0  0  0  0  0  0  0
   15.1248  -18.2196   23.0320 C   0  0  0  0  0  0  0  0  0  0  0  0
   13.6829  -18.2296   23.3531 C   0  0  0  0  0  0  0  0  0  0  0  0
   12.7457  -17.4449   22.5815 C   0  0  0  0  0  0  0  0  0  0  0  0
   11.2994  -17.3834   22.9069 C   0  0  2  0  0  0  0  0  0  0  0  0
   10.7900  -16.4205   21.8557 N   0  0  0  0  0  0  0  0  0  0  0  0
   10.8964  -16.7644   24.1709 C   0  0  0  0  0  0  0  0  0  0  0  0
   10.5564  -15.5592   24.3217 O   0  0  0  0  0  0  0  0  0  0  0  0
   10.8815  -17.5785   25.3349 O   0  0  0  0  0  0  0  0  0  0  0  0
  1  2  1  0
  3  2  1  0
  3  4  2  0
  6  5  1  1
  6  8  1  0
  7  6  1  0
  9  8  1  1
  9 10  1  0
 10  3  1  0
 11  9  1  0
 12 11  2  0
 13 14  1  0
 14 15  2  0
 16 14  1  0
 16 17  1  0
 17 18  1  0
 20 19  1  1
 19 18  1  0
 20 21  1  0
 21 11  1  0
 22 20  1  0
 23 22  2  0
 24 22  1  0
M  END
$$$$
