GLR.pdb
     RDKit          3D

 24 23  0  0  1  0  0  0  0  0999 V2000
    5.4626  -19.5919   23.6807 N   0  0  0  0  0  0  0  0  0  0  0  0
    6.1727  -18.8780   24.6948 C   0  0  0  0  0  0  0  0  0  0  0  0
    6.2594  -17.4020   24.4107 C   0  0  0  0  0  0  0  0  0  0  0  0
    5.7272  -17.0081   23.3576 O   0  0  0  0  0  0  0  0  0  0  0  0
    5.9172  -12.2483   26.9940 C   0  0  0  0  0  0  0  0  0  0  0  0
    7.0994  -12.9196   26.3392 C   0  0  1  0  0  0  0  0  0  0  0  0
    8.4301  -12.3863   26.7535 C   0  0  0  0  0  0  0  0  0  0  0  0
    7.0598  -14.4134   26.4432 C   0  0  0  0  0  0  0  0  0  0  0  0
    7.0027  -15.1584   25.1670 C   0  0  2  0  0  0  0  0  0  0  0  0
    6.9314  -16.5779   25.3496 N   0  0  0  0  0  0  0  0  0  0  0  0
    8.1429  -14.8524   24.2549 C   0  0  0  0  0  0  0  0  0  0  0  0
    8.5300  -13.6662   24.1199 O   0  0  0  0  0  0  0  0  0  0  0  0
    7.5476  -15.4217   18.5616 N   0  0  0  0  0  0  0  0  0  0  0  0
    7.8999  -14.2483   17.8527 C   0  0  0  0  0  0  0  0  0  0  0  0
    7.9908  -14.2733   16.5905 N   0  0  0  0  0  0  0  0  0  0  0  0
    8.1513  -13.0507   18.5578 N   0  0  0  0  0  0  0  0  0  0  0  0
    7.9711  -13.0978   20.0380 C   0  0  0  0  0  0  0  0  0  0  0  0
    9.0404  -13.9923   20.5266 C   0  0  0  0  0  0  0  0  0  0  0  0
    9.2486  -14.1950   21.9425 C   0  0  0  0  0  0  0  0  0  0  0  0
    9.8428  -15.4389   22.4912 C   0  0  2  0  0  0  0  0  0  0  0  0
    8.8155  -15.8366   23.5295 N   0  0  0  0  0  0  0  0  0  0  0  0
   11.0881  -15.3373   23.2542 C   0  0  0  0  0  0  0  0  0  0  0  0
   11.1825  -14.9772   24.4593 O   0  0  0  0  0  0  0  0  0  0  0  0
   12.3013  -15.6703   22.5944 O   0  0  0  0  0  0  0  0  0  0  0  0
  1  2  1  0
  3  2  1  0
  3  4  2  0
  6  5  1  1
  6  8  1  0
  7  6  1  0
  9  8  1  1
  9 10  1  0
 10  3  1  0
 11  9  1  0
 12 11  2  0
 13 14  1  0
 14 15  2  0
 16 14  1  0
 16 17  1  0
 17 18  1  0
 20 19  1  1
 19 18  1  0
 20 21  1  0
 21 11  1  0
 22 20  1  0
 23 22  2  0
 24 22  1  0
M  END
$$$$
