GLR.pdb
     RDKit          3D

 24 23  0  0  1  0  0  0  0  0999 V2000
    7.6964  -16.7316   20.7923 N   0  0  0  0  0  0  0  0  0  0  0  0
    7.1318  -16.4763   22.0802 C   0  0  0  0  0  0  0  0  0  0  0  0
    7.9984  -15.5807   22.9249 C   0  0  0  0  0  0  0  0  0  0  0  0
    9.1062  -15.2731   22.4500 O   0  0  0  0  0  0  0  0  0  0  0  0
    5.4319  -12.0698   26.4979 C   0  0  0  0  0  0  0  0  0  0  0  0
    6.3836  -12.5897   25.4487 C   0  0  1  0  0  0  0  0  0  0  0  0
    7.0323  -11.5355   24.6152 C   0  0  0  0  0  0  0  0  0  0  0  0
    7.3985  -13.5457   25.9966 C   0  0  0  0  0  0  0  0  0  0  0  0
    8.2406  -14.2481   25.0042 C   0  0  2  0  0  0  0  0  0  0  0  0
    7.4979  -15.1576   24.1830 N   0  0  0  0  0  0  0  0  0  0  0  0
    9.3833  -14.9851   25.6180 C   0  0  0  0  0  0  0  0  0  0  0  0
   10.1842  -14.3767   26.3686 O   0  0  0  0  0  0  0  0  0  0  0  0
   12.7561  -19.4844   29.9440 N   0  0  0  0  0  0  0  0  0  0  0  0
   11.6949  -20.4206   29.9743 C   0  0  0  0  0  0  0  0  0  0  0  0
   11.8016  -21.4780   30.6617 N   0  0  0  0  0  0  0  0  0  0  0  0
   10.5180  -20.1723   29.2340 N   0  0  0  0  0  0  0  0  0  0  0  0
   10.5844  -20.4366   27.7673 C   0  0  0  0  0  0  0  0  0  0  0  0
   11.1700  -19.2128   27.1828 C   0  0  0  0  0  0  0  0  0  0  0  0
   10.3571  -18.2933   26.4191 C   0  0  0  0  0  0  0  0  0  0  0  0
   10.8733  -16.9923   25.9268 C   0  0  2  0  0  0  0  0  0  0  0  0
    9.6124  -16.3437   25.3966 N   0  0  0  0  0  0  0  0  0  0  0  0
   11.7758  -16.9932   24.7740 C   0  0  0  0  0  0  0  0  0  0  0  0
   11.4199  -16.9869   23.5639 O   0  0  0  0  0  0  0  0  0  0  0  0
   13.1741  -17.0008   25.0242 O   0  0  0  0  0  0  0  0  0  0  0  0
  1  2  1  0
  3  2  1  0
  3  4  2  0
  6  5  1  1
  6  8  1  0
  7  6  1  0
  9  8  1  1
  9 10  1  0
 10  3  1  0
 11  9  1  0
 12 11  2  0
 13 14  1  0
 14 15  2  0
 16 14  1  0
 16 17  1  0
 17 18  1  0
 20 19  1  6
 19 18  1  0
 20 21  1  0
 21 11  1  0
 22 20  1  0
 23 22  2  0
 24 22  1  0
M  END
$$$$
