GLR.pdb
     RDKit          3D

 24 23  0  0  1  0  0  0  0  0999 V2000
    7.7422  -14.8523   19.4431 N   0  0  0  0  0  0  0  0  0  0  0  0
    6.8685  -14.7913   20.5725 C   0  0  0  0  0  0  0  0  0  0  0  0
    7.6039  -14.5293   21.8598 C   0  0  0  0  0  0  0  0  0  0  0  0
    8.7993  -14.8717   21.8947 O   0  0  0  0  0  0  0  0  0  0  0  0
    8.5914  -11.5938   26.2850 C   0  0  0  0  0  0  0  0  0  0  0  0
    7.3506  -12.4460   26.3904 C   0  0  1  0  0  0  0  0  0  0  0  0
    6.3194  -11.9347   27.3404 C   0  0  0  0  0  0  0  0  0  0  0  0
    6.7449  -12.7709   25.0594 C   0  0  0  0  0  0  0  0  0  0  0  0
    7.5208  -13.6824   24.1908 C   0  0  2  0  0  0  0  0  0  0  0  0
    6.8925  -13.9199   22.9251 N   0  0  0  0  0  0  0  0  0  0  0  0
    7.8146  -14.9976   24.8309 C   0  0  0  0  0  0  0  0  0  0  0  0
    6.8842  -15.8180   25.0213 O   0  0  0  0  0  0  0  0  0  0  0  0
   12.6248  -20.1362   21.3532 N   0  0  0  0  0  0  0  0  0  0  0  0
   12.7465  -20.8135   22.5901 C   0  0  0  0  0  0  0  0  0  0  0  0
   13.6344  -21.7028   22.7414 N   0  0  0  0  0  0  0  0  0  0  0  0
   11.8735  -20.4955   23.6538 N   0  0  0  0  0  0  0  0  0  0  0  0
   10.8211  -19.4767   23.3710 C   0  0  0  0  0  0  0  0  0  0  0  0
   11.0102  -18.4335   24.3997 C   0  0  0  0  0  0  0  0  0  0  0  0
   10.2023  -17.2349   24.3979 C   0  0  0  0  0  0  0  0  0  0  0  0
    9.3914  -16.8181   25.5684 C   0  0  2  0  0  0  0  0  0  0  0  0
    9.0966  -15.3708   25.2367 N   0  0  0  0  0  0  0  0  0  0  0  0
   10.0433  -16.7496   26.8775 C   0  0  0  0  0  0  0  0  0  0  0  0
   10.1620  -17.7081   27.6887 O   0  0  0  0  0  0  0  0  0  0  0  0
   10.5946  -15.5043   27.2815 O   0  0  0  0  0  0  0  0  0  0  0  0
  1  2  1  0
  3  2  1  0
  3  4  2  0
  6  5  1  6
  6  8  1  0
  7  6  1  0
  9  8  1  1
  9 10  1  0
 10  3  1  0
 11  9  1  0
 12 11  2  0
 13 14  1  0
 14 15  2  0
 16 14  1  0
 16 17  1  0
 17 18  1  0
 20 19  1  6
 19 18  1  0
 20 21  1  0
 21 11  1  0
 22 20  1  0
 23 22  2  0
 24 22  1  0
M  END
$$$$
