YLF.pdb
     RDKit          3D

 32 33  0  0  1  0  0  0  0  0999 V2000
   23.7686  -11.5313  -26.3949 O   0  0  0  0  0  0  0  0  0  0  0  0
   23.3688  -11.4233  -25.0590 C   0  0  0  0  0  0  0  0  0  0  0  0
   24.0958  -10.6501  -24.1852 C   0  0  0  0  0  0  0  0  0  0  0  0
   23.7123  -10.5392  -22.8786 C   0  0  0  0  0  0  0  0  0  0  0  0
   22.6073  -11.1888  -22.4196 C   0  0  0  0  0  0  0  0  0  0  0  0
   22.1732  -11.0868  -21.0174 C   0  0  0  0  0  0  0  0  0  0  0  0
   23.2219  -11.6856  -20.0863 C   0  0  2  0  0  0  0  0  0  0  0  0
   23.1278  -13.1349  -20.2625 N   0  0  0  0  0  0  0  0  0  0  0  0
   22.9183  -11.3074  -18.6906 C   0  0  0  0  0  0  0  0  0  0  0  0
   21.9981  -11.9111  -18.0823 O   0  0  0  0  0  0  0  0  0  0  0  0
   21.8379  -11.9822  -23.2618 C   0  0  0  0  0  0  0  0  0  0  0  0
   22.2405  -12.0830  -24.5804 C   0  0  0  0  0  0  0  0  0  0  0  0
   26.8699  -10.2856  -15.5005 C   0  0  0  0  0  0  0  0  0  0  0  0
   25.5270  -10.7109  -16.1207 C   0  0  1  0  0  0  0  0  0  0  0  0
   24.9385  -11.8476  -15.2953 C   0  0  0  0  0  0  0  0  0  0  0  0
   24.6362   -9.5146  -16.0128 C   0  0  0  0  0  0  0  0  0  0  0  0
   23.2856   -9.8689  -16.6499 C   0  0  2  0  0  0  0  0  0  0  0  0
   23.6036  -10.3053  -17.9961 N   0  0  0  0  0  0  0  0  0  0  0  0
   22.4914   -8.6347  -16.6028 C   0  0  0  0  0  0  0  0  0  0  0  0
   22.8002   -7.6635  -17.3091 O   0  0  0  0  0  0  0  0  0  0  0  0
   21.3700   -8.5736  -15.7458 N   0  0  0  0  0  0  0  0  0  0  0  0
   20.5661   -7.3763  -15.5642 C   0  0  1  0  0  0  0  0  0  0  0  0
   19.0930   -7.7172  -15.6162 C   0  0  0  0  0  0  0  0  0  0  0  0
   18.7029   -7.9809  -17.0118 C   0  0  0  0  0  0  0  0  0  0  0  0
   18.9753   -9.1704  -17.6770 C   0  0  0  0  0  0  0  0  0  0  0  0
   18.5912   -9.3841  -18.9613 C   0  0  0  0  0  0  0  0  0  0  0  0
   17.8953   -8.4149  -19.6877 C   0  0  0  0  0  0  0  0  0  0  0  0
   17.6161   -7.2260  -19.0435 C   0  0  0  0  0  0  0  0  0  0  0  0
   18.0068   -7.0159  -17.7493 C   0  0  0  0  0  0  0  0  0  0  0  0
   20.9110   -6.5996  -14.4009 C   0  0  0  0  0  0  0  0  0  0  0  0
   21.7299   -7.0877  -13.5427 O   0  0  0  0  0  0  0  0  0  0  0  0
   20.4466   -5.3381  -14.0874 O   0  0  0  0  0  0  0  0  0  0  0  0
  2  3  2  0
  2  1  1  0
  4  3  1  0
  5 11  1  0
  5  4  2  0
  6  7  1  0
  6  5  1  0
  7  9  1  0
  7  8  1  1
  9 10  2  0
 11 12  2  0
 12  2  1  0
 14 13  1  1
 15 14  1  0
 16 14  1  0
 17 16  1  1
 18 17  1  0
 18  9  1  0
 19 20  2  0
 19 17  1  0
 21 19  1  0
 22 21  1  0
 22 23  1  1
 23 24  1  0
 24 25  2  0
 25 26  1  0
 27 26  2  0
 28 27  1  0
 29 24  1  0
 29 28  2  0
 30 22  1  0
 31 30  2  0
 32 30  1  0
M  END
$$$$
