YLF.pdb
     RDKit          3D

 32 33  0  0  1  0  0  0  0  0999 V2000
   16.9360  -17.7959  -13.9011 O   0  0  0  0  0  0  0  0  0  0  0  0
   18.0698  -18.4817  -13.4533 C   0  0  0  0  0  0  0  0  0  0  0  0
   17.9444  -19.7455  -12.9271 C   0  0  0  0  0  0  0  0  0  0  0  0
   19.0467  -20.4224  -12.4875 C   0  0  0  0  0  0  0  0  0  0  0  0
   20.2847  -19.8608  -12.5626 C   0  0  0  0  0  0  0  0  0  0  0  0
   21.4876  -20.5678  -12.0955 C   0  0  0  0  0  0  0  0  0  0  0  0
   22.6181  -20.4306  -13.1097 C   0  0  2  0  0  0  0  0  0  0  0  0
   22.2161  -21.2353  -14.2635 N   0  0  0  0  0  0  0  0  0  0  0  0
   23.8733  -20.9456  -12.5243 C   0  0  0  0  0  0  0  0  0  0  0  0
   23.9025  -22.1238  -12.0860 O   0  0  0  0  0  0  0  0  0  0  0  0
   20.4656  -18.5865  -13.0864 C   0  0  0  0  0  0  0  0  0  0  0  0
   19.3396  -17.9163  -13.5264 C   0  0  0  0  0  0  0  0  0  0  0  0
   28.3138  -19.7232  -14.9072 C   0  0  0  0  0  0  0  0  0  0  0  0
   27.2550  -20.4934  -14.0981 C   0  0  1  0  0  0  0  0  0  0  0  0
   27.5747  -21.9814  -14.1545 C   0  0  0  0  0  0  0  0  0  0  0  0
   27.3976  -20.0145  -12.6886 C   0  0  0  0  0  0  0  0  0  0  0  0
   26.2893  -20.6665  -11.8508 C   0  0  2  0  0  0  0  0  0  0  0  0
   25.0469  -20.1908  -12.4286 N   0  0  0  0  0  0  0  0  0  0  0  0
   26.5130  -20.2066  -10.4743 C   0  0  0  0  0  0  0  0  0  0  0  0
   25.8625  -19.2546  -10.0182 O   0  0  0  0  0  0  0  0  0  0  0  0
   27.4752  -20.8677   -9.6787 N   0  0  0  0  0  0  0  0  0  0  0  0
   27.9687  -20.3407   -8.4172 C   0  0  1  0  0  0  0  0  0  0  0  0
   26.8473  -20.2597   -7.4048 C   0  0  0  0  0  0  0  0  0  0  0  0
   27.3729  -19.7251   -6.1371 C   0  0  0  0  0  0  0  0  0  0  0  0
   27.8423  -18.4260   -5.9836 C   0  0  0  0  0  0  0  0  0  0  0  0
   28.3102  -17.9626   -4.7966 C   0  0  0  0  0  0  0  0  0  0  0  0
   28.3438  -18.7706   -3.6577 C   0  0  0  0  0  0  0  0  0  0  0  0
   27.8821  -20.0650   -3.7910 C   0  0  0  0  0  0  0  0  0  0  0  0
   27.4127  -20.5268   -4.9901 C   0  0  0  0  0  0  0  0  0  0  0  0
   29.1284  -21.0222   -7.9013 C   0  0  0  0  0  0  0  0  0  0  0  0
   29.1536  -22.3046   -7.9044 O   0  0  0  0  0  0  0  0  0  0  0  0
   30.2648  -20.4342   -7.3836 O   0  0  0  0  0  0  0  0  0  0  0  0
  2  3  2  0
  2  1  1  0
  4  3  1  0
  5 11  1  0
  5  4  2  0
  6  7  1  0
  6  5  1  0
  7  9  1  0
  7  8  1  6
  9 10  2  0
 11 12  2  0
 12  2  1  0
 14 13  1  6
 15 14  1  0
 16 14  1  0
 17 16  1  6
 18 17  1  0
 18  9  1  0
 19 20  2  0
 19 17  1  0
 21 19  1  0
 22 21  1  0
 22 23  1  1
 23 24  1  0
 24 25  2  0
 25 26  1  0
 27 26  2  0
 28 27  1  0
 29 24  1  0
 29 28  2  0
 30 22  1  0
 31 30  2  0
 32 30  1  0
M  END
$$$$
