YLF.pdb
     RDKit          3D

 32 33  0  0  1  0  0  0  0  0999 V2000
   17.7563  -14.5464  -20.9233 O   0  0  0  0  0  0  0  0  0  0  0  0
   18.6021  -13.9560  -19.9787 C   0  0  0  0  0  0  0  0  0  0  0  0
   19.8524  -13.5233  -20.3521 C   0  0  0  0  0  0  0  0  0  0  0  0
   20.6849  -12.9455  -19.4357 C   0  0  0  0  0  0  0  0  0  0  0  0
   20.2933  -12.7875  -18.1414 C   0  0  0  0  0  0  0  0  0  0  0  0
   21.1706  -12.1694  -17.1348 C   0  0  0  0  0  0  0  0  0  0  0  0
   22.6345  -12.4600  -17.4482 C   0  0  2  0  0  0  0  0  0  0  0  0
   22.8202  -13.8876  -17.1878 N   0  0  0  0  0  0  0  0  0  0  0  0
   23.4997  -11.6502  -16.5656 C   0  0  0  0  0  0  0  0  0  0  0  0
   23.1923  -11.5332  -15.3519 O   0  0  0  0  0  0  0  0  0  0  0  0
   19.0399  -13.2074  -17.7129 C   0  0  0  0  0  0  0  0  0  0  0  0
   18.2108  -13.7896  -18.6534 C   0  0  0  0  0  0  0  0  0  0  0  0
   28.6256  -11.7908  -17.4291 C   0  0  0  0  0  0  0  0  0  0  0  0
   27.2844  -11.6907  -16.6808 C   0  0  1  0  0  0  0  0  0  0  0  0
   27.4994  -12.0822  -15.2248 C   0  0  0  0  0  0  0  0  0  0  0  0
   26.8918  -10.2492  -16.7479 C   0  0  0  0  0  0  0  0  0  0  0  0
   25.4688  -10.1177  -16.1881 C   0  0  2  0  0  0  0  0  0  0  0  0
   24.6565  -10.9985  -17.0054 N   0  0  0  0  0  0  0  0  0  0  0  0
   25.1203   -8.6980  -16.3263 C   0  0  0  0  0  0  0  0  0  0  0  0
   25.8369   -7.9390  -16.9954 O   0  0  0  0  0  0  0  0  0  0  0  0
   23.9556   -8.2132  -15.6902 N   0  0  0  0  0  0  0  0  0  0  0  0
   23.4833   -6.8448  -15.8211 C   0  0  1  0  0  0  0  0  0  0  0  0
   23.2894   -6.4911  -17.2793 C   0  0  0  0  0  0  0  0  0  0  0  0
   22.0029   -7.0355  -17.7460 C   0  0  0  0  0  0  0  0  0  0  0  0
   20.7764   -6.4263  -17.5092 C   0  0  0  0  0  0  0  0  0  0  0  0
   19.6098   -6.9506  -17.9638 C   0  0  0  0  0  0  0  0  0  0  0  0
   19.5787   -8.1371  -18.7004 C   0  0  0  0  0  0  0  0  0  0  0  0
   20.7878   -8.7573  -18.9450 C   0  0  0  0  0  0  0  0  0  0  0  0
   21.9603   -8.2248  -18.4833 C   0  0  0  0  0  0  0  0  0  0  0  0
   22.3258   -6.5365  -15.0209 C   0  0  0  0  0  0  0  0  0  0  0  0
   21.9321   -5.3189  -14.9327 O   0  0  0  0  0  0  0  0  0  0  0  0
   21.5560   -7.4340  -14.3087 O   0  0  0  0  0  0  0  0  0  0  0  0
  2  3  2  0
  2  1  1  0
  4  3  1  0
  5 11  1  0
  5  4  2  0
  6  7  1  0
  6  5  1  0
  7  9  1  0
  7  8  1  1
  9 10  2  0
 11 12  2  0
 12  2  1  0
 14 13  1  6
 15 14  1  0
 16 14  1  0
 17 16  1  6
 18 17  1  0
 18  9  1  0
 19 20  2  0
 19 17  1  0
 21 19  1  0
 22 21  1  0
 22 23  1  6
 23 24  1  0
 24 25  2  0
 25 26  1  0
 27 26  2  0
 28 27  1  0
 29 24  1  0
 29 28  2  0
 30 22  1  0
 31 30  2  0
 32 30  1  0
M  END
$$$$
