YLF.pdb
     RDKit          3D

 32 33  0  0  1  0  0  0  0  0999 V2000
   19.7689  -12.9224  -24.1094 O   0  0  0  0  0  0  0  0  0  0  0  0
   19.8941  -12.4994  -22.7821 C   0  0  0  0  0  0  0  0  0  0  0  0
   20.7796  -11.4978  -22.4615 C   0  0  0  0  0  0  0  0  0  0  0  0
   20.9082  -11.0785  -21.1676 C   0  0  0  0  0  0  0  0  0  0  0  0
   20.1645  -11.6416  -20.1759 C   0  0  0  0  0  0  0  0  0  0  0  0
   20.2844  -11.2092  -18.7746 C   0  0  0  0  0  0  0  0  0  0  0  0
   21.5339  -11.8046  -18.1345 C   0  0  2  0  0  0  0  0  0  0  0  0
   21.1446  -13.1350  -17.6668 N   0  0  0  0  0  0  0  0  0  0  0  0
   21.9621  -10.9566  -17.0028 C   0  0  0  0  0  0  0  0  0  0  0  0
   21.3416  -11.0375  -15.9121 O   0  0  0  0  0  0  0  0  0  0  0  0
   19.2552  -12.6568  -20.4470 C   0  0  0  0  0  0  0  0  0  0  0  0
   19.1381  -13.0684  -21.7614 C   0  0  0  0  0  0  0  0  0  0  0  0
   27.0352  -10.2251  -16.2188 C   0  0  0  0  0  0  0  0  0  0  0  0
   25.5188  -10.3994  -16.0212 C   0  0  1  0  0  0  0  0  0  0  0  0
   25.2619  -10.9548  -14.6265 C   0  0  0  0  0  0  0  0  0  0  0  0
   24.9392   -9.0240  -16.1155 C   0  0  0  0  0  0  0  0  0  0  0  0
   23.4125   -9.1437  -16.0135 C   0  0  2  0  0  0  0  0  0  0  0  0
   23.0318  -10.0582  -17.0731 N   0  0  0  0  0  0  0  0  0  0  0  0
   22.8968   -7.7813  -16.1977 C   0  0  0  0  0  0  0  0  0  0  0  0
   23.0719   -7.1846  -17.2704 O   0  0  0  0  0  0  0  0  0  0  0  0
   22.1957   -7.1647  -15.1374 N   0  0  0  0  0  0  0  0  0  0  0  0
   21.6574   -5.8166  -15.2114 C   0  0  1  0  0  0  0  0  0  0  0  0
   20.1535   -5.8396  -15.0477 C   0  0  0  0  0  0  0  0  0  0  0  0
   19.5354   -6.3316  -16.2907 C   0  0  0  0  0  0  0  0  0  0  0  0
   19.4082   -5.5665  -17.4440 C   0  0  0  0  0  0  0  0  0  0  0  0
   18.8424   -6.0558  -18.5767 C   0  0  0  0  0  0  0  0  0  0  0  0
   18.3560   -7.3634  -18.6456 C   0  0  0  0  0  0  0  0  0  0  0  0
   18.4730   -8.1387  -17.5091 C   0  0  0  0  0  0  0  0  0  0  0  0
   19.0432   -7.6398  -16.3700 C   0  0  0  0  0  0  0  0  0  0  0  0
   22.2933   -4.8733  -14.3276 C   0  0  0  0  0  0  0  0  0  0  0  0
   23.0947   -5.3046  -13.4237 O   0  0  0  0  0  0  0  0  0  0  0  0
   22.1375   -3.5018  -14.3393 O   0  0  0  0  0  0  0  0  0  0  0  0
  2  3  2  0
  2  1  1  0
  4  3  1  0
  5 11  1  0
  5  4  2  0
  6  7  1  0
  6  5  1  0
  7  9  1  0
  7  8  1  1
  9 10  2  0
 11 12  2  0
 12  2  1  0
 14 13  1  1
 15 14  1  0
 16 14  1  0
 17 16  1  6
 18 17  1  0
 18  9  1  0
 19 20  2  0
 19 17  1  0
 21 19  1  0
 22 21  1  0
 22 23  1  1
 23 24  1  0
 24 25  2  0
 25 26  1  0
 27 26  2  0
 28 27  1  0
 29 24  1  0
 29 28  2  0
 30 22  1  0
 31 30  2  0
 32 30  1  0
M  END
$$$$
