YLF.pdb
     RDKit          3D

 32 33  0  0  1  0  0  0  0  0999 V2000
   16.4690  -11.5490  -24.4511 O   0  0  0  0  0  0  0  0  0  0  0  0
   17.3329  -11.0499  -23.4709 C   0  0  0  0  0  0  0  0  0  0  0  0
   17.8021   -9.7608  -23.5611 C   0  0  0  0  0  0  0  0  0  0  0  0
   18.6463   -9.2654  -22.6080 C   0  0  0  0  0  0  0  0  0  0  0  0
   19.0364  -10.0353  -21.5550 C   0  0  0  0  0  0  0  0  0  0  0  0
   19.9450   -9.5264  -20.5157 C   0  0  0  0  0  0  0  0  0  0  0  0
   21.3554   -9.3597  -21.0710 C   0  0  2  0  0  0  0  0  0  0  0  0
   21.8612  -10.7160  -21.2832 N   0  0  0  0  0  0  0  0  0  0  0  0
   22.1913   -8.6370  -20.0900 C   0  0  0  0  0  0  0  0  0  0  0  0
   22.7415   -9.2854  -19.1637 O   0  0  0  0  0  0  0  0  0  0  0  0
   18.5904  -11.3441  -21.4171 C   0  0  0  0  0  0  0  0  0  0  0  0
   17.7370  -11.8289  -22.3905 C   0  0  0  0  0  0  0  0  0  0  0  0
   25.6247   -5.2012  -18.5585 C   0  0  0  0  0  0  0  0  0  0  0  0
   24.3694   -4.3804  -18.9044 C   0  0  1  0  0  0  0  0  0  0  0  0
   24.7958   -3.0898  -19.5916 C   0  0  0  0  0  0  0  0  0  0  0  0
   23.5941   -5.2175  -19.8711 C   0  0  0  0  0  0  0  0  0  0  0  0
   23.1884   -6.5144  -19.1577 C   0  0  2  0  0  0  0  0  0  0  0  0
   22.4110   -7.2563  -20.1320 N   0  0  0  0  0  0  0  0  0  0  0  0
   22.4139   -6.0931  -17.9835 C   0  0  0  0  0  0  0  0  0  0  0  0
   21.4565   -5.3154  -18.1104 O   0  0  0  0  0  0  0  0  0  0  0  0
   22.7730   -6.5907  -16.7110 N   0  0  0  0  0  0  0  0  0  0  0  0
   22.0444   -6.2749  -15.4936 C   0  0  1  0  0  0  0  0  0  0  0  0
   21.4341   -7.5275  -14.9043 C   0  0  0  0  0  0  0  0  0  0  0  0
   22.3928   -8.6393  -15.0235 C   0  0  0  0  0  0  0  0  0  0  0  0
   23.5220   -8.7728  -14.2242 C   0  0  0  0  0  0  0  0  0  0  0  0
   24.3795   -9.8171  -14.3541 C   0  0  0  0  0  0  0  0  0  0  0  0
   24.1712  -10.8212  -15.3026 C   0  0  0  0  0  0  0  0  0  0  0  0
   23.0547  -10.7052  -16.1065 C   0  0  0  0  0  0  0  0  0  0  0  0
   22.1946   -9.6498  -15.9718 C   0  0  0  0  0  0  0  0  0  0  0  0
   22.8017   -5.5231  -14.5257 C   0  0  0  0  0  0  0  0  0  0  0  0
   24.0627   -5.3677  -14.7016 O   0  0  0  0  0  0  0  0  0  0  0  0
   22.3104   -4.9232  -13.3837 O   0  0  0  0  0  0  0  0  0  0  0  0
  2  3  2  0
  2  1  1  0
  4  3  1  0
  5 11  1  0
  5  4  2  0
  6  7  1  0
  6  5  1  0
  7  9  1  0
  7  8  1  1
  9 10  2  0
 11 12  2  0
 12  2  1  0
 14 13  1  6
 15 14  1  0
 16 14  1  0
 17 16  1  6
 18 17  1  0
 18  9  1  0
 19 20  2  0
 19 17  1  0
 21 19  1  0
 22 21  1  0
 22 23  1  1
 23 24  1  0
 24 25  2  0
 25 26  1  0
 27 26  2  0
 28 27  1  0
 29 24  1  0
 29 28  2  0
 30 22  1  0
 31 30  2  0
 32 30  1  0
M  END
$$$$
