YLF.pdb
     RDKit          3D

 32 33  0  0  1  0  0  0  0  0999 V2000
   24.4495   -8.6732  -25.4348 O   0  0  0  0  0  0  0  0  0  0  0  0
   24.1692   -9.7622  -24.6032 C   0  0  0  0  0  0  0  0  0  0  0  0
   24.0634   -9.5793  -23.2448 C   0  0  0  0  0  0  0  0  0  0  0  0
   23.7897  -10.6377  -22.4253 C   0  0  0  0  0  0  0  0  0  0  0  0
   23.6166  -11.8877  -22.9363 C   0  0  0  0  0  0  0  0  0  0  0  0
   23.3220  -13.0443  -22.0759 C   0  0  0  0  0  0  0  0  0  0  0  0
   24.6116  -13.7362  -21.6472 C   0  0  2  0  0  0  0  0  0  0  0  0
   25.1161  -14.4115  -22.8430 N   0  0  0  0  0  0  0  0  0  0  0  0
   24.3172  -14.7138  -20.5791 C   0  0  0  0  0  0  0  0  0  0  0  0
   24.0504  -15.9009  -20.8965 O   0  0  0  0  0  0  0  0  0  0  0  0
   23.7127  -12.1258  -24.3020 C   0  0  0  0  0  0  0  0  0  0  0  0
   23.9900  -11.0437  -25.1161 C   0  0  0  0  0  0  0  0  0  0  0  0
   27.0047  -14.3303  -15.9871 C   0  0  0  0  0  0  0  0  0  0  0  0
   26.2856  -14.7855  -17.2695 C   0  0  1  0  0  0  0  0  0  0  0  0
   26.7233  -16.2052  -17.6051 C   0  0  0  0  0  0  0  0  0  0  0  0
   24.8280  -14.7881  -16.9351 C   0  0  0  0  0  0  0  0  0  0  0  0
   24.0635  -15.3380  -18.1470 C   0  0  2  0  0  0  0  0  0  0  0  0
   24.3190  -14.3933  -19.2176 N   0  0  0  0  0  0  0  0  0  0  0  0
   22.6556  -15.3930  -17.7335 C   0  0  0  0  0  0  0  0  0  0  0  0
   22.0774  -14.3690  -17.3405 O   0  0  0  0  0  0  0  0  0  0  0  0
   21.9710  -16.6273  -17.7949 N   0  0  0  0  0  0  0  0  0  0  0  0
   20.5852  -16.7945  -17.3898 C   0  0  1  0  0  0  0  0  0  0  0  0
   19.7122  -17.0646  -18.5956 C   0  0  0  0  0  0  0  0  0  0  0  0
   19.6150  -15.8416  -19.4105 C   0  0  0  0  0  0  0  0  0  0  0  0
   20.5320  -15.4969  -20.3963 C   0  0  0  0  0  0  0  0  0  0  0  0
   20.4057  -14.3662  -21.1368 C   0  0  0  0  0  0  0  0  0  0  0  0
   19.3396  -13.4836  -20.9483 C   0  0  0  0  0  0  0  0  0  0  0  0
   18.4185  -13.8090  -19.9726 C   0  0  0  0  0  0  0  0  0  0  0  0
   18.5517  -14.9494  -19.2286 C   0  0  0  0  0  0  0  0  0  0  0  0
   20.3856  -17.7587  -16.3382 C   0  0  0  0  0  0  0  0  0  0  0  0
   21.3902  -18.4268  -15.9027 O   0  0  0  0  0  0  0  0  0  0  0  0
   19.1912  -18.0607  -15.7156 O   0  0  0  0  0  0  0  0  0  0  0  0
  2  3  2  0
  2  1  1  0
  4  3  1  0
  5 11  1  0
  5  4  2  0
  6  7  1  0
  6  5  1  0
  7  9  1  0
  7  8  1  6
  9 10  2  0
 11 12  2  0
 12  2  1  0
 14 13  1  1
 15 14  1  0
 16 14  1  0
 17 16  1  1
 18 17  1  0
 18  9  1  0
 19 20  2  0
 19 17  1  0
 21 19  1  0
 22 21  1  0
 22 23  1  6
 23 24  1  0
 24 25  2  0
 25 26  1  0
 27 26  2  0
 28 27  1  0
 29 24  1  0
 29 28  2  0
 30 22  1  0
 31 30  2  0
 32 30  1  0
M  END
$$$$
