YLF.pdb
     RDKit          3D

 32 33  0  0  1  0  0  0  0  0999 V2000
   23.0758  -23.3029  -24.0842 O   0  0  0  0  0  0  0  0  0  0  0  0
   23.5738  -23.2463  -22.7784 C   0  0  0  0  0  0  0  0  0  0  0  0
   23.3697  -22.1220  -22.0140 C   0  0  0  0  0  0  0  0  0  0  0  0
   23.8527  -22.0584  -20.7376 C   0  0  0  0  0  0  0  0  0  0  0  0
   24.5414  -23.1030  -20.2007 C   0  0  0  0  0  0  0  0  0  0  0  0
   25.0727  -23.0597  -18.8293 C   0  0  0  0  0  0  0  0  0  0  0  0
   25.9459  -21.8254  -18.6310 C   0  0  2  0  0  0  0  0  0  0  0  0
   27.2616  -22.1804  -19.1635 N   0  0  0  0  0  0  0  0  0  0  0  0
   26.0329  -21.5069  -17.1908 C   0  0  0  0  0  0  0  0  0  0  0  0
   26.6727  -22.2803  -16.4334 O   0  0  0  0  0  0  0  0  0  0  0  0
   24.7743  -24.2620  -20.9310 C   0  0  0  0  0  0  0  0  0  0  0  0
   24.2785  -24.3091  -22.2205 C   0  0  0  0  0  0  0  0  0  0  0  0
   26.9240  -16.5422  -15.7485 C   0  0  0  0  0  0  0  0  0  0  0  0
   26.8344  -18.0682  -15.9282 C   0  0  1  0  0  0  0  0  0  0  0  0
   28.0512  -18.7152  -15.2800 C   0  0  0  0  0  0  0  0  0  0  0  0
   25.6038  -18.4895  -15.1903 C   0  0  0  0  0  0  0  0  0  0  0  0
   25.5394  -20.0228  -15.2102 C   0  0  2  0  0  0  0  0  0  0  0  0
   25.4390  -20.3804  -16.6123 N   0  0  0  0  0  0  0  0  0  0  0  0
   24.3504  -20.3779  -14.4251 C   0  0  0  0  0  0  0  0  0  0  0  0
   23.2170  -20.0982  -14.8430 O   0  0  0  0  0  0  0  0  0  0  0  0
   24.5180  -21.0459  -13.1916 N   0  0  0  0  0  0  0  0  0  0  0  0
   23.4205  -21.3386  -12.2847 C   0  0  1  0  0  0  0  0  0  0  0  0
   23.9006  -22.1982  -11.1360 C   0  0  0  0  0  0  0  0  0  0  0  0
   24.9493  -21.4782  -10.3936 C   0  0  0  0  0  0  0  0  0  0  0  0
   26.3098  -21.6456  -10.6233 C   0  0  0  0  0  0  0  0  0  0  0  0
   27.2499  -20.9569   -9.9273 C   0  0  0  0  0  0  0  0  0  0  0  0
   26.8988  -20.0356   -8.9377 C   0  0  0  0  0  0  0  0  0  0  0  0
   25.5515  -19.8564   -8.6949 C   0  0  0  0  0  0  0  0  0  0  0  0
   24.6085  -20.5541   -9.3988 C   0  0  0  0  0  0  0  0  0  0  0  0
   22.6931  -20.1782  -11.8378 C   0  0  0  0  0  0  0  0  0  0  0  0
   21.5619  -20.3351  -11.2540 O   0  0  0  0  0  0  0  0  0  0  0  0
   23.0863  -18.8613  -11.9672 O   0  0  0  0  0  0  0  0  0  0  0  0
  2  3  2  0
  2  1  1  0
  4  3  1  0
  5 11  1  0
  5  4  2  0
  6  7  1  0
  6  5  1  0
  7  9  1  0
  7  8  1  1
  9 10  2  0
 11 12  2  0
 12  2  1  0
 14 13  1  1
 15 14  1  0
 16 14  1  0
 17 16  1  6
 18 17  1  0
 18  9  1  0
 19 20  2  0
 19 17  1  0
 21 19  1  0
 22 21  1  0
 22 23  1  1
 23 24  1  0
 24 25  2  0
 25 26  1  0
 27 26  2  0
 28 27  1  0
 29 24  1  0
 29 28  2  0
 30 22  1  0
 31 30  2  0
 32 30  1  0
M  END
$$$$
