YLF.pdb
     RDKit          3D

 32 33  0  0  1  0  0  0  0  0999 V2000
   17.3631  -18.1575  -12.3773 O   0  0  0  0  0  0  0  0  0  0  0  0
   18.5982  -18.8109  -12.3156 C   0  0  0  0  0  0  0  0  0  0  0  0
   19.7416  -18.0943  -12.0527 C   0  0  0  0  0  0  0  0  0  0  0  0
   20.9521  -18.7247  -11.9906 C   0  0  0  0  0  0  0  0  0  0  0  0
   21.0483  -20.0686  -12.1863 C   0  0  0  0  0  0  0  0  0  0  0  0
   22.3395  -20.7715  -12.1257 C   0  0  0  0  0  0  0  0  0  0  0  0
   23.2960  -20.2282  -13.1818 C   0  0  2  0  0  0  0  0  0  0  0  0
   22.6979  -20.5701  -14.4725 N   0  0  0  0  0  0  0  0  0  0  0  0
   24.6174  -20.8719  -13.0305 C   0  0  0  0  0  0  0  0  0  0  0  0
   24.6996  -22.1233  -13.1227 O   0  0  0  0  0  0  0  0  0  0  0  0
   19.9230  -20.8385  -12.4546 C   0  0  0  0  0  0  0  0  0  0  0  0
   18.7068  -20.1843  -12.5136 C   0  0  0  0  0  0  0  0  0  0  0  0
   28.9264  -18.3112  -14.7826 C   0  0  0  0  0  0  0  0  0  0  0  0
   27.9138  -19.4167  -14.4340 C   0  0  1  0  0  0  0  0  0  0  0  0
   28.2443  -20.6638  -15.2436 C   0  0  0  0  0  0  0  0  0  0  0  0
   28.1179  -19.7070  -12.9813 C   0  0  0  0  0  0  0  0  0  0  0  0
   27.0950  -20.7712  -12.5611 C   0  0  2  0  0  0  0  0  0  0  0  0
   25.7984  -20.1624  -12.7891 N   0  0  0  0  0  0  0  0  0  0  0  0
   27.3743  -21.0502  -11.1468 C   0  0  0  0  0  0  0  0  0  0  0  0
   28.3742  -21.7083  -10.8235 O   0  0  0  0  0  0  0  0  0  0  0  0
   26.4904  -20.5539  -10.1628 N   0  0  0  0  0  0  0  0  0  0  0  0
   26.7057  -20.7234   -8.7353 C   0  0  1  0  0  0  0  0  0  0  0  0
   27.8154  -19.8128   -8.2577 C   0  0  0  0  0  0  0  0  0  0  0  0
   27.9447  -19.9280   -6.7950 C   0  0  0  0  0  0  0  0  0  0  0  0
   27.2801  -19.1035   -5.8949 C   0  0  0  0  0  0  0  0  0  0  0  0
   27.4140  -19.2447   -4.5515 C   0  0  0  0  0  0  0  0  0  0  0  0
   28.2304  -20.2335   -3.9975 C   0  0  0  0  0  0  0  0  0  0  0  0
   28.8995  -21.0620   -4.8764 C   0  0  0  0  0  0  0  0  0  0  0  0
   28.7615  -20.9142   -6.2294 C   0  0  0  0  0  0  0  0  0  0  0  0
   25.5130  -20.6045   -7.9361 C   0  0  0  0  0  0  0  0  0  0  0  0
   25.4565  -21.2031   -6.8032 O   0  0  0  0  0  0  0  0  0  0  0  0
   24.3759  -19.8910   -8.2575 O   0  0  0  0  0  0  0  0  0  0  0  0
  2  3  2  0
  2  1  1  0
  4  3  1  0
  5 11  1  0
  5  4  2  0
  6  7  1  0
  6  5  1  0
  7  9  1  0
  7  8  1  6
  9 10  2  0
 11 12  2  0
 12  2  1  0
 14 13  1  6
 15 14  1  0
 16 14  1  0
 17 16  1  1
 18 17  1  0
 18  9  1  0
 19 20  2  0
 19 17  1  0
 21 19  1  0
 22 21  1  0
 22 23  1  1
 23 24  1  0
 24 25  2  0
 25 26  1  0
 27 26  2  0
 28 27  1  0
 29 24  1  0
 29 28  2  0
 30 22  1  0
 31 30  2  0
 32 30  1  0
M  END
$$$$
