YLF.pdb
     RDKit          3D

 32 33  0  0  1  0  0  0  0  0999 V2000
   20.6786  -16.2376  -16.3376 O   0  0  0  0  0  0  0  0  0  0  0  0
   21.4600  -17.1007  -15.5625 C   0  0  0  0  0  0  0  0  0  0  0  0
   22.7046  -16.7027  -15.1353 C   0  0  0  0  0  0  0  0  0  0  0  0
   23.4744  -17.5395  -14.3777 C   0  0  0  0  0  0  0  0  0  0  0  0
   23.0250  -18.7774  -14.0325 C   0  0  0  0  0  0  0  0  0  0  0  0
   23.8342  -19.6980  -13.2185 C   0  0  0  0  0  0  0  0  0  0  0  0
   25.1769  -19.9681  -13.8892 C   0  0  2  0  0  0  0  0  0  0  0  0
   24.8592  -20.5536  -15.1918 N   0  0  0  0  0  0  0  0  0  0  0  0
   25.9593  -20.9143  -13.0670 C   0  0  0  0  0  0  0  0  0  0  0  0
   25.5924  -22.1155  -13.0055 O   0  0  0  0  0  0  0  0  0  0  0  0
   21.7745  -19.2274  -14.4383 C   0  0  0  0  0  0  0  0  0  0  0  0
   21.0093  -18.3678  -15.2039 C   0  0  0  0  0  0  0  0  0  0  0  0
   31.0355  -19.7512  -12.7499 C   0  0  0  0  0  0  0  0  0  0  0  0
   29.6825  -20.4741  -12.8752 C   0  0  1  0  0  0  0  0  0  0  0  0
   29.8753  -21.7480  -13.6874 C   0  0  0  0  0  0  0  0  0  0  0  0
   29.2888  -20.8377  -11.4791 C   0  0  0  0  0  0  0  0  0  0  0  0
   27.8841  -21.4541  -11.5268 C   0  0  2  0  0  0  0  0  0  0  0  0
   27.0997  -20.5487  -12.3446 N   0  0  0  0  0  0  0  0  0  0  0  0
   27.4364  -21.5242  -10.1301 C   0  0  0  0  0  0  0  0  0  0  0  0
   27.9733  -22.3134   -9.3388 O   0  0  0  0  0  0  0  0  0  0  0  0
   26.3901  -20.6766   -9.7025 N   0  0  0  0  0  0  0  0  0  0  0  0
   25.7865  -20.7542   -8.3825 C   0  0  1  0  0  0  0  0  0  0  0  0
   25.9991  -19.4599   -7.6286 C   0  0  0  0  0  0  0  0  0  0  0  0
   27.1201  -19.6227   -6.6872 C   0  0  0  0  0  0  0  0  0  0  0  0
   27.1520  -20.5854   -5.6852 C   0  0  0  0  0  0  0  0  0  0  0  0
   28.2071  -20.7146   -4.8411 C   0  0  0  0  0  0  0  0  0  0  0  0
   29.3256  -19.8832   -4.9354 C   0  0  0  0  0  0  0  0  0  0  0  0
   29.3117  -18.9200   -5.9245 C   0  0  0  0  0  0  0  0  0  0  0  0
   28.2450  -18.7937   -6.7717 C   0  0  0  0  0  0  0  0  0  0  0  0
   24.4076  -21.1713   -8.3830 C   0  0  0  0  0  0  0  0  0  0  0  0
   23.7943  -21.3070   -7.2647 O   0  0  0  0  0  0  0  0  0  0  0  0
   23.6343  -21.4527   -9.4913 O   0  0  0  0  0  0  0  0  0  0  0  0
  2  3  2  0
  2  1  1  0
  4  3  1  0
  5 11  1  0
  5  4  2  0
  6  7  1  0
  6  5  1  0
  7  9  1  0
  7  8  1  6
  9 10  2  0
 11 12  2  0
 12  2  1  0
 14 13  1  1
 15 14  1  0
 16 14  1  0
 17 16  1  1
 18 17  1  0
 18  9  1  0
 19 20  2  0
 19 17  1  0
 21 19  1  0
 22 21  1  0
 22 23  1  6
 23 24  1  0
 24 25  2  0
 25 26  1  0
 27 26  2  0
 28 27  1  0
 29 24  1  0
 29 28  2  0
 30 22  1  0
 31 30  2  0
 32 30  1  0
M  END
$$$$
