YLF.pdb
     RDKit          3D

 32 33  0  0  1  0  0  0  0  0999 V2000
   21.3897  -22.6870   -7.0123 O   0  0  0  0  0  0  0  0  0  0  0  0
   22.2482  -21.9835   -7.8634 C   0  0  0  0  0  0  0  0  0  0  0  0
   21.8921  -21.7697   -9.1739 C   0  0  0  0  0  0  0  0  0  0  0  0
   22.7248  -21.0835  -10.0120 C   0  0  0  0  0  0  0  0  0  0  0  0
   23.9172  -20.6000   -9.5669 C   0  0  0  0  0  0  0  0  0  0  0  0
   24.8323  -19.8587  -10.4488 C   0  0  0  0  0  0  0  0  0  0  0  0
   25.4049  -20.7781  -11.5222 C   0  0  2  0  0  0  0  0  0  0  0  0
   26.4433  -21.5657  -10.8575 N   0  0  0  0  0  0  0  0  0  0  0  0
   25.9822  -19.9657  -12.6131 C   0  0  0  0  0  0  0  0  0  0  0  0
   27.1586  -19.5369  -12.4964 O   0  0  0  0  0  0  0  0  0  0  0  0
   24.3236  -20.7886   -8.2515 C   0  0  0  0  0  0  0  0  0  0  0  0
   23.4688  -21.4849   -7.4176 C   0  0  0  0  0  0  0  0  0  0  0  0
   28.3099  -17.9392  -16.0749 C   0  0  0  0  0  0  0  0  0  0  0  0
   27.6452  -19.2270  -16.5933 C   0  0  1  0  0  0  0  0  0  0  0  0
   28.7222  -20.1533  -17.1425 C   0  0  0  0  0  0  0  0  0  0  0  0
   27.0137  -19.8645  -15.3970 C   0  0  0  0  0  0  0  0  0  0  0  0
   25.8693  -18.9578  -14.9240 C   0  0  2  0  0  0  0  0  0  0  0  0
   25.2892  -19.6420  -13.7841 N   0  0  0  0  0  0  0  0  0  0  0  0
   24.9573  -18.8437  -16.0692 C   0  0  0  0  0  0  0  0  0  0  0  0
   24.5487  -19.8608  -16.6487 O   0  0  0  0  0  0  0  0  0  0  0  0
   24.5502  -17.5598  -16.4958 N   0  0  0  0  0  0  0  0  0  0  0  0
   23.2740  -17.2984  -17.1406 C   0  0  1  0  0  0  0  0  0  0  0  0
   22.5838  -16.1219  -16.4861 C   0  0  0  0  0  0  0  0  0  0  0  0
   21.2630  -15.9246  -17.1073 C   0  0  0  0  0  0  0  0  0  0  0  0
   20.0959  -16.5195  -16.6431 C   0  0  0  0  0  0  0  0  0  0  0  0
   18.8924  -16.3069  -17.2339 C   0  0  0  0  0  0  0  0  0  0  0  0
   18.7607  -15.4719  -18.3460 C   0  0  0  0  0  0  0  0  0  0  0  0
   19.9097  -14.8724  -18.8220 C   0  0  0  0  0  0  0  0  0  0  0  0
   21.1201  -15.0914  -18.2231 C   0  0  0  0  0  0  0  0  0  0  0  0
   23.3480  -17.1665  -18.5732 C   0  0  0  0  0  0  0  0  0  0  0  0
   24.3088  -16.4927  -19.0909 O   0  0  0  0  0  0  0  0  0  0  0  0
   22.4713  -17.7032  -19.4945 O   0  0  0  0  0  0  0  0  0  0  0  0
  2  3  2  0
  2  1  1  0
  4  3  1  0
  5 11  1  0
  5  4  2  0
  6  7  1  0
  6  5  1  0
  7  9  1  0
  7  8  1  1
  9 10  2  0
 11 12  2  0
 12  2  1  0
 14 13  1  1
 15 14  1  0
 16 14  1  0
 17 16  1  6
 18 17  1  0
 18  9  1  0
 19 20  2  0
 19 17  1  0
 21 19  1  0
 22 21  1  0
 22 23  1  1
 23 24  1  0
 24 25  2  0
 25 26  1  0
 27 26  2  0
 28 27  1  0
 29 24  1  0
 29 28  2  0
 30 22  1  0
 31 30  2  0
 32 30  1  0
M  END
$$$$
