YLF.pdb
     RDKit          3D

 32 33  0  0  1  0  0  0  0  0999 V2000
   13.4833  -23.2668  -19.0500 O   0  0  0  0  0  0  0  0  0  0  0  0
   13.7023  -21.9456  -18.6465 C   0  0  0  0  0  0  0  0  0  0  0  0
   14.5563  -21.1414  -19.3633 C   0  0  0  0  0  0  0  0  0  0  0  0
   14.7759  -19.8498  -18.9762 C   0  0  0  0  0  0  0  0  0  0  0  0
   14.1552  -19.3367  -17.8784 C   0  0  0  0  0  0  0  0  0  0  0  0
   14.3748  -17.9496  -17.4396 C   0  0  0  0  0  0  0  0  0  0  0  0
   15.8429  -17.7219  -17.0957 C   0  0  2  0  0  0  0  0  0  0  0  0
   16.0733  -18.4419  -15.8431 N   0  0  0  0  0  0  0  0  0  0  0  0
   16.0919  -16.2759  -16.9215 C   0  0  0  0  0  0  0  0  0  0  0  0
   15.6923  -15.7111  -15.8714 O   0  0  0  0  0  0  0  0  0  0  0  0
   13.2825  -20.1074  -17.1199 C   0  0  0  0  0  0  0  0  0  0  0  0
   13.0721  -21.4118  -17.5261 C   0  0  0  0  0  0  0  0  0  0  0  0
   20.4673  -14.2188  -19.2493 C   0  0  0  0  0  0  0  0  0  0  0  0
   19.3589  -14.5252  -18.2263 C   0  0  1  0  0  0  0  0  0  0  0  0
   19.7861  -14.0008  -16.8617 C   0  0  0  0  0  0  0  0  0  0  0  0
   18.1594  -13.7626  -18.6908 C   0  0  0  0  0  0  0  0  0  0  0  0
   17.0022  -14.0650  -17.7290 C   0  0  2  0  0  0  0  0  0  0  0  0
   16.7556  -15.4877  -17.8673 N   0  0  0  0  0  0  0  0  0  0  0  0
   15.8845  -13.2268  -18.1807 C   0  0  0  0  0  0  0  0  0  0  0  0
   15.3252  -13.4580  -19.2629 O   0  0  0  0  0  0  0  0  0  0  0  0
   15.4546  -12.1585  -17.3623 N   0  0  0  0  0  0  0  0  0  0  0  0
   14.3103  -11.3195  -17.6775 C   0  0  1  0  0  0  0  0  0  0  0  0
   13.0491  -11.9001  -17.0764 C   0  0  0  0  0  0  0  0  0  0  0  0
   11.9022  -11.0476  -17.4327 C   0  0  0  0  0  0  0  0  0  0  0  0
   11.3039  -11.0445  -18.6871 C   0  0  0  0  0  0  0  0  0  0  0  0
   10.2402  -10.2530  -18.9782 C   0  0  0  0  0  0  0  0  0  0  0  0
    9.6847   -9.3948  -18.0262 C   0  0  0  0  0  0  0  0  0  0  0  0
   10.2663   -9.3836  -16.7740 C   0  0  0  0  0  0  0  0  0  0  0  0
   11.3389  -10.1828  -16.4869 C   0  0  0  0  0  0  0  0  0  0  0  0
   14.4859   -9.9274  -17.3508 C   0  0  0  0  0  0  0  0  0  0  0  0
   15.4282   -9.5866  -16.5501 O   0  0  0  0  0  0  0  0  0  0  0  0
   13.7296   -8.8715  -17.8182 O   0  0  0  0  0  0  0  0  0  0  0  0
  2  3  2  0
  2  1  1  0
  4  3  1  0
  5 11  1  0
  5  4  2  0
  6  7  1  0
  6  5  1  0
  7  9  1  0
  7  8  1  1
  9 10  2  0
 11 12  2  0
 12  2  1  0
 14 13  1  6
 15 14  1  0
 16 14  1  0
 17 16  1  6
 18 17  1  0
 18  9  1  0
 19 20  2  0
 19 17  1  0
 21 19  1  0
 22 21  1  0
 22 23  1  1
 23 24  1  0
 24 25  2  0
 25 26  1  0
 27 26  2  0
 28 27  1  0
 29 24  1  0
 29 28  2  0
 30 22  1  0
 31 30  2  0
 32 30  1  0
M  END
$$$$
