YLF.pdb
     RDKit          3D

 32 33  0  0  1  0  0  0  0  0999 V2000
   28.2912  -15.1115  -17.6303 O   0  0  0  0  0  0  0  0  0  0  0  0
   27.7405  -16.1364  -16.8541 C   0  0  0  0  0  0  0  0  0  0  0  0
   27.2674  -17.2769  -17.4586 C   0  0  0  0  0  0  0  0  0  0  0  0
   26.7279  -18.2828  -16.7078 C   0  0  0  0  0  0  0  0  0  0  0  0
   26.6497  -18.1755  -15.3528 C   0  0  0  0  0  0  0  0  0  0  0  0
   26.0727  -19.2436  -14.5214 C   0  0  0  0  0  0  0  0  0  0  0  0
   27.1653  -19.9620  -13.7369 C   0  0  2  0  0  0  0  0  0  0  0  0
   27.9657  -20.6747  -14.7329 N   0  0  0  0  0  0  0  0  0  0  0  0
   26.5494  -20.9097  -12.7851 C   0  0  0  0  0  0  0  0  0  0  0  0
   26.2039  -22.0470  -13.1954 O   0  0  0  0  0  0  0  0  0  0  0  0
   27.1139  -17.0440  -14.6932 C   0  0  0  0  0  0  0  0  0  0  0  0
   27.6566  -16.0363  -15.4683 C   0  0  0  0  0  0  0  0  0  0  0  0
   27.4650  -20.0502   -7.7417 C   0  0  0  0  0  0  0  0  0  0  0  0
   27.1167  -20.3645   -9.2076 C   0  0  1  0  0  0  0  0  0  0  0  0
   28.1574  -21.3245   -9.7688 C   0  0  0  0  0  0  0  0  0  0  0  0
   25.7882  -21.0499   -9.1683 C   0  0  0  0  0  0  0  0  0  0  0  0
   25.3051  -21.2330  -10.6136 C   0  0  2  0  0  0  0  0  0  0  0  0
   26.3262  -20.6134  -11.4365 N   0  0  0  0  0  0  0  0  0  0  0  0
   24.0029  -20.5579  -10.6827 C   0  0  0  0  0  0  0  0  0  0  0  0
   23.8821  -19.3878  -10.2907 O   0  0  0  0  0  0  0  0  0  0  0  0
   22.8941  -21.2596  -11.2061 N   0  0  0  0  0  0  0  0  0  0  0  0
   22.1399  -20.8135  -12.3658 C   0  0  1  0  0  0  0  0  0  0  0  0
   23.0623  -20.6070  -13.5471 C   0  0  0  0  0  0  0  0  0  0  0  0
   22.2860  -20.0902  -14.6871 C   0  0  0  0  0  0  0  0  0  0  0  0
   21.9088  -18.7595  -14.8231 C   0  0  0  0  0  0  0  0  0  0  0  0
   21.2021  -18.3148  -15.8934 C   0  0  0  0  0  0  0  0  0  0  0  0
   20.8149  -19.1755  -16.9232 C   0  0  0  0  0  0  0  0  0  0  0  0
   21.1801  -20.5018  -16.8052 C   0  0  0  0  0  0  0  0  0  0  0  0
   21.8915  -20.9444  -15.7236 C   0  0  0  0  0  0  0  0  0  0  0  0
   21.0053  -21.6396  -12.6907 C   0  0  0  0  0  0  0  0  0  0  0  0
   21.1618  -22.9092  -12.7843 O   0  0  0  0  0  0  0  0  0  0  0  0
   19.7142  -21.2092  -12.9214 O   0  0  0  0  0  0  0  0  0  0  0  0
  2  3  2  0
  2  1  1  0
  4  3  1  0
  5 11  1  0
  5  4  2  0
  6  7  1  0
  6  5  1  0
  7  9  1  0
  7  8  1  6
  9 10  2  0
 11 12  2  0
 12  2  1  0
 14 13  1  1
 15 14  1  0
 16 14  1  0
 17 16  1  1
 18 17  1  0
 18  9  1  0
 19 20  2  0
 19 17  1  0
 21 19  1  0
 22 21  1  0
 22 23  1  6
 23 24  1  0
 24 25  2  0
 25 26  1  0
 27 26  2  0
 28 27  1  0
 29 24  1  0
 29 28  2  0
 30 22  1  0
 31 30  2  0
 32 30  1  0
M  END
$$$$
