YLF.pdb
     RDKit          3D

 32 33  0  0  1  0  0  0  0  0999 V2000
   27.6481  -30.2089  -17.4419 O   0  0  0  0  0  0  0  0  0  0  0  0
   27.4066  -28.8658  -17.1356 C   0  0  0  0  0  0  0  0  0  0  0  0
   26.3668  -28.2000  -17.7403 C   0  0  0  0  0  0  0  0  0  0  0  0
   26.1239  -26.8879  -17.4469 C   0  0  0  0  0  0  0  0  0  0  0  0
   26.9030  -26.2183  -16.5535 C   0  0  0  0  0  0  0  0  0  0  0  0
   26.6635  -24.8053  -16.2205 C   0  0  0  0  0  0  0  0  0  0  0  0
   27.1992  -23.8964  -17.3216 C   0  0  2  0  0  0  0  0  0  0  0  0
   28.6529  -23.8873  -17.1564 N   0  0  0  0  0  0  0  0  0  0  0  0
   26.6451  -22.5369  -17.1545 C   0  0  0  0  0  0  0  0  0  0  0  0
   27.1915  -21.7526  -16.3374 O   0  0  0  0  0  0  0  0  0  0  0  0
   27.9659  -26.8453  -15.9146 C   0  0  0  0  0  0  0  0  0  0  0  0
   28.1970  -28.1727  -16.2234 C   0  0  0  0  0  0  0  0  0  0  0  0
   24.9502  -19.8488  -21.3799 C   0  0  0  0  0  0  0  0  0  0  0  0
   25.5529  -20.2990  -20.0371 C   0  0  1  0  0  0  0  0  0  0  0  0
   26.5312  -19.2369  -19.5527 C   0  0  0  0  0  0  0  0  0  0  0  0
   24.4026  -20.3766  -19.0847 C   0  0  0  0  0  0  0  0  0  0  0  0
   24.9554  -20.7438  -17.7008 C   0  0  2  0  0  0  0  0  0  0  0  0
   25.5349  -22.0637  -17.8615 N   0  0  0  0  0  0  0  0  0  0  0  0
   23.8009  -20.7138  -16.7941 C   0  0  0  0  0  0  0  0  0  0  0  0
   23.2049  -19.6491  -16.5734 O   0  0  0  0  0  0  0  0  0  0  0  0
   23.3782  -21.9152  -16.1826 N   0  0  0  0  0  0  0  0  0  0  0  0
   22.2642  -21.9903  -15.2519 C   0  0  1  0  0  0  0  0  0  0  0  0
   22.1857  -23.3689  -14.6337 C   0  0  0  0  0  0  0  0  0  0  0  0
   20.9530  -23.4753  -13.8348 C   0  0  0  0  0  0  0  0  0  0  0  0
   19.7423  -23.9317  -14.3421 C   0  0  0  0  0  0  0  0  0  0  0  0
   18.6272  -24.0273  -13.5739 C   0  0  0  0  0  0  0  0  0  0  0  0
   18.6367  -23.6717  -12.2231 C   0  0  0  0  0  0  0  0  0  0  0  0
   19.8307  -23.2152  -11.7013 C   0  0  0  0  0  0  0  0  0  0  0  0
   20.9510  -23.1199  -12.4807 C   0  0  0  0  0  0  0  0  0  0  0  0
   22.2430  -20.9417  -14.2644 C   0  0  0  0  0  0  0  0  0  0  0  0
   23.3420  -20.5829  -13.7088 O   0  0  0  0  0  0  0  0  0  0  0  0
   21.1336  -20.2462  -13.8275 O   0  0  0  0  0  0  0  0  0  0  0  0
  2  3  2  0
  2  1  1  0
  4  3  1  0
  5 11  1  0
  5  4  2  0
  6  7  1  0
  6  5  1  0
  7  9  1  0
  7  8  1  1
  9 10  2  0
 11 12  2  0
 12  2  1  0
 14 13  1  6
 15 14  1  0
 16 14  1  0
 17 16  1  6
 18 17  1  0
 18  9  1  0
 19 20  2  0
 19 17  1  0
 21 19  1  0
 22 21  1  0
 22 23  1  1
 23 24  1  0
 24 25  2  0
 25 26  1  0
 27 26  2  0
 28 27  1  0
 29 24  1  0
 29 28  2  0
 30 22  1  0
 31 30  2  0
 32 30  1  0
M  END
$$$$
