YLF.pdb
     RDKit          3D

 32 33  0  0  1  0  0  0  0  0999 V2000
   12.3008  -22.1027  -12.4435 O   0  0  0  0  0  0  0  0  0  0  0  0
   13.1670  -22.3566  -13.5119 C   0  0  0  0  0  0  0  0  0  0  0  0
   12.9385  -23.4290  -14.3411 C   0  0  0  0  0  0  0  0  0  0  0  0
   13.7796  -23.6841  -15.3871 C   0  0  0  0  0  0  0  0  0  0  0  0
   14.8547  -22.8842  -15.6273 C   0  0  0  0  0  0  0  0  0  0  0  0
   15.7762  -23.1373  -16.7461 C   0  0  0  0  0  0  0  0  0  0  0  0
   15.3504  -22.3496  -17.9804 C   0  0  2  0  0  0  0  0  0  0  0  0
   14.1431  -23.0108  -18.4761 N   0  0  0  0  0  0  0  0  0  0  0  0
   16.4258  -22.3964  -18.9927 C   0  0  0  0  0  0  0  0  0  0  0  0
   17.5748  -21.9926  -18.6798 O   0  0  0  0  0  0  0  0  0  0  0  0
   15.1298  -21.7875  -14.8194 C   0  0  0  0  0  0  0  0  0  0  0  0
   14.2684  -21.5443  -13.7660 C   0  0  0  0  0  0  0  0  0  0  0  0
   19.3112  -24.4305  -22.5419 C   0  0  0  0  0  0  0  0  0  0  0  0
   18.0220  -24.0593  -23.2963 C   0  0  1  0  0  0  0  0  0  0  0  0
   17.6937  -25.1660  -24.2898 C   0  0  0  0  0  0  0  0  0  0  0  0
   16.9490  -24.0001  -22.2563 C   0  0  0  0  0  0  0  0  0  0  0  0
   17.2304  -22.7927  -21.3516 C   0  0  2  0  0  0  0  0  0  0  0  0
   16.2395  -22.8709  -20.2952 N   0  0  0  0  0  0  0  0  0  0  0  0
   17.0823  -21.6120  -22.2119 C   0  0  0  0  0  0  0  0  0  0  0  0
   15.9730  -21.3107  -22.6770 O   0  0  0  0  0  0  0  0  0  0  0  0
   18.2200  -20.8243  -22.4965 N   0  0  0  0  0  0  0  0  0  0  0  0
   18.1846  -19.6451  -23.3456 C   0  0  1  0  0  0  0  0  0  0  0  0
   18.5748  -18.4149  -22.5561 C   0  0  0  0  0  0  0  0  0  0  0  0
   18.4751  -17.2280  -23.4224 C   0  0  0  0  0  0  0  0  0  0  0  0
   17.2968  -16.5202  -23.6281 C   0  0  0  0  0  0  0  0  0  0  0  0
   17.2431  -15.4229  -24.4255 C   0  0  0  0  0  0  0  0  0  0  0  0
   18.3765  -14.9417  -25.0850 C   0  0  0  0  0  0  0  0  0  0  0  0
   19.5565  -15.6325  -24.8934 C   0  0  0  0  0  0  0  0  0  0  0  0
   19.6043  -16.7384  -24.0894 C   0  0  0  0  0  0  0  0  0  0  0  0
   18.9308  -19.7727  -24.5713 C   0  0  0  0  0  0  0  0  0  0  0  0
   18.3710  -19.4550  -25.6808 O   0  0  0  0  0  0  0  0  0  0  0  0
   20.2327  -20.2133  -24.6991 O   0  0  0  0  0  0  0  0  0  0  0  0
  2  3  2  0
  2  1  1  0
  4  3  1  0
  5 11  1  0
  5  4  2  0
  6  7  1  0
  6  5  1  0
  7  9  1  0
  7  8  1  6
  9 10  2  0
 11 12  2  0
 12  2  1  0
 14 13  1  1
 15 14  1  0
 16 14  1  0
 17 16  1  6
 18 17  1  0
 18  9  1  0
 19 20  2  0
 19 17  1  0
 21 19  1  0
 22 21  1  0
 22 23  1  1
 23 24  1  0
 24 25  2  0
 25 26  1  0
 27 26  2  0
 28 27  1  0
 29 24  1  0
 29 28  2  0
 30 22  1  0
 31 30  2  0
 32 30  1  0
M  END
$$$$
