CWQ.pdb
     RDKit          3D

 30 31  0  0  1  0  0  0  0  0999 V2000
    8.1305  -17.2196   20.7955 N   0  0  0  0  0  0  0  0  0  0  0  0
    8.7319  -15.9088   20.8704 C   0  0  1  0  0  0  0  0  0  0  0  0
    7.8047  -14.8730   20.3284 C   0  0  0  0  0  0  0  0  0  0  0  0
    7.2789  -15.4291   18.6679 S   0  0  0  0  0  0  0  0  0  0  0  0
    9.2302  -15.6056   22.2373 C   0  0  0  0  0  0  0  0  0  0  0  0
    9.9191  -14.5710   22.4330 O   0  0  0  0  0  0  0  0  0  0  0  0
    8.9696  -16.4311   23.3575 N   0  0  0  0  0  0  0  0  0  0  0  0
    9.4156  -16.2015   24.6952 C   0  0  1  0  0  0  0  0  0  0  0  0
    8.3111  -16.2587   25.7158 C   0  0  0  0  0  0  0  0  0  0  0  0
    7.2799  -15.2302   25.5288 C   0  0  0  0  0  0  0  0  0  0  0  0
    6.0837  -15.3442   24.8588 C   0  0  0  0  0  0  0  0  0  0  0  0
    5.4277  -14.1822   24.9152 N   0  0  0  0  0  0  0  0  0  0  0  0
    6.1761  -13.3048   25.6133 C   0  0  0  0  0  0  0  0  0  0  0  0
    5.9977  -11.9897   25.9750 C   0  0  0  0  0  0  0  0  0  0  0  0
    6.9461  -11.2992   26.7143 C   0  0  0  0  0  0  0  0  0  0  0  0
    8.1027  -11.9245   27.1075 C   0  0  0  0  0  0  0  0  0  0  0  0
    8.2776  -13.2499   26.7404 C   0  0  0  0  0  0  0  0  0  0  0  0
    7.3347  -13.9401   26.0041 C   0  0  0  0  0  0  0  0  0  0  0  0
   10.4121  -17.2440   25.0520 C   0  0  0  0  0  0  0  0  0  0  0  0
   10.2563  -18.4173   24.6574 O   0  0  0  0  0  0  0  0  0  0  0  0
   15.8372  -16.5836   23.9999 N   0  0  0  0  0  0  0  0  0  0  0  0
   15.8943  -17.8690   24.5804 C   0  0  0  0  0  0  0  0  0  0  0  0
   16.8230  -18.6882   24.2379 O   0  0  0  0  0  0  0  0  0  0  0  0
   14.9512  -18.3684   25.5866 C   0  0  0  0  0  0  0  0  0  0  0  0
   13.8559  -17.4608   25.9854 C   0  0  0  0  0  0  0  0  0  0  0  0
   12.5013  -18.0493   26.2006 C   0  0  2  0  0  0  0  0  0  0  0  0
   11.5574  -16.9667   25.8361 N   0  0  0  0  0  0  0  0  0  0  0  0
   12.1846  -18.5513   27.5377 C   0  0  0  0  0  0  0  0  0  0  0  0
   12.6274  -19.7463   28.0858 O   0  0  0  0  0  0  0  0  0  0  0  0
   11.4346  -17.8525   28.2796 O   0  0  0  0  0  0  0  0  0  0  0  0
  2  1  1  1
  2  5  1  0
  3  2  1  0
  4  3  1  0
  5  7  1  0
  6  5  2  0
  7  8  1  0
  8 19  1  0
  8  9  1  1
  9 10  1  0
 10 18  1  0
 11 10  2  0
 11 12  1  0
 12 13  1  0
 13 14  1  0
 14 15  2  0
 16 15  1  0
 17 16  2  0
 18 13  2  0
 18 17  1  0
 19 27  1  0
 20 19  2  0
 21 22  1  0
 22 24  1  0
 22 23  2  0
 24 25  1  0
 26 25  1  1
 26 28  1  0
 27 26  1  0
 28 30  2  0
 28 29  1  0
M  END
$$$$
