CWQ.pdb
     RDKit          3D

 30 31  0  0  1  0  0  0  0  0999 V2000
   10.7461  -17.4781   20.0344 N   0  0  0  0  0  0  0  0  0  0  0  0
    9.7180  -17.9994   20.9044 C   0  0  1  0  0  0  0  0  0  0  0  0
    9.6983  -19.4907   20.8604 C   0  0  0  0  0  0  0  0  0  0  0  0
   11.2552  -20.0779   21.6179 S   0  0  0  0  0  0  0  0  0  0  0  0
    9.8229  -17.4452   22.2794 C   0  0  0  0  0  0  0  0  0  0  0  0
   10.9314  -17.0192   22.6955 O   0  0  0  0  0  0  0  0  0  0  0  0
    8.7242  -17.3668   23.1687 N   0  0  0  0  0  0  0  0  0  0  0  0
    8.7645  -16.8998   24.5183 C   0  0  1  0  0  0  0  0  0  0  0  0
    7.4797  -16.2611   24.9724 C   0  0  0  0  0  0  0  0  0  0  0  0
    7.2669  -14.9125   24.4319 C   0  0  0  0  0  0  0  0  0  0  0  0
    7.1403  -14.5403   23.1134 C   0  0  0  0  0  0  0  0  0  0  0  0
    6.9587  -13.2193   23.0378 N   0  0  0  0  0  0  0  0  0  0  0  0
    6.9642  -12.7169   24.2887 C   0  0  0  0  0  0  0  0  0  0  0  0
    6.8228  -11.4464   24.7966 C   0  0  0  0  0  0  0  0  0  0  0  0
    6.8679  -11.1942   26.1594 C   0  0  0  0  0  0  0  0  0  0  0  0
    7.0577  -12.2249   27.0453 C   0  0  0  0  0  0  0  0  0  0  0  0
    7.1996  -13.5035   26.5282 C   0  0  0  0  0  0  0  0  0  0  0  0
    7.1551  -13.7576   25.1714 C   0  0  0  0  0  0  0  0  0  0  0  0
    9.0348  -18.0531   25.4149 C   0  0  0  0  0  0  0  0  0  0  0  0
    8.7221  -19.2072   25.0586 O   0  0  0  0  0  0  0  0  0  0  0  0
   14.7135  -18.3435   24.8395 N   0  0  0  0  0  0  0  0  0  0  0  0
   13.9449  -19.4991   25.0969 C   0  0  0  0  0  0  0  0  0  0  0  0
   14.1056  -20.5512   24.3771 O   0  0  0  0  0  0  0  0  0  0  0  0
   12.9430  -19.6098   26.1623 C   0  0  0  0  0  0  0  0  0  0  0  0
   11.7061  -18.8181   26.0022 C   0  0  0  0  0  0  0  0  0  0  0  0
   10.7152  -18.8327   27.1182 C   0  0  2  0  0  0  0  0  0  0  0  0
    9.6442  -17.9053   26.6839 N   0  0  0  0  0  0  0  0  0  0  0  0
   11.1876  -18.4528   28.4496 C   0  0  0  0  0  0  0  0  0  0  0  0
   10.9741  -17.2320   29.0728 O   0  0  0  0  0  0  0  0  0  0  0  0
   11.8604  -19.2959   29.1113 O   0  0  0  0  0  0  0  0  0  0  0  0
  2  1  1  6
  2  5  1  0
  3  2  1  0
  4  3  1  0
  5  7  1  0
  6  5  2  0
  7  8  1  0
  8 19  1  0
  8  9  1  1
  9 10  1  0
 10 18  1  0
 11 10  2  0
 11 12  1  0
 12 13  1  0
 13 14  1  0
 14 15  2  0
 16 15  1  0
 17 16  2  0
 18 13  2  0
 18 17  1  0
 19 27  1  0
 20 19  2  0
 21 22  1  0
 22 24  1  0
 22 23  2  0
 24 25  1  0
 26 25  1  6
 26 28  1  0
 27 26  1  0
 28 30  2  0
 28 29  1  0
M  END
$$$$
