CWQ.pdb
     RDKit          3D

 30 31  0  0  1  0  0  0  0  0999 V2000
    6.6476  -13.7323   20.1021 N   0  0  0  0  0  0  0  0  0  0  0  0
    7.0277  -14.9929   20.6954 C   0  0  1  0  0  0  0  0  0  0  0  0
    7.4353  -15.9681   19.6421 C   0  0  0  0  0  0  0  0  0  0  0  0
    7.8917  -17.5233   20.4881 S   0  0  0  0  0  0  0  0  0  0  0  0
    8.0408  -14.8167   21.7684 C   0  0  0  0  0  0  0  0  0  0  0  0
    8.8138  -13.8243   21.7372 O   0  0  0  0  0  0  0  0  0  0  0  0
    8.1907  -15.7202   22.8479 N   0  0  0  0  0  0  0  0  0  0  0  0
    9.1272  -15.6032   23.9205 C   0  0  1  0  0  0  0  0  0  0  0  0
    8.5279  -15.8728   25.2744 C   0  0  0  0  0  0  0  0  0  0  0  0
    7.3843  -15.0098   25.5968 C   0  0  0  0  0  0  0  0  0  0  0  0
    6.0475  -15.3344   25.5750 C   0  0  0  0  0  0  0  0  0  0  0  0
    5.3239  -14.2706   25.9334 N   0  0  0  0  0  0  0  0  0  0  0  0
    6.1663  -13.2501   26.1907 C   0  0  0  0  0  0  0  0  0  0  0  0
    5.9775  -11.9477   26.5908 C   0  0  0  0  0  0  0  0  0  0  0  0
    7.0422  -11.0819   26.7899 C   0  0  0  0  0  0  0  0  0  0  0  0
    8.3290  -11.5139   26.5885 C   0  0  0  0  0  0  0  0  0  0  0  0
    8.5139  -12.8275   26.1854 C   0  0  0  0  0  0  0  0  0  0  0  0
    7.4554  -13.6921   25.9863 C   0  0  0  0  0  0  0  0  0  0  0  0
   10.2208  -16.5863   23.7090 C   0  0  0  0  0  0  0  0  0  0  0  0
    9.9508  -17.7910   23.5289 O   0  0  0  0  0  0  0  0  0  0  0  0
   15.9212  -14.8057   21.8621 N   0  0  0  0  0  0  0  0  0  0  0  0
   14.6871  -14.9705   21.1970 C   0  0  0  0  0  0  0  0  0  0  0  0
   14.4739  -14.3720   20.0803 O   0  0  0  0  0  0  0  0  0  0  0  0
   13.5848  -15.8050   21.6867 C   0  0  0  0  0  0  0  0  0  0  0  0
   13.8025  -16.5204   22.9608 C   0  0  0  0  0  0  0  0  0  0  0  0
   12.6454  -17.2442   23.5648 C   0  0  2  0  0  0  0  0  0  0  0  0
   11.5870  -16.2162   23.7012 N   0  0  0  0  0  0  0  0  0  0  0  0
   12.8575  -17.9086   24.8507 C   0  0  0  0  0  0  0  0  0  0  0  0
   12.1916  -17.6253   26.0343 O   0  0  0  0  0  0  0  0  0  0  0  0
   13.7273  -18.8252   24.9170 O   0  0  0  0  0  0  0  0  0  0  0  0
  2  1  1  6
  2  5  1  0
  3  2  1  0
  4  3  1  0
  5  7  1  0
  6  5  2  0
  7  8  1  0
  8 19  1  0
  8  9  1  1
  9 10  1  0
 10 18  1  0
 11 10  2  0
 11 12  1  0
 12 13  1  0
 13 14  1  0
 14 15  2  0
 16 15  1  0
 17 16  2  0
 18 13  2  0
 18 17  1  0
 19 27  1  0
 20 19  2  0
 21 22  1  0
 22 24  1  0
 22 23  2  0
 24 25  1  0
 26 25  1  1
 26 28  1  0
 27 26  1  0
 28 30  2  0
 28 29  1  0
M  END
$$$$
