CWQ.pdb
     RDKit          3D

 30 31  0  0  1  0  0  0  0  0999 V2000
    7.2561  -13.4203   19.6464 N   0  0  0  0  0  0  0  0  0  0  0  0
    7.2051  -14.6452   20.4097 C   0  0  1  0  0  0  0  0  0  0  0  0
    7.2541  -15.8309   19.5052 C   0  0  0  0  0  0  0  0  0  0  0  0
    6.6224  -15.2976   17.8745 S   0  0  0  0  0  0  0  0  0  0  0  0
    8.2325  -14.6718   21.4831 C   0  0  0  0  0  0  0  0  0  0  0  0
    9.2736  -13.9750   21.3651 O   0  0  0  0  0  0  0  0  0  0  0  0
    8.1060  -15.4527   22.6571 N   0  0  0  0  0  0  0  0  0  0  0  0
    9.0612  -15.5431   23.7158 C   0  0  1  0  0  0  0  0  0  0  0  0
    8.4484  -15.8592   25.0535 C   0  0  0  0  0  0  0  0  0  0  0  0
    7.3311  -14.9775   25.4147 C   0  0  0  0  0  0  0  0  0  0  0  0
    5.9865  -15.2690   25.4041 C   0  0  0  0  0  0  0  0  0  0  0  0
    5.2943  -14.1977   25.8002 N   0  0  0  0  0  0  0  0  0  0  0  0
    6.1650  -13.2050   26.0714 C   0  0  0  0  0  0  0  0  0  0  0  0
    6.0138  -11.9092   26.5075 C   0  0  0  0  0  0  0  0  0  0  0  0
    7.1021  -11.0749   26.7133 C   0  0  0  0  0  0  0  0  0  0  0  0
    8.3750  -11.5326   26.4821 C   0  0  0  0  0  0  0  0  0  0  0  0
    8.5219  -12.8393   26.0426 C   0  0  0  0  0  0  0  0  0  0  0  0
    7.4398  -13.6725   25.8368 C   0  0  0  0  0  0  0  0  0  0  0  0
   10.0269  -16.6259   23.3964 C   0  0  0  0  0  0  0  0  0  0  0  0
    9.6116  -17.7517   23.0544 O   0  0  0  0  0  0  0  0  0  0  0  0
   14.8528  -13.9415   21.5486 N   0  0  0  0  0  0  0  0  0  0  0  0
   14.4386  -15.2264   21.1364 C   0  0  0  0  0  0  0  0  0  0  0  0
   14.1640  -15.4475   19.9009 O   0  0  0  0  0  0  0  0  0  0  0  0
   14.2953  -16.3796   22.0313 C   0  0  0  0  0  0  0  0  0  0  0  0
   13.0501  -17.1660   21.9148 C   0  0  0  0  0  0  0  0  0  0  0  0
   12.3516  -17.5630   23.1726 C   0  0  2  0  0  0  0  0  0  0  0  0
   11.4286  -16.4405   23.4620 N   0  0  0  0  0  0  0  0  0  0  0  0
   13.1770  -17.8396   24.3483 C   0  0  0  0  0  0  0  0  0  0  0  0
   14.0549  -18.9034   24.4962 O   0  0  0  0  0  0  0  0  0  0  0  0
   13.0960  -17.0542   25.3372 O   0  0  0  0  0  0  0  0  0  0  0  0
  2  1  1  6
  2  5  1  0
  3  2  1  0
  4  3  1  0
  5  7  1  0
  6  5  2  0
  7  8  1  0
  8 19  1  0
  8  9  1  1
  9 10  1  0
 10 18  1  0
 11 10  2  0
 11 12  1  0
 12 13  1  0
 13 14  1  0
 14 15  2  0
 16 15  1  0
 17 16  2  0
 18 13  2  0
 18 17  1  0
 19 27  1  0
 20 19  2  0
 21 22  1  0
 22 24  1  0
 22 23  2  0
 24 25  1  0
 26 25  1  6
 26 28  1  0
 27 26  1  0
 28 30  2  0
 28 29  1  0
M  END
$$$$
