CWQ.pdb
     RDKit          3D

 30 31  0  0  1  0  0  0  0  0999 V2000
    6.9684  -15.2005   20.0504 N   0  0  0  0  0  0  0  0  0  0  0  0
    7.2593  -16.2068   21.0444 C   0  0  1  0  0  0  0  0  0  0  0  0
    7.5301  -17.5233   20.3964 C   0  0  0  0  0  0  0  0  0  0  0  0
    5.9203  -18.2118   19.8698 S   0  0  0  0  0  0  0  0  0  0  0  0
    8.3307  -15.7702   21.9772 C   0  0  0  0  0  0  0  0  0  0  0  0
    9.2744  -15.0561   21.5499 O   0  0  0  0  0  0  0  0  0  0  0  0
    8.3525  -16.1186   23.3492 N   0  0  0  0  0  0  0  0  0  0  0  0
    9.3732  -15.7776   24.2888 C   0  0  1  0  0  0  0  0  0  0  0  0
    8.8695  -15.6384   25.7001 C   0  0  0  0  0  0  0  0  0  0  0  0
    7.6132  -14.8859   25.8075 C   0  0  0  0  0  0  0  0  0  0  0  0
    6.3280  -15.3703   25.7274 C   0  0  0  0  0  0  0  0  0  0  0  0
    5.4617  -14.3646   25.8748 N   0  0  0  0  0  0  0  0  0  0  0  0
    6.1593  -13.2246   26.0508 C   0  0  0  0  0  0  0  0  0  0  0  0
    5.7921  -11.9136   26.2474 C   0  0  0  0  0  0  0  0  0  0  0  0
    6.7321  -10.9065   26.4051 C   0  0  0  0  0  0  0  0  0  0  0  0
    8.0717  -11.2017   26.3676 C   0  0  0  0  0  0  0  0  0  0  0  0
    8.4365  -12.5245   26.1692 C   0  0  0  0  0  0  0  0  0  0  0  0
    7.5024  -13.5297   26.0119 C   0  0  0  0  0  0  0  0  0  0  0  0
   10.4045  -16.8470   24.2828 C   0  0  0  0  0  0  0  0  0  0  0  0
   10.0617  -18.0441   24.2045 O   0  0  0  0  0  0  0  0  0  0  0  0
   16.0099  -16.0858   21.6599 N   0  0  0  0  0  0  0  0  0  0  0  0
   15.6186  -15.4349   22.8497 C   0  0  0  0  0  0  0  0  0  0  0  0
   16.2114  -14.3557   23.2168 O   0  0  0  0  0  0  0  0  0  0  0  0
   14.5456  -15.8987   23.7357 C   0  0  0  0  0  0  0  0  0  0  0  0
   13.8349  -17.1310   23.3370 C   0  0  0  0  0  0  0  0  0  0  0  0
   12.7850  -17.6626   24.2550 C   0  0  2  0  0  0  0  0  0  0  0  0
   11.7902  -16.5697   24.3634 N   0  0  0  0  0  0  0  0  0  0  0  0
   13.2032  -18.0842   25.5919 C   0  0  0  0  0  0  0  0  0  0  0  0
   12.7724  -17.5367   26.7915 O   0  0  0  0  0  0  0  0  0  0  0  0
   14.0390  -19.0294   25.6895 O   0  0  0  0  0  0  0  0  0  0  0  0
  2  1  1  6
  2  5  1  0
  3  2  1  0
  4  3  1  0
  5  7  1  0
  6  5  2  0
  7  8  1  0
  8 19  1  0
  8  9  1  1
  9 10  1  0
 10 18  1  0
 11 10  2  0
 11 12  1  0
 12 13  1  0
 13 14  1  0
 14 15  2  0
 16 15  1  0
 17 16  2  0
 18 13  2  0
 18 17  1  0
 19 27  1  0
 20 19  2  0
 21 22  1  0
 22 24  1  0
 22 23  2  0
 24 25  1  0
 26 25  1  6
 26 28  1  0
 27 26  1  0
 28 30  2  0
 28 29  1  0
M  END
$$$$
