CWQ.pdb
     RDKit          3D

 30 31  0  0  1  0  0  0  0  0999 V2000
    6.3166  -15.1150   20.2016 N   0  0  0  0  0  0  0  0  0  0  0  0
    7.1764  -16.1287   20.7662 C   0  0  1  0  0  0  0  0  0  0  0  0
    7.8951  -16.8687   19.6881 C   0  0  0  0  0  0  0  0  0  0  0  0
    6.8803  -18.3280   19.2603 S   0  0  0  0  0  0  0  0  0  0  0  0
    8.0770  -15.5726   21.8094 C   0  0  0  0  0  0  0  0  0  0  0  0
    8.6424  -14.4651   21.6171 O   0  0  0  0  0  0  0  0  0  0  0  0
    8.3421  -16.2305   23.0345 N   0  0  0  0  0  0  0  0  0  0  0  0
    9.2762  -15.8113   24.0310 C   0  0  1  0  0  0  0  0  0  0  0  0
    8.7283  -15.8692   25.4315 C   0  0  0  0  0  0  0  0  0  0  0  0
    7.5902  -14.9695   25.6584 C   0  0  0  0  0  0  0  0  0  0  0  0
    6.2507  -15.2834   25.6557 C   0  0  0  0  0  0  0  0  0  0  0  0
    5.5340  -14.1839   25.9028 N   0  0  0  0  0  0  0  0  0  0  0  0
    6.3836  -13.1505   26.0682 C   0  0  0  0  0  0  0  0  0  0  0  0
    6.2035  -11.8139   26.3388 C   0  0  0  0  0  0  0  0  0  0  0  0
    7.2745  -10.9419   26.4632 C   0  0  0  0  0  0  0  0  0  0  0  0
    8.5589  -11.4022   26.3164 C   0  0  0  0  0  0  0  0  0  0  0  0
    8.7350  -12.7502   26.0438 C   0  0  0  0  0  0  0  0  0  0  0  0
    7.6702  -13.6209   25.9194 C   0  0  0  0  0  0  0  0  0  0  0  0
   10.4647  -16.7009   23.9759 C   0  0  0  0  0  0  0  0  0  0  0  0
   10.3198  -17.9245   23.7800 O   0  0  0  0  0  0  0  0  0  0  0  0
   16.8400  -16.2410   20.9973 N   0  0  0  0  0  0  0  0  0  0  0  0
   16.2509  -16.0089   22.2589 C   0  0  0  0  0  0  0  0  0  0  0  0
   16.5757  -14.9677   22.9380 O   0  0  0  0  0  0  0  0  0  0  0  0
   15.2546  -16.8852   22.8841 C   0  0  0  0  0  0  0  0  0  0  0  0
   13.9273  -16.2983   23.1605 C   0  0  0  0  0  0  0  0  0  0  0  0
   12.9463  -17.1166   23.9322 C   0  0  2  0  0  0  0  0  0  0  0  0
   11.7856  -16.2187   24.1383 N   0  0  0  0  0  0  0  0  0  0  0  0
   13.3817  -17.6638   25.2171 C   0  0  0  0  0  0  0  0  0  0  0  0
   14.2073  -18.7641   25.3970 O   0  0  0  0  0  0  0  0  0  0  0  0
   12.9766  -17.1034   26.2769 O   0  0  0  0  0  0  0  0  0  0  0  0
  2  1  1  6
  2  5  1  0
  3  2  1  0
  4  3  1  0
  5  7  1  0
  6  5  2  0
  7  8  1  0
  8 19  1  0
  8  9  1  1
  9 10  1  0
 10 18  1  0
 11 10  2  0
 11 12  1  0
 12 13  1  0
 13 14  1  0
 14 15  2  0
 16 15  1  0
 17 16  2  0
 18 13  2  0
 18 17  1  0
 19 27  1  0
 20 19  2  0
 21 22  1  0
 22 24  1  0
 22 23  2  0
 24 25  1  0
 26 25  1  1
 26 28  1  0
 27 26  1  0
 28 30  2  0
 28 29  1  0
M  END
$$$$
