CWQ.pdb
     RDKit          3D

 30 31  0  0  1  0  0  0  0  0999 V2000
    6.5841  -15.1221   20.2560 N   0  0  0  0  0  0  0  0  0  0  0  0
    7.2210  -16.2205   20.9440 C   0  0  1  0  0  0  0  0  0  0  0  0
    7.9332  -17.1052   19.9763 C   0  0  0  0  0  0  0  0  0  0  0  0
    6.6616  -18.0653   19.0796 S   0  0  0  0  0  0  0  0  0  0  0  0
    8.0781  -15.7502   22.0634 C   0  0  0  0  0  0  0  0  0  0  0  0
    8.6805  -14.6498   21.9656 O   0  0  0  0  0  0  0  0  0  0  0  0
    8.2607  -16.4840   23.2601 N   0  0  0  0  0  0  0  0  0  0  0  0
    9.1064  -16.1181   24.3520 C   0  0  1  0  0  0  0  0  0  0  0  0
    8.3938  -16.0752   25.6768 C   0  0  0  0  0  0  0  0  0  0  0  0
    7.3258  -15.0694   25.7409 C   0  0  0  0  0  0  0  0  0  0  0  0
    5.9740  -15.2593   25.5693 C   0  0  0  0  0  0  0  0  0  0  0  0
    5.3384  -14.0926   25.7051 N   0  0  0  0  0  0  0  0  0  0  0  0
    6.2535  -13.1372   25.9637 C   0  0  0  0  0  0  0  0  0  0  0  0
    6.1670  -11.7829   26.1887 C   0  0  0  0  0  0  0  0  0  0  0  0
    7.2907  -11.0095   26.4378 C   0  0  0  0  0  0  0  0  0  0  0  0
    8.5342  -11.5892   26.4656 C   0  0  0  0  0  0  0  0  0  0  0  0
    8.6159  -12.9544   26.2382 C   0  0  0  0  0  0  0  0  0  0  0  0
    7.4985  -13.7272   25.9899 C   0  0  0  0  0  0  0  0  0  0  0  0
   10.2018  -17.1156   24.4627 C   0  0  0  0  0  0  0  0  0  0  0  0
    9.9500  -18.3332   24.3589 O   0  0  0  0  0  0  0  0  0  0  0  0
   15.6648  -14.9980   23.1375 N   0  0  0  0  0  0  0  0  0  0  0  0
   14.6170  -15.5677   22.3825 C   0  0  0  0  0  0  0  0  0  0  0  0
   14.2638  -15.0339   21.2685 O   0  0  0  0  0  0  0  0  0  0  0  0
   13.8709  -16.7689   22.7719 C   0  0  0  0  0  0  0  0  0  0  0  0
   13.8311  -17.0938   24.2125 C   0  0  0  0  0  0  0  0  0  0  0  0
   12.6140  -17.7749   24.7440 C   0  0  2  0  0  0  0  0  0  0  0  0
   11.5497  -16.7455   24.6854 N   0  0  0  0  0  0  0  0  0  0  0  0
   12.6853  -18.3353   26.0934 C   0  0  0  0  0  0  0  0  0  0  0  0
   13.4675  -19.4104   26.4894 O   0  0  0  0  0  0  0  0  0  0  0  0
   11.9726  -17.8129   26.9992 O   0  0  0  0  0  0  0  0  0  0  0  0
  2  1  1  6
  2  5  1  0
  3  2  1  0
  4  3  1  0
  5  7  1  0
  6  5  2  0
  7  8  1  0
  8 19  1  0
  8  9  1  1
  9 10  1  0
 10 18  1  0
 11 10  2  0
 11 12  1  0
 12 13  1  0
 13 14  1  0
 14 15  2  0
 16 15  1  0
 17 16  2  0
 18 13  2  0
 18 17  1  0
 19 27  1  0
 20 19  2  0
 21 22  1  0
 22 24  1  0
 22 23  2  0
 24 25  1  0
 26 25  1  1
 26 28  1  0
 27 26  1  0
 28 30  2  0
 28 29  1  0
M  END
$$$$
