CWQ.pdb
     RDKit          3D

 30 31  0  0  1  0  0  0  0  0999 V2000
    6.8561  -17.4334   21.0610 N   0  0  0  0  0  0  0  0  0  0  0  0
    7.1558  -16.0374   20.8439 C   0  0  1  0  0  0  0  0  0  0  0  0
    5.8993  -15.2479   20.6883 C   0  0  0  0  0  0  0  0  0  0  0  0
    4.5363  -16.4393   20.4324 S   0  0  0  0  0  0  0  0  0  0  0  0
    8.0724  -15.4999   21.8829 C   0  0  0  0  0  0  0  0  0  0  0  0
    8.5135  -14.3263   21.7764 O   0  0  0  0  0  0  0  0  0  0  0  0
    8.4880  -16.2476   23.0109 N   0  0  0  0  0  0  0  0  0  0  0  0
    9.4820  -15.8580   23.9603 C   0  0  1  0  0  0  0  0  0  0  0  0
    9.0295  -15.9818   25.3902 C   0  0  0  0  0  0  0  0  0  0  0  0
    7.8257  -15.1995   25.6987 C   0  0  0  0  0  0  0  0  0  0  0  0
    6.5179  -15.6267   25.7034 C   0  0  0  0  0  0  0  0  0  0  0  0
    5.7175  -14.6108   26.0364 N   0  0  0  0  0  0  0  0  0  0  0  0
    6.4807  -13.5206   26.2510 C   0  0  0  0  0  0  0  0  0  0  0  0
    6.1953  -12.2242   26.6117 C   0  0  0  0  0  0  0  0  0  0  0  0
    7.1916  -11.2729   26.7704 C   0  0  0  0  0  0  0  0  0  0  0  0
    8.5061  -11.6107   26.5674 C   0  0  0  0  0  0  0  0  0  0  0  0
    8.7883  -12.9186   26.2040 C   0  0  0  0  0  0  0  0  0  0  0  0
    7.7981  -13.8682   26.0452 C   0  0  0  0  0  0  0  0  0  0  0  0
   10.6735  -16.7287   23.7887 C   0  0  0  0  0  0  0  0  0  0  0  0
   10.5303  -17.9570   23.6232 O   0  0  0  0  0  0  0  0  0  0  0  0
   15.3981  -16.2374   19.6608 N   0  0  0  0  0  0  0  0  0  0  0  0
   14.5855  -15.4681   20.5212 C   0  0  0  0  0  0  0  0  0  0  0  0
   14.6750  -14.1864   20.5140 O   0  0  0  0  0  0  0  0  0  0  0  0
   13.6031  -16.0273   21.4557 C   0  0  0  0  0  0  0  0  0  0  0  0
   14.1045  -16.4503   22.7794 C   0  0  0  0  0  0  0  0  0  0  0  0
   13.1546  -17.1400   23.7011 C   0  0  2  0  0  0  0  0  0  0  0  0
   11.9954  -16.2227   23.8038 N   0  0  0  0  0  0  0  0  0  0  0  0
   13.6354  -17.4804   25.0401 C   0  0  0  0  0  0  0  0  0  0  0  0
   14.5470  -18.4792   25.3496 O   0  0  0  0  0  0  0  0  0  0  0  0
   13.1889  -16.8216   26.0240 O   0  0  0  0  0  0  0  0  0  0  0  0
  2  1  1  1
  2  5  1  0
  3  2  1  0
  4  3  1  0
  5  7  1  0
  6  5  2  0
  7  8  1  0
  8 19  1  0
  8  9  1  1
  9 10  1  0
 10 18  1  0
 11 10  2  0
 11 12  1  0
 12 13  1  0
 13 14  1  0
 14 15  2  0
 16 15  1  0
 17 16  2  0
 18 13  2  0
 18 17  1  0
 19 27  1  0
 20 19  2  0
 21 22  1  0
 22 24  1  0
 22 23  2  0
 24 25  1  0
 26 25  1  6
 26 28  1  0
 27 26  1  0
 28 30  2  0
 28 29  1  0
M  END
$$$$
