CWQ.pdb
     RDKit          3D

 30 31  0  0  1  0  0  0  0  0999 V2000
    7.6792  -14.7329   19.6911 N   0  0  0  0  0  0  0  0  0  0  0  0
    7.3184  -15.5250   20.8434 C   0  0  1  0  0  0  0  0  0  0  0  0
    7.0294  -16.9333   20.4440 C   0  0  0  0  0  0  0  0  0  0  0  0
    8.6090  -17.6817   19.9077 S   0  0  0  0  0  0  0  0  0  0  0  0
    8.3237  -15.4087   21.9318 C   0  0  0  0  0  0  0  0  0  0  0  0
    9.4480  -14.8991   21.6883 O   0  0  0  0  0  0  0  0  0  0  0  0
    8.0852  -15.8476   23.2565 N   0  0  0  0  0  0  0  0  0  0  0  0
    9.0354  -15.8614   24.3233 C   0  0  1  0  0  0  0  0  0  0  0  0
    8.4063  -15.8197   25.6898 C   0  0  0  0  0  0  0  0  0  0  0  0
    7.3288  -14.8298   25.8142 C   0  0  0  0  0  0  0  0  0  0  0  0
    5.9711  -15.0508   25.7935 C   0  0  0  0  0  0  0  0  0  0  0  0
    5.3273  -13.8894   25.9363 N   0  0  0  0  0  0  0  0  0  0  0  0
    6.2431  -12.9068   26.0508 C   0  0  0  0  0  0  0  0  0  0  0  0
    6.1506  -11.5443   26.2160 C   0  0  0  0  0  0  0  0  0  0  0  0
    7.2767  -10.7406   26.3085 C   0  0  0  0  0  0  0  0  0  0  0  0
    8.5289  -11.2973   26.2359 C   0  0  0  0  0  0  0  0  0  0  0  0
    8.6166  -12.6709   26.0694 C   0  0  0  0  0  0  0  0  0  0  0  0
    7.4968  -13.4739   25.9770 C   0  0  0  0  0  0  0  0  0  0  0  0
    9.8351  -17.1103   24.2343 C   0  0  0  0  0  0  0  0  0  0  0  0
    9.5395  -17.9819   23.3920 O   0  0  0  0  0  0  0  0  0  0  0  0
   13.5809  -18.3118   20.8638 N   0  0  0  0  0  0  0  0  0  0  0  0
   13.9706  -17.4635   21.9225 C   0  0  0  0  0  0  0  0  0  0  0  0
   14.8698  -16.5662   21.7294 O   0  0  0  0  0  0  0  0  0  0  0  0
   13.4105  -17.5149   23.2771 C   0  0  0  0  0  0  0  0  0  0  0  0
   12.3102  -18.4729   23.5099 C   0  0  0  0  0  0  0  0  0  0  0  0
   11.7623  -18.5881   24.8934 C   0  0  2  0  0  0  0  0  0  0  0  0
   10.9426  -17.3675   25.0774 N   0  0  0  0  0  0  0  0  0  0  0  0
   12.7187  -18.7113   25.9935 C   0  0  0  0  0  0  0  0  0  0  0  0
   12.9134  -17.7894   27.0116 O   0  0  0  0  0  0  0  0  0  0  0  0
   13.4519  -19.7417   26.0394 O   0  0  0  0  0  0  0  0  0  0  0  0
  2  1  1  6
  2  5  1  0
  3  2  1  0
  4  3  1  0
  5  7  1  0
  6  5  2  0
  7  8  1  0
  8 19  1  0
  8  9  1  1
  9 10  1  0
 10 18  1  0
 11 10  2  0
 11 12  1  0
 12 13  1  0
 13 14  1  0
 14 15  2  0
 16 15  1  0
 17 16  2  0
 18 13  2  0
 18 17  1  0
 19 27  1  0
 20 19  2  0
 21 22  1  0
 22 24  1  0
 22 23  2  0
 24 25  1  0
 26 25  1  6
 26 28  1  0
 27 26  1  0
 28 30  2  0
 28 29  1  0
M  END
$$$$
