CWQ.pdb
     RDKit          3D

 30 31  0  0  1  0  0  0  0  0999 V2000
    7.1416  -17.4925   21.4520 N   0  0  0  0  0  0  0  0  0  0  0  0
    7.6340  -16.1827   21.0950 C   0  0  1  0  0  0  0  0  0  0  0  0
    6.5035  -15.2718   20.7504 C   0  0  0  0  0  0  0  0  0  0  0  0
    5.4165  -16.1701   19.5867 S   0  0  0  0  0  0  0  0  0  0  0  0
    8.5473  -15.6333   22.1307 C   0  0  0  0  0  0  0  0  0  0  0  0
    9.1392  -14.5426   21.9228 O   0  0  0  0  0  0  0  0  0  0  0  0
    8.7963  -16.2797   23.3653 N   0  0  0  0  0  0  0  0  0  0  0  0
    9.7611  -15.8862   24.3428 C   0  0  1  0  0  0  0  0  0  0  0  0
    9.2167  -15.8513   25.7454 C   0  0  0  0  0  0  0  0  0  0  0  0
    7.9371  -15.1411   25.8650 C   0  0  0  0  0  0  0  0  0  0  0  0
    6.6683  -15.6570   25.7352 C   0  0  0  0  0  0  0  0  0  0  0  0
    5.7704  -14.6849   25.9152 N   0  0  0  0  0  0  0  0  0  0  0  0
    6.4309  -13.5359   26.1616 C   0  0  0  0  0  0  0  0  0  0  0  0
    6.0220  -12.2474   26.4159 C   0  0  0  0  0  0  0  0  0  0  0  0
    6.9290  -11.2233   26.6423 C   0  0  0  0  0  0  0  0  0  0  0  0
    8.2772  -11.4783   26.6169 C   0  0  0  0  0  0  0  0  0  0  0  0
    8.6841  -12.7786   26.3602 C   0  0  0  0  0  0  0  0  0  0  0  0
    7.7830  -13.8006   26.1344 C   0  0  0  0  0  0  0  0  0  0  0  0
   10.8860  -16.8563   24.3210 C   0  0  0  0  0  0  0  0  0  0  0  0
   10.6584  -18.0723   24.1593 O   0  0  0  0  0  0  0  0  0  0  0  0
   14.5666  -14.2341   20.8912 N   0  0  0  0  0  0  0  0  0  0  0  0
   14.8401  -14.9733   22.0622 C   0  0  0  0  0  0  0  0  0  0  0  0
   15.6773  -14.5221   22.9262 O   0  0  0  0  0  0  0  0  0  0  0  0
   14.2212  -16.2607   22.3951 C   0  0  0  0  0  0  0  0  0  0  0  0
   14.4555  -16.7832   23.7569 C   0  0  0  0  0  0  0  0  0  0  0  0
   13.3239  -17.4669   24.4495 C   0  0  2  0  0  0  0  0  0  0  0  0
   12.2361  -16.4612   24.4782 N   0  0  0  0  0  0  0  0  0  0  0  0
   13.5630  -17.9746   25.8005 C   0  0  0  0  0  0  0  0  0  0  0  0
   12.9047  -17.5690   26.9522 O   0  0  0  0  0  0  0  0  0  0  0  0
   14.4515  -18.8614   25.9604 O   0  0  0  0  0  0  0  0  0  0  0  0
  2  1  1  1
  2  5  1  0
  3  2  1  0
  4  3  1  0
  5  7  1  0
  6  5  2  0
  7  8  1  0
  8 19  1  0
  8  9  1  1
  9 10  1  0
 10 18  1  0
 11 10  2  0
 11 12  1  0
 12 13  1  0
 13 14  1  0
 14 15  2  0
 16 15  1  0
 17 16  2  0
 18 13  2  0
 18 17  1  0
 19 27  1  0
 20 19  2  0
 21 22  1  0
 22 24  1  0
 22 23  2  0
 24 25  1  0
 26 25  1  1
 26 28  1  0
 27 26  1  0
 28 30  2  0
 28 29  1  0
M  END
$$$$
