CWQ.pdb
     RDKit          3D

 30 31  0  0  1  0  0  0  0  0999 V2000
    8.0755  -17.6042   18.7845 N   0  0  0  0  0  0  0  0  0  0  0  0
    8.8896  -16.4116   18.8109 C   0  0  1  0  0  0  0  0  0  0  0  0
    8.3631  -15.3943   17.8548 C   0  0  0  0  0  0  0  0  0  0  0  0
    7.5674  -16.3000   16.4803 S   0  0  0  0  0  0  0  0  0  0  0  0
    9.0689  -15.8943   20.1925 C   0  0  0  0  0  0  0  0  0  0  0  0
   10.0068  -15.0928   20.4397 O   0  0  0  0  0  0  0  0  0  0  0  0
    8.2275  -16.2585   21.2712 N   0  0  0  0  0  0  0  0  0  0  0  0
    8.2811  -15.7295   22.5973 C   0  0  1  0  0  0  0  0  0  0  0  0
    6.9695  -15.8107   23.3308 C   0  0  0  0  0  0  0  0  0  0  0  0
    7.0441  -15.3593   24.7262 C   0  0  0  0  0  0  0  0  0  0  0  0
    7.1123  -16.1322   25.8623 C   0  0  0  0  0  0  0  0  0  0  0  0
    7.1664  -15.3418   26.9375 N   0  0  0  0  0  0  0  0  0  0  0  0
    7.1346  -14.0590   26.5244 C   0  0  0  0  0  0  0  0  0  0  0  0
    7.1634  -12.8530   27.1855 C   0  0  0  0  0  0  0  0  0  0  0  0
    7.1179  -11.6451   26.5061 C   0  0  0  0  0  0  0  0  0  0  0  0
    7.0419  -11.6271   25.1360 C   0  0  0  0  0  0  0  0  0  0  0  0
    7.0132  -12.8453   24.4745 C   0  0  0  0  0  0  0  0  0  0  0  0
    7.0584  -14.0499   25.1486 C   0  0  0  0  0  0  0  0  0  0  0  0
    9.2820  -16.5005   23.3789 C   0  0  0  0  0  0  0  0  0  0  0  0
    9.2709  -17.7478   23.3489 O   0  0  0  0  0  0  0  0  0  0  0  0
   14.9140  -15.6277   22.5077 N   0  0  0  0  0  0  0  0  0  0  0  0
   15.0035  -16.2655   23.7637 C   0  0  0  0  0  0  0  0  0  0  0  0
   16.0613  -16.9246   24.0759 O   0  0  0  0  0  0  0  0  0  0  0  0
   13.9537  -16.2342   24.7876 C   0  0  0  0  0  0  0  0  0  0  0  0
   12.6176  -15.7695   24.3616 C   0  0  0  0  0  0  0  0  0  0  0  0
   11.4444  -16.6430   24.6581 C   0  0  2  0  0  0  0  0  0  0  0  0
   10.2717  -15.8764   24.1754 N   0  0  0  0  0  0  0  0  0  0  0  0
   11.2329  -17.0457   26.0485 C   0  0  0  0  0  0  0  0  0  0  0  0
   11.7755  -18.1638   26.6650 O   0  0  0  0  0  0  0  0  0  0  0  0
   10.4853  -16.3280   26.7746 O   0  0  0  0  0  0  0  0  0  0  0  0
  2  1  1  1
  2  5  1  0
  3  2  1  0
  4  3  1  0
  5  7  1  0
  6  5  2  0
  7  8  1  0
  8 19  1  0
  8  9  1  1
  9 10  1  0
 10 18  1  0
 11 10  2  0
 11 12  1  0
 12 13  1  0
 13 14  1  0
 14 15  2  0
 16 15  1  0
 17 16  2  0
 18 13  2  0
 18 17  1  0
 19 27  1  0
 20 19  2  0
 21 22  1  0
 22 24  1  0
 22 23  2  0
 24 25  1  0
 26 25  1  1
 26 28  1  0
 27 26  1  0
 28 30  2  0
 28 29  1  0
M  END
$$$$
