CWQ.pdb
     RDKit          3D

 30 31  0  0  1  0  0  0  0  0999 V2000
    6.9612  -13.9918   19.6649 N   0  0  0  0  0  0  0  0  0  0  0  0
    7.1523  -15.1987   20.4346 C   0  0  1  0  0  0  0  0  0  0  0  0
    7.4189  -16.3592   19.5353 C   0  0  0  0  0  0  0  0  0  0  0  0
    5.8231  -16.8453   18.7871 S   0  0  0  0  0  0  0  0  0  0  0  0
    8.1758  -15.0211   21.4975 C   0  0  0  0  0  0  0  0  0  0  0  0
    9.1403  -14.2358   21.3073 O   0  0  0  0  0  0  0  0  0  0  0  0
    8.1282  -15.6991   22.7393 N   0  0  0  0  0  0  0  0  0  0  0  0
    9.0548  -15.5499   23.8166 C   0  0  1  0  0  0  0  0  0  0  0  0
    8.4777  -15.9060   25.1601 C   0  0  0  0  0  0  0  0  0  0  0  0
    7.3592  -15.0470   25.5691 C   0  0  0  0  0  0  0  0  0  0  0  0
    6.0208  -15.3633   25.6089 C   0  0  0  0  0  0  0  0  0  0  0  0
    5.3249  -14.3071   26.0375 N   0  0  0  0  0  0  0  0  0  0  0  0
    6.1871  -13.2997   26.2805 C   0  0  0  0  0  0  0  0  0  0  0  0
    6.0292  -12.0091   26.7295 C   0  0  0  0  0  0  0  0  0  0  0  0
    7.1092  -11.1559   26.8978 C   0  0  0  0  0  0  0  0  0  0  0  0
    8.3804  -11.5886   26.6150 C   0  0  0  0  0  0  0  0  0  0  0  0
    8.5341  -12.8902   26.1628 C   0  0  0  0  0  0  0  0  0  0  0  0
    7.4603  -13.7423   25.9942 C   0  0  0  0  0  0  0  0  0  0  0  0
   10.2163  -16.4441   23.5747 C   0  0  0  0  0  0  0  0  0  0  0  0
   10.0374  -17.5868   23.1068 O   0  0  0  0  0  0  0  0  0  0  0  0
   15.2658  -14.4004   20.8639 N   0  0  0  0  0  0  0  0  0  0  0  0
   15.6780  -15.6674   21.3300 C   0  0  0  0  0  0  0  0  0  0  0  0
   16.8369  -16.1230   21.0131 O   0  0  0  0  0  0  0  0  0  0  0  0
   14.8681  -16.5415   22.1851 C   0  0  0  0  0  0  0  0  0  0  0  0
   13.5670  -16.0113   22.6418 C   0  0  0  0  0  0  0  0  0  0  0  0
   12.6854  -16.9112   23.4421 C   0  0  2  0  0  0  0  0  0  0  0  0
   11.5482  -16.0557   23.8551 N   0  0  0  0  0  0  0  0  0  0  0  0
   13.2669  -17.5609   24.6168 C   0  0  0  0  0  0  0  0  0  0  0  0
   12.9418  -17.2964   25.9393 O   0  0  0  0  0  0  0  0  0  0  0  0
   14.1546  -18.4445   24.4367 O   0  0  0  0  0  0  0  0  0  0  0  0
  2  1  1  6
  2  5  1  0
  3  2  1  0
  4  3  1  0
  5  7  1  0
  6  5  2  0
  7  8  1  0
  8 19  1  0
  8  9  1  1
  9 10  1  0
 10 18  1  0
 11 10  2  0
 11 12  1  0
 12 13  1  0
 13 14  1  0
 14 15  2  0
 16 15  1  0
 17 16  2  0
 18 13  2  0
 18 17  1  0
 19 27  1  0
 20 19  2  0
 21 22  1  0
 22 24  1  0
 22 23  2  0
 24 25  1  0
 26 25  1  1
 26 28  1  0
 27 26  1  0
 28 30  2  0
 28 29  1  0
M  END
$$$$
