CCP.pdb
     RDKit          3D

 20 20  0  0  1  0  0  0  0  0999 V2000
   19.6950  -11.0155  -15.2912 N   0  0  0  0  0  0  0  0  0  0  0  0
   19.5889   -9.8332  -16.1072 C   0  0  1  0  0  0  0  0  0  0  0  0
   18.3310   -9.8316  -16.9378 C   0  0  0  0  0  0  0  0  0  0  0  0
   18.3562  -11.1082  -18.2152 S   0  0  0  0  0  0  0  0  0  0  0  0
   19.6140   -8.5891  -15.3119 C   0  0  0  0  0  0  0  0  0  0  0  0
   18.6882   -8.4074  -14.4804 O   0  0  0  0  0  0  0  0  0  0  0  0
   20.6027   -7.5968  -15.4230 N   0  0  0  0  0  0  0  0  0  0  0  0
   20.6017   -6.3728  -14.5864 C   0  0  1  0  0  0  0  0  0  0  0  0
   21.8786   -6.5590  -13.7470 C   0  0  0  0  0  0  0  0  0  0  0  0
   22.2338   -5.0710  -12.8083 S   0  0  0  0  0  0  0  0  0  0  0  0
   20.6689   -5.1807  -15.4451 C   0  0  0  0  0  0  0  0  0  0  0  0
   21.5674   -5.2293  -16.3719 O   0  0  0  0  0  0  0  0  0  0  0  0
   19.8487   -4.0409  -15.3248 N   0  0  0  0  0  0  0  0  0  0  0  0
   18.7534   -3.9237  -14.3560 C   0  0  0  0  0  0  0  0  0  0  0  0
   17.7459   -3.1460  -15.2044 C   0  0  0  0  0  0  0  0  0  0  0  0
   18.6472   -2.0389  -15.7100 C   0  0  0  0  0  0  0  0  0  0  0  0
   19.9109   -2.8258  -16.0814 C   0  0  1  0  0  0  0  0  0  0  0  0
   21.1079   -2.0347  -15.6569 C   0  0  0  0  0  0  0  0  0  0  0  0
   21.6906   -2.2624  -14.4316 O   0  0  0  0  0  0  0  0  0  0  0  0
   21.5536   -1.1698  -16.4469 O   0  0  0  0  0  0  0  0  0  0  0  0
  2  5  1  0
  2  1  1  1
  3  2  1  0
  4  3  1  0
  5  6  2  0
  7  8  1  0
  7  5  1  0
  8  9  1  1
 10  9  1  0
 11 13  1  0
 11  8  1  0
 12 11  2  0
 13 17  1  0
 14 13  1  0
 14 15  1  0
 15 16  1  0
 17 18  1  1
 17 16  1  0
 18 20  2  0
 18 19  1  0
M  END
$$$$
