CCP.pdb
     RDKit          3D

 20 20  0  0  1  0  0  0  0  0999 V2000
   20.4124  -19.7335  -13.4590 N   0  0  0  0  0  0  0  0  0  0  0  0
   21.3536  -20.8155  -13.5941 C   0  0  1  0  0  0  0  0  0  0  0  0
   21.2024  -21.5342  -14.9105 C   0  0  0  0  0  0  0  0  0  0  0  0
   20.0800  -22.9443  -14.7919 S   0  0  0  0  0  0  0  0  0  0  0  0
   22.7559  -20.3675  -13.4756 C   0  0  0  0  0  0  0  0  0  0  0  0
   23.0808  -19.3014  -14.0583 O   0  0  0  0  0  0  0  0  0  0  0  0
   23.7491  -21.0530  -12.7559 N   0  0  0  0  0  0  0  0  0  0  0  0
   25.1645  -20.6119  -12.7320 C   0  0  1  0  0  0  0  0  0  0  0  0
   25.7503  -21.4804  -11.6040 C   0  0  0  0  0  0  0  0  0  0  0  0
   27.5433  -21.4011  -11.6192 S   0  0  0  0  0  0  0  0  0  0  0  0
   25.7956  -20.8872  -14.0315 C   0  0  0  0  0  0  0  0  0  0  0  0
   25.3720  -21.9532  -14.6257 O   0  0  0  0  0  0  0  0  0  0  0  0
   26.7882  -20.0940  -14.6411 N   0  0  0  0  0  0  0  0  0  0  0  0
   27.3816  -18.9076  -14.0150 C   0  0  0  0  0  0  0  0  0  0  0  0
   27.5351  -18.0183  -15.2500 C   0  0  0  0  0  0  0  0  0  0  0  0
   28.2128  -19.0007  -16.1823 C   0  0  0  0  0  0  0  0  0  0  0  0
   27.3919  -20.2719  -15.9283 C   0  0  1  0  0  0  0  0  0  0  0  0
   28.3242  -21.4414  -15.8846 C   0  0  0  0  0  0  0  0  0  0  0  0
   28.9025  -21.9106  -17.0415 O   0  0  0  0  0  0  0  0  0  0  0  0
   28.5554  -21.9700  -14.7721 O   0  0  0  0  0  0  0  0  0  0  0  0
  2  5  1  0
  2  1  1  6
  3  2  1  0
  4  3  1  0
  5  6  2  0
  7  8  1  0
  7  5  1  0
  8  9  1  1
 10  9  1  0
 11 13  1  0
 11  8  1  0
 12 11  2  0
 13 17  1  0
 14 13  1  0
 14 15  1  0
 15 16  1  0
 17 18  1  1
 17 16  1  0
 18 20  2  0
 18 19  1  0
M  END
$$$$
