CCP.pdb
     RDKit          3D

 20 20  0  0  1  0  0  0  0  0999 V2000
   27.8665  -19.5097  -19.6452 N   0  0  0  0  0  0  0  0  0  0  0  0
   28.3640  -20.4965  -18.7212 C   0  0  1  0  0  0  0  0  0  0  0  0
   29.7874  -20.8879  -19.0257 C   0  0  0  0  0  0  0  0  0  0  0  0
   30.1588  -22.5739  -18.4952 S   0  0  0  0  0  0  0  0  0  0  0  0
   28.3044  -20.0421  -17.3173 C   0  0  0  0  0  0  0  0  0  0  0  0
   29.2459  -19.3236  -16.8943 O   0  0  0  0  0  0  0  0  0  0  0  0
   27.2666  -20.3593  -16.4247 N   0  0  0  0  0  0  0  0  0  0  0  0
   27.1199  -19.6991  -15.1052 C   0  0  1  0  0  0  0  0  0  0  0  0
   26.8827  -18.2321  -15.5071 C   0  0  0  0  0  0  0  0  0  0  0  0
   26.4304  -17.2545  -14.0714 S   0  0  0  0  0  0  0  0  0  0  0  0
   25.9725  -20.2715  -14.3850 C   0  0  0  0  0  0  0  0  0  0  0  0
   24.9713  -20.5997  -15.1325 O   0  0  0  0  0  0  0  0  0  0  0  0
   25.9026  -20.4760  -12.9924 N   0  0  0  0  0  0  0  0  0  0  0  0
   26.9425  -20.0443  -12.0521 C   0  0  0  0  0  0  0  0  0  0  0  0
   26.8992  -21.2159  -11.0698 C   0  0  0  0  0  0  0  0  0  0  0  0
   25.4064  -21.2794  -10.8224 C   0  0  0  0  0  0  0  0  0  0  0  0
   24.8583  -21.1124  -12.2458 C   0  0  1  0  0  0  0  0  0  0  0  0
   23.6629  -20.2139  -12.1947 C   0  0  0  0  0  0  0  0  0  0  0  0
   22.4807  -20.6629  -11.6528 O   0  0  0  0  0  0  0  0  0  0  0  0
   23.7765  -19.0544  -12.6567 O   0  0  0  0  0  0  0  0  0  0  0  0
  2  5  1  0
  2  1  1  6
  3  2  1  0
  4  3  1  0
  5  6  2  0
  7  8  1  0
  7  5  1  0
  8  9  1  6
 10  9  1  0
 11 13  1  0
 11  8  1  0
 12 11  2  0
 13 17  1  0
 14 13  1  0
 14 15  1  0
 15 16  1  0
 17 18  1  1
 17 16  1  0
 18 20  2  0
 18 19  1  0
M  END
$$$$
