CCP.pdb
     RDKit          3D

 20 20  0  0  1  0  0  0  0  0999 V2000
   20.2139  -18.8585  -14.4312 N   0  0  0  0  0  0  0  0  0  0  0  0
   21.0555  -20.0251  -14.5066 C   0  0  1  0  0  0  0  0  0  0  0  0
   21.1011  -20.5991  -15.8997 C   0  0  0  0  0  0  0  0  0  0  0  0
   19.7364  -21.7403  -16.2114 S   0  0  0  0  0  0  0  0  0  0  0  0
   22.4424  -19.7545  -14.0773 C   0  0  0  0  0  0  0  0  0  0  0  0
   22.9396  -18.6380  -14.3740 O   0  0  0  0  0  0  0  0  0  0  0  0
   23.2416  -20.6610  -13.3604 N   0  0  0  0  0  0  0  0  0  0  0  0
   24.6574  -20.3804  -13.0208 C   0  0  1  0  0  0  0  0  0  0  0  0
   24.8967  -21.3349  -11.8369 C   0  0  0  0  0  0  0  0  0  0  0  0
   26.6457  -21.4180  -11.4428 S   0  0  0  0  0  0  0  0  0  0  0  0
   25.5186  -20.6935  -14.1711 C   0  0  0  0  0  0  0  0  0  0  0  0
   25.1858  -21.7568  -14.8248 O   0  0  0  0  0  0  0  0  0  0  0  0
   26.6332  -19.9373  -14.5858 N   0  0  0  0  0  0  0  0  0  0  0  0
   27.1204  -18.7484  -13.8780 C   0  0  0  0  0  0  0  0  0  0  0  0
   27.5404  -17.8942  -15.0753 C   0  0  0  0  0  0  0  0  0  0  0  0
   28.3648  -18.9141  -15.8327 C   0  0  0  0  0  0  0  0  0  0  0  0
   27.4769  -20.1606  -15.7221 C   0  0  1  0  0  0  0  0  0  0  0  0
   28.3509  -21.3484  -15.4687 C   0  0  0  0  0  0  0  0  0  0  0  0
   29.0812  -21.9032  -16.4943 O   0  0  0  0  0  0  0  0  0  0  0  0
   28.3926  -21.8124  -14.3053 O   0  0  0  0  0  0  0  0  0  0  0  0
  2  5  1  0
  2  1  1  6
  3  2  1  0
  4  3  1  0
  5  6  2  0
  7  8  1  0
  7  5  1  0
  8  9  1  1
 10  9  1  0
 11 13  1  0
 11  8  1  0
 12 11  2  0
 13 17  1  0
 14 13  1  0
 14 15  1  0
 15 16  1  0
 17 18  1  1
 17 16  1  0
 18 20  2  0
 18 19  1  0
M  END
$$$$
