CCP.pdb
     RDKit          3D

 20 20  0  0  1  0  0  0  0  0999 V2000
   25.6667  -12.5051  -16.2281 N   0  0  0  0  0  0  0  0  0  0  0  0
   25.8571  -11.0797  -16.1449 C   0  0  1  0  0  0  0  0  0  0  0  0
   26.8661  -10.5855  -17.1499 C   0  0  0  0  0  0  0  0  0  0  0  0
   28.5526  -11.0615  -16.7128 S   0  0  0  0  0  0  0  0  0  0  0  0
   24.6033  -10.3258  -16.3462 C   0  0  0  0  0  0  0  0  0  0  0  0
   23.8892  -10.6312  -17.3354 O   0  0  0  0  0  0  0  0  0  0  0  0
   24.1565   -9.2915  -15.5066 N   0  0  0  0  0  0  0  0  0  0  0  0
   22.8670   -8.5916  -15.7203 C   0  0  1  0  0  0  0  0  0  0  0  0
   21.9867   -9.1996  -14.6134 C   0  0  0  0  0  0  0  0  0  0  0  0
   21.4277   -7.9212  -13.4844 S   0  0  0  0  0  0  0  0  0  0  0  0
   23.0513   -7.1422  -15.5517 C   0  0  0  0  0  0  0  0  0  0  0  0
   23.9661   -6.8064  -14.7037 O   0  0  0  0  0  0  0  0  0  0  0  0
   22.3248   -6.1428  -16.2296 N   0  0  0  0  0  0  0  0  0  0  0  0
   21.2832   -6.4249  -17.2233 C   0  0  0  0  0  0  0  0  0  0  0  0
   21.5527   -5.2832  -18.2049 C   0  0  0  0  0  0  0  0  0  0  0  0
   21.6036   -4.1240  -17.2317 C   0  0  0  0  0  0  0  0  0  0  0  0
   22.4449   -4.7214  -16.0961 C   0  0  1  0  0  0  0  0  0  0  0  0
   21.8565   -4.2917  -14.7891 C   0  0  0  0  0  0  0  0  0  0  0  0
   22.1156   -3.0353  -14.2918 O   0  0  0  0  0  0  0  0  0  0  0  0
   21.1299   -5.1061  -14.1733 O   0  0  0  0  0  0  0  0  0  0  0  0
  2  5  1  0
  2  1  1  6
  3  2  1  0
  4  3  1  0
  5  6  2  0
  7  8  1  0
  7  5  1  0
  8  9  1  1
 10  9  1  0
 11 13  1  0
 11  8  1  0
 12 11  2  0
 13 17  1  0
 14 13  1  0
 14 15  1  0
 15 16  1  0
 17 18  1  1
 17 16  1  0
 18 20  2  0
 18 19  1  0
M  END
$$$$
