CCP.pdb
     RDKit          3D

 20 20  0  0  1  0  0  0  0  0999 V2000
   19.9613  -16.0033  -18.4137 N   0  0  0  0  0  0  0  0  0  0  0  0
   21.0470  -15.1426  -18.0198 C   0  0  1  0  0  0  0  0  0  0  0  0
   22.3196  -15.4639  -18.7612 C   0  0  0  0  0  0  0  0  0  0  0  0
   23.0854  -16.9894  -18.1710 S   0  0  0  0  0  0  0  0  0  0  0  0
   20.7438  -13.7125  -18.2291 C   0  0  0  0  0  0  0  0  0  0  0  0
   20.3115  -13.3651  -19.3579 O   0  0  0  0  0  0  0  0  0  0  0  0
   20.9063  -12.7162  -17.2517 N   0  0  0  0  0  0  0  0  0  0  0  0
   20.4720  -11.3143  -17.4620 C   0  0  1  0  0  0  0  0  0  0  0  0
   18.9389  -11.4532  -17.4725 C   0  0  0  0  0  0  0  0  0  0  0  0
   18.3487  -12.0024  -15.8689 S   0  0  0  0  0  0  0  0  0  0  0  0
   20.9471  -10.4725  -16.3535 C   0  0  0  0  0  0  0  0  0  0  0  0
   21.1541  -11.1016  -15.2444 O   0  0  0  0  0  0  0  0  0  0  0  0
   21.1811   -9.0846  -16.4249 N   0  0  0  0  0  0  0  0  0  0  0  0
   20.9335   -8.2770  -17.6243 C   0  0  0  0  0  0  0  0  0  0  0  0
   22.1155   -7.3110  -17.5286 C   0  0  0  0  0  0  0  0  0  0  0  0
   21.9688   -6.8792  -16.0845 C   0  0  0  0  0  0  0  0  0  0  0  0
   21.6812   -8.2206  -15.3972 C   0  0  1  0  0  0  0  0  0  0  0  0
   20.6205   -8.0094  -14.3632 C   0  0  0  0  0  0  0  0  0  0  0  0
   20.9560   -7.5556  -13.1084 O   0  0  0  0  0  0  0  0  0  0  0  0
   19.4329   -8.2575  -14.6773 O   0  0  0  0  0  0  0  0  0  0  0  0
  2  5  1  0
  2  1  1  6
  3  2  1  0
  4  3  1  0
  5  6  2  0
  7  8  1  0
  7  5  1  0
  8  9  1  1
 10  9  1  0
 11 13  1  0
 11  8  1  0
 12 11  2  0
 13 17  1  0
 14 13  1  0
 14 15  1  0
 15 16  1  0
 17 18  1  1
 17 16  1  0
 18 20  2  0
 18 19  1  0
M  END
$$$$
