CCP.pdb
     RDKit          3D

 20 20  0  0  1  0  0  0  0  0999 V2000
   27.5286  -14.5648  -17.6146 N   0  0  0  0  0  0  0  0  0  0  0  0
   27.2161  -13.4167  -16.8028 C   0  0  1  0  0  0  0  0  0  0  0  0
   28.4578  -12.7321  -16.2914 C   0  0  0  0  0  0  0  0  0  0  0  0
   28.0751  -11.2312  -15.3626 S   0  0  0  0  0  0  0  0  0  0  0  0
   26.4046  -12.4148  -17.5230 C   0  0  0  0  0  0  0  0  0  0  0  0
   26.8737  -11.9379  -18.5881 O   0  0  0  0  0  0  0  0  0  0  0  0
   25.1451  -11.9600  -17.0972 N   0  0  0  0  0  0  0  0  0  0  0  0
   24.3845  -10.9181  -17.8280 C   0  0  1  0  0  0  0  0  0  0  0  0
   23.1445  -11.6995  -18.2989 C   0  0  0  0  0  0  0  0  0  0  0  0
   21.8781  -10.5707  -18.8851 S   0  0  0  0  0  0  0  0  0  0  0  0
   24.0364   -9.8200  -16.9137 C   0  0  0  0  0  0  0  0  0  0  0  0
   23.7712  -10.1851  -15.7032 O   0  0  0  0  0  0  0  0  0  0  0  0
   23.9789   -8.4555  -17.2615 N   0  0  0  0  0  0  0  0  0  0  0  0
   24.4033   -7.9276  -18.5626 C   0  0  0  0  0  0  0  0  0  0  0  0
   25.0253   -6.6056  -18.1099 C   0  0  0  0  0  0  0  0  0  0  0  0
   23.9047   -6.0904  -17.2311 C   0  0  0  0  0  0  0  0  0  0  0  0
   23.5184   -7.3601  -16.4610 C   0  0  1  0  0  0  0  0  0  0  0  0
   22.0273   -7.4158  -16.3498 C   0  0  0  0  0  0  0  0  0  0  0  0
   21.3810   -6.7330  -15.3453 O   0  0  0  0  0  0  0  0  0  0  0  0
   21.3981   -8.0973  -17.1926 O   0  0  0  0  0  0  0  0  0  0  0  0
  2  5  1  0
  2  1  1  6
  3  2  1  0
  4  3  1  0
  5  6  2  0
  7  8  1  0
  7  5  1  0
  8  9  1  1
 10  9  1  0
 11 13  1  0
 11  8  1  0
 12 11  2  0
 13 17  1  0
 14 13  1  0
 14 15  1  0
 15 16  1  0
 17 18  1  6
 17 16  1  0
 18 20  2  0
 18 19  1  0
M  END
$$$$
