CCP.pdb
     RDKit          3D

 20 20  0  0  1  0  0  0  0  0999 V2000
   21.4182  -13.9164  -17.7204 N   0  0  0  0  0  0  0  0  0  0  0  0
   21.6384  -12.5421  -18.0912 C   0  0  1  0  0  0  0  0  0  0  0  0
   21.0109  -12.2085  -19.4205 C   0  0  0  0  0  0  0  0  0  0  0  0
   21.7163  -13.1799  -20.7699 S   0  0  0  0  0  0  0  0  0  0  0  0
   21.1176  -11.5918  -17.0878 C   0  0  0  0  0  0  0  0  0  0  0  0
   20.0082  -11.8522  -16.5557 O   0  0  0  0  0  0  0  0  0  0  0  0
   21.7790  -10.4180  -16.6891 N   0  0  0  0  0  0  0  0  0  0  0  0
   21.2037   -9.4750  -15.7001 C   0  0  1  0  0  0  0  0  0  0  0  0
   22.2216   -9.5601  -14.5485 C   0  0  0  0  0  0  0  0  0  0  0  0
   21.7024   -8.5269  -13.1757 S   0  0  0  0  0  0  0  0  0  0  0  0
   21.1310   -8.1255  -16.2802 C   0  0  0  0  0  0  0  0  0  0  0  0
   22.1649   -7.7752  -16.9709 O   0  0  0  0  0  0  0  0  0  0  0  0
   20.0504   -7.2323  -16.1363 N   0  0  0  0  0  0  0  0  0  0  0  0
   18.8467   -7.5292  -15.3522 C   0  0  0  0  0  0  0  0  0  0  0  0
   17.7954   -6.8555  -16.2357 C   0  0  0  0  0  0  0  0  0  0  0  0
   18.4572   -5.5069  -16.4270 C   0  0  0  0  0  0  0  0  0  0  0  0
   19.9104   -5.9202  -16.6943 C   0  0  1  0  0  0  0  0  0  0  0  0
   20.8166   -4.9724  -15.9736 C   0  0  0  0  0  0  0  0  0  0  0  0
   21.0193   -3.7016  -16.4604 O   0  0  0  0  0  0  0  0  0  0  0  0
   21.3758   -5.3727  -14.9259 O   0  0  0  0  0  0  0  0  0  0  0  0
  2  5  1  0
  2  1  1  1
  3  2  1  0
  4  3  1  0
  5  6  2  0
  7  8  1  0
  7  5  1  0
  8  9  1  1
 10  9  1  0
 11 13  1  0
 11  8  1  0
 12 11  2  0
 13 17  1  0
 14 13  1  0
 14 15  1  0
 15 16  1  0
 17 18  1  1
 17 16  1  0
 18 20  2  0
 18 19  1  0
M  END
$$$$
