CCP.pdb
     RDKit          3D

 20 20  0  0  1  0  0  0  0  0999 V2000
   29.6146  -25.8106  -16.6170 N   0  0  0  0  0  0  0  0  0  0  0  0
   28.4036  -25.6913  -17.3878 C   0  0  1  0  0  0  0  0  0  0  0  0
   28.3061  -26.7525  -18.4538 C   0  0  0  0  0  0  0  0  0  0  0  0
   26.8201  -26.5693  -19.4639 S   0  0  0  0  0  0  0  0  0  0  0  0
   27.1880  -25.7683  -16.5526 C   0  0  0  0  0  0  0  0  0  0  0  0
   27.1989  -26.5592  -15.5749 O   0  0  0  0  0  0  0  0  0  0  0  0
   26.0221  -25.0172  -16.7783 N   0  0  0  0  0  0  0  0  0  0  0  0
   24.8405  -25.0912  -15.8858 C   0  0  1  0  0  0  0  0  0  0  0  0
   24.7115  -23.6343  -15.4056 C   0  0  0  0  0  0  0  0  0  0  0  0
   25.5445  -23.4178  -13.8306 S   0  0  0  0  0  0  0  0  0  0  0  0
   23.6638  -25.5316  -16.6503 C   0  0  0  0  0  0  0  0  0  0  0  0
   23.5878  -25.0585  -17.8500 O   0  0  0  0  0  0  0  0  0  0  0  0
   22.6605  -26.4002  -16.1759 N   0  0  0  0  0  0  0  0  0  0  0  0
   22.7135  -27.0718  -14.8728 C   0  0  0  0  0  0  0  0  0  0  0  0
   22.0916  -28.4162  -15.2543 C   0  0  0  0  0  0  0  0  0  0  0  0
   20.8595  -27.9232  -15.9839 C   0  0  0  0  0  0  0  0  0  0  0  0
   21.4463  -26.7863  -16.8310 C   0  0  1  0  0  0  0  0  0  0  0  0
   20.4866  -25.6384  -16.8197 C   0  0  0  0  0  0  0  0  0  0  0  0
   20.7596  -24.5138  -16.0756 O   0  0  0  0  0  0  0  0  0  0  0  0
   19.4406  -25.7375  -17.5028 O   0  0  0  0  0  0  0  0  0  0  0  0
  2  5  1  0
  2  1  1  1
  3  2  1  0
  4  3  1  0
  5  6  2  0
  7  8  1  0
  7  5  1  0
  8  9  1  6
 10  9  1  0
 11 13  1  0
 11  8  1  0
 12 11  2  0
 13 17  1  0
 14 13  1  0
 14 15  1  0
 15 16  1  0
 17 18  1  1
 17 16  1  0
 18 20  2  0
 18 19  1  0
M  END
$$$$
