CCP.pdb
     RDKit          3D

 20 20  0  0  1  0  0  0  0  0999 V2000
   24.2488  -15.7187  -19.1018 N   0  0  0  0  0  0  0  0  0  0  0  0
   23.5024  -14.4883  -19.0406 C   0  0  1  0  0  0  0  0  0  0  0  0
   22.0284  -14.7317  -18.8397 C   0  0  0  0  0  0  0  0  0  0  0  0
   21.2249  -15.3272  -20.3436 S   0  0  0  0  0  0  0  0  0  0  0  0
   23.9695  -13.5927  -17.9633 C   0  0  0  0  0  0  0  0  0  0  0  0
   24.2675  -14.1130  -16.8578 O   0  0  0  0  0  0  0  0  0  0  0  0
   24.1027  -12.1999  -18.0920 N   0  0  0  0  0  0  0  0  0  0  0  0
   24.5970  -11.3406  -16.9894 C   0  0  1  0  0  0  0  0  0  0  0  0
   25.8931  -10.7660  -17.5892 C   0  0  0  0  0  0  0  0  0  0  0  0
   26.5620   -9.4852  -16.5244 S   0  0  0  0  0  0  0  0  0  0  0  0
   23.6091  -10.2927  -16.6915 C   0  0  0  0  0  0  0  0  0  0  0  0
   23.0766   -9.7378  -17.7294 O   0  0  0  0  0  0  0  0  0  0  0  0
   23.2243   -9.8770  -15.4010 N   0  0  0  0  0  0  0  0  0  0  0  0
   23.7853  -10.4327  -14.1647 C   0  0  0  0  0  0  0  0  0  0  0  0
   22.5291  -10.4302  -13.2920 C   0  0  0  0  0  0  0  0  0  0  0  0
   22.0618   -9.0097  -13.5311 C   0  0  0  0  0  0  0  0  0  0  0  0
   22.2587   -8.8794  -15.0472 C   0  0  1  0  0  0  0  0  0  0  0  0
   22.8138   -7.5214  -15.3415 C   0  0  0  0  0  0  0  0  0  0  0  0
   22.0255   -6.4034  -15.1949 O   0  0  0  0  0  0  0  0  0  0  0  0
   24.0056   -7.4410  -15.7208 O   0  0  0  0  0  0  0  0  0  0  0  0
  2  5  1  0
  2  1  1  1
  3  2  1  0
  4  3  1  0
  5  6  2  0
  7  8  1  0
  7  5  1  0
  8  9  1  6
 10  9  1  0
 11 13  1  0
 11  8  1  0
 12 11  2  0
 13 17  1  0
 14 13  1  0
 14 15  1  0
 15 16  1  0
 17 18  1  1
 17 16  1  0
 18 20  2  0
 18 19  1  0
M  END
$$$$
