CCP.pdb
     RDKit          3D

 20 20  0  0  1  0  0  0  0  0999 V2000
   29.2110  -24.3342  -18.3526 N   0  0  0  0  0  0  0  0  0  0  0  0
   28.1041  -24.3910  -17.4326 C   0  0  1  0  0  0  0  0  0  0  0  0
   28.0326  -25.7155  -16.7167 C   0  0  0  0  0  0  0  0  0  0  0  0
   27.6741  -27.0807  -17.8435 S   0  0  0  0  0  0  0  0  0  0  0  0
   28.1554  -23.3224  -16.4145 C   0  0  0  0  0  0  0  0  0  0  0  0
   29.2330  -22.6867  -16.2871 O   0  0  0  0  0  0  0  0  0  0  0  0
   27.0810  -22.9699  -15.5803 N   0  0  0  0  0  0  0  0  0  0  0  0
   27.0115  -21.6664  -14.8772 C   0  0  1  0  0  0  0  0  0  0  0  0
   27.0780  -20.6687  -16.0477 C   0  0  0  0  0  0  0  0  0  0  0  0
   26.8302  -18.9922  -15.4566 S   0  0  0  0  0  0  0  0  0  0  0  0
   25.7473  -21.5673  -14.1323 C   0  0  0  0  0  0  0  0  0  0  0  0
   24.6919  -21.8737  -14.8113 O   0  0  0  0  0  0  0  0  0  0  0  0
   25.6230  -21.1777  -12.7837 N   0  0  0  0  0  0  0  0  0  0  0  0
   26.7353  -20.6608  -11.9789 C   0  0  0  0  0  0  0  0  0  0  0  0
   26.3926  -21.2992  -10.6319 C   0  0  0  0  0  0  0  0  0  0  0  0
   24.9319  -20.9112  -10.5361 C   0  0  0  0  0  0  0  0  0  0  0  0
   24.4489  -21.2032  -11.9630 C   0  0  1  0  0  0  0  0  0  0  0  0
   23.5207  -20.1086  -12.3861 C   0  0  0  0  0  0  0  0  0  0  0  0
   22.2453  -20.0443  -11.8741 O   0  0  0  0  0  0  0  0  0  0  0  0
   23.9415  -19.2649  -13.2119 O   0  0  0  0  0  0  0  0  0  0  0  0
  2  5  1  0
  2  1  1  1
  3  2  1  0
  4  3  1  0
  5  6  2  0
  7  8  1  0
  7  5  1  0
  8  9  1  6
 10  9  1  0
 11 13  1  0
 11  8  1  0
 12 11  2  0
 13 17  1  0
 14 13  1  0
 14 15  1  0
 15 16  1  0
 17 18  1  6
 17 16  1  0
 18 20  2  0
 18 19  1  0
M  END
$$$$
