CCP.pdb
     RDKit          3D

 20 20  0  0  1  0  0  0  0  0999 V2000
   20.2378  -19.9408  -13.0532 N   0  0  0  0  0  0  0  0  0  0  0  0
   21.1996  -20.8054  -13.6876 C   0  0  1  0  0  0  0  0  0  0  0  0
   20.9628  -20.9203  -15.1718 C   0  0  0  0  0  0  0  0  0  0  0  0
   22.0742  -22.1132  -15.9488 S   0  0  0  0  0  0  0  0  0  0  0  0
   22.5914  -20.3574  -13.4793 C   0  0  0  0  0  0  0  0  0  0  0  0
   22.8966  -19.1988  -13.8616 O   0  0  0  0  0  0  0  0  0  0  0  0
   23.5952  -21.1394  -12.8833 N   0  0  0  0  0  0  0  0  0  0  0  0
   25.0016  -20.6831  -12.7731 C   0  0  1  0  0  0  0  0  0  0  0  0
   25.5389  -21.5761  -11.6401 C   0  0  0  0  0  0  0  0  0  0  0  0
   27.2335  -21.1356  -11.2453 S   0  0  0  0  0  0  0  0  0  0  0  0
   25.7031  -20.9147  -14.0448 C   0  0  0  0  0  0  0  0  0  0  0  0
   25.3140  -21.9598  -14.6967 O   0  0  0  0  0  0  0  0  0  0  0  0
   26.7263  -20.1018  -14.5722 N   0  0  0  0  0  0  0  0  0  0  0  0
   27.2590  -18.9171  -13.8905 C   0  0  0  0  0  0  0  0  0  0  0  0
   27.4884  -18.0094  -15.1000 C   0  0  0  0  0  0  0  0  0  0  0  0
   28.2426  -18.9711  -15.9943 C   0  0  0  0  0  0  0  0  0  0  0  0
   27.4218  -20.2550  -15.8154 C   0  0  1  0  0  0  0  0  0  0  0  0
   28.3632  -21.4141  -15.7207 C   0  0  0  0  0  0  0  0  0  0  0  0
   28.6335  -21.9899  -14.5008 O   0  0  0  0  0  0  0  0  0  0  0  0
   28.8887  -21.8350  -16.7778 O   0  0  0  0  0  0  0  0  0  0  0  0
  2  5  1  0
  2  1  1  6
  3  2  1  0
  4  3  1  0
  5  6  2  0
  7  8  1  0
  7  5  1  0
  8  9  1  1
 10  9  1  0
 11 13  1  0
 11  8  1  0
 12 11  2  0
 13 17  1  0
 14 13  1  0
 14 15  1  0
 15 16  1  0
 17 18  1  1
 17 16  1  0
 18 20  2  0
 18 19  1  0
M  END
$$$$
