CCP.pdb
     RDKit          3D

 20 20  0  0  1  0  0  0  0  0999 V2000
   27.2350  -21.6811  -17.7498 N   0  0  0  0  0  0  0  0  0  0  0  0
   27.5118  -22.0589  -16.3876 C   0  0  1  0  0  0  0  0  0  0  0  0
   28.9918  -22.1160  -16.1072 C   0  0  0  0  0  0  0  0  0  0  0  0
   29.7774  -23.5460  -16.8818 S   0  0  0  0  0  0  0  0  0  0  0  0
   26.8951  -21.1430  -15.4069 C   0  0  0  0  0  0  0  0  0  0  0  0
   26.9702  -19.9079  -15.6319 O   0  0  0  0  0  0  0  0  0  0  0  0
   26.2310  -21.5601  -14.2409 N   0  0  0  0  0  0  0  0  0  0  0  0
   25.3352  -20.6651  -13.4698 C   0  0  1  0  0  0  0  0  0  0  0  0
   24.1813  -20.4360  -14.4626 C   0  0  0  0  0  0  0  0  0  0  0  0
   22.8003  -19.6334  -13.6439 S   0  0  0  0  0  0  0  0  0  0  0  0
   24.8880  -21.3420  -12.2431 C   0  0  0  0  0  0  0  0  0  0  0  0
   24.4020  -22.5253  -12.4225 O   0  0  0  0  0  0  0  0  0  0  0  0
   24.9559  -20.8032  -10.9426 N   0  0  0  0  0  0  0  0  0  0  0  0
   25.5563  -19.5018  -10.6299 C   0  0  0  0  0  0  0  0  0  0  0  0
   26.2054  -19.8377   -9.2862 C   0  0  0  0  0  0  0  0  0  0  0  0
   25.0277  -20.4949   -8.5974 C   0  0  0  0  0  0  0  0  0  0  0  0
   24.4782  -21.3821   -9.7222 C   0  0  1  0  0  0  0  0  0  0  0  0
   22.9835  -21.3199   -9.6922 C   0  0  0  0  0  0  0  0  0  0  0  0
   22.2832  -21.9505   -8.6897 O   0  0  0  0  0  0  0  0  0  0  0  0
   22.4015  -20.6817  -10.6003 O   0  0  0  0  0  0  0  0  0  0  0  0
  2  5  1  0
  2  1  1  6
  3  2  1  0
  4  3  1  0
  5  6  2  0
  7  8  1  0
  7  5  1  0
  8  9  1  6
 10  9  1  0
 11 13  1  0
 11  8  1  0
 12 11  2  0
 13 17  1  0
 14 13  1  0
 14 15  1  0
 15 16  1  0
 17 18  1  6
 17 16  1  0
 18 20  2  0
 18 19  1  0
M  END
$$$$
