CCP.pdb
     RDKit          3D

 20 20  0  0  1  0  0  0  0  0999 V2000
   28.6898  -22.1957  -16.3678 N   0  0  0  0  0  0  0  0  0  0  0  0
   27.8510  -21.1443  -15.8520 C   0  0  1  0  0  0  0  0  0  0  0  0
   27.0882  -20.4426  -16.9465 C   0  0  0  0  0  0  0  0  0  0  0  0
   28.1859  -19.6732  -18.1568 S   0  0  0  0  0  0  0  0  0  0  0  0
   26.8768  -21.6316  -14.8548 C   0  0  0  0  0  0  0  0  0  0  0  0
   26.3295  -22.7439  -15.0664 O   0  0  0  0  0  0  0  0  0  0  0  0
   26.5218  -20.9352  -13.6872 N   0  0  0  0  0  0  0  0  0  0  0  0
   25.4599  -21.4094  -12.7675 C   0  0  1  0  0  0  0  0  0  0  0  0
   25.8661  -20.7431  -11.4405 C   0  0  0  0  0  0  0  0  0  0  0  0
   24.5648  -20.9344  -10.2193 S   0  0  0  0  0  0  0  0  0  0  0  0
   24.1460  -20.9493  -13.2420 C   0  0  0  0  0  0  0  0  0  0  0  0
   24.1058  -19.7130  -13.6143 O   0  0  0  0  0  0  0  0  0  0  0  0
   22.9815  -21.7398  -13.3135 N   0  0  0  0  0  0  0  0  0  0  0  0
   22.9492  -23.1732  -13.0034 C   0  0  0  0  0  0  0  0  0  0  0  0
   21.9478  -23.6397  -14.0612 C   0  0  0  0  0  0  0  0  0  0  0  0
   20.8481  -22.6248  -13.8286 C   0  0  0  0  0  0  0  0  0  0  0  0
   21.6591  -21.3305  -13.6829 C   0  0  1  0  0  0  0  0  0  0  0  0
   21.0627  -20.5152  -12.5790 C   0  0  0  0  0  0  0  0  0  0  0  0
   19.8809  -19.8391  -12.7770 O   0  0  0  0  0  0  0  0  0  0  0  0
   21.6703  -20.4714  -11.4837 O   0  0  0  0  0  0  0  0  0  0  0  0
  2  5  1  0
  2  1  1  6
  3  2  1  0
  4  3  1  0
  5  6  2  0
  7  8  1  0
  7  5  1  0
  8  9  1  1
 10  9  1  0
 11 13  1  0
 11  8  1  0
 12 11  2  0
 13 17  1  0
 14 13  1  0
 14 15  1  0
 15 16  1  0
 17 18  1  1
 17 16  1  0
 18 20  2  0
 18 19  1  0
M  END
$$$$
