RNM.pdb
     RDKit          3D

 28 27  0  0  1  0  0  0  0  0999 V2000
    7.4191  -20.7339   15.6446 N   0  0  0  0  0  0  0  0  0  0  0  0
    8.7712  -21.0520   15.9173 C   0  0  0  0  0  0  0  0  0  0  0  0
    9.7006  -20.5076   15.2225 N   0  0  0  0  0  0  0  0  0  0  0  0
    9.0506  -21.9701   16.9595 N   0  0  0  0  0  0  0  0  0  0  0  0
    9.0653  -21.5638   18.3465 C   0  0  0  0  0  0  0  0  0  0  0  0
    9.1107  -20.0732   18.4974 C   0  0  0  0  0  0  0  0  0  0  0  0
   10.2452  -19.6065   19.3569 C   0  0  0  0  0  0  0  0  0  0  0  0
    9.7424  -19.0676   20.6541 C   0  0  2  0  0  0  0  0  0  0  0  0
    8.3793  -19.4680   20.8442 N   0  0  0  0  0  0  0  0  0  0  0  0
    9.9257  -17.5964   20.7752 C   0  0  0  0  0  0  0  0  0  0  0  0
   11.0378  -17.0526   20.5576 O   0  0  0  0  0  0  0  0  0  0  0  0
   10.6990  -20.6951   15.3450 N   0  0  0  0  0  0  0  0  0  0  0  0
    7.4052  -12.3757   20.9654 C   0  0  0  0  0  0  0  0  0  0  0  0
    7.9020  -13.3108   20.0334 O   0  0  0  0  0  0  0  0  0  0  0  0
    8.4180  -12.8500   18.9784 C   0  0  0  0  0  0  0  0  0  0  0  0
    7.7900  -14.7363   20.3427 C   0  0  2  0  0  0  0  0  0  0  0  0
    8.9893  -15.3013   21.0627 N   0  0  0  0  0  0  0  0  0  0  0  0
    8.8685  -16.7187   21.1405 C   0  0  0  0  0  0  0  0  0  0  0  0
    9.2247  -14.6193   22.3211 O   0  0  0  0  0  0  0  0  0  0  0  0
    9.2794  -13.3760   22.4313 C   0  0  0  0  0  0  0  0  0  0  0  0
    5.9985  -10.9391   27.0300 S   0  0  0  0  0  0  0  0  0  0  0  0
    6.2872  -12.6411   26.5631 C   0  0  0  0  0  0  0  0  0  0  0  0
    7.6404  -12.8685   25.4185 C   0  0  0  0  0  0  0  0  0  0  0  0
    7.6869  -14.2354   24.7943 C   0  0  2  0  0  0  0  0  0  0  0  0
    9.0792  -14.8308   24.7902 N   0  0  0  0  0  0  0  0  0  0  0  0
    9.4048  -15.3868   23.4976 C   0  0  0  0  0  0  0  0  0  0  0  0
    9.0903  -15.9241   25.7808 O   0  0  0  0  0  0  0  0  0  0  0  0
    9.4920  -15.7235   27.0868 O   0  0  0  0  0  0  0  0  0  0  0  0
  1  2  1  0
  2  4  1  0
  3  2  2  0
  4  5  1  0
  5  6  1  0
  6  7  1  0
  8 10  1  0
  8  9  1  6
  8  7  1  0
 10 11  2  0
 13 12  1  0
 13 15  1  0
 14 13  2  0
 16 15  1  6
 16 18  1  0
 17 16  1  0
 17 10  1  0
 18 19  2  0
 18 25  1  0
 20 21  1  0
 21 22  1  0
 22 23  1  0
 24 23  1  6
 24 26  1  0
 25 24  1  0
 26 28  2  0
 26 27  1  0
M  END
$$$$
