RNM.pdb
     RDKit          3D

 28 27  0  0  1  0  0  0  0  0999 V2000
    8.2359  -12.6212   19.1080 N   0  0  0  0  0  0  0  0  0  0  0  0
    8.2265  -13.5049   18.0023 C   0  0  0  0  0  0  0  0  0  0  0  0
    8.1146  -13.0316   16.8165 N   0  0  0  0  0  0  0  0  0  0  0  0
    8.3425  -14.8951   18.2497 N   0  0  0  0  0  0  0  0  0  0  0  0
    8.4568  -15.4213   19.5909 C   0  0  0  0  0  0  0  0  0  0  0  0
    7.1185  -15.6094   20.2393 C   0  0  0  0  0  0  0  0  0  0  0  0
    7.2162  -16.1071   21.6487 C   0  0  0  0  0  0  0  0  0  0  0  0
    7.9798  -17.3874   21.7084 C   0  0  2  0  0  0  0  0  0  0  0  0
    7.0857  -18.4895   21.5068 N   0  0  0  0  0  0  0  0  0  0  0  0
    8.7782  -17.5229   22.9562 C   0  0  0  0  0  0  0  0  0  0  0  0
    8.2427  -17.8420   24.0476 O   0  0  0  0  0  0  0  0  0  0  0  0
    8.0929  -13.6010   15.9666 N   0  0  0  0  0  0  0  0  0  0  0  0
   14.4279  -16.4537   25.0477 C   0  0  0  0  0  0  0  0  0  0  0  0
   13.2254  -17.1868   25.1272 O   0  0  0  0  0  0  0  0  0  0  0  0
   12.9491  -17.7162   26.2385 C   0  0  0  0  0  0  0  0  0  0  0  0
   12.3848  -17.2867   23.9340 C   0  0  2  0  0  0  0  0  0  0  0  0
   10.9059  -17.2009   24.2196 N   0  0  0  0  0  0  0  0  0  0  0  0
   10.1823  -17.3032   22.9966 C   0  0  0  0  0  0  0  0  0  0  0  0
   10.5889  -16.0506   25.0445 O   0  0  0  0  0  0  0  0  0  0  0  0
   10.9089  -14.8801   24.7470 C   0  0  0  0  0  0  0  0  0  0  0  0
    7.0727  -10.5280   28.0372 S   0  0  0  0  0  0  0  0  0  0  0  0
    7.3389  -11.9323   26.9623 C   0  0  0  0  0  0  0  0  0  0  0  0
    7.9249  -13.3974   27.8006 C   0  0  0  0  0  0  0  0  0  0  0  0
    8.2491  -14.5387   26.8773 C   0  0  1  0  0  0  0  0  0  0  0  0
    9.6184  -15.1312   27.1362 N   0  0  0  0  0  0  0  0  0  0  0  0
    9.8798  -16.2451   26.2548 C   0  0  0  0  0  0  0  0  0  0  0  0
    9.6244  -15.6283   28.5253 O   0  0  0  0  0  0  0  0  0  0  0  0
    9.6513  -14.7719   29.6084 O   0  0  0  0  0  0  0  0  0  0  0  0
  1  2  1  0
  2  4  1  0
  3  2  2  0
  4  5  1  0
  5  6  1  0
  6  7  1  0
  8 10  1  0
  8  9  1  1
  8  7  1  0
 10 11  2  0
 13 12  1  0
 13 15  1  0
 14 13  2  0
 16 15  1  1
 16 18  1  0
 17 16  1  0
 17 10  1  0
 18 19  2  0
 18 25  1  0
 20 21  1  0
 21 22  1  0
 22 23  1  0
 24 23  1  6
 24 26  1  0
 25 24  1  0
 26 28  2  0
 26 27  1  0
M  END
$$$$
