RNM.pdb
     RDKit          3D

 28 27  0  0  1  0  0  0  0  0999 V2000
    9.5036  -14.5778   16.5576 N   0  0  0  0  0  0  0  0  0  0  0  0
    8.4937  -13.7240   16.0527 C   0  0  0  0  0  0  0  0  0  0  0  0
    8.3436  -13.6040   14.7855 N   0  0  0  0  0  0  0  0  0  0  0  0
    7.6772  -13.0262   16.9766 N   0  0  0  0  0  0  0  0  0  0  0  0
    7.6007  -13.4136   18.3669 C   0  0  0  0  0  0  0  0  0  0  0  0
    7.6128  -14.9026   18.5393 C   0  0  0  0  0  0  0  0  0  0  0  0
    7.4153  -15.3284   19.9617 C   0  0  0  0  0  0  0  0  0  0  0  0
    7.5881  -16.8034   20.1038 C   0  0  2  0  0  0  0  0  0  0  0  0
    6.3781  -17.4679   19.7180 N   0  0  0  0  0  0  0  0  0  0  0  0
    8.0474  -17.2002   21.4619 C   0  0  0  0  0  0  0  0  0  0  0  0
    7.2317  -17.4966   22.3710 O   0  0  0  0  0  0  0  0  0  0  0  0
    7.6381  -13.0111   14.3408 N   0  0  0  0  0  0  0  0  0  0  0  0
   13.0442  -18.4812   24.7095 C   0  0  0  0  0  0  0  0  0  0  0  0
   11.6697  -18.6449   24.4376 O   0  0  0  0  0  0  0  0  0  0  0  0
   10.9533  -19.1110   25.3654 C   0  0  0  0  0  0  0  0  0  0  0  0
   11.1668  -18.2695   23.1160 C   0  0  2  0  0  0  0  0  0  0  0  0
    9.8562  -17.5231   23.1503 N   0  0  0  0  0  0  0  0  0  0  0  0
    9.4223  -17.2696   21.8173 C   0  0  0  0  0  0  0  0  0  0  0  0
    9.9258  -16.3649   24.0209 O   0  0  0  0  0  0  0  0  0  0  0  0
   10.7385  -15.4298   23.8600 C   0  0  0  0  0  0  0  0  0  0  0  0
    6.0602  -10.8455   25.8869 S   0  0  0  0  0  0  0  0  0  0  0  0
    6.0100  -12.3915   26.7845 C   0  0  0  0  0  0  0  0  0  0  0  0
    7.5772  -13.2465   26.8615 C   0  0  0  0  0  0  0  0  0  0  0  0
    7.6257  -14.5042   26.0395 C   0  0  2  0  0  0  0  0  0  0  0  0
    9.0184  -15.0920   25.9493 N   0  0  0  0  0  0  0  0  0  0  0  0
    9.0335  -16.2720   25.1166 C   0  0  0  0  0  0  0  0  0  0  0  0
    9.4173  -15.4834   27.3148 O   0  0  0  0  0  0  0  0  0  0  0  0
    9.8213  -16.7686   27.6185 O   0  0  0  0  0  0  0  0  0  0  0  0
  1  2  1  0
  2  4  1  0
  3  2  2  0
  4  5  1  0
  5  6  1  0
  6  7  1  0
  8 10  1  0
  8  9  1  1
  8  7  1  0
 10 11  2  0
 13 12  1  0
 13 15  1  0
 14 13  2  0
 16 15  1  6
 16 18  1  0
 17 16  1  0
 17 10  1  0
 18 19  2  0
 18 25  1  0
 20 21  1  0
 21 22  1  0
 22 23  1  0
 24 23  1  6
 24 26  1  0
 25 24  1  0
 26 28  2  0
 26 27  1  0
M  END
$$$$
