RNM.pdb
     RDKit          3D

 28 27  0  0  1  0  0  0  0  0999 V2000
    8.5098  -13.0142   17.2573 N   0  0  0  0  0  0  0  0  0  0  0  0
    8.6260  -12.5708   18.5966 C   0  0  0  0  0  0  0  0  0  0  0  0
    9.0173  -11.3736   18.8337 N   0  0  0  0  0  0  0  0  0  0  0  0
    8.3018  -13.4764   19.6368 N   0  0  0  0  0  0  0  0  0  0  0  0
    8.3164  -14.9068   19.4310 C   0  0  0  0  0  0  0  0  0  0  0  0
    6.9337  -15.4765   19.3290 C   0  0  0  0  0  0  0  0  0  0  0  0
    6.5864  -16.3777   20.4739 C   0  0  0  0  0  0  0  0  0  0  0  0
    7.5499  -17.5129   20.5679 C   0  0  2  0  0  0  0  0  0  0  0  0
    6.9246  -18.7135   20.0966 N   0  0  0  0  0  0  0  0  0  0  0  0
    8.1249  -17.6677   21.9310 C   0  0  0  0  0  0  0  0  0  0  0  0
    7.4024  -17.6199   22.9583 O   0  0  0  0  0  0  0  0  0  0  0  0
    9.2787  -11.0236   19.7591 N   0  0  0  0  0  0  0  0  0  0  0  0
   11.2122  -19.0369   25.7634 C   0  0  0  0  0  0  0  0  0  0  0  0
   12.0175  -19.0811   24.6061 O   0  0  0  0  0  0  0  0  0  0  0  0
   13.1726  -19.5729   24.7299 C   0  0  0  0  0  0  0  0  0  0  0  0
   11.4719  -18.5617   23.3519 C   0  0  2  0  0  0  0  0  0  0  0  0
   10.0543  -18.0579   23.4646 N   0  0  0  0  0  0  0  0  0  0  0  0
    9.5124  -17.8773   22.1595 C   0  0  0  0  0  0  0  0  0  0  0  0
    9.9657  -16.9104   24.3475 O   0  0  0  0  0  0  0  0  0  0  0  0
   10.6726  -15.8879   24.2217 C   0  0  0  0  0  0  0  0  0  0  0  0
    6.5610  -11.4246   27.7277 S   0  0  0  0  0  0  0  0  0  0  0  0
    6.7858  -12.8388   26.6563 C   0  0  0  0  0  0  0  0  0  0  0  0
    7.2413  -14.3410   27.5099 C   0  0  0  0  0  0  0  0  0  0  0  0
    7.4333  -15.5233   26.6014 C   0  0  1  0  0  0  0  0  0  0  0  0
    8.8899  -15.7866   26.2819 N   0  0  0  0  0  0  0  0  0  0  0  0
    9.0347  -16.9321   25.4144 C   0  0  0  0  0  0  0  0  0  0  0  0
    9.5709  -16.0820   27.5570 O   0  0  0  0  0  0  0  0  0  0  0  0
    9.8008  -15.1059   28.5066 O   0  0  0  0  0  0  0  0  0  0  0  0
  1  2  1  0
  2  4  1  0
  3  2  2  0
  4  5  1  0
  5  6  1  0
  6  7  1  0
  8 10  1  0
  8  9  1  1
  8  7  1  0
 10 11  2  0
 13 12  1  0
 13 15  1  0
 14 13  2  0
 16 15  1  1
 16 18  1  0
 17 16  1  0
 17 10  1  0
 18 19  2  0
 18 25  1  0
 20 21  1  0
 21 22  1  0
 22 23  1  0
 24 23  1  6
 24 26  1  0
 25 24  1  0
 26 28  2  0
 26 27  1  0
M  END
$$$$
