RNM.pdb
     RDKit          3D

 28 27  0  0  1  0  0  0  0  0999 V2000
    7.3442  -11.8840   21.2112 N   0  0  0  0  0  0  0  0  0  0  0  0
    7.4742  -12.9362   20.2733 C   0  0  0  0  0  0  0  0  0  0  0  0
    6.4785  -13.7126   20.0532 N   0  0  0  0  0  0  0  0  0  0  0  0
    8.7135  -13.0941   19.6052 N   0  0  0  0  0  0  0  0  0  0  0  0
    8.9218  -14.1374   18.6269 C   0  0  0  0  0  0  0  0  0  0  0  0
    8.7804  -15.5058   19.2222 C   0  0  0  0  0  0  0  0  0  0  0  0
   10.0946  -16.1195   19.5964 C   0  0  0  0  0  0  0  0  0  0  0  0
    9.9218  -17.1198   20.6897 C   0  0  2  0  0  0  0  0  0  0  0  0
    9.1199  -18.2110   20.2197 N   0  0  0  0  0  0  0  0  0  0  0  0
    9.3872  -16.5178   21.9405 C   0  0  0  0  0  0  0  0  0  0  0  0
    8.4502  -15.6805   21.9186 O   0  0  0  0  0  0  0  0  0  0  0  0
    6.5068  -14.5278   19.4354 N   0  0  0  0  0  0  0  0  0  0  0  0
    6.1497  -17.0926   25.4691 C   0  0  0  0  0  0  0  0  0  0  0  0
    6.9112  -18.1813   24.9951 O   0  0  0  0  0  0  0  0  0  0  0  0
    6.6975  -19.3051   25.5269 C   0  0  0  0  0  0  0  0  0  0  0  0
    7.8876  -17.9439   23.9318 C   0  0  1  0  0  0  0  0  0  0  0  0
    9.0460  -17.0723   24.3495 N   0  0  0  0  0  0  0  0  0  0  0  0
    9.8945  -16.8455   23.2277 C   0  0  0  0  0  0  0  0  0  0  0  0
    9.6981  -17.5873   25.5384 O   0  0  0  0  0  0  0  0  0  0  0  0
    9.2552  -18.5452   26.2072 C   0  0  0  0  0  0  0  0  0  0  0  0
    8.3069  -12.3160   27.3470 S   0  0  0  0  0  0  0  0  0  0  0  0
    9.5671  -12.8426   28.5016 C   0  0  0  0  0  0  0  0  0  0  0  0
    9.7067  -14.6153   28.6772 C   0  0  0  0  0  0  0  0  0  0  0  0
    9.7285  -15.3570   27.3697 C   0  0  1  0  0  0  0  0  0  0  0  0
   10.9395  -16.2545   27.2252 N   0  0  0  0  0  0  0  0  0  0  0  0
   10.9015  -16.9851   25.9799 C   0  0  0  0  0  0  0  0  0  0  0  0
   10.8982  -17.2268   28.3341 O   0  0  0  0  0  0  0  0  0  0  0  0
   10.4273  -18.5136   28.1614 O   0  0  0  0  0  0  0  0  0  0  0  0
  1  2  1  0
  2  4  1  0
  3  2  2  0
  4  5  1  0
  5  6  1  0
  6  7  1  0
  8 10  1  0
  8  9  1  6
  8  7  1  0
 10 11  2  0
 13 12  1  0
 13 15  1  0
 14 13  2  0
 16 15  1  6
 16 18  1  0
 17 16  1  0
 17 10  1  0
 18 19  2  0
 18 25  1  0
 20 21  1  0
 21 22  1  0
 22 23  1  0
 24 23  1  6
 24 26  1  0
 25 24  1  0
 26 28  2  0
 26 27  1  0
M  END
$$$$
