RNM.pdb
     RDKit          3D

 28 27  0  0  1  0  0  0  0  0999 V2000
    8.1310  -12.5143   18.5206 N   0  0  0  0  0  0  0  0  0  0  0  0
    9.2225  -12.9757   19.2948 C   0  0  0  0  0  0  0  0  0  0  0  0
   10.1938  -12.1807   19.5540 N   0  0  0  0  0  0  0  0  0  0  0  0
    9.2009  -14.3138   19.7599 N   0  0  0  0  0  0  0  0  0  0  0  0
    8.0378  -15.1561   19.5972 C   0  0  0  0  0  0  0  0  0  0  0  0
    7.0129  -14.9153   20.6642 C   0  0  0  0  0  0  0  0  0  0  0  0
    6.3830  -16.1783   21.1660 C   0  0  0  0  0  0  0  0  0  0  0  0
    7.3654  -17.3011   21.1593 C   0  0  2  0  0  0  0  0  0  0  0  0
    6.7222  -18.4991   20.7056 N   0  0  0  0  0  0  0  0  0  0  0  0
    8.0425  -17.4805   22.4716 C   0  0  0  0  0  0  0  0  0  0  0  0
    7.3896  -17.5576   23.5428 O   0  0  0  0  0  0  0  0  0  0  0  0
   10.9911  -12.4174   20.1502 N   0  0  0  0  0  0  0  0  0  0  0  0
   12.3627  -19.6286   25.6013 C   0  0  0  0  0  0  0  0  0  0  0  0
   12.2122  -18.3826   24.9574 O   0  0  0  0  0  0  0  0  0  0  0  0
   12.7661  -17.3869   25.4987 C   0  0  0  0  0  0  0  0  0  0  0  0
   11.4345  -18.3224   23.7197 C   0  0  1  0  0  0  0  0  0  0  0  0
   10.1076  -17.6195   23.8655 N   0  0  0  0  0  0  0  0  0  0  0  0
    9.4553  -17.5752   22.5997 C   0  0  0  0  0  0  0  0  0  0  0  0
   10.2517  -16.3458   24.5445 O   0  0  0  0  0  0  0  0  0  0  0  0
   10.8466  -15.3647   24.0499 C   0  0  0  0  0  0  0  0  0  0  0  0
    6.7668  -11.3729   25.4186 S   0  0  0  0  0  0  0  0  0  0  0  0
    7.2336  -11.7812   27.0960 C   0  0  0  0  0  0  0  0  0  0  0  0
    8.6865  -12.8137   27.2228 C   0  0  0  0  0  0  0  0  0  0  0  0
    8.5883  -14.1003   26.4514 C   0  0  1  0  0  0  0  0  0  0  0  0
    9.8449  -14.9397   26.5494 N   0  0  0  0  0  0  0  0  0  0  0  0
    9.6955  -16.1872   25.8371 C   0  0  0  0  0  0  0  0  0  0  0  0
   10.0572  -15.2442   27.9774 O   0  0  0  0  0  0  0  0  0  0  0  0
   10.4020  -14.2667   28.8901 O   0  0  0  0  0  0  0  0  0  0  0  0
  1  2  1  0
  2  4  1  0
  3  2  2  0
  4  5  1  0
  5  6  1  0
  6  7  1  0
  8 10  1  0
  8  9  1  1
  8  7  1  0
 10 11  2  0
 13 12  1  0
 13 15  1  0
 14 13  2  0
 16 15  1  1
 16 18  1  0
 17 16  1  0
 17 10  1  0
 18 19  2  0
 18 25  1  0
 20 21  1  0
 21 22  1  0
 22 23  1  0
 24 23  1  6
 24 26  1  0
 25 24  1  0
 26 28  2  0
 26 27  1  0
M  END
$$$$
