RNM.pdb
     RDKit          3D

 28 27  0  0  1  0  0  0  0  0999 V2000
    8.9211  -12.3045   19.3891 N   0  0  0  0  0  0  0  0  0  0  0  0
    8.5463  -13.2224   18.3788 C   0  0  0  0  0  0  0  0  0  0  0  0
    7.9520  -12.7955   17.3266 N   0  0  0  0  0  0  0  0  0  0  0  0
    8.8452  -14.5940   18.5699 N   0  0  0  0  0  0  0  0  0  0  0  0
    7.8777  -15.6294   18.2854 C   0  0  0  0  0  0  0  0  0  0  0  0
    6.8612  -15.7676   19.3783 C   0  0  0  0  0  0  0  0  0  0  0  0
    7.1303  -16.9299   20.2839 C   0  0  0  0  0  0  0  0  0  0  0  0
    7.4160  -16.4663   21.6729 C   0  0  2  0  0  0  0  0  0  0  0  0
    7.5771  -15.0420   21.6800 N   0  0  0  0  0  0  0  0  0  0  0  0
    8.5711  -17.1730   22.2887 C   0  0  0  0  0  0  0  0  0  0  0  0
    8.5297  -18.4034   22.5418 O   0  0  0  0  0  0  0  0  0  0  0  0
    7.4842  -13.3963   16.6431 N   0  0  0  0  0  0  0  0  0  0  0  0
   12.0169  -16.1260   20.2012 C   0  0  0  0  0  0  0  0  0  0  0  0
   11.8895  -17.2467   21.0484 O   0  0  0  0  0  0  0  0  0  0  0  0
   11.5921  -18.3455   20.5047 C   0  0  0  0  0  0  0  0  0  0  0  0
   12.1069  -17.0686   22.4841 C   0  0  2  0  0  0  0  0  0  0  0  0
   10.8480  -17.1682   23.3096 N   0  0  0  0  0  0  0  0  0  0  0  0
    9.7833  -16.5118   22.6276 C   0  0  0  0  0  0  0  0  0  0  0  0
   11.0743  -16.7454   24.6787 O   0  0  0  0  0  0  0  0  0  0  0  0
   11.0956  -15.5483   25.0356 C   0  0  0  0  0  0  0  0  0  0  0  0
    9.9462  -13.3900   27.8170 S   0  0  0  0  0  0  0  0  0  0  0  0
    9.4802  -14.4953   29.1434 C   0  0  0  0  0  0  0  0  0  0  0  0
    9.9080  -16.2064   28.8572 C   0  0  0  0  0  0  0  0  0  0  0  0
    9.9976  -16.5767   27.4030 C   0  0  1  0  0  0  0  0  0  0  0  0
   11.2465  -17.3681   27.0755 N   0  0  0  0  0  0  0  0  0  0  0  0
   11.2844  -17.7274   25.6772 C   0  0  0  0  0  0  0  0  0  0  0  0
   11.1990  -18.6093   27.8717 O   0  0  0  0  0  0  0  0  0  0  0  0
   10.9327  -19.8368   27.2974 O   0  0  0  0  0  0  0  0  0  0  0  0
  1  2  1  0
  2  4  1  0
  3  2  2  0
  4  5  1  0
  5  6  1  0
  6  7  1  0
  8 10  1  0
  8  9  1  6
  8  7  1  0
 10 11  2  0
 13 12  1  0
 13 15  1  0
 14 13  2  0
 16 15  1  6
 16 18  1  0
 17 16  1  0
 17 10  1  0
 18 19  2  0
 18 25  1  0
 20 21  1  0
 21 22  1  0
 22 23  1  0
 24 23  1  6
 24 26  1  0
 25 24  1  0
 26 28  2  0
 26 27  1  0
M  END
$$$$
