RNM.pdb
     RDKit          3D

 28 27  0  0  1  0  0  0  0  0999 V2000
    7.2745  -18.1193   15.5455 N   0  0  0  0  0  0  0  0  0  0  0  0
    8.3926  -18.9848   15.6111 C   0  0  0  0  0  0  0  0  0  0  0  0
    9.2741  -18.9493   14.6814 N   0  0  0  0  0  0  0  0  0  0  0  0
    8.4974  -19.8679   16.7140 N   0  0  0  0  0  0  0  0  0  0  0  0
    7.5028  -19.8960   17.7622 C   0  0  0  0  0  0  0  0  0  0  0  0
    7.8786  -19.0217   18.9203 C   0  0  0  0  0  0  0  0  0  0  0  0
    8.6154  -19.7598   19.9955 C   0  0  0  0  0  0  0  0  0  0  0  0
    8.3830  -19.1297   21.3277 C   0  0  2  0  0  0  0  0  0  0  0  0
    6.9741  -19.0095   21.5626 N   0  0  0  0  0  0  0  0  0  0  0  0
    9.0988  -17.8350   21.4841 C   0  0  0  0  0  0  0  0  0  0  0  0
   10.2977  -17.7880   21.8581 O   0  0  0  0  0  0  0  0  0  0  0  0
   10.0815  -19.5755   14.6263 N   0  0  0  0  0  0  0  0  0  0  0  0
    6.9880  -12.5076   20.6618 C   0  0  0  0  0  0  0  0  0  0  0  0
    7.2604  -13.8908   20.7097 O   0  0  0  0  0  0  0  0  0  0  0  0
    6.3157  -14.6493   21.0616 C   0  0  0  0  0  0  0  0  0  0  0  0
    8.6016  -14.3542   20.3537 C   0  0  1  0  0  0  0  0  0  0  0  0
    9.1845  -15.3460   21.3297 N   0  0  0  0  0  0  0  0  0  0  0  0
    8.4818  -16.5807   21.2242 C   0  0  0  0  0  0  0  0  0  0  0  0
    9.2780  -14.7868   22.6649 O   0  0  0  0  0  0  0  0  0  0  0  0
    9.9325  -13.7578   22.9368 C   0  0  0  0  0  0  0  0  0  0  0  0
    7.0949  -10.8657   26.5458 S   0  0  0  0  0  0  0  0  0  0  0  0
    6.5905  -12.3672   27.3761 C   0  0  0  0  0  0  0  0  0  0  0  0
    7.5975  -13.7923   26.9912 C   0  0  0  0  0  0  0  0  0  0  0  0
    7.5069  -14.2325   25.5567 C   0  0  1  0  0  0  0  0  0  0  0  0
    8.7520  -14.9539   25.0852 N   0  0  0  0  0  0  0  0  0  0  0  0
    8.5985  -15.4275   23.7294 C   0  0  0  0  0  0  0  0  0  0  0  0
    8.9402  -16.1227   25.9657 O   0  0  0  0  0  0  0  0  0  0  0  0
    8.8198  -17.4169   25.4988 O   0  0  0  0  0  0  0  0  0  0  0  0
  1  2  1  0
  2  4  1  0
  3  2  2  0
  4  5  1  0
  5  6  1  0
  6  7  1  0
  8 10  1  0
  8  9  1  6
  8  7  1  0
 10 11  2  0
 13 12  1  0
 13 15  1  0
 14 13  2  0
 16 15  1  6
 16 18  1  0
 17 16  1  0
 17 10  1  0
 18 19  2  0
 18 25  1  0
 20 21  1  0
 21 22  1  0
 22 23  1  0
 24 23  1  6
 24 26  1  0
 25 24  1  0
 26 28  2  0
 26 27  1  0
M  END
$$$$
