RNM.pdb
     RDKit          3D

 28 27  0  0  1  0  0  0  0  0999 V2000
    9.7051  -15.4715   14.8785 N   0  0  0  0  0  0  0  0  0  0  0  0
    8.6841  -14.6412   14.3572 C   0  0  0  0  0  0  0  0  0  0  0  0
    8.6675  -14.3717   13.1042 N   0  0  0  0  0  0  0  0  0  0  0  0
    7.7075  -14.1333   15.2490 N   0  0  0  0  0  0  0  0  0  0  0  0
    7.5602  -14.6516   16.5901 C   0  0  0  0  0  0  0  0  0  0  0  0
    7.7021  -13.5796   17.6282 C   0  0  0  0  0  0  0  0  0  0  0  0
    7.5121  -14.0883   19.0242 C   0  0  0  0  0  0  0  0  0  0  0  0
    8.8238  -14.2330   19.7202 C   0  0  2  0  0  0  0  0  0  0  0  0
    9.7990  -14.7474   18.8043 N   0  0  0  0  0  0  0  0  0  0  0  0
    8.7282  -15.0427   20.9643 C   0  0  0  0  0  0  0  0  0  0  0  0
    7.7768  -14.8962   21.7724 O   0  0  0  0  0  0  0  0  0  0  0  0
    7.9765  -13.7673   12.6523 N   0  0  0  0  0  0  0  0  0  0  0  0
    9.3071  -19.9737   22.1530 C   0  0  0  0  0  0  0  0  0  0  0  0
   10.1420  -18.9694   21.6200 O   0  0  0  0  0  0  0  0  0  0  0  0
   10.4442  -19.0635   20.3988 C   0  0  0  0  0  0  0  0  0  0  0  0
   10.5995  -17.8963   22.5029 C   0  0  2  0  0  0  0  0  0  0  0  0
    9.6640  -16.7143   22.5634 N   0  0  0  0  0  0  0  0  0  0  0  0
    9.6946  -16.0239   21.3176 C   0  0  0  0  0  0  0  0  0  0  0  0
    9.9083  -15.9017   23.7399 O   0  0  0  0  0  0  0  0  0  0  0  0
   10.9979  -15.3364   23.9728 C   0  0  0  0  0  0  0  0  0  0  0  0
    6.1032  -11.0042   25.5301 S   0  0  0  0  0  0  0  0  0  0  0  0
    6.5626  -11.7388   27.0945 C   0  0  0  0  0  0  0  0  0  0  0  0
    7.9339  -12.8801   26.9948 C   0  0  0  0  0  0  0  0  0  0  0  0
    7.8013  -13.8968   25.8954 C   0  0  2  0  0  0  0  0  0  0  0  0
    9.0181  -14.7897   25.7730 N   0  0  0  0  0  0  0  0  0  0  0  0
    8.8687  -15.7287   24.6858 C   0  0  0  0  0  0  0  0  0  0  0  0
    9.1298  -15.5519   27.0313 O   0  0  0  0  0  0  0  0  0  0  0  0
    9.5423  -14.9615   28.2097 O   0  0  0  0  0  0  0  0  0  0  0  0
  1  2  1  0
  2  4  1  0
  3  2  2  0
  4  5  1  0
  5  6  1  0
  6  7  1  0
  8 10  1  0
  8  9  1  6
  8  7  1  0
 10 11  2  0
 13 12  1  0
 13 15  1  0
 14 13  2  0
 16 15  1  6
 16 18  1  0
 17 16  1  0
 17 10  1  0
 18 19  2  0
 18 25  1  0
 20 21  1  0
 21 22  1  0
 22 23  1  0
 24 23  1  6
 24 26  1  0
 25 24  1  0
 26 28  2  0
 26 27  1  0
M  END
$$$$
