RNM.pdb
     RDKit          3D

 28 27  0  0  1  0  0  0  0  0999 V2000
    8.3770  -12.4594   17.3472 N   0  0  0  0  0  0  0  0  0  0  0  0
    7.8655  -12.8784   18.5988 C   0  0  0  0  0  0  0  0  0  0  0  0
    8.0309  -12.1348   19.6296 N   0  0  0  0  0  0  0  0  0  0  0  0
    7.1822  -14.1176   18.6669 N   0  0  0  0  0  0  0  0  0  0  0  0
    7.8778  -15.3549   18.9390 C   0  0  0  0  0  0  0  0  0  0  0  0
    8.3775  -15.4228   20.3506 C   0  0  0  0  0  0  0  0  0  0  0  0
    7.6238  -16.4070   21.1913 C   0  0  0  0  0  0  0  0  0  0  0  0
    8.3615  -17.7004   21.2851 C   0  0  2  0  0  0  0  0  0  0  0  0
    7.5255  -18.7651   20.8136 N   0  0  0  0  0  0  0  0  0  0  0  0
    8.8979  -17.9588   22.6483 C   0  0  0  0  0  0  0  0  0  0  0  0
    8.1592  -18.3705   23.5780 O   0  0  0  0  0  0  0  0  0  0  0  0
    7.6385  -12.3325   20.5537 N   0  0  0  0  0  0  0  0  0  0  0  0
   13.9550  -18.7367   25.9501 C   0  0  0  0  0  0  0  0  0  0  0  0
   12.5597  -18.7181   25.7438 O   0  0  0  0  0  0  0  0  0  0  0  0
   11.8279  -18.8839   26.7580 C   0  0  0  0  0  0  0  0  0  0  0  0
   12.0542  -18.5108   24.3867 C   0  0  2  0  0  0  0  0  0  0  0  0
   10.7322  -17.7859   24.3312 N   0  0  0  0  0  0  0  0  0  0  0  0
   10.2646  -17.7595   22.9857 C   0  0  0  0  0  0  0  0  0  0  0  0
   10.8016  -16.5002   24.9992 O   0  0  0  0  0  0  0  0  0  0  0  0
   11.4769  -15.5386   24.5745 C   0  0  0  0  0  0  0  0  0  0  0  0
    6.3695  -12.3718   25.9318 S   0  0  0  0  0  0  0  0  0  0  0  0
    7.7506  -11.8237   26.9269 C   0  0  0  0  0  0  0  0  0  0  0  0
    8.6558  -13.1460   27.7177 C   0  0  0  0  0  0  0  0  0  0  0  0
    8.7042  -14.4160   26.9147 C   0  0  1  0  0  0  0  0  0  0  0  0
   10.0896  -15.0252   26.8646 N   0  0  0  0  0  0  0  0  0  0  0  0
   10.0723  -16.3060   26.1974 C   0  0  0  0  0  0  0  0  0  0  0  0
   10.5260  -15.2347   28.2583 O   0  0  0  0  0  0  0  0  0  0  0  0
   10.0779  -16.3014   29.0124 O   0  0  0  0  0  0  0  0  0  0  0  0
  1  2  1  0
  2  4  1  0
  3  2  2  0
  4  5  1  0
  5  6  1  0
  6  7  1  0
  8 10  1  0
  8  9  1  1
  8  7  1  0
 10 11  2  0
 13 12  1  0
 13 15  1  0
 14 13  2  0
 16 15  1  1
 16 18  1  0
 17 16  1  0
 17 10  1  0
 18 19  2  0
 18 25  1  0
 20 21  1  0
 21 22  1  0
 22 23  1  0
 24 23  1  6
 24 26  1  0
 25 24  1  0
 26 28  2  0
 26 27  1  0
M  END
$$$$
