SIA.pdb
     RDKit          3D

 20 19  0  0  1  0  0  0  0  0999 V2000
    6.3195  -17.3028   22.5229 O   0  0  0  0  0  0  0  0  0  0  0  0
    6.8257  -16.7134   21.3690 C   0  0  0  0  0  0  0  0  0  0  0  0
    6.9458  -15.1973   21.5792 C   0  0  2  0  0  0  0  0  0  0  0  0
    7.5325  -14.6657   20.3656 N   0  0  0  0  0  0  0  0  0  0  0  0
    7.8105  -14.9351   22.7666 C   0  0  0  0  0  0  0  0  0  0  0  0
    9.0659  -14.9990   22.5769 O   0  0  0  0  0  0  0  0  0  0  0  0
    5.9546  -11.4642   26.3221 C   0  0  0  0  0  0  0  0  0  0  0  0
    6.9559  -12.1953   25.4899 C   0  0  0  0  0  0  0  0  0  0  0  0
    7.3902  -13.5070   26.1836 C   0  0  2  0  0  0  0  0  0  0  0  0
    8.3188  -13.0855   27.2962 C   0  0  0  0  0  0  0  0  0  0  0  0
    8.1800  -14.3099   25.1687 C   0  0  2  0  0  0  0  0  0  0  0  0
    7.2935  -14.6313   24.0392 N   0  0  0  0  0  0  0  0  0  0  0  0
    8.7050  -15.5503   25.7566 C   0  0  0  0  0  0  0  0  0  0  0  0
    7.8274  -16.3962   26.1746 O   0  0  0  0  0  0  0  0  0  0  0  0
   11.6693  -17.6708   25.8009 C   0  0  0  0  0  0  0  0  0  0  0  0
   10.4098  -17.2173   26.5023 C   0  0  2  0  0  0  0  0  0  0  0  0
   10.0345  -15.9425   25.9227 N   0  0  0  0  0  0  0  0  0  0  0  0
   10.5778  -17.1413   27.9663 C   0  0  0  0  0  0  0  0  0  0  0  0
   10.8204  -18.1876   28.6022 O   0  0  0  0  0  0  0  0  0  0  0  0
   10.4757  -15.9529   28.6527 O   0  0  0  0  0  0  0  0  0  0  0  0
  2  1  1  0
  2  3  1  0
  3  4  1  6
  5  6  2  0
  5  3  1  0
  8  7  1  0
  8  9  1  0
  9 11  1  0
  9 10  1  1
 11 12  1  6
 11 13  1  0
 12  5  1  0
 13 17  1  0
 14 13  2  0
 16 15  1  6
 16 18  1  0
 17 16  1  0
 18 19  2  0
 18 20  1  0
M  END
$$$$
