SIA.pdb
     RDKit          3D

 20 19  0  0  1  0  0  0  0  0999 V2000
    5.2429  -20.5296   20.1703 O   0  0  0  0  0  0  0  0  0  0  0  0
    6.4297  -19.8051   20.2125 C   0  0  0  0  0  0  0  0  0  0  0  0
    6.3248  -18.5960   19.2720 C   0  0  2  0  0  0  0  0  0  0  0  0
    6.3546  -19.1279   17.9244 N   0  0  0  0  0  0  0  0  0  0  0  0
    7.4741  -17.6787   19.5248 C   0  0  0  0  0  0  0  0  0  0  0  0
    8.5595  -17.9530   18.9226 O   0  0  0  0  0  0  0  0  0  0  0  0
    6.9072  -12.3943   20.3453 C   0  0  0  0  0  0  0  0  0  0  0  0
    7.5482  -13.6835   19.9496 C   0  0  0  0  0  0  0  0  0  0  0  0
    8.1369  -14.4033   21.1847 C   0  0  2  0  0  0  0  0  0  0  0  0
    9.3545  -13.6018   21.5754 C   0  0  0  0  0  0  0  0  0  0  0  0
    8.5849  -15.7784   20.7302 C   0  0  2  0  0  0  0  0  0  0  0  0
    7.3911  -16.5632   20.3779 N   0  0  0  0  0  0  0  0  0  0  0  0
    9.3422  -16.4713   21.7821 C   0  0  0  0  0  0  0  0  0  0  0  0
    8.7343  -16.6320   22.9069 O   0  0  0  0  0  0  0  0  0  0  0  0
   11.8482  -18.9473   22.3335 C   0  0  0  0  0  0  0  0  0  0  0  0
   11.2649  -17.6534   22.8530 C   0  0  2  0  0  0  0  0  0  0  0  0
   10.6386  -16.9863   21.7284 N   0  0  0  0  0  0  0  0  0  0  0  0
   12.2756  -16.8074   23.5164 C   0  0  0  0  0  0  0  0  0  0  0  0
   12.7471  -17.1753   24.6119 O   0  0  0  0  0  0  0  0  0  0  0  0
   12.7148  -15.6254   22.9651 O   0  0  0  0  0  0  0  0  0  0  0  0
  2  1  1  0
  2  3  1  0
  3  4  1  6
  5  6  2  0
  5  3  1  0
  8  7  1  0
  8  9  1  0
  9 11  1  0
  9 10  1  6
 11 12  1  1
 11 13  1  0
 12  5  1  0
 13 17  1  0
 14 13  2  0
 16 15  1  6
 16 18  1  0
 17 16  1  0
 18 19  2  0
 18 20  1  0
M  END
$$$$
