SIA.pdb
     RDKit          3D

 20 19  0  0  1  0  0  0  0  0999 V2000
    7.5314  -19.8002   19.2776 O   0  0  0  0  0  0  0  0  0  0  0  0
    6.7634  -19.0901   18.3606 C   0  0  0  0  0  0  0  0  0  0  0  0
    7.5975  -17.9416   17.7753 C   0  0  2  0  0  0  0  0  0  0  0  0
    8.5138  -18.5477   16.8304 N   0  0  0  0  0  0  0  0  0  0  0  0
    8.3258  -17.2533   18.8808 C   0  0  0  0  0  0  0  0  0  0  0  0
    9.5042  -17.6640   19.1232 O   0  0  0  0  0  0  0  0  0  0  0  0
    6.8337  -12.1544   20.0854 C   0  0  0  0  0  0  0  0  0  0  0  0
    7.7681  -13.2954   19.8517 C   0  0  0  0  0  0  0  0  0  0  0  0
    7.7783  -14.2515   21.0666 C   0  0  2  0  0  0  0  0  0  0  0  0
    8.5594  -13.5318   22.1387 C   0  0  0  0  0  0  0  0  0  0  0  0
    8.5470  -15.4914   20.6540 C   0  0  2  0  0  0  0  0  0  0  0  0
    7.7650  -16.2041   19.6316 N   0  0  0  0  0  0  0  0  0  0  0  0
    8.7909  -16.3781   21.8004 C   0  0  0  0  0  0  0  0  0  0  0  0
    7.7443  -16.8322   22.3995 O   0  0  0  0  0  0  0  0  0  0  0  0
   10.5779  -19.0240   22.9757 C   0  0  0  0  0  0  0  0  0  0  0  0
   10.1024  -17.6813   23.4806 C   0  0  2  0  0  0  0  0  0  0  0  0
   10.0104  -16.8020   22.3315 N   0  0  0  0  0  0  0  0  0  0  0  0
   10.9766  -17.1360   24.5368 C   0  0  0  0  0  0  0  0  0  0  0  0
   11.1184  -17.7800   25.5965 O   0  0  0  0  0  0  0  0  0  0  0  0
   11.6407  -15.9396   24.3902 O   0  0  0  0  0  0  0  0  0  0  0  0
  2  1  1  0
  2  3  1  0
  3  4  1  6
  5  6  2  0
  5  3  1  0
  8  7  1  0
  8  9  1  0
  9 11  1  0
  9 10  1  1
 11 12  1  6
 11 13  1  0
 12  5  1  0
 13 17  1  0
 14 13  2  0
 16 15  1  6
 16 18  1  0
 17 16  1  0
 18 19  2  0
 18 20  1  0
M  END
$$$$
