SIA.pdb
     RDKit          3D

 20 19  0  0  1  0  0  0  0  0999 V2000
    6.1858  -16.9182   21.9040 O   0  0  0  0  0  0  0  0  0  0  0  0
    6.6794  -16.2380   20.7955 C   0  0  0  0  0  0  0  0  0  0  0  0
    6.7902  -14.7416   21.1208 C   0  0  2  0  0  0  0  0  0  0  0  0
    7.3655  -14.1141   19.9482 N   0  0  0  0  0  0  0  0  0  0  0  0
    7.6607  -14.5650   22.3198 C   0  0  0  0  0  0  0  0  0  0  0  0
    8.9153  -14.5917   22.1165 O   0  0  0  0  0  0  0  0  0  0  0  0
    5.9588  -11.4649   26.3900 C   0  0  0  0  0  0  0  0  0  0  0  0
    6.8905  -12.1176   25.4227 C   0  0  0  0  0  0  0  0  0  0  0  0
    7.2522  -13.5460   25.8908 C   0  0  2  0  0  0  0  0  0  0  0  0
    8.1606  -13.3613   27.0818 C   0  0  0  0  0  0  0  0  0  0  0  0
    8.0424  -14.1968   24.7726 C   0  0  2  0  0  0  0  0  0  0  0  0
    7.1497  -14.3774   23.6170 N   0  0  0  0  0  0  0  0  0  0  0  0
    8.5877  -15.4972   25.1869 C   0  0  0  0  0  0  0  0  0  0  0  0
    7.7247  -16.3956   25.5165 O   0  0  0  0  0  0  0  0  0  0  0  0
   11.6181  -17.5460   24.9855 C   0  0  0  0  0  0  0  0  0  0  0  0
   10.3187  -17.2274   25.6884 C   0  0  2  0  0  0  0  0  0  0  0  0
    9.9227  -15.8969   25.2699 N   0  0  0  0  0  0  0  0  0  0  0  0
   10.4292  -17.3455   27.1551 C   0  0  0  0  0  0  0  0  0  0  0  0
   10.4759  -16.3055   27.8436 O   0  0  0  0  0  0  0  0  0  0  0  0
   10.4822  -18.5665   27.7878 O   0  0  0  0  0  0  0  0  0  0  0  0
  2  1  1  0
  2  3  1  0
  3  4  1  6
  5  6  2  0
  5  3  1  0
  8  7  1  0
  8  9  1  0
  9 11  1  0
  9 10  1  1
 11 12  1  6
 11 13  1  0
 12  5  1  0
 13 17  1  0
 14 13  2  0
 16 15  1  6
 16 18  1  0
 17 16  1  0
 18 19  2  0
 18 20  1  0
M  END
$$$$
