SIA.pdb
     RDKit          3D

 20 19  0  0  1  0  0  0  0  0999 V2000
    5.4734  -17.7528   20.7670 O   0  0  0  0  0  0  0  0  0  0  0  0
    6.0098  -17.1315   21.8900 C   0  0  0  0  0  0  0  0  0  0  0  0
    6.3899  -15.6852   21.5422 C   0  0  2  0  0  0  0  0  0  0  0  0
    6.7933  -15.6964   20.1504 N   0  0  0  0  0  0  0  0  0  0  0  0
    7.5036  -15.2446   22.4321 C   0  0  0  0  0  0  0  0  0  0  0  0
    8.6743  -15.2931   21.9390 O   0  0  0  0  0  0  0  0  0  0  0  0
    6.3093  -12.6332   27.2081 C   0  0  0  0  0  0  0  0  0  0  0  0
    6.6795  -13.6328   26.1625 C   0  0  0  0  0  0  0  0  0  0  0  0
    7.9972  -13.2288   25.4619 C   0  0  2  0  0  0  0  0  0  0  0  0
    7.6343  -12.0789   24.5542 C   0  0  0  0  0  0  0  0  0  0  0  0
    8.4291  -14.4048   24.6083 C   0  0  2  0  0  0  0  0  0  0  0  0
    7.3000  -14.7953   23.7496 N   0  0  0  0  0  0  0  0  0  0  0  0
    8.8413  -15.5468   25.4366 C   0  0  0  0  0  0  0  0  0  0  0  0
    7.8912  -16.2191   25.9895 O   0  0  0  0  0  0  0  0  0  0  0  0
   11.6029  -17.8705   25.9097 C   0  0  0  0  0  0  0  0  0  0  0  0
   10.3898  -17.1919   26.5029 C   0  0  2  0  0  0  0  0  0  0  0  0
   10.1309  -16.0087   25.7061 N   0  0  0  0  0  0  0  0  0  0  0  0
   10.5646  -16.8782   27.9341 C   0  0  0  0  0  0  0  0  0  0  0  0
   10.6394  -15.6832   28.2865 O   0  0  0  0  0  0  0  0  0  0  0  0
   10.6478  -17.8621   28.8928 O   0  0  0  0  0  0  0  0  0  0  0  0
  2  1  1  0
  2  3  1  0
  3  4  1  6
  5  6  2  0
  5  3  1  0
  8  7  1  0
  8  9  1  0
  9 11  1  0
  9 10  1  6
 11 12  1  6
 11 13  1  0
 12  5  1  0
 13 17  1  0
 14 13  2  0
 16 15  1  6
 16 18  1  0
 17 16  1  0
 18 19  2  0
 18 20  1  0
M  END
$$$$
