SIA.pdb
     RDKit          3D

 20 19  0  0  1  0  0  0  0  0999 V2000
    6.8109  -17.8230   20.5130 O   0  0  0  0  0  0  0  0  0  0  0  0
    7.6871  -17.3221   21.4703 C   0  0  0  0  0  0  0  0  0  0  0  0
    7.9143  -15.8240   21.2221 C   0  0  2  0  0  0  0  0  0  0  0  0
    8.8095  -15.7334   20.0862 N   0  0  0  0  0  0  0  0  0  0  0  0
    8.5143  -15.2114   22.4431 C   0  0  0  0  0  0  0  0  0  0  0  0
    9.7821  -15.1213   22.4659 O   0  0  0  0  0  0  0  0  0  0  0  0
    7.2514  -11.7057   27.3602 C   0  0  0  0  0  0  0  0  0  0  0  0
    8.1106  -12.7189   26.6785 C   0  0  0  0  0  0  0  0  0  0  0  0
    7.4083  -13.2717   25.4170 C   0  0  2  0  0  0  0  0  0  0  0  0
    6.2268  -14.0601   25.9269 C   0  0  0  0  0  0  0  0  0  0  0  0
    8.3773  -14.2259   24.7470 C   0  0  2  0  0  0  0  0  0  0  0  0
    7.7445  -14.7497   23.5263 N   0  0  0  0  0  0  0  0  0  0  0  0
    8.7366  -15.3389   25.6370 C   0  0  0  0  0  0  0  0  0  0  0  0
    7.7795  -16.1388   25.9603 O   0  0  0  0  0  0  0  0  0  0  0  0
   11.4624  -17.5109   26.3663 C   0  0  0  0  0  0  0  0  0  0  0  0
   10.2243  -16.8633   26.9424 C   0  0  2  0  0  0  0  0  0  0  0  0
    9.9831  -15.6529   26.1817 N   0  0  0  0  0  0  0  0  0  0  0  0
   10.3479  -16.6023   28.3895 C   0  0  0  0  0  0  0  0  0  0  0  0
   10.4987  -17.5668   29.1671 O   0  0  0  0  0  0  0  0  0  0  0  0
   10.3021  -15.3286   28.9087 O   0  0  0  0  0  0  0  0  0  0  0  0
  2  1  1  0
  2  3  1  0
  3  4  1  6
  5  6  2  0
  5  3  1  0
  8  7  1  0
  8  9  1  0
  9 11  1  0
  9 10  1  1
 11 12  1  6
 11 13  1  0
 12  5  1  0
 13 17  1  0
 14 13  2  0
 16 15  1  6
 16 18  1  0
 17 16  1  0
 18 19  2  0
 18 20  1  0
M  END
$$$$
