SIA.pdb
     RDKit          3D

 20 19  0  0  1  0  0  0  0  0999 V2000
    6.0251  -17.8036   20.1519 O   0  0  0  0  0  0  0  0  0  0  0  0
    6.8845  -17.3018   21.1239 C   0  0  0  0  0  0  0  0  0  0  0  0
    6.9800  -15.7758   20.9839 C   0  0  2  0  0  0  0  0  0  0  0  0
    7.6036  -15.5256   19.7000 N   0  0  0  0  0  0  0  0  0  0  0  0
    7.7990  -15.2321   22.1063 C   0  0  0  0  0  0  0  0  0  0  0  0
    9.0568  -15.2007   21.9250 O   0  0  0  0  0  0  0  0  0  0  0  0
    7.5095  -11.8705   27.2769 C   0  0  0  0  0  0  0  0  0  0  0  0
    8.2059  -12.8756   26.4200 C   0  0  0  0  0  0  0  0  0  0  0  0
    7.2881  -13.3399   25.2658 C   0  0  2  0  0  0  0  0  0  0  0  0
    6.1526  -14.0817   25.9279 C   0  0  0  0  0  0  0  0  0  0  0  0
    8.0849  -14.3191   24.4263 C   0  0  2  0  0  0  0  0  0  0  0  0
    7.2380  -14.7719   23.3116 N   0  0  0  0  0  0  0  0  0  0  0  0
    8.5212  -15.4762   25.2205 C   0  0  0  0  0  0  0  0  0  0  0  0
    7.5874  -16.2482   25.6590 O   0  0  0  0  0  0  0  0  0  0  0  0
   11.4275  -17.6131   25.6582 C   0  0  0  0  0  0  0  0  0  0  0  0
   10.1178  -17.1147   26.2242 C   0  0  2  0  0  0  0  0  0  0  0  0
    9.8190  -15.8585   25.5649 N   0  0  0  0  0  0  0  0  0  0  0  0
   10.1539  -16.9835   27.6935 C   0  0  0  0  0  0  0  0  0  0  0  0
   10.0910  -15.8447   28.2006 O   0  0  0  0  0  0  0  0  0  0  0  0
   10.2547  -18.0774   28.5225 O   0  0  0  0  0  0  0  0  0  0  0  0
  2  1  1  0
  2  3  1  0
  3  4  1  6
  5  6  2  0
  5  3  1  0
  8  7  1  0
  8  9  1  0
  9 11  1  0
  9 10  1  1
 11 12  1  6
 11 13  1  0
 12  5  1  0
 13 17  1  0
 14 13  2  0
 16 15  1  6
 16 18  1  0
 17 16  1  0
 18 19  2  0
 18 20  1  0
M  END
$$$$
