SIA.pdb
     RDKit          3D

 20 19  0  0  1  0  0  0  0  0999 V2000
    8.5516  -19.7672   18.3074 O   0  0  0  0  0  0  0  0  0  0  0  0
    7.5910  -19.2480   17.4455 C   0  0  0  0  0  0  0  0  0  0  0  0
    8.1390  -17.9821   16.7714 C   0  0  2  0  0  0  0  0  0  0  0  0
    9.0795  -18.4338   15.7659 N   0  0  0  0  0  0  0  0  0  0  0  0
    8.8035  -17.1291   17.7996 C   0  0  0  0  0  0  0  0  0  0  0  0
   10.0735  -17.1714   17.8344 O   0  0  0  0  0  0  0  0  0  0  0  0
    7.8316  -12.0322   21.1070 C   0  0  0  0  0  0  0  0  0  0  0  0
    8.6563  -13.2372   20.7952 C   0  0  0  0  0  0  0  0  0  0  0  0
    7.8652  -14.2271   19.9095 C   0  0  2  0  0  0  0  0  0  0  0  0
    6.7229  -14.7117   20.7687 C   0  0  0  0  0  0  0  0  0  0  0  0
    8.7833  -15.3972   19.6156 C   0  0  2  0  0  0  0  0  0  0  0  0
    8.0898  -16.3122   18.6954 N   0  0  0  0  0  0  0  0  0  0  0  0
    9.1506  -16.1135   20.8453 C   0  0  0  0  0  0  0  0  0  0  0  0
    8.2231  -16.8265   21.3854 O   0  0  0  0  0  0  0  0  0  0  0  0
   11.9449  -17.6591   22.4494 C   0  0  0  0  0  0  0  0  0  0  0  0
   10.6259  -16.9572   22.6763 C   0  0  2  0  0  0  0  0  0  0  0  0
   10.3772  -16.1302   21.5118 N   0  0  0  0  0  0  0  0  0  0  0  0
   10.6109  -16.1804   23.9308 C   0  0  0  0  0  0  0  0  0  0  0  0
   10.5106  -14.9377   23.8712 O   0  0  0  0  0  0  0  0  0  0  0  0
   10.7040  -16.7830   25.1645 O   0  0  0  0  0  0  0  0  0  0  0  0
  2  1  1  0
  2  3  1  0
  3  4  1  6
  5  6  2  0
  5  3  1  0
  8  7  1  0
  8  9  1  0
  9 11  1  0
  9 10  1  1
 11 12  1  6
 11 13  1  0
 12  5  1  0
 13 17  1  0
 14 13  2  0
 16 15  1  6
 16 18  1  0
 17 16  1  0
 18 19  2  0
 18 20  1  0
M  END
$$$$
