SIA.pdb
     RDKit          3D

 20 19  0  0  1  0  0  0  0  0999 V2000
    6.8054  -17.1458   20.0183 O   0  0  0  0  0  0  0  0  0  0  0  0
    6.7411  -16.6464   21.3150 C   0  0  0  0  0  0  0  0  0  0  0  0
    7.0311  -15.1388   21.2977 C   0  0  2  0  0  0  0  0  0  0  0  0
    7.7365  -14.8767   20.0593 N   0  0  0  0  0  0  0  0  0  0  0  0
    7.8613  -14.7868   22.4865 C   0  0  0  0  0  0  0  0  0  0  0  0
    9.1184  -14.7377   22.3037 O   0  0  0  0  0  0  0  0  0  0  0  0
    5.8728  -11.6848   26.4052 C   0  0  0  0  0  0  0  0  0  0  0  0
    6.8669  -12.3058   25.4801 C   0  0  0  0  0  0  0  0  0  0  0  0
    7.3403  -13.6733   26.0240 C   0  0  2  0  0  0  0  0  0  0  0  0
    8.2427  -13.3521   27.1903 C   0  0  0  0  0  0  0  0  0  0  0  0
    8.1675  -14.3265   24.9344 C   0  0  2  0  0  0  0  0  0  0  0  0
    7.3114  -14.5187   23.7532 N   0  0  0  0  0  0  0  0  0  0  0  0
    8.7067  -15.6215   25.3729 C   0  0  0  0  0  0  0  0  0  0  0  0
    7.8397  -16.5079   25.7238 O   0  0  0  0  0  0  0  0  0  0  0  0
   11.7229  -17.6769   25.1122 C   0  0  0  0  0  0  0  0  0  0  0  0
   10.4270  -17.3747   25.8287 C   0  0  2  0  0  0  0  0  0  0  0  0
   10.0397  -16.0274   25.4590 N   0  0  0  0  0  0  0  0  0  0  0  0
   10.5393  -17.5461   27.2900 C   0  0  0  0  0  0  0  0  0  0  0  0
   10.7747  -18.6826   27.7491 O   0  0  0  0  0  0  0  0  0  0  0  0
   10.3927  -16.4921   28.1626 O   0  0  0  0  0  0  0  0  0  0  0  0
  2  1  1  0
  2  3  1  0
  3  4  1  6
  5  6  2  0
  5  3  1  0
  8  7  1  0
  8  9  1  0
  9 11  1  0
  9 10  1  1
 11 12  1  6
 11 13  1  0
 12  5  1  0
 13 17  1  0
 14 13  2  0
 16 15  1  6
 16 18  1  0
 17 16  1  0
 18 19  2  0
 18 20  1  0
M  END
$$$$
