SIA.pdb
     RDKit          3D

 20 19  0  0  1  0  0  0  0  0999 V2000
    5.2487  -18.0459   21.6270 O   0  0  0  0  0  0  0  0  0  0  0  0
    6.3696  -17.5583   22.2910 C   0  0  0  0  0  0  0  0  0  0  0  0
    6.4425  -16.0341   22.1205 C   0  0  2  0  0  0  0  0  0  0  0  0
    6.8494  -15.7993   20.7497 N   0  0  0  0  0  0  0  0  0  0  0  0
    7.4335  -15.4805   23.0889 C   0  0  0  0  0  0  0  0  0  0  0  0
    8.6494  -15.4844   22.7180 O   0  0  0  0  0  0  0  0  0  0  0  0
    5.9045  -11.6665   26.5092 C   0  0  0  0  0  0  0  0  0  0  0  0
    6.7907  -12.4556   25.6028 C   0  0  0  0  0  0  0  0  0  0  0  0
    7.4128  -13.6549   26.3542 C   0  0  2  0  0  0  0  0  0  0  0  0
    8.4716  -13.0623   27.2517 C   0  0  0  0  0  0  0  0  0  0  0  0
    8.0882  -14.5311   25.3177 C   0  0  2  0  0  0  0  0  0  0  0  0
    7.0718  -14.9749   24.3509 N   0  0  0  0  0  0  0  0  0  0  0  0
    8.7281  -15.7001   25.9375 C   0  0  0  0  0  0  0  0  0  0  0  0
    7.9444  -16.5143   26.5567 O   0  0  0  0  0  0  0  0  0  0  0  0
   11.8230  -17.6715   25.8236 C   0  0  0  0  0  0  0  0  0  0  0  0
   10.5673  -17.2708   26.5630 C   0  0  2  0  0  0  0  0  0  0  0  0
   10.0785  -16.0539   25.9447 N   0  0  0  0  0  0  0  0  0  0  0  0
   10.7945  -17.1127   28.0123 C   0  0  0  0  0  0  0  0  0  0  0  0
   10.7716  -15.9667   28.5064 O   0  0  0  0  0  0  0  0  0  0  0  0
   11.0308  -18.1891   28.8366 O   0  0  0  0  0  0  0  0  0  0  0  0
  2  1  1  0
  2  3  1  0
  3  4  1  6
  5  6  2  0
  5  3  1  0
  8  7  1  0
  8  9  1  0
  9 11  1  0
  9 10  1  1
 11 12  1  6
 11 13  1  0
 12  5  1  0
 13 17  1  0
 14 13  2  0
 16 15  1  6
 16 18  1  0
 17 16  1  0
 18 19  2  0
 18 20  1  0
M  END
$$$$
