SIA.pdb
     RDKit          3D

 20 19  0  0  1  0  0  0  0  0999 V2000
    7.3048  -17.4204   21.6407 O   0  0  0  0  0  0  0  0  0  0  0  0
    6.2676  -16.4964   21.5656 C   0  0  0  0  0  0  0  0  0  0  0  0
    6.8506  -15.0790   21.4743 C   0  0  2  0  0  0  0  0  0  0  0  0
    7.6077  -15.0317   20.2396 N   0  0  0  0  0  0  0  0  0  0  0  0
    7.7208  -14.8308   22.6607 C   0  0  0  0  0  0  0  0  0  0  0  0
    8.9743  -14.9265   22.4724 O   0  0  0  0  0  0  0  0  0  0  0  0
    5.9129  -11.4828   26.4667 C   0  0  0  0  0  0  0  0  0  0  0  0
    6.8803  -12.1670   25.5581 C   0  0  0  0  0  0  0  0  0  0  0  0
    7.3130  -13.5297   26.1462 C   0  0  2  0  0  0  0  0  0  0  0  0
    8.2403  -13.1983   27.2899 C   0  0  0  0  0  0  0  0  0  0  0  0
    8.1036  -14.2502   25.0719 C   0  0  2  0  0  0  0  0  0  0  0  0
    7.2106  -14.5066   23.9310 N   0  0  0  0  0  0  0  0  0  0  0  0
    8.6514  -15.5201   25.5691 C   0  0  0  0  0  0  0  0  0  0  0  0
    7.7910  -16.3888   25.9761 O   0  0  0  0  0  0  0  0  0  0  0  0
   11.6518  -17.5847   25.3039 C   0  0  0  0  0  0  0  0  0  0  0  0
   10.3804  -17.2573   26.0526 C   0  0  2  0  0  0  0  0  0  0  0  0
    9.9863  -15.9189   25.6586 N   0  0  0  0  0  0  0  0  0  0  0  0
   10.5385  -17.3894   27.5137 C   0  0  0  0  0  0  0  0  0  0  0  0
   10.7858  -18.5137   27.9959 O   0  0  0  0  0  0  0  0  0  0  0  0
   10.4218  -16.3117   28.3615 O   0  0  0  0  0  0  0  0  0  0  0  0
  2  1  1  0
  2  3  1  0
  3  4  1  6
  5  6  2  0
  5  3  1  0
  8  7  1  0
  8  9  1  0
  9 11  1  0
  9 10  1  1
 11 12  1  6
 11 13  1  0
 12  5  1  0
 13 17  1  0
 14 13  2  0
 16 15  1  6
 16 18  1  0
 17 16  1  0
 18 19  2  0
 18 20  1  0
M  END
$$$$
