SIA.pdb
     RDKit          3D

 20 19  0  0  1  0  0  0  0  0999 V2000
    7.2108  -17.1294   21.4605 O   0  0  0  0  0  0  0  0  0  0  0  0
    6.2405  -16.1563   21.2446 C   0  0  0  0  0  0  0  0  0  0  0  0
    6.9011  -14.7704   21.2254 C   0  0  2  0  0  0  0  0  0  0  0  0
    7.6949  -14.7173   20.0143 N   0  0  0  0  0  0  0  0  0  0  0  0
    7.7488  -14.6159   22.4436 C   0  0  0  0  0  0  0  0  0  0  0  0
    9.0045  -14.7210   22.2756 O   0  0  0  0  0  0  0  0  0  0  0  0
    5.8214  -11.4554   26.2976 C   0  0  0  0  0  0  0  0  0  0  0  0
    6.7987  -12.1111   25.3786 C   0  0  0  0  0  0  0  0  0  0  0  0
    7.2841  -13.4563   25.9661 C   0  0  2  0  0  0  0  0  0  0  0  0
    8.2100  -13.0896   27.1001 C   0  0  0  0  0  0  0  0  0  0  0  0
    8.0892  -14.1519   24.8862 C   0  0  2  0  0  0  0  0  0  0  0  0
    7.2161  -14.3670   23.7216 N   0  0  0  0  0  0  0  0  0  0  0  0
    8.6170  -15.4406   25.3561 C   0  0  0  0  0  0  0  0  0  0  0  0
    7.7414  -16.3387   25.6517 O   0  0  0  0  0  0  0  0  0  0  0  0
   11.6497  -17.4471   25.1253 C   0  0  0  0  0  0  0  0  0  0  0  0
   10.3336  -17.1943   25.8239 C   0  0  2  0  0  0  0  0  0  0  0  0
    9.9472  -15.8295   25.5242 N   0  0  0  0  0  0  0  0  0  0  0  0
   10.4088  -17.4513   27.2749 C   0  0  0  0  0  0  0  0  0  0  0  0
   10.2466  -16.5001   28.0666 O   0  0  0  0  0  0  0  0  0  0  0  0
   10.6521  -18.7070   27.7829 O   0  0  0  0  0  0  0  0  0  0  0  0
  2  1  1  0
  2  3  1  0
  3  4  1  6
  5  6  2  0
  5  3  1  0
  8  7  1  0
  8  9  1  0
  9 11  1  0
  9 10  1  1
 11 12  1  6
 11 13  1  0
 12  5  1  0
 13 17  1  0
 14 13  2  0
 16 15  1  6
 16 18  1  0
 17 16  1  0
 18 19  2  0
 18 20  1  0
M  END
$$$$
