SIA.pdb
     RDKit          3D

 20 19  0  0  1  0  0  0  0  0999 V2000
    7.4547  -17.0709   21.0640 O   0  0  0  0  0  0  0  0  0  0  0  0
    6.3395  -16.2394   21.0556 C   0  0  0  0  0  0  0  0  0  0  0  0
    6.7945  -14.7736   21.0165 C   0  0  2  0  0  0  0  0  0  0  0  0
    7.5457  -14.6157   19.7874 N   0  0  0  0  0  0  0  0  0  0  0  0
    7.6380  -14.4912   22.2145 C   0  0  0  0  0  0  0  0  0  0  0  0
    8.8916  -14.4138   22.0178 O   0  0  0  0  0  0  0  0  0  0  0  0
    5.7129  -11.6792   26.4416 C   0  0  0  0  0  0  0  0  0  0  0  0
    6.6887  -12.2110   25.4444 C   0  0  0  0  0  0  0  0  0  0  0  0
    7.1422  -13.6378   25.8301 C   0  0  2  0  0  0  0  0  0  0  0  0
    8.0344  -13.4646   27.0350 C   0  0  0  0  0  0  0  0  0  0  0  0
    7.9753  -14.1690   24.6803 C   0  0  2  0  0  0  0  0  0  0  0  0
    7.1037  -14.3155   23.5039 N   0  0  0  0  0  0  0  0  0  0  0  0
    8.5839  -15.4650   25.0120 C   0  0  0  0  0  0  0  0  0  0  0  0
    7.7668  -16.4411   25.2124 O   0  0  0  0  0  0  0  0  0  0  0  0
   11.7098  -17.2896   24.6163 C   0  0  0  0  0  0  0  0  0  0  0  0
   10.4030  -17.1414   25.3606 C   0  0  2  0  0  0  0  0  0  0  0  0
    9.9365  -15.7870   25.1375 N   0  0  0  0  0  0  0  0  0  0  0  0
   10.5335  -17.4616   26.7951 C   0  0  0  0  0  0  0  0  0  0  0  0
   10.9245  -18.5994   27.1275 O   0  0  0  0  0  0  0  0  0  0  0  0
   10.2379  -16.5451   27.7782 O   0  0  0  0  0  0  0  0  0  0  0  0
  2  1  1  0
  2  3  1  0
  3  4  1  6
  5  6  2  0
  5  3  1  0
  8  7  1  0
  8  9  1  0
  9 11  1  0
  9 10  1  1
 11 12  1  6
 11 13  1  0
 12  5  1  0
 13 17  1  0
 14 13  2  0
 16 15  1  6
 16 18  1  0
 17 16  1  0
 18 19  2  0
 18 20  1  0
M  END
$$$$
