SIA.pdb
     RDKit          3D

 20 19  0  0  1  0  0  0  0  0999 V2000
    7.8098  -20.0404   18.5985 O   0  0  0  0  0  0  0  0  0  0  0  0
    6.9191  -19.0870   18.1162 C   0  0  0  0  0  0  0  0  0  0  0  0
    7.7024  -17.9361   17.4687 C   0  0  2  0  0  0  0  0  0  0  0  0
    8.5863  -18.5455   16.4955 N   0  0  0  0  0  0  0  0  0  0  0  0
    8.4669  -17.2100   18.5244 C   0  0  0  0  0  0  0  0  0  0  0  0
    9.7123  -17.4559   18.5908 O   0  0  0  0  0  0  0  0  0  0  0  0
    6.7026  -12.3155   20.1712 C   0  0  0  0  0  0  0  0  0  0  0  0
    7.6798  -13.3804   19.7960 C   0  0  0  0  0  0  0  0  0  0  0  0
    7.8274  -14.4136   20.9365 C   0  0  2  0  0  0  0  0  0  0  0  0
    8.6039  -13.7078   22.0212 C   0  0  0  0  0  0  0  0  0  0  0  0
    8.6685  -15.5553   20.4003 C   0  0  2  0  0  0  0  0  0  0  0  0
    7.8693  -16.2972   19.4126 N   0  0  0  0  0  0  0  0  0  0  0  0
    9.0932  -16.4611   21.4770 C   0  0  0  0  0  0  0  0  0  0  0  0
    8.1503  -17.0562   22.1230 O   0  0  0  0  0  0  0  0  0  0  0  0
   11.7257  -18.6650   22.4407 C   0  0  0  0  0  0  0  0  0  0  0  0
   10.6633  -17.7216   22.9558 C   0  0  2  0  0  0  0  0  0  0  0  0
   10.3882  -16.7703   21.8969 N   0  0  0  0  0  0  0  0  0  0  0  0
   11.0596  -17.0620   24.2148 C   0  0  0  0  0  0  0  0  0  0  0  0
   11.2729  -17.7644   25.2243 O   0  0  0  0  0  0  0  0  0  0  0  0
   11.2017  -15.6965   24.3110 O   0  0  0  0  0  0  0  0  0  0  0  0
  2  1  1  0
  2  3  1  0
  3  4  1  6
  5  6  2  0
  5  3  1  0
  8  7  1  0
  8  9  1  0
  9 11  1  0
  9 10  1  1
 11 12  1  6
 11 13  1  0
 12  5  1  0
 13 17  1  0
 14 13  2  0
 16 15  1  6
 16 18  1  0
 17 16  1  0
 18 19  2  0
 18 20  1  0
M  END
$$$$
