SIA.pdb
     RDKit          3D

 20 19  0  0  1  0  0  0  0  0999 V2000
    6.4528  -15.6892   19.2287 O   0  0  0  0  0  0  0  0  0  0  0  0
    6.9968  -15.6190   20.5070 C   0  0  0  0  0  0  0  0  0  0  0  0
    7.0868  -14.1501   20.9449 C   0  0  2  0  0  0  0  0  0  0  0  0
    7.7872  -13.4540   19.8844 N   0  0  0  0  0  0  0  0  0  0  0  0
    7.8288  -14.0694   22.2368 C   0  0  0  0  0  0  0  0  0  0  0  0
    9.0962  -14.0088   22.1581 O   0  0  0  0  0  0  0  0  0  0  0  0
    5.7515  -11.5497   26.5498 C   0  0  0  0  0  0  0  0  0  0  0  0
    6.7635  -12.0744   25.5853 C   0  0  0  0  0  0  0  0  0  0  0  0
    7.0565  -13.5676   25.8585 C   0  0  2  0  0  0  0  0  0  0  0  0
    7.8298  -13.5956   27.1542 C   0  0  0  0  0  0  0  0  0  0  0  0
    7.9584  -14.0582   24.7430 C   0  0  2  0  0  0  0  0  0  0  0  0
    7.1882  -14.0592   23.4893 N   0  0  0  0  0  0  0  0  0  0  0  0
    8.4636  -15.4109   25.0167 C   0  0  0  0  0  0  0  0  0  0  0  0
    7.5732  -16.3318   25.1568 O   0  0  0  0  0  0  0  0  0  0  0  0
   11.4116  -17.4763   24.5493 C   0  0  0  0  0  0  0  0  0  0  0  0
   10.1453  -17.2304   25.3369 C   0  0  2  0  0  0  0  0  0  0  0  0
    9.7863  -15.8391   25.1433 N   0  0  0  0  0  0  0  0  0  0  0  0
   10.2934  -17.5793   26.7629 C   0  0  0  0  0  0  0  0  0  0  0  0
   10.5029  -18.7694   27.0756 O   0  0  0  0  0  0  0  0  0  0  0  0
   10.2079  -16.6337   27.7591 O   0  0  0  0  0  0  0  0  0  0  0  0
  2  1  1  0
  2  3  1  0
  3  4  1  6
  5  6  2  0
  5  3  1  0
  8  7  1  0
  8  9  1  0
  9 11  1  0
  9 10  1  1
 11 12  1  6
 11 13  1  0
 12  5  1  0
 13 17  1  0
 14 13  2  0
 16 15  1  6
 16 18  1  0
 17 16  1  0
 18 19  2  0
 18 20  1  0
M  END
$$$$
