ALW.pdb
     RDKit          3D

 28 29  0  0  1  0  0  0  0  0999 V2000
    8.6452  -19.0940   21.2553 C   0  0  0  0  0  0  0  0  0  0  0  0
    7.6868  -18.0032   20.7792 C   0  0  2  0  0  0  0  0  0  0  0  0
    7.8486  -17.8719   19.3494 N   0  0  0  0  0  0  0  0  0  0  0  0
    7.9936  -16.7086   21.4348 C   0  0  0  0  0  0  0  0  0  0  0  0
    8.7951  -15.9182   20.8586 O   0  0  0  0  0  0  0  0  0  0  0  0
    5.9262  -13.5429   26.2964 C   0  0  0  0  0  0  0  0  0  0  0  0
    6.9987  -13.5492   25.2221 C   0  0  2  0  0  0  0  0  0  0  0  0
    7.3622  -12.2395   24.6647 C   0  0  0  0  0  0  0  0  0  0  0  0
    6.7609  -14.6879   24.3239 C   0  0  0  0  0  0  0  0  0  0  0  0
    7.8239  -15.1471   23.4021 C   0  0  2  0  0  0  0  0  0  0  0  0
    7.4023  -16.3604   22.6805 N   0  0  0  0  0  0  0  0  0  0  0  0
    9.1495  -15.3859   24.0366 C   0  0  0  0  0  0  0  0  0  0  0  0
    9.8845  -14.4451   24.4309 O   0  0  0  0  0  0  0  0  0  0  0  0
    9.6658  -16.6908   24.2379 N   0  0  0  0  0  0  0  0  0  0  0  0
   11.0079  -16.9395   24.7551 C   0  0  1  0  0  0  0  0  0  0  0  0
   10.9742  -17.7278   26.0056 C   0  0  0  0  0  0  0  0  0  0  0  0
   10.1473  -17.1037   27.0471 C   0  0  0  0  0  0  0  0  0  0  0  0
    8.8847  -17.5244   27.4963 C   0  0  0  0  0  0  0  0  0  0  0  0
    8.4060  -16.7045   28.4249 N   0  0  0  0  0  0  0  0  0  0  0  0
    9.3035  -15.7447   28.6186 C   0  0  0  0  0  0  0  0  0  0  0  0
    9.2468  -14.6745   29.5112 C   0  0  0  0  0  0  0  0  0  0  0  0
   10.3047  -13.7946   29.5755 C   0  0  0  0  0  0  0  0  0  0  0  0
   11.3793  -14.0118   28.7498 C   0  0  0  0  0  0  0  0  0  0  0  0
   11.4343  -15.0683   27.8682 C   0  0  0  0  0  0  0  0  0  0  0  0
   10.3881  -15.9520   27.7930 C   0  0  0  0  0  0  0  0  0  0  0  0
   11.9076  -17.4457   23.7444 C   0  0  0  0  0  0  0  0  0  0  0  0
   13.2504  -17.6472   24.1281 O   0  0  0  0  0  0  0  0  0  0  0  0
   11.5935  -17.7183   22.5614 O   0  0  0  0  0  0  0  0  0  0  0  0
  2  1  1  1
  2  3  1  0
  4  2  1  0
  5  4  2  0
  7  6  1  6
  7  8  1  0
  9  7  1  0
 10  9  1  1
 10 11  1  0
 11  4  1  0
 12 14  1  0
 12 10  1  0
 13 12  2  0
 15 14  1  0
 15 16  1  1
 16 17  1  0
 17 18  2  0
 18 19  1  0
 20 19  1  0
 21 20  2  0
 22 21  1  0
 23 24  1  0
 23 22  2  0
 24 25  2  0
 25 17  1  0
 25 20  1  0
 26 15  1  0
 27 26  1  0
 28 26  2  0
M  END
$$$$
