ALW.pdb
     RDKit          3D

 28 29  0  0  1  0  0  0  0  0999 V2000
    6.8519  -19.4146   22.1006 C   0  0  0  0  0  0  0  0  0  0  0  0
    6.9276  -18.6309   20.7909 C   0  0  2  0  0  0  0  0  0  0  0  0
    7.1730  -19.5780   19.7277 N   0  0  0  0  0  0  0  0  0  0  0  0
    8.0272  -17.6366   20.8341 C   0  0  0  0  0  0  0  0  0  0  0  0
    9.1888  -18.0102   20.5020 O   0  0  0  0  0  0  0  0  0  0  0  0
    8.4320  -14.0187   18.7000 C   0  0  0  0  0  0  0  0  0  0  0  0
    7.6321  -13.5973   19.9194 C   0  0  2  0  0  0  0  0  0  0  0  0
    6.9530  -12.2977   19.8289 C   0  0  0  0  0  0  0  0  0  0  0  0
    8.3945  -13.9435   21.1271 C   0  0  0  0  0  0  0  0  0  0  0  0
    8.8900  -15.3237   21.3278 C   0  0  2  0  0  0  0  0  0  0  0  0
    7.7854  -16.2944   21.2376 N   0  0  0  0  0  0  0  0  0  0  0  0
    9.6406  -15.5467   22.5942 C   0  0  0  0  0  0  0  0  0  0  0  0
   10.7886  -15.0715   22.7869 O   0  0  0  0  0  0  0  0  0  0  0  0
    9.1065  -16.3082   23.6640 N   0  0  0  0  0  0  0  0  0  0  0  0
    9.8414  -16.5601   24.8999 C   0  0  1  0  0  0  0  0  0  0  0  0
    9.7677  -15.4081   25.8239 C   0  0  0  0  0  0  0  0  0  0  0  0
    8.3944  -14.9246   26.0188 C   0  0  0  0  0  0  0  0  0  0  0  0
    7.2096  -15.6750   25.9408 C   0  0  0  0  0  0  0  0  0  0  0  0
    6.1413  -14.9103   26.1353 N   0  0  0  0  0  0  0  0  0  0  0  0
    6.5651  -13.6687   26.3429 C   0  0  0  0  0  0  0  0  0  0  0  0
    5.8070  -12.5292   26.6117 C   0  0  0  0  0  0  0  0  0  0  0  0
    6.4480  -11.3285   26.8233 C   0  0  0  0  0  0  0  0  0  0  0  0
    7.8189  -11.3057   26.7598 C   0  0  0  0  0  0  0  0  0  0  0  0
    8.5667  -12.4310   26.4936 C   0  0  0  0  0  0  0  0  0  0  0  0
    7.9420  -13.6332   26.2803 C   0  0  0  0  0  0  0  0  0  0  0  0
    9.5090  -17.8346   25.4936 C   0  0  0  0  0  0  0  0  0  0  0  0
   10.3690  -18.3110   26.5056 O   0  0  0  0  0  0  0  0  0  0  0  0
    8.5246  -18.5469   25.1837 O   0  0  0  0  0  0  0  0  0  0  0  0
  2  1  1  1
  2  3  1  0
  4  2  1  0
  5  4  2  0
  7  6  1  6
  7  8  1  0
  9  7  1  0
 10  9  1  1
 10 11  1  0
 11  4  1  0
 12 14  1  0
 12 10  1  0
 13 12  2  0
 15 14  1  0
 15 16  1  1
 16 17  1  0
 17 18  2  0
 18 19  1  0
 20 19  1  0
 21 20  2  0
 22 21  1  0
 23 24  1  0
 23 22  2  0
 24 25  2  0
 25 17  1  0
 25 20  1  0
 26 15  1  0
 27 26  1  0
 28 26  2  0
M  END
$$$$
