ALW.pdb
     RDKit          3D

 28 29  0  0  1  0  0  0  0  0999 V2000
    8.0822  -19.1264   20.6277 C   0  0  0  0  0  0  0  0  0  0  0  0
    7.5202  -17.7712   20.2003 C   0  0  2  0  0  0  0  0  0  0  0  0
    7.9508  -17.5272   18.8428 N   0  0  0  0  0  0  0  0  0  0  0  0
    8.0225  -16.6900   21.0827 C   0  0  0  0  0  0  0  0  0  0  0  0
    9.1120  -16.1241   20.7794 O   0  0  0  0  0  0  0  0  0  0  0  0
    8.3929  -12.9783   24.5504 C   0  0  0  0  0  0  0  0  0  0  0  0
    6.9980  -13.5095   24.8270 C   0  0  2  0  0  0  0  0  0  0  0  0
    6.6241  -13.6368   26.2420 C   0  0  0  0  0  0  0  0  0  0  0  0
    6.7172  -14.6086   23.8928 C   0  0  0  0  0  0  0  0  0  0  0  0
    7.8173  -15.2416   23.1315 C   0  0  2  0  0  0  0  0  0  0  0  0
    7.2992  -16.2956   22.2420 N   0  0  0  0  0  0  0  0  0  0  0  0
    8.9219  -15.7958   23.9619 C   0  0  0  0  0  0  0  0  0  0  0  0
    8.7157  -16.3435   25.0747 O   0  0  0  0  0  0  0  0  0  0  0  0
   10.2770  -15.7421   23.5485 N   0  0  0  0  0  0  0  0  0  0  0  0
   11.3783  -16.2098   24.3847 C   0  0  1  0  0  0  0  0  0  0  0  0
   11.6627  -15.2696   25.4899 C   0  0  0  0  0  0  0  0  0  0  0  0
   11.3366  -15.8292   26.8083 C   0  0  0  0  0  0  0  0  0  0  0  0
   11.3609  -17.1814   27.1878 C   0  0  0  0  0  0  0  0  0  0  0  0
   10.9715  -17.3351   28.4481 N   0  0  0  0  0  0  0  0  0  0  0  0
   10.6859  -16.1319   28.9328 C   0  0  0  0  0  0  0  0  0  0  0  0
   10.2575  -15.7957   30.2169 C   0  0  0  0  0  0  0  0  0  0  0  0
   10.0379  -14.4720   30.5284 C   0  0  0  0  0  0  0  0  0  0  0  0
   10.2524  -13.5321   29.5514 C   0  0  0  0  0  0  0  0  0  0  0  0
   10.6746  -13.8649   28.2835 C   0  0  0  0  0  0  0  0  0  0  0  0
   10.8967  -15.1789   27.9591 C   0  0  0  0  0  0  0  0  0  0  0  0
   11.2229  -17.5884   24.7875 C   0  0  0  0  0  0  0  0  0  0  0  0
   12.3300  -18.4403   24.5885 O   0  0  0  0  0  0  0  0  0  0  0  0
   10.1902  -18.0859   25.2960 O   0  0  0  0  0  0  0  0  0  0  0  0
  2  1  1  1
  2  3  1  0
  4  2  1  0
  5  4  2  0
  7  6  1  1
  7  8  1  0
  9  7  1  0
 10  9  1  1
 10 11  1  0
 11  4  1  0
 12 14  1  0
 12 10  1  0
 13 12  2  0
 15 14  1  0
 15 16  1  1
 16 17  1  0
 17 18  2  0
 18 19  1  0
 20 19  1  0
 21 20  2  0
 22 21  1  0
 23 24  1  0
 23 22  2  0
 24 25  2  0
 25 17  1  0
 25 20  1  0
 26 15  1  0
 27 26  1  0
 28 26  2  0
M  END
$$$$
