ALW.pdb
     RDKit          3D

 28 29  0  0  1  0  0  0  0  0999 V2000
    7.6398  -19.1926   18.8075 C   0  0  0  0  0  0  0  0  0  0  0  0
    7.9260  -18.9313   20.2856 C   0  0  2  0  0  0  0  0  0  0  0  0
    6.7072  -18.4417   20.8876 N   0  0  0  0  0  0  0  0  0  0  0  0
    8.9994  -17.9202   20.4443 C   0  0  0  0  0  0  0  0  0  0  0  0
   10.1678  -18.2191   20.0638 O   0  0  0  0  0  0  0  0  0  0  0  0
    7.0094  -14.8312   21.2058 C   0  0  0  0  0  0  0  0  0  0  0  0
    8.0733  -13.7487   21.2328 C   0  0  2  0  0  0  0  0  0  0  0  0
    7.6409  -12.4077   20.8168 C   0  0  0  0  0  0  0  0  0  0  0  0
    9.3294  -14.3078   20.7138 C   0  0  0  0  0  0  0  0  0  0  0  0
    9.7940  -15.6407   21.1586 C   0  0  2  0  0  0  0  0  0  0  0  0
    8.7255  -16.6440   21.0092 N   0  0  0  0  0  0  0  0  0  0  0  0
   10.3279  -15.6916   22.5476 C   0  0  0  0  0  0  0  0  0  0  0  0
   11.3014  -14.9879   22.9190 O   0  0  0  0  0  0  0  0  0  0  0  0
    9.7702  -16.5365   23.5400 N   0  0  0  0  0  0  0  0  0  0  0  0
   10.2310  -16.5411   24.9251 C   0  0  1  0  0  0  0  0  0  0  0  0
    9.9403  -15.2590   25.6019 C   0  0  0  0  0  0  0  0  0  0  0  0
    8.5024  -14.9657   25.6673 C   0  0  0  0  0  0  0  0  0  0  0  0
    7.4413  -15.8650   25.4717 C   0  0  0  0  0  0  0  0  0  0  0  0
    6.2669  -15.2526   25.5676 N   0  0  0  0  0  0  0  0  0  0  0  0
    6.4992  -13.9699   25.8224 C   0  0  0  0  0  0  0  0  0  0  0  0
    5.5736  -12.9463   26.0242 C   0  0  0  0  0  0  0  0  0  0  0  0
    6.0254  -11.6753   26.3036 C   0  0  0  0  0  0  0  0  0  0  0  0
    7.3806  -11.4697   26.3717 C   0  0  0  0  0  0  0  0  0  0  0  0
    8.2941  -12.4807   26.1716 C   0  0  0  0  0  0  0  0  0  0  0  0
    7.8587  -13.7509   25.8922 C   0  0  0  0  0  0  0  0  0  0  0  0
    9.8054  -17.7174   25.6480 C   0  0  0  0  0  0  0  0  0  0  0  0
    9.0743  -18.6823   24.9232 O   0  0  0  0  0  0  0  0  0  0  0  0
   10.0316  -17.9482   26.8596 O   0  0  0  0  0  0  0  0  0  0  0  0
  2  1  1  6
  2  3  1  0
  4  2  1  0
  5  4  2  0
  7  6  1  6
  7  8  1  0
  9  7  1  0
 10  9  1  1
 10 11  1  0
 11  4  1  0
 12 14  1  0
 12 10  1  0
 13 12  2  0
 15 14  1  0
 15 16  1  1
 16 17  1  0
 17 18  2  0
 18 19  1  0
 20 19  1  0
 21 20  2  0
 22 21  1  0
 23 24  1  0
 23 22  2  0
 24 25  2  0
 25 17  1  0
 25 20  1  0
 26 15  1  0
 27 26  1  0
 28 26  2  0
M  END
$$$$
