ALW.pdb
     RDKit          3D

 28 29  0  0  1  0  0  0  0  0999 V2000
    8.0775  -19.9730   21.5808 C   0  0  0  0  0  0  0  0  0  0  0  0
    7.9834  -19.0682   20.3531 C   0  0  2  0  0  0  0  0  0  0  0  0
    8.5350  -19.7933   19.2316 N   0  0  0  0  0  0  0  0  0  0  0  0
    8.7507  -17.8159   20.5607 C   0  0  0  0  0  0  0  0  0  0  0  0
    9.9832  -17.8123   20.2776 O   0  0  0  0  0  0  0  0  0  0  0  0
    8.8168  -13.6001   19.0087 C   0  0  0  0  0  0  0  0  0  0  0  0
    7.6018  -13.7305   19.9093 C   0  0  2  0  0  0  0  0  0  0  0  0
    6.6143  -12.6463   19.8228 C   0  0  0  0  0  0  0  0  0  0  0  0
    8.0388  -14.2210   21.2240 C   0  0  0  0  0  0  0  0  0  0  0  0
    8.8978  -15.4220   21.3256 C   0  0  2  0  0  0  0  0  0  0  0  0
    8.1194  -16.6454   21.0648 N   0  0  0  0  0  0  0  0  0  0  0  0
    9.6289  -15.5676   22.6144 C   0  0  0  0  0  0  0  0  0  0  0  0
   10.5630  -14.7948   22.9476 O   0  0  0  0  0  0  0  0  0  0  0  0
    9.3159  -16.5870   23.5487 N   0  0  0  0  0  0  0  0  0  0  0  0
    9.9061  -16.6460   24.8825 C   0  0  1  0  0  0  0  0  0  0  0  0
    9.7885  -15.3528   25.5897 C   0  0  0  0  0  0  0  0  0  0  0  0
    8.3938  -14.9237   25.7584 C   0  0  0  0  0  0  0  0  0  0  0  0
    7.2357  -15.6766   25.5038 C   0  0  0  0  0  0  0  0  0  0  0  0
    6.1383  -14.9637   25.7296 N   0  0  0  0  0  0  0  0  0  0  0  0
    6.5164  -13.7547   26.1291 C   0  0  0  0  0  0  0  0  0  0  0  0
    5.7141  -12.6753   26.4987 C   0  0  0  0  0  0  0  0  0  0  0  0
    6.3099  -11.5036   26.9107 C   0  0  0  0  0  0  0  0  0  0  0  0
    7.6809  -11.4490   26.9396 C   0  0  0  0  0  0  0  0  0  0  0  0
    8.4725  -12.5149   26.5738 C   0  0  0  0  0  0  0  0  0  0  0  0
    7.8931  -13.6876   26.1611 C   0  0  0  0  0  0  0  0  0  0  0  0
    9.4569  -17.7923   25.6382 C   0  0  0  0  0  0  0  0  0  0  0  0
    8.5048  -18.6309   25.0208 O   0  0  0  0  0  0  0  0  0  0  0  0
    9.8421  -18.1000   26.7913 O   0  0  0  0  0  0  0  0  0  0  0  0
  2  1  1  1
  2  3  1  0
  4  2  1  0
  5  4  2  0
  7  6  1  1
  7  8  1  0
  9  7  1  0
 10  9  1  1
 10 11  1  0
 11  4  1  0
 12 14  1  0
 12 10  1  0
 13 12  2  0
 15 14  1  0
 15 16  1  1
 16 17  1  0
 17 18  2  0
 18 19  1  0
 20 19  1  0
 21 20  2  0
 22 21  1  0
 23 24  1  0
 23 22  2  0
 24 25  2  0
 25 17  1  0
 25 20  1  0
 26 15  1  0
 27 26  1  0
 28 26  2  0
M  END
$$$$
