ALW.pdb
     RDKit          3D

 28 29  0  0  1  0  0  0  0  0999 V2000
    8.8151  -18.7852   18.6248 C   0  0  0  0  0  0  0  0  0  0  0  0
    8.9685  -18.7734   20.1451 C   0  0  2  0  0  0  0  0  0  0  0  0
    7.6597  -18.9869   20.7187 N   0  0  0  0  0  0  0  0  0  0  0  0
    9.5086  -17.4728   20.6106 C   0  0  0  0  0  0  0  0  0  0  0  0
   10.6954  -17.1682   20.2975 O   0  0  0  0  0  0  0  0  0  0  0  0
    7.0419  -12.4813   20.2780 C   0  0  0  0  0  0  0  0  0  0  0  0
    8.1991  -13.4637   20.2597 C   0  0  2  0  0  0  0  0  0  0  0  0
    8.4306  -14.1655   18.9901 C   0  0  0  0  0  0  0  0  0  0  0  0
    8.2015  -14.2141   21.5233 C   0  0  0  0  0  0  0  0  0  0  0  0
    9.2220  -15.2572   21.7709 C   0  0  2  0  0  0  0  0  0  0  0  0
    8.7144  -16.5866   21.3894 N   0  0  0  0  0  0  0  0  0  0  0  0
    9.7454  -15.3097   23.1637 C   0  0  0  0  0  0  0  0  0  0  0  0
   10.3690  -14.3496   23.6835 O   0  0  0  0  0  0  0  0  0  0  0  0
    9.5718  -16.4465   23.9928 N   0  0  0  0  0  0  0  0  0  0  0  0
   10.0649  -16.5074   25.3654 C   0  0  1  0  0  0  0  0  0  0  0  0
    8.9690  -16.7430   26.3297 C   0  0  0  0  0  0  0  0  0  0  0  0
    7.8373  -15.8266   26.1368 C   0  0  0  0  0  0  0  0  0  0  0  0
    6.5939  -16.1216   25.5538 C   0  0  0  0  0  0  0  0  0  0  0  0
    5.8168  -15.0458   25.5061 N   0  0  0  0  0  0  0  0  0  0  0  0
    6.4934  -14.0342   26.0381 C   0  0  0  0  0  0  0  0  0  0  0  0
    6.0766  -12.7159   26.2216 C   0  0  0  0  0  0  0  0  0  0  0  0
    6.9304  -11.8172   26.8224 C   0  0  0  0  0  0  0  0  0  0  0  0
    8.1668  -12.2630   27.2180 C   0  0  0  0  0  0  0  0  0  0  0  0
    8.5779  -13.5646   27.0357 C   0  0  0  0  0  0  0  0  0  0  0  0
    7.7385  -14.4701   26.4386 C   0  0  0  0  0  0  0  0  0  0  0  0
   11.1985  -17.3912   25.5094 C   0  0  0  0  0  0  0  0  0  0  0  0
   11.5735  -18.1390   24.3732 O   0  0  0  0  0  0  0  0  0  0  0  0
   11.8715  -17.5466   26.5562 O   0  0  0  0  0  0  0  0  0  0  0  0
  2  1  1  6
  2  3  1  0
  4  2  1  0
  5  4  2  0
  7  6  1  6
  7  8  1  0
  9  7  1  0
 10  9  1  1
 10 11  1  0
 11  4  1  0
 12 14  1  0
 12 10  1  0
 13 12  2  0
 15 14  1  0
 15 16  1  1
 16 17  1  0
 17 18  2  0
 18 19  1  0
 20 19  1  0
 21 20  2  0
 22 21  1  0
 23 24  1  0
 23 22  2  0
 24 25  2  0
 25 17  1  0
 25 20  1  0
 26 15  1  0
 27 26  1  0
 28 26  2  0
M  END
$$$$
