ALW.pdb
     RDKit          3D

 28 29  0  0  1  0  0  0  0  0999 V2000
    8.9247  -19.9194   21.3277 C   0  0  0  0  0  0  0  0  0  0  0  0
    8.6381  -18.8124   20.3140 C   0  0  2  0  0  0  0  0  0  0  0  0
    9.2385  -19.2019   19.0589 N   0  0  0  0  0  0  0  0  0  0  0  0
    9.2178  -17.5231   20.7630 C   0  0  0  0  0  0  0  0  0  0  0  0
   10.4615  -17.3420   20.6226 O   0  0  0  0  0  0  0  0  0  0  0  0
    8.9267  -13.4429   19.4227 C   0  0  0  0  0  0  0  0  0  0  0  0
    7.6459  -13.6658   20.2064 C   0  0  2  0  0  0  0  0  0  0  0  0
    6.5928  -12.6581   20.0231 C   0  0  0  0  0  0  0  0  0  0  0  0
    7.9934  -14.1255   21.5583 C   0  0  0  0  0  0  0  0  0  0  0  0
    8.9729  -15.2189   21.7470 C   0  0  2  0  0  0  0  0  0  0  0  0
    8.3985  -16.5122   21.3371 N   0  0  0  0  0  0  0  0  0  0  0  0
    9.5269  -15.3391   23.1238 C   0  0  0  0  0  0  0  0  0  0  0  0
   10.2745  -14.4617   23.6258 O   0  0  0  0  0  0  0  0  0  0  0  0
    9.2443  -16.4511   23.9566 N   0  0  0  0  0  0  0  0  0  0  0  0
    9.7872  -16.5880   25.3047 C   0  0  1  0  0  0  0  0  0  0  0  0
    8.7155  -16.7321   26.3132 C   0  0  0  0  0  0  0  0  0  0  0  0
    7.6619  -15.7186   26.1696 C   0  0  0  0  0  0  0  0  0  0  0  0
    6.3353  -15.9238   25.7562 C   0  0  0  0  0  0  0  0  0  0  0  0
    5.6646  -14.7788   25.7031 N   0  0  0  0  0  0  0  0  0  0  0  0
    6.4937  -13.8073   26.0677 C   0  0  0  0  0  0  0  0  0  0  0  0
    6.2300  -12.4425   26.1827 C   0  0  0  0  0  0  0  0  0  0  0  0
    7.2316  -11.5965   26.6053 C   0  0  0  0  0  0  0  0  0  0  0  0
    8.4579  -12.1391   26.8976 C   0  0  0  0  0  0  0  0  0  0  0  0
    8.7178  -13.4867   26.7830 C   0  0  0  0  0  0  0  0  0  0  0  0
    7.7303  -14.3407   26.3630 C   0  0  0  0  0  0  0  0  0  0  0  0
   10.8313  -17.5833   25.3843 C   0  0  0  0  0  0  0  0  0  0  0  0
   11.5485  -17.6604   26.5970 O   0  0  0  0  0  0  0  0  0  0  0  0
   11.1498  -18.3786   24.4685 O   0  0  0  0  0  0  0  0  0  0  0  0
  2  1  1  1
  2  3  1  0
  4  2  1  0
  5  4  2  0
  7  6  1  1
  7  8  1  0
  9  7  1  0
 10  9  1  1
 10 11  1  0
 11  4  1  0
 12 14  1  0
 12 10  1  0
 13 12  2  0
 15 14  1  0
 15 16  1  1
 16 17  1  0
 17 18  2  0
 18 19  1  0
 20 19  1  0
 21 20  2  0
 22 21  1  0
 23 24  1  0
 23 22  2  0
 24 25  2  0
 25 17  1  0
 25 20  1  0
 26 15  1  0
 27 26  1  0
 28 26  2  0
M  END
$$$$
