ALW.pdb
     RDKit          3D

 28 29  0  0  1  0  0  0  0  0999 V2000
   11.6795  -17.4131   17.9788 C   0  0  0  0  0  0  0  0  0  0  0  0
   11.0042  -18.0091   19.2133 C   0  0  2  0  0  0  0  0  0  0  0  0
    9.7776  -18.6382   18.7803 N   0  0  0  0  0  0  0  0  0  0  0  0
   10.6964  -16.9527   20.2078 C   0  0  0  0  0  0  0  0  0  0  0  0
   11.6601  -16.3507   20.7629 O   0  0  0  0  0  0  0  0  0  0  0  0
    6.1486  -13.2181   20.6353 C   0  0  0  0  0  0  0  0  0  0  0  0
    7.5942  -13.5238   20.9835 C   0  0  2  0  0  0  0  0  0  0  0  0
    8.6120  -12.8313   20.1818 C   0  0  0  0  0  0  0  0  0  0  0  0
    7.7225  -14.9642   21.2455 C   0  0  0  0  0  0  0  0  0  0  0  0
    9.0513  -15.5603   21.5088 C   0  0  2  0  0  0  0  0  0  0  0  0
    9.3518  -16.6210   20.5315 N   0  0  0  0  0  0  0  0  0  0  0  0
    9.2432  -16.0903   22.8869 C   0  0  0  0  0  0  0  0  0  0  0  0
    8.8373  -17.2295   23.2308 O   0  0  0  0  0  0  0  0  0  0  0  0
    9.8981  -15.3434   23.8983 N   0  0  0  0  0  0  0  0  0  0  0  0
   10.0595  -15.8328   25.2641 C   0  0  1  0  0  0  0  0  0  0  0  0
    8.7940  -16.3752   25.8032 C   0  0  0  0  0  0  0  0  0  0  0  0
    7.7202  -15.3738   25.8451 C   0  0  0  0  0  0  0  0  0  0  0  0
    6.3621  -15.5701   25.5448 C   0  0  0  0  0  0  0  0  0  0  0  0
    5.6767  -14.4375   25.6507 N   0  0  0  0  0  0  0  0  0  0  0  0
    6.5263  -13.4831   26.0134 C   0  0  0  0  0  0  0  0  0  0  0  0
    6.2597  -12.1374   26.2652 C   0  0  0  0  0  0  0  0  0  0  0  0
    7.2879  -11.3094   26.6585 C   0  0  0  0  0  0  0  0  0  0  0  0
    8.5428  -11.8504   26.7865 C   0  0  0  0  0  0  0  0  0  0  0  0
    8.8054  -13.1791   26.5368 C   0  0  0  0  0  0  0  0  0  0  0  0
    7.7915  -14.0150   26.1441 C   0  0  0  0  0  0  0  0  0  0  0  0
   11.2026  -16.7040   25.4103 C   0  0  0  0  0  0  0  0  0  0  0  0
   11.9841  -16.9306   24.2576 O   0  0  0  0  0  0  0  0  0  0  0  0
   11.5538  -17.2715   26.4720 O   0  0  0  0  0  0  0  0  0  0  0  0
  2  1  1  6
  2  3  1  0
  4  2  1  0
  5  4  2  0
  7  6  1  6
  7  8  1  0
  9  7  1  0
 10  9  1  1
 10 11  1  0
 11  4  1  0
 12 14  1  0
 12 10  1  0
 13 12  2  0
 15 14  1  0
 15 16  1  6
 16 17  1  0
 17 18  2  0
 18 19  1  0
 20 19  1  0
 21 20  2  0
 22 21  1  0
 23 24  1  0
 23 22  2  0
 24 25  2  0
 25 17  1  0
 25 20  1  0
 26 15  1  0
 27 26  1  0
 28 26  2  0
M  END
$$$$
