ALW.pdb
     RDKit          3D

 28 29  0  0  1  0  0  0  0  0999 V2000
    6.3635  -19.1115   22.6554 C   0  0  0  0  0  0  0  0  0  0  0  0
    6.4948  -18.2656   21.3896 C   0  0  2  0  0  0  0  0  0  0  0  0
    6.5268  -19.1678   20.2615 N   0  0  0  0  0  0  0  0  0  0  0  0
    7.7414  -17.4625   21.4188 C   0  0  0  0  0  0  0  0  0  0  0  0
    8.8095  -17.9952   21.0011 O   0  0  0  0  0  0  0  0  0  0  0  0
    8.1774  -14.1444   19.0846 C   0  0  0  0  0  0  0  0  0  0  0  0
    7.6136  -13.5794   20.3758 C   0  0  2  0  0  0  0  0  0  0  0  0
    6.9911  -12.2520   20.2825 C   0  0  0  0  0  0  0  0  0  0  0  0
    8.5501  -13.8747   21.4692 C   0  0  0  0  0  0  0  0  0  0  0  0
    8.9337  -15.2728   21.7673 C   0  0  2  0  0  0  0  0  0  0  0  0
    7.7397  -16.1252   21.9031 N   0  0  0  0  0  0  0  0  0  0  0  0
    9.8031  -15.4472   22.9633 C   0  0  0  0  0  0  0  0  0  0  0  0
   10.9652  -14.9712   23.0239 O   0  0  0  0  0  0  0  0  0  0  0  0
    9.3738  -16.1603   24.1109 N   0  0  0  0  0  0  0  0  0  0  0  0
   10.2102  -16.3309   25.2951 C   0  0  1  0  0  0  0  0  0  0  0  0
    9.7162  -15.5267   26.4333 C   0  0  0  0  0  0  0  0  0  0  0  0
    8.3327  -15.0698   26.2466 C   0  0  0  0  0  0  0  0  0  0  0  0
    7.2178  -15.8521   25.9029 C   0  0  0  0  0  0  0  0  0  0  0  0
    6.1255  -15.1068   25.7806 N   0  0  0  0  0  0  0  0  0  0  0  0
    6.4652  -13.8474   26.0311 C   0  0  0  0  0  0  0  0  0  0  0  0
    5.6484  -12.7168   26.0423 C   0  0  0  0  0  0  0  0  0  0  0  0
    6.1975  -11.4926   26.3544 C   0  0  0  0  0  0  0  0  0  0  0  0
    7.5381  -11.4383   26.6434 C   0  0  0  0  0  0  0  0  0  0  0  0
    8.3441  -12.5550   26.6313 C   0  0  0  0  0  0  0  0  0  0  0  0
    7.8112  -13.7802   26.3220 C   0  0  0  0  0  0  0  0  0  0  0  0
   10.4640  -17.7200   25.6002 C   0  0  0  0  0  0  0  0  0  0  0  0
    9.7012  -18.6774   24.8986 O   0  0  0  0  0  0  0  0  0  0  0  0
   11.3019  -18.1407   26.4331 O   0  0  0  0  0  0  0  0  0  0  0  0
  2  1  1  1
  2  3  1  0
  4  2  1  0
  5  4  2  0
  7  6  1  6
  7  8  1  0
  9  7  1  0
 10  9  1  1
 10 11  1  0
 11  4  1  0
 12 14  1  0
 12 10  1  0
 13 12  2  0
 15 14  1  0
 15 16  1  1
 16 17  1  0
 17 18  2  0
 18 19  1  0
 20 19  1  0
 21 20  2  0
 22 21  1  0
 23 24  1  0
 23 22  2  0
 24 25  2  0
 25 17  1  0
 25 20  1  0
 26 15  1  0
 27 26  1  0
 28 26  2  0
M  END
$$$$
