ALW.pdb
     RDKit          3D

 28 29  0  0  1  0  0  0  0  0999 V2000
    7.7327  -20.2450   22.8114 C   0  0  0  0  0  0  0  0  0  0  0  0
    7.2532  -19.7007   21.4664 C   0  0  2  0  0  0  0  0  0  0  0  0
    7.5505  -20.6948   20.4608 N   0  0  0  0  0  0  0  0  0  0  0  0
    7.9475  -18.4333   21.1325 C   0  0  0  0  0  0  0  0  0  0  0  0
    9.0581  -18.4968   20.5311 O   0  0  0  0  0  0  0  0  0  0  0  0
    9.1005  -13.6437   20.0968 C   0  0  0  0  0  0  0  0  0  0  0  0
    7.5883  -13.6008   20.2223 C   0  0  2  0  0  0  0  0  0  0  0  0
    7.0080  -12.3052   20.6003 C   0  0  0  0  0  0  0  0  0  0  0  0
    7.1345  -14.8296   20.8884 C   0  0  0  0  0  0  0  0  0  0  0  0
    8.0923  -15.9204   21.1771 C   0  0  2  0  0  0  0  0  0  0  0  0
    7.3811  -17.1752   21.4776 N   0  0  0  0  0  0  0  0  0  0  0  0
    9.0669  -15.6328   22.2653 C   0  0  0  0  0  0  0  0  0  0  0  0
    9.9712  -14.7675   22.1455 O   0  0  0  0  0  0  0  0  0  0  0  0
    9.0351  -16.3162   23.5070 N   0  0  0  0  0  0  0  0  0  0  0  0
    9.9690  -16.0300   24.5917 C   0  0  1  0  0  0  0  0  0  0  0  0
    9.2910  -16.0103   25.9056 C   0  0  0  0  0  0  0  0  0  0  0  0
    8.0445  -15.2331   25.8886 C   0  0  0  0  0  0  0  0  0  0  0  0
    6.7489  -15.7094   25.6289 C   0  0  0  0  0  0  0  0  0  0  0  0
    5.8586  -14.7244   25.6587 N   0  0  0  0  0  0  0  0  0  0  0  0
    6.5095  -13.5990   25.9308 C   0  0  0  0  0  0  0  0  0  0  0  0
    5.9895  -12.3137   26.0821 C   0  0  0  0  0  0  0  0  0  0  0  0
    6.8402  -11.2753   26.3914 C   0  0  0  0  0  0  0  0  0  0  0  0
    8.1760  -11.5538   26.5385 C   0  0  0  0  0  0  0  0  0  0  0  0
    8.6888  -12.8231   26.3882 C   0  0  0  0  0  0  0  0  0  0  0  0
    7.8538  -13.8664   26.0799 C   0  0  0  0  0  0  0  0  0  0  0  0
   11.1552  -16.8527   24.5348 C   0  0  0  0  0  0  0  0  0  0  0  0
   11.1921  -17.8516   23.5389 O   0  0  0  0  0  0  0  0  0  0  0  0
   12.1478  -16.7517   25.2944 O   0  0  0  0  0  0  0  0  0  0  0  0
  2  1  1  1
  2  3  1  0
  4  2  1  0
  5  4  2  0
  7  6  1  1
  7  8  1  0
  9  7  1  0
 10  9  1  1
 10 11  1  0
 11  4  1  0
 12 14  1  0
 12 10  1  0
 13 12  2  0
 15 14  1  0
 15 16  1  1
 16 17  1  0
 17 18  2  0
 18 19  1  0
 20 19  1  0
 21 20  2  0
 22 21  1  0
 23 24  1  0
 23 22  2  0
 24 25  2  0
 25 17  1  0
 25 20  1  0
 26 15  1  0
 27 26  1  0
 28 26  2  0
M  END
$$$$
