ALW.pdb
     RDKit          3D

 28 29  0  0  1  0  0  0  0  0999 V2000
    8.7998  -19.9880   21.2484 C   0  0  0  0  0  0  0  0  0  0  0  0
    8.6826  -18.8875   20.1947 C   0  0  2  0  0  0  0  0  0  0  0  0
    9.4538  -19.2991   19.0442 N   0  0  0  0  0  0  0  0  0  0  0  0
    9.2114  -17.6024   20.7132 C   0  0  0  0  0  0  0  0  0  0  0  0
   10.4516  -17.3774   20.6102 O   0  0  0  0  0  0  0  0  0  0  0  0
    8.7567  -13.5041   19.4144 C   0  0  0  0  0  0  0  0  0  0  0  0
    7.4733  -13.8155   20.1629 C   0  0  2  0  0  0  0  0  0  0  0  0
    6.3679  -12.8670   19.9721 C   0  0  0  0  0  0  0  0  0  0  0  0
    7.8155  -14.2802   21.5144 C   0  0  0  0  0  0  0  0  0  0  0  0
    8.8536  -15.3174   21.7074 C   0  0  2  0  0  0  0  0  0  0  0  0
    8.3481  -16.6434   21.3115 N   0  0  0  0  0  0  0  0  0  0  0  0
    9.4196  -15.3954   23.0823 C   0  0  0  0  0  0  0  0  0  0  0  0
   10.1583  -14.4952   23.5565 O   0  0  0  0  0  0  0  0  0  0  0  0
    9.1594  -16.4902   23.9446 N   0  0  0  0  0  0  0  0  0  0  0  0
    9.7763  -16.6246   25.2607 C   0  0  1  0  0  0  0  0  0  0  0  0
    8.7620  -16.7434   26.3300 C   0  0  0  0  0  0  0  0  0  0  0  0
    7.6850  -15.7526   26.2023 C   0  0  0  0  0  0  0  0  0  0  0  0
    6.3708  -15.9772   25.7603 C   0  0  0  0  0  0  0  0  0  0  0  0
    5.6718  -14.8484   25.7338 N   0  0  0  0  0  0  0  0  0  0  0  0
    6.4697  -13.8689   26.1441 C   0  0  0  0  0  0  0  0  0  0  0  0
    6.1692  -12.5158   26.2996 C   0  0  0  0  0  0  0  0  0  0  0  0
    7.1419  -11.6594   26.7665 C   0  0  0  0  0  0  0  0  0  0  0  0
    8.3770  -12.1804   27.0611 C   0  0  0  0  0  0  0  0  0  0  0  0
    8.6732  -13.5164   26.9065 C   0  0  0  0  0  0  0  0  0  0  0  0
    7.7148  -14.3806   26.4422 C   0  0  0  0  0  0  0  0  0  0  0  0
   10.8079  -17.6356   25.2898 C   0  0  0  0  0  0  0  0  0  0  0  0
   11.5695  -17.7367   26.4733 O   0  0  0  0  0  0  0  0  0  0  0  0
   11.0795  -18.4251   24.3541 O   0  0  0  0  0  0  0  0  0  0  0  0
  2  1  1  1
  2  3  1  0
  4  2  1  0
  5  4  2  0
  7  6  1  1
  7  8  1  0
  9  7  1  0
 10  9  1  1
 10 11  1  0
 11  4  1  0
 12 14  1  0
 12 10  1  0
 13 12  2  0
 15 14  1  0
 15 16  1  1
 16 17  1  0
 17 18  2  0
 18 19  1  0
 20 19  1  0
 21 20  2  0
 22 21  1  0
 23 24  1  0
 23 22  2  0
 24 25  2  0
 25 17  1  0
 25 20  1  0
 26 15  1  0
 27 26  1  0
 28 26  2  0
M  END
$$$$
