ALW.pdb
     RDKit          3D

 28 29  0  0  1  0  0  0  0  0999 V2000
    7.0499  -19.7104   21.9173 C   0  0  0  0  0  0  0  0  0  0  0  0
    7.1799  -18.7755   20.7156 C   0  0  2  0  0  0  0  0  0  0  0  0
    7.5184  -19.5837   19.5667 N   0  0  0  0  0  0  0  0  0  0  0  0
    8.2434  -17.7673   20.9444 C   0  0  0  0  0  0  0  0  0  0  0  0
    9.4364  -18.0774   20.6619 O   0  0  0  0  0  0  0  0  0  0  0  0
    7.5238  -12.1124   20.2425 C   0  0  0  0  0  0  0  0  0  0  0  0
    8.2046  -13.4589   20.0753 C   0  0  2  0  0  0  0  0  0  0  0  0
    7.7726  -14.2626   18.9239 C   0  0  0  0  0  0  0  0  0  0  0  0
    8.3417  -14.0862   21.3972 C   0  0  0  0  0  0  0  0  0  0  0  0
    8.9585  -15.4252   21.5285 C   0  0  2  0  0  0  0  0  0  0  0  0
    7.9334  -16.4816   21.4676 N   0  0  0  0  0  0  0  0  0  0  0  0
    9.7943  -15.6183   22.7454 C   0  0  0  0  0  0  0  0  0  0  0  0
   10.9570  -15.1497   22.8427 O   0  0  0  0  0  0  0  0  0  0  0  0
    9.3304  -16.3420   23.8727 N   0  0  0  0  0  0  0  0  0  0  0  0
   10.1323  -16.5281   25.0781 C   0  0  1  0  0  0  0  0  0  0  0  0
    9.7952  -15.5321   26.1177 C   0  0  0  0  0  0  0  0  0  0  0  0
    8.4058  -15.0642   26.0252 C   0  0  0  0  0  0  0  0  0  0  0  0
    7.2520  -15.8506   25.8734 C   0  0  0  0  0  0  0  0  0  0  0  0
    6.1626  -15.0961   25.7873 N   0  0  0  0  0  0  0  0  0  0  0  0
    6.5419  -13.8263   25.8768 C   0  0  0  0  0  0  0  0  0  0  0  0
    5.7451  -12.6817   25.8573 C   0  0  0  0  0  0  0  0  0  0  0  0
    6.3386  -11.4458   25.9904 C   0  0  0  0  0  0  0  0  0  0  0  0
    7.7021  -11.3941   26.1377 C   0  0  0  0  0  0  0  0  0  0  0  0
    8.4884  -12.5247   26.1561 C   0  0  0  0  0  0  0  0  0  0  0  0
    7.9112  -13.7618   26.0242 C   0  0  0  0  0  0  0  0  0  0  0  0
   10.1406  -17.8992   25.5334 C   0  0  0  0  0  0  0  0  0  0  0  0
   11.0494  -18.2247   26.5625 O   0  0  0  0  0  0  0  0  0  0  0  0
    9.4103  -18.8173   25.0903 O   0  0  0  0  0  0  0  0  0  0  0  0
  2  1  1  1
  2  3  1  0
  4  2  1  0
  5  4  2  0
  7  6  1  1
  7  8  1  0
  9  7  1  0
 10  9  1  1
 10 11  1  0
 11  4  1  0
 12 14  1  0
 12 10  1  0
 13 12  2  0
 15 14  1  0
 15 16  1  1
 16 17  1  0
 17 18  2  0
 18 19  1  0
 20 19  1  0
 21 20  2  0
 22 21  1  0
 23 24  1  0
 23 22  2  0
 24 25  2  0
 25 17  1  0
 25 20  1  0
 26 15  1  0
 27 26  1  0
 28 26  2  0
M  END
$$$$
