ALW.pdb
     RDKit          3D

 28 29  0  0  1  0  0  0  0  0999 V2000
    8.0777  -19.0082   18.8326 C   0  0  0  0  0  0  0  0  0  0  0  0
    8.3478  -18.8938   20.3323 C   0  0  2  0  0  0  0  0  0  0  0  0
    7.0748  -18.9604   21.0126 N   0  0  0  0  0  0  0  0  0  0  0  0
    9.0150  -17.6082   20.6515 C   0  0  0  0  0  0  0  0  0  0  0  0
   10.1916  -17.4203   20.2279 O   0  0  0  0  0  0  0  0  0  0  0  0
    6.8750  -12.5271   20.2077 C   0  0  0  0  0  0  0  0  0  0  0  0
    7.8748  -13.6672   20.1366 C   0  0  2  0  0  0  0  0  0  0  0  0
    7.7184  -14.5940   19.0075 C   0  0  0  0  0  0  0  0  0  0  0  0
    8.0891  -14.1927   21.4922 C   0  0  0  0  0  0  0  0  0  0  0  0
    9.0128  -15.3271   21.7164 C   0  0  2  0  0  0  0  0  0  0  0  0
    8.3510  -16.6082   21.4143 N   0  0  0  0  0  0  0  0  0  0  0  0
    9.6146  -15.3914   23.0768 C   0  0  0  0  0  0  0  0  0  0  0  0
   10.4096  -14.5148   23.5014 O   0  0  0  0  0  0  0  0  0  0  0  0
    9.3272  -16.4454   23.9802 N   0  0  0  0  0  0  0  0  0  0  0  0
    9.9208  -16.5307   25.3110 C   0  0  1  0  0  0  0  0  0  0  0  0
    8.8893  -16.6650   26.3618 C   0  0  0  0  0  0  0  0  0  0  0  0
    7.7825  -15.7136   26.1946 C   0  0  0  0  0  0  0  0  0  0  0  0
    6.5094  -15.9753   25.6621 C   0  0  0  0  0  0  0  0  0  0  0  0
    5.7675  -14.8745   25.6244 N   0  0  0  0  0  0  0  0  0  0  0  0
    6.4966  -13.8783   26.1146 C   0  0  0  0  0  0  0  0  0  0  0  0
    6.1311  -12.5439   26.2909 C   0  0  0  0  0  0  0  0  0  0  0  0
    7.0360  -11.6656   26.8451 C   0  0  0  0  0  0  0  0  0  0  0  0
    8.2705  -12.1469   27.2032 C   0  0  0  0  0  0  0  0  0  0  0  0
    8.6309  -13.4645   27.0280 C   0  0  0  0  0  0  0  0  0  0  0  0
    7.7403  -14.3501   26.4770 C   0  0  0  0  0  0  0  0  0  0  0  0
   10.9875  -17.5025   25.3820 C   0  0  0  0  0  0  0  0  0  0  0  0
   11.1913  -18.3110   24.2438 O   0  0  0  0  0  0  0  0  0  0  0  0
   11.7415  -17.6844   26.3673 O   0  0  0  0  0  0  0  0  0  0  0  0
  2  1  1  6
  2  3  1  0
  4  2  1  0
  5  4  2  0
  7  6  1  1
  7  8  1  0
  9  7  1  0
 10  9  1  1
 10 11  1  0
 11  4  1  0
 12 14  1  0
 12 10  1  0
 13 12  2  0
 15 14  1  0
 15 16  1  1
 16 17  1  0
 17 18  2  0
 18 19  1  0
 20 19  1  0
 21 20  2  0
 22 21  1  0
 23 24  1  0
 23 22  2  0
 24 25  2  0
 25 17  1  0
 25 20  1  0
 26 15  1  0
 27 26  1  0
 28 26  2  0
M  END
$$$$
