QRW.pdb
     RDKit          3D

 35 36  0  0  1  0  0  0  0  0999 V2000
    6.0951  -22.0709   25.6206 N   0  0  0  0  0  0  0  0  0  0  0  0
    5.1707  -22.0572   24.5541 C   0  0  0  0  0  0  0  0  0  0  0  0
    4.0080  -22.4964   24.7608 O   0  0  0  0  0  0  0  0  0  0  0  0
    5.5050  -21.5523   23.1994 C   0  0  0  0  0  0  0  0  0  0  0  0
    6.9208  -21.0472   23.1179 C   0  0  0  0  0  0  0  0  0  0  0  0
    6.9617  -19.5987   23.4247 C   0  0  2  0  0  0  0  0  0  0  0  0
    5.9940  -18.8696   22.6466 N   0  0  0  0  0  0  0  0  0  0  0  0
    8.2985  -18.9851   23.2060 C   0  0  0  0  0  0  0  0  0  0  0  0
    9.3616  -19.6897   23.2620 O   0  0  0  0  0  0  0  0  0  0  0  0
    7.0153  -14.0535   17.9805 N   0  0  0  0  0  0  0  0  0  0  0  0
    7.8257  -13.4089   18.9492 C   0  0  0  0  0  0  0  0  0  0  0  0
    7.6434  -12.1736   19.2495 N   0  0  0  0  0  0  0  0  0  0  0  0
    8.8771  -14.0921   19.6516 N   0  0  0  0  0  0  0  0  0  0  0  0
    9.0081  -15.4902   19.4697 C   0  0  0  0  0  0  0  0  0  0  0  0
    8.9133  -16.3665   20.6611 C   0  0  0  0  0  0  0  0  0  0  0  0
    9.8567  -15.9623   21.7692 C   0  0  0  0  0  0  0  0  0  0  0  0
    9.7541  -16.9487   22.9207 C   0  0  2  0  0  0  0  0  0  0  0  0
    8.4726  -17.6038   22.9290 N   0  0  0  0  0  0  0  0  0  0  0  0
    9.9706  -16.1683   24.2162 C   0  0  0  0  0  0  0  0  0  0  0  0
   10.1388  -14.9577   24.1404 O   0  0  0  0  0  0  0  0  0  0  0  0
    8.2652  -11.6885   19.9355 N   0  0  0  0  0  0  0  0  0  0  0  0
    9.9563  -16.8808   25.4291 C   0  0  1  0  0  0  0  0  0  0  0  0
   10.5477  -16.5576   26.6938 C   0  0  0  0  0  0  0  0  0  0  0  0
   10.0628  -15.1595   27.1025 C   0  0  0  0  0  0  0  0  0  0  0  0
    8.6666  -14.9713   26.7476 C   0  0  0  0  0  0  0  0  0  0  0  0
    7.6427  -15.8165   26.5634 N   0  0  0  0  0  0  0  0  0  0  0  0
    6.5140  -15.2159   26.1891 C   0  0  0  0  0  0  0  0  0  0  0  0
    6.8022  -13.9076   26.1206 C   0  0  0  0  0  0  0  0  0  0  0  0
    6.0251  -12.8145   25.8032 C   0  0  0  0  0  0  0  0  0  0  0  0
    6.5227  -11.5378   25.8148 C   0  0  0  0  0  0  0  0  0  0  0  0
    7.8395  -11.3493   26.1551 C   0  0  0  0  0  0  0  0  0  0  0  0
    8.6304  -12.4252   26.4727 C   0  0  0  0  0  0  0  0  0  0  0  0
    8.1308  -13.6914   26.4584 C   0  0  0  0  0  0  0  0  0  0  0  0
   10.3438  -17.4988   27.7579 O   0  0  0  0  0  0  0  0  0  0  0  0
   10.9466  -17.3615   29.0406 O   0  0  0  0  0  0  0  0  0  0  0  0
  2  3  2  0
  2  1  1  0
  4  2  1  0
  5  6  1  0
  5  4  1  0
  6  8  1  0
  6  7  1  6
  8  9  2  0
 10 11  1  0
 11 13  1  0
 11 12  2  0
 13 14  1  0
 14 15  1  0
 16 15  1  0
 17 16  1  6
 17 19  1  0
 18 17  1  0
 18  8  1  0
 19 20  2  0
 19 21  1  0
 21 22  1  0
 22 33  1  0
 22 23  1  1
 24 23  1  0
 24 25  2  0
 26 25  1  0
 27 26  1  0
 28 27  2  0
 29 28  1  0
 30 29  2  0
 30 31  1  0
 31 32  2  0
 32 27  1  0
 32 24  1  0
 33 35  2  0
 33 34  1  0
M  END
$$$$
