QRW.pdb
     RDKit          3D

 35 36  0  0  1  0  0  0  0  0999 V2000
    6.9167  -12.7740   17.0546 N   0  0  0  0  0  0  0  0  0  0  0  0
    7.4851  -14.0650   17.0031 C   0  0  0  0  0  0  0  0  0  0  0  0
    7.2517  -14.7847   15.9956 O   0  0  0  0  0  0  0  0  0  0  0  0
    8.3427  -14.6156   18.0816 C   0  0  0  0  0  0  0  0  0  0  0  0
    8.4199  -13.6932   19.2688 C   0  0  0  0  0  0  0  0  0  0  0  0
    9.6756  -13.9326   20.0171 C   0  0  2  0  0  0  0  0  0  0  0  0
   10.7241  -14.4000   19.1478 N   0  0  0  0  0  0  0  0  0  0  0  0
    9.5234  -14.9035   21.1331 C   0  0  0  0  0  0  0  0  0  0  0  0
    8.4999  -14.8725   21.8955 O   0  0  0  0  0  0  0  0  0  0  0  0
   13.2697  -18.4558   18.4160 N   0  0  0  0  0  0  0  0  0  0  0  0
   12.5523  -19.6543   18.1721 C   0  0  0  0  0  0  0  0  0  0  0  0
   12.5287  -20.1862   17.0033 N   0  0  0  0  0  0  0  0  0  0  0  0
   11.8284  -20.3426   19.2054 N   0  0  0  0  0  0  0  0  0  0  0  0
   11.8788  -19.8222   20.5213 C   0  0  0  0  0  0  0  0  0  0  0  0
   10.9115  -18.7641   20.8968 C   0  0  0  0  0  0  0  0  0  0  0  0
   11.2548  -18.0847   22.2013 C   0  0  0  0  0  0  0  0  0  0  0  0
   10.3203  -16.9089   22.4332 C   0  0  2  0  0  0  0  0  0  0  0  0
   10.4891  -15.9046   21.4162 N   0  0  0  0  0  0  0  0  0  0  0  0
   10.6339  -16.3371   23.8149 C   0  0  0  0  0  0  0  0  0  0  0  0
   11.4425  -15.4206   23.8911 O   0  0  0  0  0  0  0  0  0  0  0  0
   11.9772  -21.0545   16.8175 N   0  0  0  0  0  0  0  0  0  0  0  0
    9.9699  -16.8879   24.9261 C   0  0  1  0  0  0  0  0  0  0  0  0
   10.0932  -16.5767   26.3195 C   0  0  0  0  0  0  0  0  0  0  0  0
    9.6902  -15.1084   26.5167 C   0  0  0  0  0  0  0  0  0  0  0  0
    8.2787  -14.9161   26.2316 C   0  0  0  0  0  0  0  0  0  0  0  0
    7.3100  -15.7313   25.7916 N   0  0  0  0  0  0  0  0  0  0  0  0
    6.1377  -15.1233   25.6163 C   0  0  0  0  0  0  0  0  0  0  0  0
    6.3373  -13.8410   25.9559 C   0  0  0  0  0  0  0  0  0  0  0  0
    5.4842  -12.7592   25.9882 C   0  0  0  0  0  0  0  0  0  0  0  0
    5.8961  -11.5172   26.3950 C   0  0  0  0  0  0  0  0  0  0  0  0
    7.2032  -11.3532   26.7822 C   0  0  0  0  0  0  0  0  0  0  0  0
    8.0691  -12.4178   26.7555 C   0  0  0  0  0  0  0  0  0  0  0  0
    7.6543  -13.6491   26.3493 C   0  0  0  0  0  0  0  0  0  0  0  0
    9.3842  -17.4267   27.2330 O   0  0  0  0  0  0  0  0  0  0  0  0
    8.5335  -18.4856   26.8055 O   0  0  0  0  0  0  0  0  0  0  0  0
  2  3  2  0
  2  1  1  0
  4  2  1  0
  5  6  1  0
  5  4  1  0
  6  8  1  0
  6  7  1  6
  8  9  2  0
 10 11  1  0
 11 13  1  0
 11 12  2  0
 13 14  1  0
 14 15  1  0
 16 15  1  0
 17 16  1  6
 17 19  1  0
 18 17  1  0
 18  8  1  0
 19 20  2  0
 19 21  1  0
 21 22  1  0
 22 33  1  0
 22 23  1  6
 24 23  1  0
 24 25  2  0
 26 25  1  0
 27 26  1  0
 28 27  2  0
 29 28  1  0
 30 29  2  0
 30 31  1  0
 31 32  2  0
 32 27  1  0
 32 24  1  0
 33 35  2  0
 33 34  1  0
M  END
$$$$
