QRW.pdb
     RDKit          3D

 35 36  0  0  1  0  0  0  0  0999 V2000
    8.1104  -12.2804   16.1752 N   0  0  0  0  0  0  0  0  0  0  0  0
    8.1182  -13.5730   15.6083 C   0  0  0  0  0  0  0  0  0  0  0  0
    7.9276  -13.6865   14.3680 O   0  0  0  0  0  0  0  0  0  0  0  0
    8.3373  -14.8053   16.4053 C   0  0  0  0  0  0  0  0  0  0  0  0
    8.4609  -14.5123   17.8768 C   0  0  0  0  0  0  0  0  0  0  0  0
    9.1300  -15.6404   18.5649 C   0  0  2  0  0  0  0  0  0  0  0  0
    8.9236  -16.8806   17.8629 N   0  0  0  0  0  0  0  0  0  0  0  0
    8.6891  -15.8195   19.9738 C   0  0  0  0  0  0  0  0  0  0  0  0
    8.8047  -14.8736   20.8233 O   0  0  0  0  0  0  0  0  0  0  0  0
    8.2694  -21.2154   23.4013 N   0  0  0  0  0  0  0  0  0  0  0  0
    7.4529  -21.3874   24.5478 C   0  0  0  0  0  0  0  0  0  0  0  0
    7.8359  -22.1214   25.5297 N   0  0  0  0  0  0  0  0  0  0  0  0
    6.1714  -20.7511   24.6834 N   0  0  0  0  0  0  0  0  0  0  0  0
    5.7072  -19.9423   23.6178 C   0  0  0  0  0  0  0  0  0  0  0  0
    6.3890  -18.6508   23.3663 C   0  0  0  0  0  0  0  0  0  0  0  0
    6.9474  -18.5392   21.9673 C   0  0  0  0  0  0  0  0  0  0  0  0
    7.6968  -17.2262   21.8132 C   0  0  2  0  0  0  0  0  0  0  0  0
    8.1252  -17.0308   20.4532 N   0  0  0  0  0  0  0  0  0  0  0  0
    8.8973  -17.2677   22.7573 C   0  0  0  0  0  0  0  0  0  0  0  0
    9.8416  -17.9886   22.4602 O   0  0  0  0  0  0  0  0  0  0  0  0
    7.2447  -22.2282   26.3851 N   0  0  0  0  0  0  0  0  0  0  0  0
    8.8584  -16.4681   23.9141 C   0  0  2  0  0  0  0  0  0  0  0  0
    9.8378  -16.2925   24.9454 C   0  0  0  0  0  0  0  0  0  0  0  0
    9.6645  -14.8841   25.5314 C   0  0  0  0  0  0  0  0  0  0  0  0
    8.2651  -14.6055   25.8048 C   0  0  0  0  0  0  0  0  0  0  0  0
    7.1751  -15.3797   25.9008 N   0  0  0  0  0  0  0  0  0  0  0  0
    6.0523  -14.6976   26.1220 C   0  0  0  0  0  0  0  0  0  0  0  0
    6.4139  -13.4069   26.1751 C   0  0  0  0  0  0  0  0  0  0  0  0
    5.6822  -12.2597   26.3934 C   0  0  0  0  0  0  0  0  0  0  0  0
    6.2637  -11.0193   26.4289 C   0  0  0  0  0  0  0  0  0  0  0  0
    7.6205  -10.9246   26.2406 C   0  0  0  0  0  0  0  0  0  0  0  0
    8.3666  -12.0554   26.0200 C   0  0  0  0  0  0  0  0  0  0  0  0
    7.7831  -13.2848   25.9846 C   0  0  0  0  0  0  0  0  0  0  0  0
    9.8577  -17.2790   25.9875 O   0  0  0  0  0  0  0  0  0  0  0  0
   10.9194  -17.3900   26.9299 O   0  0  0  0  0  0  0  0  0  0  0  0
  2  3  2  0
  2  1  1  0
  4  2  1  0
  5  6  1  0
  5  4  1  0
  6  8  1  0
  6  7  1  6
  8  9  2  0
 10 11  1  0
 11 13  1  0
 11 12  2  0
 13 14  1  0
 14 15  1  0
 16 15  1  0
 17 16  1  6
 17 19  1  0
 18 17  1  0
 18  8  1  0
 19 20  2  0
 19 21  1  0
 21 22  1  0
 22 33  1  0
 22 23  1  6
 24 23  1  0
 24 25  2  0
 26 25  1  0
 27 26  1  0
 28 27  2  0
 29 28  1  0
 30 29  2  0
 30 31  1  0
 31 32  2  0
 32 27  1  0
 32 24  1  0
 33 35  2  0
 33 34  1  0
M  END
$$$$
