QRW.pdb
     RDKit          3D

 35 36  0  0  1  0  0  0  0  0999 V2000
    7.1259  -12.0864   18.9290 N   0  0  0  0  0  0  0  0  0  0  0  0
    7.3698  -12.9281   17.8225 C   0  0  0  0  0  0  0  0  0  0  0  0
    7.2748  -12.4412   16.6644 O   0  0  0  0  0  0  0  0  0  0  0  0
    7.7302  -14.3610   17.9594 C   0  0  0  0  0  0  0  0  0  0  0  0
    7.8060  -14.7897   19.4005 C   0  0  0  0  0  0  0  0  0  0  0  0
    9.1185  -15.4190   19.6748 C   0  0  2  0  0  0  0  0  0  0  0  0
    9.5454  -16.2443   18.5748 N   0  0  0  0  0  0  0  0  0  0  0  0
    9.1325  -16.2428   20.9128 C   0  0  0  0  0  0  0  0  0  0  0  0
    8.1082  -16.3043   21.6722 O   0  0  0  0  0  0  0  0  0  0  0  0
   15.1310  -19.5721   23.3155 N   0  0  0  0  0  0  0  0  0  0  0  0
   14.5194  -20.4487   22.3837 C   0  0  0  0  0  0  0  0  0  0  0  0
   15.1402  -20.8286   21.3255 N   0  0  0  0  0  0  0  0  0  0  0  0
   13.1919  -20.9668   22.5702 N   0  0  0  0  0  0  0  0  0  0  0  0
   12.5071  -20.6440   23.7669 C   0  0  0  0  0  0  0  0  0  0  0  0
   11.3810  -19.6833   23.6956 C   0  0  0  0  0  0  0  0  0  0  0  0
   11.4690  -18.7560   22.5067 C   0  0  0  0  0  0  0  0  0  0  0  0
   10.3100  -17.7733   22.5309 C   0  0  2  0  0  0  0  0  0  0  0  0
   10.2646  -16.9958   21.3205 N   0  0  0  0  0  0  0  0  0  0  0  0
   10.4987  -16.8687   23.7476 C   0  0  0  0  0  0  0  0  0  0  0  0
   11.3904  -16.0301   23.7115 O   0  0  0  0  0  0  0  0  0  0  0  0
   14.7091  -21.5146   20.6650 N   0  0  0  0  0  0  0  0  0  0  0  0
    9.6317  -17.0408   24.8420 C   0  0  1  0  0  0  0  0  0  0  0  0
    9.6298  -16.4015   26.1245 C   0  0  0  0  0  0  0  0  0  0  0  0
    8.1723  -16.2713   26.5892 C   0  0  0  0  0  0  0  0  0  0  0  0
    7.4436  -15.3337   25.7521 C   0  0  0  0  0  0  0  0  0  0  0  0
    6.6895  -15.4760   24.6532 N   0  0  0  0  0  0  0  0  0  0  0  0
    6.2364  -14.3234   24.1624 C   0  0  0  0  0  0  0  0  0  0  0  0
    6.7131  -13.3683   24.9749 C   0  0  0  0  0  0  0  0  0  0  0  0
    6.5576  -11.9990   24.9677 C   0  0  0  0  0  0  0  0  0  0  0  0
    7.1250  -11.1955   25.9218 C   0  0  0  0  0  0  0  0  0  0  0  0
    7.8710  -11.7812   26.9145 C   0  0  0  0  0  0  0  0  0  0  0  0
    8.0391  -13.1432   26.9382 C   0  0  0  0  0  0  0  0  0  0  0  0
    7.4741  -13.9363   25.9870 C   0  0  0  0  0  0  0  0  0  0  0  0
   10.4378  -17.0058   27.1450 O   0  0  0  0  0  0  0  0  0  0  0  0
   10.6696  -16.3980   28.4117 O   0  0  0  0  0  0  0  0  0  0  0  0
  2  3  2  0
  2  1  1  0
  4  2  1  0
  5  6  1  0
  5  4  1  0
  6  8  1  0
  6  7  1  6
  8  9  2  0
 10 11  1  0
 11 13  1  0
 11 12  2  0
 13 14  1  0
 14 15  1  0
 16 15  1  0
 17 16  1  6
 17 19  1  0
 18 17  1  0
 18  8  1  0
 19 20  2  0
 19 21  1  0
 21 22  1  0
 22 33  1  0
 22 23  1  1
 24 23  1  0
 24 25  2  0
 26 25  1  0
 27 26  1  0
 28 27  2  0
 29 28  1  0
 30 29  2  0
 30 31  1  0
 31 32  2  0
 32 27  1  0
 32 24  1  0
 33 35  2  0
 33 34  1  0
M  END
$$$$
