QRW.pdb
     RDKit          3D

 35 36  0  0  1  0  0  0  0  0999 V2000
    6.4561  -12.3469   17.8443 N   0  0  0  0  0  0  0  0  0  0  0  0
    7.2419  -13.3804   17.2904 C   0  0  0  0  0  0  0  0  0  0  0  0
    7.1501  -13.6088   16.0547 O   0  0  0  0  0  0  0  0  0  0  0  0
    8.1692  -14.2128   18.0960 C   0  0  0  0  0  0  0  0  0  0  0  0
    8.0492  -13.9280   19.5694 C   0  0  0  0  0  0  0  0  0  0  0  0
    9.3259  -14.2401   20.2526 C   0  0  2  0  0  0  0  0  0  0  0  0
   10.3641  -14.5568   19.3064 N   0  0  0  0  0  0  0  0  0  0  0  0
    9.2185  -15.3606   21.2243 C   0  0  0  0  0  0  0  0  0  0  0  0
    8.3028  -15.3730   22.1137 O   0  0  0  0  0  0  0  0  0  0  0  0
    7.5389  -19.9981   18.7564 N   0  0  0  0  0  0  0  0  0  0  0  0
    8.5401  -20.1954   17.7720 C   0  0  0  0  0  0  0  0  0  0  0  0
    8.2395  -20.2607   16.5250 N   0  0  0  0  0  0  0  0  0  0  0  0
    9.9328  -20.3208   18.1041 N   0  0  0  0  0  0  0  0  0  0  0  0
   10.3169  -20.1651   19.4582 C   0  0  0  0  0  0  0  0  0  0  0  0
    9.9223  -18.9225   20.1627 C   0  0  0  0  0  0  0  0  0  0  0  0
   10.4415  -18.8556   21.5795 C   0  0  0  0  0  0  0  0  0  0  0  0
   10.0726  -17.5194   22.2025 C   0  0  2  0  0  0  0  0  0  0  0  0
   10.1118  -16.4638   21.2250 N   0  0  0  0  0  0  0  0  0  0  0  0
   11.0658  -17.2479   23.3313 C   0  0  0  0  0  0  0  0  0  0  0  0
   12.1658  -16.7972   23.0372 O   0  0  0  0  0  0  0  0  0  0  0  0
    8.9749  -20.4299   15.8017 N   0  0  0  0  0  0  0  0  0  0  0  0
   10.6607  -17.5217   24.6503 C   0  0  2  0  0  0  0  0  0  0  0  0
   10.2257  -16.6293   25.6838 C   0  0  0  0  0  0  0  0  0  0  0  0
    9.0879  -15.7665   25.1198 C   0  0  0  0  0  0  0  0  0  0  0  0
    8.5446  -14.8917   26.1446 C   0  0  0  0  0  0  0  0  0  0  0  0
    8.5526  -14.9291   27.4844 N   0  0  0  0  0  0  0  0  0  0  0  0
    7.8786  -13.9296   28.0515 C   0  0  0  0  0  0  0  0  0  0  0  0
    7.3988  -13.1922   27.0389 C   0  0  0  0  0  0  0  0  0  0  0  0
    6.6473  -12.0371   27.0236 C   0  0  0  0  0  0  0  0  0  0  0  0
    6.2751  -11.4244   25.8557 C   0  0  0  0  0  0  0  0  0  0  0  0
    6.6680  -11.9855   24.6658 C   0  0  0  0  0  0  0  0  0  0  0  0
    7.4154  -13.1367   24.6597 C   0  0  0  0  0  0  0  0  0  0  0  0
    7.7811  -13.7416   25.8231 C   0  0  0  0  0  0  0  0  0  0  0  0
    9.8412  -17.2281   26.9301 O   0  0  0  0  0  0  0  0  0  0  0  0
   10.3571  -16.8016   28.1870 O   0  0  0  0  0  0  0  0  0  0  0  0
  2  3  2  0
  2  1  1  0
  4  2  1  0
  5  6  1  0
  5  4  1  0
  6  8  1  0
  6  7  1  6
  8  9  2  0
 10 11  1  0
 11 13  1  0
 11 12  2  0
 13 14  1  0
 14 15  1  0
 16 15  1  0
 17 16  1  6
 17 19  1  0
 18 17  1  0
 18  8  1  0
 19 20  2  0
 19 21  1  0
 21 22  1  0
 22 33  1  0
 22 23  1  6
 24 23  1  0
 24 25  2  0
 26 25  1  0
 27 26  1  0
 28 27  2  0
 29 28  1  0
 30 29  2  0
 30 31  1  0
 31 32  2  0
 32 27  1  0
 32 24  1  0
 33 35  2  0
 33 34  1  0
M  END
$$$$
