QRW.pdb
     RDKit          3D

 35 36  0  0  1  0  0  0  0  0999 V2000
    6.9530  -16.2693   17.8550 N   0  0  0  0  0  0  0  0  0  0  0  0
    7.6564  -15.1410   17.3812 C   0  0  0  0  0  0  0  0  0  0  0  0
    8.5899  -15.3184   16.5538 O   0  0  0  0  0  0  0  0  0  0  0  0
    7.3498  -13.7553   17.8144 C   0  0  0  0  0  0  0  0  0  0  0  0
    6.8613  -13.7030   19.2374 C   0  0  0  0  0  0  0  0  0  0  0  0
    8.0123  -13.6385   20.1675 C   0  0  2  0  0  0  0  0  0  0  0  0
    9.2533  -13.4710   19.4565 N   0  0  0  0  0  0  0  0  0  0  0  0
    8.1316  -14.8330   21.0451 C   0  0  0  0  0  0  0  0  0  0  0  0
    7.0988  -15.3639   21.5754 O   0  0  0  0  0  0  0  0  0  0  0  0
    9.7724  -18.9953   16.2809 N   0  0  0  0  0  0  0  0  0  0  0  0
   10.7717  -19.3205   17.2328 C   0  0  0  0  0  0  0  0  0  0  0  0
   11.9698  -19.6025   16.8656 N   0  0  0  0  0  0  0  0  0  0  0  0
   10.5113  -19.3428   18.6460 N   0  0  0  0  0  0  0  0  0  0  0  0
    9.8570  -18.2288   19.2259 C   0  0  0  0  0  0  0  0  0  0  0  0
   10.6454  -17.3245   20.0959 C   0  0  0  0  0  0  0  0  0  0  0  0
   10.4679  -17.6159   21.5672 C   0  0  0  0  0  0  0  0  0  0  0  0
    9.5136  -16.6059   22.1826 C   0  0  2  0  0  0  0  0  0  0  0  0
    9.3774  -15.4442   21.3440 N   0  0  0  0  0  0  0  0  0  0  0  0
   10.0705  -16.2214   23.5523 C   0  0  0  0  0  0  0  0  0  0  0  0
   11.1130  -15.5802   23.5931 O   0  0  0  0  0  0  0  0  0  0  0  0
   12.7031  -19.8536   17.5668 N   0  0  0  0  0  0  0  0  0  0  0  0
    9.3511  -16.6167   24.6948 C   0  0  1  0  0  0  0  0  0  0  0  0
    9.6491  -16.4231   26.0831 C   0  0  0  0  0  0  0  0  0  0  0  0
    8.3216  -16.2539   26.8356 C   0  0  0  0  0  0  0  0  0  0  0  0
    7.4649  -15.2914   26.1645 C   0  0  0  0  0  0  0  0  0  0  0  0
    6.4775  -15.4089   25.2658 N   0  0  0  0  0  0  0  0  0  0  0  0
    5.9762  -14.2411   24.8660 C   0  0  0  0  0  0  0  0  0  0  0  0
    6.6647  -13.3016   25.5313 C   0  0  0  0  0  0  0  0  0  0  0  0
    6.5715  -11.9266   25.5315 C   0  0  0  0  0  0  0  0  0  0  0  0
    7.3735  -11.1412   26.3176 C   0  0  0  0  0  0  0  0  0  0  0  0
    8.2974  -11.7516   27.1293 C   0  0  0  0  0  0  0  0  0  0  0  0
    8.4070  -13.1197   27.1423 C   0  0  0  0  0  0  0  0  0  0  0  0
    7.6084  -13.8947   26.3583 C   0  0  0  0  0  0  0  0  0  0  0  0
   10.4665  -17.4222   26.7103 O   0  0  0  0  0  0  0  0  0  0  0  0
   10.9519  -17.3018   28.0435 O   0  0  0  0  0  0  0  0  0  0  0  0
  2  3  2  0
  2  1  1  0
  4  2  1  0
  5  6  1  0
  5  4  1  0
  6  8  1  0
  6  7  1  6
  8  9  2  0
 10 11  1  0
 11 13  1  0
 11 12  2  0
 13 14  1  0
 14 15  1  0
 16 15  1  0
 17 16  1  6
 17 19  1  0
 18 17  1  0
 18  8  1  0
 19 20  2  0
 19 21  1  0
 21 22  1  0
 22 33  1  0
 22 23  1  1
 24 23  1  0
 24 25  2  0
 26 25  1  0
 27 26  1  0
 28 27  2  0
 29 28  1  0
 30 29  2  0
 30 31  1  0
 31 32  2  0
 32 27  1  0
 32 24  1  0
 33 35  2  0
 33 34  1  0
M  END
$$$$
