QRW.pdb
     RDKit          3D

 35 36  0  0  1  0  0  0  0  0999 V2000
   15.6530  -12.9224   17.9634 N   0  0  0  0  0  0  0  0  0  0  0  0
   15.1079  -14.0436   17.3015 C   0  0  0  0  0  0  0  0  0  0  0  0
   15.0686  -14.0376   16.0421 O   0  0  0  0  0  0  0  0  0  0  0  0
   14.5761  -15.2282   18.0195 C   0  0  0  0  0  0  0  0  0  0  0  0
   13.6496  -14.8405   19.1409 C   0  0  0  0  0  0  0  0  0  0  0  0
   13.1853  -16.0509   19.8575 C   0  0  2  0  0  0  0  0  0  0  0  0
   12.6063  -17.0082   18.9510 N   0  0  0  0  0  0  0  0  0  0  0  0
   12.1957  -15.7610   20.9290 C   0  0  0  0  0  0  0  0  0  0  0  0
   12.3828  -14.8055   21.7547 O   0  0  0  0  0  0  0  0  0  0  0  0
    8.1599  -18.8207   19.0937 N   0  0  0  0  0  0  0  0  0  0  0  0
    7.5468  -17.9621   18.1464 C   0  0  0  0  0  0  0  0  0  0  0  0
    7.5372  -18.2546   16.8958 N   0  0  0  0  0  0  0  0  0  0  0  0
    6.8986  -16.7362   18.5241 N   0  0  0  0  0  0  0  0  0  0  0  0
    6.8546  -16.3955   19.8978 C   0  0  0  0  0  0  0  0  0  0  0  0
    8.0767  -15.8377   20.5236 C   0  0  0  0  0  0  0  0  0  0  0  0
    8.6302  -16.7128   21.6232 C   0  0  0  0  0  0  0  0  0  0  0  0
    9.9881  -16.1918   22.0640 C   0  0  2  0  0  0  0  0  0  0  0  0
   11.0054  -16.5156   21.0987 N   0  0  0  0  0  0  0  0  0  0  0  0
   10.3067  -16.8244   23.4177 C   0  0  0  0  0  0  0  0  0  0  0  0
   10.7877  -17.9505   23.4305 O   0  0  0  0  0  0  0  0  0  0  0  0
    7.0543  -17.6394   16.2024 N   0  0  0  0  0  0  0  0  0  0  0  0
   10.0389  -16.0758   24.5782 C   0  0  2  0  0  0  0  0  0  0  0  0
   10.1484  -16.4460   25.9583 C   0  0  0  0  0  0  0  0  0  0  0  0
    9.8635  -15.2002   26.8092 C   0  0  0  0  0  0  0  0  0  0  0  0
    8.4898  -14.7594   26.6381 C   0  0  0  0  0  0  0  0  0  0  0  0
    7.3414  -15.4041   26.3886 N   0  0  0  0  0  0  0  0  0  0  0  0
    6.2916  -14.5948   26.2555 C   0  0  0  0  0  0  0  0  0  0  0  0
    6.7657  -13.3513   26.4243 C   0  0  0  0  0  0  0  0  0  0  0  0
    6.1399  -12.1236   26.4116 C   0  0  0  0  0  0  0  0  0  0  0  0
    6.8213  -10.9552   26.6315 C   0  0  0  0  0  0  0  0  0  0  0  0
    8.1716  -11.0179   26.8722 C   0  0  0  0  0  0  0  0  0  0  0  0
    8.8137  -12.2310   26.8872 C   0  0  0  0  0  0  0  0  0  0  0  0
    8.1317  -13.3883   26.6669 C   0  0  0  0  0  0  0  0  0  0  0  0
    9.3458  -17.5538   26.3922 O   0  0  0  0  0  0  0  0  0  0  0  0
    9.5903  -18.2609   27.6037 O   0  0  0  0  0  0  0  0  0  0  0  0
  2  3  2  0
  2  1  1  0
  4  2  1  0
  5  6  1  0
  5  4  1  0
  6  8  1  0
  6  7  1  6
  8  9  2  0
 10 11  1  0
 11 13  1  0
 11 12  2  0
 13 14  1  0
 14 15  1  0
 16 15  1  0
 17 16  1  6
 17 19  1  0
 18 17  1  0
 18  8  1  0
 19 20  2  0
 19 21  1  0
 21 22  1  0
 22 33  1  0
 22 23  1  6
 24 23  1  0
 24 25  2  0
 26 25  1  0
 27 26  1  0
 28 27  2  0
 29 28  1  0
 30 29  2  0
 30 31  1  0
 31 32  2  0
 32 27  1  0
 32 24  1  0
 33 35  2  0
 33 34  1  0
M  END
$$$$
