QRW.pdb
     RDKit          3D

 35 36  0  0  1  0  0  0  0  0999 V2000
    7.3205  -12.0641   17.9305 N   0  0  0  0  0  0  0  0  0  0  0  0
    7.6441  -13.0751   17.0002 C   0  0  0  0  0  0  0  0  0  0  0  0
    7.2481  -12.9467   15.8110 O   0  0  0  0  0  0  0  0  0  0  0  0
    8.4265  -14.2841   17.3580 C   0  0  0  0  0  0  0  0  0  0  0  0
    8.8836  -14.2577   18.7920 C   0  0  0  0  0  0  0  0  0  0  0  0
    9.7395  -15.4333   19.0740 C   0  0  2  0  0  0  0  0  0  0  0  0
    9.6569  -16.4085   18.0177 N   0  0  0  0  0  0  0  0  0  0  0  0
    9.4158  -16.1059   20.3602 C   0  0  0  0  0  0  0  0  0  0  0  0
    8.2248  -16.1060   20.8197 O   0  0  0  0  0  0  0  0  0  0  0  0
   12.1521  -21.7708   19.3359 N   0  0  0  0  0  0  0  0  0  0  0  0
   12.6811  -20.6017   18.7328 C   0  0  0  0  0  0  0  0  0  0  0  0
   12.7250  -20.4770   17.4553 N   0  0  0  0  0  0  0  0  0  0  0  0
   13.1820  -19.4967   19.5034 N   0  0  0  0  0  0  0  0  0  0  0  0
   12.5990  -19.2410   20.7682 C   0  0  0  0  0  0  0  0  0  0  0  0
   11.1207  -19.2169   20.8693 C   0  0  0  0  0  0  0  0  0  0  0  0
   10.6281  -18.9279   22.2676 C   0  0  0  0  0  0  0  0  0  0  0  0
   10.0856  -17.5103   22.3417 C   0  0  2  0  0  0  0  0  0  0  0  0
   10.3928  -16.7748   21.1433 N   0  0  0  0  0  0  0  0  0  0  0  0
   10.7133  -16.8403   23.5629 C   0  0  0  0  0  0  0  0  0  0  0  0
   11.7943  -16.2820   23.4240 O   0  0  0  0  0  0  0  0  0  0  0  0
   13.1403  -19.6269   17.0110 N   0  0  0  0  0  0  0  0  0  0  0  0
   10.0115  -16.8924   24.7810 C   0  0  1  0  0  0  0  0  0  0  0  0
   10.4370  -16.5437   26.1043 C   0  0  0  0  0  0  0  0  0  0  0  0
   10.0295  -15.0868   26.3667 C   0  0  0  0  0  0  0  0  0  0  0  0
    8.5878  -14.9291   26.2821 C   0  0  0  0  0  0  0  0  0  0  0  0
    7.5789  -15.7885   26.0819 N   0  0  0  0  0  0  0  0  0  0  0  0
    6.3825  -15.2052   26.0257 C   0  0  0  0  0  0  0  0  0  0  0  0
    6.6075  -13.8938   26.1964 C   0  0  0  0  0  0  0  0  0  0  0  0
    5.7492  -12.8168   26.2465 C   0  0  0  0  0  0  0  0  0  0  0  0
    6.1950  -11.5378   26.4550 C   0  0  0  0  0  0  0  0  0  0  0  0
    7.5424  -11.3307   26.6189 C   0  0  0  0  0  0  0  0  0  0  0  0
    8.4138  -12.3901   26.5706 C   0  0  0  0  0  0  0  0  0  0  0  0
    7.9651  -13.6583   26.3620 C   0  0  0  0  0  0  0  0  0  0  0  0
    9.9909  -17.3970   27.1685 O   0  0  0  0  0  0  0  0  0  0  0  0
   10.5312  -17.3417   28.4848 O   0  0  0  0  0  0  0  0  0  0  0  0
  2  3  2  0
  2  1  1  0
  4  2  1  0
  5  6  1  0
  5  4  1  0
  6  8  1  0
  6  7  1  6
  8  9  2  0
 10 11  1  0
 11 13  1  0
 11 12  2  0
 13 14  1  0
 14 15  1  0
 16 15  1  0
 17 16  1  6
 17 19  1  0
 18 17  1  0
 18  8  1  0
 19 20  2  0
 19 21  1  0
 21 22  1  0
 22 33  1  0
 22 23  1  1
 24 23  1  0
 24 25  2  0
 26 25  1  0
 27 26  1  0
 28 27  2  0
 29 28  1  0
 30 29  2  0
 30 31  1  0
 31 32  2  0
 32 27  1  0
 32 24  1  0
 33 35  2  0
 33 34  1  0
M  END
$$$$
