QRW.pdb
     RDKit          3D

 35 36  0  0  1  0  0  0  0  0999 V2000
    7.7208  -15.6428   16.4955 N   0  0  0  0  0  0  0  0  0  0  0  0
    7.6155  -14.2431   16.3469 C   0  0  0  0  0  0  0  0  0  0  0  0
    7.6299  -13.7594   15.1835 O   0  0  0  0  0  0  0  0  0  0  0  0
    7.4916  -13.3139   17.4971 C   0  0  0  0  0  0  0  0  0  0  0  0
    7.2704  -14.0459   18.7938 C   0  0  0  0  0  0  0  0  0  0  0  0
    8.3494  -13.7163   19.7537 C   0  0  2  0  0  0  0  0  0  0  0  0
    9.5427  -13.2833   19.0739 N   0  0  0  0  0  0  0  0  0  0  0  0
    8.7053  -14.8448   20.6543 C   0  0  0  0  0  0  0  0  0  0  0  0
    7.8082  -15.4590   21.3234 O   0  0  0  0  0  0  0  0  0  0  0  0
   11.7649  -18.7063   16.3106 N   0  0  0  0  0  0  0  0  0  0  0  0
   11.9482  -19.7723   17.2274 C   0  0  0  0  0  0  0  0  0  0  0  0
   11.7847  -20.9936   16.8649 N   0  0  0  0  0  0  0  0  0  0  0  0
   12.3338  -19.5546   18.5947 N   0  0  0  0  0  0  0  0  0  0  0  0
   12.4990  -18.2212   19.0417 C   0  0  0  0  0  0  0  0  0  0  0  0
   11.3438  -17.5438   19.6762 C   0  0  0  0  0  0  0  0  0  0  0  0
   11.6040  -17.1498   21.1109 C   0  0  0  0  0  0  0  0  0  0  0  0
   10.4015  -16.4069   21.6690 C   0  0  2  0  0  0  0  0  0  0  0  0
   10.0393  -15.2991   20.8246 N   0  0  0  0  0  0  0  0  0  0  0  0
   10.7701  -15.9208   23.0698 C   0  0  0  0  0  0  0  0  0  0  0  0
   11.5522  -14.9836   23.1691 O   0  0  0  0  0  0  0  0  0  0  0  0
   11.9056  -21.7782   17.5448 N   0  0  0  0  0  0  0  0  0  0  0  0
   10.1844  -16.5699   24.1718 C   0  0  2  0  0  0  0  0  0  0  0  0
   10.3177  -16.3051   25.5738 C   0  0  0  0  0  0  0  0  0  0  0  0
    9.8915  -14.8520   25.8264 C   0  0  0  0  0  0  0  0  0  0  0  0
    8.4446  -14.7412   25.8952 C   0  0  0  0  0  0  0  0  0  0  0  0
    7.4435  -15.5914   25.6279 N   0  0  0  0  0  0  0  0  0  0  0  0
    6.2327  -15.0574   25.7815 C   0  0  0  0  0  0  0  0  0  0  0  0
    6.4393  -13.7901   26.1695 C   0  0  0  0  0  0  0  0  0  0  0  0
    5.5624  -12.7760   26.4887 C   0  0  0  0  0  0  0  0  0  0  0  0
    5.9932  -11.5382   26.8890 C   0  0  0  0  0  0  0  0  0  0  0  0
    7.3443  -11.3086   26.9727 C   0  0  0  0  0  0  0  0  0  0  0  0
    8.2339  -12.3051   26.6573 C   0  0  0  0  0  0  0  0  0  0  0  0
    7.8001  -13.5324   26.2591 C   0  0  0  0  0  0  0  0  0  0  0  0
    9.6337  -17.1987   26.4645 O   0  0  0  0  0  0  0  0  0  0  0  0
    8.7573  -18.2253   26.0109 O   0  0  0  0  0  0  0  0  0  0  0  0
  2  3  2  0
  2  1  1  0
  4  2  1  0
  5  6  1  0
  5  4  1  0
  6  8  1  0
  6  7  1  6
  8  9  2  0
 10 11  1  0
 11 13  1  0
 11 12  2  0
 13 14  1  0
 14 15  1  0
 16 15  1  0
 17 16  1  6
 17 19  1  0
 18 17  1  0
 18  8  1  0
 19 20  2  0
 19 21  1  0
 21 22  1  0
 22 33  1  0
 22 23  1  6
 24 23  1  0
 24 25  2  0
 26 25  1  0
 27 26  1  0
 28 27  2  0
 29 28  1  0
 30 29  2  0
 30 31  1  0
 31 32  2  0
 32 27  1  0
 32 24  1  0
 33 35  2  0
 33 34  1  0
M  END
$$$$
