QRW.pdb
     RDKit          3D

 35 36  0  0  1  0  0  0  0  0999 V2000
    7.9361  -12.2046   20.0705 N   0  0  0  0  0  0  0  0  0  0  0  0
    8.3769  -13.0688   19.0451 C   0  0  0  0  0  0  0  0  0  0  0  0
    8.7566  -12.5635   17.9551 O   0  0  0  0  0  0  0  0  0  0  0  0
    8.4112  -14.5452   19.1897 C   0  0  0  0  0  0  0  0  0  0  0  0
    7.1001  -15.0952   19.6843 C   0  0  0  0  0  0  0  0  0  0  0  0
    7.1939  -16.5648   19.8446 C   0  0  2  0  0  0  0  0  0  0  0  0
    5.9308  -17.1315   20.2408 N   0  0  0  0  0  0  0  0  0  0  0  0
    8.2272  -16.9881   20.8267 C   0  0  0  0  0  0  0  0  0  0  0  0
    7.9507  -17.0874   22.0691 O   0  0  0  0  0  0  0  0  0  0  0  0
   12.5707  -16.8412   16.3005 N   0  0  0  0  0  0  0  0  0  0  0  0
   12.6019  -18.2413   16.0781 C   0  0  0  0  0  0  0  0  0  0  0  0
   12.4827  -18.7270   14.8951 N   0  0  0  0  0  0  0  0  0  0  0  0
   12.7777  -19.1871   17.1458 N   0  0  0  0  0  0  0  0  0  0  0  0
   12.8737  -18.6948   18.4700 C   0  0  0  0  0  0  0  0  0  0  0  0
   11.6364  -18.6128   19.2814 C   0  0  0  0  0  0  0  0  0  0  0  0
   11.8718  -18.0527   20.6642 C   0  0  0  0  0  0  0  0  0  0  0  0
   10.5416  -17.8261   21.3634 C   0  0  2  0  0  0  0  0  0  0  0  0
    9.5602  -17.2998   20.4515 N   0  0  0  0  0  0  0  0  0  0  0  0
   10.7867  -16.8523   22.5148 C   0  0  0  0  0  0  0  0  0  0  0  0
   11.2135  -15.7362   22.2468 O   0  0  0  0  0  0  0  0  0  0  0  0
   12.4939  -19.7596   14.7331 N   0  0  0  0  0  0  0  0  0  0  0  0
   10.5004  -17.2864   23.8219 C   0  0  2  0  0  0  0  0  0  0  0  0
    9.9411  -16.5682   24.9287 C   0  0  0  0  0  0  0  0  0  0  0  0
    8.6626  -15.8690   24.4452 C   0  0  0  0  0  0  0  0  0  0  0  0
    8.0379  -15.1265   25.5264 C   0  0  0  0  0  0  0  0  0  0  0  0
    7.5374  -15.4829   26.7176 N   0  0  0  0  0  0  0  0  0  0  0  0
    7.0006  -14.4704   27.3969 C   0  0  0  0  0  0  0  0  0  0  0  0
    7.1513  -13.3882   26.6188 C   0  0  0  0  0  0  0  0  0  0  0  0
    6.8043  -12.0682   26.8094 C   0  0  0  0  0  0  0  0  0  0  0  0
    7.0743  -11.1010   25.8770 C   0  0  0  0  0  0  0  0  0  0  0  0
    7.7122  -11.4667   24.7174 C   0  0  0  0  0  0  0  0  0  0  0  0
    8.0645  -12.7766   24.5079 C   0  0  0  0  0  0  0  0  0  0  0  0
    7.7926  -13.7333   25.4373 C   0  0  0  0  0  0  0  0  0  0  0  0
    9.6883  -17.3231   26.1228 O   0  0  0  0  0  0  0  0  0  0  0  0
    9.9317  -16.8119   27.4294 O   0  0  0  0  0  0  0  0  0  0  0  0
  2  3  2  0
  2  1  1  0
  4  2  1  0
  5  6  1  0
  5  4  1  0
  6  8  1  0
  6  7  1  1
  8  9  2  0
 10 11  1  0
 11 13  1  0
 11 12  2  0
 13 14  1  0
 14 15  1  0
 16 15  1  0
 17 16  1  6
 17 19  1  0
 18 17  1  0
 18  8  1  0
 19 20  2  0
 19 21  1  0
 21 22  1  0
 22 33  1  0
 22 23  1  1
 24 23  1  0
 24 25  2  0
 26 25  1  0
 27 26  1  0
 28 27  2  0
 29 28  1  0
 30 29  2  0
 30 31  1  0
 31 32  2  0
 32 27  1  0
 32 24  1  0
 33 35  2  0
 33 34  1  0
M  END
$$$$
