QRW.pdb
     RDKit          3D

 35 36  0  0  1  0  0  0  0  0999 V2000
   14.8397  -20.7861   20.3455 N   0  0  0  0  0  0  0  0  0  0  0  0
   14.7726  -20.1964   19.0648 C   0  0  0  0  0  0  0  0  0  0  0  0
   15.4537  -20.7027   18.1335 O   0  0  0  0  0  0  0  0  0  0  0  0
   13.9395  -19.0058   18.7644 C   0  0  0  0  0  0  0  0  0  0  0  0
   13.1427  -18.5571   19.9603 C   0  0  0  0  0  0  0  0  0  0  0  0
   11.9845  -17.7440   19.5229 C   0  0  2  0  0  0  0  0  0  0  0  0
   12.2183  -17.1481   18.2331 N   0  0  0  0  0  0  0  0  0  0  0  0
   11.6240  -16.6647   20.4803 C   0  0  0  0  0  0  0  0  0  0  0  0
   12.2149  -15.5335   20.4474 O   0  0  0  0  0  0  0  0  0  0  0  0
    7.9422  -15.0537   17.9845 N   0  0  0  0  0  0  0  0  0  0  0  0
    7.7477  -13.8229   18.6611 C   0  0  0  0  0  0  0  0  0  0  0  0
    7.9055  -12.7016   18.0550 N   0  0  0  0  0  0  0  0  0  0  0  0
    7.3568  -13.7566   20.0425 N   0  0  0  0  0  0  0  0  0  0  0  0
    7.0777  -14.9682   20.7203 C   0  0  0  0  0  0  0  0  0  0  0  0
    8.2172  -15.7727   21.2208 C   0  0  0  0  0  0  0  0  0  0  0  0
    9.1460  -14.9889   22.1175 C   0  0  0  0  0  0  0  0  0  0  0  0
   10.3468  -15.8425   22.4902 C   0  0  2  0  0  0  0  0  0  0  0  0
   10.6214  -16.8227   21.4727 N   0  0  0  0  0  0  0  0  0  0  0  0
   10.0338  -16.5204   23.8232 C   0  0  0  0  0  0  0  0  0  0  0  0
    9.5123  -17.6281   23.7998 O   0  0  0  0  0  0  0  0  0  0  0  0
    7.8218  -11.7951   18.5687 N   0  0  0  0  0  0  0  0  0  0  0  0
   10.3698  -15.8397   25.0076 C   0  0  2  0  0  0  0  0  0  0  0  0
   10.3572  -16.2950   26.3663 C   0  0  0  0  0  0  0  0  0  0  0  0
    9.7596  -15.1800   27.2363 C   0  0  0  0  0  0  0  0  0  0  0  0
    8.3770  -14.9232   26.8713 C   0  0  0  0  0  0  0  0  0  0  0  0
    7.3416  -15.7202   26.5725 N   0  0  0  0  0  0  0  0  0  0  0  0
    6.2351  -15.0574   26.2393 C   0  0  0  0  0  0  0  0  0  0  0  0
    6.5508  -13.7562   26.3202 C   0  0  0  0  0  0  0  0  0  0  0  0
    5.8040  -12.6180   26.1054 C   0  0  0  0  0  0  0  0  0  0  0  0
    6.3264  -11.3615   26.2673 C   0  0  0  0  0  0  0  0  0  0  0  0
    7.6374  -11.2407   26.6568 C   0  0  0  0  0  0  0  0  0  0  0  0
    8.3984  -12.3621   26.8741 C   0  0  0  0  0  0  0  0  0  0  0  0
    7.8743  -13.6077   26.7105 C   0  0  0  0  0  0  0  0  0  0  0  0
    9.7002  -17.5457   26.6189 O   0  0  0  0  0  0  0  0  0  0  0  0
    8.9585  -18.2464   25.6257 O   0  0  0  0  0  0  0  0  0  0  0  0
  2  3  2  0
  2  1  1  0
  4  2  1  0
  5  6  1  0
  5  4  1  0
  6  8  1  0
  6  7  1  6
  8  9  2  0
 10 11  1  0
 11 13  1  0
 11 12  2  0
 13 14  1  0
 14 15  1  0
 16 15  1  0
 17 16  1  6
 17 19  1  0
 18 17  1  0
 18  8  1  0
 19 20  2  0
 19 21  1  0
 21 22  1  0
 22 33  1  0
 22 23  1  1
 24 23  1  0
 24 25  2  0
 26 25  1  0
 27 26  1  0
 28 27  2  0
 29 28  1  0
 30 29  2  0
 30 31  1  0
 31 32  2  0
 32 27  1  0
 32 24  1  0
 33 35  2  0
 33 34  1  0
M  END
$$$$
