QRW.pdb
     RDKit          3D

 35 36  0  0  1  0  0  0  0  0999 V2000
    7.5838  -13.1547   18.2487 N   0  0  0  0  0  0  0  0  0  0  0  0
    8.2215  -12.9424   19.4900 C   0  0  0  0  0  0  0  0  0  0  0  0
    9.3199  -12.3254   19.5036 O   0  0  0  0  0  0  0  0  0  0  0  0
    7.6601  -13.4149   20.7797 C   0  0  0  0  0  0  0  0  0  0  0  0
    6.6128  -14.4785   20.5846 C   0  0  0  0  0  0  0  0  0  0  0  0
    7.2587  -15.7943   20.3712 C   0  0  2  0  0  0  0  0  0  0  0  0
    6.2967  -16.7961   19.9915 N   0  0  0  0  0  0  0  0  0  0  0  0
    8.0052  -16.2866   21.5594 C   0  0  0  0  0  0  0  0  0  0  0  0
    7.4062  -16.5132   22.6637 O   0  0  0  0  0  0  0  0  0  0  0  0
   15.6753  -16.4961   21.7802 N   0  0  0  0  0  0  0  0  0  0  0  0
   15.6198  -16.5377   23.1964 C   0  0  0  0  0  0  0  0  0  0  0  0
   16.4273  -15.8408   23.9118 N   0  0  0  0  0  0  0  0  0  0  0  0
   14.6633  -17.3417   23.9066 N   0  0  0  0  0  0  0  0  0  0  0  0
   13.7640  -18.1362   23.1548 C   0  0  0  0  0  0  0  0  0  0  0  0
   12.3112  -17.9774   23.4000 C   0  0  0  0  0  0  0  0  0  0  0  0
   11.6241  -17.1300   22.3555 C   0  0  0  0  0  0  0  0  0  0  0  0
   10.1430  -17.0150   22.6758 C   0  0  2  0  0  0  0  0  0  0  0  0
    9.4039  -16.5284   21.5407 N   0  0  0  0  0  0  0  0  0  0  0  0
   10.0011  -16.0624   23.8618 C   0  0  0  0  0  0  0  0  0  0  0  0
   10.2324  -14.8738   23.6793 O   0  0  0  0  0  0  0  0  0  0  0  0
   16.4670  -15.9592   24.9496 N   0  0  0  0  0  0  0  0  0  0  0  0
    9.6031  -16.6000   25.0994 C   0  0  1  0  0  0  0  0  0  0  0  0
    9.9226  -16.1792   26.4314 C   0  0  0  0  0  0  0  0  0  0  0  0
    8.6058  -15.9515   27.1873 C   0  0  0  0  0  0  0  0  0  0  0  0
    7.6595  -15.2136   26.3683 C   0  0  0  0  0  0  0  0  0  0  0  0
    6.6928  -15.5867   25.5180 N   0  0  0  0  0  0  0  0  0  0  0  0
    6.0783  -14.5643   24.9249 C   0  0  0  0  0  0  0  0  0  0  0  0
    6.6657  -13.4576   25.4042 C   0  0  0  0  0  0  0  0  0  0  0  0
    6.4345  -12.1207   25.1625 C   0  0  0  0  0  0  0  0  0  0  0  0
    7.1498  -11.1323   25.7865 C   0  0  0  0  0  0  0  0  0  0  0  0
    8.1269  -11.4937   26.6808 C   0  0  0  0  0  0  0  0  0  0  0  0
    8.3737  -12.8200   26.9339 C   0  0  0  0  0  0  0  0  0  0  0  0
    7.6606  -13.7975   26.3101 C   0  0  0  0  0  0  0  0  0  0  0  0
   10.7998  -17.0320   27.1818 O   0  0  0  0  0  0  0  0  0  0  0  0
   11.3669  -16.6536   28.4319 O   0  0  0  0  0  0  0  0  0  0  0  0
  2  3  2  0
  2  1  1  0
  4  2  1  0
  5  6  1  0
  5  4  1  0
  6  8  1  0
  6  7  1  1
  8  9  2  0
 10 11  1  0
 11 13  1  0
 11 12  2  0
 13 14  1  0
 14 15  1  0
 16 15  1  0
 17 16  1  6
 17 19  1  0
 18 17  1  0
 18  8  1  0
 19 20  2  0
 19 21  1  0
 21 22  1  0
 22 33  1  0
 22 23  1  1
 24 23  1  0
 24 25  2  0
 26 25  1  0
 27 26  1  0
 28 27  2  0
 29 28  1  0
 30 29  2  0
 30 31  1  0
 31 32  2  0
 32 27  1  0
 32 24  1  0
 33 35  2  0
 33 34  1  0
M  END
$$$$
