QRW.pdb
     RDKit          3D

 35 36  0  0  1  0  0  0  0  0999 V2000
   10.0040  -13.1301   18.2222 N   0  0  0  0  0  0  0  0  0  0  0  0
    8.7291  -12.8207   17.7012 C   0  0  0  0  0  0  0  0  0  0  0  0
    8.6403  -12.4836   16.4905 O   0  0  0  0  0  0  0  0  0  0  0  0
    7.4885  -12.8709   18.5138 C   0  0  0  0  0  0  0  0  0  0  0  0
    7.7100  -13.5426   19.8427 C   0  0  0  0  0  0  0  0  0  0  0  0
    8.0507  -14.9698   19.6399 C   0  0  2  0  0  0  0  0  0  0  0  0
    7.2598  -15.5542   18.5880 N   0  0  0  0  0  0  0  0  0  0  0  0
    7.8873  -15.7970   20.8649 C   0  0  0  0  0  0  0  0  0  0  0  0
    7.0421  -15.4759   21.7661 O   0  0  0  0  0  0  0  0  0  0  0  0
    9.4334  -23.4609   24.4611 N   0  0  0  0  0  0  0  0  0  0  0  0
    8.0561  -23.1549   24.3199 C   0  0  0  0  0  0  0  0  0  0  0  0
    7.1818  -24.0851   24.1786 N   0  0  0  0  0  0  0  0  0  0  0  0
    7.5610  -21.8058   24.3377 N   0  0  0  0  0  0  0  0  0  0  0  0
    7.8514  -20.9693   23.2327 C   0  0  0  0  0  0  0  0  0  0  0  0
    8.9140  -19.9475   23.3841 C   0  0  0  0  0  0  0  0  0  0  0  0
    9.1324  -19.1311   22.1323 C   0  0  0  0  0  0  0  0  0  0  0  0
    8.5781  -17.7294   22.3262 C   0  0  2  0  0  0  0  0  0  0  0  0
    8.6480  -16.9712   21.1048 N   0  0  0  0  0  0  0  0  0  0  0  0
    9.3983  -17.0582   23.4267 C   0  0  0  0  0  0  0  0  0  0  0  0
   10.4943  -16.5985   23.1318 O   0  0  0  0  0  0  0  0  0  0  0  0
    6.1784  -23.8578   23.9938 N   0  0  0  0  0  0  0  0  0  0  0  0
    8.8468  -16.9956   24.7193 C   0  0  2  0  0  0  0  0  0  0  0  0
    9.4172  -16.5105   25.9412 C   0  0  0  0  0  0  0  0  0  0  0  0
    8.2676  -16.1463   26.8914 C   0  0  0  0  0  0  0  0  0  0  0  0
    7.3622  -15.1961   26.2685 C   0  0  0  0  0  0  0  0  0  0  0  0
    6.2326  -15.3311   25.5596 N   0  0  0  0  0  0  0  0  0  0  0  0
    5.7336  -14.1756   25.1231 C   0  0  0  0  0  0  0  0  0  0  0  0
    6.5729  -13.2262   25.5631 C   0  0  0  0  0  0  0  0  0  0  0  0
    6.5538  -11.8546   25.4306 C   0  0  0  0  0  0  0  0  0  0  0  0
    7.5171  -11.0545   25.9873 C   0  0  0  0  0  0  0  0  0  0  0  0
    8.5310  -11.6461   26.6995 C   0  0  0  0  0  0  0  0  0  0  0  0
    8.5688  -13.0108   26.8414 C   0  0  0  0  0  0  0  0  0  0  0  0
    7.6097  -13.8006   26.2851 C   0  0  0  0  0  0  0  0  0  0  0  0
   10.3646  -17.3688   26.5933 O   0  0  0  0  0  0  0  0  0  0  0  0
   11.1196  -16.9668   27.7317 O   0  0  0  0  0  0  0  0  0  0  0  0
  2  3  2  0
  2  1  1  0
  4  2  1  0
  5  6  1  0
  5  4  1  0
  6  8  1  0
  6  7  1  6
  8  9  2  0
 10 11  1  0
 11 13  1  0
 11 12  2  0
 13 14  1  0
 14 15  1  0
 16 15  1  0
 17 16  1  6
 17 19  1  0
 18 17  1  0
 18  8  1  0
 19 20  2  0
 19 21  1  0
 21 22  1  0
 22 33  1  0
 22 23  1  6
 24 23  1  0
 24 25  2  0
 26 25  1  0
 27 26  1  0
 28 27  2  0
 29 28  1  0
 30 29  2  0
 30 31  1  0
 31 32  2  0
 32 27  1  0
 32 24  1  0
 33 35  2  0
 33 34  1  0
M  END
$$$$
