QRW.pdb
     RDKit          3D

 35 36  0  0  1  0  0  0  0  0999 V2000
    9.2377  -12.4307   17.4665 N   0  0  0  0  0  0  0  0  0  0  0  0
    8.3390  -13.3211   16.8405 C   0  0  0  0  0  0  0  0  0  0  0  0
    8.3021  -13.3514   15.5814 O   0  0  0  0  0  0  0  0  0  0  0  0
    7.4330  -14.2212   17.5960 C   0  0  0  0  0  0  0  0  0  0  0  0
    7.4964  -13.9719   19.0792 C   0  0  0  0  0  0  0  0  0  0  0  0
    8.6455  -14.6980   19.6677 C   0  0  2  0  0  0  0  0  0  0  0  0
    9.1646  -15.6857   18.7573 N   0  0  0  0  0  0  0  0  0  0  0  0
    8.3248  -15.3691   20.9554 C   0  0  0  0  0  0  0  0  0  0  0  0
    7.5937  -14.7953   21.8306 O   0  0  0  0  0  0  0  0  0  0  0  0
    7.8924  -22.0030   23.5697 N   0  0  0  0  0  0  0  0  0  0  0  0
    6.5734  -21.9725   23.0503 C   0  0  0  0  0  0  0  0  0  0  0  0
    6.0376  -23.0226   22.5406 N   0  0  0  0  0  0  0  0  0  0  0  0
    5.7639  -20.7852   23.0729 N   0  0  0  0  0  0  0  0  0  0  0  0
    6.3904  -19.5404   22.8218 C   0  0  0  0  0  0  0  0  0  0  0  0
    7.5171  -19.5015   21.8599 C   0  0  0  0  0  0  0  0  0  0  0  0
    8.7475  -18.8254   22.4170 C   0  0  0  0  0  0  0  0  0  0  0  0
    8.5091  -17.3286   22.5281 C   0  0  2  0  0  0  0  0  0  0  0  0
    8.8043  -16.6635   21.2863 N   0  0  0  0  0  0  0  0  0  0  0  0
    9.4035  -16.8019   23.6492 C   0  0  0  0  0  0  0  0  0  0  0  0
   10.5259  -16.4091   23.3567 O   0  0  0  0  0  0  0  0  0  0  0  0
    5.0675  -22.9980   22.1522 N   0  0  0  0  0  0  0  0  0  0  0  0
    8.8868  -16.7875   24.9575 C   0  0  2  0  0  0  0  0  0  0  0  0
    9.4712  -16.3028   26.1729 C   0  0  0  0  0  0  0  0  0  0  0  0
    8.3351  -16.0072   27.1623 C   0  0  0  0  0  0  0  0  0  0  0  0
    7.3718  -15.0859   26.5845 C   0  0  0  0  0  0  0  0  0  0  0  0
    6.1951  -15.2547   25.9653 N   0  0  0  0  0  0  0  0  0  0  0  0
    5.6476  -14.1180   25.5377 C   0  0  0  0  0  0  0  0  0  0  0  0
    6.5027  -13.1462   25.8897 C   0  0  0  0  0  0  0  0  0  0  0  0
    6.4530  -11.7790   25.7239 C   0  0  0  0  0  0  0  0  0  0  0  0
    7.4425  -10.9516   26.1868 C   0  0  0  0  0  0  0  0  0  0  0  0
    8.5152  -11.5106   26.8364 C   0  0  0  0  0  0  0  0  0  0  0  0
    8.5841  -12.8704   27.0100 C   0  0  0  0  0  0  0  0  0  0  0  0
    7.5987  -13.6873   26.5470 C   0  0  0  0  0  0  0  0  0  0  0  0
   10.4725  -17.1326   26.7800 O   0  0  0  0  0  0  0  0  0  0  0  0
   11.2876  -16.6973   27.8634 O   0  0  0  0  0  0  0  0  0  0  0  0
  2  3  2  0
  2  1  1  0
  4  2  1  0
  5  6  1  0
  5  4  1  0
  6  8  1  0
  6  7  1  6
  8  9  2  0
 10 11  1  0
 11 13  1  0
 11 12  2  0
 13 14  1  0
 14 15  1  0
 16 15  1  0
 17 16  1  6
 17 19  1  0
 18 17  1  0
 18  8  1  0
 19 20  2  0
 19 21  1  0
 21 22  1  0
 22 33  1  0
 22 23  1  6
 24 23  1  0
 24 25  2  0
 26 25  1  0
 27 26  1  0
 28 27  2  0
 29 28  1  0
 30 29  2  0
 30 31  1  0
 31 32  2  0
 32 27  1  0
 32 24  1  0
 33 35  2  0
 33 34  1  0
M  END
$$$$
