QRW.pdb
     RDKit          3D

 35 36  0  0  1  0  0  0  0  0999 V2000
    4.7026  -20.1410   24.9197 N   0  0  0  0  0  0  0  0  0  0  0  0
    5.9268  -20.7331   24.5413 C   0  0  0  0  0  0  0  0  0  0  0  0
    6.4826  -21.5296   25.3439 O   0  0  0  0  0  0  0  0  0  0  0  0
    6.5916  -20.4590   23.2433 C   0  0  0  0  0  0  0  0  0  0  0  0
    5.7972  -19.5050   22.3917 C   0  0  0  0  0  0  0  0  0  0  0  0
    6.5730  -19.1344   21.1855 C   0  0  2  0  0  0  0  0  0  0  0  0
    7.2071  -20.2845   20.5951 N   0  0  0  0  0  0  0  0  0  0  0  0
    7.6147  -18.1054   21.4450 C   0  0  0  0  0  0  0  0  0  0  0  0
    8.7415  -18.4253   21.9527 O   0  0  0  0  0  0  0  0  0  0  0  0
    7.2782  -14.0527   15.7261 N   0  0  0  0  0  0  0  0  0  0  0  0
    8.4548  -13.9188   16.5061 C   0  0  0  0  0  0  0  0  0  0  0  0
    9.4297  -14.7456   16.3817 N   0  0  0  0  0  0  0  0  0  0  0  0
    8.6297  -12.8587   17.4606 N   0  0  0  0  0  0  0  0  0  0  0  0
    8.1489  -13.0551   18.7779 C   0  0  0  0  0  0  0  0  0  0  0  0
    8.5769  -14.2711   19.5089 C   0  0  0  0  0  0  0  0  0  0  0  0
    7.9831  -14.3682   20.8943 C   0  0  0  0  0  0  0  0  0  0  0  0
    8.3573  -15.6993   21.5248 C   0  0  2  0  0  0  0  0  0  0  0  0
    7.4239  -16.7296   21.1523 N   0  0  0  0  0  0  0  0  0  0  0  0
    8.3700  -15.5037   23.0400 C   0  0  0  0  0  0  0  0  0  0  0  0
    7.4216  -14.9258   23.5560 O   0  0  0  0  0  0  0  0  0  0  0  0
   10.2866  -14.6612   16.9744 N   0  0  0  0  0  0  0  0  0  0  0  0
    9.4667  -16.0060   23.7637 C   0  0  1  0  0  0  0  0  0  0  0  0
   10.1319  -15.4726   24.9155 C   0  0  0  0  0  0  0  0  0  0  0  0
    9.2861  -15.8091   26.1518 C   0  0  0  0  0  0  0  0  0  0  0  0
    7.9610  -15.2228   26.0480 C   0  0  0  0  0  0  0  0  0  0  0  0
    6.7573  -15.7207   25.7319 N   0  0  0  0  0  0  0  0  0  0  0  0
    5.7894  -14.8057   25.7079 C   0  0  0  0  0  0  0  0  0  0  0  0
    6.3788  -13.6426   26.0230 C   0  0  0  0  0  0  0  0  0  0  0  0
    5.8724  -12.3689   26.1658 C   0  0  0  0  0  0  0  0  0  0  0  0
    6.6610  -11.3059   26.5206 C   0  0  0  0  0  0  0  0  0  0  0  0
    7.9986  -11.5249   26.7398 C   0  0  0  0  0  0  0  0  0  0  0  0
    8.5226  -12.7859   26.6010 C   0  0  0  0  0  0  0  0  0  0  0  0
    7.7345  -13.8379   26.2471 C   0  0  0  0  0  0  0  0  0  0  0  0
   11.4977  -15.8682   25.1095 O   0  0  0  0  0  0  0  0  0  0  0  0
   12.2933  -15.4021   26.1946 O   0  0  0  0  0  0  0  0  0  0  0  0
  2  3  2  0
  2  1  1  0
  4  2  1  0
  5  6  1  0
  5  4  1  0
  6  8  1  0
  6  7  1  1
  8  9  2  0
 10 11  1  0
 11 13  1  0
 11 12  2  0
 13 14  1  0
 14 15  1  0
 16 15  1  0
 17 16  1  6
 17 19  1  0
 18 17  1  0
 18  8  1  0
 19 20  2  0
 19 21  1  0
 21 22  1  0
 22 33  1  0
 22 23  1  1
 24 23  1  0
 24 25  2  0
 26 25  1  0
 27 26  1  0
 28 27  2  0
 29 28  1  0
 30 29  2  0
 30 31  1  0
 31 32  2  0
 32 27  1  0
 32 24  1  0
 33 35  2  0
 33 34  1  0
M  END
$$$$
