TMG.pdb
     RDKit          3D

 20 19  0  0  1  0  0  0  0  0999 V2000
    8.0172  -17.8271   21.1595 C   0  0  0  0  0  0  0  0  0  0  0  0
    8.0887  -16.6125   20.2470 C   0  0  1  0  0  0  0  0  0  0  0  0
    7.6580  -16.9933   19.0022 O   0  0  0  0  0  0  0  0  0  0  0  0
    7.2292  -15.5445   20.8754 C   0  0  2  0  0  0  0  0  0  0  0  0
    6.9470  -14.5325   19.8849 N   0  0  0  0  0  0  0  0  0  0  0  0
    7.9079  -14.9099   22.0480 C   0  0  0  0  0  0  0  0  0  0  0  0
    8.7487  -13.9899   21.8944 O   0  0  0  0  0  0  0  0  0  0  0  0
    5.9599  -10.4772   26.8109 C   0  0  0  0  0  0  0  0  0  0  0  0
    6.8294  -12.0636   27.1100 S   0  0  0  0  0  0  0  0  0  0  0  0
    6.7479  -13.0271   25.6001 C   0  0  0  0  0  0  0  0  0  0  0  0
    7.4100  -14.3714   25.6718 C   0  0  0  0  0  0  0  0  0  0  0  0
    8.2551  -14.7694   24.5543 C   0  0  2  0  0  0  0  0  0  0  0  0
    7.6408  -15.3091   23.3818 N   0  0  0  0  0  0  0  0  0  0  0  0
    9.4419  -15.5450   24.9380 C   0  0  0  0  0  0  0  0  0  0  0  0
    9.4624  -16.2750   25.9644 O   0  0  0  0  0  0  0  0  0  0  0  0
   10.6575  -15.5088   24.1689 N   0  0  0  0  0  0  0  0  0  0  0  0
   11.8743  -16.1805   24.4945 C   0  0  0  0  0  0  0  0  0  0  0  0
   11.9823  -17.5969   24.2109 C   0  0  0  0  0  0  0  0  0  0  0  0
   11.4758  -18.4977   24.8865 O   0  0  0  0  0  0  0  0  0  0  0  0
   12.7179  -17.9882   23.0822 O   0  0  0  0  0  0  0  0  0  0  0  0
  2  1  1  1
  3  2  1  0
  4  5  1  6
  4  2  1  0
  6  4  1  0
  6  7  2  0
  9  8  1  0
  9 10  1  0
 10 11  1  0
 12 11  1  1
 12 13  1  0
 12 14  1  0
 13  6  1  0
 14 16  1  0
 14 15  2  0
 16 17  1  0
 18 17  1  0
 18 20  1  0
 19 18  2  0
M  END
$$$$
