TMG.pdb
     RDKit          3D

 20 19  0  0  1  0  0  0  0  0999 V2000
    7.2725  -14.2663   18.1264 C   0  0  0  0  0  0  0  0  0  0  0  0
    7.7870  -14.6404   19.5078 C   0  0  1  0  0  0  0  0  0  0  0  0
    9.0645  -15.1185   19.3677 O   0  0  0  0  0  0  0  0  0  0  0  0
    7.7049  -13.3955   20.3550 C   0  0  2  0  0  0  0  0  0  0  0  0
    8.5015  -12.3606   19.7390 N   0  0  0  0  0  0  0  0  0  0  0  0
    8.2045  -13.6400   21.7439 C   0  0  0  0  0  0  0  0  0  0  0  0
    9.3711  -13.3210   22.0820 O   0  0  0  0  0  0  0  0  0  0  0  0
    5.7343  -11.0213   27.3739 C   0  0  0  0  0  0  0  0  0  0  0  0
    7.0464  -12.0855   26.6612 S   0  0  0  0  0  0  0  0  0  0  0  0
    6.3058  -13.0726   25.3604 C   0  0  0  0  0  0  0  0  0  0  0  0
    6.9150  -14.4308   25.1733 C   0  0  0  0  0  0  0  0  0  0  0  0
    7.8272  -14.6142   24.0527 C   0  0  2  0  0  0  0  0  0  0  0  0
    7.3959  -14.2389   22.7426 N   0  0  0  0  0  0  0  0  0  0  0  0
    8.5126  -15.9131   24.0353 C   0  0  0  0  0  0  0  0  0  0  0  0
    7.8866  -17.0025   24.1253 O   0  0  0  0  0  0  0  0  0  0  0  0
    9.9434  -16.0185   23.9252 N   0  0  0  0  0  0  0  0  0  0  0  0
   10.6978  -17.2301   23.9486 C   0  0  0  0  0  0  0  0  0  0  0  0
   12.1254  -17.1634   23.7124 C   0  0  0  0  0  0  0  0  0  0  0  0
   12.7371  -16.1599   23.3337 O   0  0  0  0  0  0  0  0  0  0  0  0
   12.8834  -18.3242   23.9274 O   0  0  0  0  0  0  0  0  0  0  0  0
  2  1  1  6
  3  2  1  0
  4  5  1  6
  4  2  1  0
  6  4  1  0
  6  7  2  0
  9  8  1  0
  9 10  1  0
 10 11  1  0
 12 11  1  1
 12 13  1  0
 12 14  1  0
 13  6  1  0
 14 16  1  0
 14 15  2  0
 16 17  1  0
 18 17  1  0
 18 20  1  0
 19 18  2  0
M  END
$$$$
