TMG.pdb
     RDKit          3D

 20 19  0  0  1  0  0  0  0  0999 V2000
    7.0803  -14.1489   17.6735 C   0  0  0  0  0  0  0  0  0  0  0  0
    7.5279  -14.5282   19.0767 C   0  0  1  0  0  0  0  0  0  0  0  0
    8.6944  -15.2410   18.9699 O   0  0  0  0  0  0  0  0  0  0  0  0
    7.6830  -13.2412   19.8473 C   0  0  2  0  0  0  0  0  0  0  0  0
    8.6845  -12.4285   19.1981 N   0  0  0  0  0  0  0  0  0  0  0  0
    8.0954  -13.4928   21.2633 C   0  0  0  0  0  0  0  0  0  0  0  0
    9.3068  -13.5683   21.5852 O   0  0  0  0  0  0  0  0  0  0  0  0
    7.6680  -12.1900   28.6734 C   0  0  0  0  0  0  0  0  0  0  0  0
    6.6368  -12.0238   27.1664 S   0  0  0  0  0  0  0  0  0  0  0  0
    6.9368  -13.4596   26.1353 C   0  0  0  0  0  0  0  0  0  0  0  0
    6.5593  -13.2918   24.6931 C   0  0  0  0  0  0  0  0  0  0  0  0
    7.4573  -13.8476   23.6900 C   0  0  2  0  0  0  0  0  0  0  0  0
    7.1502  -13.6576   22.3069 N   0  0  0  0  0  0  0  0  0  0  0  0
    7.8829  -15.2280   23.9555 C   0  0  0  0  0  0  0  0  0  0  0  0
    7.0806  -16.1979   23.9063 O   0  0  0  0  0  0  0  0  0  0  0  0
    9.2416  -15.5540   24.2990 N   0  0  0  0  0  0  0  0  0  0  0  0
    9.7450  -16.8613   24.5735 C   0  0  0  0  0  0  0  0  0  0  0  0
   11.1054  -16.9945   25.0530 C   0  0  0  0  0  0  0  0  0  0  0  0
   11.9199  -16.0712   25.1459 O   0  0  0  0  0  0  0  0  0  0  0  0
   11.5435  -18.2682   25.4455 O   0  0  0  0  0  0  0  0  0  0  0  0
  2  1  1  6
  3  2  1  0
  4  5  1  6
  4  2  1  0
  6  4  1  0
  6  7  2  0
  9  8  1  0
  9 10  1  0
 10 11  1  0
 12 11  1  1
 12 13  1  0
 12 14  1  0
 13  6  1  0
 14 16  1  0
 14 15  2  0
 16 17  1  0
 18 17  1  0
 18 20  1  0
 19 18  2  0
M  END
$$$$
