TMG.pdb
     RDKit          3D

 20 19  0  0  1  0  0  0  0  0999 V2000
    7.3354  -16.5432   20.3849 C   0  0  0  0  0  0  0  0  0  0  0  0
    7.9024  -15.3165   19.6872 C   0  0  1  0  0  0  0  0  0  0  0  0
    7.5147  -15.3610   18.3727 O   0  0  0  0  0  0  0  0  0  0  0  0
    7.3738  -14.1123   20.4252 C   0  0  2  0  0  0  0  0  0  0  0  0
    7.5864  -12.9384   19.6119 N   0  0  0  0  0  0  0  0  0  0  0  0
    8.0586  -13.9289   21.7428 C   0  0  0  0  0  0  0  0  0  0  0  0
    9.1737  -13.3571   21.8231 O   0  0  0  0  0  0  0  0  0  0  0  0
    7.2787  -11.4401   27.7048 C   0  0  0  0  0  0  0  0  0  0  0  0
    5.8884  -11.6865   26.5350 S   0  0  0  0  0  0  0  0  0  0  0  0
    6.5364  -12.5058   25.0776 C   0  0  0  0  0  0  0  0  0  0  0  0
    7.3492  -13.7363   25.3533 C   0  0  0  0  0  0  0  0  0  0  0  0
    8.1042  -14.3098   24.2477 C   0  0  2  0  0  0  0  0  0  0  0  0
    7.4910  -14.3861   22.9587 N   0  0  0  0  0  0  0  0  0  0  0  0
    8.8082  -15.5563   24.5764 C   0  0  0  0  0  0  0  0  0  0  0  0
    8.3427  -16.3930   25.3948 O   0  0  0  0  0  0  0  0  0  0  0  0
   10.0788  -15.8913   23.9902 N   0  0  0  0  0  0  0  0  0  0  0  0
   10.8554  -17.0528   24.2828 C   0  0  0  0  0  0  0  0  0  0  0  0
   12.1964  -17.1451   23.7428 C   0  0  0  0  0  0  0  0  0  0  0  0
   12.7240  -16.3088   23.0033 O   0  0  0  0  0  0  0  0  0  0  0  0
   12.9659  -18.2688   24.0795 O   0  0  0  0  0  0  0  0  0  0  0  0
  2  1  1  1
  3  2  1  0
  4  5  1  6
  4  2  1  0
  6  4  1  0
  6  7  2  0
  9  8  1  0
  9 10  1  0
 10 11  1  0
 12 11  1  1
 12 13  1  0
 12 14  1  0
 13  6  1  0
 14 16  1  0
 14 15  2  0
 16 17  1  0
 18 17  1  0
 18 20  1  0
 19 18  2  0
M  END
$$$$
