TMG.pdb
     RDKit          3D

 20 19  0  0  1  0  0  0  0  0999 V2000
    6.6651  -18.1653   19.0159 C   0  0  0  0  0  0  0  0  0  0  0  0
    7.3481  -17.7278   20.3024 C   0  0  1  0  0  0  0  0  0  0  0  0
    8.4546  -18.5171   20.4829 O   0  0  0  0  0  0  0  0  0  0  0  0
    7.6776  -16.2646   20.1448 C   0  0  2  0  0  0  0  0  0  0  0  0
    8.6373  -16.1168   19.0761 N   0  0  0  0  0  0  0  0  0  0  0  0
    8.2488  -15.6896   21.4024 C   0  0  0  0  0  0  0  0  0  0  0  0
    9.4897  -15.6179   21.5807 O   0  0  0  0  0  0  0  0  0  0  0  0
    7.2028  -10.7149   26.8407 C   0  0  0  0  0  0  0  0  0  0  0  0
    6.4106  -12.3666   26.7591 S   0  0  0  0  0  0  0  0  0  0  0  0
    7.5177  -13.4626   25.8714 C   0  0  0  0  0  0  0  0  0  0  0  0
    6.9824  -13.9830   24.5701 C   0  0  0  0  0  0  0  0  0  0  0  0
    7.8820  -14.7651   23.7331 C   0  0  2  0  0  0  0  0  0  0  0  0
    7.4280  -15.1998   22.4494 N   0  0  0  0  0  0  0  0  0  0  0  0
    8.5858  -15.8424   24.4413 C   0  0  0  0  0  0  0  0  0  0  0  0
    7.9725  -16.7969   24.9885 O   0  0  0  0  0  0  0  0  0  0  0  0
   10.0194  -15.8660   24.5616 N   0  0  0  0  0  0  0  0  0  0  0  0
   10.7831  -16.8328   25.2825 C   0  0  0  0  0  0  0  0  0  0  0  0
   12.2285  -16.7438   25.2449 C   0  0  0  0  0  0  0  0  0  0  0  0
   12.8731  -15.9230   24.5850 O   0  0  0  0  0  0  0  0  0  0  0  0
   12.9647  -17.6569   26.0146 O   0  0  0  0  0  0  0  0  0  0  0  0
  2  1  1  6
  3  2  1  0
  4  5  1  6
  4  2  1  0
  6  4  1  0
  6  7  2  0
  9  8  1  0
  9 10  1  0
 10 11  1  0
 12 11  1  1
 12 13  1  0
 12 14  1  0
 13  6  1  0
 14 16  1  0
 14 15  2  0
 16 17  1  0
 18 17  1  0
 18 20  1  0
 19 18  2  0
M  END
$$$$
