TMG.pdb
     RDKit          3D

 20 19  0  0  1  0  0  0  0  0999 V2000
    7.6565  -14.8680   17.9078 C   0  0  0  0  0  0  0  0  0  0  0  0
    8.0788  -14.9085   19.3683 C   0  0  1  0  0  0  0  0  0  0  0  0
    9.4159  -15.2092   19.4133 O   0  0  0  0  0  0  0  0  0  0  0  0
    7.7503  -13.5584   19.9543 C   0  0  2  0  0  0  0  0  0  0  0  0
    8.4513  -12.5431   19.2042 N   0  0  0  0  0  0  0  0  0  0  0  0
    8.1491  -13.4704   21.3937 C   0  0  0  0  0  0  0  0  0  0  0  0
    9.1956  -12.8713   21.7440 O   0  0  0  0  0  0  0  0  0  0  0  0
    7.0640  -11.6581   28.3852 C   0  0  0  0  0  0  0  0  0  0  0  0
    6.4645  -11.8315   26.6610 S   0  0  0  0  0  0  0  0  0  0  0  0
    6.6907  -13.5413   26.1710 C   0  0  0  0  0  0  0  0  0  0  0  0
    6.4379  -13.8212   24.7189 C   0  0  0  0  0  0  0  0  0  0  0  0
    7.5910  -13.8817   23.8311 C   0  0  2  0  0  0  0  0  0  0  0  0
    7.3746  -14.0526   22.4286 N   0  0  0  0  0  0  0  0  0  0  0  0
    8.6803  -14.7427   24.3101 C   0  0  0  0  0  0  0  0  0  0  0  0
    9.0773  -14.7189   25.5053 O   0  0  0  0  0  0  0  0  0  0  0  0
    9.3673  -15.6586   23.4385 N   0  0  0  0  0  0  0  0  0  0  0  0
   10.3497  -16.6149   23.8360 C   0  0  0  0  0  0  0  0  0  0  0  0
   10.8881  -17.5135   22.8354 C   0  0  0  0  0  0  0  0  0  0  0  0
   10.5973  -17.4975   21.6355 O   0  0  0  0  0  0  0  0  0  0  0  0
   11.8137  -18.4826   23.2505 O   0  0  0  0  0  0  0  0  0  0  0  0
  2  1  1  6
  3  2  1  0
  4  5  1  6
  4  2  1  0
  6  4  1  0
  6  7  2  0
  9  8  1  0
  9 10  1  0
 10 11  1  0
 12 11  1  1
 12 13  1  0
 12 14  1  0
 13  6  1  0
 14 16  1  0
 14 15  2  0
 16 17  1  0
 18 17  1  0
 18 20  1  0
 19 18  2  0
M  END
$$$$
