TMG.pdb
     RDKit          3D

 20 19  0  0  1  0  0  0  0  0999 V2000
    6.2834  -17.5713   20.9907 C   0  0  0  0  0  0  0  0  0  0  0  0
    7.5575  -17.2522   20.2241 C   0  0  1  0  0  0  0  0  0  0  0  0
    7.3737  -17.6361   18.9207 O   0  0  0  0  0  0  0  0  0  0  0  0
    7.8017  -15.7724   20.3819 C   0  0  2  0  0  0  0  0  0  0  0  0
    8.8737  -15.3813   19.4972 N   0  0  0  0  0  0  0  0  0  0  0  0
    8.1718  -15.4218   21.7886 C   0  0  0  0  0  0  0  0  0  0  0  0
    9.3518  -15.5424   22.2009 O   0  0  0  0  0  0  0  0  0  0  0  0
    7.0061  -11.0362   28.2196 C   0  0  0  0  0  0  0  0  0  0  0  0
    6.2770  -11.5168   26.6073 S   0  0  0  0  0  0  0  0  0  0  0  0
    7.1770  -12.9446   26.0021 C   0  0  0  0  0  0  0  0  0  0  0  0
    6.8299  -13.3644   24.6042 C   0  0  0  0  0  0  0  0  0  0  0  0
    7.4953  -14.5435   24.0673 C   0  0  2  0  0  0  0  0  0  0  0  0
    7.2198  -14.9394   22.7217 N   0  0  0  0  0  0  0  0  0  0  0  0
    7.5010  -15.7009   24.9717 C   0  0  0  0  0  0  0  0  0  0  0  0
    6.4465  -16.3198   25.2747 O   0  0  0  0  0  0  0  0  0  0  0  0
    8.7119  -16.1908   25.5750 N   0  0  0  0  0  0  0  0  0  0  0  0
    8.8096  -17.2848   26.4868 C   0  0  0  0  0  0  0  0  0  0  0  0
   10.1241  -17.7089   26.9235 C   0  0  0  0  0  0  0  0  0  0  0  0
   10.3462  -18.6112   27.7366 O   0  0  0  0  0  0  0  0  0  0  0  0
   11.2405  -17.0500   26.3871 O   0  0  0  0  0  0  0  0  0  0  0  0
  2  1  1  1
  3  2  1  0
  4  5  1  6
  4  2  1  0
  6  4  1  0
  6  7  2  0
  9  8  1  0
  9 10  1  0
 10 11  1  0
 12 11  1  1
 12 13  1  0
 12 14  1  0
 13  6  1  0
 14 16  1  0
 14 15  2  0
 16 17  1  0
 18 17  1  0
 18 20  1  0
 19 18  2  0
M  END
$$$$
