TMG.pdb
     RDKit          3D

 20 19  0  0  1  0  0  0  0  0999 V2000
    8.3439  -12.5914   19.7121 C   0  0  0  0  0  0  0  0  0  0  0  0
    7.3229  -13.6870   19.9769 C   0  0  1  0  0  0  0  0  0  0  0  0
    6.7740  -14.0527   18.7748 O   0  0  0  0  0  0  0  0  0  0  0  0
    8.0577  -14.8104   20.6642 C   0  0  2  0  0  0  0  0  0  0  0  0
    7.1734  -15.9467   20.7724 N   0  0  0  0  0  0  0  0  0  0  0  0
    8.5180  -14.4130   22.0312 C   0  0  0  0  0  0  0  0  0  0  0  0
    9.3685  -13.5035   22.1932 O   0  0  0  0  0  0  0  0  0  0  0  0
    6.8855  -11.2426   27.2206 C   0  0  0  0  0  0  0  0  0  0  0  0
    5.6477  -12.3218   26.4049 S   0  0  0  0  0  0  0  0  0  0  0  0
    6.4689  -13.1806   25.0621 C   0  0  0  0  0  0  0  0  0  0  0  0
    7.3872  -14.2878   25.4880 C   0  0  0  0  0  0  0  0  0  0  0  0
    8.4094  -14.7193   24.5444 C   0  0  2  0  0  0  0  0  0  0  0  0
    8.0235  -15.0356   23.2050 N   0  0  0  0  0  0  0  0  0  0  0  0
    9.3446  -15.7180   25.0785 C   0  0  0  0  0  0  0  0  0  0  0  0
    9.8195  -15.6366   26.2423 O   0  0  0  0  0  0  0  0  0  0  0  0
    9.7832  -16.8451   24.2988 N   0  0  0  0  0  0  0  0  0  0  0  0
   10.6316  -17.8988   24.7546 C   0  0  0  0  0  0  0  0  0  0  0  0
   12.0650  -17.7470   24.6106 C   0  0  0  0  0  0  0  0  0  0  0  0
   12.9032  -18.6070   24.8979 O   0  0  0  0  0  0  0  0  0  0  0  0
   12.5511  -16.5316   24.1061 O   0  0  0  0  0  0  0  0  0  0  0  0
  2  1  1  6
  3  2  1  0
  4  5  1  1
  4  2  1  0
  6  4  1  0
  6  7  2  0
  9  8  1  0
  9 10  1  0
 10 11  1  0
 12 11  1  1
 12 13  1  0
 12 14  1  0
 13  6  1  0
 14 16  1  0
 14 15  2  0
 16 17  1  0
 18 17  1  0
 18 20  1  0
 19 18  2  0
M  END
$$$$
