TMG.pdb
     RDKit          3D

 20 19  0  0  1  0  0  0  0  0999 V2000
    7.3998  -14.4307   18.2562 C   0  0  0  0  0  0  0  0  0  0  0  0
    7.8334  -14.7168   19.6856 C   0  0  1  0  0  0  0  0  0  0  0  0
    9.0652  -15.3174   19.6413 O   0  0  0  0  0  0  0  0  0  0  0  0
    7.8392  -13.3951   20.4118 C   0  0  2  0  0  0  0  0  0  0  0  0
    8.6471  -12.4588   19.6665 N   0  0  0  0  0  0  0  0  0  0  0  0
    8.3915  -13.5290   21.7958 C   0  0  0  0  0  0  0  0  0  0  0  0
    9.5358  -13.1000   22.0847 O   0  0  0  0  0  0  0  0  0  0  0  0
    7.5216  -11.3695   27.5429 C   0  0  0  0  0  0  0  0  0  0  0  0
    5.9591  -11.9872   26.8086 S   0  0  0  0  0  0  0  0  0  0  0  0
    6.3487  -12.7014   25.2107 C   0  0  0  0  0  0  0  0  0  0  0  0
    7.1145  -13.9904   25.2646 C   0  0  0  0  0  0  0  0  0  0  0  0
    8.0818  -14.2470   24.2063 C   0  0  2  0  0  0  0  0  0  0  0  0
    7.6600  -14.1412   22.8446 N   0  0  0  0  0  0  0  0  0  0  0  0
    8.9066  -15.4440   24.4161 C   0  0  0  0  0  0  0  0  0  0  0  0
    9.4328  -15.7085   25.5296 O   0  0  0  0  0  0  0  0  0  0  0  0
    9.1722  -16.3818   23.3576 N   0  0  0  0  0  0  0  0  0  0  0  0
    9.9703  -17.5605   23.4644 C   0  0  0  0  0  0  0  0  0  0  0  0
   11.4092  -17.4185   23.5543 C   0  0  0  0  0  0  0  0  0  0  0  0
   12.2130  -18.3535   23.6196 O   0  0  0  0  0  0  0  0  0  0  0  0
   11.9431  -16.1212   23.5693 O   0  0  0  0  0  0  0  0  0  0  0  0
  2  1  1  6
  3  2  1  0
  4  5  1  6
  4  2  1  0
  6  4  1  0
  6  7  2  0
  9  8  1  0
  9 10  1  0
 10 11  1  0
 12 11  1  1
 12 13  1  0
 12 14  1  0
 13  6  1  0
 14 16  1  0
 14 15  2  0
 16 17  1  0
 18 17  1  0
 18 20  1  0
 19 18  2  0
M  END
$$$$
