TMG.pdb
     RDKit          3D

 20 19  0  0  1  0  0  0  0  0999 V2000
    7.6143  -14.8173   18.3337 C   0  0  0  0  0  0  0  0  0  0  0  0
    8.0226  -14.9440   19.7932 C   0  0  1  0  0  0  0  0  0  0  0  0
    9.3744  -15.1700   19.8357 O   0  0  0  0  0  0  0  0  0  0  0  0
    7.6097  -13.6631   20.4738 C   0  0  2  0  0  0  0  0  0  0  0  0
    8.1809  -12.5493   19.7541 N   0  0  0  0  0  0  0  0  0  0  0  0
    8.0732  -13.6201   21.8957 C   0  0  0  0  0  0  0  0  0  0  0  0
    9.0732  -12.9404   22.2344 O   0  0  0  0  0  0  0  0  0  0  0  0
    6.0120  -10.5937   27.1740 C   0  0  0  0  0  0  0  0  0  0  0  0
    6.9732  -12.1476   27.0199 S   0  0  0  0  0  0  0  0  0  0  0  0
    6.3460  -13.0418   25.5979 C   0  0  0  0  0  0  0  0  0  0  0  0
    6.9712  -14.3866   25.3711 C   0  0  0  0  0  0  0  0  0  0  0  0
    7.9008  -14.5211   24.2580 C   0  0  2  0  0  0  0  0  0  0  0  0
    7.4149  -14.3373   22.9263 N   0  0  0  0  0  0  0  0  0  0  0  0
    8.7854  -15.6904   24.3448 C   0  0  0  0  0  0  0  0  0  0  0  0
    8.4809  -16.7128   25.0147 O   0  0  0  0  0  0  0  0  0  0  0  0
   10.0594  -15.7336   23.6774 N   0  0  0  0  0  0  0  0  0  0  0  0
   10.9897  -16.8155   23.7187 C   0  0  0  0  0  0  0  0  0  0  0  0
   12.2014  -16.7193   22.9306 C   0  0  0  0  0  0  0  0  0  0  0  0
   12.2461  -16.6838   21.6972 O   0  0  0  0  0  0  0  0  0  0  0  0
   13.4267  -16.6612   23.6113 O   0  0  0  0  0  0  0  0  0  0  0  0
  2  1  1  6
  3  2  1  0
  4  5  1  6
  4  2  1  0
  6  4  1  0
  6  7  2  0
  9  8  1  0
  9 10  1  0
 10 11  1  0
 12 11  1  1
 12 13  1  0
 12 14  1  0
 13  6  1  0
 14 16  1  0
 14 15  2  0
 16 17  1  0
 18 17  1  0
 18 20  1  0
 19 18  2  0
M  END
$$$$
