TMG.pdb
     RDKit          3D

 20 19  0  0  1  0  0  0  0  0999 V2000
    8.2844  -20.3403   18.4274 C   0  0  0  0  0  0  0  0  0  0  0  0
    9.0766  -19.8710   17.2169 C   0  0  1  0  0  0  0  0  0  0  0  0
    8.8762  -20.7741   16.2048 O   0  0  0  0  0  0  0  0  0  0  0  0
    8.5852  -18.4842   16.8857 C   0  0  2  0  0  0  0  0  0  0  0  0
    9.2737  -18.0166   15.7058 N   0  0  0  0  0  0  0  0  0  0  0  0
    8.8316  -17.5288   18.0105 C   0  0  0  0  0  0  0  0  0  0  0  0
    9.9959  -17.1777   18.3235 O   0  0  0  0  0  0  0  0  0  0  0  0
    8.1280  -11.8907   22.6272 C   0  0  0  0  0  0  0  0  0  0  0  0
    7.8681  -12.8148   21.0649 S   0  0  0  0  0  0  0  0  0  0  0  0
    7.0184  -14.3419   21.4658 C   0  0  0  0  0  0  0  0  0  0  0  0
    6.8096  -15.2717   20.3071 C   0  0  0  0  0  0  0  0  0  0  0  0
    7.9242  -16.1226   19.9133 C   0  0  2  0  0  0  0  0  0  0  0  0
    7.7745  -16.9744   18.7753 N   0  0  0  0  0  0  0  0  0  0  0  0
    8.5690  -16.8309   21.0268 C   0  0  0  0  0  0  0  0  0  0  0  0
    8.0085  -17.7853   21.6282 O   0  0  0  0  0  0  0  0  0  0  0  0
    9.8770  -16.4692   21.5049 N   0  0  0  0  0  0  0  0  0  0  0  0
   10.5609  -17.0678   22.6057 C   0  0  0  0  0  0  0  0  0  0  0  0
   11.8910  -16.5977   22.9349 C   0  0  0  0  0  0  0  0  0  0  0  0
   12.5541  -15.8081   22.2556 O   0  0  0  0  0  0  0  0  0  0  0  0
   12.4827  -17.0697   24.1161 O   0  0  0  0  0  0  0  0  0  0  0  0
  2  1  1  1
  3  2  1  0
  4  5  1  6
  4  2  1  0
  6  4  1  0
  6  7  2  0
  9  8  1  0
  9 10  1  0
 10 11  1  0
 12 11  1  1
 12 13  1  0
 12 14  1  0
 13  6  1  0
 14 16  1  0
 14 15  2  0
 16 17  1  0
 18 17  1  0
 18 20  1  0
 19 18  2  0
M  END
$$$$
