TMG.pdb
     RDKit          3D

 20 19  0  0  1  0  0  0  0  0999 V2000
   11.3878  -22.9001   27.7695 C   0  0  0  0  0  0  0  0  0  0  0  0
   10.2640  -22.8135   26.7484 C   0  0  1  0  0  0  0  0  0  0  0  0
    9.7203  -24.0648   26.6114 O   0  0  0  0  0  0  0  0  0  0  0  0
    9.2842  -21.7900   27.2649 C   0  0  2  0  0  0  0  0  0  0  0  0
    8.1637  -21.7195   26.3568 N   0  0  0  0  0  0  0  0  0  0  0  0
    9.9105  -20.4361   27.3798 C   0  0  0  0  0  0  0  0  0  0  0  0
   10.1164  -19.7256   26.3651 O   0  0  0  0  0  0  0  0  0  0  0  0
   11.0745  -13.3113   28.8890 C   0  0  0  0  0  0  0  0  0  0  0  0
   10.0926  -14.7140   29.5452 S   0  0  0  0  0  0  0  0  0  0  0  0
   11.0775  -16.2021   29.3705 C   0  0  0  0  0  0  0  0  0  0  0  0
   10.2888  -17.4605   29.1580 C   0  0  0  0  0  0  0  0  0  0  0  0
   11.0245  -18.6700   28.8156 C   0  0  2  0  0  0  0  0  0  0  0  0
   10.3011  -19.8885   28.6277 N   0  0  0  0  0  0  0  0  0  0  0  0
   12.2367  -18.8891   29.6156 C   0  0  0  0  0  0  0  0  0  0  0  0
   12.1892  -19.2959   30.8067 O   0  0  0  0  0  0  0  0  0  0  0  0
   13.5526  -18.6413   29.0888 N   0  0  0  0  0  0  0  0  0  0  0  0
   14.7847  -19.0214   29.7013 C   0  0  0  0  0  0  0  0  0  0  0  0
   15.0906  -18.5088   31.0212 C   0  0  0  0  0  0  0  0  0  0  0  0
   14.3843  -17.7227   31.6597 O   0  0  0  0  0  0  0  0  0  0  0  0
   16.2805  -18.9317   31.6323 O   0  0  0  0  0  0  0  0  0  0  0  0
  2  1  1  1
  3  2  1  0
  4  5  1  6
  4  2  1  0
  6  4  1  0
  6  7  2  0
  9  8  1  0
  9 10  1  0
 10 11  1  0
 12 11  1  1
 12 13  1  0
 12 14  1  0
 13  6  1  0
 14 16  1  0
 14 15  2  0
 16 17  1  0
 18 17  1  0
 18 20  1  0
 19 18  2  0
M  END
$$$$
