TMG.pdb
     RDKit          3D

 20 19  0  0  1  0  0  0  0  0999 V2000
    7.0310  -14.6685   17.9296 C   0  0  0  0  0  0  0  0  0  0  0  0
    7.6290  -14.8725   19.3130 C   0  0  1  0  0  0  0  0  0  0  0  0
    8.8901  -15.3876   19.1565 O   0  0  0  0  0  0  0  0  0  0  0  0
    7.6137  -13.5283   19.9967 C   0  0  2  0  0  0  0  0  0  0  0  0
    8.3795  -12.5951   19.2044 N   0  0  0  0  0  0  0  0  0  0  0  0
    8.1988  -13.6026   21.3718 C   0  0  0  0  0  0  0  0  0  0  0  0
    9.4074  -13.3335   21.5806 O   0  0  0  0  0  0  0  0  0  0  0  0
    5.6365  -10.9541   26.5417 C   0  0  0  0  0  0  0  0  0  0  0  0
    6.6206  -12.3028   27.2999 S   0  0  0  0  0  0  0  0  0  0  0  0
    7.7418  -12.9328   26.0505 C   0  0  0  0  0  0  0  0  0  0  0  0
    7.0865  -13.7117   24.9484 C   0  0  0  0  0  0  0  0  0  0  0  0
    7.9207  -14.1378   23.8330 C   0  0  2  0  0  0  0  0  0  0  0  0
    7.4278  -13.9769   22.5010 N   0  0  0  0  0  0  0  0  0  0  0  0
    8.5474  -15.4539   24.0129 C   0  0  0  0  0  0  0  0  0  0  0  0
    7.8688  -16.5051   24.1585 O   0  0  0  0  0  0  0  0  0  0  0  0
    9.9764  -15.6198   24.0444 N   0  0  0  0  0  0  0  0  0  0  0  0
   10.6721  -16.8531   24.2253 C   0  0  0  0  0  0  0  0  0  0  0  0
   12.1089  -16.8727   24.0415 C   0  0  0  0  0  0  0  0  0  0  0  0
   12.7061  -16.4197   23.0604 O   0  0  0  0  0  0  0  0  0  0  0  0
   12.8940  -17.4494   25.0510 O   0  0  0  0  0  0  0  0  0  0  0  0
  2  1  1  6
  3  2  1  0
  4  5  1  6
  4  2  1  0
  6  4  1  0
  6  7  2  0
  9  8  1  0
  9 10  1  0
 10 11  1  0
 12 11  1  1
 12 13  1  0
 12 14  1  0
 13  6  1  0
 14 16  1  0
 14 15  2  0
 16 17  1  0
 18 17  1  0
 18 20  1  0
 19 18  2  0
M  END
$$$$
