TMG.pdb
     RDKit          3D

 20 19  0  0  1  0  0  0  0  0999 V2000
    8.4581  -12.4039   19.7380 C   0  0  0  0  0  0  0  0  0  0  0  0
    7.6989  -13.7217   19.7393 C   0  0  1  0  0  0  0  0  0  0  0  0
    7.4096  -14.0440   18.4384 O   0  0  0  0  0  0  0  0  0  0  0  0
    8.5840  -14.7336   20.4225 C   0  0  2  0  0  0  0  0  0  0  0  0
    8.0088  -16.0466   20.2491 N   0  0  0  0  0  0  0  0  0  0  0  0
    8.7233  -14.4464   21.8843 C   0  0  0  0  0  0  0  0  0  0  0  0
    9.5374  -13.5877   22.3045 O   0  0  0  0  0  0  0  0  0  0  0  0
    7.3344  -11.5140   27.8310 C   0  0  0  0  0  0  0  0  0  0  0  0
    7.5232  -12.2951   26.1829 S   0  0  0  0  0  0  0  0  0  0  0  0
    6.6371  -13.8537   26.2098 C   0  0  0  0  0  0  0  0  0  0  0  0
    6.6424  -14.6061   24.9119 C   0  0  0  0  0  0  0  0  0  0  0  0
    7.9272  -14.8218   24.2606 C   0  0  2  0  0  0  0  0  0  0  0  0
    7.9515  -15.1215   22.8632 N   0  0  0  0  0  0  0  0  0  0  0  0
    8.8469  -15.6905   25.0069 C   0  0  0  0  0  0  0  0  0  0  0  0
    9.0194  -15.5736   26.2492 O   0  0  0  0  0  0  0  0  0  0  0  0
    9.6148  -16.7215   24.3606 N   0  0  0  0  0  0  0  0  0  0  0  0
   10.1965  -17.8574   25.0002 C   0  0  0  0  0  0  0  0  0  0  0  0
   11.0072  -17.6487   26.1824 C   0  0  0  0  0  0  0  0  0  0  0  0
   12.1293  -18.1291   26.3686 O   0  0  0  0  0  0  0  0  0  0  0  0
   10.4870  -16.8387   27.2030 O   0  0  0  0  0  0  0  0  0  0  0  0
  2  1  1  6
  3  2  1  0
  4  5  1  1
  4  2  1  0
  6  4  1  0
  6  7  2  0
  9  8  1  0
  9 10  1  0
 10 11  1  0
 12 11  1  1
 12 13  1  0
 12 14  1  0
 13  6  1  0
 14 16  1  0
 14 15  2  0
 16 17  1  0
 18 17  1  0
 18 20  1  0
 19 18  2  0
M  END
$$$$
