HSC.pdb
     RDKit          3D

 23 23  0  0  1  0  0  0  0  0999 V2000
   20.0093  -15.1846  -18.3444 N   0  0  0  0  0  0  0  0  0  0  0  0
   19.3822  -14.3476  -17.3452 C   0  0  1  0  0  0  0  0  0  0  0  0
   19.6654  -14.9550  -15.9733 C   0  0  0  0  0  0  0  0  0  0  0  0
   18.8887  -16.2183  -15.8228 C   0  0  0  0  0  0  0  0  0  0  0  0
   17.5648  -16.3612  -15.5293 C   0  0  0  0  0  0  0  0  0  0  0  0
   17.2936  -17.6800  -15.4929 N   0  0  0  0  0  0  0  0  0  0  0  0
   18.4030  -18.3763  -15.7540 C   0  0  0  0  0  0  0  0  0  0  0  0
   19.3847  -17.4609  -15.9567 N   0  0  0  0  0  0  0  0  0  0  0  0
   20.0079  -13.0040  -17.4077 C   0  0  0  0  0  0  0  0  0  0  0  0
   21.2439  -12.8996  -17.4396 O   0  0  0  0  0  0  0  0  0  0  0  0
   18.7636  -10.0281  -19.7199 O   0  0  0  0  0  0  0  0  0  0  0  0
   19.0403   -9.5793  -18.4385 C   0  0  0  0  0  0  0  0  0  0  0  0
   19.8668  -10.5542  -17.6520 C   0  0  2  0  0  0  0  0  0  0  0  0
   19.2459  -11.8159  -17.4330 N   0  0  0  0  0  0  0  0  0  0  0  0
   20.1498   -9.9391  -16.3298 C   0  0  0  0  0  0  0  0  0  0  0  0
   19.3315   -9.9335  -15.3748 O   0  0  0  0  0  0  0  0  0  0  0  0
   21.4090   -9.3156  -16.1067 N   0  0  0  0  0  0  0  0  0  0  0  0
   21.7602   -8.7161  -14.8597 C   0  0  1  0  0  0  0  0  0  0  0  0
   23.2673   -8.8201  -14.5883 C   0  0  0  0  0  0  0  0  0  0  0  0
   23.7406  -10.5610  -14.5275 S   0  0  0  0  0  0  0  0  0  0  0  0
   21.3435   -7.3067  -14.7442 C   0  0  0  0  0  0  0  0  0  0  0  0
   21.0054   -6.6822  -15.7710 O   0  0  0  0  0  0  0  0  0  0  0  0
   21.3153   -6.6531  -13.5318 O   0  0  0  0  0  0  0  0  0  0  0  0
  2  9  1  0
  2  1  1  6
  3  2  1  0
  4  5  2  0
  4  3  1  0
  6  5  1  0
  7  8  2  0
  7  6  1  0
  8  4  1  0
  9 10  2  0
 11 12  1  0
 13 12  1  6
 14 13  1  0
 14  9  1  0
 15 17  1  0
 15 13  1  0
 16 15  2  0
 18 17  1  0
 18 19  1  6
 20 19  1  0
 21 18  1  0
 22 21  2  0
 23 21  1  0
M  END
$$$$
