HSC.pdb
     RDKit          3D

 23 23  0  0  1  0  0  0  0  0999 V2000
   19.5317  -13.9490  -17.3253 N   0  0  0  0  0  0  0  0  0  0  0  0
   18.6659  -12.7925  -17.2539 C   0  0  1  0  0  0  0  0  0  0  0  0
   17.9484  -12.8205  -15.9064 C   0  0  0  0  0  0  0  0  0  0  0  0
   16.9631  -13.9390  -15.8950 C   0  0  0  0  0  0  0  0  0  0  0  0
   15.9385  -14.1655  -16.7658 C   0  0  0  0  0  0  0  0  0  0  0  0
   15.3085  -15.2894  -16.3732 N   0  0  0  0  0  0  0  0  0  0  0  0
   15.9013  -15.7815  -15.2822 C   0  0  0  0  0  0  0  0  0  0  0  0
   16.9247  -14.9371  -14.9950 N   0  0  0  0  0  0  0  0  0  0  0  0
   19.5125  -11.5759  -17.3154 C   0  0  0  0  0  0  0  0  0  0  0  0
   20.6124  -11.5594  -16.7413 O   0  0  0  0  0  0  0  0  0  0  0  0
   20.5371   -7.2356  -19.1930 O   0  0  0  0  0  0  0  0  0  0  0  0
   19.7024   -8.3416  -19.2024 C   0  0  0  0  0  0  0  0  0  0  0  0
   19.9482   -9.2596  -18.0410 C   0  0  2  0  0  0  0  0  0  0  0  0
   19.1157  -10.4134  -18.0112 N   0  0  0  0  0  0  0  0  0  0  0  0
   19.7122   -8.4831  -16.7968 C   0  0  0  0  0  0  0  0  0  0  0  0
   18.5741   -8.3052  -16.2922 O   0  0  0  0  0  0  0  0  0  0  0  0
   20.8186   -7.8984  -16.1201 N   0  0  0  0  0  0  0  0  0  0  0  0
   20.6617   -7.0154  -15.0096 C   0  0  1  0  0  0  0  0  0  0  0  0
   21.7612   -7.2278  -13.9599 C   0  0  0  0  0  0  0  0  0  0  0  0
   21.5511   -8.8520  -13.2008 S   0  0  0  0  0  0  0  0  0  0  0  0
   20.6229   -5.5912  -15.3888 C   0  0  0  0  0  0  0  0  0  0  0  0
   20.3628   -4.7332  -14.5200 O   0  0  0  0  0  0  0  0  0  0  0  0
   20.8661   -5.1747  -16.6793 O   0  0  0  0  0  0  0  0  0  0  0  0
  2  9  1  0
  2  1  1  1
  3  2  1  0
  4  5  2  0
  4  3  1  0
  6  5  1  0
  7  8  2  0
  7  6  1  0
  8  4  1  0
  9 10  2  0
 11 12  1  0
 13 12  1  6
 14 13  1  0
 14  9  1  0
 15 17  1  0
 15 13  1  0
 16 15  2  0
 18 17  1  0
 18 19  1  1
 20 19  1  0
 21 18  1  0
 22 21  2  0
 23 21  1  0
M  END
$$$$
