HSC.pdb
     RDKit          3D

 23 23  0  0  1  0  0  0  0  0999 V2000
   21.7382  -20.2029  -16.8610 N   0  0  0  0  0  0  0  0  0  0  0  0
   22.5460  -19.2181  -16.1753 C   0  0  1  0  0  0  0  0  0  0  0  0
   21.6256  -18.3892  -15.2825 C   0  0  0  0  0  0  0  0  0  0  0  0
   20.8138  -17.4694  -16.1291 C   0  0  0  0  0  0  0  0  0  0  0  0
   19.4976  -17.5806  -16.4678 C   0  0  0  0  0  0  0  0  0  0  0  0
   19.1846  -16.5264  -17.2456 N   0  0  0  0  0  0  0  0  0  0  0  0
   20.2601  -15.7518  -17.4101 C   0  0  0  0  0  0  0  0  0  0  0  0
   21.2632  -16.3454  -16.7143 N   0  0  0  0  0  0  0  0  0  0  0  0
   23.5204  -19.9352  -15.3167 C   0  0  0  0  0  0  0  0  0  0  0  0
   23.1392  -20.8760  -14.6032 O   0  0  0  0  0  0  0  0  0  0  0  0
   27.6741  -18.8903  -14.8847 O   0  0  0  0  0  0  0  0  0  0  0  0
   27.2497  -20.2071  -14.9634 C   0  0  0  0  0  0  0  0  0  0  0  0
   25.8194  -20.3780  -14.5425 C   0  0  2  0  0  0  0  0  0  0  0  0
   24.8882  -19.5886  -15.2740 N   0  0  0  0  0  0  0  0  0  0  0  0
   25.7248  -20.0004  -13.1089 C   0  0  0  0  0  0  0  0  0  0  0  0
   25.4011  -18.8521  -12.7111 O   0  0  0  0  0  0  0  0  0  0  0  0
   26.0112  -20.9738  -12.1117 N   0  0  0  0  0  0  0  0  0  0  0  0
   26.2344  -20.6310  -10.7441 C   0  0  1  0  0  0  0  0  0  0  0  0
   25.1361  -21.1979   -9.8338 C   0  0  0  0  0  0  0  0  0  0  0  0
   25.5466  -20.8373   -8.1134 S   0  0  0  0  0  0  0  0  0  0  0  0
   27.5515  -21.0565  -10.2363 C   0  0  0  0  0  0  0  0  0  0  0  0
   28.1581  -21.9845  -10.8101 O   0  0  0  0  0  0  0  0  0  0  0  0
   28.1374  -20.4586   -9.1421 O   0  0  0  0  0  0  0  0  0  0  0  0
  2  9  1  0
  2  1  1  1
  3  2  1  0
  4  5  2  0
  4  3  1  0
  6  5  1  0
  7  8  2  0
  7  6  1  0
  8  4  1  0
  9 10  2  0
 11 12  1  0
 13 12  1  6
 14 13  1  0
 14  9  1  0
 15 17  1  0
 15 13  1  0
 16 15  2  0
 18 17  1  0
 18 19  1  1
 20 19  1  0
 21 18  1  0
 22 21  2  0
 23 21  1  0
M  END
$$$$
