HSC.pdb
     RDKit          3D

 23 23  0  0  1  0  0  0  0  0999 V2000
   18.9747  -12.3936  -17.2666 N   0  0  0  0  0  0  0  0  0  0  0  0
   18.1836  -11.3554  -16.6433 C   0  0  1  0  0  0  0  0  0  0  0  0
   18.0086  -11.7137  -15.1694 C   0  0  0  0  0  0  0  0  0  0  0  0
   17.0372  -12.8376  -15.0466 C   0  0  0  0  0  0  0  0  0  0  0  0
   15.6800  -12.7930  -15.1708 C   0  0  0  0  0  0  0  0  0  0  0  0
   15.2104  -14.0411  -14.9823 N   0  0  0  0  0  0  0  0  0  0  0  0
   16.2264  -14.8743  -14.7429 C   0  0  0  0  0  0  0  0  0  0  0  0
   17.3531  -14.1181  -14.7851 N   0  0  0  0  0  0  0  0  0  0  0  0
   18.9371  -10.0808  -16.7356 C   0  0  0  0  0  0  0  0  0  0  0  0
   20.1449  -10.0558  -16.4522 O   0  0  0  0  0  0  0  0  0  0  0  0
   19.1955   -5.4609  -18.2010 O   0  0  0  0  0  0  0  0  0  0  0  0
   18.3851   -6.5666  -17.9988 C   0  0  0  0  0  0  0  0  0  0  0  0
   19.1006   -7.6860  -17.3009 C   0  0  2  0  0  0  0  0  0  0  0  0
   18.3303   -8.8717  -17.1391 N   0  0  0  0  0  0  0  0  0  0  0  0
   19.4922   -7.1980  -15.9536 C   0  0  0  0  0  0  0  0  0  0  0  0
   18.7397   -7.2521  -14.9474 O   0  0  0  0  0  0  0  0  0  0  0  0
   20.7848   -6.6341  -15.7654 N   0  0  0  0  0  0  0  0  0  0  0  0
   21.1902   -6.0336  -14.5355 C   0  0  1  0  0  0  0  0  0  0  0  0
   22.0092   -7.0062  -13.6757 C   0  0  0  0  0  0  0  0  0  0  0  0
   22.4922   -6.1819  -12.1441 S   0  0  0  0  0  0  0  0  0  0  0  0
   21.9522   -4.7838  -14.7120 C   0  0  0  0  0  0  0  0  0  0  0  0
   22.5401   -4.5727  -15.7929 O   0  0  0  0  0  0  0  0  0  0  0  0
   22.0364   -3.8360  -13.7157 O   0  0  0  0  0  0  0  0  0  0  0  0
  2  9  1  0
  2  1  1  6
  3  2  1  0
  4  5  2  0
  4  3  1  0
  6  5  1  0
  7  8  2  0
  7  6  1  0
  8  4  1  0
  9 10  2  0
 11 12  1  0
 13 12  1  1
 14 13  1  0
 14  9  1  0
 15 17  1  0
 15 13  1  0
 16 15  2  0
 18 17  1  0
 18 19  1  6
 20 19  1  0
 21 18  1  0
 22 21  2  0
 23 21  1  0
M  END
$$$$
