HSC.pdb
     RDKit          3D

 23 23  0  0  1  0  0  0  0  0999 V2000
   23.2875  -14.0210  -15.7280 N   0  0  0  0  0  0  0  0  0  0  0  0
   21.9414  -13.5746  -16.0128 C   0  0  1  0  0  0  0  0  0  0  0  0
   20.9784  -14.4044  -15.1669 C   0  0  0  0  0  0  0  0  0  0  0  0
   21.0047  -15.8196  -15.6343 C   0  0  0  0  0  0  0  0  0  0  0  0
   21.3102  -16.9369  -14.9148 C   0  0  0  0  0  0  0  0  0  0  0  0
   21.2056  -17.9964  -15.7398 N   0  0  0  0  0  0  0  0  0  0  0  0
   20.8438  -17.5858  -16.9581 C   0  0  0  0  0  0  0  0  0  0  0  0
   20.7222  -16.2359  -16.8812 N   0  0  0  0  0  0  0  0  0  0  0  0
   21.8286  -12.1532  -15.6035 C   0  0  0  0  0  0  0  0  0  0  0  0
   22.2499  -11.7954  -14.4926 O   0  0  0  0  0  0  0  0  0  0  0  0
   22.0499   -7.5897  -16.2040 O   0  0  0  0  0  0  0  0  0  0  0  0
   22.1256   -8.8839  -16.6932 C   0  0  0  0  0  0  0  0  0  0  0  0
   21.1637   -9.8143  -16.0140 C   0  0  2  0  0  0  0  0  0  0  0  0
   21.2523  -11.1703  -16.4369 N   0  0  0  0  0  0  0  0  0  0  0  0
   19.7898   -9.3266  -16.2993 C   0  0  0  0  0  0  0  0  0  0  0  0
   19.1617   -9.5928  -17.3558 O   0  0  0  0  0  0  0  0  0  0  0  0
   19.1266   -8.5119  -15.3400 N   0  0  0  0  0  0  0  0  0  0  0  0
   17.7969   -8.0285  -15.5293 C   0  0  1  0  0  0  0  0  0  0  0  0
   17.1522   -7.6146  -14.1992 C   0  0  0  0  0  0  0  0  0  0  0  0
   17.2508   -8.9930  -13.0378 S   0  0  0  0  0  0  0  0  0  0  0  0
   17.7067   -6.9061  -16.4810 C   0  0  0  0  0  0  0  0  0  0  0  0
   18.7553   -6.3843  -16.9131 O   0  0  0  0  0  0  0  0  0  0  0  0
   16.4947   -6.4120  -16.9110 O   0  0  0  0  0  0  0  0  0  0  0  0
  2  9  1  0
  2  1  1  1
  3  2  1  0
  4  5  2  0
  4  3  1  0
  6  5  1  0
  7  8  2  0
  7  6  1  0
  8  4  1  0
  9 10  2  0
 11 12  1  0
 13 12  1  6
 14 13  1  0
 14  9  1  0
 15 17  1  0
 15 13  1  0
 16 15  2  0
 18 17  1  0
 18 19  1  1
 20 19  1  0
 21 18  1  0
 22 21  2  0
 23 21  1  0
M  END
$$$$
