HSC.pdb
     RDKit          3D

 23 23  0  0  1  0  0  0  0  0999 V2000
   18.7110  -13.1685  -15.9505 N   0  0  0  0  0  0  0  0  0  0  0  0
   19.0879  -12.0793  -16.8245 C   0  0  1  0  0  0  0  0  0  0  0  0
   18.0031  -11.9287  -17.8883 C   0  0  0  0  0  0  0  0  0  0  0  0
   18.0145  -13.1248  -18.7778 C   0  0  0  0  0  0  0  0  0  0  0  0
   17.1114  -14.1453  -18.8257 C   0  0  0  0  0  0  0  0  0  0  0  0
   17.5181  -15.0074  -19.7772 N   0  0  0  0  0  0  0  0  0  0  0  0
   18.6494  -14.5657  -20.3329 C   0  0  0  0  0  0  0  0  0  0  0  0
   18.9476  -13.3990  -19.7062 N   0  0  0  0  0  0  0  0  0  0  0  0
   19.1381  -10.8350  -16.0183 C   0  0  0  0  0  0  0  0  0  0  0  0
   18.1960  -10.5508  -15.2623 O   0  0  0  0  0  0  0  0  0  0  0  0
   22.5461   -9.5214  -14.8868 O   0  0  0  0  0  0  0  0  0  0  0  0
   21.5612   -8.6447  -14.4608 C   0  0  0  0  0  0  0  0  0  0  0  0
   20.2815   -8.7974  -15.2297 C   0  0  2  0  0  0  0  0  0  0  0  0
   20.2303   -9.9423  -16.0734 N   0  0  0  0  0  0  0  0  0  0  0  0
   20.1191   -7.5877  -16.0764 C   0  0  0  0  0  0  0  0  0  0  0  0
   20.5875   -7.4832  -17.2389 O   0  0  0  0  0  0  0  0  0  0  0  0
   19.3980   -6.4722  -15.5667 N   0  0  0  0  0  0  0  0  0  0  0  0
   19.1063   -5.3192  -16.3561 C   0  0  1  0  0  0  0  0  0  0  0  0
   17.7561   -4.6987  -15.9712 C   0  0  0  0  0  0  0  0  0  0  0  0
   16.4967   -5.9915  -15.9388 S   0  0  0  0  0  0  0  0  0  0  0  0
   20.1515   -4.2813  -16.2937 C   0  0  0  0  0  0  0  0  0  0  0  0
   21.1260   -4.4391  -15.5295 O   0  0  0  0  0  0  0  0  0  0  0  0
   20.0864   -3.1360  -17.0565 O   0  0  0  0  0  0  0  0  0  0  0  0
  2  9  1  0
  2  1  1  1
  3  2  1  0
  4  5  2  0
  4  3  1  0
  6  5  1  0
  7  8  2  0
  7  6  1  0
  8  4  1  0
  9 10  2  0
 11 12  1  0
 13 12  1  6
 14 13  1  0
 14  9  1  0
 15 17  1  0
 15 13  1  0
 16 15  2  0
 18 17  1  0
 18 19  1  1
 20 19  1  0
 21 18  1  0
 22 21  2  0
 23 21  1  0
M  END
$$$$
