HSC.pdb
     RDKit          3D

 23 23  0  0  1  0  0  0  0  0999 V2000
   24.4550  -11.3357  -18.5421 N   0  0  0  0  0  0  0  0  0  0  0  0
   24.3775  -11.0067  -17.1357 C   0  0  1  0  0  0  0  0  0  0  0  0
   25.7492  -10.5050  -16.6905 C   0  0  0  0  0  0  0  0  0  0  0  0
   26.6878  -11.6586  -16.5893 C   0  0  0  0  0  0  0  0  0  0  0  0
   26.8861  -12.6624  -17.4906 C   0  0  0  0  0  0  0  0  0  0  0  0
   27.8257  -13.4853  -16.9866 N   0  0  0  0  0  0  0  0  0  0  0  0
   28.2283  -13.0349  -15.7955 C   0  0  0  0  0  0  0  0  0  0  0  0
   27.5170  -11.9030  -15.5595 N   0  0  0  0  0  0  0  0  0  0  0  0
   23.3940   -9.9084  -16.9707 C   0  0  0  0  0  0  0  0  0  0  0  0
   23.3040   -9.0250  -17.8374 O   0  0  0  0  0  0  0  0  0  0  0  0
   20.9464   -9.4279  -13.5258 O   0  0  0  0  0  0  0  0  0  0  0  0
   20.4531   -9.0834  -14.7741 C   0  0  0  0  0  0  0  0  0  0  0  0
   21.5426   -8.8087  -15.7689 C   0  0  2  0  0  0  0  0  0  0  0  0
   22.5394   -9.8212  -15.8505 N   0  0  0  0  0  0  0  0  0  0  0  0
   22.2017   -7.5375  -15.3738 C   0  0  0  0  0  0  0  0  0  0  0  0
   23.3117   -7.4822  -14.7850 O   0  0  0  0  0  0  0  0  0  0  0  0
   21.5622   -6.3008  -15.6665 N   0  0  0  0  0  0  0  0  0  0  0  0
   22.1465   -5.0382  -15.3469 C   0  0  1  0  0  0  0  0  0  0  0  0
   21.8286   -3.9828  -16.4151 C   0  0  0  0  0  0  0  0  0  0  0  0
   22.5131   -2.3935  -15.9012 S   0  0  0  0  0  0  0  0  0  0  0  0
   21.7504   -4.5225  -14.0238 C   0  0  0  0  0  0  0  0  0  0  0  0
   20.5885   -4.7206  -13.6123 O   0  0  0  0  0  0  0  0  0  0  0  0
   22.6271   -3.8247  -13.2223 O   0  0  0  0  0  0  0  0  0  0  0  0
  2  9  1  0
  2  1  1  6
  3  2  1  0
  4  5  2  0
  4  3  1  0
  6  5  1  0
  7  8  2  0
  7  6  1  0
  8  4  1  0
  9 10  2  0
 11 12  1  0
 13 12  1  1
 14 13  1  0
 14  9  1  0
 15 17  1  0
 15 13  1  0
 16 15  2  0
 18 17  1  0
 18 19  1  6
 20 19  1  0
 21 18  1  0
 22 21  2  0
 23 21  1  0
M  END
$$$$
