HSC.pdb
     RDKit          3D

 23 23  0  0  1  0  0  0  0  0999 V2000
   19.5035  -19.0997  -16.6208 N   0  0  0  0  0  0  0  0  0  0  0  0
   20.7787  -18.4305  -16.4859 C   0  0  1  0  0  0  0  0  0  0  0  0
   20.5972  -17.2535  -15.5304 C   0  0  0  0  0  0  0  0  0  0  0  0
   20.1082  -16.0697  -16.2930 C   0  0  0  0  0  0  0  0  0  0  0  0
   20.8462  -15.0900  -16.8886 C   0  0  0  0  0  0  0  0  0  0  0  0
   19.9894  -14.2235  -17.4622 N   0  0  0  0  0  0  0  0  0  0  0  0
   18.7330  -14.6230  -17.2488 C   0  0  0  0  0  0  0  0  0  0  0  0
   18.8185  -15.7674  -16.5237 N   0  0  0  0  0  0  0  0  0  0  0  0
   21.7414  -19.3857  -15.8845 C   0  0  0  0  0  0  0  0  0  0  0  0
   21.3814  -20.1199  -14.9513 O   0  0  0  0  0  0  0  0  0  0  0  0
   24.6660  -21.4757  -17.9018 O   0  0  0  0  0  0  0  0  0  0  0  0
   25.0803  -20.8702  -16.7264 C   0  0  0  0  0  0  0  0  0  0  0  0
   23.9337  -20.5134  -15.8262 C   0  0  2  0  0  0  0  0  0  0  0  0
   23.0745  -19.4993  -16.3349 N   0  0  0  0  0  0  0  0  0  0  0  0
   24.5039  -20.0381  -14.5395 C   0  0  0  0  0  0  0  0  0  0  0  0
   24.7973  -18.8370  -14.3091 O   0  0  0  0  0  0  0  0  0  0  0  0
   24.7402  -20.9738  -13.4943 N   0  0  0  0  0  0  0  0  0  0  0  0
   25.5174  -20.6571  -12.3396 C   0  0  1  0  0  0  0  0  0  0  0  0
   24.9919  -21.3780  -11.0905 C   0  0  0  0  0  0  0  0  0  0  0  0
   26.0274  -20.9461   -9.6764 S   0  0  0  0  0  0  0  0  0  0  0  0
   26.9543  -20.9471  -12.4974 C   0  0  0  0  0  0  0  0  0  0  0  0
   27.3082  -22.0436  -12.9779 O   0  0  0  0  0  0  0  0  0  0  0  0
   27.9244  -20.0408  -12.1292 O   0  0  0  0  0  0  0  0  0  0  0  0
  2  9  1  0
  2  1  1  1
  3  2  1  0
  4  5  2  0
  4  3  1  0
  6  5  1  0
  7  8  2  0
  7  6  1  0
  8  4  1  0
  9 10  2  0
 11 12  1  0
 13 12  1  6
 14 13  1  0
 14  9  1  0
 15 17  1  0
 15 13  1  0
 16 15  2  0
 18 17  1  0
 18 19  1  1
 20 19  1  0
 21 18  1  0
 22 21  2  0
 23 21  1  0
M  END
$$$$
