HSC.pdb
     RDKit          3D

 23 23  0  0  1  0  0  0  0  0999 V2000
   17.8149  -11.4506  -17.5064 N   0  0  0  0  0  0  0  0  0  0  0  0
   18.4334  -11.1122  -16.2434 C   0  0  1  0  0  0  0  0  0  0  0  0
   19.7794  -11.8290  -16.1682 C   0  0  0  0  0  0  0  0  0  0  0  0
   19.5506  -13.2944  -16.0181 C   0  0  0  0  0  0  0  0  0  0  0  0
   18.4060  -13.9320  -15.6407 C   0  0  0  0  0  0  0  0  0  0  0  0
   18.6555  -15.2556  -15.6413 N   0  0  0  0  0  0  0  0  0  0  0  0
   19.9209  -15.4762  -16.0070 C   0  0  0  0  0  0  0  0  0  0  0  0
   20.4659  -14.2545  -16.2379 N   0  0  0  0  0  0  0  0  0  0  0  0
   18.6735   -9.6484  -16.2230 C   0  0  0  0  0  0  0  0  0  0  0  0
   19.4706   -9.1423  -17.0281 O   0  0  0  0  0  0  0  0  0  0  0  0
   16.9618   -7.0705  -13.3461 O   0  0  0  0  0  0  0  0  0  0  0  0
   17.1946   -6.5772  -14.6198 C   0  0  0  0  0  0  0  0  0  0  0  0
   18.2160   -7.3798  -15.3713 C   0  0  2  0  0  0  0  0  0  0  0  0
   18.0236   -8.7886  -15.3113 N   0  0  0  0  0  0  0  0  0  0  0  0
   19.5478   -7.0669  -14.7924 C   0  0  0  0  0  0  0  0  0  0  0  0
   20.1255   -7.7918  -13.9425 O   0  0  0  0  0  0  0  0  0  0  0  0
   20.2278   -5.8877  -15.2063 N   0  0  0  0  0  0  0  0  0  0  0  0
   21.5074   -5.5177  -14.6933 C   0  0  1  0  0  0  0  0  0  0  0  0
   22.5936   -5.5979  -15.7749 C   0  0  0  0  0  0  0  0  0  0  0  0
   24.1341   -4.9222  -15.1200 S   0  0  0  0  0  0  0  0  0  0  0  0
   21.5325   -4.1770  -14.0804 C   0  0  0  0  0  0  0  0  0  0  0  0
   20.7410   -3.3023  -14.4891 O   0  0  0  0  0  0  0  0  0  0  0  0
   22.4069   -3.8572  -13.0650 O   0  0  0  0  0  0  0  0  0  0  0  0
  2  9  1  0
  2  1  1  6
  3  2  1  0
  4  5  2  0
  4  3  1  0
  6  5  1  0
  7  8  2  0
  7  6  1  0
  8  4  1  0
  9 10  2  0
 11 12  1  0
 13 12  1  1
 14 13  1  0
 14  9  1  0
 15 17  1  0
 15 13  1  0
 16 15  2  0
 18 17  1  0
 18 19  1  6
 20 19  1  0
 21 18  1  0
 22 21  2  0
 23 21  1  0
M  END
$$$$
