HSC.pdb
     RDKit          3D

 23 23  0  0  1  0  0  0  0  0999 V2000
   24.3044  -22.1856  -18.0680 N   0  0  0  0  0  0  0  0  0  0  0  0
   24.2354  -21.5803  -16.7561 C   0  0  1  0  0  0  0  0  0  0  0  0
   25.6219  -21.6644  -16.1223 C   0  0  0  0  0  0  0  0  0  0  0  0
   25.9557  -23.0920  -15.8528 C   0  0  0  0  0  0  0  0  0  0  0  0
   25.4934  -23.8878  -14.8468 C   0  0  0  0  0  0  0  0  0  0  0  0
   26.0601  -25.1011  -14.9914 N   0  0  0  0  0  0  0  0  0  0  0  0
   26.8660  -25.0989  -16.0563 C   0  0  0  0  0  0  0  0  0  0  0  0
   26.7936  -23.8494  -16.5822 N   0  0  0  0  0  0  0  0  0  0  0  0
   23.8764  -20.1507  -16.9242 C   0  0  0  0  0  0  0  0  0  0  0  0
   24.5415  -19.4327  -17.6869 O   0  0  0  0  0  0  0  0  0  0  0  0
   20.8688  -18.1949  -14.6392 O   0  0  0  0  0  0  0  0  0  0  0  0
   21.1149  -17.7830  -15.9391 C   0  0  0  0  0  0  0  0  0  0  0  0
   22.4786  -18.1821  -16.4221 C   0  0  2  0  0  0  0  0  0  0  0  0
   22.7913  -19.5588  -16.2422 N   0  0  0  0  0  0  0  0  0  0  0  0
   23.4750  -17.3765  -15.6706 C   0  0  0  0  0  0  0  0  0  0  0  0
   23.8165  -17.6206  -14.4851 O   0  0  0  0  0  0  0  0  0  0  0  0
   24.0910  -16.2620  -16.3051 N   0  0  0  0  0  0  0  0  0  0  0  0
   24.9383  -15.3505  -15.6058 C   0  0  1  0  0  0  0  0  0  0  0  0
   26.3675  -15.3659  -16.1656 C   0  0  0  0  0  0  0  0  0  0  0  0
   27.3523  -14.1167  -15.3124 S   0  0  0  0  0  0  0  0  0  0  0  0
   24.4359  -13.9645  -15.5989 C   0  0  0  0  0  0  0  0  0  0  0  0
   23.8708  -13.5131  -16.6165 O   0  0  0  0  0  0  0  0  0  0  0  0
   24.5711  -13.1468  -14.4984 O   0  0  0  0  0  0  0  0  0  0  0  0
  2  9  1  0
  2  1  1  6
  3  2  1  0
  4  5  2  0
  4  3  1  0
  6  5  1  0
  7  8  2  0
  7  6  1  0
  8  4  1  0
  9 10  2  0
 11 12  1  0
 13 12  1  1
 14 13  1  0
 14  9  1  0
 15 17  1  0
 15 13  1  0
 16 15  2  0
 18 17  1  0
 18 19  1  6
 20 19  1  0
 21 18  1  0
 22 21  2  0
 23 21  1  0
M  END
$$$$
