HSC.pdb
     RDKit          3D

 23 23  0  0  1  0  0  0  0  0999 V2000
   37.9749  -37.2974   -8.9475 N   0  0  0  0  0  0  0  0  0  0  0  0
   36.7407  -36.6376   -9.3132 C   0  0  1  0  0  0  0  0  0  0  0  0
   35.8025  -37.6846   -9.9088 C   0  0  0  0  0  0  0  0  0  0  0  0
   36.1177  -37.8644  -11.3547 C   0  0  0  0  0  0  0  0  0  0  0  0
   36.9474  -37.1135  -12.1338 C   0  0  0  0  0  0  0  0  0  0  0  0
   36.9297  -37.6378  -13.3743 N   0  0  0  0  0  0  0  0  0  0  0  0
   36.1157  -38.6961  -13.4055 C   0  0  0  0  0  0  0  0  0  0  0  0
   35.6182  -38.8272  -12.1492 N   0  0  0  0  0  0  0  0  0  0  0  0
   36.1229  -36.0942   -8.0788 C   0  0  0  0  0  0  0  0  0  0  0  0
   36.4728  -36.5287   -6.9705 O   0  0  0  0  0  0  0  0  0  0  0  0
   34.2665  -32.3971   -7.8397 O   0  0  0  0  0  0  0  0  0  0  0  0
   33.6718  -33.3941   -7.0832 C   0  0  0  0  0  0  0  0  0  0  0  0
   34.5602  -34.5903   -6.9050 C   0  0  2  0  0  0  0  0  0  0  0  0
   35.1357  -35.0855   -8.1088 N   0  0  0  0  0  0  0  0  0  0  0  0
   33.7409  -35.6724   -6.3013 C   0  0  0  0  0  0  0  0  0  0  0  0
   33.5091  -36.7701   -6.8697 O   0  0  0  0  0  0  0  0  0  0  0  0
   33.1763  -35.4807   -5.0096 N   0  0  0  0  0  0  0  0  0  0  0  0
   32.4775  -36.5134   -4.3147 C   0  0  1  0  0  0  0  0  0  0  0  0
   33.3796  -37.7272   -4.0522 C   0  0  0  0  0  0  0  0  0  0  0  0
   32.3925  -39.0552   -3.3308 S   0  0  0  0  0  0  0  0  0  0  0  0
   31.8812  -36.0691   -3.0417 C   0  0  0  0  0  0  0  0  0  0  0  0
   30.7906  -36.5533   -2.6746 O   0  0  0  0  0  0  0  0  0  0  0  0
   32.4931  -35.1309   -2.2396 O   0  0  0  0  0  0  0  0  0  0  0  0
  2  9  1  0
  2  1  1  1
  3  2  1  0
  4  5  2  0
  4  3  1  0
  6  5  1  0
  7  8  2  0
  7  6  1  0
  8  4  1  0
  9 10  2  0
 11 12  1  0
 13 12  1  6
 14 13  1  0
 14  9  1  0
 15 17  1  0
 15 13  1  0
 16 15  2  0
 18 17  1  0
 18 19  1  1
 20 19  1  0
 21 18  1  0
 22 21  2  0
 23 21  1  0
M  END
$$$$
