HSC.pdb
     RDKit          3D

 23 23  0  0  1  0  0  0  0  0999 V2000
   15.9172  -12.2097  -12.7263 N   0  0  0  0  0  0  0  0  0  0  0  0
   15.0604  -11.3920  -11.8959 C   0  0  1  0  0  0  0  0  0  0  0  0
   14.7838  -12.1565  -10.6035 C   0  0  0  0  0  0  0  0  0  0  0  0
   13.8337  -13.2707  -10.8827 C   0  0  0  0  0  0  0  0  0  0  0  0
   12.4709  -13.2407  -10.8523 C   0  0  0  0  0  0  0  0  0  0  0  0
   12.0271  -14.4718  -11.1709 N   0  0  0  0  0  0  0  0  0  0  0  0
   13.0650  -15.2799  -11.4019 C   0  0  0  0  0  0  0  0  0  0  0  0
   14.1789  -14.5255  -11.2206 N   0  0  0  0  0  0  0  0  0  0  0  0
   15.7919  -10.1452  -11.5624 C   0  0  0  0  0  0  0  0  0  0  0  0
   16.9603  -10.2067  -11.1491 O   0  0  0  0  0  0  0  0  0  0  0  0
   16.9340   -7.5743  -13.6515 O   0  0  0  0  0  0  0  0  0  0  0  0
   16.2476   -6.8650  -12.6789 C   0  0  0  0  0  0  0  0  0  0  0  0
   15.9665   -7.6877  -11.4557 C   0  0  2  0  0  0  0  0  0  0  0  0
   15.2075   -8.8672  -11.6966 N   0  0  0  0  0  0  0  0  0  0  0  0
   15.2102   -6.8338  -10.5041 C   0  0  0  0  0  0  0  0  0  0  0  0
   13.9616   -6.8856  -10.3629 O   0  0  0  0  0  0  0  0  0  0  0  0
   15.9145   -5.8978   -9.6967 N   0  0  0  0  0  0  0  0  0  0  0  0
   15.2507   -4.9613   -8.8482 C   0  0  1  0  0  0  0  0  0  0  0  0
   15.3741   -5.3536   -7.3693 C   0  0  0  0  0  0  0  0  0  0  0  0
   14.4834   -4.1509   -6.3601 S   0  0  0  0  0  0  0  0  0  0  0  0
   15.7175   -3.5736   -9.0216 C   0  0  0  0  0  0  0  0  0  0  0  0
   16.9359   -3.3530   -9.1808 O   0  0  0  0  0  0  0  0  0  0  0  0
   14.8464   -2.5064   -9.0134 O   0  0  0  0  0  0  0  0  0  0  0  0
  2  9  1  0
  2  1  1  6
  3  2  1  0
  4  5  2  0
  4  3  1  0
  6  5  1  0
  7  8  2  0
  7  6  1  0
  8  4  1  0
  9 10  2  0
 11 12  1  0
 13 12  1  6
 14 13  1  0
 14  9  1  0
 15 17  1  0
 15 13  1  0
 16 15  2  0
 18 17  1  0
 18 19  1  1
 20 19  1  0
 21 18  1  0
 22 21  2  0
 23 21  1  0
M  END
$$$$
