HSC.pdb
     RDKit          3D

 23 23  0  0  1  0  0  0  0  0999 V2000
   21.4258  -14.9329  -19.1744 N   0  0  0  0  0  0  0  0  0  0  0  0
   21.7184  -13.5784  -19.5893 C   0  0  1  0  0  0  0  0  0  0  0  0
   20.5176  -13.0532  -20.3726 C   0  0  0  0  0  0  0  0  0  0  0  0
   20.4371  -13.7576  -21.6838 C   0  0  0  0  0  0  0  0  0  0  0  0
   20.8481  -13.3107  -22.9047 C   0  0  0  0  0  0  0  0  0  0  0  0
   20.5807  -14.2759  -23.8052 N   0  0  0  0  0  0  0  0  0  0  0  0
   20.0138  -15.3192  -23.1938 C   0  0  0  0  0  0  0  0  0  0  0  0
   19.9298  -14.9872  -21.8801 N   0  0  0  0  0  0  0  0  0  0  0  0
   21.8908  -12.7483  -18.3720 C   0  0  0  0  0  0  0  0  0  0  0  0
   21.2495  -13.0184  -17.3446 O   0  0  0  0  0  0  0  0  0  0  0  0
   24.5987   -9.4110  -18.0432 O   0  0  0  0  0  0  0  0  0  0  0  0
   24.3227  -10.2769  -16.9973 C   0  0  0  0  0  0  0  0  0  0  0  0
   22.9718  -10.9185  -17.1210 C   0  0  2  0  0  0  0  0  0  0  0  0
   22.7685  -11.6435  -18.3288 N   0  0  0  0  0  0  0  0  0  0  0  0
   21.9536   -9.8392  -17.0492 C   0  0  0  0  0  0  0  0  0  0  0  0
   21.3721   -9.3620  -18.0571 O   0  0  0  0  0  0  0  0  0  0  0  0
   21.5994   -9.2989  -15.7817 N   0  0  0  0  0  0  0  0  0  0  0  0
   20.6319   -8.2601  -15.6316 C   0  0  1  0  0  0  0  0  0  0  0  0
   19.8286   -8.4204  -14.3335 C   0  0  0  0  0  0  0  0  0  0  0  0
   18.9775  -10.0121  -14.3552 S   0  0  0  0  0  0  0  0  0  0  0  0
   21.2093   -6.9044  -15.6794 C   0  0  0  0  0  0  0  0  0  0  0  0
   22.4499   -6.7680  -15.7053 O   0  0  0  0  0  0  0  0  0  0  0  0
   20.4182   -5.7766  -15.6966 O   0  0  0  0  0  0  0  0  0  0  0  0
  2  9  1  0
  2  1  1  1
  3  2  1  0
  4  5  2  0
  4  3  1  0
  6  5  1  0
  7  8  2  0
  7  6  1  0
  8  4  1  0
  9 10  2  0
 11 12  1  0
 13 12  1  6
 14 13  1  0
 14  9  1  0
 15 17  1  0
 15 13  1  0
 16 15  2  0
 18 17  1  0
 18 19  1  1
 20 19  1  0
 21 18  1  0
 22 21  2  0
 23 21  1  0
M  END
$$$$
