HSC.pdb
     RDKit          3D

 23 23  0  0  1  0  0  0  0  0999 V2000
   18.2585  -11.0867  -16.0870 N   0  0  0  0  0  0  0  0  0  0  0  0
   19.5835  -10.5073  -16.0589 C   0  0  1  0  0  0  0  0  0  0  0  0
   20.1537  -10.5601  -17.4743 C   0  0  0  0  0  0  0  0  0  0  0  0
   20.3286  -11.9828  -17.8832 C   0  0  0  0  0  0  0  0  0  0  0  0
   19.8309  -12.6070  -18.9886 C   0  0  0  0  0  0  0  0  0  0  0  0
   20.2394  -13.8899  -18.9531 N   0  0  0  0  0  0  0  0  0  0  0  0
   20.9794  -14.0979  -17.8610 C   0  0  0  0  0  0  0  0  0  0  0  0
   21.0280  -12.9100  -17.2057 N   0  0  0  0  0  0  0  0  0  0  0  0
   19.4590   -9.0866  -15.6502 C   0  0  0  0  0  0  0  0  0  0  0  0
   18.5764   -8.3745  -16.1538 O   0  0  0  0  0  0  0  0  0  0  0  0
   21.6884   -7.4818  -12.4910 O   0  0  0  0  0  0  0  0  0  0  0  0
   20.5136   -6.8547  -12.8737 C   0  0  0  0  0  0  0  0  0  0  0  0
   20.1457   -7.1404  -14.3003 C   0  0  2  0  0  0  0  0  0  0  0  0
   20.3158   -8.4970  -14.6957 N   0  0  0  0  0  0  0  0  0  0  0  0
   21.0060   -6.2923  -15.1646 C   0  0  0  0  0  0  0  0  0  0  0  0
   22.1229   -6.6602  -15.6109 O   0  0  0  0  0  0  0  0  0  0  0  0
   20.5645   -4.9878  -15.5215 N   0  0  0  0  0  0  0  0  0  0  0  0
   21.3363   -4.1128  -16.3438 C   0  0  1  0  0  0  0  0  0  0  0  0
   20.4525   -3.0722  -17.0455 C   0  0  0  0  0  0  0  0  0  0  0  0
   18.9909   -3.8913  -17.7172 S   0  0  0  0  0  0  0  0  0  0  0  0
   22.4163   -3.4200  -15.6177 C   0  0  0  0  0  0  0  0  0  0  0  0
   22.3790   -3.3659  -14.3710 O   0  0  0  0  0  0  0  0  0  0  0  0
   23.4717   -2.8271  -16.2754 O   0  0  0  0  0  0  0  0  0  0  0  0
  2  9  1  0
  2  1  1  6
  3  2  1  0
  4  5  2  0
  4  3  1  0
  6  5  1  0
  7  8  2  0
  7  6  1  0
  8  4  1  0
  9 10  2  0
 11 12  1  0
 13 12  1  1
 14 13  1  0
 14  9  1  0
 15 17  1  0
 15 13  1  0
 16 15  2  0
 18 17  1  0
 18 19  1  1
 20 19  1  0
 21 18  1  0
 22 21  2  0
 23 21  1  0
M  END
$$$$
