NGG.pdb
     RDKit          3D

 17 16  0  0  1  0  0  0  0  0999 V2000
    7.1598  -12.4182   17.6288 N   0  0  0  0  0  0  0  0  0  0  0  0
    7.6473  -13.7402   17.6743 C   0  0  0  0  0  0  0  0  0  0  0  0
    8.1242  -14.2649   16.6637 O   0  0  0  0  0  0  0  0  0  0  0  0
    7.5815  -14.4940   18.9479 C   0  0  0  0  0  0  0  0  0  0  0  0
    8.8694  -14.3310   19.7311 C   0  0  2  0  0  0  0  0  0  0  0  0
    9.9210  -14.9888   18.9922 N   0  0  0  0  0  0  0  0  0  0  0  0
    8.7445  -14.9672   21.0592 C   0  0  0  0  0  0  0  0  0  0  0  0
    7.9719  -14.5006   21.9447 O   0  0  0  0  0  0  0  0  0  0  0  0
    9.5111  -16.1421   21.3648 N   0  0  0  0  0  0  0  0  0  0  0  0
   10.9460  -16.0658   21.3031 C   0  0  0  0  0  0  0  0  0  0  0  0
   11.5221  -16.6035   22.5586 C   0  0  0  0  0  0  0  0  0  0  0  0
   12.7737  -16.5422   22.8052 O   0  0  0  0  0  0  0  0  0  0  0  0
   10.7198  -17.2197   23.5646 N   0  0  0  0  0  0  0  0  0  0  0  0
   10.8572  -16.8466   24.9463 C   0  0  0  0  0  0  0  0  0  0  0  0
   11.9940  -17.5989   25.5262 C   0  0  0  0  0  0  0  0  0  0  0  0
   11.8271  -18.4492   26.6262 O   0  0  0  0  0  0  0  0  0  0  0  0
   13.1456  -17.5098   25.0631 O   0  0  0  0  0  0  0  0  0  0  0  0
  1  2  1  0
  2  3  2  0
  4  2  1  0
  5  4  1  0
  5  6  1  6
  7  8  2  0
  7  5  1  0
  9  7  1  0
 10 11  1  0
 10  9  1  0
 11 13  1  0
 12 11  2  0
 13 14  1  0
 14 15  1  0
 15 16  1  0
 17 15  2  0
M  END
$$$$
