NGG.pdb
     RDKit          3D

 17 16  0  0  1  0  0  0  0  0999 V2000
    2.5788  -26.4222   24.6972 N   0  0  0  0  0  0  0  0  0  0  0  0
    2.8466  -25.0470   24.8546 C   0  0  0  0  0  0  0  0  0  0  0  0
    2.4115  -24.4344   25.8341 O   0  0  0  0  0  0  0  0  0  0  0  0
    3.6558  -24.3441   23.8320 C   0  0  0  0  0  0  0  0  0  0  0  0
    5.1353  -24.4927   24.1282 C   0  0  2  0  0  0  0  0  0  0  0  0
    5.2997  -24.4948   25.5626 N   0  0  0  0  0  0  0  0  0  0  0  0
    5.8877  -23.3548   23.5597 C   0  0  0  0  0  0  0  0  0  0  0  0
    6.8818  -23.5346   22.7994 O   0  0  0  0  0  0  0  0  0  0  0  0
    5.4922  -22.0095   23.8687 N   0  0  0  0  0  0  0  0  0  0  0  0
    6.2430  -20.9216   23.3020 C   0  0  0  0  0  0  0  0  0  0  0  0
    7.1775  -20.3852   24.3200 C   0  0  0  0  0  0  0  0  0  0  0  0
    6.7647  -19.9342   25.4412 O   0  0  0  0  0  0  0  0  0  0  0  0
    8.5882  -20.3394   24.1129 N   0  0  0  0  0  0  0  0  0  0  0  0
    9.4614  -19.7876   25.1131 C   0  0  0  0  0  0  0  0  0  0  0  0
   10.5882  -20.7259   25.3238 C   0  0  0  0  0  0  0  0  0  0  0  0
   11.8381  -20.2833   25.7740 O   0  0  0  0  0  0  0  0  0  0  0  0
   10.4752  -21.9468   25.1111 O   0  0  0  0  0  0  0  0  0  0  0  0
  1  2  1  0
  2  3  2  0
  4  2  1  0
  5  4  1  0
  5  6  1  1
  7  8  2  0
  7  5  1  0
  9  7  1  0
 10 11  1  0
 10  9  1  0
 11 13  1  0
 12 11  2  0
 13 14  1  0
 14 15  1  0
 15 16  1  0
 17 15  2  0
M  END
$$$$
