NGG.pdb
     RDKit          3D

 17 16  0  0  1  0  0  0  0  0999 V2000
    7.8608  -19.1439   16.8844 N   0  0  0  0  0  0  0  0  0  0  0  0
    8.0322  -17.8531   16.3441 C   0  0  0  0  0  0  0  0  0  0  0  0
    8.1303  -17.6952   15.1236 O   0  0  0  0  0  0  0  0  0  0  0  0
    8.0934  -16.6873   17.2561 C   0  0  0  0  0  0  0  0  0  0  0  0
    7.7456  -17.1001   18.6729 C   0  0  2  0  0  0  0  0  0  0  0  0
    6.3077  -17.1920   18.7650 N   0  0  0  0  0  0  0  0  0  0  0  0
    8.2250  -16.0847   19.6338 C   0  0  0  0  0  0  0  0  0  0  0  0
    9.4591  -15.8957   19.8338 O   0  0  0  0  0  0  0  0  0  0  0  0
    7.2798  -15.2874   20.3635 N   0  0  0  0  0  0  0  0  0  0  0  0
    7.7746  -14.2745   21.2567 C   0  0  0  0  0  0  0  0  0  0  0  0
    7.9681  -14.8590   22.6052 C   0  0  0  0  0  0  0  0  0  0  0  0
    6.9807  -15.1440   23.3632 O   0  0  0  0  0  0  0  0  0  0  0  0
    9.2617  -15.1384   23.1380 N   0  0  0  0  0  0  0  0  0  0  0  0
    9.4093  -15.7303   24.4399 C   0  0  0  0  0  0  0  0  0  0  0  0
   10.8533  -15.9246   24.7077 C   0  0  0  0  0  0  0  0  0  0  0  0
   11.3086  -16.4890   25.9056 O   0  0  0  0  0  0  0  0  0  0  0  0
   11.7248  -15.5961   23.8823 O   0  0  0  0  0  0  0  0  0  0  0  0
  1  2  1  0
  2  3  2  0
  4  2  1  0
  5  4  1  0
  5  6  1  6
  7  8  2  0
  7  5  1  0
  9  7  1  0
 10 11  1  0
 10  9  1  0
 11 13  1  0
 12 11  2  0
 13 14  1  0
 14 15  1  0
 15 16  1  0
 17 15  2  0
M  END
$$$$
