NGG.pdb
     RDKit          3D

 17 16  0  0  1  0  0  0  0  0999 V2000
    6.2491  -12.9366   18.7394 N   0  0  0  0  0  0  0  0  0  0  0  0
    7.0523  -13.7323   17.8972 C   0  0  0  0  0  0  0  0  0  0  0  0
    6.6585  -14.0414   16.7687 O   0  0  0  0  0  0  0  0  0  0  0  0
    8.3743  -14.1942   18.3804 C   0  0  0  0  0  0  0  0  0  0  0  0
    8.2524  -15.5459   19.0563 C   0  0  2  0  0  0  0  0  0  0  0  0
    7.5100  -15.3612   20.2808 N   0  0  0  0  0  0  0  0  0  0  0  0
    9.5923  -16.0776   19.3820 C   0  0  0  0  0  0  0  0  0  0  0  0
   10.3477  -16.5564   18.4882 O   0  0  0  0  0  0  0  0  0  0  0  0
   10.0601  -16.0564   20.7393 N   0  0  0  0  0  0  0  0  0  0  0  0
   11.3481  -16.6240   21.0348 C   0  0  0  0  0  0  0  0  0  0  0  0
   11.6312  -16.4759   22.4824 C   0  0  0  0  0  0  0  0  0  0  0  0
   12.7676  -16.0790   22.9087 O   0  0  0  0  0  0  0  0  0  0  0  0
   10.6578  -16.7655   23.4844 N   0  0  0  0  0  0  0  0  0  0  0  0
   10.9448  -16.5424   24.8755 C   0  0  0  0  0  0  0  0  0  0  0  0
   11.6237  -17.7437   25.4145 C   0  0  0  0  0  0  0  0  0  0  0  0
   11.9475  -17.8571   26.7722 O   0  0  0  0  0  0  0  0  0  0  0  0
   11.9359  -18.7040   24.6873 O   0  0  0  0  0  0  0  0  0  0  0  0
  1  2  1  0
  2  3  2  0
  4  2  1  0
  5  4  1  0
  5  6  1  1
  7  8  2  0
  7  5  1  0
  9  7  1  0
 10 11  1  0
 10  9  1  0
 11 13  1  0
 12 11  2  0
 13 14  1  0
 14 15  1  0
 15 16  1  0
 17 15  2  0
M  END
$$$$
