NGG.pdb
     RDKit          3D

 17 16  0  0  1  0  0  0  0  0999 V2000
    4.7304  -17.6533   14.0295 N   0  0  0  0  0  0  0  0  0  0  0  0
    4.8906  -18.5186   15.1310 C   0  0  0  0  0  0  0  0  0  0  0  0
    4.2062  -19.5416   15.2259 O   0  0  0  0  0  0  0  0  0  0  0  0
    5.8891  -18.1875   16.1741 C   0  0  0  0  0  0  0  0  0  0  0  0
    7.1611  -18.9861   15.9672 C   0  0  2  0  0  0  0  0  0  0  0  0
    6.8439  -20.3803   16.1675 N   0  0  0  0  0  0  0  0  0  0  0  0
    8.1859  -18.5799   16.9515 C   0  0  0  0  0  0  0  0  0  0  0  0
    8.6414  -17.4008   16.9820 O   0  0  0  0  0  0  0  0  0  0  0  0
    8.6845  -19.5349   17.9008 N   0  0  0  0  0  0  0  0  0  0  0  0
    9.7229  -19.1282   18.8091 C   0  0  0  0  0  0  0  0  0  0  0  0
   10.0269  -20.2413   19.7396 C   0  0  0  0  0  0  0  0  0  0  0  0
    9.1205  -20.7876   20.4543 O   0  0  0  0  0  0  0  0  0  0  0  0
   11.3432  -20.7692   19.8946 N   0  0  0  0  0  0  0  0  0  0  0  0
   12.3933  -19.9717   20.4676 C   0  0  0  0  0  0  0  0  0  0  0  0
   12.7247  -20.5194   21.8036 C   0  0  0  0  0  0  0  0  0  0  0  0
   13.8578  -21.3159   22.0103 O   0  0  0  0  0  0  0  0  0  0  0  0
   12.0133  -20.2969   22.8001 O   0  0  0  0  0  0  0  0  0  0  0  0
  1  2  1  0
  2  3  2  0
  4  2  1  0
  5  4  1  0
  5  6  1  1
  7  8  2  0
  7  5  1  0
  9  7  1  0
 10 11  1  0
 10  9  1  0
 11 13  1  0
 12 11  2  0
 13 14  1  0
 14 15  1  0
 15 16  1  0
 17 15  2  0
M  END
$$$$
