NGG.pdb
     RDKit          3D

 17 16  0  0  1  0  0  0  0  0999 V2000
    7.8967  -12.2779   18.8739 N   0  0  0  0  0  0  0  0  0  0  0  0
    8.1287  -13.4698   19.5903 C   0  0  0  0  0  0  0  0  0  0  0  0
    8.7952  -14.3799   19.0889 O   0  0  0  0  0  0  0  0  0  0  0  0
    7.5640  -13.6192   20.9517 C   0  0  0  0  0  0  0  0  0  0  0  0
    7.8976  -14.9844   21.5204 C   0  0  2  0  0  0  0  0  0  0  0  0
    7.0886  -15.9599   20.8287 N   0  0  0  0  0  0  0  0  0  0  0  0
    7.5776  -15.0300   22.9625 C   0  0  0  0  0  0  0  0  0  0  0  0
    8.1536  -14.2680   23.7910 O   0  0  0  0  0  0  0  0  0  0  0  0
    6.5925  -15.9549   23.4481 N   0  0  0  0  0  0  0  0  0  0  0  0
    6.3378  -16.0133   24.8624 C   0  0  0  0  0  0  0  0  0  0  0  0
    6.8523  -17.2941   25.4029 C   0  0  0  0  0  0  0  0  0  0  0  0
    6.8759  -18.3601   24.7001 O   0  0  0  0  0  0  0  0  0  0  0  0
    7.3505  -17.4160   26.7341 N   0  0  0  0  0  0  0  0  0  0  0  0
    7.6950  -18.7024   27.2761 C   0  0  0  0  0  0  0  0  0  0  0  0
    9.1185  -18.6749   27.6852 C   0  0  0  0  0  0  0  0  0  0  0  0
    9.9013  -17.5225   27.5433 O   0  0  0  0  0  0  0  0  0  0  0  0
    9.6817  -19.6720   28.1723 O   0  0  0  0  0  0  0  0  0  0  0  0
  1  2  1  0
  2  3  2  0
  4  2  1  0
  5  4  1  0
  5  6  1  6
  7  8  2  0
  7  5  1  0
  9  7  1  0
 10 11  1  0
 10  9  1  0
 11 13  1  0
 12 11  2  0
 13 14  1  0
 14 15  1  0
 15 16  1  0
 17 15  2  0
M  END
$$$$
