NGG.pdb
     RDKit          3D

 17 16  0  0  1  0  0  0  0  0999 V2000
   11.1366  -14.9823   28.2171 N   0  0  0  0  0  0  0  0  0  0  0  0
    9.8661  -14.4551   28.5260 C   0  0  0  0  0  0  0  0  0  0  0  0
    9.7546  -13.5268   29.3322 O   0  0  0  0  0  0  0  0  0  0  0  0
    8.6654  -15.0268   27.8732 C   0  0  0  0  0  0  0  0  0  0  0  0
    9.0567  -16.1311   26.9109 C   0  0  2  0  0  0  0  0  0  0  0  0
    9.7420  -15.5219   25.7957 N   0  0  0  0  0  0  0  0  0  0  0  0
    7.8514  -16.8264   26.4129 C   0  0  0  0  0  0  0  0  0  0  0  0
    7.3415  -17.7970   27.0427 O   0  0  0  0  0  0  0  0  0  0  0  0
    7.2346  -16.4009   25.1880 N   0  0  0  0  0  0  0  0  0  0  0  0
    6.9341  -17.3886   24.1867 C   0  0  0  0  0  0  0  0  0  0  0  0
    7.4345  -16.9241   22.8710 C   0  0  0  0  0  0  0  0  0  0  0  0
    6.7817  -16.0883   22.1595 O   0  0  0  0  0  0  0  0  0  0  0  0
    8.6695  -17.3784   22.3200 N   0  0  0  0  0  0  0  0  0  0  0  0
    9.6023  -16.4505   21.7400 C   0  0  0  0  0  0  0  0  0  0  0  0
   10.8081  -17.1989   21.3152 C   0  0  0  0  0  0  0  0  0  0  0  0
   11.1500  -17.3347   19.9640 O   0  0  0  0  0  0  0  0  0  0  0  0
   11.5700  -17.7392   22.1376 O   0  0  0  0  0  0  0  0  0  0  0  0
  1  2  1  0
  2  3  2  0
  4  2  1  0
  5  4  1  0
  5  6  1  6
  7  8  2  0
  7  5  1  0
  9  7  1  0
 10 11  1  0
 10  9  1  0
 11 13  1  0
 12 11  2  0
 13 14  1  0
 14 15  1  0
 15 16  1  0
 17 15  2  0
M  END
$$$$
