NGG.pdb
     RDKit          3D

 17 16  0  0  1  0  0  0  0  0999 V2000
    7.3376  -13.6325   15.5869 N   0  0  0  0  0  0  0  0  0  0  0  0
    8.0616  -14.1910   16.6601 C   0  0  0  0  0  0  0  0  0  0  0  0
    8.8099  -15.1551   16.4735 O   0  0  0  0  0  0  0  0  0  0  0  0
    7.9152  -13.6092   18.0145 C   0  0  0  0  0  0  0  0  0  0  0  0
    8.3009  -14.6222   19.0745 C   0  0  2  0  0  0  0  0  0  0  0  0
    7.3068  -15.6692   19.0664 N   0  0  0  0  0  0  0  0  0  0  0  0
    8.3180  -13.9857   20.4082 C   0  0  0  0  0  0  0  0  0  0  0  0
    9.1803  -13.1124   20.7119 O   0  0  0  0  0  0  0  0  0  0  0  0
    7.3393  -14.3572   21.3910 N   0  0  0  0  0  0  0  0  0  0  0  0
    7.4152  -13.7649   22.6994 C   0  0  0  0  0  0  0  0  0  0  0  0
    8.3090  -14.5789   23.5573 C   0  0  0  0  0  0  0  0  0  0  0  0
    8.2672  -14.5073   24.8316 O   0  0  0  0  0  0  0  0  0  0  0  0
    9.2664  -15.4881   23.0168 N   0  0  0  0  0  0  0  0  0  0  0  0
   10.0150  -16.3651   23.8756 C   0  0  0  0  0  0  0  0  0  0  0  0
   11.1330  -16.9457   23.0961 C   0  0  0  0  0  0  0  0  0  0  0  0
   12.4672  -16.6243   23.3748 O   0  0  0  0  0  0  0  0  0  0  0  0
   10.9378  -17.7433   22.1611 O   0  0  0  0  0  0  0  0  0  0  0  0
  1  2  1  0
  2  3  2  0
  4  2  1  0
  5  4  1  0
  5  6  1  1
  7  8  2  0
  7  5  1  0
  9  7  1  0
 10 11  1  0
 10  9  1  0
 11 13  1  0
 12 11  2  0
 13 14  1  0
 14 15  1  0
 15 16  1  0
 17 15  2  0
M  END
$$$$
