NGG.pdb
     RDKit          3D

 17 16  0  0  1  0  0  0  0  0999 V2000
    5.9057  -10.6887   26.6836 N   0  0  0  0  0  0  0  0  0  0  0  0
    5.9460  -12.0730   26.9475 C   0  0  0  0  0  0  0  0  0  0  0  0
    4.9216  -12.6746   27.2831 O   0  0  0  0  0  0  0  0  0  0  0  0
    7.2309  -12.7988   26.8179 C   0  0  0  0  0  0  0  0  0  0  0  0
    7.3132  -13.5020   25.4773 C   0  0  2  0  0  0  0  0  0  0  0  0
    6.2685  -14.4979   25.4369 N   0  0  0  0  0  0  0  0  0  0  0  0
    8.6222  -14.1722   25.3307 C   0  0  0  0  0  0  0  0  0  0  0  0
    9.7012  -13.5138   25.2997 O   0  0  0  0  0  0  0  0  0  0  0  0
    8.6855  -15.6024   25.2201 N   0  0  0  0  0  0  0  0  0  0  0  0
    9.9752  -16.2389   25.2239 C   0  0  0  0  0  0  0  0  0  0  0  0
   10.0730  -17.1604   24.0668 C   0  0  0  0  0  0  0  0  0  0  0  0
   10.0773  -18.4288   24.2151 O   0  0  0  0  0  0  0  0  0  0  0  0
   10.1677  -16.6913   22.7228 N   0  0  0  0  0  0  0  0  0  0  0  0
   11.4247  -16.2454   22.1858 C   0  0  0  0  0  0  0  0  0  0  0  0
   12.3029  -17.4242   22.0024 C   0  0  0  0  0  0  0  0  0  0  0  0
   12.3260  -18.1428   20.8007 O   0  0  0  0  0  0  0  0  0  0  0  0
   13.0580  -17.8281   22.9053 O   0  0  0  0  0  0  0  0  0  0  0  0
  1  2  1  0
  2  3  2  0
  4  2  1  0
  5  4  1  0
  5  6  1  1
  7  8  2  0
  7  5  1  0
  9  7  1  0
 10 11  1  0
 10  9  1  0
 11 13  1  0
 12 11  2  0
 13 14  1  0
 14 15  1  0
 15 16  1  0
 17 15  2  0
M  END
$$$$
