NGG.pdb
     RDKit          3D

 17 16  0  0  1  0  0  0  0  0999 V2000
    7.6941  -18.1435   18.5862 N   0  0  0  0  0  0  0  0  0  0  0  0
    7.2316  -17.7017   19.8426 C   0  0  0  0  0  0  0  0  0  0  0  0
    7.5285  -18.3192   20.8695 O   0  0  0  0  0  0  0  0  0  0  0  0
    6.3852  -16.4883   19.9180 C   0  0  0  0  0  0  0  0  0  0  0  0
    7.2278  -15.2696   20.2399 C   0  0  2  0  0  0  0  0  0  0  0  0
    8.6157  -15.6488   20.1189 N   0  0  0  0  0  0  0  0  0  0  0  0
    6.9708  -14.8213   21.6245 C   0  0  0  0  0  0  0  0  0  0  0  0
    5.8759  -14.2795   21.9505 O   0  0  0  0  0  0  0  0  0  0  0  0
    7.9777  -14.9987   22.6326 N   0  0  0  0  0  0  0  0  0  0  0  0
    7.7181  -14.5125   23.9610 C   0  0  0  0  0  0  0  0  0  0  0  0
    7.4310  -15.6578   24.8572 C   0  0  0  0  0  0  0  0  0  0  0  0
    6.2558  -16.1440   24.9726 O   0  0  0  0  0  0  0  0  0  0  0  0
    8.4433  -16.2854   25.6426 N   0  0  0  0  0  0  0  0  0  0  0  0
    8.1464  -17.4505   26.4310 C   0  0  0  0  0  0  0  0  0  0  0  0
    9.3844  -17.8783   27.1232 C   0  0  0  0  0  0  0  0  0  0  0  0
    9.4091  -19.0052   27.9541 O   0  0  0  0  0  0  0  0  0  0  0  0
   10.4555  -17.2575   26.9977 O   0  0  0  0  0  0  0  0  0  0  0  0
  1  2  1  0
  2  3  2  0
  4  2  1  0
  5  4  1  0
  5  6  1  1
  7  8  2  0
  7  5  1  0
  9  7  1  0
 10 11  1  0
 10  9  1  0
 11 13  1  0
 12 11  2  0
 13 14  1  0
 14 15  1  0
 15 16  1  0
 17 15  2  0
M  END
$$$$
