NGG.pdb
     RDKit          3D

 17 16  0  0  1  0  0  0  0  0999 V2000
    7.7752  -12.2919   17.5285 N   0  0  0  0  0  0  0  0  0  0  0  0
    7.9950  -13.6706   17.7254 C   0  0  0  0  0  0  0  0  0  0  0  0
    8.1632  -14.4202   16.7590 O   0  0  0  0  0  0  0  0  0  0  0  0
    8.0219  -14.2110   19.1044 C   0  0  0  0  0  0  0  0  0  0  0  0
    9.4046  -14.0626   19.7083 C   0  0  2  0  0  0  0  0  0  0  0  0
   10.3150  -14.8672   18.9282 N   0  0  0  0  0  0  0  0  0  0  0  0
    9.4082  -14.5489   21.1038 C   0  0  0  0  0  0  0  0  0  0  0  0
    8.7368  -13.9710   22.0060 O   0  0  0  0  0  0  0  0  0  0  0  0
   10.1865  -15.7024   21.4578 N   0  0  0  0  0  0  0  0  0  0  0  0
   10.3035  -16.0570   22.8467 C   0  0  0  0  0  0  0  0  0  0  0  0
   11.7163  -16.3838   23.1542 C   0  0  0  0  0  0  0  0  0  0  0  0
   12.1860  -17.5600   22.9904 O   0  0  0  0  0  0  0  0  0  0  0  0
   12.6348  -15.4110   23.6494 N   0  0  0  0  0  0  0  0  0  0  0  0
   13.9530  -15.7940   24.0771 C   0  0  0  0  0  0  0  0  0  0  0  0
   14.8984  -15.5510   22.9628 C   0  0  0  0  0  0  0  0  0  0  0  0
   14.6677  -16.0615   21.6794 O   0  0  0  0  0  0  0  0  0  0  0  0
   15.9376  -14.8838   23.1162 O   0  0  0  0  0  0  0  0  0  0  0  0
  1  2  1  0
  2  3  2  0
  4  2  1  0
  5  4  1  0
  5  6  1  6
  7  8  2  0
  7  5  1  0
  9  7  1  0
 10 11  1  0
 10  9  1  0
 11 13  1  0
 12 11  2  0
 13 14  1  0
 14 15  1  0
 15 16  1  0
 17 15  2  0
M  END
$$$$
