NGG.pdb
     RDKit          3D

 17 16  0  0  1  0  0  0  0  0999 V2000
    6.0685  -12.6095   18.2727 N   0  0  0  0  0  0  0  0  0  0  0  0
    7.1452  -13.4827   18.5294 C   0  0  0  0  0  0  0  0  0  0  0  0
    7.6549  -14.1321   17.6114 O   0  0  0  0  0  0  0  0  0  0  0  0
    7.6590  -13.6133   19.9127 C   0  0  0  0  0  0  0  0  0  0  0  0
    7.6938  -15.0696   20.3332 C   0  0  2  0  0  0  0  0  0  0  0  0
    6.3366  -15.5620   20.3298 N   0  0  0  0  0  0  0  0  0  0  0  0
    8.2472  -15.1948   21.6978 C   0  0  0  0  0  0  0  0  0  0  0  0
    7.5446  -14.9503   22.7202 O   0  0  0  0  0  0  0  0  0  0  0  0
    9.6116  -15.6026   21.8821 N   0  0  0  0  0  0  0  0  0  0  0  0
   10.1062  -15.7742   23.2216 C   0  0  0  0  0  0  0  0  0  0  0  0
   11.5035  -16.2664   23.1713 C   0  0  0  0  0  0  0  0  0  0  0  0
   12.0893  -16.5173   22.0646 O   0  0  0  0  0  0  0  0  0  0  0  0
   12.2775  -16.4894   24.3488 N   0  0  0  0  0  0  0  0  0  0  0  0
   13.4861  -17.2666   24.2989 C   0  0  0  0  0  0  0  0  0  0  0  0
   14.6404  -16.3393   24.2515 C   0  0  0  0  0  0  0  0  0  0  0  0
   15.5490  -16.2430   25.3126 O   0  0  0  0  0  0  0  0  0  0  0  0
   14.8545  -15.6060   23.2691 O   0  0  0  0  0  0  0  0  0  0  0  0
  1  2  1  0
  2  3  2  0
  4  2  1  0
  5  4  1  0
  5  6  1  1
  7  8  2  0
  7  5  1  0
  9  7  1  0
 10 11  1  0
 10  9  1  0
 11 13  1  0
 12 11  2  0
 13 14  1  0
 14 15  1  0
 15 16  1  0
 17 15  2  0
M  END
$$$$
