VWQ.pdb
     RDKit          3D

 31 32  0  0  1  0  0  0  0  0999 V2000
   28.8411  -17.9889  -15.0961 C   0  0  0  0  0  0  0  0  0  0  0  0
   27.7784  -18.7691  -14.3556 C   0  0  1  0  0  0  0  0  0  0  0  0
   26.7365  -19.2038  -15.3533 C   0  0  0  0  0  0  0  0  0  0  0  0
   28.4445  -19.9420  -13.6782 C   0  0  2  0  0  0  0  0  0  0  0  0
   28.9657  -20.8275  -14.7055 N   0  0  0  0  0  0  0  0  0  0  0  0
   27.5143  -20.6547  -12.7658 C   0  0  0  0  0  0  0  0  0  0  0  0
   26.9250  -21.6760  -13.1467 O   0  0  0  0  0  0  0  0  0  0  0  0
   27.3034  -20.1691  -11.4697 N   0  0  0  0  0  0  0  0  0  0  0  0
   26.4521  -20.7980  -10.4853 C   0  0  1  0  0  0  0  0  0  0  0  0
   26.5522  -20.1575   -9.1277 C   0  0  0  0  0  0  0  0  0  0  0  0
   27.7887  -20.4966   -8.4005 C   0  0  0  0  0  0  0  0  0  0  0  0
   28.7868  -21.3045   -8.9354 C   0  0  0  0  0  0  0  0  0  0  0  0
   29.7338  -21.3774   -7.9846 N   0  0  0  0  0  0  0  0  0  0  0  0
   29.3731  -20.6635   -6.9049 C   0  0  0  0  0  0  0  0  0  0  0  0
   30.0366  -20.4614   -5.7088 C   0  0  0  0  0  0  0  0  0  0  0  0
   29.4076  -19.6633   -4.7668 C   0  0  0  0  0  0  0  0  0  0  0  0
   28.1700  -19.0905   -5.0054 C   0  0  0  0  0  0  0  0  0  0  0  0
   27.5202  -19.2965   -6.1933 C   0  0  0  0  0  0  0  0  0  0  0  0
   28.1406  -20.0898   -7.1354 C   0  0  0  0  0  0  0  0  0  0  0  0
   25.0505  -20.6052  -10.9378 C   0  0  0  0  0  0  0  0  0  0  0  0
   24.6646  -19.4770  -11.2702 O   0  0  0  0  0  0  0  0  0  0  0  0
   22.5692  -25.4258  -13.8648 N   0  0  0  0  0  0  0  0  0  0  0  0
   21.5790  -24.4555  -14.1311 C   0  0  0  0  0  0  0  0  0  0  0  0
   20.6218  -24.6999  -14.8720 O   0  0  0  0  0  0  0  0  0  0  0  0
   21.6562  -23.0804  -13.5170 C   0  0  0  0  0  0  0  0  0  0  0  0
   22.8441  -22.9893  -12.6097 C   0  0  0  0  0  0  0  0  0  0  0  0
   22.9844  -21.6702  -11.9369 C   0  0  2  0  0  0  0  0  0  0  0  0
   24.1154  -21.6676  -11.0093 N   0  0  0  0  0  0  0  0  0  0  0  0
   21.7612  -21.3440  -11.1727 C   0  0  0  0  0  0  0  0  0  0  0  0
   21.7324  -21.5391   -9.9042 O   0  0  0  0  0  0  0  0  0  0  0  0
   20.5944  -20.8272  -11.6945 O   0  0  0  0  0  0  0  0  0  0  0  0
  2  1  1  6
  2  3  1  0
  4  2  1  0
  4  5  1  6
  6  7  2  0
  6  4  1  0
  8  6  1  0
  9  8  1  0
  9 10  1  1
 11 19  1  0
 11 10  1  0
 12 11  2  0
 13 12  1  0
 13 14  1  0
 14 15  1  0
 14 19  2  0
 15 16  2  0
 16 17  1  0
 18 17  2  0
 19 18  1  0
 20  9  1  0
 21 20  2  0
 23 22  1  0
 24 23  2  0
 25 23  1  0
 26 25  1  0
 27 26  1  1
 27 28  1  0
 28 20  1  0
 29 27  1  0
 30 29  2  0
 31 29  1  0
M  END
$$$$
