VWQ.pdb
     RDKit          3D

 31 32  0  0  1  0  0  0  0  0999 V2000
   28.3926  -22.1043  -17.6798 C   0  0  0  0  0  0  0  0  0  0  0  0
   27.7969  -22.3917  -16.3201 C   0  0  1  0  0  0  0  0  0  0  0  0
   28.9081  -22.3483  -15.3037 C   0  0  0  0  0  0  0  0  0  0  0  0
   26.7323  -21.3572  -16.0465 C   0  0  2  0  0  0  0  0  0  0  0  0
   27.3204  -20.0398  -16.2183 N   0  0  0  0  0  0  0  0  0  0  0  0
   26.1408  -21.5172  -14.6938 C   0  0  0  0  0  0  0  0  0  0  0  0
   25.5137  -22.5456  -14.4031 O   0  0  0  0  0  0  0  0  0  0  0  0
   26.2933  -20.5003  -13.7435 N   0  0  0  0  0  0  0  0  0  0  0  0
   25.6879  -20.5050  -12.4310 C   0  0  1  0  0  0  0  0  0  0  0  0
   26.4704  -19.7111  -11.4207 C   0  0  0  0  0  0  0  0  0  0  0  0
   26.7008  -20.4262  -10.1525 C   0  0  0  0  0  0  0  0  0  0  0  0
   26.6679  -21.8129  -10.0459 C   0  0  0  0  0  0  0  0  0  0  0  0
   26.9207  -22.0768   -8.7527 N   0  0  0  0  0  0  0  0  0  0  0  0
   27.1054  -20.9363   -8.0666 C   0  0  0  0  0  0  0  0  0  0  0  0
   27.3866  -20.7384   -6.7273 C   0  0  0  0  0  0  0  0  0  0  0  0
   27.5261  -19.4278   -6.3002 C   0  0  0  0  0  0  0  0  0  0  0  0
   27.3913  -18.3588   -7.1696 C   0  0  0  0  0  0  0  0  0  0  0  0
   27.1126  -18.5646   -8.4946 C   0  0  0  0  0  0  0  0  0  0  0  0
   26.9725  -19.8667   -8.9266 C   0  0  0  0  0  0  0  0  0  0  0  0
   24.3683  -19.8353  -12.5599 C   0  0  0  0  0  0  0  0  0  0  0  0
   24.2624  -18.8225  -13.2638 O   0  0  0  0  0  0  0  0  0  0  0  0
   21.7141  -20.8488  -16.5372 N   0  0  0  0  0  0  0  0  0  0  0  0
   20.4700  -20.8431  -15.8702 C   0  0  0  0  0  0  0  0  0  0  0  0
   19.4064  -20.7681  -16.4932 O   0  0  0  0  0  0  0  0  0  0  0  0
   20.3962  -20.9291  -14.3665 C   0  0  0  0  0  0  0  0  0  0  0  0
   21.7751  -20.9070  -13.7828 C   0  0  0  0  0  0  0  0  0  0  0  0
   21.8643  -20.1888  -12.4833 C   0  0  2  0  0  0  0  0  0  0  0  0
   23.2028  -20.3059  -11.9053 N   0  0  0  0  0  0  0  0  0  0  0  0
   20.8944  -20.7444  -11.5150 C   0  0  0  0  0  0  0  0  0  0  0  0
   21.2740  -21.6391  -10.6763 O   0  0  0  0  0  0  0  0  0  0  0  0
   19.5664  -20.3905  -11.4058 O   0  0  0  0  0  0  0  0  0  0  0  0
  2  1  1  6
  2  3  1  0
  4  2  1  0
  4  5  1  1
  6  7  2  0
  6  4  1  0
  8  6  1  0
  9  8  1  0
  9 10  1  1
 11 19  1  0
 11 10  1  0
 12 11  2  0
 13 12  1  0
 13 14  1  0
 14 15  1  0
 14 19  2  0
 15 16  2  0
 16 17  1  0
 18 17  2  0
 19 18  1  0
 20  9  1  0
 21 20  2  0
 23 22  1  0
 24 23  2  0
 25 23  1  0
 26 25  1  0
 27 26  1  6
 27 28  1  0
 28 20  1  0
 29 27  1  0
 30 29  2  0
 31 29  1  0
M  END
$$$$
