VWQ.pdb
     RDKit          3D

 31 32  0  0  1  0  0  0  0  0999 V2000
   26.7756  -21.2606  -18.4127 C   0  0  0  0  0  0  0  0  0  0  0  0
   27.9613  -22.1954  -18.4937 C   0  0  1  0  0  0  0  0  0  0  0  0
   28.7173  -21.8838  -19.7591 C   0  0  0  0  0  0  0  0  0  0  0  0
   28.8053  -21.9902  -17.2592 C   0  0  2  0  0  0  0  0  0  0  0  0
   29.9636  -22.8628  -17.3475 N   0  0  0  0  0  0  0  0  0  0  0  0
   28.0329  -22.2348  -16.0146 C   0  0  0  0  0  0  0  0  0  0  0  0
   27.6463  -23.3778  -15.7331 O   0  0  0  0  0  0  0  0  0  0  0  0
   27.7412  -21.1678  -15.1562 N   0  0  0  0  0  0  0  0  0  0  0  0
   27.0546  -21.2956  -13.8908 C   0  0  1  0  0  0  0  0  0  0  0  0
   27.2116  -20.0841  -13.0128 C   0  0  0  0  0  0  0  0  0  0  0  0
   26.6122  -20.2382  -11.6750 C   0  0  0  0  0  0  0  0  0  0  0  0
   25.2664  -20.0017  -11.4141 C   0  0  0  0  0  0  0  0  0  0  0  0
   25.1097  -20.2458  -10.1018 N   0  0  0  0  0  0  0  0  0  0  0  0
   26.2770  -20.6163   -9.5490 C   0  0  0  0  0  0  0  0  0  0  0  0
   26.5747  -20.9586   -8.2428 C   0  0  0  0  0  0  0  0  0  0  0  0
   27.8879  -21.3030   -7.9658 C   0  0  0  0  0  0  0  0  0  0  0  0
   28.8639  -21.3066   -8.9477 C   0  0  0  0  0  0  0  0  0  0  0  0
   28.5595  -20.9659  -10.2389 C   0  0  0  0  0  0  0  0  0  0  0  0
   27.2543  -20.6221  -10.5216 C   0  0  0  0  0  0  0  0  0  0  0  0
   25.6049  -21.4091  -14.1937 C   0  0  0  0  0  0  0  0  0  0  0  0
   25.0901  -20.6420  -15.0177 O   0  0  0  0  0  0  0  0  0  0  0  0
   22.4106  -26.7267  -13.9682 N   0  0  0  0  0  0  0  0  0  0  0  0
   21.3552  -25.8218  -14.2138 C   0  0  0  0  0  0  0  0  0  0  0  0
   20.2004  -26.2164  -14.4021 O   0  0  0  0  0  0  0  0  0  0  0  0
   21.6028  -24.3349  -14.2546 C   0  0  0  0  0  0  0  0  0  0  0  0
   23.0363  -24.0441  -13.9336 C   0  0  0  0  0  0  0  0  0  0  0  0
   23.3812  -22.5982  -13.9881 C   0  0  2  0  0  0  0  0  0  0  0  0
   24.7657  -22.3691  -13.5754 N   0  0  0  0  0  0  0  0  0  0  0  0
   22.4989  -21.8196  -13.0925 C   0  0  0  0  0  0  0  0  0  0  0  0
   22.8732  -21.5696  -11.8903 O   0  0  0  0  0  0  0  0  0  0  0  0
   21.2622  -21.3060  -13.4207 O   0  0  0  0  0  0  0  0  0  0  0  0
  2  1  1  1
  2  3  1  0
  4  2  1  0
  4  5  1  6
  6  7  2  0
  6  4  1  0
  8  6  1  0
  9  8  1  0
  9 10  1  1
 11 19  1  0
 11 10  1  0
 12 11  2  0
 13 12  1  0
 13 14  1  0
 14 15  1  0
 14 19  2  0
 15 16  2  0
 16 17  1  0
 18 17  2  0
 19 18  1  0
 20  9  1  0
 21 20  2  0
 23 22  1  0
 24 23  2  0
 25 23  1  0
 26 25  1  0
 27 26  1  1
 27 28  1  0
 28 20  1  0
 29 27  1  0
 30 29  2  0
 31 29  1  0
M  END
$$$$
