VWQ.pdb
     RDKit          3D

 31 32  0  0  1  0  0  0  0  0999 V2000
   28.5372  -21.7857  -18.1898 C   0  0  0  0  0  0  0  0  0  0  0  0
   27.9555  -22.2604  -16.8774 C   0  0  1  0  0  0  0  0  0  0  0  0
   29.0971  -22.6161  -15.9608 C   0  0  0  0  0  0  0  0  0  0  0  0
   27.0973  -21.1525  -16.3168 C   0  0  2  0  0  0  0  0  0  0  0  0
   27.9128  -19.9553  -16.2042 N   0  0  0  0  0  0  0  0  0  0  0  0
   26.4954  -21.5260  -15.0116 C   0  0  0  0  0  0  0  0  0  0  0  0
   25.5993  -22.3800  -14.9578 O   0  0  0  0  0  0  0  0  0  0  0  0
   26.9438  -20.9094  -13.8372 N   0  0  0  0  0  0  0  0  0  0  0  0
   26.3107  -21.0451  -12.5449 C   0  0  1  0  0  0  0  0  0  0  0  0
   27.1627  -20.5300  -11.4170 C   0  0  0  0  0  0  0  0  0  0  0  0
   26.5013  -20.5833  -10.1007 C   0  0  0  0  0  0  0  0  0  0  0  0
   25.3798  -21.3659   -9.8456 C   0  0  0  0  0  0  0  0  0  0  0  0
   25.0789  -21.1468   -8.5542 N   0  0  0  0  0  0  0  0  0  0  0  0
   25.9482  -20.2795   -8.0086 C   0  0  0  0  0  0  0  0  0  0  0  0
   26.0157  -19.7769   -6.7223 C   0  0  0  0  0  0  0  0  0  0  0  0
   27.0400  -18.8851   -6.4477 C   0  0  0  0  0  0  0  0  0  0  0  0
   27.9586  -18.5094   -7.4129 C   0  0  0  0  0  0  0  0  0  0  0  0
   27.8837  -19.0126   -8.6845 C   0  0  0  0  0  0  0  0  0  0  0  0
   26.8667  -19.9007   -8.9647 C   0  0  0  0  0  0  0  0  0  0  0  0
   25.0903  -20.1988  -12.5690 C   0  0  0  0  0  0  0  0  0  0  0  0
   25.1619  -19.0333  -12.9800 O   0  0  0  0  0  0  0  0  0  0  0  0
   19.4941  -20.2885  -16.0710 N   0  0  0  0  0  0  0  0  0  0  0  0
   20.7497  -19.7075  -15.7901 C   0  0  0  0  0  0  0  0  0  0  0  0
   21.5884  -19.5276  -16.6785 O   0  0  0  0  0  0  0  0  0  0  0  0
   21.1121  -19.2844  -14.3888 C   0  0  0  0  0  0  0  0  0  0  0  0
   22.3838  -19.9512  -13.9639 C   0  0  0  0  0  0  0  0  0  0  0  0
   22.5690  -20.0038  -12.4890 C   0  0  2  0  0  0  0  0  0  0  0  0
   23.8244  -20.6670  -12.1371 N   0  0  0  0  0  0  0  0  0  0  0  0
   21.4609  -20.7479  -11.8524 C   0  0  0  0  0  0  0  0  0  0  0  0
   20.2624  -20.2946  -11.9305 O   0  0  0  0  0  0  0  0  0  0  0  0
   21.5763  -21.9308  -11.1536 O   0  0  0  0  0  0  0  0  0  0  0  0
  2  1  1  6
  2  3  1  0
  4  2  1  0
  4  5  1  1
  6  7  2  0
  6  4  1  0
  8  6  1  0
  9  8  1  0
  9 10  1  1
 11 19  1  0
 11 10  1  0
 12 11  2  0
 13 12  1  0
 13 14  1  0
 14 15  1  0
 14 19  2  0
 15 16  2  0
 16 17  1  0
 18 17  2  0
 19 18  1  0
 20  9  1  0
 21 20  2  0
 23 22  1  0
 24 23  2  0
 25 23  1  0
 26 25  1  0
 27 26  1  6
 27 28  1  0
 28 20  1  0
 29 27  1  0
 30 29  2  0
 31 29  1  0
M  END
$$$$
