VWQ.pdb
     RDKit          3D

 31 32  0  0  1  0  0  0  0  0999 V2000
   26.8210  -18.1033  -14.4068 C   0  0  0  0  0  0  0  0  0  0  0  0
   27.4759  -19.2242  -15.1818 C   0  0  1  0  0  0  0  0  0  0  0  0
   28.2826  -18.6127  -16.2977 C   0  0  0  0  0  0  0  0  0  0  0  0
   28.3336  -20.0168  -14.2255 C   0  0  2  0  0  0  0  0  0  0  0  0
   28.9515  -21.1065  -14.9615 N   0  0  0  0  0  0  0  0  0  0  0  0
   27.5515  -20.5173  -13.0664 C   0  0  0  0  0  0  0  0  0  0  0  0
   26.7857  -21.4823  -13.1987 O   0  0  0  0  0  0  0  0  0  0  0  0
   27.6814  -19.8948  -11.8191 N   0  0  0  0  0  0  0  0  0  0  0  0
   27.0254  -20.3355  -10.6088 C   0  0  1  0  0  0  0  0  0  0  0  0
   27.3837  -19.5008   -9.4096 C   0  0  0  0  0  0  0  0  0  0  0  0
   26.8962  -20.0543   -8.1333 C   0  0  0  0  0  0  0  0  0  0  0  0
   25.7677  -20.8620   -8.0378 C   0  0  0  0  0  0  0  0  0  0  0  0
   25.6517  -21.1589   -6.7322 N   0  0  0  0  0  0  0  0  0  0  0  0
   26.6401  -20.5818   -6.0283 C   0  0  0  0  0  0  0  0  0  0  0  0
   26.9069  -20.6197   -4.6722 C   0  0  0  0  0  0  0  0  0  0  0  0
   28.0152  -19.9163   -4.2285 C   0  0  0  0  0  0  0  0  0  0  0  0
   28.8241  -19.2051   -5.0983 C   0  0  0  0  0  0  0  0  0  0  0  0
   28.5519  -19.1734   -6.4402 C   0  0  0  0  0  0  0  0  0  0  0  0
   27.4502  -19.8712   -6.8886 C   0  0  0  0  0  0  0  0  0  0  0  0
   25.5653  -20.1622  -10.8194 C   0  0  0  0  0  0  0  0  0  0  0  0
   25.1096  -19.0342  -11.0479 O   0  0  0  0  0  0  0  0  0  0  0  0
   23.1797  -25.1413  -13.4779 N   0  0  0  0  0  0  0  0  0  0  0  0
   22.0930  -24.2578  -13.6550 C   0  0  0  0  0  0  0  0  0  0  0  0
   21.0926  -24.5895  -14.2985 O   0  0  0  0  0  0  0  0  0  0  0  0
   22.1161  -22.8718  -13.0613 C   0  0  0  0  0  0  0  0  0  0  0  0
   23.3681  -22.6760  -12.2634 C   0  0  0  0  0  0  0  0  0  0  0  0
   23.4759  -21.3306  -11.6382 C   0  0  2  0  0  0  0  0  0  0  0  0
   24.6504  -21.2434  -10.7707 N   0  0  0  0  0  0  0  0  0  0  0  0
   22.2778  -21.0397  -10.8217 C   0  0  0  0  0  0  0  0  0  0  0  0
   22.2750  -21.3275   -9.5706 O   0  0  0  0  0  0  0  0  0  0  0  0
   21.1095  -20.4647  -11.2748 O   0  0  0  0  0  0  0  0  0  0  0  0
  2  1  1  1
  2  3  1  0
  4  2  1  0
  4  5  1  6
  6  7  2  0
  6  4  1  0
  8  6  1  0
  9  8  1  0
  9 10  1  1
 11 19  1  0
 11 10  1  0
 12 11  2  0
 13 12  1  0
 13 14  1  0
 14 15  1  0
 14 19  2  0
 15 16  2  0
 16 17  1  0
 18 17  2  0
 19 18  1  0
 20  9  1  0
 21 20  2  0
 23 22  1  0
 24 23  2  0
 25 23  1  0
 26 25  1  0
 27 26  1  1
 27 28  1  0
 28 20  1  0
 29 27  1  0
 30 29  2  0
 31 29  1  0
M  END
$$$$
