VWQ.pdb
     RDKit          3D

 31 32  0  0  1  0  0  0  0  0999 V2000
   28.3663  -20.0678  -18.5402 C   0  0  0  0  0  0  0  0  0  0  0  0
   27.5647  -20.5622  -17.3573 C   0  0  1  0  0  0  0  0  0  0  0  0
   26.5480  -21.5527  -17.8621 C   0  0  0  0  0  0  0  0  0  0  0  0
   28.5221  -21.1808  -16.3679 C   0  0  2  0  0  0  0  0  0  0  0  0
   29.1475  -22.3322  -16.9959 N   0  0  0  0  0  0  0  0  0  0  0  0
   27.8432  -21.5537  -15.1008 C   0  0  0  0  0  0  0  0  0  0  0  0
   27.2862  -22.6550  -14.9905 O   0  0  0  0  0  0  0  0  0  0  0  0
   27.8334  -20.6556  -14.0267 N   0  0  0  0  0  0  0  0  0  0  0  0
   27.1393  -20.8757  -12.7782 C   0  0  1  0  0  0  0  0  0  0  0  0
   27.4734  -19.8479  -11.7317 C   0  0  0  0  0  0  0  0  0  0  0  0
   26.7568  -20.0419  -10.4582 C   0  0  0  0  0  0  0  0  0  0  0  0
   25.3717  -19.9744  -10.3484 C   0  0  0  0  0  0  0  0  0  0  0  0
   25.1058  -20.2011   -9.0508 N   0  0  0  0  0  0  0  0  0  0  0  0
   26.2436  -20.4024   -8.3650 C   0  0  0  0  0  0  0  0  0  0  0  0
   26.4387  -20.6679   -7.0221 C   0  0  0  0  0  0  0  0  0  0  0  0
   27.7470  -20.8320   -6.5963 C   0  0  0  0  0  0  0  0  0  0  0  0
   28.8162  -20.7359   -7.4705 C   0  0  0  0  0  0  0  0  0  0  0  0
   28.6131  -20.4726   -8.7991 C   0  0  0  0  0  0  0  0  0  0  0  0
   27.3134  -20.3081   -9.2297 C   0  0  0  0  0  0  0  0  0  0  0  0
   25.6876  -20.7325  -13.0582 C   0  0  0  0  0  0  0  0  0  0  0  0
   25.2722  -19.7171  -13.6316 O   0  0  0  0  0  0  0  0  0  0  0  0
   20.8796  -23.2782  -15.9862 N   0  0  0  0  0  0  0  0  0  0  0  0
   21.0849  -23.9066  -14.7389 C   0  0  0  0  0  0  0  0  0  0  0  0
   21.0944  -25.1369  -14.6323 O   0  0  0  0  0  0  0  0  0  0  0  0
   21.3010  -23.0935  -13.4874 C   0  0  0  0  0  0  0  0  0  0  0  0
   22.7572  -23.0638  -13.1397 C   0  0  0  0  0  0  0  0  0  0  0  0
   23.3529  -21.7012  -13.1703 C   0  0  2  0  0  0  0  0  0  0  0  0
   24.7362  -21.7182  -12.6951 N   0  0  0  0  0  0  0  0  0  0  0  0
   22.5819  -20.7777  -12.3103 C   0  0  0  0  0  0  0  0  0  0  0  0
   22.8888  -20.6579  -11.0695 O   0  0  0  0  0  0  0  0  0  0  0  0
   21.5222  -19.9923  -12.7116 O   0  0  0  0  0  0  0  0  0  0  0  0
  2  1  1  6
  2  3  1  0
  4  2  1  0
  4  5  1  6
  6  7  2  0
  6  4  1  0
  8  6  1  0
  9  8  1  0
  9 10  1  1
 11 19  1  0
 11 10  1  0
 12 11  2  0
 13 12  1  0
 13 14  1  0
 14 15  1  0
 14 19  2  0
 15 16  2  0
 16 17  1  0
 18 17  2  0
 19 18  1  0
 20  9  1  0
 21 20  2  0
 23 22  1  0
 24 23  2  0
 25 23  1  0
 26 25  1  0
 27 26  1  1
 27 28  1  0
 28 20  1  0
 29 27  1  0
 30 29  2  0
 31 29  1  0
M  END
$$$$
