VWQ.pdb
     RDKit          3D

 31 32  0  0  1  0  0  0  0  0999 V2000
   29.0565  -19.3795  -15.9566 C   0  0  0  0  0  0  0  0  0  0  0  0
   28.3460  -20.3029  -14.9930 C   0  0  1  0  0  0  0  0  0  0  0  0
   29.2341  -20.4993  -13.7920 C   0  0  0  0  0  0  0  0  0  0  0  0
   27.0238  -19.6727  -14.6283 C   0  0  2  0  0  0  0  0  0  0  0  0
   27.2819  -18.3476  -14.0910 N   0  0  0  0  0  0  0  0  0  0  0  0
   26.2584  -20.5094  -13.6693 C   0  0  0  0  0  0  0  0  0  0  0  0
   25.9048  -21.6548  -13.9826 O   0  0  0  0  0  0  0  0  0  0  0  0
   25.9358  -20.0001  -12.4056 N   0  0  0  0  0  0  0  0  0  0  0  0
   25.0985  -20.6726  -11.4382 C   0  0  1  0  0  0  0  0  0  0  0  0
   25.4146  -20.2863  -10.0191 C   0  0  0  0  0  0  0  0  0  0  0  0
   26.7958  -20.6008   -9.6114 C   0  0  0  0  0  0  0  0  0  0  0  0
   27.6785  -21.3195  -10.4110 C   0  0  0  0  0  0  0  0  0  0  0  0
   28.8179  -21.3979   -9.7026 N   0  0  0  0  0  0  0  0  0  0  0  0
   28.6823  -20.7710   -8.5218 C   0  0  0  0  0  0  0  0  0  0  0  0
   29.5903  -20.6054   -7.4922 C   0  0  0  0  0  0  0  0  0  0  0  0
   29.1592  -19.9009   -6.3797 C   0  0  0  0  0  0  0  0  0  0  0  0
   27.8780  -19.3830   -6.2955 C   0  0  0  0  0  0  0  0  0  0  0  0
   26.9855  -19.5521   -7.3205 C   0  0  0  0  0  0  0  0  0  0  0  0
   27.4080  -20.2523   -8.4308 C   0  0  0  0  0  0  0  0  0  0  0  0
   23.7029  -20.2318  -11.6920 C   0  0  0  0  0  0  0  0  0  0  0  0
   23.4566  -19.0259  -11.8244 O   0  0  0  0  0  0  0  0  0  0  0  0
   19.6046  -20.3402  -15.7836 N   0  0  0  0  0  0  0  0  0  0  0  0
   20.7447  -21.1724  -15.8064 C   0  0  0  0  0  0  0  0  0  0  0  0
   21.0038  -21.8818  -16.7834 O   0  0  0  0  0  0  0  0  0  0  0  0
   21.6902  -21.2241  -14.6328 C   0  0  0  0  0  0  0  0  0  0  0  0
   21.2920  -20.2077  -13.6076 C   0  0  0  0  0  0  0  0  0  0  0  0
   21.2791  -20.7334  -12.2162 C   0  0  2  0  0  0  0  0  0  0  0  0
   22.6189  -21.1391  -11.7920 N   0  0  0  0  0  0  0  0  0  0  0  0
   20.3877  -21.9088  -12.1131 C   0  0  0  0  0  0  0  0  0  0  0  0
   20.8931  -23.0873  -12.0524 O   0  0  0  0  0  0  0  0  0  0  0  0
   19.0100  -21.8788  -12.0704 O   0  0  0  0  0  0  0  0  0  0  0  0
  2  1  1  6
  2  3  1  0
  4  2  1  0
  4  5  1  1
  6  7  2  0
  6  4  1  0
  8  6  1  0
  9  8  1  0
  9 10  1  1
 11 19  1  0
 11 10  1  0
 12 11  2  0
 13 12  1  0
 13 14  1  0
 14 15  1  0
 14 19  2  0
 15 16  2  0
 16 17  1  0
 18 17  2  0
 19 18  1  0
 20  9  1  0
 21 20  2  0
 23 22  1  0
 24 23  2  0
 25 23  1  0
 26 25  1  0
 27 26  1  6
 27 28  1  0
 28 20  1  0
 29 27  1  0
 30 29  2  0
 31 29  1  0
M  END
$$$$
