VWQ.pdb
     RDKit          3D

 31 32  0  0  1  0  0  0  0  0999 V2000
   24.9470  -18.3801  -21.0030 C   0  0  0  0  0  0  0  0  0  0  0  0
   24.8007  -19.4621  -19.9571 C   0  0  1  0  0  0  0  0  0  0  0  0
   26.0763  -20.2632  -19.9309 C   0  0  0  0  0  0  0  0  0  0  0  0
   24.5164  -18.7978  -18.6319 C   0  0  2  0  0  0  0  0  0  0  0  0
   25.5983  -17.8718  -18.3436 N   0  0  0  0  0  0  0  0  0  0  0  0
   24.3448  -19.7911  -17.5412 C   0  0  0  0  0  0  0  0  0  0  0  0
   23.4799  -20.6739  -17.6299 O   0  0  0  0  0  0  0  0  0  0  0  0
   25.1650  -19.7283  -16.4082 N   0  0  0  0  0  0  0  0  0  0  0  0
   24.9659  -20.5057  -15.2060 C   0  0  1  0  0  0  0  0  0  0  0  0
   26.1134  -20.3959  -14.2394 C   0  0  0  0  0  0  0  0  0  0  0  0
   25.9581  -21.2322  -13.0354 C   0  0  0  0  0  0  0  0  0  0  0  0
   25.9725  -22.6228  -13.0699 C   0  0  0  0  0  0  0  0  0  0  0  0
   25.8039  -23.0124  -11.7947 N   0  0  0  0  0  0  0  0  0  0  0  0
   25.6881  -21.9446  -10.9874 C   0  0  0  0  0  0  0  0  0  0  0  0
   25.5047  -21.8791   -9.6185 C   0  0  0  0  0  0  0  0  0  0  0  0
   25.4209  -20.6164   -9.0541 C   0  0  0  0  0  0  0  0  0  0  0  0
   25.5158  -19.4671   -9.8201 C   0  0  0  0  0  0  0  0  0  0  0  0
   25.6975  -19.5420  -11.1756 C   0  0  0  0  0  0  0  0  0  0  0  0
   25.7817  -20.7956  -11.7439 C   0  0  0  0  0  0  0  0  0  0  0  0
   23.7796  -19.9389  -14.5148 C   0  0  0  0  0  0  0  0  0  0  0  0
   23.5751  -18.7186  -14.5513 O   0  0  0  0  0  0  0  0  0  0  0  0
   18.9302  -19.3960  -16.5319 N   0  0  0  0  0  0  0  0  0  0  0  0
   18.5230  -18.9754  -15.2473 C   0  0  0  0  0  0  0  0  0  0  0  0
   17.4369  -18.4158  -15.0679 O   0  0  0  0  0  0  0  0  0  0  0  0
   19.4044  -19.1962  -14.0438 C   0  0  0  0  0  0  0  0  0  0  0  0
   20.7097  -19.7961  -14.4666 C   0  0  0  0  0  0  0  0  0  0  0  0
   21.5635  -20.2349  -13.3304 C   0  0  2  0  0  0  0  0  0  0  0  0
   22.8527  -20.7398  -13.8022 N   0  0  0  0  0  0  0  0  0  0  0  0
   20.8985  -21.3124  -12.5666 C   0  0  0  0  0  0  0  0  0  0  0  0
   21.0847  -22.5378  -12.9011 O   0  0  0  0  0  0  0  0  0  0  0  0
   20.0635  -21.1401  -11.4831 O   0  0  0  0  0  0  0  0  0  0  0  0
  2  1  1  6
  2  3  1  0
  4  2  1  0
  4  5  1  1
  6  7  2  0
  6  4  1  0
  8  6  1  0
  9  8  1  0
  9 10  1  1
 11 19  1  0
 11 10  1  0
 12 11  2  0
 13 12  1  0
 13 14  1  0
 14 15  1  0
 14 19  2  0
 15 16  2  0
 16 17  1  0
 18 17  2  0
 19 18  1  0
 20  9  1  0
 21 20  2  0
 23 22  1  0
 24 23  2  0
 25 23  1  0
 26 25  1  0
 27 26  1  6
 27 28  1  0
 28 20  1  0
 29 27  1  0
 30 29  2  0
 31 29  1  0
M  END
$$$$
