VWQ.pdb
     RDKit          3D

 31 32  0  0  1  0  0  0  0  0999 V2000
   12.9644  -21.4002    3.1264 C   0  0  0  0  0  0  0  0  0  0  0  0
   14.1297  -20.7094    3.7980 C   0  0  1  0  0  0  0  0  0  0  0  0
   15.0609  -21.7694    4.3264 C   0  0  0  0  0  0  0  0  0  0  0  0
   14.7979  -19.8192    2.7785 C   0  0  2  0  0  0  0  0  0  0  0  0
   15.1385  -20.6270    1.6198 N   0  0  0  0  0  0  0  0  0  0  0  0
   15.9934  -19.1385    3.3380 C   0  0  0  0  0  0  0  0  0  0  0  0
   17.1239  -19.6133    3.1597 O   0  0  0  0  0  0  0  0  0  0  0  0
   15.8407  -17.9548    4.0700 N   0  0  0  0  0  0  0  0  0  0  0  0
   16.9276  -17.2118    4.6665 C   0  0  1  0  0  0  0  0  0  0  0  0
   16.6337  -15.7418    4.7932 C   0  0  0  0  0  0  0  0  0  0  0  0
   17.5728  -14.8821    4.0502 C   0  0  0  0  0  0  0  0  0  0  0  0
   17.4506  -13.4976    3.9915 C   0  0  0  0  0  0  0  0  0  0  0  0
   18.4783  -13.0812    3.2322 N   0  0  0  0  0  0  0  0  0  0  0  0
   19.2177  -14.1270    2.8259 C   0  0  0  0  0  0  0  0  0  0  0  0
   20.3540  -14.1618    2.0388 C   0  0  0  0  0  0  0  0  0  0  0  0
   20.9060  -15.4070    1.7847 C   0  0  0  0  0  0  0  0  0  0  0  0
   20.3503  -16.5689    2.2926 C   0  0  0  0  0  0  0  0  0  0  0  0
   19.2245  -16.5245    3.0713 C   0  0  0  0  0  0  0  0  0  0  0  0
   18.6698  -15.2883    3.3282 C   0  0  0  0  0  0  0  0  0  0  0  0
   17.0968  -17.7264    6.0495 C   0  0  0  0  0  0  0  0  0  0  0  0
   16.1094  -18.1310    6.6770 O   0  0  0  0  0  0  0  0  0  0  0  0
   22.5553  -19.2953    8.8836 N   0  0  0  0  0  0  0  0  0  0  0  0
   21.6135  -19.5182    9.9113 C   0  0  0  0  0  0  0  0  0  0  0  0
   21.9386  -20.0499   10.9774 O   0  0  0  0  0  0  0  0  0  0  0  0
   20.1711  -19.1125    9.7421 C   0  0  0  0  0  0  0  0  0  0  0  0
   19.9265  -18.6606    8.3355 C   0  0  0  0  0  0  0  0  0  0  0  0
   18.5213  -18.2487    8.0742 C   0  0  2  0  0  0  0  0  0  0  0  0
   18.3553  -17.7784    6.6992 N   0  0  0  0  0  0  0  0  0  0  0  0
   18.1223  -17.1552    8.9863 C   0  0  0  0  0  0  0  0  0  0  0  0
   18.2903  -15.9341    8.6276 O   0  0  0  0  0  0  0  0  0  0  0  0
   17.5615  -17.3079   10.2365 O   0  0  0  0  0  0  0  0  0  0  0  0
  2  1  1  6
  2  3  1  0
  4  2  1  0
  4  5  1  6
  6  7  2  0
  6  4  1  0
  8  6  1  0
  9  8  1  0
  9 10  1  1
 11 19  1  0
 11 10  1  0
 12 11  2  0
 13 12  1  0
 13 14  1  0
 14 15  1  0
 14 19  2  0
 15 16  2  0
 16 17  1  0
 18 17  2  0
 19 18  1  0
 20  9  1  0
 21 20  2  0
 23 22  1  0
 24 23  2  0
 25 23  1  0
 26 25  1  0
 27 26  1  1
 27 28  1  0
 28 20  1  0
 29 27  1  0
 30 29  2  0
 31 29  1  0
M  END
$$$$
