VWQ.pdb
     RDKit          3D

 31 32  0  0  1  0  0  0  0  0999 V2000
   28.2984  -17.7521  -14.6913 C   0  0  0  0  0  0  0  0  0  0  0  0
   27.3454  -18.5720  -13.8513 C   0  0  1  0  0  0  0  0  0  0  0  0
   26.2412  -19.0697  -14.7475 C   0  0  0  0  0  0  0  0  0  0  0  0
   28.1257  -19.7024  -13.2254 C   0  0  2  0  0  0  0  0  0  0  0  0
   28.6748  -20.5235  -14.2908 N   0  0  0  0  0  0  0  0  0  0  0  0
   27.2888  -20.5040  -12.2966 C   0  0  0  0  0  0  0  0  0  0  0  0
   26.8033  -21.5827  -12.6653 O   0  0  0  0  0  0  0  0  0  0  0  0
   27.0483  -20.0372  -10.9986 N   0  0  0  0  0  0  0  0  0  0  0  0
   26.1647  -20.6730  -10.0476 C   0  0  1  0  0  0  0  0  0  0  0  0
   26.3476  -20.1625   -8.6444 C   0  0  0  0  0  0  0  0  0  0  0  0
   27.6477  -20.5179   -8.0475 C   0  0  0  0  0  0  0  0  0  0  0  0
   28.5744  -21.3398   -8.6806 C   0  0  0  0  0  0  0  0  0  0  0  0
   29.6132  -21.4249   -7.8321 N   0  0  0  0  0  0  0  0  0  0  0  0
   29.3752  -20.7053   -6.7226 C   0  0  0  0  0  0  0  0  0  0  0  0
   30.1610  -20.5113   -5.6016 C   0  0  0  0  0  0  0  0  0  0  0  0
   29.6432  -19.7040   -4.6016 C   0  0  0  0  0  0  0  0  0  0  0  0
   28.3955  -19.1144   -4.7128 C   0  0  0  0  0  0  0  0  0  0  0  0
   27.6242  -19.3124   -5.8271 C   0  0  0  0  0  0  0  0  0  0  0  0
   28.1335  -20.1149   -6.8263 C   0  0  0  0  0  0  0  0  0  0  0  0
   24.7768  -20.3225  -10.4440 C   0  0  0  0  0  0  0  0  0  0  0  0
   24.4367  -19.1333  -10.4946 O   0  0  0  0  0  0  0  0  0  0  0  0
   19.6221  -23.5147  -14.5080 N   0  0  0  0  0  0  0  0  0  0  0  0
   20.8510  -22.8354  -14.3622 C   0  0  0  0  0  0  0  0  0  0  0  0
   21.8151  -23.0863  -15.0920 O   0  0  0  0  0  0  0  0  0  0  0  0
   21.0297  -21.7747  -13.3055 C   0  0  0  0  0  0  0  0  0  0  0  0
   22.3010  -22.0115  -12.5503 C   0  0  0  0  0  0  0  0  0  0  0  0
   22.5802  -20.9854  -11.5103 C   0  0  2  0  0  0  0  0  0  0  0  0
   23.8041  -21.2991  -10.7732 N   0  0  0  0  0  0  0  0  0  0  0  0
   21.4655  -20.9109  -10.5414 C   0  0  0  0  0  0  0  0  0  0  0  0
   21.6241  -21.3683   -9.3524 O   0  0  0  0  0  0  0  0  0  0  0  0
   20.2170  -20.3781  -10.7831 O   0  0  0  0  0  0  0  0  0  0  0  0
  2  1  1  6
  2  3  1  0
  4  2  1  0
  4  5  1  6
  6  7  2  0
  6  4  1  0
  8  6  1  0
  9  8  1  0
  9 10  1  1
 11 19  1  0
 11 10  1  0
 12 11  2  0
 13 12  1  0
 13 14  1  0
 14 15  1  0
 14 19  2  0
 15 16  2  0
 16 17  1  0
 18 17  2  0
 19 18  1  0
 20  9  1  0
 21 20  2  0
 23 22  1  0
 24 23  2  0
 25 23  1  0
 26 25  1  0
 27 26  1  6
 27 28  1  0
 28 20  1  0
 29 27  1  0
 30 29  2  0
 31 29  1  0
M  END
$$$$
