VWQ.pdb
     RDKit          3D

 31 32  0  0  1  0  0  0  0  0999 V2000
   25.1603  -26.3454  -21.1772 C   0  0  0  0  0  0  0  0  0  0  0  0
   25.3224  -27.7466  -20.6325 C   0  0  1  0  0  0  0  0  0  0  0  0
   24.9084  -28.7174  -21.7077 C   0  0  0  0  0  0  0  0  0  0  0  0
   26.7644  -27.9272  -20.2248 C   0  0  2  0  0  0  0  0  0  0  0  0
   27.5992  -27.7269  -21.3970 N   0  0  0  0  0  0  0  0  0  0  0  0
   27.0020  -29.2571  -19.6079 C   0  0  0  0  0  0  0  0  0  0  0  0
   27.2556  -30.2397  -20.3188 O   0  0  0  0  0  0  0  0  0  0  0  0
   26.9389  -29.3994  -18.2165 N   0  0  0  0  0  0  0  0  0  0  0  0
   27.2590  -30.6131  -17.4996 C   0  0  1  0  0  0  0  0  0  0  0  0
   28.3441  -30.4210  -16.4755 C   0  0  0  0  0  0  0  0  0  0  0  0
   29.7039  -30.4149  -17.0447 C   0  0  0  0  0  0  0  0  0  0  0  0
   30.1463  -29.4498  -17.9437 C   0  0  0  0  0  0  0  0  0  0  0  0
   31.4175  -29.7822  -18.2261 N   0  0  0  0  0  0  0  0  0  0  0  0
   31.7751  -30.8894  -17.5542 C   0  0  0  0  0  0  0  0  0  0  0  0
   32.9754  -31.5758  -17.5435 C   0  0  0  0  0  0  0  0  0  0  0  0
   33.0500  -32.7015  -16.7392 C   0  0  0  0  0  0  0  0  0  0  0  0
   31.9749  -33.1263  -15.9774 C   0  0  0  0  0  0  0  0  0  0  0  0
   30.7898  -32.4400  -15.9944 C   0  0  0  0  0  0  0  0  0  0  0  0
   30.7087  -31.3186  -16.7928 C   0  0  0  0  0  0  0  0  0  0  0  0
   26.0393  -31.0078  -16.7493 C   0  0  0  0  0  0  0  0  0  0  0  0
   25.3804  -30.1447  -16.1550 O   0  0  0  0  0  0  0  0  0  0  0  0
   19.7703  -34.0492  -16.7541 N   0  0  0  0  0  0  0  0  0  0  0  0
   21.0751  -33.5741  -17.0079 C   0  0  0  0  0  0  0  0  0  0  0  0
   21.2913  -32.7179  -17.8711 O   0  0  0  0  0  0  0  0  0  0  0  0
   22.2559  -34.0979  -16.2298 C   0  0  0  0  0  0  0  0  0  0  0  0
   23.5328  -33.6452  -16.8678 C   0  0  0  0  0  0  0  0  0  0  0  0
   24.3368  -32.7292  -16.0151 C   0  0  2  0  0  0  0  0  0  0  0  0
   25.5834  -32.3477  -16.6782 N   0  0  0  0  0  0  0  0  0  0  0  0
   24.6782  -33.3799  -14.7318 C   0  0  0  0  0  0  0  0  0  0  0  0
   25.7813  -34.0270  -14.6200 O   0  0  0  0  0  0  0  0  0  0  0  0
   23.9092  -33.3666  -13.5875 O   0  0  0  0  0  0  0  0  0  0  0  0
  2  1  1  6
  2  3  1  0
  4  2  1  0
  4  5  1  6
  6  7  2  0
  6  4  1  0
  8  6  1  0
  9  8  1  0
  9 10  1  1
 11 19  1  0
 11 10  1  0
 12 11  2  0
 13 12  1  0
 13 14  1  0
 14 15  1  0
 14 19  2  0
 15 16  2  0
 16 17  1  0
 18 17  2  0
 19 18  1  0
 20  9  1  0
 21 20  2  0
 23 22  1  0
 24 23  2  0
 25 23  1  0
 26 25  1  0
 27 26  1  6
 27 28  1  0
 28 20  1  0
 29 27  1  0
 30 29  2  0
 31 29  1  0
M  END
$$$$
