TVL.pdb
     RDKit          3D

 23 22  0  0  1  0  0  0  0  0999 V2000
   27.0200  -12.5880  -15.6257 C   0  0  0  0  0  0  0  0  0  0  0  0
   25.8489  -11.7269  -16.0537 C   0  0  1  0  0  0  0  0  0  0  0  0
   26.1697  -11.3259  -17.3775 O   0  0  0  0  0  0  0  0  0  0  0  0
   24.5607  -12.5212  -16.1471 C   0  0  2  0  0  0  0  0  0  0  0  0
   24.8105  -13.4889  -17.2367 N   0  0  0  0  0  0  0  0  0  0  0  0
   23.3958  -11.7292  -16.5723 C   0  0  0  0  0  0  0  0  0  0  0  0
   23.2376  -11.3857  -17.7964 O   0  0  0  0  0  0  0  0  0  0  0  0
   19.6063  -12.1471  -16.8416 C   0  0  0  0  0  0  0  0  0  0  0  0
   19.9179  -11.0066  -15.9061 C   0  0  2  0  0  0  0  0  0  0  0  0
   18.8811   -9.9374  -16.0015 C   0  0  0  0  0  0  0  0  0  0  0  0
   21.2920  -10.4172  -16.1690 C   0  0  2  0  0  0  0  0  0  0  0  0
   22.3466  -11.2700  -15.7130 N   0  0  0  0  0  0  0  0  0  0  0  0
   21.2796   -9.0555  -15.6101 C   0  0  0  0  0  0  0  0  0  0  0  0
   21.4801   -9.0066  -14.3448 O   0  0  0  0  0  0  0  0  0  0  0  0
   23.1281   -3.4965  -16.5689 C   0  0  0  0  0  0  0  0  0  0  0  0
   22.3189   -4.3442  -15.5684 C   0  0  2  0  0  0  0  0  0  0  0  0
   23.1315   -4.2706  -14.2819 C   0  0  0  0  0  0  0  0  0  0  0  0
   22.2370   -5.7091  -16.1539 C   0  0  0  0  0  0  0  0  0  0  0  0
   21.1411   -6.5857  -15.6179 C   0  0  2  0  0  0  0  0  0  0  0  0
   21.0779   -7.8594  -16.3022 N   0  0  0  0  0  0  0  0  0  0  0  0
   19.8227   -5.9532  -15.5302 C   0  0  0  0  0  0  0  0  0  0  0  0
   18.9239   -6.0810  -16.3983 O   0  0  0  0  0  0  0  0  0  0  0  0
   19.4953   -5.1424  -14.4247 O   0  0  0  0  0  0  0  0  0  0  0  0
  2  1  1  6
  3  2  1  0
  4  2  1  0
  4  6  1  0
  4  5  1  6
  6  7  2  0
  9  8  1  6
 10  9  1  0
 11 13  1  0
 11  9  1  0
 12  6  1  0
 11 12  1  1
 13 14  2  0
 16 18  1  0
 16 15  1  6
 17 16  1  0
 19 18  1  6
 19 21  1  0
 20 19  1  0
 20 13  1  0
 21 22  2  0
 21 23  1  0
M  END
$$$$
