TVL.pdb
     RDKit          3D

 23 22  0  0  1  0  0  0  0  0999 V2000
   17.8256  -15.2712  -18.3918 C   0  0  0  0  0  0  0  0  0  0  0  0
   16.7823  -15.0244  -17.3209 C   0  0  1  0  0  0  0  0  0  0  0  0
   16.4654  -16.3188  -16.8306 O   0  0  0  0  0  0  0  0  0  0  0  0
   17.3433  -14.2470  -16.1462 C   0  0  2  0  0  0  0  0  0  0  0  0
   16.4004  -14.5282  -15.0426 N   0  0  0  0  0  0  0  0  0  0  0  0
   17.3252  -12.7869  -16.3280 C   0  0  0  0  0  0  0  0  0  0  0  0
   17.9064  -12.2352  -17.3276 O   0  0  0  0  0  0  0  0  0  0  0  0
   14.3575  -10.1844  -16.1868 C   0  0  0  0  0  0  0  0  0  0  0  0
   15.4912   -9.7151  -15.3108 C   0  0  2  0  0  0  0  0  0  0  0  0
   15.6856   -8.2402  -15.4314 C   0  0  0  0  0  0  0  0  0  0  0  0
   16.7894  -10.4339  -15.6305 C   0  0  2  0  0  0  0  0  0  0  0  0
   16.6853  -11.8501  -15.4545 N   0  0  0  0  0  0  0  0  0  0  0  0
   17.8437   -9.7654  -14.8506 C   0  0  0  0  0  0  0  0  0  0  0  0
   18.1660  -10.3783  -13.7718 O   0  0  0  0  0  0  0  0  0  0  0  0
   23.0622   -8.5659  -15.2013 C   0  0  0  0  0  0  0  0  0  0  0  0
   22.1131   -9.0146  -14.0733 C   0  0  2  0  0  0  0  0  0  0  0  0
   22.7836  -10.2568  -13.5005 C   0  0  0  0  0  0  0  0  0  0  0  0
   20.7997   -9.2802  -14.7188 C   0  0  0  0  0  0  0  0  0  0  0  0
   19.7501   -8.2231  -14.5250 C   0  0  2  0  0  0  0  0  0  0  0  0
   18.4996   -8.5728  -15.1639 N   0  0  0  0  0  0  0  0  0  0  0  0
   20.1674   -6.8602  -14.8632 C   0  0  0  0  0  0  0  0  0  0  0  0
   19.9250   -6.3047  -15.9634 O   0  0  0  0  0  0  0  0  0  0  0  0
   20.8873   -6.0853  -13.9315 O   0  0  0  0  0  0  0  0  0  0  0  0
  2  1  1  6
  3  2  1  0
  4  2  1  0
  4  6  1  0
  4  5  1  1
  6  7  2  0
  9  8  1  6
 10  9  1  0
 11 13  1  0
 11  9  1  0
 12  6  1  0
 11 12  1  1
 13 14  2  0
 16 18  1  0
 16 15  1  6
 17 16  1  0
 19 18  1  6
 19 21  1  0
 20 19  1  0
 20 13  1  0
 21 22  2  0
 21 23  1  0
M  END
$$$$
