TVL.pdb
     RDKit          3D

 23 22  0  0  1  0  0  0  0  0999 V2000
   25.7394  -18.2364   -7.9155 C   0  0  0  0  0  0  0  0  0  0  0  0
   26.8221  -19.2863   -7.7684 C   0  0  1  0  0  0  0  0  0  0  0  0
   26.8675  -19.5549   -6.3749 O   0  0  0  0  0  0  0  0  0  0  0  0
   26.4471  -20.5910   -8.4440 C   0  0  2  0  0  0  0  0  0  0  0  0
   27.5823  -21.4909   -8.1484 N   0  0  0  0  0  0  0  0  0  0  0  0
   26.3716  -20.5080   -9.9112 C   0  0  0  0  0  0  0  0  0  0  0  0
   27.3837  -20.1463  -10.6085 O   0  0  0  0  0  0  0  0  0  0  0  0
   23.9948  -22.7312  -12.5718 C   0  0  0  0  0  0  0  0  0  0  0  0
   25.1563  -21.8370  -12.9242 C   0  0  2  0  0  0  0  0  0  0  0  0
   26.4548  -22.5505  -12.7447 C   0  0  0  0  0  0  0  0  0  0  0  0
   25.1542  -20.5571  -12.1078 C   0  0  2  0  0  0  0  0  0  0  0  0
   25.2156  -20.8088  -10.7006 N   0  0  0  0  0  0  0  0  0  0  0  0
   24.0021  -19.7657  -12.5693 C   0  0  0  0  0  0  0  0  0  0  0  0
   23.0356  -19.7080  -11.7290 O   0  0  0  0  0  0  0  0  0  0  0  0
   22.0179  -15.9254  -16.9527 C   0  0  0  0  0  0  0  0  0  0  0  0
   21.6360  -16.6475  -15.6462 C   0  0  2  0  0  0  0  0  0  0  0  0
   21.2283  -15.5190  -14.7075 C   0  0  0  0  0  0  0  0  0  0  0  0
   22.8515  -17.3859  -15.2109 C   0  0  0  0  0  0  0  0  0  0  0  0
   22.6447  -18.4037  -14.1255 C   0  0  2  0  0  0  0  0  0  0  0  0
   23.8690  -19.0980  -13.7888 N   0  0  0  0  0  0  0  0  0  0  0  0
   21.5376  -19.3369  -14.3479 C   0  0  0  0  0  0  0  0  0  0  0  0
   20.3722  -19.1591  -13.9144 O   0  0  0  0  0  0  0  0  0  0  0  0
   21.7424  -20.5199  -15.0862 O   0  0  0  0  0  0  0  0  0  0  0  0
  2  1  1  1
  3  2  1  0
  4  2  1  0
  4  6  1  0
  4  5  1  6
  6  7  2  0
  9  8  1  1
 10  9  1  0
 11 13  1  0
 11  9  1  0
 12  6  1  0
 11 12  1  1
 13 14  2  0
 16 18  1  0
 16 15  1  6
 17 16  1  0
 19 18  1  6
 19 21  1  0
 20 19  1  0
 20 13  1  0
 21 22  2  0
 21 23  1  0
M  END
$$$$
