TVL.pdb
     RDKit          3D

 23 22  0  0  1  0  0  0  0  0999 V2000
   18.9944  -14.6308  -15.7912 C   0  0  0  0  0  0  0  0  0  0  0  0
   18.7877  -15.1725  -17.1913 C   0  0  1  0  0  0  0  0  0  0  0  0
   17.9883  -16.3316  -17.0077 O   0  0  0  0  0  0  0  0  0  0  0  0
   17.9775  -14.2259  -18.0554 C   0  0  2  0  0  0  0  0  0  0  0  0
   17.9140  -14.9004  -19.3695 N   0  0  0  0  0  0  0  0  0  0  0  0
   18.6287  -12.9293  -18.3002 C   0  0  0  0  0  0  0  0  0  0  0  0
   19.6634  -12.8373  -19.0499 O   0  0  0  0  0  0  0  0  0  0  0  0
   17.3460   -9.3492  -19.5050 C   0  0  0  0  0  0  0  0  0  0  0  0
   18.0563   -9.2633  -18.1779 C   0  0  2  0  0  0  0  0  0  0  0  0
   18.8564   -8.0073  -18.0795 C   0  0  0  0  0  0  0  0  0  0  0  0
   18.9515  -10.4651  -17.9354 C   0  0  2  0  0  0  0  0  0  0  0  0
   18.2052  -11.6732  -17.7592 N   0  0  0  0  0  0  0  0  0  0  0  0
   19.8547  -10.1010  -16.8316 C   0  0  0  0  0  0  0  0  0  0  0  0
   19.2784  -10.0148  -15.6897 O   0  0  0  0  0  0  0  0  0  0  0  0
   25.6519  -10.2875  -14.9781 C   0  0  0  0  0  0  0  0  0  0  0  0
   24.2369   -9.8165  -14.5906 C   0  0  2  0  0  0  0  0  0  0  0  0
   23.9165  -10.6112  -13.3310 C   0  0  0  0  0  0  0  0  0  0  0  0
   23.3614  -10.1406  -15.7484 C   0  0  0  0  0  0  0  0  0  0  0  0
   21.9905   -9.5267  -15.7236 C   0  0  2  0  0  0  0  0  0  0  0  0
   21.2265   -9.8507  -16.9092 N   0  0  0  0  0  0  0  0  0  0  0  0
   21.9548   -8.0913  -15.4329 C   0  0  0  0  0  0  0  0  0  0  0  0
   22.0152   -7.1958  -16.3116 O   0  0  0  0  0  0  0  0  0  0  0  0
   21.8478   -7.6378  -14.1027 O   0  0  0  0  0  0  0  0  0  0  0  0
  2  1  1  1
  3  2  1  0
  4  2  1  0
  4  6  1  0
  4  5  1  6
  6  7  2  0
  9  8  1  6
 10  9  1  0
 11 13  1  0
 11  9  1  0
 12  6  1  0
 11 12  1  1
 13 14  2  0
 16 18  1  0
 16 15  1  6
 17 16  1  0
 19 18  1  6
 19 21  1  0
 20 19  1  0
 20 13  1  0
 21 22  2  0
 21 23  1  0
M  END
$$$$
