TVL.pdb
     RDKit          3D

 23 22  0  0  1  0  0  0  0  0999 V2000
   16.7214   -9.4725  -16.7758 C   0  0  0  0  0  0  0  0  0  0  0  0
   16.9205  -10.9606  -16.5704 C   0  0  1  0  0  0  0  0  0  0  0  0
   16.2976  -11.5597  -17.6971 O   0  0  0  0  0  0  0  0  0  0  0  0
   18.3836  -11.3540  -16.6303 C   0  0  2  0  0  0  0  0  0  0  0  0
   18.3749  -12.8151  -16.4044 N   0  0  0  0  0  0  0  0  0  0  0  0
   19.2037  -10.7851  -15.5491 C   0  0  0  0  0  0  0  0  0  0  0  0
   18.9828  -11.0813  -14.3224 O   0  0  0  0  0  0  0  0  0  0  0  0
   22.9045   -8.6594  -16.1786 C   0  0  0  0  0  0  0  0  0  0  0  0
   22.5550   -9.3926  -14.9085 C   0  0  2  0  0  0  0  0  0  0  0  0
   23.0373  -10.8042  -14.9553 C   0  0  0  0  0  0  0  0  0  0  0  0
   21.0626   -9.3666  -14.6315 C   0  0  2  0  0  0  0  0  0  0  0  0
   20.2966   -9.8774  -15.7268 N   0  0  0  0  0  0  0  0  0  0  0  0
   20.7378   -7.9960  -14.2041 C   0  0  0  0  0  0  0  0  0  0  0  0
   20.3069   -7.2415  -15.1467 O   0  0  0  0  0  0  0  0  0  0  0  0
   18.7607   -4.6629   -9.5822 C   0  0  0  0  0  0  0  0  0  0  0  0
   19.2117   -4.5857  -11.0536 C   0  0  2  0  0  0  0  0  0  0  0  0
   17.9878   -4.0504  -11.7860 C   0  0  0  0  0  0  0  0  0  0  0  0
   19.5913   -5.9700  -11.4432 C   0  0  0  0  0  0  0  0  0  0  0  0
   20.4791   -6.0897  -12.6491 C   0  0  2  0  0  0  0  0  0  0  0  0
   20.8507   -7.4622  -12.9185 N   0  0  0  0  0  0  0  0  0  0  0  0
   21.6450   -5.2027  -12.6560 C   0  0  0  0  0  0  0  0  0  0  0  0
   22.7662   -5.5138  -12.1828 O   0  0  0  0  0  0  0  0  0  0  0  0
   21.5532   -3.9122  -13.2154 O   0  0  0  0  0  0  0  0  0  0  0  0
  2  1  1  6
  3  2  1  0
  4  2  1  0
  4  6  1  0
  4  5  1  1
  6  7  2  0
  9  8  1  6
 10  9  1  0
 11 13  1  0
 11  9  1  0
 12  6  1  0
 11 12  1  6
 13 14  2  0
 16 18  1  0
 16 15  1  1
 17 16  1  0
 19 18  1  1
 19 21  1  0
 20 19  1  0
 20 13  1  0
 21 22  2  0
 21 23  1  0
M  END
$$$$
