TVL.pdb
     RDKit          3D

 23 22  0  0  1  0  0  0  0  0999 V2000
   27.0792  -19.5784  -11.9147 C   0  0  0  0  0  0  0  0  0  0  0  0
   27.1149  -21.0766  -12.1391 C   0  0  1  0  0  0  0  0  0  0  0  0
   27.7987  -21.5881  -11.0047 O   0  0  0  0  0  0  0  0  0  0  0  0
   25.7285  -21.6901  -12.1161 C   0  0  2  0  0  0  0  0  0  0  0  0
   25.9666  -23.1311  -12.3461 N   0  0  0  0  0  0  0  0  0  0  0  0
   24.8566  -21.2464  -13.2152 C   0  0  0  0  0  0  0  0  0  0  0  0
   25.0558  -21.6362  -14.4192 O   0  0  0  0  0  0  0  0  0  0  0  0
   21.1296  -21.6364  -13.7207 C   0  0  0  0  0  0  0  0  0  0  0  0
   21.4511  -20.1820  -13.9541 C   0  0  2  0  0  0  0  0  0  0  0  0
   20.6651  -19.6373  -15.1000 C   0  0  0  0  0  0  0  0  0  0  0  0
   22.9336  -19.9608  -14.1944 C   0  0  2  0  0  0  0  0  0  0  0  0
   23.7328  -20.3696  -13.0802 N   0  0  0  0  0  0  0  0  0  0  0  0
   23.0869  -18.5585  -14.6149 C   0  0  0  0  0  0  0  0  0  0  0  0
   22.7715  -17.7035  -13.7132 O   0  0  0  0  0  0  0  0  0  0  0  0
   27.0035  -14.9670  -17.0796 C   0  0  0  0  0  0  0  0  0  0  0  0
   25.5664  -14.9560  -16.5237 C   0  0  2  0  0  0  0  0  0  0  0  0
   25.6542  -14.0605  -15.2944 C   0  0  0  0  0  0  0  0  0  0  0  0
   25.2306  -16.3721  -16.2169 C   0  0  0  0  0  0  0  0  0  0  0  0
   23.7673  -16.6811  -16.0749 C   0  0  2  0  0  0  0  0  0  0  0  0
   23.5267  -18.0911  -15.8554 N   0  0  0  0  0  0  0  0  0  0  0  0
   22.9107  -16.1451  -17.1355 C   0  0  0  0  0  0  0  0  0  0  0  0
   22.6754  -16.7412  -18.2159 O   0  0  0  0  0  0  0  0  0  0  0  0
   22.2912  -14.8884  -16.9821 O   0  0  0  0  0  0  0  0  0  0  0  0
  2  1  1  1
  3  2  1  0
  4  2  1  0
  4  6  1  0
  4  5  1  6
  6  7  2  0
  9  8  1  6
 10  9  1  0
 11 13  1  0
 11  9  1  0
 12  6  1  0
 11 12  1  1
 13 14  2  0
 16 18  1  0
 16 15  1  1
 17 16  1  0
 19 18  1  6
 19 21  1  0
 20 19  1  0
 20 13  1  0
 21 22  2  0
 21 23  1  0
M  END
$$$$
