TVL.pdb
     RDKit          3D

 23 22  0  0  1  0  0  0  0  0999 V2000
   17.2127  -13.7111  -15.7768 C   0  0  0  0  0  0  0  0  0  0  0  0
   16.8701  -14.0271  -17.2187 C   0  0  1  0  0  0  0  0  0  0  0  0
   15.9456  -15.1016  -17.1353 O   0  0  0  0  0  0  0  0  0  0  0  0
   16.1385  -12.8842  -17.8949 C   0  0  2  0  0  0  0  0  0  0  0  0
   15.9255  -13.3592  -19.2787 N   0  0  0  0  0  0  0  0  0  0  0  0
   16.9299  -11.6492  -18.0114 C   0  0  0  0  0  0  0  0  0  0  0  0
   17.9411  -11.5802  -18.7950 O   0  0  0  0  0  0  0  0  0  0  0  0
   16.0390   -7.7675  -18.7998 C   0  0  0  0  0  0  0  0  0  0  0  0
   16.7004   -7.9873  -17.4630 C   0  0  2  0  0  0  0  0  0  0  0  0
   17.5749   -6.8330  -17.1021 C   0  0  0  0  0  0  0  0  0  0  0  0
   17.5064   -9.2734  -17.4342 C   0  0  2  0  0  0  0  0  0  0  0  0
   16.6780  -10.4323  -17.3002 N   0  0  0  0  0  0  0  0  0  0  0  0
   18.5397   -9.0992  -16.4004 C   0  0  0  0  0  0  0  0  0  0  0  0
   18.0861   -9.0965  -15.2013 O   0  0  0  0  0  0  0  0  0  0  0  0
   24.2450  -10.4809  -15.0323 C   0  0  0  0  0  0  0  0  0  0  0  0
   23.0509   -9.6267  -14.5646 C   0  0  2  0  0  0  0  0  0  0  0  0
   22.6273  -10.2735  -13.2520 C   0  0  0  0  0  0  0  0  0  0  0  0
   22.0289   -9.7196  -15.6413 C   0  0  0  0  0  0  0  0  0  0  0  0
   20.8180   -8.8470  -15.4705 C   0  0  2  0  0  0  0  0  0  0  0  0
   19.9137   -8.9430  -16.5962 N   0  0  0  0  0  0  0  0  0  0  0  0
   21.0983   -7.4526  -15.1196 C   0  0  0  0  0  0  0  0  0  0  0  0
   21.2931   -6.5423  -15.9630 O   0  0  0  0  0  0  0  0  0  0  0  0
   21.1645   -7.0592  -13.7677 O   0  0  0  0  0  0  0  0  0  0  0  0
  2  1  1  1
  3  2  1  0
  4  2  1  0
  4  6  1  0
  4  5  1  6
  6  7  2  0
  9  8  1  6
 10  9  1  0
 11 13  1  0
 11  9  1  0
 12  6  1  0
 11 12  1  1
 13 14  2  0
 16 18  1  0
 16 15  1  6
 17 16  1  0
 19 18  1  6
 19 21  1  0
 20 19  1  0
 20 13  1  0
 21 22  2  0
 21 23  1  0
M  END
$$$$
