TVL.pdb
     RDKit          3D

 23 22  0  0  1  0  0  0  0  0999 V2000
   23.5956  -15.9866  -17.8465 C   0  0  0  0  0  0  0  0  0  0  0  0
   23.6874  -17.1864  -16.9254 C   0  0  1  0  0  0  0  0  0  0  0  0
   22.5067  -17.9285  -17.1924 O   0  0  0  0  0  0  0  0  0  0  0  0
   24.8513  -18.0908  -17.2809 C   0  0  2  0  0  0  0  0  0  0  0  0
   24.4425  -18.7236  -18.5530 N   0  0  0  0  0  0  0  0  0  0  0  0
   25.0652  -19.1957  -16.3330 C   0  0  0  0  0  0  0  0  0  0  0  0
   24.3595  -20.2635  -16.3881 O   0  0  0  0  0  0  0  0  0  0  0  0
   28.4446  -19.6618  -13.5276 C   0  0  0  0  0  0  0  0  0  0  0  0
   27.6152  -20.7354  -14.1852 C   0  0  2  0  0  0  0  0  0  0  0  0
   28.1972  -21.1303  -15.5016 C   0  0  0  0  0  0  0  0  0  0  0  0
   26.1715  -20.3036  -14.3686 C   0  0  2  0  0  0  0  0  0  0  0  0
   26.0416  -19.2131  -15.2860 N   0  0  0  0  0  0  0  0  0  0  0  0
   25.6255  -20.0775  -13.0205 C   0  0  0  0  0  0  0  0  0  0  0  0
   25.8126  -18.8914  -12.5714 O   0  0  0  0  0  0  0  0  0  0  0  0
   21.9488  -19.0505  -11.3455 C   0  0  0  0  0  0  0  0  0  0  0  0
   22.1124  -20.5630  -11.5905 C   0  0  2  0  0  0  0  0  0  0  0  0
   20.7130  -21.1245  -11.3734 C   0  0  0  0  0  0  0  0  0  0  0  0
   23.1141  -21.0369  -10.5984 C   0  0  0  0  0  0  0  0  0  0  0  0
   24.5396  -20.6507  -10.8730 C   0  0  2  0  0  0  0  0  0  0  0  0
   24.9494  -20.9981  -12.2168 N   0  0  0  0  0  0  0  0  0  0  0  0
   25.5123  -21.1057   -9.8766 C   0  0  0  0  0  0  0  0  0  0  0  0
   26.4258  -21.9342  -10.1150 O   0  0  0  0  0  0  0  0  0  0  0  0
   25.4610  -20.6139   -8.5567 O   0  0  0  0  0  0  0  0  0  0  0  0
  2  1  1  6
  3  2  1  0
  4  2  1  0
  4  6  1  0
  4  5  1  6
  6  7  2  0
  9  8  1  6
 10  9  1  0
 11 13  1  0
 11  9  1  0
 12  6  1  0
 11 12  1  6
 13 14  2  0
 16 18  1  0
 16 15  1  1
 17 16  1  0
 19 18  1  1
 19 21  1  0
 20 19  1  0
 20 13  1  0
 21 22  2  0
 21 23  1  0
M  END
$$$$
