TVL.pdb
     RDKit          3D

 23 22  0  0  1  0  0  0  0  0999 V2000
   25.7346  -13.9042  -15.8698 C   0  0  0  0  0  0  0  0  0  0  0  0
   24.8775  -12.9153  -16.6338 C   0  0  1  0  0  0  0  0  0  0  0  0
   25.1312  -13.2086  -17.9997 O   0  0  0  0  0  0  0  0  0  0  0  0
   23.3966  -13.1536  -16.4124 C   0  0  2  0  0  0  0  0  0  0  0  0
   23.0827  -14.3102  -17.2783 N   0  0  0  0  0  0  0  0  0  0  0  0
   22.5348  -12.0563  -16.8797 C   0  0  0  0  0  0  0  0  0  0  0  0
   22.3895  -11.8122  -18.1289 O   0  0  0  0  0  0  0  0  0  0  0  0
   19.2714  -10.3295  -14.8416 C   0  0  0  0  0  0  0  0  0  0  0  0
   19.5931  -10.1138  -16.2986 C   0  0  2  0  0  0  0  0  0  0  0  0
   19.0018  -11.1933  -17.1428 C   0  0  0  0  0  0  0  0  0  0  0  0
   21.0891  -10.0299  -16.5423 C   0  0  2  0  0  0  0  0  0  0  0  0
   21.7879  -11.1718  -16.0371 N   0  0  0  0  0  0  0  0  0  0  0  0
   21.5279   -8.7254  -16.0204 C   0  0  0  0  0  0  0  0  0  0  0  0
   21.9522   -8.7607  -14.8111 O   0  0  0  0  0  0  0  0  0  0  0  0
   23.8392   -4.2001  -15.3664 C   0  0  0  0  0  0  0  0  0  0  0  0
   22.8189   -3.9386  -16.4911 C   0  0  2  0  0  0  0  0  0  0  0  0
   21.6635   -3.2406  -15.7849 C   0  0  0  0  0  0  0  0  0  0  0  0
   22.4684   -5.2716  -17.0500 C   0  0  0  0  0  0  0  0  0  0  0  0
   22.0188   -6.3011  -16.0527 C   0  0  2  0  0  0  0  0  0  0  0  0
   21.5253   -7.5014  -16.6930 N   0  0  0  0  0  0  0  0  0  0  0  0
   21.0913   -5.8143  -15.0286 C   0  0  0  0  0  0  0  0  0  0  0  0
   21.4506   -5.3774  -13.9071 O   0  0  0  0  0  0  0  0  0  0  0  0
   19.7024   -5.8168  -15.2683 O   0  0  0  0  0  0  0  0  0  0  0  0
  2  1  1  1
  3  2  1  0
  4  2  1  0
  4  6  1  0
  4  5  1  6
  6  7  2  0
  9  8  1  1
 10  9  1  0
 11 13  1  0
 11  9  1  0
 12  6  1  0
 11 12  1  1
 13 14  2  0
 16 18  1  0
 16 15  1  1
 17 16  1  0
 19 18  1  6
 19 21  1  0
 20 19  1  0
 20 13  1  0
 21 22  2  0
 21 23  1  0
M  END
$$$$
