TVL.pdb
     RDKit          3D

 23 22  0  0  1  0  0  0  0  0999 V2000
   29.0384  -18.5856  -14.3290 C   0  0  0  0  0  0  0  0  0  0  0  0
   28.0786  -17.9930  -15.3408 C   0  0  1  0  0  0  0  0  0  0  0  0
   28.7532  -18.1179  -16.5839 O   0  0  0  0  0  0  0  0  0  0  0  0
   26.8039  -18.8051  -15.4617 C   0  0  2  0  0  0  0  0  0  0  0  0
   25.9709  -18.0325  -16.4078 N   0  0  0  0  0  0  0  0  0  0  0  0
   26.0245  -18.8895  -14.2164 C   0  0  0  0  0  0  0  0  0  0  0  0
   25.4021  -17.8703  -13.7526 O   0  0  0  0  0  0  0  0  0  0  0  0
   24.4251  -22.4651  -12.3714 C   0  0  0  0  0  0  0  0  0  0  0  0
   23.9684  -21.0370  -12.2137 C   0  0  2  0  0  0  0  0  0  0  0  0
   23.0211  -20.6547  -13.3018 C   0  0  0  0  0  0  0  0  0  0  0  0
   25.1369  -20.0683  -12.1837 C   0  0  2  0  0  0  0  0  0  0  0  0
   25.8719  -20.0636  -13.4114 N   0  0  0  0  0  0  0  0  0  0  0  0
   25.9120  -20.3815  -10.9721 C   0  0  0  0  0  0  0  0  0  0  0  0
   26.8254  -21.2637  -11.1478 O   0  0  0  0  0  0  0  0  0  0  0  0
   27.0462  -19.9178   -5.5754 C   0  0  0  0  0  0  0  0  0  0  0  0
   28.0847  -19.7475   -6.7010 C   0  0  2  0  0  0  0  0  0  0  0  0
   29.0488  -18.7010   -6.1570 C   0  0  0  0  0  0  0  0  0  0  0  0
   27.3255  -19.3040   -7.9007 C   0  0  0  0  0  0  0  0  0  0  0  0
   26.4806  -20.3536   -8.5648 C   0  0  2  0  0  0  0  0  0  0  0  0
   25.7514  -19.8290   -9.6994 N   0  0  0  0  0  0  0  0  0  0  0  0
   25.6082  -21.1131   -7.6657 C   0  0  0  0  0  0  0  0  0  0  0  0
   26.0114  -22.0237   -6.9003 O   0  0  0  0  0  0  0  0  0  0  0  0
   24.2255  -20.8433   -7.6211 O   0  0  0  0  0  0  0  0  0  0  0  0
  2  1  1  1
  3  2  1  0
  4  2  1  0
  4  6  1  0
  4  5  1  6
  6  7  2  0
  9  8  1  6
 10  9  1  0
 11 13  1  0
 11  9  1  0
 12  6  1  0
 11 12  1  6
 13 14  2  0
 16 18  1  0
 16 15  1  1
 17 16  1  0
 19 18  1  1
 19 21  1  0
 20 19  1  0
 20 13  1  0
 21 22  2  0
 21 23  1  0
M  END
$$$$
