TVL.pdb
     RDKit          3D

 23 22  0  0  1  0  0  0  0  0999 V2000
   21.5233  -20.2217  -10.4576 C   0  0  0  0  0  0  0  0  0  0  0  0
   21.5473  -21.0245  -11.7426 C   0  0  1  0  0  0  0  0  0  0  0  0
   20.4484  -20.5265  -12.4914 O   0  0  0  0  0  0  0  0  0  0  0  0
   22.7889  -20.7451  -12.5667 C   0  0  2  0  0  0  0  0  0  0  0  0
   22.6183  -21.5821  -13.7735 N   0  0  0  0  0  0  0  0  0  0  0  0
   24.0411  -21.1958  -11.9389 C   0  0  0  0  0  0  0  0  0  0  0  0
   24.3584  -22.4366  -11.9069 O   0  0  0  0  0  0  0  0  0  0  0  0
   27.7045  -19.1446  -11.5416 C   0  0  0  0  0  0  0  0  0  0  0  0
   27.4474  -20.6130  -11.3163 C   0  0  2  0  0  0  0  0  0  0  0  0
   27.4604  -21.3628  -12.6066 C   0  0  0  0  0  0  0  0  0  0  0  0
   26.1345  -20.8540  -10.5933 C   0  0  2  0  0  0  0  0  0  0  0  0
   25.0116  -20.3448  -11.3193 N   0  0  0  0  0  0  0  0  0  0  0  0
   26.3052  -20.3344   -9.2267 C   0  0  0  0  0  0  0  0  0  0  0  0
   25.3720  -19.5416   -8.8471 O   0  0  0  0  0  0  0  0  0  0  0  0
   27.6452  -20.7663   -4.1296 C   0  0  0  0  0  0  0  0  0  0  0  0
   28.3772  -21.4353   -5.3090 C   0  0  2  0  0  0  0  0  0  0  0  0
   29.6260  -22.0345   -4.6749 C   0  0  0  0  0  0  0  0  0  0  0  0
   28.6577  -20.3526   -6.2896 C   0  0  0  0  0  0  0  0  0  0  0  0
   27.4823  -19.8825   -7.0985 C   0  0  2  0  0  0  0  0  0  0  0  0
   27.3477  -20.6135   -8.3401 N   0  0  0  0  0  0  0  0  0  0  0  0
   27.4114  -18.4351   -7.3128 C   0  0  0  0  0  0  0  0  0  0  0  0
   27.7370  -17.8678   -8.3852 O   0  0  0  0  0  0  0  0  0  0  0  0
   26.9577  -17.5854   -6.2839 O   0  0  0  0  0  0  0  0  0  0  0  0
  2  1  1  1
  3  2  1  0
  4  2  1  0
  4  6  1  0
  4  5  1  6
  6  7  2  0
  9  8  1  6
 10  9  1  0
 11 13  1  0
 11  9  1  0
 12  6  1  0
 11 12  1  6
 13 14  2  0
 16 18  1  0
 16 15  1  1
 17 16  1  0
 19 18  1  6
 19 21  1  0
 20 19  1  0
 20 13  1  0
 21 22  2  0
 21 23  1  0
M  END
$$$$
