TVL.pdb
     RDKit          3D

 23 22  0  0  1  0  0  0  0  0999 V2000
   36.3545  -38.2896   -6.0999 C   0  0  0  0  0  0  0  0  0  0  0  0
   36.7581  -37.3533   -7.2209 C   0  0  1  0  0  0  0  0  0  0  0  0
   37.3640  -38.1990   -8.1873 O   0  0  0  0  0  0  0  0  0  0  0  0
   35.5569  -36.7219   -7.8972 C   0  0  2  0  0  0  0  0  0  0  0  0
   36.1436  -35.8578   -8.9438 N   0  0  0  0  0  0  0  0  0  0  0  0
   34.7787  -35.8265   -7.0266 C   0  0  0  0  0  0  0  0  0  0  0  0
   34.6956  -34.5714   -7.2697 O   0  0  0  0  0  0  0  0  0  0  0  0
   32.7021  -33.9210   -7.1343 C   0  0  0  0  0  0  0  0  0  0  0  0
   32.1264  -34.7200   -5.9927 C   0  0  2  0  0  0  0  0  0  0  0  0
   31.2226  -33.8795   -5.1535 C   0  0  0  0  0  0  0  0  0  0  0  0
   33.2116  -35.3334   -5.1263 C   0  0  2  0  0  0  0  0  0  0  0  0
   34.0528  -36.2288   -5.8599 N   0  0  0  0  0  0  0  0  0  0  0  0
   32.5374  -35.9045   -3.9490 C   0  0  0  0  0  0  0  0  0  0  0  0
   31.7983  -36.9191   -4.2093 O   0  0  0  0  0  0  0  0  0  0  0  0
   34.1749  -38.1672   -0.5355 C   0  0  0  0  0  0  0  0  0  0  0  0
   34.2921  -36.6402   -0.3664 C   0  0  2  0  0  0  0  0  0  0  0  0
   35.0877  -36.4726    0.9219 C   0  0  0  0  0  0  0  0  0  0  0  0
   32.8992  -36.1244   -0.2876 C   0  0  0  0  0  0  0  0  0  0  0  0
   32.0830  -36.2516   -1.5423 C   0  0  2  0  0  0  0  0  0  0  0  0
   32.6245  -35.4617   -2.6273 N   0  0  0  0  0  0  0  0  0  0  0  0
   30.6447  -36.0282   -1.3764 C   0  0  0  0  0  0  0  0  0  0  0  0
   29.9297  -36.6456   -0.5486 O   0  0  0  0  0  0  0  0  0  0  0  0
   29.9772  -35.0740   -2.1704 O   0  0  0  0  0  0  0  0  0  0  0  0
  2  1  1  1
  3  2  1  0
  4  2  1  0
  4  6  1  0
  4  5  1  6
  6  7  2  0
  9  8  1  6
 10  9  1  0
 11 13  1  0
 11  9  1  0
 12  6  1  0
 11 12  1  6
 13 14  2  0
 16 18  1  0
 16 15  1  1
 17 16  1  0
 19 18  1  1
 19 21  1  0
 20 19  1  0
 20 13  1  0
 21 22  2  0
 21 23  1  0
M  END
$$$$
