TVL.pdb
     RDKit          3D

 23 22  0  0  1  0  0  0  0  0999 V2000
   27.5339  -11.4294  -22.0945 C   0  0  0  0  0  0  0  0  0  0  0  0
   26.8956  -12.4593  -21.1844 C   0  0  1  0  0  0  0  0  0  0  0  0
   26.2722  -13.3768  -22.0708 O   0  0  0  0  0  0  0  0  0  0  0  0
   27.9282  -13.2505  -20.4056 C   0  0  2  0  0  0  0  0  0  0  0  0
   27.1253  -14.1551  -19.5554 N   0  0  0  0  0  0  0  0  0  0  0  0
   28.7342  -12.4391  -19.4797 C   0  0  0  0  0  0  0  0  0  0  0  0
   28.2214  -11.9369  -18.4185 O   0  0  0  0  0  0  0  0  0  0  0  0
   33.0823  -12.1029  -19.5256 C   0  0  0  0  0  0  0  0  0  0  0  0
   32.1818  -11.9206  -18.3302 C   0  0  2  0  0  0  0  0  0  0  0  0
   31.9640  -13.2159  -17.6216 C   0  0  0  0  0  0  0  0  0  0  0  0
   30.8451  -11.3125  -18.7152 C   0  0  2  0  0  0  0  0  0  0  0  0
   30.1224  -12.1285  -19.6421 N   0  0  0  0  0  0  0  0  0  0  0  0
   31.1202   -9.9339  -19.1516 C   0  0  0  0  0  0  0  0  0  0  0  0
   31.3442   -9.8169  -20.4084 O   0  0  0  0  0  0  0  0  0  0  0  0
   29.4073   -4.2700  -18.7273 C   0  0  0  0  0  0  0  0  0  0  0  0
   30.5999   -5.1238  -19.1996 C   0  0  2  0  0  0  0  0  0  0  0  0
   30.5399   -5.0313  -20.7190 C   0  0  0  0  0  0  0  0  0  0  0  0
   30.3649   -6.4929  -18.6679 C   0  0  0  0  0  0  0  0  0  0  0  0
   31.4546   -7.4927  -18.9317 C   0  0  2  0  0  0  0  0  0  0  0  0
   31.1583   -8.7868  -18.3556 N   0  0  0  0  0  0  0  0  0  0  0  0
   32.8073   -7.0459  -18.5904 C   0  0  0  0  0  0  0  0  0  0  0  0
   33.3452   -7.2295  -17.4702 O   0  0  0  0  0  0  0  0  0  0  0  0
   33.5921   -6.3639  -19.5421 O   0  0  0  0  0  0  0  0  0  0  0  0
  2  1  1  6
  3  2  1  0
  4  2  1  0
  4  6  1  0
  4  5  1  1
  6  7  2  0
  9  8  1  6
 10  9  1  0
 11 13  1  0
 11  9  1  0
 12  6  1  0
 11 12  1  6
 13 14  2  0
 16 18  1  0
 16 15  1  1
 17 16  1  0
 19 18  1  1
 19 21  1  0
 20 19  1  0
 20 13  1  0
 21 22  2  0
 21 23  1  0
M  END
$$$$
