TVL.pdb
     RDKit          3D

 23 22  0  0  1  0  0  0  0  0999 V2000
   13.8249  -14.8022  -17.0055 C   0  0  0  0  0  0  0  0  0  0  0  0
   14.6233  -13.7364  -16.2824 C   0  0  1  0  0  0  0  0  0  0  0  0
   14.2239  -13.8552  -14.9250 O   0  0  0  0  0  0  0  0  0  0  0  0
   16.1128  -14.0176  -16.3168 C   0  0  2  0  0  0  0  0  0  0  0  0
   16.2825  -15.1798  -15.4188 N   0  0  0  0  0  0  0  0  0  0  0  0
   16.9406  -12.9438  -15.7450 C   0  0  0  0  0  0  0  0  0  0  0  0
   17.0994  -12.8309  -14.4788 O   0  0  0  0  0  0  0  0  0  0  0  0
   19.9203  -10.6611  -17.8536 C   0  0  0  0  0  0  0  0  0  0  0  0
   19.8339  -10.8659  -16.3624 C   0  0  2  0  0  0  0  0  0  0  0  0
   20.5374  -12.1167  -15.9523 C   0  0  0  0  0  0  0  0  0  0  0  0
   18.3958  -10.9006  -15.8775 C   0  0  2  0  0  0  0  0  0  0  0  0
   17.6375  -11.9441  -16.4967 N   0  0  0  0  0  0  0  0  0  0  0  0
   17.8644   -9.5375  -16.0392 C   0  0  0  0  0  0  0  0  0  0  0  0
   17.3064   -9.3236  -17.1734 O   0  0  0  0  0  0  0  0  0  0  0  0
   15.7232   -4.7372  -13.9943 C   0  0  0  0  0  0  0  0  0  0  0  0
   15.3551   -5.6834  -15.1534 C   0  0  2  0  0  0  0  0  0  0  0  0
   13.8325   -5.7259  -15.1245 C   0  0  0  0  0  0  0  0  0  0  0  0
   16.0017   -6.9868  -14.8447 C   0  0  0  0  0  0  0  0  0  0  0  0
   17.3708   -7.1919  -15.4278 C   0  0  2  0  0  0  0  0  0  0  0  0
   17.9095   -8.4967  -15.1089 N   0  0  0  0  0  0  0  0  0  0  0  0
   18.3350   -6.1254  -15.1463 C   0  0  0  0  0  0  0  0  0  0  0  0
   18.3431   -5.0143  -15.7320 O   0  0  0  0  0  0  0  0  0  0  0  0
   19.3334   -6.3096  -14.1686 O   0  0  0  0  0  0  0  0  0  0  0  0
  2  1  1  6
  3  2  1  0
  4  2  1  0
  4  6  1  0
  4  5  1  1
  6  7  2  0
  9  8  1  6
 10  9  1  0
 11 13  1  0
 11  9  1  0
 12  6  1  0
 11 12  1  6
 13 14  2  0
 16 18  1  0
 16 15  1  1
 17 16  1  0
 19 18  1  1
 19 21  1  0
 20 19  1  0
 20 13  1  0
 21 22  2  0
 21 23  1  0
M  END
$$$$
