RQP.pdb
     RDKit          3D

 28 28  0  0  1  0  0  0  0  0999 V2000
   28.5676  -21.9589   -9.9291 N   0  0  0  0  0  0  0  0  0  0  0  0
   28.6538  -21.3165  -11.1969 C   0  0  0  0  0  0  0  0  0  0  0  0
   29.7271  -21.4979  -11.8918 N   0  0  0  0  0  0  0  0  0  0  0  0
   27.6125  -20.5025  -11.7014 N   0  0  0  0  0  0  0  0  0  0  0  0
   26.2279  -21.0286  -11.7827 C   0  0  0  0  0  0  0  0  0  0  0  0
   25.9958  -21.6219  -13.1284 C   0  0  0  0  0  0  0  0  0  0  0  0
   25.6905  -20.7259  -14.2494 C   0  0  0  0  0  0  0  0  0  0  0  0
   24.3489  -20.6712  -14.8467 C   0  0  2  0  0  0  0  0  0  0  0  0
   24.5283  -19.5916  -15.9240 N   0  0  0  0  0  0  0  0  0  0  0  0
   23.3067  -20.0877  -13.9593 C   0  0  0  0  0  0  0  0  0  0  0  0
   23.0540  -18.8592  -13.9474 O   0  0  0  0  0  0  0  0  0  0  0  0
   29.9788  -21.0375  -12.7699 N   0  0  0  0  0  0  0  0  0  0  0  0
   18.2968  -18.2766  -12.5833 C   0  0  0  0  0  0  0  0  0  0  0  0
   19.2953  -17.6667  -13.3539 O   0  0  0  0  0  0  0  0  0  0  0  0
   19.2232  -16.4469  -13.5983 C   0  0  0  0  0  0  0  0  0  0  0  0
   20.4312  -18.4422  -13.8826 C   0  0  0  0  0  0  0  0  0  0  0  0
   20.4988  -19.8569  -13.4974 C   0  0  2  0  0  0  0  0  0  0  0  0
   21.3716  -20.2836  -12.3627 N   0  0  0  0  0  0  0  0  0  0  0  0
   22.5396  -20.8811  -13.0774 C   0  0  0  0  0  0  0  0  0  0  0  0
   20.7724  -21.3585  -11.5088 O   0  0  0  0  0  0  0  0  0  0  0  0
   19.8793  -22.0201  -12.0955 N   0  0  0  0  0  0  0  0  0  0  0  0
   21.1007  -21.6774  -10.1977 C   0  0  0  0  0  0  0  0  0  0  0  0
   22.3470  -21.2638   -9.4733 C   0  0  0  0  0  0  0  0  0  0  0  0
   21.7541  -20.6831   -8.2210 C   0  0  0  0  0  0  0  0  0  0  0  0
   20.3645  -21.3235   -8.0899 C   0  0  2  0  0  0  0  0  0  0  0  0
   20.4646  -22.4233   -9.1587 C   0  0  0  0  0  0  0  0  0  0  0  0
   19.2419  -23.1287   -9.3520 O   0  0  0  0  0  0  0  0  0  0  0  0
   18.3507  -22.5764  -10.1099 O   0  0  0  0  0  0  0  0  0  0  0  0
  2  1  1  0
  3  2  2  0
  4  2  1  0
  5  4  1  0
  6  5  1  0
  7  6  1  0
  8  7  1  0
  8  9  1  6
 10 18  1  0
 10  8  1  0
 11 10  2  0
 13 14  2  0
 13 12  1  0
 15 13  1  0
 16 15  1  0
 17 16  1  6
 17 18  1  0
 19 17  1  0
 20 19  2  0
 21 22  1  0
 21 19  1  0
 23 22  1  0
 24 23  1  0
 24 25  1  0
 25 21  1  0
 26 28  1  0
 25 26  1  6
 27 26  2  0
M  END
$$$$
