RQP.pdb
     RDKit          3D

 28 28  0  0  1  0  0  0  0  0999 V2000
   22.1903  -20.5980   -9.5454 N   0  0  0  0  0  0  0  0  0  0  0  0
   22.7151  -21.2743   -8.4076 C   0  0  0  0  0  0  0  0  0  0  0  0
   21.8752  -21.8049   -7.5824 N   0  0  0  0  0  0  0  0  0  0  0  0
   24.1054  -21.3763   -8.1666 N   0  0  0  0  0  0  0  0  0  0  0  0
   25.0669  -20.6462   -9.0285 C   0  0  0  0  0  0  0  0  0  0  0  0
   24.7258  -20.8699  -10.4605 C   0  0  0  0  0  0  0  0  0  0  0  0
   25.5721  -20.2556  -11.4897 C   0  0  0  0  0  0  0  0  0  0  0  0
   25.8285  -20.9233  -12.7735 C   0  0  2  0  0  0  0  0  0  0  0  0
   26.8835  -21.9674  -12.3794 N   0  0  0  0  0  0  0  0  0  0  0  0
   26.5465  -20.0821  -13.7688 C   0  0  0  0  0  0  0  0  0  0  0  0
   27.7949  -20.1096  -13.8869 O   0  0  0  0  0  0  0  0  0  0  0  0
   22.0917  -22.2903   -6.7084 N   0  0  0  0  0  0  0  0  0  0  0  0
   27.2484  -22.6320  -16.2060 C   0  0  0  0  0  0  0  0  0  0  0  0
   28.3810  -21.8305  -16.4007 O   0  0  0  0  0  0  0  0  0  0  0  0
   29.5123  -22.3527  -16.3879 C   0  0  0  0  0  0  0  0  0  0  0  0
   28.2593  -20.3785  -16.6200 C   0  0  0  0  0  0  0  0  0  0  0  0
   26.9000  -19.8248  -16.6237 C   0  0  2  0  0  0  0  0  0  0  0  0
   26.5827  -18.6123  -15.8110 N   0  0  0  0  0  0  0  0  0  0  0  0
   25.8664  -19.2023  -14.6401 C   0  0  0  0  0  0  0  0  0  0  0  0
   25.6370  -17.6639  -16.4819 O   0  0  0  0  0  0  0  0  0  0  0  0
   24.8022  -18.2371  -17.2263 N   0  0  0  0  0  0  0  0  0  0  0  0
   25.5976  -16.2813  -16.3585 C   0  0  0  0  0  0  0  0  0  0  0  0
   26.2734  -15.4696  -15.2938 C   0  0  0  0  0  0  0  0  0  0  0  0
   26.9977  -14.4608  -16.1391 C   0  0  0  0  0  0  0  0  0  0  0  0
   26.2372  -14.4213  -17.4727 C   0  0  2  0  0  0  0  0  0  0  0  0
   24.9824  -15.2265  -17.0997 C   0  0  0  0  0  0  0  0  0  0  0  0
   24.1194  -15.4631  -18.2084 O   0  0  0  0  0  0  0  0  0  0  0  0
   24.5131  -16.3178  -19.0961 O   0  0  0  0  0  0  0  0  0  0  0  0
  2  1  1  0
  3  2  2  0
  4  2  1  0
  5  4  1  0
  6  5  1  0
  7  6  1  0
  8  7  1  0
  8  9  1  1
 10 18  1  0
 10  8  1  0
 11 10  2  0
 13 14  2  0
 13 12  1  0
 15 13  1  0
 16 15  1  0
 17 16  1  1
 17 18  1  0
 19 17  1  0
 20 19  2  0
 21 22  1  0
 21 19  1  0
 23 22  1  0
 24 23  1  0
 24 25  1  0
 25 21  1  0
 26 28  1  0
 25 26  1  6
 27 26  2  0
M  END
$$$$
