RQP.pdb
     RDKit          3D

 28 28  0  0  1  0  0  0  0  0999 V2000
   26.2875  -17.9376  -18.1768 N   0  0  0  0  0  0  0  0  0  0  0  0
   27.0012  -17.1441  -19.1195 C   0  0  0  0  0  0  0  0  0  0  0  0
   26.3369  -16.2620  -19.7890 N   0  0  0  0  0  0  0  0  0  0  0  0
   28.3912  -17.2970  -19.3338 N   0  0  0  0  0  0  0  0  0  0  0  0
   29.1722  -18.2508  -18.5088 C   0  0  0  0  0  0  0  0  0  0  0  0
   28.3015  -19.3860  -18.0964 C   0  0  0  0  0  0  0  0  0  0  0  0
   27.9043  -19.4927  -16.6880 C   0  0  0  0  0  0  0  0  0  0  0  0
   28.2754  -20.6562  -15.8705 C   0  0  2  0  0  0  0  0  0  0  0  0
   28.5343  -21.7243  -16.9431 N   0  0  0  0  0  0  0  0  0  0  0  0
   27.1525  -21.2364  -15.0854 C   0  0  0  0  0  0  0  0  0  0  0  0
   26.6176  -22.3278  -15.3952 O   0  0  0  0  0  0  0  0  0  0  0  0
   26.6974  -15.6385  -20.5154 N   0  0  0  0  0  0  0  0  0  0  0  0
   26.5946  -19.8790   -9.1292 C   0  0  0  0  0  0  0  0  0  0  0  0
   25.5260  -20.7738   -9.2720 O   0  0  0  0  0  0  0  0  0  0  0  0
   24.9001  -21.1489   -8.2619 C   0  0  0  0  0  0  0  0  0  0  0  0
   25.1281  -21.2814  -10.5968 C   0  0  0  0  0  0  0  0  0  0  0  0
   25.9362  -20.8417  -11.7404 C   0  0  1  0  0  0  0  0  0  0  0  0
   25.5775  -21.2779  -13.1233 N   0  0  0  0  0  0  0  0  0  0  0  0
   26.6213  -20.5940  -13.9449 C   0  0  0  0  0  0  0  0  0  0  0  0
   24.2442  -20.7789  -13.5891 O   0  0  0  0  0  0  0  0  0  0  0  0
   24.1017  -19.5377  -13.4516 N   0  0  0  0  0  0  0  0  0  0  0  0
   23.2071  -21.5235  -14.1354 C   0  0  0  0  0  0  0  0  0  0  0  0
   23.3378  -22.8521  -14.8186 C   0  0  0  0  0  0  0  0  0  0  0  0
   22.2981  -23.6432  -14.0768 C   0  0  0  0  0  0  0  0  0  0  0  0
   21.3255  -22.6037  -13.5007 C   0  0  2  0  0  0  0  0  0  0  0  0
   21.7943  -21.3435  -14.2452 C   0  0  0  0  0  0  0  0  0  0  0  0
   21.1308  -20.1590  -13.8131 O   0  0  0  0  0  0  0  0  0  0  0  0
   21.6282  -19.5376  -12.7933 O   0  0  0  0  0  0  0  0  0  0  0  0
  2  1  1  0
  3  2  2  0
  4  2  1  0
  5  4  1  0
  6  5  1  0
  7  6  1  0
  8  7  1  0
  8  9  1  6
 10 18  1  0
 10  8  1  0
 11 10  2  0
 13 14  2  0
 13 12  1  0
 15 13  1  0
 16 15  1  0
 17 16  1  1
 17 18  1  0
 19 17  1  0
 20 19  2  0
 21 22  1  0
 21 19  1  0
 23 22  1  0
 24 23  1  0
 24 25  1  0
 25 21  1  0
 26 28  1  0
 25 26  1  1
 27 26  2  0
M  END
$$$$
