RQP.pdb
     RDKit          3D

 28 28  0  0  1  0  0  0  0  0999 V2000
   31.5898  -24.9141  -16.1270 N   0  0  0  0  0  0  0  0  0  0  0  0
   31.3990  -24.7727  -17.5310 C   0  0  0  0  0  0  0  0  0  0  0  0
   31.2291  -25.8473  -18.2266 N   0  0  0  0  0  0  0  0  0  0  0  0
   31.3911  -23.5088  -18.1666 N   0  0  0  0  0  0  0  0  0  0  0  0
   30.6549  -22.3733  -17.5589 C   0  0  0  0  0  0  0  0  0  0  0  0
   29.2676  -22.3301  -18.0978 C   0  0  0  0  0  0  0  0  0  0  0  0
   28.1446  -22.3774  -17.1548 C   0  0  0  0  0  0  0  0  0  0  0  0
   28.3434  -22.1821  -15.7119 C   0  0  2  0  0  0  0  0  0  0  0  0
   29.2663  -23.3580  -15.3598 N   0  0  0  0  0  0  0  0  0  0  0  0
   27.1347  -22.4469  -14.8856 C   0  0  0  0  0  0  0  0  0  0  0  0
   27.0656  -23.4226  -14.1004 O   0  0  0  0  0  0  0  0  0  0  0  0
   31.2060  -25.9251  -19.2463 N   0  0  0  0  0  0  0  0  0  0  0  0
   24.3491  -20.9497  -10.0023 C   0  0  0  0  0  0  0  0  0  0  0  0
   25.6285  -20.8884  -10.5699 O   0  0  0  0  0  0  0  0  0  0  0  0
   26.5115  -21.6765  -10.1803 C   0  0  0  0  0  0  0  0  0  0  0  0
   25.9505  -19.9069  -11.6207 C   0  0  0  0  0  0  0  0  0  0  0  0
   26.2648  -20.4444  -12.9498 C   0  0  2  0  0  0  0  0  0  0  0  0
   25.2619  -21.2793  -13.6768 N   0  0  0  0  0  0  0  0  0  0  0  0
   25.9928  -21.6167  -14.9353 C   0  0  0  0  0  0  0  0  0  0  0  0
   24.0220  -20.5344  -14.0661 O   0  0  0  0  0  0  0  0  0  0  0  0
   24.2075  -19.2996  -14.2090 N   0  0  0  0  0  0  0  0  0  0  0  0
   22.7531  -21.0577  -14.2775 C   0  0  0  0  0  0  0  0  0  0  0  0
   22.3970  -22.5131  -14.3411 C   0  0  0  0  0  0  0  0  0  0  0  0
   21.2577  -22.5576  -13.3629 C   0  0  0  0  0  0  0  0  0  0  0  0
   20.7174  -21.1216  -13.2969 C   0  0  2  0  0  0  0  0  0  0  0  0
   21.4583  -20.4921  -14.4872 C   0  0  0  0  0  0  0  0  0  0  0  0
   21.2382  -19.0893  -14.6049 O   0  0  0  0  0  0  0  0  0  0  0  0
   20.2583  -18.7025  -15.3558 O   0  0  0  0  0  0  0  0  0  0  0  0
  2  1  1  0
  3  2  2  0
  4  2  1  0
  5  4  1  0
  6  5  1  0
  7  6  1  0
  8  7  1  0
  8  9  1  1
 10 18  1  0
 10  8  1  0
 11 10  2  0
 13 14  2  0
 13 12  1  0
 15 13  1  0
 16 15  1  0
 17 16  1  1
 17 18  1  0
 19 17  1  0
 20 19  2  0
 21 22  1  0
 21 19  1  0
 23 22  1  0
 24 23  1  0
 24 25  1  0
 25 21  1  0
 26 28  1  0
 25 26  1  1
 27 26  2  0
M  END
$$$$
