RQP.pdb
     RDKit          3D

 28 28  0  0  1  0  0  0  0  0999 V2000
   18.0643  -22.5172  -11.1929 N   0  0  0  0  0  0  0  0  0  0  0  0
   18.8997  -22.9593  -10.1278 C   0  0  0  0  0  0  0  0  0  0  0  0
   18.3309  -23.4940   -9.0990 N   0  0  0  0  0  0  0  0  0  0  0  0
   20.3077  -22.8293  -10.1709 N   0  0  0  0  0  0  0  0  0  0  0  0
   21.0004  -22.6502  -11.4705 C   0  0  0  0  0  0  0  0  0  0  0  0
   21.4693  -21.2428  -11.5982 C   0  0  0  0  0  0  0  0  0  0  0  0
   22.9059  -20.9669  -11.4864 C   0  0  0  0  0  0  0  0  0  0  0  0
   23.8984  -21.7359  -12.2501 C   0  0  2  0  0  0  0  0  0  0  0  0
   24.7194  -22.3901  -11.1291 N   0  0  0  0  0  0  0  0  0  0  0  0
   24.9061  -20.9019  -12.9592 C   0  0  0  0  0  0  0  0  0  0  0  0
   25.8659  -20.3628  -12.3581 O   0  0  0  0  0  0  0  0  0  0  0  0
   18.7907  -23.8782   -8.2700 N   0  0  0  0  0  0  0  0  0  0  0  0
   28.7397  -20.6999  -17.5643 C   0  0  0  0  0  0  0  0  0  0  0  0
   28.9584  -21.4697  -16.4143 O   0  0  0  0  0  0  0  0  0  0  0  0
   30.1102  -21.8648  -16.1497 C   0  0  0  0  0  0  0  0  0  0  0  0
   27.8495  -21.8224  -15.5104 C   0  0  0  0  0  0  0  0  0  0  0  0
   26.5342  -21.2542  -15.8288 C   0  0  2  0  0  0  0  0  0  0  0  0
   26.0193  -20.0807  -15.0612 N   0  0  0  0  0  0  0  0  0  0  0  0
   24.8429  -20.6667  -14.3507 C   0  0  0  0  0  0  0  0  0  0  0  0
   25.5106  -18.9678  -15.9252 O   0  0  0  0  0  0  0  0  0  0  0  0
   24.6479  -19.3404  -16.7598 N   0  0  0  0  0  0  0  0  0  0  0  0
   25.8825  -17.6304  -15.8864 C   0  0  0  0  0  0  0  0  0  0  0  0
   26.5670  -16.9364  -14.7467 C   0  0  0  0  0  0  0  0  0  0  0  0
   27.7142  -16.2907  -15.4706 C   0  0  0  0  0  0  0  0  0  0  0  0
   27.2666  -16.1835  -16.9357 C   0  0  2  0  0  0  0  0  0  0  0  0
   25.7768  -16.5344  -16.7963 C   0  0  0  0  0  0  0  0  0  0  0  0
   25.1055  -16.6328  -18.0492 O   0  0  0  0  0  0  0  0  0  0  0  0
   25.5472  -17.5084  -18.8928 O   0  0  0  0  0  0  0  0  0  0  0  0
  2  1  1  0
  3  2  2  0
  4  2  1  0
  5  4  1  0
  6  5  1  0
  7  6  1  0
  8  7  1  0
  8  9  1  1
 10 18  1  0
 10  8  1  0
 11 10  2  0
 13 14  2  0
 13 12  1  0
 15 13  1  0
 16 15  1  0
 17 16  1  1
 17 18  1  0
 19 17  1  0
 20 19  2  0
 21 22  1  0
 21 19  1  0
 23 22  1  0
 24 23  1  0
 24 25  1  0
 25 21  1  0
 26 28  1  0
 25 26  1  6
 27 26  2  0
M  END
$$$$
