RQP.pdb
     RDKit          3D

 28 28  0  0  1  0  0  0  0  0999 V2000
   28.3015  -22.4487  -21.3429 N   0  0  0  0  0  0  0  0  0  0  0  0
   27.8150  -21.1647  -20.9655 C   0  0  0  0  0  0  0  0  0  0  0  0
   27.3479  -20.4008  -21.8960 N   0  0  0  0  0  0  0  0  0  0  0  0
   27.8312  -20.7176  -19.6234 N   0  0  0  0  0  0  0  0  0  0  0  0
   28.2869  -21.6240  -18.5411 C   0  0  0  0  0  0  0  0  0  0  0  0
   27.3822  -22.8038  -18.4617 C   0  0  0  0  0  0  0  0  0  0  0  0
   26.3192  -22.8087  -17.4504 C   0  0  0  0  0  0  0  0  0  0  0  0
   26.5666  -23.2694  -16.0771 C   0  0  2  0  0  0  0  0  0  0  0  0
   26.5579  -24.7952  -16.2511 N   0  0  0  0  0  0  0  0  0  0  0  0
   25.4360  -23.0337  -15.1389 C   0  0  0  0  0  0  0  0  0  0  0  0
   24.7879  -23.9776  -14.6268 O   0  0  0  0  0  0  0  0  0  0  0  0
   26.9616  -19.4600  -21.7859 N   0  0  0  0  0  0  0  0  0  0  0  0
   24.6045  -21.7281   -9.4283 C   0  0  0  0  0  0  0  0  0  0  0  0
   25.0848  -20.7440  -10.3022 O   0  0  0  0  0  0  0  0  0  0  0  0
   25.1331  -19.5576   -9.9240 C   0  0  0  0  0  0  0  0  0  0  0  0
   25.5342  -21.0860  -11.6632 C   0  0  0  0  0  0  0  0  0  0  0  0
   24.7107  -20.5904  -12.7725 C   0  0  2  0  0  0  0  0  0  0  0  0
   24.0175  -21.5536  -13.6796 N   0  0  0  0  0  0  0  0  0  0  0  0
   25.0245  -21.7340  -14.7685 C   0  0  0  0  0  0  0  0  0  0  0  0
   22.7731  -21.0056  -14.3080 O   0  0  0  0  0  0  0  0  0  0  0  0
   22.8244  -19.7671  -14.5154 N   0  0  0  0  0  0  0  0  0  0  0  0
   21.6294  -21.7060  -14.6682 C   0  0  0  0  0  0  0  0  0  0  0  0
   21.5091  -23.1954  -14.7966 C   0  0  0  0  0  0  0  0  0  0  0  0
   20.2919  -23.4440  -13.9519 C   0  0  0  0  0  0  0  0  0  0  0  0
   19.5343  -22.1086  -13.9210 C   0  0  2  0  0  0  0  0  0  0  0  0
   20.2932  -21.3345  -15.0104 C   0  0  0  0  0  0  0  0  0  0  0  0
   19.8748  -19.9776  -15.1270 O   0  0  0  0  0  0  0  0  0  0  0  0
   19.3398  -19.6149  -16.2477 O   0  0  0  0  0  0  0  0  0  0  0  0
  2  1  1  0
  3  2  2  0
  4  2  1  0
  5  4  1  0
  6  5  1  0
  7  6  1  0
  8  7  1  0
  8  9  1  6
 10 18  1  0
 10  8  1  0
 11 10  2  0
 13 14  2  0
 13 12  1  0
 15 13  1  0
 16 15  1  0
 17 16  1  1
 17 18  1  0
 19 17  1  0
 20 19  2  0
 21 22  1  0
 21 19  1  0
 23 22  1  0
 24 23  1  0
 24 25  1  0
 25 21  1  0
 26 28  1  0
 25 26  1  1
 27 26  2  0
M  END
$$$$
