RQP.pdb
     RDKit          3D

 28 28  0  0  1  0  0  0  0  0999 V2000
   33.4572  -22.6046  -10.4737 N   0  0  0  0  0  0  0  0  0  0  0  0
   33.6274  -23.0489  -11.8157 C   0  0  0  0  0  0  0  0  0  0  0  0
   34.4772  -23.9969  -12.0327 N   0  0  0  0  0  0  0  0  0  0  0  0
   32.9019  -22.4878  -12.8928 N   0  0  0  0  0  0  0  0  0  0  0  0
   31.7022  -21.6556  -12.6304 C   0  0  0  0  0  0  0  0  0  0  0  0
   30.7411  -22.4153  -11.7842 C   0  0  0  0  0  0  0  0  0  0  0  0
   29.4181  -21.8351  -11.5278 C   0  0  0  0  0  0  0  0  0  0  0  0
   28.3287  -21.9414  -12.5084 C   0  0  2  0  0  0  0  0  0  0  0  0
   28.6120  -20.7414  -13.4240 N   0  0  0  0  0  0  0  0  0  0  0  0
   26.9798  -21.6331  -11.9613 C   0  0  0  0  0  0  0  0  0  0  0  0
   26.6347  -21.9797  -10.8064 O   0  0  0  0  0  0  0  0  0  0  0  0
   34.7291  -24.4048  -12.9363 N   0  0  0  0  0  0  0  0  0  0  0  0
   22.4961  -20.4378   -9.8072 C   0  0  0  0  0  0  0  0  0  0  0  0
   23.6735  -20.4388   -9.0478 O   0  0  0  0  0  0  0  0  0  0  0  0
   23.6252  -20.7436   -7.8405 C   0  0  0  0  0  0  0  0  0  0  0  0
   24.9705  -20.0847   -9.6509 C   0  0  0  0  0  0  0  0  0  0  0  0
   24.9522  -19.6811  -11.0619 C   0  0  2  0  0  0  0  0  0  0  0  0
   24.6539  -20.6870  -12.1252 N   0  0  0  0  0  0  0  0  0  0  0  0
   26.0072  -20.9324  -12.7087 C   0  0  0  0  0  0  0  0  0  0  0  0
   23.7809  -20.1651  -13.2249 O   0  0  0  0  0  0  0  0  0  0  0  0
   23.7589  -18.9102  -13.2895 N   0  0  0  0  0  0  0  0  0  0  0  0
   23.0366  -20.9036  -14.1355 C   0  0  0  0  0  0  0  0  0  0  0  0
   23.1801  -22.3709  -14.4102 C   0  0  0  0  0  0  0  0  0  0  0  0
   21.7521  -22.8153  -14.2685 C   0  0  0  0  0  0  0  0  0  0  0  0
   20.9051  -21.5570  -14.5088 C   0  0  2  0  0  0  0  0  0  0  0  0
   21.9795  -20.5987  -15.0465 C   0  0  0  0  0  0  0  0  0  0  0  0
   21.4956  -19.2746  -15.2527 O   0  0  0  0  0  0  0  0  0  0  0  0
   20.7202  -19.0768  -16.2692 O   0  0  0  0  0  0  0  0  0  0  0  0
  2  1  1  0
  3  2  2  0
  4  2  1  0
  5  4  1  0
  6  5  1  0
  7  6  1  0
  8  7  1  0
  8  9  1  6
 10 18  1  0
 10  8  1  0
 11 10  2  0
 13 14  2  0
 13 12  1  0
 15 13  1  0
 16 15  1  0
 17 16  1  1
 17 18  1  0
 19 17  1  0
 20 19  2  0
 21 22  1  0
 21 19  1  0
 23 22  1  0
 24 23  1  0
 24 25  1  0
 25 21  1  0
 26 28  1  0
 25 26  1  1
 27 26  2  0
M  END
$$$$
