RQP.pdb
     RDKit          3D

 28 28  0  0  1  0  0  0  0  0999 V2000
   21.8422  -20.7078  -10.3281 N   0  0  0  0  0  0  0  0  0  0  0  0
   22.3568  -20.8612   -9.0093 C   0  0  0  0  0  0  0  0  0  0  0  0
   21.5323  -20.7358   -8.0232 N   0  0  0  0  0  0  0  0  0  0  0  0
   23.7208  -21.1424   -8.7608 N   0  0  0  0  0  0  0  0  0  0  0  0
   24.6317  -21.4681   -9.8854 C   0  0  0  0  0  0  0  0  0  0  0  0
   25.5274  -20.3098  -10.1558 C   0  0  0  0  0  0  0  0  0  0  0  0
   26.4795  -20.4013  -11.2684 C   0  0  0  0  0  0  0  0  0  0  0  0
   26.0268  -20.4555  -12.6654 C   0  0  2  0  0  0  0  0  0  0  0  0
   25.6815  -21.9433  -12.8263 N   0  0  0  0  0  0  0  0  0  0  0  0
   27.1074  -20.2530  -13.6679 C   0  0  0  0  0  0  0  0  0  0  0  0
   28.2685  -20.6943  -13.4937 O   0  0  0  0  0  0  0  0  0  0  0  0
   21.7493  -20.7995   -7.0256 N   0  0  0  0  0  0  0  0  0  0  0  0
   27.1238  -23.7589  -17.9823 C   0  0  0  0  0  0  0  0  0  0  0  0
   27.7589  -22.5720  -18.3708 O   0  0  0  0  0  0  0  0  0  0  0  0
   27.6826  -22.1943  -19.5558 C   0  0  0  0  0  0  0  0  0  0  0  0
   28.5175  -21.7606  -17.4026 C   0  0  0  0  0  0  0  0  0  0  0  0
   27.7547  -21.1744  -16.2941 C   0  0  1  0  0  0  0  0  0  0  0  0
   27.8499  -19.7110  -16.0104 N   0  0  0  0  0  0  0  0  0  0  0  0
   26.8916  -19.5520  -14.8753 C   0  0  0  0  0  0  0  0  0  0  0  0
   27.3634  -18.8440  -17.1308 O   0  0  0  0  0  0  0  0  0  0  0  0
   26.2211  -19.1628  -17.5467 N   0  0  0  0  0  0  0  0  0  0  0  0
   28.0234  -17.7723  -17.7177 C   0  0  0  0  0  0  0  0  0  0  0  0
   29.2224  -17.0621  -17.1634 C   0  0  0  0  0  0  0  0  0  0  0  0
   30.1363  -17.1000  -18.3551 C   0  0  0  0  0  0  0  0  0  0  0  0
   29.2163  -17.2747  -19.5723 C   0  0  2  0  0  0  0  0  0  0  0  0
   27.8464  -17.0247  -18.9219 C   0  0  0  0  0  0  0  0  0  0  0  0
   26.7561  -17.2422  -19.8129 O   0  0  0  0  0  0  0  0  0  0  0  0
   26.6320  -18.4248  -20.3225 O   0  0  0  0  0  0  0  0  0  0  0  0
  2  1  1  0
  3  2  2  0
  4  2  1  0
  5  4  1  0
  6  5  1  0
  7  6  1  0
  8  7  1  0
  8  9  1  6
 10 18  1  0
 10  8  1  0
 11 10  2  0
 13 14  2  0
 13 12  1  0
 15 13  1  0
 16 15  1  0
 17 16  1  1
 17 18  1  0
 19 17  1  0
 20 19  2  0
 21 22  1  0
 21 19  1  0
 23 22  1  0
 24 23  1  0
 24 25  1  0
 25 21  1  0
 26 28  1  0
 25 26  1  6
 27 26  2  0
M  END
$$$$
