RQP.pdb
     RDKit          3D

 28 28  0  0  1  0  0  0  0  0999 V2000
   33.4693  -23.0126  -12.7788 N   0  0  0  0  0  0  0  0  0  0  0  0
   32.6915  -22.1422  -11.9633 C   0  0  0  0  0  0  0  0  0  0  0  0
   33.1446  -21.8529  -10.7891 N   0  0  0  0  0  0  0  0  0  0  0  0
   31.4611  -21.5987  -12.4015 N   0  0  0  0  0  0  0  0  0  0  0  0
   30.7808  -22.1601  -13.5942 C   0  0  0  0  0  0  0  0  0  0  0  0
   30.1783  -21.0571  -14.3926 C   0  0  0  0  0  0  0  0  0  0  0  0
   28.7182  -21.0008  -14.5253 C   0  0  0  0  0  0  0  0  0  0  0  0
   27.8885  -22.2083  -14.4107 C   0  0  2  0  0  0  0  0  0  0  0  0
   28.0095  -22.8076  -15.8195 N   0  0  0  0  0  0  0  0  0  0  0  0
   26.4303  -21.9401  -14.2857 C   0  0  0  0  0  0  0  0  0  0  0  0
   25.6199  -22.2269  -15.1991 O   0  0  0  0  0  0  0  0  0  0  0  0
   32.6912  -21.2735  -10.0783 N   0  0  0  0  0  0  0  0  0  0  0  0
   24.0629  -20.3997   -8.7176 C   0  0  0  0  0  0  0  0  0  0  0  0
   22.8843  -20.5630   -9.4574 O   0  0  0  0  0  0  0  0  0  0  0  0
   21.7817  -20.4068   -8.8983 C   0  0  0  0  0  0  0  0  0  0  0  0
   22.9242  -20.9175  -10.8871 C   0  0  0  0  0  0  0  0  0  0  0  0
   24.2532  -21.0797  -11.4884 C   0  0  1  0  0  0  0  0  0  0  0  0
   24.3875  -21.3107  -12.9581 N   0  0  0  0  0  0  0  0  0  0  0  0
   25.8709  -21.3467  -13.1322 C   0  0  0  0  0  0  0  0  0  0  0  0
   23.8661  -20.1854  -13.7982 O   0  0  0  0  0  0  0  0  0  0  0  0
   24.2681  -19.0557  -13.4217 N   0  0  0  0  0  0  0  0  0  0  0  0
   23.0266  -20.2729  -14.9010 C   0  0  0  0  0  0  0  0  0  0  0  0
   22.9725  -21.4055  -15.8825 C   0  0  0  0  0  0  0  0  0  0  0  0
   21.4985  -21.6960  -15.8819 C   0  0  0  0  0  0  0  0  0  0  0  0
   20.8257  -20.4024  -15.3999 C   0  0  2  0  0  0  0  0  0  0  0  0
   22.0162  -19.4322  -15.4600 C   0  0  0  0  0  0  0  0  0  0  0  0
   21.7121  -18.1406  -14.9413 O   0  0  0  0  0  0  0  0  0  0  0  0
   21.6497  -18.0164  -13.6550 O   0  0  0  0  0  0  0  0  0  0  0  0
  2  1  1  0
  3  2  2  0
  4  2  1  0
  5  4  1  0
  6  5  1  0
  7  6  1  0
  8  7  1  0
  8  9  1  6
 10 18  1  0
 10  8  1  0
 11 10  2  0
 13 14  2  0
 13 12  1  0
 15 13  1  0
 16 15  1  0
 17 16  1  1
 17 18  1  0
 19 17  1  0
 20 19  2  0
 21 22  1  0
 21 19  1  0
 23 22  1  0
 24 23  1  0
 24 25  1  0
 25 21  1  0
 26 28  1  0
 25 26  1  1
 27 26  2  0
M  END
$$$$
