RQP.pdb
     RDKit          3D

 28 28  0  0  1  0  0  0  0  0999 V2000
   17.0267  -21.5337  -12.1132 N   0  0  0  0  0  0  0  0  0  0  0  0
   17.3224  -22.2976  -13.2779 C   0  0  0  0  0  0  0  0  0  0  0  0
   16.5620  -23.3067  -13.5449 N   0  0  0  0  0  0  0  0  0  0  0  0
   18.4063  -21.9823  -14.1305 N   0  0  0  0  0  0  0  0  0  0  0  0
   19.7804  -21.8766  -13.5816 C   0  0  0  0  0  0  0  0  0  0  0  0
   20.0130  -20.4955  -13.0764 C   0  0  0  0  0  0  0  0  0  0  0  0
   21.3608  -20.1279  -12.6280 C   0  0  0  0  0  0  0  0  0  0  0  0
   22.4768  -21.0823  -12.6839 C   0  0  2  0  0  0  0  0  0  0  0  0
   22.7437  -21.3415  -11.1939 N   0  0  0  0  0  0  0  0  0  0  0  0
   23.7604  -20.4968  -13.1564 C   0  0  0  0  0  0  0  0  0  0  0  0
   24.4035  -19.6638  -12.4739 O   0  0  0  0  0  0  0  0  0  0  0  0
   16.6258  -23.9306  -14.3531 N   0  0  0  0  0  0  0  0  0  0  0  0
   27.7434  -23.8043  -16.2179 C   0  0  0  0  0  0  0  0  0  0  0  0
   28.4237  -22.5795  -16.2208 O   0  0  0  0  0  0  0  0  0  0  0  0
   29.6046  -22.5339  -16.6158 C   0  0  0  0  0  0  0  0  0  0  0  0
   27.7678  -21.3416  -15.7639 C   0  0  0  0  0  0  0  0  0  0  0  0
   26.3812  -21.4643  -15.2985 C   0  0  2  0  0  0  0  0  0  0  0  0
   25.6475  -20.2607  -14.8043 N   0  0  0  0  0  0  0  0  0  0  0  0
   24.3321  -20.8431  -14.4010 C   0  0  0  0  0  0  0  0  0  0  0  0
   25.3772  -19.2382  -15.8651 O   0  0  0  0  0  0  0  0  0  0  0  0
   24.7295  -19.6933  -16.8413 N   0  0  0  0  0  0  0  0  0  0  0  0
   25.7532  -17.9014  -15.8655 C   0  0  0  0  0  0  0  0  0  0  0  0
   26.1700  -17.1004  -14.6681 C   0  0  0  0  0  0  0  0  0  0  0  0
   27.4635  -16.5203  -15.1654 C   0  0  0  0  0  0  0  0  0  0  0  0
   27.3656  -16.5531  -16.6976 C   0  0  2  0  0  0  0  0  0  0  0  0
   25.8777  -16.8960  -16.8726 C   0  0  0  0  0  0  0  0  0  0  0  0
   25.5100  -17.1146  -18.2317 O   0  0  0  0  0  0  0  0  0  0  0  0
   24.6231  -16.3230  -18.7420 O   0  0  0  0  0  0  0  0  0  0  0  0
  2  1  1  0
  3  2  2  0
  4  2  1  0
  5  4  1  0
  6  5  1  0
  7  6  1  0
  8  7  1  0
  8  9  1  1
 10 18  1  0
 10  8  1  0
 11 10  2  0
 13 14  2  0
 13 12  1  0
 15 13  1  0
 16 15  1  0
 17 16  1  1
 17 18  1  0
 19 17  1  0
 20 19  2  0
 21 22  1  0
 21 19  1  0
 23 22  1  0
 24 23  1  0
 24 25  1  0
 25 21  1  0
 26 28  1  0
 25 26  1  6
 27 26  2  0
M  END
$$$$
