RQP.pdb
     RDKit          3D

 28 28  0  0  1  0  0  0  0  0999 V2000
   28.9971  -25.9303  -15.8867 N   0  0  0  0  0  0  0  0  0  0  0  0
   30.1939  -25.4804  -16.5133 C   0  0  0  0  0  0  0  0  0  0  0  0
   31.2556  -26.2017  -16.3709 N   0  0  0  0  0  0  0  0  0  0  0  0
   30.2445  -24.2876  -17.2723 N   0  0  0  0  0  0  0  0  0  0  0  0
   29.0229  -23.4649  -17.4503 C   0  0  0  0  0  0  0  0  0  0  0  0
   29.2344  -22.1184  -16.8512 C   0  0  0  0  0  0  0  0  0  0  0  0
   28.1837  -21.5561  -15.9953 C   0  0  0  0  0  0  0  0  0  0  0  0
   26.9735  -20.9461  -16.5636 C   0  0  2  0  0  0  0  0  0  0  0  0
   27.5166  -19.6153  -17.1045 N   0  0  0  0  0  0  0  0  0  0  0  0
   25.9731  -20.5120  -15.5513 C   0  0  0  0  0  0  0  0  0  0  0  0
   26.2901  -19.8132  -14.5591 O   0  0  0  0  0  0  0  0  0  0  0  0
   32.1662  -26.0533  -16.8128 N   0  0  0  0  0  0  0  0  0  0  0  0
   22.6963  -17.0319  -17.7695 C   0  0  0  0  0  0  0  0  0  0  0  0
   22.4468  -16.6936  -16.4330 O   0  0  0  0  0  0  0  0  0  0  0  0
   21.8359  -15.6398  -16.1702 C   0  0  0  0  0  0  0  0  0  0  0  0
   22.8947  -17.5619  -15.3300 C   0  0  0  0  0  0  0  0  0  0  0  0
   23.7335  -18.7098  -15.6947 C   0  0  2  0  0  0  0  0  0  0  0  0
   23.5742  -20.0115  -14.9795 N   0  0  0  0  0  0  0  0  0  0  0  0
   24.6073  -20.8603  -15.6461 C   0  0  0  0  0  0  0  0  0  0  0  0
   22.2457  -20.6665  -15.2026 O   0  0  0  0  0  0  0  0  0  0  0  0
   21.8633  -20.6211  -16.3989 N   0  0  0  0  0  0  0  0  0  0  0  0
   21.4425  -21.2914  -14.2577 C   0  0  0  0  0  0  0  0  0  0  0  0
   21.8542  -21.6879  -12.8712 C   0  0  0  0  0  0  0  0  0  0  0  0
   20.7441  -21.0693  -12.0702 C   0  0  0  0  0  0  0  0  0  0  0  0
   19.5707  -20.9120  -13.0484 C   0  0  2  0  0  0  0  0  0  0  0  0
   20.0868  -21.7410  -14.2352 C   0  0  0  0  0  0  0  0  0  0  0  0
   19.2335  -21.6786  -15.3744 O   0  0  0  0  0  0  0  0  0  0  0  0
   18.1200  -22.3350  -15.3195 O   0  0  0  0  0  0  0  0  0  0  0  0
  2  1  1  0
  3  2  2  0
  4  2  1  0
  5  4  1  0
  6  5  1  0
  7  6  1  0
  8  7  1  0
  8  9  1  1
 10 18  1  0
 10  8  1  0
 11 10  2  0
 13 14  2  0
 13 12  1  0
 15 13  1  0
 16 15  1  0
 17 16  1  1
 17 18  1  0
 19 17  1  0
 20 19  2  0
 21 22  1  0
 21 19  1  0
 23 22  1  0
 24 23  1  0
 24 25  1  0
 25 21  1  0
 26 28  1  0
 25 26  1  1
 27 26  2  0
M  END
$$$$
