RQP.pdb
     RDKit          3D

 28 28  0  0  1  0  0  0  0  0999 V2000
   29.9317  -22.1023  -17.3888 N   0  0  0  0  0  0  0  0  0  0  0  0
   28.8783  -23.0461  -17.2244 C   0  0  0  0  0  0  0  0  0  0  0  0
   29.1760  -24.1995  -16.7256 N   0  0  0  0  0  0  0  0  0  0  0  0
   27.5422  -22.7546  -17.5869 N   0  0  0  0  0  0  0  0  0  0  0  0
   27.1785  -21.3983  -18.0652 C   0  0  0  0  0  0  0  0  0  0  0  0
   27.0159  -20.4838  -16.9015 C   0  0  0  0  0  0  0  0  0  0  0  0
   25.7204  -20.4437  -16.2138 C   0  0  0  0  0  0  0  0  0  0  0  0
   25.5922  -20.8008  -14.7941 C   0  0  2  0  0  0  0  0  0  0  0  0
   26.3203  -22.1520  -14.7429 N   0  0  0  0  0  0  0  0  0  0  0  0
   24.2086  -21.1507  -14.3730 C   0  0  0  0  0  0  0  0  0  0  0  0
   23.7547  -22.3151  -14.4792 O   0  0  0  0  0  0  0  0  0  0  0  0
   28.5435  -24.9899  -16.5783 N   0  0  0  0  0  0  0  0  0  0  0  0
   21.9980  -19.2582   -9.2370 C   0  0  0  0  0  0  0  0  0  0  0  0
   20.8757  -19.9553   -9.7034 O   0  0  0  0  0  0  0  0  0  0  0  0
   19.9314  -20.1898   -8.9250 C   0  0  0  0  0  0  0  0  0  0  0  0
   20.7912  -20.4180  -11.0998 C   0  0  0  0  0  0  0  0  0  0  0  0
   21.9587  -20.1596  -11.9509 C   0  0  2  0  0  0  0  0  0  0  0  0
   21.9626  -20.6111  -13.3748 N   0  0  0  0  0  0  0  0  0  0  0  0
   23.3233  -20.1936  -13.8289 C   0  0  0  0  0  0  0  0  0  0  0  0
   20.9658  -19.9007  -14.2381 O   0  0  0  0  0  0  0  0  0  0  0  0
   21.0259  -18.6492  -14.1410 N   0  0  0  0  0  0  0  0  0  0  0  0
   20.0332  -20.4697  -15.0955 C   0  0  0  0  0  0  0  0  0  0  0  0
   20.1291  -21.8242  -15.7320 C   0  0  0  0  0  0  0  0  0  0  0  0
   18.7869  -22.3920  -15.3673 C   0  0  0  0  0  0  0  0  0  0  0  0
   17.8862  -21.1771  -15.1006 C   0  0  2  0  0  0  0  0  0  0  0  0
   18.7801  -20.0471  -15.6355 C   0  0  0  0  0  0  0  0  0  0  0  0
   18.2387  -18.7493  -15.4064 O   0  0  0  0  0  0  0  0  0  0  0  0
   17.6186  -18.1820  -16.3899 O   0  0  0  0  0  0  0  0  0  0  0  0
  2  1  1  0
  3  2  2  0
  4  2  1  0
  5  4  1  0
  6  5  1  0
  7  6  1  0
  8  7  1  0
  8  9  1  6
 10 18  1  0
 10  8  1  0
 11 10  2  0
 13 14  2  0
 13 12  1  0
 15 13  1  0
 16 15  1  0
 17 16  1  1
 17 18  1  0
 19 17  1  0
 20 19  2  0
 21 22  1  0
 21 19  1  0
 23 22  1  0
 24 23  1  0
 24 25  1  0
 25 21  1  0
 26 28  1  0
 25 26  1  1
 27 26  2  0
M  END
$$$$
