RQP.pdb
     RDKit          3D

 28 28  0  0  1  0  0  0  0  0999 V2000
   25.8546  -25.8884  -15.1879 N   0  0  0  0  0  0  0  0  0  0  0  0
   24.8558  -25.4139  -16.0850 C   0  0  0  0  0  0  0  0  0  0  0  0
   23.6532  -25.2839  -15.6328 N   0  0  0  0  0  0  0  0  0  0  0  0
   25.1456  -25.0881  -17.4309 N   0  0  0  0  0  0  0  0  0  0  0  0
   25.1566  -23.6710  -17.8692 C   0  0  0  0  0  0  0  0  0  0  0  0
   26.2742  -22.9489  -17.2011 C   0  0  0  0  0  0  0  0  0  0  0  0
   25.9688  -21.7384  -16.4303 C   0  0  0  0  0  0  0  0  0  0  0  0
   25.0888  -20.6890  -16.9633 C   0  0  2  0  0  0  0  0  0  0  0  0
   26.1039  -19.6854  -17.5299 N   0  0  0  0  0  0  0  0  0  0  0  0
   24.3806  -19.8963  -15.9222 C   0  0  0  0  0  0  0  0  0  0  0  0
   24.7251  -18.7270  -15.6266 O   0  0  0  0  0  0  0  0  0  0  0  0
   22.8300  -24.9672  -16.1509 N   0  0  0  0  0  0  0  0  0  0  0  0
   20.8278  -16.8040  -17.3549 C   0  0  0  0  0  0  0  0  0  0  0  0
   20.3915  -16.6709  -16.0302 O   0  0  0  0  0  0  0  0  0  0  0  0
   19.5329  -15.8125  -15.7497 C   0  0  0  0  0  0  0  0  0  0  0  0
   20.9305  -17.5284  -14.9599 C   0  0  0  0  0  0  0  0  0  0  0  0
   21.9237  -18.5328  -15.3583 C   0  0  1  0  0  0  0  0  0  0  0  0
   22.4530  -19.5029  -14.3532 N   0  0  0  0  0  0  0  0  0  0  0  0
   23.2787  -20.4119  -15.2042 C   0  0  0  0  0  0  0  0  0  0  0  0
   21.3941  -20.3392  -13.7027 O   0  0  0  0  0  0  0  0  0  0  0  0
   20.5596  -20.8075  -14.5174 N   0  0  0  0  0  0  0  0  0  0  0  0
   21.2607  -20.6331  -12.3520 C   0  0  0  0  0  0  0  0  0  0  0  0
   22.2797  -20.3655  -11.2847 C   0  0  0  0  0  0  0  0  0  0  0  0
   21.4340  -19.6412  -10.2763 C   0  0  0  0  0  0  0  0  0  0  0  0
   19.9885  -20.0678  -10.5711 C   0  0  2  0  0  0  0  0  0  0  0  0
   20.2360  -21.2248  -11.5520 C   0  0  0  0  0  0  0  0  0  0  0  0
   19.0351  -21.7565  -12.1045 O   0  0  0  0  0  0  0  0  0  0  0  0
   18.7148  -21.3822  -13.3008 O   0  0  0  0  0  0  0  0  0  0  0  0
  2  1  1  0
  3  2  2  0
  4  2  1  0
  5  4  1  0
  6  5  1  0
  7  6  1  0
  8  7  1  0
  8  9  1  1
 10 18  1  0
 10  8  1  0
 11 10  2  0
 13 14  2  0
 13 12  1  0
 15 13  1  0
 16 15  1  0
 17 16  1  1
 17 18  1  0
 19 17  1  0
 20 19  2  0
 21 22  1  0
 21 19  1  0
 23 22  1  0
 24 23  1  0
 24 25  1  0
 25 21  1  0
 26 28  1  0
 25 26  1  6
 27 26  2  0
M  END
$$$$
