RQP.pdb
     RDKit          3D

 28 28  0  0  1  0  0  0  0  0999 V2000
   19.1445  -22.0135  -15.2925 N   0  0  0  0  0  0  0  0  0  0  0  0
   19.2161  -22.1520  -13.8772 C   0  0  0  0  0  0  0  0  0  0  0  0
   18.6537  -23.1852  -13.3443 N   0  0  0  0  0  0  0  0  0  0  0  0
   19.8758  -21.2042  -13.0599 N   0  0  0  0  0  0  0  0  0  0  0  0
   21.2186  -20.6999  -13.4381 C   0  0  0  0  0  0  0  0  0  0  0  0
   22.2651  -21.6194  -12.9127 C   0  0  0  0  0  0  0  0  0  0  0  0
   23.6631  -21.3836  -13.2904 C   0  0  0  0  0  0  0  0  0  0  0  0
   24.0961  -21.4149  -14.6944 C   0  0  2  0  0  0  0  0  0  0  0  0
   23.9760  -22.9094  -15.0270 N   0  0  0  0  0  0  0  0  0  0  0  0
   25.5452  -21.1434  -14.8948 C   0  0  0  0  0  0  0  0  0  0  0  0
   26.0681  -20.0492  -14.5746 O   0  0  0  0  0  0  0  0  0  0  0  0
   18.6700  -23.4567  -12.3582 N   0  0  0  0  0  0  0  0  0  0  0  0
   29.7319  -25.5709  -16.2911 C   0  0  0  0  0  0  0  0  0  0  0  0
   30.5016  -24.4155  -16.4799 O   0  0  0  0  0  0  0  0  0  0  0  0
   31.7067  -24.5225  -16.7785 C   0  0  0  0  0  0  0  0  0  0  0  0
   29.9119  -23.0734  -16.3311 C   0  0  0  0  0  0  0  0  0  0  0  0
   28.4896  -23.0151  -15.9736 C   0  0  2  0  0  0  0  0  0  0  0  0
   27.7943  -21.6964  -15.8787 N   0  0  0  0  0  0  0  0  0  0  0  0
   26.4190  -22.1004  -15.4572 C   0  0  0  0  0  0  0  0  0  0  0  0
   27.6683  -20.9824  -17.1895 O   0  0  0  0  0  0  0  0  0  0  0  0
   27.1888  -21.7002  -18.1030 N   0  0  0  0  0  0  0  0  0  0  0  0
   28.0106  -19.6664  -17.4712 C   0  0  0  0  0  0  0  0  0  0  0  0
   28.1289  -18.5516  -16.4750 C   0  0  0  0  0  0  0  0  0  0  0  0
   29.4912  -18.0210  -16.8207 C   0  0  0  0  0  0  0  0  0  0  0  0
   29.7460  -18.4583  -18.2706 C   0  0  2  0  0  0  0  0  0  0  0  0
   28.3436  -18.9507  -18.6617 C   0  0  0  0  0  0  0  0  0  0  0  0
   28.2996  -19.5430  -19.9567 O   0  0  0  0  0  0  0  0  0  0  0  0
   28.8110  -20.7241  -20.0877 O   0  0  0  0  0  0  0  0  0  0  0  0
  2  1  1  0
  3  2  2  0
  4  2  1  0
  5  4  1  0
  6  5  1  0
  7  6  1  0
  8  7  1  0
  8  9  1  1
 10 18  1  0
 10  8  1  0
 11 10  2  0
 13 14  2  0
 13 12  1  0
 15 13  1  0
 16 15  1  0
 17 16  1  1
 17 18  1  0
 19 17  1  0
 20 19  2  0
 21 22  1  0
 21 19  1  0
 23 22  1  0
 24 23  1  0
 24 25  1  0
 25 21  1  0
 26 28  1  0
 25 26  1  1
 27 26  2  0
M  END
$$$$
