KRE.pdb
     RDKit          3D

 30 29  0  0  1  0  0  0  0  0999 V2000
   19.9769  -19.7755  -10.9195 N   0  0  0  0  0  0  0  0  0  0  0  0
   20.7455  -20.5481  -11.8704 C   0  0  1  0  0  0  0  0  0  0  0  0
   20.0039  -21.8504  -12.1078 C   0  0  0  0  0  0  0  0  0  0  0  0
   18.5329  -21.4959  -12.1113 C   0  0  0  0  0  0  0  0  0  0  0  0
   17.6552  -22.6493  -12.5039 C   0  0  0  0  0  0  0  0  0  0  0  0
   16.2272  -22.2701  -12.7147 C   0  0  0  0  0  0  0  0  0  0  0  0
   15.4964  -23.4723  -13.0857 N   0  0  0  0  0  0  0  0  0  0  0  0
   20.9793  -19.7798  -13.1024 C   0  0  0  0  0  0  0  0  0  0  0  0
   20.2813  -18.7945  -13.4493 O   0  0  0  0  0  0  0  0  0  0  0  0
   25.6519  -23.8988  -14.5685 N   0  0  0  0  0  0  0  0  0  0  0  0
   25.4128  -24.0002  -15.9567 C   0  0  0  0  0  0  0  0  0  0  0  0
   24.9749  -25.1148  -16.4261 N   0  0  0  0  0  0  0  0  0  0  0  0
   25.6595  -22.8730  -16.8001 N   0  0  0  0  0  0  0  0  0  0  0  0
   25.4263  -21.5360  -16.3558 C   0  0  0  0  0  0  0  0  0  0  0  0
   23.9882  -21.2921  -15.9168 C   0  0  0  0  0  0  0  0  0  0  0  0
   23.7484  -19.8657  -15.5822 C   0  0  0  0  0  0  0  0  0  0  0  0
   22.3514  -19.4808  -15.2208 C   0  0  2  0  0  0  0  0  0  0  0  0
   22.0509  -20.1695  -13.9487 N   0  0  0  0  0  0  0  0  0  0  0  0
   21.3069  -19.8623  -16.1797 C   0  0  0  0  0  0  0  0  0  0  0  0
   20.7534  -20.9865  -16.0731 O   0  0  0  0  0  0  0  0  0  0  0  0
   24.8314  -25.2307  -17.4359 N   0  0  0  0  0  0  0  0  0  0  0  0
   20.8482  -19.0495  -17.2480 C   0  0  1  0  0  0  0  0  0  0  0  0
   19.6698  -19.4384  -18.0497 C   0  0  0  0  0  0  0  0  0  0  0  0
   18.4609  -18.7141  -17.5616 C   0  0  0  0  0  0  0  0  0  0  0  0
   17.2065  -18.9505  -18.3295 C   0  0  0  0  0  0  0  0  0  0  0  0
   16.0394  -18.1710  -17.8887 O   0  0  0  0  0  0  0  0  0  0  0  0
   14.9379  -18.3135  -18.4377 C   0  0  0  0  0  0  0  0  0  0  0  0
   19.9695  -19.1715  -19.4704 O   0  0  0  0  0  0  0  0  0  0  0  0
   19.2957  -19.7720  -20.5185 O   0  0  0  0  0  0  0  0  0  0  0  0
   16.1743  -17.2720  -16.8525 O   0  0  0  0  0  0  0  0  0  0  0  0
  2  1  1  1
  3  4  1  0
  3  2  1  0
  4  5  1  0
  6  5  1  0
  7  6  1  0
  8  2  1  0
  8  9  2  0
 10 11  1  0
 11 13  1  0
 12 11  2  0
 13 14  1  0
 14 15  1  0
 16 15  1  0
 17 16  1  6
 17 18  1  0
 18  8  1  0
 19 20  2  0
 19 17  1  0
 21 19  1  0
 22 21  1  0
 22 23  1  6
 23 24  1  0
 24 25  1  0
 25 26  2  0
 25 29  1  0
 27 22  1  0
 28 27  1  0
 30 27  2  0
M  END
$$$$
