KRE.pdb
     RDKit          3D

 30 29  0  0  1  0  0  0  0  0999 V2000
   28.0983  -21.0898  -17.6571 N   0  0  0  0  0  0  0  0  0  0  0  0
   27.8922  -20.1909  -16.5429 C   0  0  1  0  0  0  0  0  0  0  0  0
   27.6833  -18.7992  -17.1101 C   0  0  0  0  0  0  0  0  0  0  0  0
   26.5517  -18.9226  -18.1071 C   0  0  0  0  0  0  0  0  0  0  0  0
   26.2587  -17.6342  -18.8204 C   0  0  0  0  0  0  0  0  0  0  0  0
   25.0839  -17.7115  -19.7375 C   0  0  0  0  0  0  0  0  0  0  0  0
   25.5855  -17.7567  -21.1025 N   0  0  0  0  0  0  0  0  0  0  0  0
   26.7768  -20.6482  -15.7004 C   0  0  0  0  0  0  0  0  0  0  0  0
   25.7553  -21.2230  -16.1525 O   0  0  0  0  0  0  0  0  0  0  0  0
   23.1630  -20.7777   -9.7897 N   0  0  0  0  0  0  0  0  0  0  0  0
   23.7783  -21.0168   -8.5412 C   0  0  0  0  0  0  0  0  0  0  0  0
   23.0429  -21.3892   -7.5537 N   0  0  0  0  0  0  0  0  0  0  0  0
   25.1902  -20.8421   -8.4046 N   0  0  0  0  0  0  0  0  0  0  0  0
   26.0179  -20.5077   -9.5194 C   0  0  0  0  0  0  0  0  0  0  0  0
   25.3818  -20.8461  -10.8615 C   0  0  0  0  0  0  0  0  0  0  0  0
   26.2961  -20.5541  -11.9940 C   0  0  0  0  0  0  0  0  0  0  0  0
   25.7948  -20.8645  -13.3661 C   0  0  2  0  0  0  0  0  0  0  0  0
   26.8546  -20.4301  -14.2994 N   0  0  0  0  0  0  0  0  0  0  0  0
   24.5554  -20.1887  -13.7701 C   0  0  0  0  0  0  0  0  0  0  0  0
   24.5008  -18.9327  -13.7416 O   0  0  0  0  0  0  0  0  0  0  0  0
   23.4595  -21.5495   -6.6294 N   0  0  0  0  0  0  0  0  0  0  0  0
   23.3766  -20.8459  -14.2073 C   0  0  2  0  0  0  0  0  0  0  0  0
   22.1594  -20.0811  -14.5476 C   0  0  0  0  0  0  0  0  0  0  0  0
   21.8094  -20.2937  -15.9818 C   0  0  0  0  0  0  0  0  0  0  0  0
   21.3895  -19.0797  -16.7359 C   0  0  0  0  0  0  0  0  0  0  0  0
   21.0184  -19.3057  -18.1414 O   0  0  0  0  0  0  0  0  0  0  0  0
   21.0630  -20.4417  -18.6339 C   0  0  0  0  0  0  0  0  0  0  0  0
   21.0836  -20.4901  -13.6231 O   0  0  0  0  0  0  0  0  0  0  0  0
   21.2127  -21.5208  -12.7100 O   0  0  0  0  0  0  0  0  0  0  0  0
   20.6168  -18.2402  -18.9183 O   0  0  0  0  0  0  0  0  0  0  0  0
  2  1  1  6
  3  4  1  0
  3  2  1  0
  4  5  1  0
  6  5  1  0
  7  6  1  0
  8  2  1  0
  8  9  2  0
 10 11  1  0
 11 13  1  0
 12 11  2  0
 13 14  1  0
 14 15  1  0
 16 15  1  0
 17 16  1  1
 17 18  1  0
 18  8  1  0
 19 20  2  0
 19 17  1  0
 21 19  1  0
 22 21  1  0
 22 23  1  6
 23 24  1  0
 24 25  1  0
 25 26  2  0
 25 29  1  0
 27 22  1  0
 28 27  1  0
 30 27  2  0
M  END
$$$$
