KRE.pdb
     RDKit          3D

 30 29  0  0  1  0  0  0  0  0999 V2000
   20.5496  -20.0124  -14.6443 N   0  0  0  0  0  0  0  0  0  0  0  0
   19.5426  -19.3599  -15.4520 C   0  0  1  0  0  0  0  0  0  0  0  0
   18.2335  -19.4188  -14.6870 C   0  0  0  0  0  0  0  0  0  0  0  0
   17.7876  -20.8639  -14.7378 C   0  0  0  0  0  0  0  0  0  0  0  0
   16.5040  -21.1053  -13.9971 C   0  0  0  0  0  0  0  0  0  0  0  0
   16.0849  -22.5375  -13.9765 C   0  0  0  0  0  0  0  0  0  0  0  0
   14.8242  -22.6234  -13.2553 N   0  0  0  0  0  0  0  0  0  0  0  0
   19.9534  -17.9902  -15.7956 C   0  0  0  0  0  0  0  0  0  0  0  0
   20.6926  -17.2832  -15.0661 O   0  0  0  0  0  0  0  0  0  0  0  0
   23.4773  -16.2958  -20.8293 N   0  0  0  0  0  0  0  0  0  0  0  0
   23.2783  -15.0600  -21.4834 C   0  0  0  0  0  0  0  0  0  0  0  0
   24.3031  -14.4387  -21.9505 N   0  0  0  0  0  0  0  0  0  0  0  0
   21.9558  -14.5334  -21.6110 N   0  0  0  0  0  0  0  0  0  0  0  0
   20.8125  -15.2506  -21.1440 C   0  0  0  0  0  0  0  0  0  0  0  0
   20.4869  -14.9737  -19.6819 C   0  0  0  0  0  0  0  0  0  0  0  0
   20.2105  -16.2250  -18.9323 C   0  0  0  0  0  0  0  0  0  0  0  0
   19.8917  -16.0876  -17.4798 C   0  0  2  0  0  0  0  0  0  0  0  0
   19.4919  -17.4327  -17.0173 N   0  0  0  0  0  0  0  0  0  0  0  0
   18.7979  -15.1682  -17.1419 C   0  0  0  0  0  0  0  0  0  0  0  0
   17.6075  -15.5504  -17.2773 O   0  0  0  0  0  0  0  0  0  0  0  0
   24.1836  -13.5670  -22.4792 N   0  0  0  0  0  0  0  0  0  0  0  0
   18.9680  -13.8459  -16.6572 C   0  0  2  0  0  0  0  0  0  0  0  0
   17.8042  -13.0126  -16.2917 C   0  0  0  0  0  0  0  0  0  0  0  0
   18.2559  -11.8169  -15.5231 C   0  0  0  0  0  0  0  0  0  0  0  0
   17.1975  -10.8269  -15.1787 C   0  0  0  0  0  0  0  0  0  0  0  0
   17.6785   -9.5646  -14.5960 O   0  0  0  0  0  0  0  0  0  0  0  0
   16.9031   -8.6164  -14.4096 C   0  0  0  0  0  0  0  0  0  0  0  0
   17.0789  -12.6642  -17.5295 O   0  0  0  0  0  0  0  0  0  0  0  0
   15.7079  -12.4909  -17.5877 O   0  0  0  0  0  0  0  0  0  0  0  0
   19.0077   -9.4368  -14.2539 O   0  0  0  0  0  0  0  0  0  0  0  0
  2  1  1  1
  3  4  1  0
  3  2  1  0
  4  5  1  0
  6  5  1  0
  7  6  1  0
  8  2  1  0
  8  9  2  0
 10 11  1  0
 11 13  1  0
 12 11  2  0
 13 14  1  0
 14 15  1  0
 16 15  1  0
 17 16  1  6
 17 18  1  0
 18  8  1  0
 19 20  2  0
 19 17  1  0
 21 19  1  0
 22 21  1  0
 22 23  1  1
 23 24  1  0
 24 25  1  0
 25 26  2  0
 25 29  1  0
 27 22  1  0
 28 27  1  0
 30 27  2  0
M  END
$$$$
