KRE.pdb
     RDKit          3D

 30 29  0  0  1  0  0  0  0  0999 V2000
   27.7882  -21.8265  -16.0716 N   0  0  0  0  0  0  0  0  0  0  0  0
   27.3599  -20.8305  -15.1143 C   0  0  1  0  0  0  0  0  0  0  0  0
   27.1018  -19.5442  -15.8767 C   0  0  0  0  0  0  0  0  0  0  0  0
   26.0272  -19.8708  -16.8906 C   0  0  0  0  0  0  0  0  0  0  0  0
   25.6435  -18.6905  -17.7358 C   0  0  0  0  0  0  0  0  0  0  0  0
   24.5987  -18.9989  -18.7558 C   0  0  0  0  0  0  0  0  0  0  0  0
   24.3765  -17.7969  -19.5448 N   0  0  0  0  0  0  0  0  0  0  0  0
   26.1907  -21.3011  -14.3565 C   0  0  0  0  0  0  0  0  0  0  0  0
   25.3604  -22.1305  -14.8049 O   0  0  0  0  0  0  0  0  0  0  0  0
   22.9668  -22.6841   -7.6366 N   0  0  0  0  0  0  0  0  0  0  0  0
   22.5318  -21.3774   -7.3237 C   0  0  0  0  0  0  0  0  0  0  0  0
   21.3364  -21.2172   -6.8767 N   0  0  0  0  0  0  0  0  0  0  0  0
   23.4209  -20.2738   -7.5082 N   0  0  0  0  0  0  0  0  0  0  0  0
   24.4851  -20.3164   -8.4597 C   0  0  0  0  0  0  0  0  0  0  0  0
   24.0492  -20.8346   -9.8242 C   0  0  0  0  0  0  0  0  0  0  0  0
   25.1357  -20.7216  -10.8295 C   0  0  0  0  0  0  0  0  0  0  0  0
   24.8233  -21.1750  -12.2177 C   0  0  2  0  0  0  0  0  0  0  0  0
   25.9852  -20.7929  -13.0466 N   0  0  0  0  0  0  0  0  0  0  0  0
   23.6320  -20.5825  -12.8388 C   0  0  0  0  0  0  0  0  0  0  0  0
   23.6616  -19.3799  -13.2055 O   0  0  0  0  0  0  0  0  0  0  0  0
   20.9915  -20.2783   -6.6456 N   0  0  0  0  0  0  0  0  0  0  0  0
   22.4120  -21.2673  -13.0737 C   0  0  2  0  0  0  0  0  0  0  0  0
   21.2869  -20.6046  -13.7646 C   0  0  0  0  0  0  0  0  0  0  0  0
   21.3389  -20.9046  -15.2247 C   0  0  0  0  0  0  0  0  0  0  0  0
   20.2156  -20.3643  -16.0403 C   0  0  0  0  0  0  0  0  0  0  0  0
   20.2621  -20.6899  -17.4742 O   0  0  0  0  0  0  0  0  0  0  0  0
   19.3800  -20.2861  -18.2449 C   0  0  0  0  0  0  0  0  0  0  0  0
   20.0300  -21.0456  -13.1281 O   0  0  0  0  0  0  0  0  0  0  0  0
   19.9690  -22.0360  -12.1646 O   0  0  0  0  0  0  0  0  0  0  0  0
   21.2999  -21.4533  -17.9646 O   0  0  0  0  0  0  0  0  0  0  0  0
  2  1  1  6
  3  4  1  0
  3  2  1  0
  4  5  1  0
  6  5  1  0
  7  6  1  0
  8  2  1  0
  8  9  2  0
 10 11  1  0
 11 13  1  0
 12 11  2  0
 13 14  1  0
 14 15  1  0
 16 15  1  0
 17 16  1  1
 17 18  1  0
 18  8  1  0
 19 20  2  0
 19 17  1  0
 21 19  1  0
 22 21  1  0
 22 23  1  1
 23 24  1  0
 24 25  1  0
 25 26  2  0
 25 29  1  0
 27 22  1  0
 28 27  1  0
 30 27  2  0
M  END
$$$$
