KRE.pdb
     RDKit          3D

 30 29  0  0  1  0  0  0  0  0999 V2000
   23.0798  -17.3588  -17.5453 N   0  0  0  0  0  0  0  0  0  0  0  0
   22.6088  -17.5390  -16.1897 C   0  0  1  0  0  0  0  0  0  0  0  0
   21.5419  -16.4911  -15.9328 C   0  0  0  0  0  0  0  0  0  0  0  0
   20.6673  -16.4775  -17.1676 C   0  0  0  0  0  0  0  0  0  0  0  0
   19.4672  -15.5867  -17.0233 C   0  0  0  0  0  0  0  0  0  0  0  0
   18.5284  -15.6549  -18.1814 C   0  0  0  0  0  0  0  0  0  0  0  0
   17.4513  -14.7072  -17.9393 N   0  0  0  0  0  0  0  0  0  0  0  0
   22.1343  -18.9149  -15.9787 C   0  0  0  0  0  0  0  0  0  0  0  0
   21.4563  -19.5528  -16.8224 O   0  0  0  0  0  0  0  0  0  0  0  0
   27.3175  -23.1928  -16.1462 N   0  0  0  0  0  0  0  0  0  0  0  0
   26.6220  -24.3158  -15.6463 C   0  0  0  0  0  0  0  0  0  0  0  0
   27.1036  -25.4875  -15.8695 N   0  0  0  0  0  0  0  0  0  0  0  0
   25.4115  -24.1268  -14.9104 N   0  0  0  0  0  0  0  0  0  0  0  0
   24.9045  -22.8240  -14.6185 C   0  0  0  0  0  0  0  0  0  0  0  0
   23.6364  -22.8491  -13.7749 C   0  0  0  0  0  0  0  0  0  0  0  0
   23.1147  -21.4822  -13.5233 C   0  0  0  0  0  0  0  0  0  0  0  0
   22.0875  -20.9638  -14.4754 C   0  0  2  0  0  0  0  0  0  0  0  0
   22.4576  -19.5613  -14.7564 N   0  0  0  0  0  0  0  0  0  0  0  0
   20.7011  -20.9595  -13.9918 C   0  0  0  0  0  0  0  0  0  0  0  0
   20.2306  -19.9122  -13.4788 O   0  0  0  0  0  0  0  0  0  0  0  0
   26.6022  -26.3233  -15.5472 N   0  0  0  0  0  0  0  0  0  0  0  0
   19.8143  -22.0649  -14.0564 C   0  0  2  0  0  0  0  0  0  0  0  0
   18.3885  -21.9200  -13.6979 C   0  0  0  0  0  0  0  0  0  0  0  0
   17.6686  -21.1705  -14.7677 C   0  0  0  0  0  0  0  0  0  0  0  0
   17.1622  -19.8218  -14.3891 C   0  0  0  0  0  0  0  0  0  0  0  0
   17.2463  -18.7970  -15.4412 O   0  0  0  0  0  0  0  0  0  0  0  0
   17.6163  -17.6447  -15.1756 C   0  0  0  0  0  0  0  0  0  0  0  0
   17.8327  -23.2670  -13.4614 O   0  0  0  0  0  0  0  0  0  0  0  0
   16.6340  -23.4945  -12.8100 O   0  0  0  0  0  0  0  0  0  0  0  0
   16.9092  -19.1239  -16.7372 O   0  0  0  0  0  0  0  0  0  0  0  0
  2  1  1  6
  3  4  1  0
  3  2  1  0
  4  5  1  0
  6  5  1  0
  7  6  1  0
  8  2  1  0
  8  9  2  0
 10 11  1  0
 11 13  1  0
 12 11  2  0
 13 14  1  0
 14 15  1  0
 16 15  1  0
 17 16  1  1
 17 18  1  0
 18  8  1  0
 19 20  2  0
 19 17  1  0
 21 19  1  0
 22 21  1  0
 22 23  1  1
 23 24  1  0
 24 25  1  0
 25 26  2  0
 25 29  1  0
 27 22  1  0
 28 27  1  0
 30 27  2  0
M  END
$$$$
