KRE.pdb
     RDKit          3D

 30 29  0  0  1  0  0  0  0  0999 V2000
   20.4431  -23.1785  -12.6889 N   0  0  0  0  0  0  0  0  0  0  0  0
   20.0268  -21.8665  -12.2447 C   0  0  1  0  0  0  0  0  0  0  0  0
   19.9236  -21.9070  -10.7314 C   0  0  0  0  0  0  0  0  0  0  0  0
   19.0571  -23.1041  -10.4062 C   0  0  0  0  0  0  0  0  0  0  0  0
   17.6076  -22.8806  -10.7283 C   0  0  0  0  0  0  0  0  0  0  0  0
   16.7397  -24.0576  -10.4304 C   0  0  0  0  0  0  0  0  0  0  0  0
   16.4516  -24.0501   -9.0043 N   0  0  0  0  0  0  0  0  0  0  0  0
   20.9473  -20.8305  -12.7367 C   0  0  0  0  0  0  0  0  0  0  0  0
   20.8731  -19.6211  -12.4048 O   0  0  0  0  0  0  0  0  0  0  0  0
   28.7750  -20.4951  -12.5764 N   0  0  0  0  0  0  0  0  0  0  0  0
   28.1398  -21.1521  -11.4995 C   0  0  0  0  0  0  0  0  0  0  0  0
   28.6753  -21.0799  -10.3323 N   0  0  0  0  0  0  0  0  0  0  0  0
   26.9280  -21.8744  -11.7287 N   0  0  0  0  0  0  0  0  0  0  0  0
   26.2304  -21.7973  -12.9725 C   0  0  0  0  0  0  0  0  0  0  0  0
   24.9179  -21.0301  -12.8774 C   0  0  0  0  0  0  0  0  0  0  0  0
   24.2619  -20.8937  -14.2022 C   0  0  0  0  0  0  0  0  0  0  0  0
   22.9188  -20.2413  -14.2287 C   0  0  2  0  0  0  0  0  0  0  0  0
   21.9774  -21.2135  -13.6360 N   0  0  0  0  0  0  0  0  0  0  0  0
   22.3990  -19.8849  -15.5548 C   0  0  0  0  0  0  0  0  0  0  0  0
   21.9265  -20.7859  -16.2941 O   0  0  0  0  0  0  0  0  0  0  0  0
   28.2089  -21.5029   -9.5216 N   0  0  0  0  0  0  0  0  0  0  0  0
   22.3773  -18.5728  -16.0937 C   0  0  2  0  0  0  0  0  0  0  0  0
   21.8133  -18.3084  -17.4332 C   0  0  0  0  0  0  0  0  0  0  0  0
   21.2489  -16.9287  -17.4843 C   0  0  0  0  0  0  0  0  0  0  0  0
   21.3673  -16.1306  -16.2320 C   0  0  0  0  0  0  0  0  0  0  0  0
   20.7311  -14.8046  -16.2653 O   0  0  0  0  0  0  0  0  0  0  0  0
   19.4973  -14.6928  -16.2480 C   0  0  0  0  0  0  0  0  0  0  0  0
   22.8741  -18.5365  -18.4342 O   0  0  0  0  0  0  0  0  0  0  0  0
   22.6221  -18.7669  -19.7745 O   0  0  0  0  0  0  0  0  0  0  0  0
   21.5183  -13.6741  -16.3164 O   0  0  0  0  0  0  0  0  0  0  0  0
  2  1  1  1
  3  4  1  0
  3  2  1  0
  4  5  1  0
  6  5  1  0
  7  6  1  0
  8  2  1  0
  8  9  2  0
 10 11  1  0
 11 13  1  0
 12 11  2  0
 13 14  1  0
 14 15  1  0
 16 15  1  0
 17 16  1  6
 17 18  1  0
 18  8  1  0
 19 20  2  0
 19 17  1  0
 21 19  1  0
 22 21  1  0
 22 23  1  1
 23 24  1  0
 24 25  1  0
 25 26  2  0
 25 29  1  0
 27 22  1  0
 28 27  1  0
 30 27  2  0
M  END
$$$$
