KRE.pdb
     RDKit          3D

 30 29  0  0  1  0  0  0  0  0999 V2000
   21.8764  -21.1437  -14.6976 N   0  0  0  0  0  0  0  0  0  0  0  0
   21.5595  -19.7422  -14.5318 C   0  0  1  0  0  0  0  0  0  0  0  0
   21.0932  -19.5444  -13.1016 C   0  0  0  0  0  0  0  0  0  0  0  0
   19.9314  -20.4945  -12.9084 C   0  0  0  0  0  0  0  0  0  0  0  0
   18.9085  -20.3963  -14.0033 C   0  0  0  0  0  0  0  0  0  0  0  0
   17.7139  -21.2640  -13.7859 C   0  0  0  0  0  0  0  0  0  0  0  0
   17.6460  -21.5830  -12.3680 N   0  0  0  0  0  0  0  0  0  0  0  0
   22.7103  -18.8992  -14.8895 C   0  0  0  0  0  0  0  0  0  0  0  0
   22.7447  -17.6568  -14.7060 O   0  0  0  0  0  0  0  0  0  0  0  0
   25.6665  -21.8361  -11.5500 N   0  0  0  0  0  0  0  0  0  0  0  0
   26.1412  -22.5321  -12.6836 C   0  0  0  0  0  0  0  0  0  0  0  0
   25.6430  -23.6877  -12.9496 N   0  0  0  0  0  0  0  0  0  0  0  0
   27.1537  -21.9421  -13.5017 N   0  0  0  0  0  0  0  0  0  0  0  0
   27.4582  -20.5485  -13.4336 C   0  0  0  0  0  0  0  0  0  0  0  0
   26.2951  -19.6592  -13.8539 C   0  0  0  0  0  0  0  0  0  0  0  0
   26.2171  -19.5144  -15.3293 C   0  0  0  0  0  0  0  0  0  0  0  0
   25.0491  -18.7604  -15.8748 C   0  0  2  0  0  0  0  0  0  0  0  0
   23.8462  -19.5190  -15.4743 N   0  0  0  0  0  0  0  0  0  0  0  0
   25.0019  -18.6085  -17.3344 C   0  0  0  0  0  0  0  0  0  0  0  0
   24.3939  -19.4666  -18.0240 O   0  0  0  0  0  0  0  0  0  0  0  0
   25.9848  -24.2262  -13.7539 N   0  0  0  0  0  0  0  0  0  0  0  0
   25.5963  -17.5446  -18.0606 C   0  0  1  0  0  0  0  0  0  0  0  0
   25.2220  -17.2776  -19.4645 C   0  0  0  0  0  0  0  0  0  0  0  0
   23.7513  -17.0499  -19.5644 C   0  0  0  0  0  0  0  0  0  0  0  0
   23.2247  -16.7901  -20.9334 C   0  0  0  0  0  0  0  0  0  0  0  0
   21.7739  -16.5619  -21.0195 O   0  0  0  0  0  0  0  0  0  0  0  0
   21.0704  -16.5634  -19.9996 C   0  0  0  0  0  0  0  0  0  0  0  0
   26.0184  -16.1311  -19.9447 O   0  0  0  0  0  0  0  0  0  0  0  0
   26.3401  -15.9287  -21.2746 O   0  0  0  0  0  0  0  0  0  0  0  0
   21.1919  -16.3439  -22.2499 O   0  0  0  0  0  0  0  0  0  0  0  0
  2  1  1  1
  3  4  1  0
  3  2  1  0
  4  5  1  0
  6  5  1  0
  7  6  1  0
  8  2  1  0
  8  9  2  0
 10 11  1  0
 11 13  1  0
 12 11  2  0
 13 14  1  0
 14 15  1  0
 16 15  1  0
 17 16  1  6
 17 18  1  0
 18  8  1  0
 19 20  2  0
 19 17  1  0
 21 19  1  0
 22 21  1  0
 22 23  1  6
 23 24  1  0
 24 25  1  0
 25 26  2  0
 25 29  1  0
 27 22  1  0
 28 27  1  0
 30 27  2  0
M  END
$$$$
