KRE.pdb
     RDKit          3D

 30 29  0  0  1  0  0  0  0  0999 V2000
   26.6758  -20.1077  -13.0886 N   0  0  0  0  0  0  0  0  0  0  0  0
   26.0071  -21.2611  -12.5277 C   0  0  1  0  0  0  0  0  0  0  0  0
   25.5619  -20.8945  -11.1243 C   0  0  0  0  0  0  0  0  0  0  0  0
   26.8289  -20.7660  -10.3070 C   0  0  0  0  0  0  0  0  0  0  0  0
   26.5625  -20.4672   -8.8598 C   0  0  0  0  0  0  0  0  0  0  0  0
   27.8016  -20.3121   -8.0426 C   0  0  0  0  0  0  0  0  0  0  0  0
   27.4008  -20.0032   -6.6785 N   0  0  0  0  0  0  0  0  0  0  0  0
   24.9007  -21.6972  -13.3929 C   0  0  0  0  0  0  0  0  0  0  0  0
   24.1223  -20.9033  -13.9780 O   0  0  0  0  0  0  0  0  0  0  0  0
   22.0539  -28.9994  -15.1682 N   0  0  0  0  0  0  0  0  0  0  0  0
   21.3698  -28.3999  -16.2487 C   0  0  0  0  0  0  0  0  0  0  0  0
   20.2095  -28.8527  -16.5698 N   0  0  0  0  0  0  0  0  0  0  0  0
   21.9759  -27.3142  -16.9532 N   0  0  0  0  0  0  0  0  0  0  0  0
   23.0907  -26.5996  -16.4183 C   0  0  0  0  0  0  0  0  0  0  0  0
   22.7940  -25.9426  -15.0764 C   0  0  0  0  0  0  0  0  0  0  0  0
   23.9081  -25.0673  -14.6330 C   0  0  0  0  0  0  0  0  0  0  0  0
   23.5830  -23.6310  -14.3848 C   0  0  2  0  0  0  0  0  0  0  0  0
   24.6975  -23.0901  -13.5796 N   0  0  0  0  0  0  0  0  0  0  0  0
   22.3429  -23.3673  -13.6441 C   0  0  0  0  0  0  0  0  0  0  0  0
   22.3150  -23.5574  -12.4013 O   0  0  0  0  0  0  0  0  0  0  0  0
   19.7059  -28.4623  -17.3747 N   0  0  0  0  0  0  0  0  0  0  0  0
   21.1351  -22.8986  -14.2220 C   0  0  2  0  0  0  0  0  0  0  0  0
   19.9502  -22.6154  -13.3863 C   0  0  0  0  0  0  0  0  0  0  0  0
   19.3029  -21.3485  -13.8341 C   0  0  0  0  0  0  0  0  0  0  0  0
   19.3668  -20.2108  -12.8746 C   0  0  0  0  0  0  0  0  0  0  0  0
   18.7236  -18.9670  -13.3256 O   0  0  0  0  0  0  0  0  0  0  0  0
   18.1765  -18.9026  -14.4354 C   0  0  0  0  0  0  0  0  0  0  0  0
   19.0475  -23.7815  -13.4549 O   0  0  0  0  0  0  0  0  0  0  0  0
   18.1269  -24.0931  -12.4709 O   0  0  0  0  0  0  0  0  0  0  0  0
   18.7304  -17.8611  -12.5027 O   0  0  0  0  0  0  0  0  0  0  0  0
  2  1  1  6
  3  4  1  0
  3  2  1  0
  4  5  1  0
  6  5  1  0
  7  6  1  0
  8  2  1  0
  8  9  2  0
 10 11  1  0
 11 13  1  0
 12 11  2  0
 13 14  1  0
 14 15  1  0
 16 15  1  0
 17 16  1  1
 17 18  1  0
 18  8  1  0
 19 20  2  0
 19 17  1  0
 21 19  1  0
 22 21  1  0
 22 23  1  6
 23 24  1  0
 24 25  1  0
 25 26  2  0
 25 29  1  0
 27 22  1  0
 28 27  1  0
 30 27  2  0
M  END
$$$$
