KRE.pdb
     RDKit          3D

 30 29  0  0  1  0  0  0  0  0999 V2000
   21.6244  -13.5581  -17.7054 N   0  0  0  0  0  0  0  0  0  0  0  0
   21.5400  -12.8328  -16.4569 C   0  0  1  0  0  0  0  0  0  0  0  0
   22.9406  -12.3704  -16.1006 C   0  0  0  0  0  0  0  0  0  0  0  0
   23.8391  -13.5704  -16.3070 C   0  0  0  0  0  0  0  0  0  0  0  0
   25.2870  -13.2668  -16.0499 C   0  0  0  0  0  0  0  0  0  0  0  0
   26.1690  -14.4696  -16.1012 C   0  0  0  0  0  0  0  0  0  0  0  0
   27.5354  -14.0316  -15.8601 N   0  0  0  0  0  0  0  0  0  0  0  0
   20.5719  -11.7301  -16.5561 C   0  0  0  0  0  0  0  0  0  0  0  0
   20.3463  -11.0976  -17.6179 O   0  0  0  0  0  0  0  0  0  0  0  0
   13.1174  -11.8682  -12.6182 N   0  0  0  0  0  0  0  0  0  0  0  0
   13.7212  -12.2682  -13.8307 C   0  0  0  0  0  0  0  0  0  0  0  0
   13.2181  -13.2650  -14.4693 N   0  0  0  0  0  0  0  0  0  0  0  0
   14.8655  -11.5630  -14.3163 N   0  0  0  0  0  0  0  0  0  0  0  0
   15.4282  -10.4611  -13.6031 C   0  0  0  0  0  0  0  0  0  0  0  0
   16.5912   -9.8039  -14.3352 C   0  0  0  0  0  0  0  0  0  0  0  0
   17.6978  -10.7618  -14.5840 C   0  0  0  0  0  0  0  0  0  0  0  0
   18.8552  -10.2654  -15.3867 C   0  0  2  0  0  0  0  0  0  0  0  0
   19.8511  -11.3568  -15.3910 N   0  0  0  0  0  0  0  0  0  0  0  0
   19.5282   -9.0642  -14.8767 C   0  0  0  0  0  0  0  0  0  0  0  0
   20.2540   -9.1519  -13.8535 O   0  0  0  0  0  0  0  0  0  0  0  0
   13.5589  -13.5040  -15.4077 N   0  0  0  0  0  0  0  0  0  0  0  0
   19.4334   -7.7722  -15.4548 C   0  0  2  0  0  0  0  0  0  0  0  0
   20.1960   -6.6331  -14.9039 C   0  0  0  0  0  0  0  0  0  0  0  0
   21.0172   -6.0036  -15.9780 C   0  0  0  0  0  0  0  0  0  0  0  0
   21.7548   -4.7678  -15.5933 C   0  0  0  0  0  0  0  0  0  0  0  0
   22.4688   -4.0917  -16.6874 O   0  0  0  0  0  0  0  0  0  0  0  0
   22.5174   -4.5946  -17.8187 C   0  0  0  0  0  0  0  0  0  0  0  0
   19.2403   -5.6953  -14.2820 O   0  0  0  0  0  0  0  0  0  0  0  0
   19.5896   -4.7934  -13.2933 O   0  0  0  0  0  0  0  0  0  0  0  0
   23.0907   -2.8847  -16.4497 O   0  0  0  0  0  0  0  0  0  0  0  0
  2  1  1  6
  3  4  1  0
  3  2  1  0
  4  5  1  0
  6  5  1  0
  7  6  1  0
  8  2  1  0
  8  9  2  0
 10 11  1  0
 11 13  1  0
 12 11  2  0
 13 14  1  0
 14 15  1  0
 16 15  1  0
 17 16  1  1
 17 18  1  0
 18  8  1  0
 19 20  2  0
 19 17  1  0
 21 19  1  0
 22 21  1  0
 22 23  1  6
 23 24  1  0
 24 25  1  0
 25 26  2  0
 25 29  1  0
 27 22  1  0
 28 27  1  0
 30 27  2  0
M  END
$$$$
