KRE.pdb
     RDKit          3D

 30 29  0  0  1  0  0  0  0  0999 V2000
   18.0470  -24.7407   -9.5189 N   0  0  0  0  0  0  0  0  0  0  0  0
   17.9438  -24.7128  -10.9613 C   0  0  1  0  0  0  0  0  0  0  0  0
   16.4789  -24.8816  -11.3187 C   0  0  0  0  0  0  0  0  0  0  0  0
   16.1618  -26.3437  -11.0915 C   0  0  0  0  0  0  0  0  0  0  0  0
   15.2613  -26.5694   -9.9114 C   0  0  0  0  0  0  0  0  0  0  0  0
   14.8141  -27.9854   -9.7618 C   0  0  0  0  0  0  0  0  0  0  0  0
   13.9783  -28.0663   -8.5737 N   0  0  0  0  0  0  0  0  0  0  0  0
   18.5362  -23.4814  -11.5050 C   0  0  0  0  0  0  0  0  0  0  0  0
   18.3131  -22.3375  -11.0358 O   0  0  0  0  0  0  0  0  0  0  0  0
   26.2184  -23.6373  -15.7514 N   0  0  0  0  0  0  0  0  0  0  0  0
   25.8730  -22.2718  -15.8553 C   0  0  0  0  0  0  0  0  0  0  0  0
   26.7168  -21.4625  -16.3916 N   0  0  0  0  0  0  0  0  0  0  0  0
   24.6061  -21.8247  -15.3679 N   0  0  0  0  0  0  0  0  0  0  0  0
   23.6541  -22.7296  -14.8071 C   0  0  0  0  0  0  0  0  0  0  0  0
   22.3774  -22.0430  -14.3391 C   0  0  0  0  0  0  0  0  0  0  0  0
   21.4632  -22.9890  -13.6512 C   0  0  0  0  0  0  0  0  0  0  0  0
   20.1716  -22.4355  -13.1456 C   0  0  2  0  0  0  0  0  0  0  0  0
   19.4081  -23.5864  -12.6209 N   0  0  0  0  0  0  0  0  0  0  0  0
   19.3221  -21.7658  -14.1384 C   0  0  0  0  0  0  0  0  0  0  0  0
   18.6859  -22.4589  -14.9729 O   0  0  0  0  0  0  0  0  0  0  0  0
   26.4652  -20.4792  -16.5454 N   0  0  0  0  0  0  0  0  0  0  0  0
   19.1455  -20.3621  -14.2426 C   0  0  2  0  0  0  0  0  0  0  0  0
   18.2787  -19.7786  -15.2869 C   0  0  0  0  0  0  0  0  0  0  0  0
   17.1917  -18.9757  -14.6557 C   0  0  0  0  0  0  0  0  0  0  0  0
   16.2847  -18.2573  -15.5940 C   0  0  0  0  0  0  0  0  0  0  0  0
   15.2656  -17.4064  -14.9604 O   0  0  0  0  0  0  0  0  0  0  0  0
   15.2461  -17.2487  -13.7317 C   0  0  0  0  0  0  0  0  0  0  0  0
   19.1258  -18.9871  -16.2009 O   0  0  0  0  0  0  0  0  0  0  0  0
   18.7981  -18.7373  -17.5212 O   0  0  0  0  0  0  0  0  0  0  0  0
   14.3219  -16.7778  -15.7443 O   0  0  0  0  0  0  0  0  0  0  0  0
  2  1  1  1
  3  4  1  0
  3  2  1  0
  4  5  1  0
  6  5  1  0
  7  6  1  0
  8  2  1  0
  8  9  2  0
 10 11  1  0
 11 13  1  0
 12 11  2  0
 13 14  1  0
 14 15  1  0
 16 15  1  0
 17 16  1  6
 17 18  1  0
 18  8  1  0
 19 20  2  0
 19 17  1  0
 21 19  1  0
 22 21  1  0
 22 23  1  1
 23 24  1  0
 24 25  1  0
 25 26  2  0
 25 29  1  0
 27 22  1  0
 28 27  1  0
 30 27  2  0
M  END
$$$$
