KRE.pdb
     RDKit          3D

 30 29  0  0  1  0  0  0  0  0999 V2000
   26.3527  -22.6262  -16.7180 N   0  0  0  0  0  0  0  0  0  0  0  0
   26.9183  -21.5117  -15.9900 C   0  0  1  0  0  0  0  0  0  0  0  0
   27.5734  -20.5896  -17.0013 C   0  0  0  0  0  0  0  0  0  0  0  0
   28.1772  -21.4916  -18.0557 C   0  0  0  0  0  0  0  0  0  0  0  0
   29.5282  -22.0199  -17.6682 C   0  0  0  0  0  0  0  0  0  0  0  0
   30.2193  -22.7587  -18.7654 C   0  0  0  0  0  0  0  0  0  0  0  0
   31.4885  -23.2446  -18.2459 N   0  0  0  0  0  0  0  0  0  0  0  0
   25.8926  -20.8443  -15.1743 C   0  0  0  0  0  0  0  0  0  0  0  0
   25.0139  -20.0828  -15.6501 O   0  0  0  0  0  0  0  0  0  0  0  0
   19.5425  -22.3376  -15.0485 N   0  0  0  0  0  0  0  0  0  0  0  0
   19.8792  -21.3078  -15.9545 C   0  0  0  0  0  0  0  0  0  0  0  0
   18.9360  -20.7415  -16.6209 N   0  0  0  0  0  0  0  0  0  0  0  0
   21.2466  -20.9216  -16.1084 N   0  0  0  0  0  0  0  0  0  0  0  0
   22.2923  -21.5428  -15.3599 C   0  0  0  0  0  0  0  0  0  0  0  0
   22.4876  -20.9293  -13.9793 C   0  0  0  0  0  0  0  0  0  0  0  0
   23.6242  -21.5521  -13.2552 C   0  0  0  0  0  0  0  0  0  0  0  0
   24.7703  -20.6624  -12.9011 C   0  0  2  0  0  0  0  0  0  0  0  0
   25.8918  -21.0699  -13.7723 N   0  0  0  0  0  0  0  0  0  0  0  0
   25.2456  -20.7412  -11.5141 C   0  0  0  0  0  0  0  0  0  0  0  0
   25.9105  -21.7434  -11.1465 O   0  0  0  0  0  0  0  0  0  0  0  0
   19.1430  -19.9496  -17.2404 N   0  0  0  0  0  0  0  0  0  0  0  0
   25.0185  -19.7553  -10.5198 C   0  0  2  0  0  0  0  0  0  0  0  0
   24.1022  -20.0101   -9.3893 C   0  0  0  0  0  0  0  0  0  0  0  0
   22.7058  -19.6574   -9.7769 C   0  0  0  0  0  0  0  0  0  0  0  0
   21.6493  -19.9969   -8.7830 C   0  0  0  0  0  0  0  0  0  0  0  0
   20.2707  -19.6959   -9.1987 O   0  0  0  0  0  0  0  0  0  0  0  0
   19.4623  -19.1995   -8.4016 C   0  0  0  0  0  0  0  0  0  0  0  0
   24.2507  -21.4218   -8.9838 O   0  0  0  0  0  0  0  0  0  0  0  0
   24.2008  -22.4805   -9.8723 O   0  0  0  0  0  0  0  0  0  0  0  0
   19.8749  -19.9699  -10.4904 O   0  0  0  0  0  0  0  0  0  0  0  0
  2  1  1  6
  3  4  1  0
  3  2  1  0
  4  5  1  0
  6  5  1  0
  7  6  1  0
  8  2  1  0
  8  9  2  0
 10 11  1  0
 11 13  1  0
 12 11  2  0
 13 14  1  0
 14 15  1  0
 16 15  1  0
 17 16  1  1
 17 18  1  0
 18  8  1  0
 19 20  2  0
 19 17  1  0
 21 19  1  0
 22 21  1  0
 22 23  1  6
 23 24  1  0
 24 25  1  0
 25 26  2  0
 25 29  1  0
 27 22  1  0
 28 27  1  0
 30 27  2  0
M  END
$$$$
