KRE.pdb
     RDKit          3D

 30 29  0  0  1  0  0  0  0  0999 V2000
   28.0026  -20.7786  -15.7664 N   0  0  0  0  0  0  0  0  0  0  0  0
   26.9843  -19.8886  -15.2537 C   0  0  1  0  0  0  0  0  0  0  0  0
   26.5294  -19.0048  -16.4001 C   0  0  0  0  0  0  0  0  0  0  0  0
   27.7369  -18.1829  -16.7953 C   0  0  0  0  0  0  0  0  0  0  0  0
   27.4555  -17.2396  -17.9292 C   0  0  0  0  0  0  0  0  0  0  0  0
   28.6692  -16.5350  -18.4369 C   0  0  0  0  0  0  0  0  0  0  0  0
   28.2719  -15.7310  -19.5825 N   0  0  0  0  0  0  0  0  0  0  0  0
   25.8875  -20.6485  -14.6354 C   0  0  0  0  0  0  0  0  0  0  0  0
   25.3590  -21.6589  -15.1629 O   0  0  0  0  0  0  0  0  0  0  0  0
   28.8642  -21.4561   -8.3734 N   0  0  0  0  0  0  0  0  0  0  0  0
   27.8255  -20.5585   -8.0418 C   0  0  0  0  0  0  0  0  0  0  0  0
   28.0168  -19.7228   -7.0829 N   0  0  0  0  0  0  0  0  0  0  0  0
   26.5978  -20.5982   -8.7723 N   0  0  0  0  0  0  0  0  0  0  0  0
   26.0900  -21.8135   -9.3242 C   0  0  0  0  0  0  0  0  0  0  0  0
   25.9015  -21.7537  -10.8346 C   0  0  0  0  0  0  0  0  0  0  0  0
   24.7221  -20.9344  -11.2109 C   0  0  0  0  0  0  0  0  0  0  0  0
   24.3263  -20.9389  -12.6509 C   0  0  2  0  0  0  0  0  0  0  0  0
   25.3959  -20.2205  -13.3738 N   0  0  0  0  0  0  0  0  0  0  0  0
   23.0585  -20.2728  -12.9752 C   0  0  0  0  0  0  0  0  0  0  0  0
   22.9669  -19.0253  -12.8450 O   0  0  0  0  0  0  0  0  0  0  0  0
   27.2825  -19.0534   -6.8252 N   0  0  0  0  0  0  0  0  0  0  0  0
   21.8908  -20.9302  -13.4409 C   0  0  2  0  0  0  0  0  0  0  0  0
   20.6409  -20.1815  -13.6847 C   0  0  0  0  0  0  0  0  0  0  0  0
   19.6747  -21.0351  -14.4348 C   0  0  0  0  0  0  0  0  0  0  0  0
   18.3707  -20.3991  -14.7725 C   0  0  0  0  0  0  0  0  0  0  0  0
   17.2490  -21.3284  -14.9782 O   0  0  0  0  0  0  0  0  0  0  0  0
   17.4120  -22.5521  -14.8725 C   0  0  0  0  0  0  0  0  0  0  0  0
   20.1169  -19.7214  -12.3835 O   0  0  0  0  0  0  0  0  0  0  0  0
   20.1970  -20.4673  -11.2216 O   0  0  0  0  0  0  0  0  0  0  0  0
   16.0025  -20.8305  -15.2921 O   0  0  0  0  0  0  0  0  0  0  0  0
  2  1  1  6
  3  4  1  0
  3  2  1  0
  4  5  1  0
  6  5  1  0
  7  6  1  0
  8  2  1  0
  8  9  2  0
 10 11  1  0
 11 13  1  0
 12 11  2  0
 13 14  1  0
 14 15  1  0
 16 15  1  0
 17 16  1  1
 17 18  1  0
 18  8  1  0
 19 20  2  0
 19 17  1  0
 21 19  1  0
 22 21  1  0
 22 23  1  6
 23 24  1  0
 24 25  1  0
 25 26  2  0
 25 29  1  0
 27 22  1  0
 28 27  1  0
 30 27  2  0
M  END
$$$$
