KRE.pdb
     RDKit          3D

 30 29  0  0  1  0  0  0  0  0999 V2000
   23.2122  -17.5533  -16.2833 N   0  0  0  0  0  0  0  0  0  0  0  0
   22.8087  -18.8140  -16.8663 C   0  0  1  0  0  0  0  0  0  0  0  0
   23.8461  -19.1894  -17.9079 C   0  0  0  0  0  0  0  0  0  0  0  0
   24.7291  -17.9716  -18.0724 C   0  0  0  0  0  0  0  0  0  0  0  0
   25.8617  -18.1968  -19.0321 C   0  0  0  0  0  0  0  0  0  0  0  0
   26.8046  -17.0438  -19.1264 C   0  0  0  0  0  0  0  0  0  0  0  0
   27.8179  -17.3757  -20.1163 N   0  0  0  0  0  0  0  0  0  0  0  0
   22.6320  -19.8390  -15.8266 C   0  0  0  0  0  0  0  0  0  0  0  0
   22.3499  -21.0380  -16.0743 O   0  0  0  0  0  0  0  0  0  0  0  0
   26.8482  -19.7716  -12.1574 N   0  0  0  0  0  0  0  0  0  0  0  0
   27.0263  -20.8812  -11.3019 C   0  0  0  0  0  0  0  0  0  0  0  0
   28.0987  -21.5819  -11.4178 N   0  0  0  0  0  0  0  0  0  0  0  0
   26.0213  -21.1967  -10.3360 N   0  0  0  0  0  0  0  0  0  0  0  0
   24.8528  -20.3913  -10.1759 C   0  0  0  0  0  0  0  0  0  0  0  0
   23.7032  -20.8161  -11.0805 C   0  0  0  0  0  0  0  0  0  0  0  0
   23.6896  -20.0490  -12.3515 C   0  0  0  0  0  0  0  0  0  0  0  0
   22.6409  -20.4128  -13.3506 C   0  0  2  0  0  0  0  0  0  0  0  0
   22.7878  -19.4572  -14.4678 N   0  0  0  0  0  0  0  0  0  0  0  0
   21.2500  -20.3304  -12.8873 C   0  0  0  0  0  0  0  0  0  0  0  0
   20.8024  -19.2304  -12.4736 O   0  0  0  0  0  0  0  0  0  0  0  0
   28.2807  -22.3603  -10.7738 N   0  0  0  0  0  0  0  0  0  0  0  0
   20.3344  -21.4138  -12.8671 C   0  0  2  0  0  0  0  0  0  0  0  0
   18.9223  -21.2111  -12.4833 C   0  0  0  0  0  0  0  0  0  0  0  0
   18.0595  -21.2104  -13.6999 C   0  0  0  0  0  0  0  0  0  0  0  0
   17.9057  -22.5220  -14.3891 C   0  0  0  0  0  0  0  0  0  0  0  0
   17.7074  -22.4513  -15.8450 O   0  0  0  0  0  0  0  0  0  0  0  0
   16.6584  -21.9946  -16.3205 C   0  0  0  0  0  0  0  0  0  0  0  0
   18.5525  -22.2602  -11.5127 O   0  0  0  0  0  0  0  0  0  0  0  0
   17.4335  -22.1905  -10.7028 O   0  0  0  0  0  0  0  0  0  0  0  0
   18.7012  -22.8988  -16.6890 O   0  0  0  0  0  0  0  0  0  0  0  0
  2  1  1  1
  3  4  1  0
  3  2  1  0
  4  5  1  0
  6  5  1  0
  7  6  1  0
  8  2  1  0
  8  9  2  0
 10 11  1  0
 11 13  1  0
 12 11  2  0
 13 14  1  0
 14 15  1  0
 16 15  1  0
 17 16  1  1
 17 18  1  0
 18  8  1  0
 19 20  2  0
 19 17  1  0
 21 19  1  0
 22 21  1  0
 22 23  1  6
 23 24  1  0
 24 25  1  0
 25 26  2  0
 25 29  1  0
 27 22  1  0
 28 27  1  0
 30 27  2  0
M  END
$$$$
