NMT.pdb
     RDKit          3D

 24 23  0  0  1  0  0  0  0  0999 V2000
   28.1232  -16.9070  -15.6925 N   0  0  0  0  0  0  0  0  0  0  0  0
   27.7895  -18.0767  -16.4304 C   0  0  0  0  0  0  0  0  0  0  0  0
   28.3702  -18.2820  -17.5097 O   0  0  0  0  0  0  0  0  0  0  0  0
   26.7682  -18.9849  -15.8707 C   0  0  0  0  0  0  0  0  0  0  0  0
   27.3974  -20.0801  -15.0498 C   0  0  2  0  0  0  0  0  0  0  0  0
   28.0566  -21.0428  -15.9157 N   0  0  0  0  0  0  0  0  0  0  0  0
   26.2899  -20.7313  -14.2798 C   0  0  0  0  0  0  0  0  0  0  0  0
   25.6556  -21.6425  -14.8683 O   0  0  0  0  0  0  0  0  0  0  0  0
   24.7977  -21.0113   -7.6279 C   0  0  0  0  0  0  0  0  0  0  0  0
   26.4092  -20.7615   -8.4048 S   0  0  0  0  0  0  0  0  0  0  0  0
   26.2567  -21.2201  -10.1584 C   0  0  0  0  0  0  0  0  0  0  0  0
   25.0503  -20.6312  -10.7974 C   0  0  0  0  0  0  0  0  0  0  0  0
   24.9136  -21.0018  -12.2475 C   0  0  2  0  0  0  0  0  0  0  0  0
   25.9968  -20.3264  -12.9721 N   0  0  0  0  0  0  0  0  0  0  0  0
   23.6352  -20.5107  -12.7948 C   0  0  0  0  0  0  0  0  0  0  0  0
   23.4474  -19.3091  -13.1548 O   0  0  0  0  0  0  0  0  0  0  0  0
   21.7476  -23.0319  -15.1254 C   0  0  0  0  0  0  0  0  0  0  0  0
   21.5686  -21.5292  -15.1263 C   0  0  1  0  0  0  0  0  0  0  0  0
   20.4328  -21.1710  -15.8714 O   0  0  0  0  0  0  0  0  0  0  0  0
   21.3905  -21.0109  -13.7146 C   0  0  2  0  0  0  0  0  0  0  0  0
   22.5442  -21.4057  -12.9361 N   0  0  0  0  0  0  0  0  0  0  0  0
   20.1660  -21.5529  -13.1185 C   0  0  0  0  0  0  0  0  0  0  0  0
   20.2696  -22.4567  -12.0693 O   0  0  0  0  0  0  0  0  0  0  0  0
   19.0036  -21.2326  -13.5195 O   0  0  0  0  0  0  0  0  0  0  0  0
  1  2  1  0
  2  3  2  0
  4  2  1  0
  5  7  1  0
  5  4  1  0
  5  6  1  6
  7  8  2  0
  9 10  1  0
 10 11  1  0
 11 12  1  0
 13 12  1  1
 14  7  1  0
 14 13  1  0
 15 21  1  0
 15 13  1  0
 16 15  2  0
 18 17  1  1
 18 19  1  0
 20 22  1  0
 20 18  1  0
 20 21  1  1
 22 23  1  0
 24 22  2  0
M  END
$$$$
