NMT.pdb
     RDKit          3D

 24 23  0  0  1  0  0  0  0  0999 V2000
   17.9887  -10.0508  -19.2099 N   0  0  0  0  0  0  0  0  0  0  0  0
   18.2740  -11.1531  -18.3570 C   0  0  0  0  0  0  0  0  0  0  0  0
   17.8756  -12.2811  -18.6934 O   0  0  0  0  0  0  0  0  0  0  0  0
   19.0304  -10.8946  -17.1151 C   0  0  0  0  0  0  0  0  0  0  0  0
   19.2696   -9.4209  -16.9141 C   0  0  2  0  0  0  0  0  0  0  0  0
   20.1736   -8.9142  -17.9324 N   0  0  0  0  0  0  0  0  0  0  0  0
   19.8671   -9.2641  -15.5495 C   0  0  0  0  0  0  0  0  0  0  0  0
   19.1593   -9.6344  -14.5795 O   0  0  0  0  0  0  0  0  0  0  0  0
   23.3106  -13.1477  -15.9709 C   0  0  0  0  0  0  0  0  0  0  0  0
   23.5512  -11.3584  -15.9159 S   0  0  0  0  0  0  0  0  0  0  0  0
   23.0655  -10.7840  -14.2597 C   0  0  0  0  0  0  0  0  0  0  0  0
   23.1049   -9.3029  -14.1372 C   0  0  0  0  0  0  0  0  0  0  0  0
   21.7382   -8.6844  -14.0462 C   0  0  2  0  0  0  0  0  0  0  0  0
   21.1509   -8.7292  -15.3906 N   0  0  0  0  0  0  0  0  0  0  0  0
   21.8304   -7.2681  -13.6453 C   0  0  0  0  0  0  0  0  0  0  0  0
   22.2796   -6.8903  -12.5210 O   0  0  0  0  0  0  0  0  0  0  0  0
   22.2168   -4.3297  -16.4583 C   0  0  0  0  0  0  0  0  0  0  0  0
   22.5295   -4.1842  -14.9849 C   0  0  1  0  0  0  0  0  0  0  0  0
   22.5672   -2.8272  -14.6231 O   0  0  0  0  0  0  0  0  0  0  0  0
   21.4724   -4.8684  -14.1435 C   0  0  2  0  0  0  0  0  0  0  0  0
   21.4018   -6.2571  -14.5429 N   0  0  0  0  0  0  0  0  0  0  0  0
   20.1705   -4.2204  -14.3270 C   0  0  0  0  0  0  0  0  0  0  0  0
   20.0132   -2.8990  -13.9303 O   0  0  0  0  0  0  0  0  0  0  0  0
   19.1699   -4.8153  -14.8363 O   0  0  0  0  0  0  0  0  0  0  0  0
  1  2  1  0
  2  3  2  0
  4  2  1  0
  5  7  1  0
  5  4  1  0
  5  6  1  6
  7  8  2  0
  9 10  1  0
 10 11  1  0
 11 12  1  0
 13 12  1  6
 14  7  1  0
 14 13  1  0
 15 21  1  0
 15 13  1  0
 16 15  2  0
 18 17  1  6
 18 19  1  0
 20 22  1  0
 20 18  1  0
 20 21  1  6
 22 23  1  0
 24 22  2  0
M  END
$$$$
