NMT.pdb
     RDKit          3D

 24 23  0  0  1  0  0  0  0  0999 V2000
   17.2834  -12.8354  -17.0220 N   0  0  0  0  0  0  0  0  0  0  0  0
   17.7930  -13.1908  -15.7421 C   0  0  0  0  0  0  0  0  0  0  0  0
   17.2445  -14.1181  -15.1228 O   0  0  0  0  0  0  0  0  0  0  0  0
   18.9493  -12.4355  -15.2191 C   0  0  0  0  0  0  0  0  0  0  0  0
   19.3526  -11.3286  -16.1578 C   0  0  2  0  0  0  0  0  0  0  0  0
   19.8528  -11.8829  -17.4043 N   0  0  0  0  0  0  0  0  0  0  0  0
   20.4202  -10.5415  -15.4618 C   0  0  0  0  0  0  0  0  0  0  0  0
   20.1376  -10.0962  -14.3213 O   0  0  0  0  0  0  0  0  0  0  0  0
   26.7385  -11.7093  -15.1870 C   0  0  0  0  0  0  0  0  0  0  0  0
   26.7638   -9.9525  -15.6061 S   0  0  0  0  0  0  0  0  0  0  0  0
   25.1368   -9.2579  -15.1830 C   0  0  0  0  0  0  0  0  0  0  0  0
   24.0162  -10.0237  -15.7898 C   0  0  0  0  0  0  0  0  0  0  0  0
   22.6643   -9.5150  -15.3744 C   0  0  2  0  0  0  0  0  0  0  0  0
   21.6612  -10.3275  -16.0731 N   0  0  0  0  0  0  0  0  0  0  0  0
   22.4794   -8.1145  -15.7979 C   0  0  0  0  0  0  0  0  0  0  0  0
   22.7297   -7.7028  -16.9712 O   0  0  0  0  0  0  0  0  0  0  0  0
   19.9758   -6.0778  -16.7668 C   0  0  0  0  0  0  0  0  0  0  0  0
   20.4702   -5.4189  -15.4974 C   0  0  1  0  0  0  0  0  0  0  0  0
   19.7182   -5.8545  -14.3936 O   0  0  0  0  0  0  0  0  0  0  0  0
   21.9229   -5.7649  -15.2458 C   0  0  2  0  0  0  0  0  0  0  0  0
   21.9992   -7.1589  -14.8664 N   0  0  0  0  0  0  0  0  0  0  0  0
   22.4767   -4.9188  -14.1847 C   0  0  0  0  0  0  0  0  0  0  0  0
   22.7133   -3.5759  -14.4477 O   0  0  0  0  0  0  0  0  0  0  0  0
   22.7531   -5.3591  -13.0253 O   0  0  0  0  0  0  0  0  0  0  0  0
  1  2  1  0
  2  3  2  0
  4  2  1  0
  5  7  1  0
  5  4  1  0
  5  6  1  6
  7  8  2  0
  9 10  1  0
 10 11  1  0
 11 12  1  0
 13 12  1  6
 14  7  1  0
 14 13  1  0
 15 21  1  0
 15 13  1  0
 16 15  2  0
 18 17  1  6
 18 19  1  0
 20 22  1  0
 20 18  1  0
 20 21  1  1
 22 23  1  0
 24 22  2  0
M  END
$$$$
