NMT.pdb
     RDKit          3D

 24 23  0  0  1  0  0  0  0  0999 V2000
   10.3206  -10.3161   -9.2245 N   0  0  0  0  0  0  0  0  0  0  0  0
   11.0353   -9.4176   -8.3844 C   0  0  0  0  0  0  0  0  0  0  0  0
   10.4024   -8.7764   -7.5285 O   0  0  0  0  0  0  0  0  0  0  0  0
   12.4946   -9.2964   -8.5769 C   0  0  0  0  0  0  0  0  0  0  0  0
   12.9929  -10.2603   -9.6219 C   0  0  2  0  0  0  0  0  0  0  0  0
   12.9813  -11.6169   -9.1016 N   0  0  0  0  0  0  0  0  0  0  0  0
   14.3876   -9.8372   -9.9675 C   0  0  0  0  0  0  0  0  0  0  0  0
   15.2936  -10.1778   -9.1662 O   0  0  0  0  0  0  0  0  0  0  0  0
   19.8014   -9.8864  -15.2205 C   0  0  0  0  0  0  0  0  0  0  0  0
   18.0708  -10.1855  -14.7988 S   0  0  0  0  0  0  0  0  0  0  0  0
   17.6961   -9.2405  -13.2904 C   0  0  0  0  0  0  0  0  0  0  0  0
   16.3218   -9.4977  -12.7848 C   0  0  0  0  0  0  0  0  0  0  0  0
   16.0326   -8.7969  -11.4870 C   0  0  2  0  0  0  0  0  0  0  0  0
   14.6415   -9.1004  -11.1304 N   0  0  0  0  0  0  0  0  0  0  0  0
   16.1451   -7.3350  -11.6454 C   0  0  0  0  0  0  0  0  0  0  0  0
   15.3737   -6.6532  -12.3863 O   0  0  0  0  0  0  0  0  0  0  0  0
   15.9026   -4.5962   -9.1848 C   0  0  0  0  0  0  0  0  0  0  0  0
   17.2866   -4.5287   -9.7931 C   0  0  1  0  0  0  0  0  0  0  0  0
   18.2188   -5.1746   -8.9640 O   0  0  0  0  0  0  0  0  0  0  0  0
   17.3094   -5.2063  -11.1473 C   0  0  2  0  0  0  0  0  0  0  0  0
   17.1580   -6.6308  -10.9457 N   0  0  0  0  0  0  0  0  0  0  0  0
   18.5680   -4.9227  -11.8429 C   0  0  0  0  0  0  0  0  0  0  0  0
   18.8278   -3.6254  -12.2647 O   0  0  0  0  0  0  0  0  0  0  0  0
   19.4407   -5.8151  -12.0807 O   0  0  0  0  0  0  0  0  0  0  0  0
  1  2  1  0
  2  3  2  0
  4  2  1  0
  5  7  1  0
  5  4  1  0
  5  6  1  1
  7  8  2  0
  9 10  1  0
 10 11  1  0
 11 12  1  0
 13 12  1  6
 14  7  1  0
 14 13  1  0
 15 21  1  0
 15 13  1  0
 16 15  2  0
 18 17  1  1
 18 19  1  0
 20 22  1  0
 20 18  1  0
 20 21  1  1
 22 23  1  0
 24 22  2  0
M  END
$$$$
