NMT.pdb
     RDKit          3D

 24 23  0  0  1  0  0  0  0  0999 V2000
   18.4974  -19.7986  -11.9973 N   0  0  0  0  0  0  0  0  0  0  0  0
   19.4429  -20.8602  -12.0526 C   0  0  0  0  0  0  0  0  0  0  0  0
   19.0448  -22.0194  -11.8473 O   0  0  0  0  0  0  0  0  0  0  0  0
   20.8496  -20.5244  -12.3519 C   0  0  0  0  0  0  0  0  0  0  0  0
   21.7934  -21.2164  -11.4034 C   0  0  2  0  0  0  0  0  0  0  0  0
   21.4399  -20.9092  -10.0280 N   0  0  0  0  0  0  0  0  0  0  0  0
   23.1684  -20.7145  -11.7218 C   0  0  0  0  0  0  0  0  0  0  0  0
   23.2656  -19.9128  -12.6844 O   0  0  0  0  0  0  0  0  0  0  0  0
   27.4418  -19.2405   -6.4684 C   0  0  0  0  0  0  0  0  0  0  0  0
   27.6604  -20.4584   -7.7843 S   0  0  0  0  0  0  0  0  0  0  0  0
   26.4511  -20.0861   -9.0911 C   0  0  0  0  0  0  0  0  0  0  0  0
   26.5466  -21.0263  -10.2389 C   0  0  0  0  0  0  0  0  0  0  0  0
   25.6111  -20.6784  -11.3626 C   0  0  2  0  0  0  0  0  0  0  0  0
   24.2721  -21.1333  -10.9694 N   0  0  0  0  0  0  0  0  0  0  0  0
   25.9837  -21.3973  -12.5952 C   0  0  0  0  0  0  0  0  0  0  0  0
   25.9935  -22.6623  -12.6878 O   0  0  0  0  0  0  0  0  0  0  0  0
   26.0862  -21.6105  -17.3646 C   0  0  0  0  0  0  0  0  0  0  0  0
   25.7111  -20.9803  -16.0409 C   0  0  1  0  0  0  0  0  0  0  0  0
   24.4369  -21.4117  -15.6359 O   0  0  0  0  0  0  0  0  0  0  0  0
   26.7045  -21.3651  -14.9646 C   0  0  2  0  0  0  0  0  0  0  0  0
   26.3542  -20.6619  -13.7499 N   0  0  0  0  0  0  0  0  0  0  0  0
   28.0681  -21.0193  -15.3763 C   0  0  0  0  0  0  0  0  0  0  0  0
   28.9050  -22.0222  -15.8476 O   0  0  0  0  0  0  0  0  0  0  0  0
   28.5253  -19.8350  -15.3221 O   0  0  0  0  0  0  0  0  0  0  0  0
  1  2  1  0
  2  3  2  0
  4  2  1  0
  5  7  1  0
  5  4  1  0
  5  6  1  1
  7  8  2  0
  9 10  1  0
 10 11  1  0
 11 12  1  0
 13 12  1  1
 14  7  1  0
 14 13  1  0
 15 21  1  0
 15 13  1  0
 16 15  2  0
 18 17  1  6
 18 19  1  0
 20 22  1  0
 20 18  1  0
 20 21  1  1
 22 23  1  0
 24 22  2  0
M  END
$$$$
