NMT.pdb
     RDKit          3D

 24 23  0  0  1  0  0  0  0  0999 V2000
   17.2499  -14.3062  -14.5552 N   0  0  0  0  0  0  0  0  0  0  0  0
   17.8322  -14.1666  -15.8457 C   0  0  0  0  0  0  0  0  0  0  0  0
   18.3415  -15.1678  -16.3773 O   0  0  0  0  0  0  0  0  0  0  0  0
   17.7991  -12.8352  -16.4839 C   0  0  0  0  0  0  0  0  0  0  0  0
   17.0266  -11.8457  -15.6510 C   0  0  2  0  0  0  0  0  0  0  0  0
   15.6097  -12.1664  -15.6738 N   0  0  0  0  0  0  0  0  0  0  0  0
   17.2738  -10.4945  -16.2484 C   0  0  0  0  0  0  0  0  0  0  0  0
   17.1293  -10.3946  -17.4926 O   0  0  0  0  0  0  0  0  0  0  0  0
   14.8784   -3.6768  -17.2771 C   0  0  0  0  0  0  0  0  0  0  0  0
   14.7249   -5.3929  -16.7348 S   0  0  0  0  0  0  0  0  0  0  0  0
   16.3990   -6.0988  -16.6470 C   0  0  0  0  0  0  0  0  0  0  0  0
   16.4020   -7.4929  -16.1304 C   0  0  0  0  0  0  0  0  0  0  0  0
   17.7805   -8.0861  -16.0486 C   0  0  2  0  0  0  0  0  0  0  0  0
   17.6460   -9.4146  -15.4391 N   0  0  0  0  0  0  0  0  0  0  0  0
   18.6470   -7.2771  -15.1714 C   0  0  0  0  0  0  0  0  0  0  0  0
   18.4543   -7.1538  -13.9238 O   0  0  0  0  0  0  0  0  0  0  0  0
   21.9912   -7.8652  -14.2713 C   0  0  0  0  0  0  0  0  0  0  0  0
   22.0168   -6.4958  -14.9148 C   0  0  1  0  0  0  0  0  0  0  0  0
   22.3970   -6.5949  -16.2637 O   0  0  0  0  0  0  0  0  0  0  0  0
   20.6477   -5.8513  -14.8558 C   0  0  2  0  0  0  0  0  0  0  0  0
   19.7587   -6.5916  -15.7244 N   0  0  0  0  0  0  0  0  0  0  0  0
   20.7205   -4.4499  -15.2790 C   0  0  0  0  0  0  0  0  0  0  0  0
   21.3511   -3.5282  -14.4535 O   0  0  0  0  0  0  0  0  0  0  0  0
   20.2300   -4.0341  -16.3748 O   0  0  0  0  0  0  0  0  0  0  0  0
  1  2  1  0
  2  3  2  0
  4  2  1  0
  5  7  1  0
  5  4  1  0
  5  6  1  6
  7  8  2  0
  9 10  1  0
 10 11  1  0
 11 12  1  0
 13 12  1  1
 14  7  1  0
 14 13  1  0
 15 21  1  0
 15 13  1  0
 16 15  2  0
 18 17  1  6
 18 19  1  0
 20 22  1  0
 20 18  1  0
 20 21  1  6
 22 23  1  0
 24 22  2  0
M  END
$$$$
