NMT.pdb
     RDKit          3D

 24 23  0  0  1  0  0  0  0  0999 V2000
   19.5915  -12.8246  -18.5622 N   0  0  0  0  0  0  0  0  0  0  0  0
   18.8654  -11.6311  -18.2932 C   0  0  0  0  0  0  0  0  0  0  0  0
   17.8107  -11.4259  -18.9175 O   0  0  0  0  0  0  0  0  0  0  0  0
   19.4074  -10.6994  -17.2836 C   0  0  0  0  0  0  0  0  0  0  0  0
   20.7009  -11.2092  -16.7037 C   0  0  2  0  0  0  0  0  0  0  0  0
   20.4428  -12.3021  -15.7816 N   0  0  0  0  0  0  0  0  0  0  0  0
   21.3382  -10.0552  -15.9925 C   0  0  0  0  0  0  0  0  0  0  0  0
   20.8563   -9.7487  -14.8732 O   0  0  0  0  0  0  0  0  0  0  0  0
   27.3686  -11.6146  -15.0524 C   0  0  0  0  0  0  0  0  0  0  0  0
   26.6586  -10.3565  -16.1367 S   0  0  0  0  0  0  0  0  0  0  0  0
   25.2327   -9.6240  -15.2770 C   0  0  0  0  0  0  0  0  0  0  0  0
   24.5962   -8.5321  -16.0599 C   0  0  0  0  0  0  0  0  0  0  0  0
   23.1314   -8.3733  -15.7630 C   0  0  2  0  0  0  0  0  0  0  0  0
   22.4148   -9.3700  -16.5678 N   0  0  0  0  0  0  0  0  0  0  0  0
   22.6555   -7.0397  -16.1752 C   0  0  0  0  0  0  0  0  0  0  0  0
   22.8175   -6.5727  -17.3434 O   0  0  0  0  0  0  0  0  0  0  0  0
   19.6330   -3.2988  -15.2972 C   0  0  0  0  0  0  0  0  0  0  0  0
   20.1301   -4.7017  -15.0238 C   0  0  1  0  0  0  0  0  0  0  0  0
   19.2459   -5.6495  -15.5655 O   0  0  0  0  0  0  0  0  0  0  0  0
   21.4935   -4.9171  -15.6468 C   0  0  2  0  0  0  0  0  0  0  0  0
   21.9800   -6.2168  -15.2382 N   0  0  0  0  0  0  0  0  0  0  0  0
   22.4251   -3.8690  -15.2200 C   0  0  0  0  0  0  0  0  0  0  0  0
   22.9952   -3.9473  -13.9562 O   0  0  0  0  0  0  0  0  0  0  0  0
   22.7388   -2.8832  -15.9577 O   0  0  0  0  0  0  0  0  0  0  0  0
  1  2  1  0
  2  3  2  0
  4  2  1  0
  5  7  1  0
  5  4  1  0
  5  6  1  1
  7  8  2  0
  9 10  1  0
 10 11  1  0
 11 12  1  0
 13 12  1  6
 14  7  1  0
 14 13  1  0
 15 21  1  0
 15 13  1  0
 16 15  2  0
 18 17  1  6
 18 19  1  0
 20 22  1  0
 20 18  1  0
 20 21  1  1
 22 23  1  0
 24 22  2  0
M  END
$$$$
