NMT.pdb
     RDKit          3D

 24 23  0  0  1  0  0  0  0  0999 V2000
   19.0865  -11.5055  -19.9301 N   0  0  0  0  0  0  0  0  0  0  0  0
   18.6456  -12.0109  -18.6754 C   0  0  0  0  0  0  0  0  0  0  0  0
   17.9509  -13.0412  -18.6629 O   0  0  0  0  0  0  0  0  0  0  0  0
   19.0394  -11.2806  -17.4537 C   0  0  0  0  0  0  0  0  0  0  0  0
   19.8114  -10.0303  -17.7857 C   0  0  2  0  0  0  0  0  0  0  0  0
   21.1833  -10.3624  -18.1300 N   0  0  0  0  0  0  0  0  0  0  0  0
   19.7666   -9.1604  -16.5670 C   0  0  0  0  0  0  0  0  0  0  0  0
   18.6307   -8.7758  -16.1918 O   0  0  0  0  0  0  0  0  0  0  0  0
   22.0443   -9.6757  -10.3394 C   0  0  0  0  0  0  0  0  0  0  0  0
   22.5808  -10.4714  -11.8697 S   0  0  0  0  0  0  0  0  0  0  0  0
   21.4849   -9.9015  -13.2050 C   0  0  0  0  0  0  0  0  0  0  0  0
   21.8479   -8.5474  -13.6998 C   0  0  0  0  0  0  0  0  0  0  0  0
   20.8529   -7.9942  -14.6810 C   0  0  2  0  0  0  0  0  0  0  0  0
   20.9453   -8.8086  -15.8987 N   0  0  0  0  0  0  0  0  0  0  0  0
   21.1927   -6.6060  -15.0445 C   0  0  0  0  0  0  0  0  0  0  0  0
   21.9644   -6.3065  -16.0056 O   0  0  0  0  0  0  0  0  0  0  0  0
   20.0982   -1.8399  -14.6361 C   0  0  0  0  0  0  0  0  0  0  0  0
   19.7862   -3.2900  -14.3363 C   0  0  1  0  0  0  0  0  0  0  0  0
   18.7000   -3.7285  -15.1118 O   0  0  0  0  0  0  0  0  0  0  0  0
   20.9778   -4.1699  -14.6517 C   0  0  2  0  0  0  0  0  0  0  0  0
   20.6433   -5.5323  -14.2983 N   0  0  0  0  0  0  0  0  0  0  0  0
   22.1571   -3.7260  -13.9030 C   0  0  0  0  0  0  0  0  0  0  0  0
   23.1061   -2.9402  -14.5436 O   0  0  0  0  0  0  0  0  0  0  0  0
   22.3545   -4.0284  -12.6847 O   0  0  0  0  0  0  0  0  0  0  0  0
  1  2  1  0
  2  3  2  0
  4  2  1  0
  5  7  1  0
  5  4  1  0
  5  6  1  1
  7  8  2  0
  9 10  1  0
 10 11  1  0
 11 12  1  0
 13 12  1  1
 14  7  1  0
 14 13  1  0
 15 21  1  0
 15 13  1  0
 16 15  2  0
 18 17  1  6
 18 19  1  0
 20 22  1  0
 20 18  1  0
 20 21  1  1
 22 23  1  0
 24 22  2  0
M  END
$$$$
