NMT.pdb
     RDKit          3D

 24 23  0  0  1  0  0  0  0  0999 V2000
   18.9386  -13.1907  -18.8585 N   0  0  0  0  0  0  0  0  0  0  0  0
   18.3912  -12.6819  -17.6479 C   0  0  0  0  0  0  0  0  0  0  0  0
   17.1725  -12.8170  -17.4460 O   0  0  0  0  0  0  0  0  0  0  0  0
   19.3049  -12.0192  -16.6954 C   0  0  0  0  0  0  0  0  0  0  0  0
   20.7177  -11.9921  -17.2175 C   0  0  2  0  0  0  0  0  0  0  0  0
   21.3107  -13.3158  -17.1336 N   0  0  0  0  0  0  0  0  0  0  0  0
   21.4727  -11.0182  -16.3658 C   0  0  0  0  0  0  0  0  0  0  0  0
   21.0493  -10.8487  -15.1950 O   0  0  0  0  0  0  0  0  0  0  0  0
   27.8887   -9.5263  -16.0075 C   0  0  0  0  0  0  0  0  0  0  0  0
   27.0224  -11.0811  -15.6999 S   0  0  0  0  0  0  0  0  0  0  0  0
   25.2858  -10.6850  -15.3311 C   0  0  0  0  0  0  0  0  0  0  0  0
   24.7561   -9.5946  -16.1918 C   0  0  0  0  0  0  0  0  0  0  0  0
   23.2800   -9.3724  -16.0165 C   0  0  2  0  0  0  0  0  0  0  0  0
   22.5900  -10.3444  -16.8731 N   0  0  0  0  0  0  0  0  0  0  0  0
   22.8962   -8.0232  -16.4719 C   0  0  0  0  0  0  0  0  0  0  0  0
   23.4497   -7.4344  -17.4495 O   0  0  0  0  0  0  0  0  0  0  0  0
   19.3589   -7.2385  -17.1625 C   0  0  0  0  0  0  0  0  0  0  0  0
   20.5212   -6.3441  -17.5350 C   0  0  1  0  0  0  0  0  0  0  0  0
   20.0551   -5.1166  -18.0348 O   0  0  0  0  0  0  0  0  0  0  0  0
   21.3890   -6.0631  -16.3261 C   0  0  2  0  0  0  0  0  0  0  0  0
   21.8594   -7.3262  -15.8006 N   0  0  0  0  0  0  0  0  0  0  0  0
   20.6276   -5.3397  -15.3037 C   0  0  0  0  0  0  0  0  0  0  0  0
   20.2799   -4.0150  -15.5333 O   0  0  0  0  0  0  0  0  0  0  0  0
   20.2671   -5.8713  -14.2074 O   0  0  0  0  0  0  0  0  0  0  0  0
  1  2  1  0
  2  3  2  0
  4  2  1  0
  5  7  1  0
  5  4  1  0
  5  6  1  1
  7  8  2  0
  9 10  1  0
 10 11  1  0
 11 12  1  0
 13 12  1  6
 14  7  1  0
 14 13  1  0
 15 21  1  0
 15 13  1  0
 16 15  2  0
 18 17  1  1
 18 19  1  0
 20 22  1  0
 20 18  1  0
 20 21  1  1
 22 23  1  0
 24 22  2  0
M  END
$$$$
