NMT.pdb
     RDKit          3D

 24 23  0  0  1  0  0  0  0  0999 V2000
   29.5780  -18.7859  -16.5113 N   0  0  0  0  0  0  0  0  0  0  0  0
   28.2708  -18.2732  -16.2827 C   0  0  0  0  0  0  0  0  0  0  0  0
   27.9846  -17.1544  -16.7418 O   0  0  0  0  0  0  0  0  0  0  0  0
   27.3235  -19.1018  -15.5099 C   0  0  0  0  0  0  0  0  0  0  0  0
   27.9889  -20.3430  -14.9750 C   0  0  2  0  0  0  0  0  0  0  0  0
   28.3441  -21.2338  -16.0665 N   0  0  0  0  0  0  0  0  0  0  0  0
   27.0036  -20.9976  -14.0560 C   0  0  0  0  0  0  0  0  0  0  0  0
   26.4191  -22.0200  -14.4941 O   0  0  0  0  0  0  0  0  0  0  0  0
   26.8344  -19.7497   -7.8510 C   0  0  0  0  0  0  0  0  0  0  0  0
   25.3747  -20.8136   -7.8444 S   0  0  0  0  0  0  0  0  0  0  0  0
   24.9989  -21.2505   -9.5697 C   0  0  0  0  0  0  0  0  0  0  0  0
   26.0099  -20.7222  -10.5233 C   0  0  0  0  0  0  0  0  0  0  0  0
   25.7136  -21.0814  -11.9523 C   0  0  2  0  0  0  0  0  0  0  0  0
   26.7648  -20.4764  -12.7790 N   0  0  0  0  0  0  0  0  0  0  0  0
   24.4235  -20.5084  -12.3791 C   0  0  0  0  0  0  0  0  0  0  0  0
   24.1987  -19.2612  -12.4321 O   0  0  0  0  0  0  0  0  0  0  0  0
   22.9682  -20.7534  -15.5756 C   0  0  0  0  0  0  0  0  0  0  0  0
   21.8968  -21.2937  -14.6536 C   0  0  1  0  0  0  0  0  0  0  0  0
   21.9171  -22.6985  -14.6482 O   0  0  0  0  0  0  0  0  0  0  0  0
   22.1191  -20.8124  -13.2351 C   0  0  2  0  0  0  0  0  0  0  0  0
   23.3633  -21.3725  -12.7545 N   0  0  0  0  0  0  0  0  0  0  0  0
   21.0090  -21.2260  -12.3719 C   0  0  0  0  0  0  0  0  0  0  0  0
   19.7602  -20.6471  -12.5556 O   0  0  0  0  0  0  0  0  0  0  0  0
   21.1357  -22.0967  -11.4553 O   0  0  0  0  0  0  0  0  0  0  0  0
  1  2  1  0
  2  3  2  0
  4  2  1  0
  5  7  1  0
  5  4  1  0
  5  6  1  6
  7  8  2  0
  9 10  1  0
 10 11  1  0
 11 12  1  0
 13 12  1  1
 14  7  1  0
 14 13  1  0
 15 21  1  0
 15 13  1  0
 16 15  2  0
 18 17  1  6
 18 19  1  0
 20 22  1  0
 20 18  1  0
 20 21  1  1
 22 23  1  0
 24 22  2  0
M  END
$$$$
