HCY.pdb
     RDKit          3D

 29 30  0  0  1  0  0  0  0  0999 V2000
    8.0345  -17.0910   20.5623 N   0  0  0  0  0  0  0  0  0  0  0  0
    8.5331  -16.0976   21.4914 C   0  0  1  0  0  0  0  0  0  0  0  0
    7.5401  -14.9397   21.5177 C   0  0  0  0  0  0  0  0  0  0  0  0
    7.7794  -14.0809   20.3278 C   0  0  0  0  0  0  0  0  0  0  0  0
    8.7323  -14.2914   19.3604 C   0  0  0  0  0  0  0  0  0  0  0  0
    8.6526  -13.2924   18.4338 N   0  0  0  0  0  0  0  0  0  0  0  0
    7.6661  -12.4774   18.8224 C   0  0  0  0  0  0  0  0  0  0  0  0
    7.1362  -12.9647   19.9808 N   0  0  0  0  0  0  0  0  0  0  0  0
    8.7046  -16.7042   22.8082 C   0  0  0  0  0  0  0  0  0  0  0  0
    7.6863  -17.0653   23.4639 O   0  0  0  0  0  0  0  0  0  0  0  0
    9.9802  -16.9242   23.4196 N   0  0  0  0  0  0  0  0  0  0  0  0
   10.0625  -17.4955   24.7243 C   0  0  1  0  0  0  0  0  0  0  0  0
   11.0089  -18.7168   24.6091 C   0  0  0  0  0  0  0  0  0  0  0  0
   10.1243  -19.9549   23.6305 S   0  0  0  0  0  0  0  0  0  0  0  0
   10.5285  -16.6025   25.7880 C   0  0  0  0  0  0  0  0  0  0  0  0
   11.5113  -15.8088   25.5812 O   0  0  0  0  0  0  0  0  0  0  0  0
    6.2803  -11.9306   24.9767 O   0  0  0  0  0  0  0  0  0  0  0  0
    7.0223  -12.6677   25.9095 C   0  0  0  0  0  0  0  0  0  0  0  0
    6.4485  -13.6606   26.6718 C   0  0  0  0  0  0  0  0  0  0  0  0
    7.2012  -14.3696   27.5811 C   0  0  0  0  0  0  0  0  0  0  0  0
    8.5660  -14.1111   27.7643 C   0  0  0  0  0  0  0  0  0  0  0  0
    9.3705  -14.8531   28.7536 C   0  0  0  0  0  0  0  0  0  0  0  0
   10.4685  -15.6119   28.0968 C   0  0  2  0  0  0  0  0  0  0  0  0
    9.9742  -16.5257   27.0769 N   0  0  0  0  0  0  0  0  0  0  0  0
   11.2813  -16.3786   29.0477 C   0  0  0  0  0  0  0  0  0  0  0  0
   11.2908  -17.6310   28.9881 O   0  0  0  0  0  0  0  0  0  0  0  0
    9.1482  -13.1131   27.0000 C   0  0  0  0  0  0  0  0  0  0  0  0
    8.3643  -12.4263   26.1018 C   0  0  0  0  0  0  0  0  0  0  0  0
   12.0713  -15.8245   30.0426 O   0  0  0  0  0  0  0  0  0  0  0  0
  2  3  1  0
  2  1  1  6
  4  3  1  0
  4  8  1  0
  5  4  2  0
  6  5  1  0
  6  7  1  0
  7  8  2  0
  9  2  1  0
 10  9  2  0
 11  9  1  0
 12 11  1  0
 12 13  1  6
 14 13  1  0
 15 24  1  0
 15 12  1  0
 16 15  2  0
 18 17  1  0
 19 18  2  0
 20 19  1  0
 21 20  2  0
 21 27  1  0
 22 21  1  0
 23 22  1  1
 23 24  1  0
 25 23  1  0
 25 29  1  0
 26 25  2  0
 27 28  2  0
 28 18  1  0
M  END
$$$$
