HCY.pdb
     RDKit          3D

 29 30  0  0  1  0  0  0  0  0999 V2000
    9.0511  -16.9364   19.8989 N   0  0  0  0  0  0  0  0  0  0  0  0
    9.1838  -15.9547   20.9560 C   0  0  1  0  0  0  0  0  0  0  0  0
    7.9151  -15.1077   20.9717 C   0  0  0  0  0  0  0  0  0  0  0  0
    7.8700  -14.2958   19.7269 C   0  0  0  0  0  0  0  0  0  0  0  0
    8.2926  -12.9947   19.5975 C   0  0  0  0  0  0  0  0  0  0  0  0
    8.0876  -12.5871   18.3111 N   0  0  0  0  0  0  0  0  0  0  0  0
    7.5468  -13.6198   17.6559 C   0  0  0  0  0  0  0  0  0  0  0  0
    7.4162  -14.6614   18.5267 N   0  0  0  0  0  0  0  0  0  0  0  0
    9.4057  -16.6353   22.2284 C   0  0  0  0  0  0  0  0  0  0  0  0
    8.6079  -17.5445   22.5946 O   0  0  0  0  0  0  0  0  0  0  0  0
   10.4941  -16.3354   23.1086 N   0  0  0  0  0  0  0  0  0  0  0  0
   10.6598  -17.0679   24.3216 C   0  0  1  0  0  0  0  0  0  0  0  0
   12.0271  -17.7886   24.2151 C   0  0  0  0  0  0  0  0  0  0  0  0
   12.1800  -18.8110   25.6998 S   0  0  0  0  0  0  0  0  0  0  0  0
   10.6048  -16.2837   25.5578 C   0  0  0  0  0  0  0  0  0  0  0  0
   11.3132  -15.2251   25.6838 O   0  0  0  0  0  0  0  0  0  0  0  0
    6.3590  -11.3950   24.9964 O   0  0  0  0  0  0  0  0  0  0  0  0
    6.8816  -12.4002   25.8212 C   0  0  0  0  0  0  0  0  0  0  0  0
    6.3051  -13.6485   25.8984 C   0  0  0  0  0  0  0  0  0  0  0  0
    6.8396  -14.6179   26.7173 C   0  0  0  0  0  0  0  0  0  0  0  0
    7.9789  -14.3747   27.4958 C   0  0  0  0  0  0  0  0  0  0  0  0
    8.5409  -15.4036   28.3914 C   0  0  0  0  0  0  0  0  0  0  0  0
    9.8806  -15.8517   27.9251 C   0  0  2  0  0  0  0  0  0  0  0  0
    9.8096  -16.5932   26.6743 N   0  0  0  0  0  0  0  0  0  0  0  0
   10.5813  -16.6800   28.9128 C   0  0  0  0  0  0  0  0  0  0  0  0
   10.8323  -17.8803   28.6507 O   0  0  0  0  0  0  0  0  0  0  0  0
    8.5627  -13.1205   27.4219 C   0  0  0  0  0  0  0  0  0  0  0  0
    8.0004  -12.1777   26.5926 C   0  0  0  0  0  0  0  0  0  0  0  0
   11.0096  -16.2405   30.1555 O   0  0  0  0  0  0  0  0  0  0  0  0
  2  3  1  0
  2  1  1  6
  4  3  1  0
  4  8  1  0
  5  4  2  0
  6  5  1  0
  6  7  1  0
  7  8  2  0
  9  2  1  0
 10  9  2  0
 11  9  1  0
 12 11  1  0
 12 13  1  6
 14 13  1  0
 15 24  1  0
 15 12  1  0
 16 15  2  0
 18 17  1  0
 19 18  2  0
 20 19  1  0
 21 20  2  0
 21 27  1  0
 22 21  1  0
 23 22  1  1
 23 24  1  0
 25 23  1  0
 25 29  1  0
 26 25  2  0
 27 28  2  0
 28 18  1  0
M  END
$$$$
