HCY.pdb
     RDKit          3D

 29 30  0  0  1  0  0  0  0  0999 V2000
    9.6464  -15.7624   14.2684 N   0  0  0  0  0  0  0  0  0  0  0  0
    8.8013  -16.3184   15.3054 C   0  0  1  0  0  0  0  0  0  0  0  0
    8.9098  -17.8384   15.2343 C   0  0  0  0  0  0  0  0  0  0  0  0
    8.2164  -18.3077   14.0055 C   0  0  0  0  0  0  0  0  0  0  0  0
    6.9002  -18.0775   13.6851 C   0  0  0  0  0  0  0  0  0  0  0  0
    6.6254  -18.6678   12.4855 N   0  0  0  0  0  0  0  0  0  0  0  0
    7.7539  -19.2537   12.0713 C   0  0  0  0  0  0  0  0  0  0  0  0
    8.7229  -19.0301   13.0047 N   0  0  0  0  0  0  0  0  0  0  0  0
    9.2174  -15.7981   16.6045 C   0  0  0  0  0  0  0  0  0  0  0  0
   10.4381  -15.8408   16.9293 O   0  0  0  0  0  0  0  0  0  0  0  0
    8.3134  -15.2274   17.5564 N   0  0  0  0  0  0  0  0  0  0  0  0
    8.7871  -14.8079   18.8351 C   0  0  1  0  0  0  0  0  0  0  0  0
    7.6322  -14.0094   19.4900 C   0  0  0  0  0  0  0  0  0  0  0  0
    7.3468  -12.5689   18.4333 S   0  0  0  0  0  0  0  0  0  0  0  0
    9.2301  -15.8738   19.7371 C   0  0  0  0  0  0  0  0  0  0  0  0
    8.7597  -17.0584   19.6179 O   0  0  0  0  0  0  0  0  0  0  0  0
   15.3804  -21.4701   21.5162 O   0  0  0  0  0  0  0  0  0  0  0  0
   14.5430  -20.4152   21.1287 C   0  0  0  0  0  0  0  0  0  0  0  0
   15.0321  -19.1501   20.8910 C   0  0  0  0  0  0  0  0  0  0  0  0
   14.1867  -18.1317   20.5112 C   0  0  0  0  0  0  0  0  0  0  0  0
   12.8103  -18.3408   20.3535 C   0  0  0  0  0  0  0  0  0  0  0  0
   11.8982  -17.2468   19.9688 C   0  0  0  0  0  0  0  0  0  0  0  0
   11.1208  -16.7557   21.1381 C   0  0  2  0  0  0  0  0  0  0  0  0
   10.1689  -15.7172   20.7708 N   0  0  0  0  0  0  0  0  0  0  0  0
   11.9735  -16.2394   22.2146 C   0  0  0  0  0  0  0  0  0  0  0  0
   12.8447  -16.9815   22.7269 O   0  0  0  0  0  0  0  0  0  0  0  0
   12.3131  -19.6117   20.5916 C   0  0  0  0  0  0  0  0  0  0  0  0
   13.1884  -20.6038   20.9693 C   0  0  0  0  0  0  0  0  0  0  0  0
   11.9033  -14.9571   22.7360 O   0  0  0  0  0  0  0  0  0  0  0  0
  2  3  1  0
  2  1  1  6
  4  3  1  0
  4  8  1  0
  5  4  2  0
  6  5  1  0
  6  7  1  0
  7  8  2  0
  9  2  1  0
 10  9  2  0
 11  9  1  0
 12 11  1  0
 12 13  1  1
 14 13  1  0
 15 24  1  0
 15 12  1  0
 16 15  2  0
 18 17  1  0
 19 18  2  0
 20 19  1  0
 21 20  2  0
 21 27  1  0
 22 21  1  0
 23 22  1  6
 23 24  1  0
 25 23  1  0
 25 29  1  0
 26 25  2  0
 27 28  2  0
 28 18  1  0
M  END
$$$$
