HCY.pdb
     RDKit          3D

 29 30  0  0  1  0  0  0  0  0999 V2000
   11.1656  -16.2710   18.2749 N   0  0  0  0  0  0  0  0  0  0  0  0
   11.4551  -15.1007   19.0783 C   0  0  1  0  0  0  0  0  0  0  0  0
   11.4136  -13.8812   18.1627 C   0  0  0  0  0  0  0  0  0  0  0  0
   10.0757  -13.8166   17.5171 C   0  0  0  0  0  0  0  0  0  0  0  0
    9.6988  -14.4817   16.3754 C   0  0  0  0  0  0  0  0  0  0  0  0
    8.4014  -14.1702   16.0878 N   0  0  0  0  0  0  0  0  0  0  0  0
    7.9832  -13.3258   17.0367 C   0  0  0  0  0  0  0  0  0  0  0  0
    9.0112  -13.1135   17.9075 N   0  0  0  0  0  0  0  0  0  0  0  0
   10.4862  -15.0043   20.1660 C   0  0  0  0  0  0  0  0  0  0  0  0
   10.5616  -14.0425   20.9826 O   0  0  0  0  0  0  0  0  0  0  0  0
    9.4299  -15.9481   20.3727 N   0  0  0  0  0  0  0  0  0  0  0  0
    8.5844  -15.8409   21.5169 C   0  0  1  0  0  0  0  0  0  0  0  0
    7.5944  -17.0304   21.4434 C   0  0  0  0  0  0  0  0  0  0  0  0
    8.5578  -18.5171   21.8106 S   0  0  0  0  0  0  0  0  0  0  0  0
    9.2605  -15.8347   22.8165 C   0  0  0  0  0  0  0  0  0  0  0  0
   10.4621  -16.2630   22.9220 O   0  0  0  0  0  0  0  0  0  0  0  0
   11.2009  -15.5527   31.3999 O   0  0  0  0  0  0  0  0  0  0  0  0
   10.5548  -15.3785   30.1686 C   0  0  0  0  0  0  0  0  0  0  0  0
    9.7302  -16.3456   29.6384 C   0  0  0  0  0  0  0  0  0  0  0  0
    9.1077  -16.1482   28.4262 C   0  0  0  0  0  0  0  0  0  0  0  0
    9.2870  -14.9680   27.6926 C   0  0  0  0  0  0  0  0  0  0  0  0
    8.6396  -14.7625   26.3829 C   0  0  0  0  0  0  0  0  0  0  0  0
    9.3832  -15.4574   25.2981 C   0  0  2  0  0  0  0  0  0  0  0  0
    8.6925  -15.3804   24.0188 N   0  0  0  0  0  0  0  0  0  0  0  0
    9.6422  -16.8702   25.5976 C   0  0  0  0  0  0  0  0  0  0  0  0
   10.7691  -17.2184   26.0229 O   0  0  0  0  0  0  0  0  0  0  0  0
   10.1156  -13.9919   28.2214 C   0  0  0  0  0  0  0  0  0  0  0  0
   10.7204  -14.2250   29.4351 C   0  0  0  0  0  0  0  0  0  0  0  0
    8.7198  -17.8941   25.4499 O   0  0  0  0  0  0  0  0  0  0  0  0
  2  3  1  0
  2  1  1  6
  4  3  1  0
  4  8  1  0
  5  4  2  0
  6  5  1  0
  6  7  1  0
  7  8  2  0
  9  2  1  0
 10  9  2  0
 11  9  1  0
 12 11  1  0
 12 13  1  1
 14 13  1  0
 15 24  1  0
 15 12  1  0
 16 15  2  0
 18 17  1  0
 19 18  2  0
 20 19  1  0
 21 20  2  0
 21 27  1  0
 22 21  1  0
 23 22  1  1
 23 24  1  0
 25 23  1  0
 25 29  1  0
 26 25  2  0
 27 28  2  0
 28 18  1  0
M  END
$$$$
