HCY.pdb
     RDKit          3D

 29 30  0  0  1  0  0  0  0  0999 V2000
    8.9943  -15.8480   20.5222 N   0  0  0  0  0  0  0  0  0  0  0  0
    8.0464  -14.9922   21.2063 C   0  0  1  0  0  0  0  0  0  0  0  0
    6.8454  -14.7935   20.2868 C   0  0  0  0  0  0  0  0  0  0  0  0
    7.3127  -14.1635   19.0236 C   0  0  0  0  0  0  0  0  0  0  0  0
    8.2145  -13.1317   18.9231 C   0  0  0  0  0  0  0  0  0  0  0  0
    8.3886  -12.8209   17.6055 N   0  0  0  0  0  0  0  0  0  0  0  0
    7.6067  -13.6475   16.9029 C   0  0  0  0  0  0  0  0  0  0  0  0
    6.9515  -14.4659   17.7753 N   0  0  0  0  0  0  0  0  0  0  0  0
    7.6695  -15.6013   22.4784 C   0  0  0  0  0  0  0  0  0  0  0  0
    6.8263  -15.0212   23.2199 O   0  0  0  0  0  0  0  0  0  0  0  0
    8.2028  -16.8425   22.9519 N   0  0  0  0  0  0  0  0  0  0  0  0
    7.9248  -17.2840   24.2798 C   0  0  1  0  0  0  0  0  0  0  0  0
    7.8676  -18.8312   24.2244 C   0  0  0  0  0  0  0  0  0  0  0  0
    7.4753  -19.3858   25.9012 S   0  0  0  0  0  0  0  0  0  0  0  0
    8.8744  -16.8569   25.3103 C   0  0  0  0  0  0  0  0  0  0  0  0
   10.1347  -16.9505   25.1066 O   0  0  0  0  0  0  0  0  0  0  0  0
    6.3782  -10.7508   25.3205 O   0  0  0  0  0  0  0  0  0  0  0  0
    6.9959  -11.7494   26.0856 C   0  0  0  0  0  0  0  0  0  0  0  0
    6.3086  -12.4567   27.0467 C   0  0  0  0  0  0  0  0  0  0  0  0
    6.9404  -13.4329   27.7842 C   0  0  0  0  0  0  0  0  0  0  0  0
    8.2928  -13.7414   27.5875 C   0  0  0  0  0  0  0  0  0  0  0  0
    8.9788  -14.7710   28.3914 C   0  0  0  0  0  0  0  0  0  0  0  0
    9.5044  -15.8655   27.5319 C   0  0  2  0  0  0  0  0  0  0  0  0
    8.5209  -16.3263   26.5625 N   0  0  0  0  0  0  0  0  0  0  0  0
    9.9692  -17.0239   28.3030 C   0  0  0  0  0  0  0  0  0  0  0  0
    9.4715  -18.1542   28.0867 O   0  0  0  0  0  0  0  0  0  0  0  0
    8.9889  -13.0327   26.6219 C   0  0  0  0  0  0  0  0  0  0  0  0
    8.3240  -12.0648   25.9050 C   0  0  0  0  0  0  0  0  0  0  0  0
   10.9467  -16.9825   29.2848 O   0  0  0  0  0  0  0  0  0  0  0  0
  2  3  1  0
  2  1  1  6
  4  3  1  0
  4  8  1  0
  5  4  2  0
  6  5  1  0
  6  7  1  0
  7  8  2  0
  9  2  1  0
 10  9  2  0
 11  9  1  0
 12 11  1  0
 12 13  1  6
 14 13  1  0
 15 24  1  0
 15 12  1  0
 16 15  2  0
 18 17  1  0
 19 18  2  0
 20 19  1  0
 21 20  2  0
 21 27  1  0
 22 21  1  0
 23 22  1  1
 23 24  1  0
 25 23  1  0
 25 29  1  0
 26 25  2  0
 27 28  2  0
 28 18  1  0
M  END
$$$$
