HCY.pdb
     RDKit          3D

 29 30  0  0  1  0  0  0  0  0999 V2000
    7.6108  -19.8807   17.9832 N   0  0  0  0  0  0  0  0  0  0  0  0
    8.5974  -19.3741   18.9152 C   0  0  1  0  0  0  0  0  0  0  0  0
    9.3333  -18.2215   18.2388 C   0  0  0  0  0  0  0  0  0  0  0  0
   10.2062  -18.7763   17.1706 C   0  0  0  0  0  0  0  0  0  0  0  0
   11.0720  -19.8347   17.3060 C   0  0  0  0  0  0  0  0  0  0  0  0
   11.7029  -20.0474   16.1145 N   0  0  0  0  0  0  0  0  0  0  0  0
   11.2346  -19.1348   15.2565 C   0  0  0  0  0  0  0  0  0  0  0  0
   10.3200  -18.3607   15.9079 N   0  0  0  0  0  0  0  0  0  0  0  0
    7.9348  -18.9554   20.1469 C   0  0  0  0  0  0  0  0  0  0  0  0
    7.3723  -17.8247   20.1969 O   0  0  0  0  0  0  0  0  0  0  0  0
    7.8768  -19.7606   21.3290 N   0  0  0  0  0  0  0  0  0  0  0  0
    7.3058  -19.2374   22.5273 C   0  0  1  0  0  0  0  0  0  0  0  0
    6.6642  -20.4378   23.2675 C   0  0  0  0  0  0  0  0  0  0  0  0
    5.0477  -20.7035   22.4996 S   0  0  0  0  0  0  0  0  0  0  0  0
    8.2266  -18.5338   23.4233 C   0  0  0  0  0  0  0  0  0  0  0  0
    9.4207  -18.9639   23.5907 O   0  0  0  0  0  0  0  0  0  0  0  0
   11.2149  -13.6823   30.1714 O   0  0  0  0  0  0  0  0  0  0  0  0
   10.5312  -14.1200   29.0291 C   0  0  0  0  0  0  0  0  0  0  0  0
   11.1724  -14.2999   27.8237 C   0  0  0  0  0  0  0  0  0  0  0  0
   10.4760  -14.7311   26.7169 C   0  0  0  0  0  0  0  0  0  0  0  0
    9.1023  -15.0009   26.7732 C   0  0  0  0  0  0  0  0  0  0  0  0
    8.3485  -15.4413   25.5839 C   0  0  0  0  0  0  0  0  0  0  0  0
    8.8412  -16.7544   25.0882 C   0  0  2  0  0  0  0  0  0  0  0  0
    7.9138  -17.3740   24.1525 N   0  0  0  0  0  0  0  0  0  0  0  0
    9.1107  -17.7085   26.1697 C   0  0  0  0  0  0  0  0  0  0  0  0
   10.2758  -17.8261   26.6181 O   0  0  0  0  0  0  0  0  0  0  0  0
    8.4523  -14.8215   27.9834 C   0  0  0  0  0  0  0  0  0  0  0  0
    9.1814  -14.3895   29.0673 C   0  0  0  0  0  0  0  0  0  0  0  0
    8.1593  -18.5213   26.7656 O   0  0  0  0  0  0  0  0  0  0  0  0
  2  3  1  0
  2  1  1  6
  4  3  1  0
  4  8  1  0
  5  4  2  0
  6  5  1  0
  6  7  1  0
  7  8  2  0
  9  2  1  0
 10  9  2  0
 11  9  1  0
 12 11  1  0
 12 13  1  1
 14 13  1  0
 15 24  1  0
 15 12  1  0
 16 15  2  0
 18 17  1  0
 19 18  2  0
 20 19  1  0
 21 20  2  0
 21 27  1  0
 22 21  1  0
 23 22  1  1
 23 24  1  0
 25 23  1  0
 25 29  1  0
 26 25  2  0
 27 28  2  0
 28 18  1  0
M  END
$$$$
