HCY.pdb
     RDKit          3D

 29 30  0  0  1  0  0  0  0  0999 V2000
    7.8753  -18.4323   17.9746 N   0  0  0  0  0  0  0  0  0  0  0  0
    8.8882  -18.3195   19.0042 C   0  0  1  0  0  0  0  0  0  0  0  0
   10.0221  -17.4595   18.4545 C   0  0  0  0  0  0  0  0  0  0  0  0
   10.8093  -18.2710   17.4888 C   0  0  0  0  0  0  0  0  0  0  0  0
   11.8341  -19.1300   17.8051 C   0  0  0  0  0  0  0  0  0  0  0  0
   12.3159  -19.6884   16.6567 N   0  0  0  0  0  0  0  0  0  0  0  0
   11.6004  -19.1824   15.6466 C   0  0  0  0  0  0  0  0  0  0  0  0
   10.6810  -18.3166   16.1616 N   0  0  0  0  0  0  0  0  0  0  0  0
    8.2970  -17.7446   20.2088 C   0  0  0  0  0  0  0  0  0  0  0  0
    7.8464  -16.5642   20.1779 O   0  0  0  0  0  0  0  0  0  0  0  0
    8.1894  -18.4466   21.4518 N   0  0  0  0  0  0  0  0  0  0  0  0
    7.6709  -17.7880   22.6063 C   0  0  1  0  0  0  0  0  0  0  0  0
    6.6753  -18.7759   23.2644 C   0  0  0  0  0  0  0  0  0  0  0  0
    6.1048  -17.9837   24.7875 S   0  0  0  0  0  0  0  0  0  0  0  0
    8.6604  -17.3468   23.5923 C   0  0  0  0  0  0  0  0  0  0  0  0
    9.6215  -18.1201   23.9342 O   0  0  0  0  0  0  0  0  0  0  0  0
    4.9635  -11.9696   27.2644 O   0  0  0  0  0  0  0  0  0  0  0  0
    6.1629  -12.5181   26.7905 C   0  0  0  0  0  0  0  0  0  0  0  0
    7.2508  -12.7051   27.6140 C   0  0  0  0  0  0  0  0  0  0  0  0
    8.4174  -13.2464   27.1220 C   0  0  0  0  0  0  0  0  0  0  0  0
    8.5418  -13.6240   25.7785 C   0  0  0  0  0  0  0  0  0  0  0  0
    9.7976  -14.1832   25.2427 C   0  0  0  0  0  0  0  0  0  0  0  0
    9.7230  -15.6644   25.1273 C   0  0  2  0  0  0  0  0  0  0  0  0
    8.6599  -16.0949   24.2307 N   0  0  0  0  0  0  0  0  0  0  0  0
    9.5320  -16.3292   26.4212 C   0  0  0  0  0  0  0  0  0  0  0  0
    8.4719  -16.9603   26.6447 O   0  0  0  0  0  0  0  0  0  0  0  0
    7.4505  -13.4379   24.9458 C   0  0  0  0  0  0  0  0  0  0  0  0
    6.3018  -12.8944   25.4733 C   0  0  0  0  0  0  0  0  0  0  0  0
   10.4517  -16.3252   27.4581 O   0  0  0  0  0  0  0  0  0  0  0  0
  2  3  1  0
  2  1  1  6
  4  3  1  0
  4  8  1  0
  5  4  2  0
  6  5  1  0
  6  7  1  0
  7  8  2  0
  9  2  1  0
 10  9  2  0
 11  9  1  0
 12 11  1  0
 12 13  1  1
 14 13  1  0
 15 24  1  0
 15 12  1  0
 16 15  2  0
 18 17  1  0
 19 18  2  0
 20 19  1  0
 21 20  2  0
 21 27  1  0
 22 21  1  0
 23 22  1  1
 23 24  1  0
 25 23  1  0
 25 29  1  0
 26 25  2  0
 27 28  2  0
 28 18  1  0
M  END
$$$$
