HCY.pdb
     RDKit          3D

 29 30  0  0  1  0  0  0  0  0999 V2000
    9.8454  -14.0457   20.8672 N   0  0  0  0  0  0  0  0  0  0  0  0
    8.5425  -13.9276   21.4896 C   0  0  1  0  0  0  0  0  0  0  0  0
    7.6261  -14.9732   20.8614 C   0  0  0  0  0  0  0  0  0  0  0  0
    7.5305  -14.7063   19.4018 C   0  0  0  0  0  0  0  0  0  0  0  0
    8.2691  -13.7834   18.7011 C   0  0  0  0  0  0  0  0  0  0  0  0
    7.8985  -13.8227   17.3881 N   0  0  0  0  0  0  0  0  0  0  0  0
    6.9460  -14.7549   17.2790 C   0  0  0  0  0  0  0  0  0  0  0  0
    6.7254  -15.2915   18.5134 N   0  0  0  0  0  0  0  0  0  0  0  0
    8.6734  -14.1076   22.9324 C   0  0  0  0  0  0  0  0  0  0  0  0
    9.5375  -14.9125   23.3828 O   0  0  0  0  0  0  0  0  0  0  0  0
    7.8701  -13.4149   23.8938 N   0  0  0  0  0  0  0  0  0  0  0  0
    8.1535  -13.5351   25.2869 C   0  0  1  0  0  0  0  0  0  0  0  0
    7.6081  -12.2494   25.9576 C   0  0  0  0  0  0  0  0  0  0  0  0
    5.8139  -12.4546   26.0666 S   0  0  0  0  0  0  0  0  0  0  0  0
    7.6032  -14.7173   25.9544 C   0  0  0  0  0  0  0  0  0  0  0  0
    6.4859  -15.2129   25.5740 O   0  0  0  0  0  0  0  0  0  0  0  0
    7.9111  -23.2115   27.1164 O   0  0  0  0  0  0  0  0  0  0  0  0
    7.9620  -21.8350   26.8577 C   0  0  0  0  0  0  0  0  0  0  0  0
    6.8197  -21.0719   26.7616 C   0  0  0  0  0  0  0  0  0  0  0  0
    6.8987  -19.7211   26.5066 C   0  0  0  0  0  0  0  0  0  0  0  0
    8.1314  -19.0771   26.3367 C   0  0  0  0  0  0  0  0  0  0  0  0
    8.2189  -17.6343   26.0409 C   0  0  0  0  0  0  0  0  0  0  0  0
    8.0194  -16.8185   27.2687 C   0  0  2  0  0  0  0  0  0  0  0  0
    8.2120  -15.3965   27.0233 N   0  0  0  0  0  0  0  0  0  0  0  0
    8.9013  -17.2196   28.3704 C   0  0  0  0  0  0  0  0  0  0  0  0
   10.0432  -16.7111   28.4687 O   0  0  0  0  0  0  0  0  0  0  0  0
    9.2836  -19.8402   26.4322 C   0  0  0  0  0  0  0  0  0  0  0  0
    9.1650  -21.1869   26.6881 C   0  0  0  0  0  0  0  0  0  0  0  0
    8.5751  -18.1429   29.3513 O   0  0  0  0  0  0  0  0  0  0  0  0
  2  3  1  0
  2  1  1  6
  4  3  1  0
  4  8  1  0
  5  4  2  0
  6  5  1  0
  6  7  1  0
  7  8  2  0
  9  2  1  0
 10  9  2  0
 11  9  1  0
 12 11  1  0
 12 13  1  1
 14 13  1  0
 15 24  1  0
 15 12  1  0
 16 15  2  0
 18 17  1  0
 19 18  2  0
 20 19  1  0
 21 20  2  0
 21 27  1  0
 22 21  1  0
 23 22  1  6
 23 24  1  0
 25 23  1  0
 25 29  1  0
 26 25  2  0
 27 28  2  0
 28 18  1  0
M  END
$$$$
