HCY.pdb
     RDKit          3D

 29 30  0  0  1  0  0  0  0  0999 V2000
    8.2103  -17.8000   17.6475 N   0  0  0  0  0  0  0  0  0  0  0  0
    9.0718  -18.0576   18.7834 C   0  0  1  0  0  0  0  0  0  0  0  0
   10.4664  -17.5430   18.4405 C   0  0  0  0  0  0  0  0  0  0  0  0
   11.2723  -18.6730   17.9072 C   0  0  0  0  0  0  0  0  0  0  0  0
   11.2529  -19.1370   16.6140 C   0  0  0  0  0  0  0  0  0  0  0  0
   12.1190  -20.1863   16.5056 N   0  0  0  0  0  0  0  0  0  0  0  0
   12.6650  -20.3680   17.7128 C   0  0  0  0  0  0  0  0  0  0  0  0
   12.1434  -19.4399   18.5653 N   0  0  0  0  0  0  0  0  0  0  0  0
    8.5224  -17.4070   19.9693 C   0  0  0  0  0  0  0  0  0  0  0  0
    8.0159  -16.2536   19.8674 O   0  0  0  0  0  0  0  0  0  0  0  0
    8.5174  -18.0041   21.2703 N   0  0  0  0  0  0  0  0  0  0  0  0
    7.9090  -17.3272   22.3691 C   0  0  1  0  0  0  0  0  0  0  0  0
    6.7126  -18.2042   22.8160 C   0  0  0  0  0  0  0  0  0  0  0  0
    6.0311  -17.4183   24.2962 S   0  0  0  0  0  0  0  0  0  0  0  0
    8.7795  -17.0507   23.5144 C   0  0  0  0  0  0  0  0  0  0  0  0
    9.5737  -17.9526   23.9553 O   0  0  0  0  0  0  0  0  0  0  0  0
    4.9763  -12.0804   27.5756 O   0  0  0  0  0  0  0  0  0  0  0  0
    6.1963  -12.5872   27.1076 C   0  0  0  0  0  0  0  0  0  0  0  0
    7.2219  -12.9173   27.9652 C   0  0  0  0  0  0  0  0  0  0  0  0
    8.4104  -13.4135   27.4781 C   0  0  0  0  0  0  0  0  0  0  0  0
    8.6204  -13.5999   26.1055 C   0  0  0  0  0  0  0  0  0  0  0  0
    9.9006  -14.1100   25.5785 C   0  0  0  0  0  0  0  0  0  0  0  0
    9.8117  -15.5589   25.2535 C   0  0  2  0  0  0  0  0  0  0  0  0
    8.8331  -15.8313   24.2107 N   0  0  0  0  0  0  0  0  0  0  0  0
    9.4847  -16.3867   26.4199 C   0  0  0  0  0  0  0  0  0  0  0  0
    8.4158  -17.0418   26.4365 O   0  0  0  0  0  0  0  0  0  0  0  0
    7.5919  -13.2692   25.2383 C   0  0  0  0  0  0  0  0  0  0  0  0
    6.4189  -12.7763   25.7619 C   0  0  0  0  0  0  0  0  0  0  0  0
   10.2802  -16.5177   27.5474 O   0  0  0  0  0  0  0  0  0  0  0  0
  2  3  1  0
  2  1  1  6
  4  3  1  0
  4  8  1  0
  5  4  2  0
  6  5  1  0
  6  7  1  0
  7  8  2  0
  9  2  1  0
 10  9  2  0
 11  9  1  0
 12 11  1  0
 12 13  1  1
 14 13  1  0
 15 24  1  0
 15 12  1  0
 16 15  2  0
 18 17  1  0
 19 18  2  0
 20 19  1  0
 21 20  2  0
 21 27  1  0
 22 21  1  0
 23 22  1  1
 23 24  1  0
 25 23  1  0
 25 29  1  0
 26 25  2  0
 27 28  2  0
 28 18  1  0
M  END
$$$$
