HCY.pdb
     RDKit          3D

 29 30  0  0  1  0  0  0  0  0999 V2000
    9.4903  -20.5637   17.3902 N   0  0  0  0  0  0  0  0  0  0  0  0
    9.4817  -19.2100   17.9062 C   0  0  1  0  0  0  0  0  0  0  0  0
    8.2833  -19.0715   18.8399 C   0  0  0  0  0  0  0  0  0  0  0  0
    7.0401  -19.2865   18.0531 C   0  0  0  0  0  0  0  0  0  0  0  0
    6.8452  -18.9300   16.7405 C   0  0  0  0  0  0  0  0  0  0  0  0
    5.5803  -19.2823   16.3678 N   0  0  0  0  0  0  0  0  0  0  0  0
    5.0026  -19.8474   17.4332 C   0  0  0  0  0  0  0  0  0  0  0  0
    5.8999  -19.8471   18.4604 N   0  0  0  0  0  0  0  0  0  0  0  0
   10.7439  -18.9404   18.5886 C   0  0  0  0  0  0  0  0  0  0  0  0
   11.1042  -19.6828   19.5458 O   0  0  0  0  0  0  0  0  0  0  0  0
   11.6223  -17.8666   18.2356 N   0  0  0  0  0  0  0  0  0  0  0  0
   12.8464  -17.6774   18.9436 C   0  0  1  0  0  0  0  0  0  0  0  0
   13.8752  -17.1565   17.9090 C   0  0  0  0  0  0  0  0  0  0  0  0
   14.0946  -18.4826   16.6981 S   0  0  0  0  0  0  0  0  0  0  0  0
   12.7903  -16.7691   20.0915 C   0  0  0  0  0  0  0  0  0  0  0  0
   11.9680  -15.7880   20.0999 O   0  0  0  0  0  0  0  0  0  0  0  0
   11.5206  -21.2995   25.3513 O   0  0  0  0  0  0  0  0  0  0  0  0
   11.6948  -20.0207   24.8050 C   0  0  0  0  0  0  0  0  0  0  0  0
   12.5068  -19.0815   25.4007 C   0  0  0  0  0  0  0  0  0  0  0  0
   12.6601  -17.8322   24.8422 C   0  0  0  0  0  0  0  0  0  0  0  0
   12.0028  -17.4718   23.6585 C   0  0  0  0  0  0  0  0  0  0  0  0
   12.1469  -16.1268   23.0695 C   0  0  0  0  0  0  0  0  0  0  0  0
   13.4570  -15.9763   22.3812 C   0  0  2  0  0  0  0  0  0  0  0  0
   13.5886  -16.8746   21.2432 N   0  0  0  0  0  0  0  0  0  0  0  0
   14.5999  -16.1944   23.2750 C   0  0  0  0  0  0  0  0  0  0  0  0
   15.3709  -17.1622   23.0725 O   0  0  0  0  0  0  0  0  0  0  0  0
   11.1847  -18.4130   23.0552 C   0  0  0  0  0  0  0  0  0  0  0  0
   11.0563  -19.6505   23.6426 C   0  0  0  0  0  0  0  0  0  0  0  0
   14.9192  -15.3972   24.3629 O   0  0  0  0  0  0  0  0  0  0  0  0
  2  3  1  0
  2  1  1  1
  4  3  1  0
  4  8  1  0
  5  4  2  0
  6  5  1  0
  6  7  1  0
  7  8  2  0
  9  2  1  0
 10  9  2  0
 11  9  1  0
 12 11  1  0
 12 13  1  6
 14 13  1  0
 15 24  1  0
 15 12  1  0
 16 15  2  0
 18 17  1  0
 19 18  2  0
 20 19  1  0
 21 20  2  0
 21 27  1  0
 22 21  1  0
 23 22  1  1
 23 24  1  0
 25 23  1  0
 25 29  1  0
 26 25  2  0
 27 28  2  0
 28 18  1  0
M  END
$$$$
