HCY.pdb
     RDKit          3D

 29 30  0  0  1  0  0  0  0  0999 V2000
    9.5964  -16.9932   16.4337 N   0  0  0  0  0  0  0  0  0  0  0  0
    8.8787  -17.5507   17.5619 C   0  0  1  0  0  0  0  0  0  0  0  0
    9.4182  -18.9554   17.8133 C   0  0  0  0  0  0  0  0  0  0  0  0
    8.7273  -19.9011   16.8972 C   0  0  0  0  0  0  0  0  0  0  0  0
    7.3754  -20.1441   16.8594 C   0  0  0  0  0  0  0  0  0  0  0  0
    7.1185  -21.0753   15.8952 N   0  0  0  0  0  0  0  0  0  0  0  0
    8.2929  -21.4028   15.3460 C   0  0  0  0  0  0  0  0  0  0  0  0
    9.2726  -20.6817   15.9627 N   0  0  0  0  0  0  0  0  0  0  0  0
    9.0458  -16.6821   18.7234 C   0  0  0  0  0  0  0  0  0  0  0  0
   10.2100  -16.3732   19.1065 O   0  0  0  0  0  0  0  0  0  0  0  0
    7.9525  -16.1424   19.4735 N   0  0  0  0  0  0  0  0  0  0  0  0
    8.1891  -15.4913   20.7207 C   0  0  1  0  0  0  0  0  0  0  0  0
    6.8248  -14.9208   21.1830 C   0  0  0  0  0  0  0  0  0  0  0  0
    7.1297  -14.0890   22.7605 S   0  0  0  0  0  0  0  0  0  0  0  0
    8.7663  -16.3227   21.7798 C   0  0  0  0  0  0  0  0  0  0  0  0
    8.3614  -17.5249   21.9507 O   0  0  0  0  0  0  0  0  0  0  0  0
   13.6734  -19.8119   19.2667 O   0  0  0  0  0  0  0  0  0  0  0  0
   13.1966  -19.0638   20.3516 C   0  0  0  0  0  0  0  0  0  0  0  0
   12.9509  -17.7127   20.2495 C   0  0  0  0  0  0  0  0  0  0  0  0
   12.4824  -17.0017   21.3316 C   0  0  0  0  0  0  0  0  0  0  0  0
   12.2399  -17.6189   22.5659 C   0  0  0  0  0  0  0  0  0  0  0  0
   11.7595  -16.8560   23.7338 C   0  0  0  0  0  0  0  0  0  0  0  0
   10.2752  -16.7586   23.7416 C   0  0  2  0  0  0  0  0  0  0  0  0
    9.7725  -15.9109   22.6701 N   0  0  0  0  0  0  0  0  0  0  0  0
    9.7424  -16.2580   25.0137 C   0  0  0  0  0  0  0  0  0  0  0  0
   10.0814  -16.8079   26.0884 O   0  0  0  0  0  0  0  0  0  0  0  0
   12.4855  -18.9779   22.6741 C   0  0  0  0  0  0  0  0  0  0  0  0
   12.9532  -19.6548   21.5712 C   0  0  0  0  0  0  0  0  0  0  0  0
    8.8670  -15.1911   25.1418 O   0  0  0  0  0  0  0  0  0  0  0  0
  2  3  1  0
  2  1  1  6
  4  3  1  0
  4  8  1  0
  5  4  2  0
  6  5  1  0
  6  7  1  0
  7  8  2  0
  9  2  1  0
 10  9  2  0
 11  9  1  0
 12 11  1  0
 12 13  1  1
 14 13  1  0
 15 24  1  0
 15 12  1  0
 16 15  2  0
 18 17  1  0
 19 18  2  0
 20 19  1  0
 21 20  2  0
 21 27  1  0
 22 21  1  0
 23 22  1  1
 23 24  1  0
 25 23  1  0
 25 29  1  0
 26 25  2  0
 27 28  2  0
 28 18  1  0
M  END
$$$$
