HCY.pdb
     RDKit          3D

 29 30  0  0  1  0  0  0  0  0999 V2000
    7.9207  -27.3032   25.0199 N   0  0  0  0  0  0  0  0  0  0  0  0
    8.2489  -25.9187   25.2923 C   0  0  1  0  0  0  0  0  0  0  0  0
    6.9441  -25.1307   25.3545 C   0  0  0  0  0  0  0  0  0  0  0  0
    6.3441  -25.0964   23.9944 C   0  0  0  0  0  0  0  0  0  0  0  0
    7.0370  -25.0489   22.8088 C   0  0  0  0  0  0  0  0  0  0  0  0
    6.1465  -25.0229   21.7748 N   0  0  0  0  0  0  0  0  0  0  0  0
    4.9226  -25.0537   22.3129 C   0  0  0  0  0  0  0  0  0  0  0  0
    5.0500  -25.0985   23.6700 N   0  0  0  0  0  0  0  0  0  0  0  0
    9.0025  -25.8328   26.5398 C   0  0  0  0  0  0  0  0  0  0  0  0
    8.6630  -26.5518   27.5222 O   0  0  0  0  0  0  0  0  0  0  0  0
   10.1285  -24.9691   26.7278 N   0  0  0  0  0  0  0  0  0  0  0  0
   10.7848  -24.9095   27.9932 C   0  0  1  0  0  0  0  0  0  0  0  0
   12.2710  -25.2617   27.7332 C   0  0  0  0  0  0  0  0  0  0  0  0
   12.9350  -23.9335   26.6997 S   0  0  0  0  0  0  0  0  0  0  0  0
   10.6925  -23.6324   28.7049 C   0  0  0  0  0  0  0  0  0  0  0  0
   10.2891  -22.5810   28.0963 O   0  0  0  0  0  0  0  0  0  0  0  0
    6.7679  -25.4511   34.3832 O   0  0  0  0  0  0  0  0  0  0  0  0
    7.4301  -24.5375   33.5520 C   0  0  0  0  0  0  0  0  0  0  0  0
    7.8819  -23.3243   34.0217 C   0  0  0  0  0  0  0  0  0  0  0  0
    8.5298  -22.4453   33.1829 C   0  0  0  0  0  0  0  0  0  0  0  0
    8.7522  -22.7476   31.8330 C   0  0  0  0  0  0  0  0  0  0  0  0
    9.4258  -21.7987   30.9260 C   0  0  0  0  0  0  0  0  0  0  0  0
   10.8563  -22.1586   30.7338 C   0  0  2  0  0  0  0  0  0  0  0  0
   11.0173  -23.4380   30.0582 N   0  0  0  0  0  0  0  0  0  0  0  0
   11.6077  -22.2047   31.9931 C   0  0  0  0  0  0  0  0  0  0  0  0
   11.5910  -21.2151   32.7629 O   0  0  0  0  0  0  0  0  0  0  0  0
    8.2996  -23.9667   31.3554 C   0  0  0  0  0  0  0  0  0  0  0  0
    7.6567  -24.8190   32.2233 C   0  0  0  0  0  0  0  0  0  0  0  0
   12.3615  -23.2836   32.4277 O   0  0  0  0  0  0  0  0  0  0  0  0
  2  3  1  0
  2  1  1  1
  4  3  1  0
  4  8  1  0
  5  4  2  0
  6  5  1  0
  6  7  1  0
  7  8  2  0
  9  2  1  0
 10  9  2  0
 11  9  1  0
 12 11  1  0
 12 13  1  6
 14 13  1  0
 15 24  1  0
 15 12  1  0
 16 15  2  0
 18 17  1  0
 19 18  2  0
 20 19  1  0
 21 20  2  0
 21 27  1  0
 22 21  1  0
 23 22  1  1
 23 24  1  0
 25 23  1  0
 25 29  1  0
 26 25  2  0
 27 28  2  0
 28 18  1  0
M  END
$$$$
