ECR.pdb
     RDKit          3D

 27 26  0  0  1  0  0  0  0  0999 V2000
    8.0626  -12.5246   19.8878 N   0  0  0  0  0  0  0  0  0  0  0  0
    7.2903  -13.2017   20.9327 C   0  0  1  0  0  0  0  0  0  0  0  0
    6.7963  -14.5268   20.4195 C   0  0  0  0  0  0  0  0  0  0  0  0
    7.9165  -15.4796   20.1452 C   0  0  0  0  0  0  0  0  0  0  0  0
    7.4139  -16.7847   19.6247 C   0  0  0  0  0  0  0  0  0  0  0  0
    8.2020  -17.7195   19.4015 O   0  0  0  0  0  0  0  0  0  0  0  0
    8.0143  -13.2365   22.2019 C   0  0  0  0  0  0  0  0  0  0  0  0
    9.2670  -13.3612   22.1903 O   0  0  0  0  0  0  0  0  0  0  0  0
    6.0692  -16.9405   19.3951 O   0  0  0  0  0  0  0  0  0  0  0  0
    7.3621  -13.1347   23.4746 N   0  0  0  0  0  0  0  0  0  0  0  0
    8.1107  -13.3317   24.6624 C   0  0  1  0  0  0  0  0  0  0  0  0
    7.3769  -12.6353   25.7984 C   0  0  0  0  0  0  0  0  0  0  0  0
    5.6349  -13.1424   25.7978 S   0  0  0  0  0  0  0  0  0  0  0  0
    8.2344  -14.7646   25.0508 C   0  0  0  0  0  0  0  0  0  0  0  0
    7.3198  -15.5986   24.8153 O   0  0  0  0  0  0  0  0  0  0  0  0
   12.6747  -20.5135   21.9664 N   0  0  0  0  0  0  0  0  0  0  0  0
   12.6799  -21.1063   23.2581 C   0  0  0  0  0  0  0  0  0  0  0  0
   12.7750  -22.3832   23.4009 N   0  0  0  0  0  0  0  0  0  0  0  0
   12.5793  -20.3005   24.4318 N   0  0  0  0  0  0  0  0  0  0  0  0
   12.3307  -18.8909   24.3696 C   0  0  0  0  0  0  0  0  0  0  0  0
   11.0991  -18.5857   25.2324 C   0  0  0  0  0  0  0  0  0  0  0  0
   10.7860  -17.1310   25.0500 C   0  0  0  0  0  0  0  0  0  0  0  0
    9.6363  -16.6716   25.9181 C   0  0  2  0  0  0  0  0  0  0  0  0
    9.3946  -15.2592   25.7077 N   0  0  0  0  0  0  0  0  0  0  0  0
    9.8727  -16.9341   27.3481 C   0  0  0  0  0  0  0  0  0  0  0  0
   10.0328  -15.9625   28.1258 O   0  0  0  0  0  0  0  0  0  0  0  0
    9.9285  -18.2078   27.8874 O   0  0  0  0  0  0  0  0  0  0  0  0
  2  1  1  6
  2  3  1  0
  4  3  1  0
  5  4  1  0
  5  6  2  0
  7  2  1  0
  8  7  2  0
  9  5  1  0
 10  7  1  0
 11 12  1  1
 11 10  1  0
 12 13  1  0
 14 11  1  0
 14 15  2  0
 16 17  1  0
 17 18  2  0
 19 17  1  0
 20 19  1  0
 21 22  1  0
 21 20  1  0
 23 22  1  6
 23 24  1  0
 24 14  1  0
 25 23  1  0
 25 27  1  0
 26 25  2  0
M  END
$$$$
