ECR.pdb
     RDKit          3D

 27 26  0  0  1  0  0  0  0  0999 V2000
    8.1375  -12.7050   19.5486 N   0  0  0  0  0  0  0  0  0  0  0  0
    7.3745  -13.4144   20.5788 C   0  0  1  0  0  0  0  0  0  0  0  0
    6.8748  -14.7224   20.0288 C   0  0  0  0  0  0  0  0  0  0  0  0
    7.9930  -15.6554   19.6865 C   0  0  0  0  0  0  0  0  0  0  0  0
    7.4851  -17.0033   19.2963 C   0  0  0  0  0  0  0  0  0  0  0  0
    7.1746  -17.2422   18.1167 O   0  0  0  0  0  0  0  0  0  0  0  0
    8.1104  -13.4894   21.8394 C   0  0  0  0  0  0  0  0  0  0  0  0
    9.3668  -13.5643   21.8128 O   0  0  0  0  0  0  0  0  0  0  0  0
    7.3649  -17.9770   20.2567 O   0  0  0  0  0  0  0  0  0  0  0  0
    7.4658  -13.4820   23.1201 N   0  0  0  0  0  0  0  0  0  0  0  0
    8.2422  -13.6439   24.2953 C   0  0  1  0  0  0  0  0  0  0  0  0
    7.4884  -12.9957   25.4466 C   0  0  0  0  0  0  0  0  0  0  0  0
    5.8035  -13.6643   25.5227 S   0  0  0  0  0  0  0  0  0  0  0  0
    8.4510  -15.0700   24.6725 C   0  0  0  0  0  0  0  0  0  0  0  0
    7.5521  -15.9383   24.5128 O   0  0  0  0  0  0  0  0  0  0  0  0
   12.8845  -20.5395   22.8927 N   0  0  0  0  0  0  0  0  0  0  0  0
   13.3239  -21.0185   24.1568 C   0  0  0  0  0  0  0  0  0  0  0  0
   13.4057  -22.2820   24.3948 N   0  0  0  0  0  0  0  0  0  0  0  0
   13.6860  -20.1100   25.1962 N   0  0  0  0  0  0  0  0  0  0  0  0
   13.3254  -18.7239   25.1569 C   0  0  0  0  0  0  0  0  0  0  0  0
   11.8036  -18.6225   25.3244 C   0  0  0  0  0  0  0  0  0  0  0  0
   11.4564  -17.1643   25.3007 C   0  0  0  0  0  0  0  0  0  0  0  0
    9.9730  -16.9183   25.4608 C   0  0  2  0  0  0  0  0  0  0  0  0
    9.6788  -15.5187   25.2322 N   0  0  0  0  0  0  0  0  0  0  0  0
    9.4759  -17.3271   26.7857 C   0  0  0  0  0  0  0  0  0  0  0  0
    9.2784  -16.4475   27.6585 O   0  0  0  0  0  0  0  0  0  0  0  0
    9.2115  -18.6429   27.1249 O   0  0  0  0  0  0  0  0  0  0  0  0
  2  1  1  6
  2  3  1  0
  4  3  1  0
  5  4  1  0
  5  6  2  0
  7  2  1  0
  8  7  2  0
  9  5  1  0
 10  7  1  0
 11 12  1  1
 11 10  1  0
 12 13  1  0
 14 11  1  0
 14 15  2  0
 16 17  1  0
 17 18  2  0
 19 17  1  0
 20 19  1  0
 21 22  1  0
 21 20  1  0
 23 22  1  1
 23 24  1  0
 24 14  1  0
 25 23  1  0
 25 27  1  0
 26 25  2  0
M  END
$$$$
