ECR.pdb
     RDKit          3D

 27 26  0  0  1  0  0  0  0  0999 V2000
    7.8288  -18.1898   18.5277 N   0  0  0  0  0  0  0  0  0  0  0  0
    9.2065  -18.2108   19.0259 C   0  0  1  0  0  0  0  0  0  0  0  0
   10.1592  -18.3834   17.8745 C   0  0  0  0  0  0  0  0  0  0  0  0
   11.5746  -18.5437   18.3316 C   0  0  0  0  0  0  0  0  0  0  0  0
   12.5213  -18.6057   17.1796 C   0  0  0  0  0  0  0  0  0  0  0  0
   13.1854  -17.6063   16.8555 O   0  0  0  0  0  0  0  0  0  0  0  0
    9.4756  -17.0831   19.9158 C   0  0  0  0  0  0  0  0  0  0  0  0
   10.6359  -16.9311   20.3800 O   0  0  0  0  0  0  0  0  0  0  0  0
   12.6498  -19.7809   16.4814 O   0  0  0  0  0  0  0  0  0  0  0  0
    8.4727  -16.1297   20.2915 N   0  0  0  0  0  0  0  0  0  0  0  0
    8.7167  -15.2471   21.3739 C   0  0  1  0  0  0  0  0  0  0  0  0
    7.7338  -14.0913   21.2652 C   0  0  0  0  0  0  0  0  0  0  0  0
    6.0510  -14.6932   21.5777 S   0  0  0  0  0  0  0  0  0  0  0  0
    8.4923  -15.8727   22.7072 C   0  0  0  0  0  0  0  0  0  0  0  0
    7.8974  -16.9763   22.8320 O   0  0  0  0  0  0  0  0  0  0  0  0
    7.3903  -19.8174   29.0250 N   0  0  0  0  0  0  0  0  0  0  0  0
    7.7443  -20.4900   27.8240 C   0  0  0  0  0  0  0  0  0  0  0  0
    8.5844  -21.4667   27.8343 N   0  0  0  0  0  0  0  0  0  0  0  0
    7.1772  -20.0993   26.5739 N   0  0  0  0  0  0  0  0  0  0  0  0
    6.6655  -18.7803   26.3480 C   0  0  0  0  0  0  0  0  0  0  0  0
    7.8340  -17.7914   26.4535 C   0  0  0  0  0  0  0  0  0  0  0  0
    7.8217  -16.9638   25.2035 C   0  0  0  0  0  0  0  0  0  0  0  0
    8.9082  -15.9123   25.1931 C   0  0  2  0  0  0  0  0  0  0  0  0
    8.9408  -15.2510   23.9049 N   0  0  0  0  0  0  0  0  0  0  0  0
   10.2345  -16.4721   25.5050 C   0  0  0  0  0  0  0  0  0  0  0  0
   10.8332  -17.1408   24.6282 O   0  0  0  0  0  0  0  0  0  0  0  0
   10.8639  -16.2992   26.7258 O   0  0  0  0  0  0  0  0  0  0  0  0
  2  1  1  6
  2  3  1  0
  4  3  1  0
  5  4  1  0
  5  6  2  0
  7  2  1  0
  8  7  2  0
  9  5  1  0
 10  7  1  0
 11 12  1  6
 11 10  1  0
 12 13  1  0
 14 11  1  0
 14 15  2  0
 16 17  1  0
 17 18  2  0
 19 17  1  0
 20 19  1  0
 21 22  1  0
 21 20  1  0
 23 22  1  6
 23 24  1  0
 24 14  1  0
 25 23  1  0
 25 27  1  0
 26 25  2  0
M  END
$$$$
