ECR.pdb
     RDKit          3D

 27 26  0  0  1  0  0  0  0  0999 V2000
    8.0335  -12.8336   18.9055 N   0  0  0  0  0  0  0  0  0  0  0  0
    7.7861  -13.9204   19.8566 C   0  0  1  0  0  0  0  0  0  0  0  0
    8.0894  -15.2423   19.2057 C   0  0  0  0  0  0  0  0  0  0  0  0
    8.7530  -15.0778   17.8751 C   0  0  0  0  0  0  0  0  0  0  0  0
    8.0853  -15.8976   16.8220 C   0  0  0  0  0  0  0  0  0  0  0  0
    7.1124  -16.6171   17.1062 O   0  0  0  0  0  0  0  0  0  0  0  0
    8.4407  -13.6737   21.1399 C   0  0  0  0  0  0  0  0  0  0  0  0
    9.6935  -13.5552   21.1768 O   0  0  0  0  0  0  0  0  0  0  0  0
    8.5590  -15.8476   15.5343 O   0  0  0  0  0  0  0  0  0  0  0  0
    7.7194  -13.5586   22.3737 N   0  0  0  0  0  0  0  0  0  0  0  0
    8.3420  -13.9460   23.5871 C   0  0  1  0  0  0  0  0  0  0  0  0
    7.5069  -13.4012   24.7358 C   0  0  0  0  0  0  0  0  0  0  0  0
    5.7798  -13.9174   24.5297 S   0  0  0  0  0  0  0  0  0  0  0  0
    8.4072  -15.4229   23.7713 C   0  0  0  0  0  0  0  0  0  0  0  0
    7.9727  -16.2214   22.8988 O   0  0  0  0  0  0  0  0  0  0  0  0
   12.1891  -16.0159   18.9674 N   0  0  0  0  0  0  0  0  0  0  0  0
   12.6189  -15.2782   20.1038 C   0  0  0  0  0  0  0  0  0  0  0  0
   13.4293  -14.2843   19.9810 N   0  0  0  0  0  0  0  0  0  0  0  0
   12.1630  -15.6210   21.4121 N   0  0  0  0  0  0  0  0  0  0  0  0
   12.5367  -16.8469   22.0527 C   0  0  0  0  0  0  0  0  0  0  0  0
   11.3113  -17.3854   22.8027 C   0  0  0  0  0  0  0  0  0  0  0  0
   11.1429  -16.5411   24.0300 C   0  0  0  0  0  0  0  0  0  0  0  0
   10.0030  -17.0106   24.9056 C   0  0  2  0  0  0  0  0  0  0  0  0
    8.9645  -16.0018   24.9445 N   0  0  0  0  0  0  0  0  0  0  0  0
   10.4423  -17.3336   26.2739 C   0  0  0  0  0  0  0  0  0  0  0  0
   10.4814  -16.4184   27.1314 O   0  0  0  0  0  0  0  0  0  0  0  0
   10.8185  -18.6054   26.6705 O   0  0  0  0  0  0  0  0  0  0  0  0
  2  1  1  6
  2  3  1  0
  4  3  1  0
  5  4  1  0
  5  6  2  0
  7  2  1  0
  8  7  2  0
  9  5  1  0
 10  7  1  0
 11 12  1  1
 11 10  1  0
 12 13  1  0
 14 11  1  0
 14 15  2  0
 16 17  1  0
 17 18  2  0
 19 17  1  0
 20 19  1  0
 21 22  1  0
 21 20  1  0
 23 22  1  6
 23 24  1  0
 24 14  1  0
 25 23  1  0
 25 27  1  0
 26 25  2  0
M  END
$$$$
