ECR.pdb
     RDKit          3D

 27 26  0  0  1  0  0  0  0  0999 V2000
    9.6728  -15.5366   15.1858 N   0  0  0  0  0  0  0  0  0  0  0  0
    8.5982  -15.9735   16.0808 C   0  0  1  0  0  0  0  0  0  0  0  0
    8.3272  -17.4382   15.8700 C   0  0  0  0  0  0  0  0  0  0  0  0
    7.3462  -17.9796   16.8613 C   0  0  0  0  0  0  0  0  0  0  0  0
    7.1017  -19.4370   16.6538 C   0  0  0  0  0  0  0  0  0  0  0  0
    7.5746  -20.0204   15.6635 O   0  0  0  0  0  0  0  0  0  0  0  0
    8.8441  -15.5602   17.4610 C   0  0  0  0  0  0  0  0  0  0  0  0
    9.9711  -15.7818   17.9763 O   0  0  0  0  0  0  0  0  0  0  0  0
    6.3472  -20.1262   17.5709 O   0  0  0  0  0  0  0  0  0  0  0  0
    7.8545  -14.9073   18.2675 N   0  0  0  0  0  0  0  0  0  0  0  0
    8.1807  -14.5069   19.5878 C   0  0  1  0  0  0  0  0  0  0  0  0
    7.0634  -13.6067   20.0928 C   0  0  0  0  0  0  0  0  0  0  0  0
    7.1559  -11.9976   19.2598 S   0  0  0  0  0  0  0  0  0  0  0  0
    8.2745  -15.6460   20.5434 C   0  0  0  0  0  0  0  0  0  0  0  0
    7.7756  -16.7736   20.2847 O   0  0  0  0  0  0  0  0  0  0  0  0
   14.6195  -19.3680   18.5612 N   0  0  0  0  0  0  0  0  0  0  0  0
   14.4504  -19.9063   19.8658 C   0  0  0  0  0  0  0  0  0  0  0  0
   15.0795  -20.9698   20.2305 N   0  0  0  0  0  0  0  0  0  0  0  0
   13.5775  -19.2813   20.8061 N   0  0  0  0  0  0  0  0  0  0  0  0
   12.6763  -18.2330   20.4296 C   0  0  0  0  0  0  0  0  0  0  0  0
   11.9871  -17.7180   21.7001 C   0  0  0  0  0  0  0  0  0  0  0  0
   10.9857  -16.6891   21.2690 C   0  0  0  0  0  0  0  0  0  0  0  0
    9.8885  -16.4841   22.2890 C   0  0  2  0  0  0  0  0  0  0  0  0
    8.9337  -15.5127   21.7964 N   0  0  0  0  0  0  0  0  0  0  0  0
   10.4115  -16.0564   23.5979 C   0  0  0  0  0  0  0  0  0  0  0  0
   11.2515  -16.7820   24.1830 O   0  0  0  0  0  0  0  0  0  0  0  0
   10.0231  -14.8851   24.2251 O   0  0  0  0  0  0  0  0  0  0  0  0
  2  1  1  6
  2  3  1  0
  4  3  1  0
  5  4  1  0
  5  6  2  0
  7  2  1  0
  8  7  2  0
  9  5  1  0
 10  7  1  0
 11 12  1  1
 11 10  1  0
 12 13  1  0
 14 11  1  0
 14 15  2  0
 16 17  1  0
 17 18  2  0
 19 17  1  0
 20 19  1  0
 21 22  1  0
 21 20  1  0
 23 22  1  6
 23 24  1  0
 24 14  1  0
 25 23  1  0
 25 27  1  0
 26 25  2  0
M  END
$$$$
