ECR.pdb
     RDKit          3D

 27 26  0  0  1  0  0  0  0  0999 V2000
    7.6598  -17.5886   21.7482 N   0  0  0  0  0  0  0  0  0  0  0  0
    9.0631  -17.2413   21.9863 C   0  0  1  0  0  0  0  0  0  0  0  0
    9.8642  -17.4832   20.7362 C   0  0  0  0  0  0  0  0  0  0  0  0
    9.3580  -16.6841   19.5773 C   0  0  0  0  0  0  0  0  0  0  0  0
   10.1175  -16.9841   18.3282 C   0  0  0  0  0  0  0  0  0  0  0  0
   11.2500  -16.5044   18.1490 O   0  0  0  0  0  0  0  0  0  0  0  0
    9.1964  -15.9147   22.5853 C   0  0  0  0  0  0  0  0  0  0  0  0
   10.3446  -15.4184   22.7275 O   0  0  0  0  0  0  0  0  0  0  0  0
    9.5496  -17.7971   17.3786 O   0  0  0  0  0  0  0  0  0  0  0  0
    8.0720  -15.1410   23.0244 N   0  0  0  0  0  0  0  0  0  0  0  0
    8.2417  -14.1825   24.0552 C   0  0  1  0  0  0  0  0  0  0  0  0
    7.0850  -13.1980   23.9732 C   0  0  0  0  0  0  0  0  0  0  0  0
    6.2918  -13.0557   25.5988 S   0  0  0  0  0  0  0  0  0  0  0  0
    8.2019  -14.7732   25.4223 C   0  0  0  0  0  0  0  0  0  0  0  0
    7.5321  -15.8089   25.6796 O   0  0  0  0  0  0  0  0  0  0  0  0
   11.1942  -21.0921   28.1099 N   0  0  0  0  0  0  0  0  0  0  0  0
   11.4482  -20.1223   29.1175 C   0  0  0  0  0  0  0  0  0  0  0  0
   11.1177  -20.3384   30.3438 N   0  0  0  0  0  0  0  0  0  0  0  0
   12.0767  -18.8821   28.7953 N   0  0  0  0  0  0  0  0  0  0  0  0
   11.6142  -18.0483   27.7258 C   0  0  0  0  0  0  0  0  0  0  0  0
   10.7682  -16.9210   28.3323 C   0  0  0  0  0  0  0  0  0  0  0  0
   10.2619  -16.0908   27.1913 C   0  0  0  0  0  0  0  0  0  0  0  0
    9.3699  -14.9586   27.6484 C   0  0  2  0  0  0  0  0  0  0  0  0
    8.9204  -14.1934   26.5038 N   0  0  0  0  0  0  0  0  0  0  0  0
   10.0394  -14.0717   28.6152 C   0  0  0  0  0  0  0  0  0  0  0  0
   10.3412  -12.9060   28.2623 O   0  0  0  0  0  0  0  0  0  0  0  0
   10.3574  -14.4574   29.9060 O   0  0  0  0  0  0  0  0  0  0  0  0
  2  1  1  6
  2  3  1  0
  4  3  1  0
  5  4  1  0
  5  6  2  0
  7  2  1  0
  8  7  2  0
  9  5  1  0
 10  7  1  0
 11 12  1  1
 11 10  1  0
 12 13  1  0
 14 11  1  0
 14 15  2  0
 16 17  1  0
 17 18  2  0
 19 17  1  0
 20 19  1  0
 21 22  1  0
 21 20  1  0
 23 22  1  6
 23 24  1  0
 24 14  1  0
 25 23  1  0
 25 27  1  0
 26 25  2  0
M  END
$$$$
