ECR.pdb
     RDKit          3D

 27 26  0  0  1  0  0  0  0  0999 V2000
    6.4214  -16.6251   21.2790 N   0  0  0  0  0  0  0  0  0  0  0  0
    7.8592  -16.3821   21.4220 C   0  0  1  0  0  0  0  0  0  0  0  0
    8.4546  -16.0590   20.0787 C   0  0  0  0  0  0  0  0  0  0  0  0
    7.6787  -15.0039   19.3558 C   0  0  0  0  0  0  0  0  0  0  0  0
    8.3009  -14.6661   18.0422 C   0  0  0  0  0  0  0  0  0  0  0  0
    9.3673  -15.2012   17.6940 O   0  0  0  0  0  0  0  0  0  0  0  0
    8.1414  -15.4287   22.4932 C   0  0  0  0  0  0  0  0  0  0  0  0
    9.3352  -15.1058   22.7285 O   0  0  0  0  0  0  0  0  0  0  0  0
    7.6806  -13.7563   17.2221 O   0  0  0  0  0  0  0  0  0  0  0  0
    7.1148  -14.8357   23.2996 N   0  0  0  0  0  0  0  0  0  0  0  0
    7.4739  -13.9889   24.3785 C   0  0  1  0  0  0  0  0  0  0  0  0
    6.2235  -13.2486   24.8280 C   0  0  0  0  0  0  0  0  0  0  0  0
    6.5963  -12.2698   26.3095 S   0  0  0  0  0  0  0  0  0  0  0  0
    7.9799  -14.7308   25.5673 C   0  0  0  0  0  0  0  0  0  0  0  0
    7.3256  -15.6709   26.0922 O   0  0  0  0  0  0  0  0  0  0  0  0
   12.7148  -20.3548   26.3898 N   0  0  0  0  0  0  0  0  0  0  0  0
   13.5743  -19.8263   27.3909 C   0  0  0  0  0  0  0  0  0  0  0  0
   14.5126  -20.5440   27.9051 N   0  0  0  0  0  0  0  0  0  0  0  0
   13.4191  -18.4848   27.8526 N   0  0  0  0  0  0  0  0  0  0  0  0
   12.9366  -17.4372   27.0027 C   0  0  0  0  0  0  0  0  0  0  0  0
   11.7255  -16.7889   27.6862 C   0  0  0  0  0  0  0  0  0  0  0  0
   11.0770  -15.8948   26.6725 C   0  0  0  0  0  0  0  0  0  0  0  0
    9.8326  -15.2207   27.2049 C   0  0  2  0  0  0  0  0  0  0  0  0
    9.2291  -14.4109   26.1667 N   0  0  0  0  0  0  0  0  0  0  0  0
   10.1064  -14.3938   28.3927 C   0  0  0  0  0  0  0  0  0  0  0  0
   10.1804  -13.1480   28.2618 O   0  0  0  0  0  0  0  0  0  0  0  0
   10.2887  -14.9211   29.6596 O   0  0  0  0  0  0  0  0  0  0  0  0
  2  1  1  6
  2  3  1  0
  4  3  1  0
  5  4  1  0
  5  6  2  0
  7  2  1  0
  8  7  2  0
  9  5  1  0
 10  7  1  0
 11 12  1  1
 11 10  1  0
 12 13  1  0
 14 11  1  0
 14 15  2  0
 16 17  1  0
 17 18  2  0
 19 17  1  0
 20 19  1  0
 21 22  1  0
 21 20  1  0
 23 22  1  6
 23 24  1  0
 24 14  1  0
 25 23  1  0
 25 27  1  0
 26 25  2  0
M  END
$$$$
