ECR.pdb
     RDKit          3D

 27 26  0  0  1  0  0  0  0  0999 V2000
    9.2145  -15.8146   15.6374 N   0  0  0  0  0  0  0  0  0  0  0  0
    8.1450  -15.6067   16.6170 C   0  0  1  0  0  0  0  0  0  0  0  0
    7.1601  -16.7413   16.5405 C   0  0  0  0  0  0  0  0  0  0  0  0
    7.7313  -18.0215   17.0629 C   0  0  0  0  0  0  0  0  0  0  0  0
    6.7525  -19.1433   16.9602 C   0  0  0  0  0  0  0  0  0  0  0  0
    5.8528  -19.2738   17.8076 O   0  0  0  0  0  0  0  0  0  0  0  0
    8.6794  -15.3115   17.9449 C   0  0  0  0  0  0  0  0  0  0  0  0
    9.6826  -15.9500   18.3584 O   0  0  0  0  0  0  0  0  0  0  0  0
    6.8581  -20.0302   15.9174 O   0  0  0  0  0  0  0  0  0  0  0  0
    8.1120  -14.3196   18.8109 N   0  0  0  0  0  0  0  0  0  0  0  0
    8.6966  -14.0821   20.0805 C   0  0  1  0  0  0  0  0  0  0  0  0
    7.9014  -12.9791   20.7623 C   0  0  0  0  0  0  0  0  0  0  0  0
    6.1663  -13.4867   20.9158 S   0  0  0  0  0  0  0  0  0  0  0  0
    8.6447  -15.2652   20.9844 C   0  0  0  0  0  0  0  0  0  0  0  0
    8.0306  -16.3184   20.6663 O   0  0  0  0  0  0  0  0  0  0  0  0
   14.1149  -21.2312   21.4694 N   0  0  0  0  0  0  0  0  0  0  0  0
   14.5549  -19.9565   21.9184 C   0  0  0  0  0  0  0  0  0  0  0  0
   15.6521  -19.8300   22.5818 N   0  0  0  0  0  0  0  0  0  0  0  0
   13.7907  -18.7824   21.6455 N   0  0  0  0  0  0  0  0  0  0  0  0
   12.4126  -18.8428   21.2583 C   0  0  0  0  0  0  0  0  0  0  0  0
   11.5712  -18.2546   22.3986 C   0  0  0  0  0  0  0  0  0  0  0  0
   10.8983  -17.0284   21.8591 C   0  0  0  0  0  0  0  0  0  0  0  0
    9.8974  -16.4415   22.8287 C   0  0  2  0  0  0  0  0  0  0  0  0
    9.2881  -15.2606   22.2525 N   0  0  0  0  0  0  0  0  0  0  0  0
   10.5034  -16.1111   24.1300 C   0  0  0  0  0  0  0  0  0  0  0  0
   10.6526  -17.0223   24.9796 O   0  0  0  0  0  0  0  0  0  0  0  0
   10.9222  -14.8365   24.4710 O   0  0  0  0  0  0  0  0  0  0  0  0
  2  1  1  6
  2  3  1  0
  4  3  1  0
  5  4  1  0
  5  6  2  0
  7  2  1  0
  8  7  2  0
  9  5  1  0
 10  7  1  0
 11 12  1  1
 11 10  1  0
 12 13  1  0
 14 11  1  0
 14 15  2  0
 16 17  1  0
 17 18  2  0
 19 17  1  0
 20 19  1  0
 21 22  1  0
 21 20  1  0
 23 22  1  6
 23 24  1  0
 24 14  1  0
 25 23  1  0
 25 27  1  0
 26 25  2  0
M  END
$$$$
