ECR.pdb
     RDKit          3D

 27 26  0  0  1  0  0  0  0  0999 V2000
    7.2990  -13.1256   19.9259 N   0  0  0  0  0  0  0  0  0  0  0  0
    7.3659  -14.2692   20.8393 C   0  0  1  0  0  0  0  0  0  0  0  0
    8.1366  -15.3886   20.1942 C   0  0  0  0  0  0  0  0  0  0  0  0
    8.2513  -16.5835   21.0870 C   0  0  0  0  0  0  0  0  0  0  0  0
    7.3779  -17.7017   20.6248 C   0  0  0  0  0  0  0  0  0  0  0  0
    6.1417  -17.6164   20.7206 O   0  0  0  0  0  0  0  0  0  0  0  0
    7.8126  -13.8696   22.1723 C   0  0  0  0  0  0  0  0  0  0  0  0
    8.9687  -13.3920   22.3144 O   0  0  0  0  0  0  0  0  0  0  0  0
    7.9570  -18.8269   20.0921 O   0  0  0  0  0  0  0  0  0  0  0  0
    6.9908  -13.9958   23.3404 N   0  0  0  0  0  0  0  0  0  0  0  0
    7.4887  -13.5657   24.5962 C   0  0  1  0  0  0  0  0  0  0  0  0
    6.3143  -13.0469   25.4119 C   0  0  0  0  0  0  0  0  0  0  0  0
    6.8943  -12.5296   27.0513 S   0  0  0  0  0  0  0  0  0  0  0  0
    8.1083  -14.6622   25.3920 C   0  0  0  0  0  0  0  0  0  0  0  0
    7.4585  -15.6874   25.7299 O   0  0  0  0  0  0  0  0  0  0  0  0
   16.2938  -18.1344   25.6881 N   0  0  0  0  0  0  0  0  0  0  0  0
   15.3643  -18.8792   26.4636 C   0  0  0  0  0  0  0  0  0  0  0  0
   15.5754  -20.1198   26.7398 N   0  0  0  0  0  0  0  0  0  0  0  0
   14.1711  -18.2706   26.9562 N   0  0  0  0  0  0  0  0  0  0  0  0
   13.5450  -17.1691   26.2873 C   0  0  0  0  0  0  0  0  0  0  0  0
   12.2419  -16.8403   27.0277 C   0  0  0  0  0  0  0  0  0  0  0  0
   11.5418  -15.7797   26.2325 C   0  0  0  0  0  0  0  0  0  0  0  0
   10.0868  -15.6320   26.6165 C   0  0  2  0  0  0  0  0  0  0  0  0
    9.4666  -14.6023   25.8085 N   0  0  0  0  0  0  0  0  0  0  0  0
    9.9119  -15.3233   28.0461 C   0  0  0  0  0  0  0  0  0  0  0  0
    9.6789  -14.1386   28.3878 O   0  0  0  0  0  0  0  0  0  0  0  0
    9.9911  -16.2787   29.0446 O   0  0  0  0  0  0  0  0  0  0  0  0
  2  1  1  6
  2  3  1  0
  4  3  1  0
  5  4  1  0
  5  6  2  0
  7  2  1  0
  8  7  2  0
  9  5  1  0
 10  7  1  0
 11 12  1  1
 11 10  1  0
 12 13  1  0
 14 11  1  0
 14 15  2  0
 16 17  1  0
 17 18  2  0
 19 17  1  0
 20 19  1  0
 21 22  1  0
 21 20  1  0
 23 22  1  6
 23 24  1  0
 24 14  1  0
 25 23  1  0
 25 27  1  0
 26 25  2  0
M  END
$$$$
