ECR.pdb
     RDKit          3D

 27 26  0  0  1  0  0  0  0  0999 V2000
    8.9220  -18.3313   17.4554 N   0  0  0  0  0  0  0  0  0  0  0  0
    9.8201  -18.5071   18.5996 C   0  0  1  0  0  0  0  0  0  0  0  0
   11.2102  -18.8106   18.1108 C   0  0  0  0  0  0  0  0  0  0  0  0
   11.5452  -18.0617   16.8599 C   0  0  0  0  0  0  0  0  0  0  0  0
   12.9077  -18.4081   16.3593 C   0  0  0  0  0  0  0  0  0  0  0  0
   13.1320  -18.4764   15.1387 O   0  0  0  0  0  0  0  0  0  0  0  0
    9.7029  -17.4045   19.5518 C   0  0  0  0  0  0  0  0  0  0  0  0
   10.6264  -17.2133   20.3857 O   0  0  0  0  0  0  0  0  0  0  0  0
   13.9114  -18.6508   17.2642 O   0  0  0  0  0  0  0  0  0  0  0  0
    8.5756  -16.5191   19.5846 N   0  0  0  0  0  0  0  0  0  0  0  0
    8.5148  -15.4996   20.5679 C   0  0  1  0  0  0  0  0  0  0  0  0
    7.3728  -14.5641   20.2014 C   0  0  0  0  0  0  0  0  0  0  0  0
    7.2694  -13.2244   21.4205 S   0  0  0  0  0  0  0  0  0  0  0  0
    8.2209  -16.0150   21.9345 C   0  0  0  0  0  0  0  0  0  0  0  0
    7.3230  -16.8741   22.1421 O   0  0  0  0  0  0  0  0  0  0  0  0
   12.1854  -17.8796   28.5425 N   0  0  0  0  0  0  0  0  0  0  0  0
   11.1597  -17.2709   29.3157 C   0  0  0  0  0  0  0  0  0  0  0  0
   10.7198  -17.8294   30.3901 N   0  0  0  0  0  0  0  0  0  0  0  0
   10.5902  -16.0235   28.9202 N   0  0  0  0  0  0  0  0  0  0  0  0
   10.7226  -15.5132   27.5880 C   0  0  0  0  0  0  0  0  0  0  0  0
    9.5342  -16.0232   26.7622 C   0  0  0  0  0  0  0  0  0  0  0  0
    9.7105  -15.4971   25.3695 C   0  0  0  0  0  0  0  0  0  0  0  0
    8.6512  -16.0064   24.4183 C   0  0  2  0  0  0  0  0  0  0  0  0
    8.9428  -15.5595   23.0718 N   0  0  0  0  0  0  0  0  0  0  0  0
    7.2958  -15.5807   24.8073 C   0  0  0  0  0  0  0  0  0  0  0  0
    6.9087  -14.4279   24.4976 O   0  0  0  0  0  0  0  0  0  0  0  0
    6.4156  -16.3912   25.5033 O   0  0  0  0  0  0  0  0  0  0  0  0
  2  1  1  6
  2  3  1  0
  4  3  1  0
  5  4  1  0
  5  6  2  0
  7  2  1  0
  8  7  2  0
  9  5  1  0
 10  7  1  0
 11 12  1  6
 11 10  1  0
 12 13  1  0
 14 11  1  0
 14 15  2  0
 16 17  1  0
 17 18  2  0
 19 17  1  0
 20 19  1  0
 21 22  1  0
 21 20  1  0
 23 22  1  1
 23 24  1  0
 24 14  1  0
 25 23  1  0
 25 27  1  0
 26 25  2  0
M  END
$$$$
