ECR.pdb
     RDKit          3D

 27 26  0  0  1  0  0  0  0  0999 V2000
    7.0546  -13.1628   20.3275 N   0  0  0  0  0  0  0  0  0  0  0  0
    6.8831  -14.0558   21.4764 C   0  0  1  0  0  0  0  0  0  0  0  0
    6.9197  -15.4874   21.0155 C   0  0  0  0  0  0  0  0  0  0  0  0
    8.2717  -15.8847   20.5130 C   0  0  0  0  0  0  0  0  0  0  0  0
    8.2808  -17.2897   20.0101 C   0  0  0  0  0  0  0  0  0  0  0  0
    7.2285  -17.9496   19.9652 O   0  0  0  0  0  0  0  0  0  0  0  0
    7.7920  -13.7114   22.5679 C   0  0  0  0  0  0  0  0  0  0  0  0
    8.5603  -12.7226   22.4376 O   0  0  0  0  0  0  0  0  0  0  0  0
    9.4667  -17.8450   19.5973 O   0  0  0  0  0  0  0  0  0  0  0  0
    7.8536  -14.4517   23.7942 N   0  0  0  0  0  0  0  0  0  0  0  0
    8.6799  -13.9900   24.8497 C   0  0  1  0  0  0  0  0  0  0  0  0
    8.1149  -12.6657   25.3406 C   0  0  0  0  0  0  0  0  0  0  0  0
    6.4620  -12.9320   26.0397 S   0  0  0  0  0  0  0  0  0  0  0  0
    8.7020  -14.9052   26.0251 C   0  0  0  0  0  0  0  0  0  0  0  0
    7.6425  -15.2889   26.5889 O   0  0  0  0  0  0  0  0  0  0  0  0
   15.5558  -18.8674   26.8644 N   0  0  0  0  0  0  0  0  0  0  0  0
   15.1342  -18.5382   28.1812 C   0  0  0  0  0  0  0  0  0  0  0  0
   15.9764  -18.4945   29.1553 N   0  0  0  0  0  0  0  0  0  0  0  0
   13.7646  -18.2475   28.4583 N   0  0  0  0  0  0  0  0  0  0  0  0
   12.7007  -19.1022   28.0219 C   0  0  0  0  0  0  0  0  0  0  0  0
   11.3708  -18.3963   28.3175 C   0  0  0  0  0  0  0  0  0  0  0  0
   11.2667  -17.2421   27.3664 C   0  0  0  0  0  0  0  0  0  0  0  0
    9.9823  -16.4627   27.5381 C   0  0  2  0  0  0  0  0  0  0  0  0
    9.9242  -15.3898   26.5669 N   0  0  0  0  0  0  0  0  0  0  0  0
    9.8333  -15.9185   28.8987 C   0  0  0  0  0  0  0  0  0  0  0  0
    9.9670  -14.6837   29.0771 O   0  0  0  0  0  0  0  0  0  0  0  0
    9.5508  -16.7029   30.0037 O   0  0  0  0  0  0  0  0  0  0  0  0
  2  1  1  6
  2  3  1  0
  4  3  1  0
  5  4  1  0
  5  6  2  0
  7  2  1  0
  8  7  2  0
  9  5  1  0
 10  7  1  0
 11 12  1  1
 11 10  1  0
 12 13  1  0
 14 11  1  0
 14 15  2  0
 16 17  1  0
 17 18  2  0
 19 17  1  0
 20 19  1  0
 21 22  1  0
 21 20  1  0
 23 22  1  1
 23 24  1  0
 24 14  1  0
 25 23  1  0
 25 27  1  0
 26 25  2  0
M  END
$$$$
