ECR.pdb
     RDKit          3D

 27 26  0  0  1  0  0  0  0  0999 V2000
    8.9675  -15.5645   21.0760 N   0  0  0  0  0  0  0  0  0  0  0  0
    7.9784  -15.5132   22.1557 C   0  0  1  0  0  0  0  0  0  0  0  0
    7.2627  -16.8330   22.2505 C   0  0  0  0  0  0  0  0  0  0  0  0
    8.2070  -17.9924   22.2039 C   0  0  0  0  0  0  0  0  0  0  0  0
    7.4852  -19.2945   22.3066 C   0  0  0  0  0  0  0  0  0  0  0  0
    7.1127  -19.8909   21.2817 O   0  0  0  0  0  0  0  0  0  0  0  0
    8.5616  -15.0107   23.3981 C   0  0  0  0  0  0  0  0  0  0  0  0
    9.8038  -15.1095   23.5768 O   0  0  0  0  0  0  0  0  0  0  0  0
    7.2372  -19.8262   23.5480 O   0  0  0  0  0  0  0  0  0  0  0  0
    7.7808  -14.4037   24.4363 N   0  0  0  0  0  0  0  0  0  0  0  0
    8.4325  -13.8244   25.5543 C   0  0  1  0  0  0  0  0  0  0  0  0
    7.5392  -12.7181   26.0946 C   0  0  0  0  0  0  0  0  0  0  0  0
    7.4269  -11.3782   24.8765 S   0  0  0  0  0  0  0  0  0  0  0  0
    8.6470  -14.7834   26.6740 C   0  0  0  0  0  0  0  0  0  0  0  0
    7.6837  -15.3183   27.2850 O   0  0  0  0  0  0  0  0  0  0  0  0
   12.8734  -19.5778   31.8240 N   0  0  0  0  0  0  0  0  0  0  0  0
   13.2843  -20.1210   30.5765 C   0  0  0  0  0  0  0  0  0  0  0  0
   13.3907  -21.3943   30.4108 N   0  0  0  0  0  0  0  0  0  0  0  0
   13.5902  -19.2680   29.4739 N   0  0  0  0  0  0  0  0  0  0  0  0
   12.5908  -18.8411   28.5402 C   0  0  0  0  0  0  0  0  0  0  0  0
   11.8091  -17.6835   29.1751 C   0  0  0  0  0  0  0  0  0  0  0  0
   11.5405  -16.6875   28.0873 C   0  0  0  0  0  0  0  0  0  0  0  0
   10.1959  -16.0123   28.2377 C   0  0  2  0  0  0  0  0  0  0  0  0
    9.9537  -15.1406   27.1066 N   0  0  0  0  0  0  0  0  0  0  0  0
   10.0881  -15.2494   29.4931 C   0  0  0  0  0  0  0  0  0  0  0  0
   10.0084  -15.8738   30.5785 O   0  0  0  0  0  0  0  0  0  0  0  0
   10.0696  -13.8661   29.5420 O   0  0  0  0  0  0  0  0  0  0  0  0
  2  1  1  6
  2  3  1  0
  4  3  1  0
  5  4  1  0
  5  6  2  0
  7  2  1  0
  8  7  2  0
  9  5  1  0
 10  7  1  0
 11 12  1  1
 11 10  1  0
 12 13  1  0
 14 11  1  0
 14 15  2  0
 16 17  1  0
 17 18  2  0
 19 17  1  0
 20 19  1  0
 21 22  1  0
 21 20  1  0
 23 22  1  6
 23 24  1  0
 24 14  1  0
 25 23  1  0
 25 27  1  0
 26 25  2  0
M  END
$$$$
