ECR.pdb
     RDKit          3D

 27 26  0  0  1  0  0  0  0  0999 V2000
    8.3843  -13.6516   20.2561 N   0  0  0  0  0  0  0  0  0  0  0  0
    7.3930  -14.1097   21.2329 C   0  0  1  0  0  0  0  0  0  0  0  0
    6.9685  -15.5149   20.9032 C   0  0  0  0  0  0  0  0  0  0  0  0
    8.0263  -16.2641   20.1564 C   0  0  0  0  0  0  0  0  0  0  0  0
    7.5574  -17.6218   19.7519 C   0  0  0  0  0  0  0  0  0  0  0  0
    6.6598  -17.7510   18.9019 O   0  0  0  0  0  0  0  0  0  0  0  0
    7.8423  -13.8821   22.6049 C   0  0  0  0  0  0  0  0  0  0  0  0
    9.0509  -14.0807   22.8956 O   0  0  0  0  0  0  0  0  0  0  0  0
    8.1299  -18.7275   20.3306 O   0  0  0  0  0  0  0  0  0  0  0  0
    6.9653  -13.4388   23.6491 N   0  0  0  0  0  0  0  0  0  0  0  0
    7.4576  -13.3204   24.9733 C   0  0  1  0  0  0  0  0  0  0  0  0
    6.3899  -12.6312   25.8092 C   0  0  0  0  0  0  0  0  0  0  0  0
    6.9848  -12.4330   27.5117 S   0  0  0  0  0  0  0  0  0  0  0  0
    7.7245  -14.6343   25.6230 C   0  0  0  0  0  0  0  0  0  0  0  0
    7.0625  -15.6662   25.3325 O   0  0  0  0  0  0  0  0  0  0  0  0
   10.9310  -20.8485   22.0216 N   0  0  0  0  0  0  0  0  0  0  0  0
   11.5859  -19.7485   22.6393 C   0  0  0  0  0  0  0  0  0  0  0  0
   12.6175  -19.2010   22.0954 N   0  0  0  0  0  0  0  0  0  0  0  0
   11.1165  -19.2222   23.8801 N   0  0  0  0  0  0  0  0  0  0  0  0
   11.6555  -18.0245   24.4527 C   0  0  0  0  0  0  0  0  0  0  0  0
   10.9130  -17.7487   25.7668 C   0  0  0  0  0  0  0  0  0  0  0  0
   10.1956  -16.4431   25.5989 C   0  0  0  0  0  0  0  0  0  0  0  0
    9.4291  -16.0386   26.8381 C   0  0  2  0  0  0  0  0  0  0  0  0
    8.7423  -14.7850   26.6046 N   0  0  0  0  0  0  0  0  0  0  0  0
   10.2970  -15.9238   28.0226 C   0  0  0  0  0  0  0  0  0  0  0  0
   10.5913  -14.7821   28.4518 O   0  0  0  0  0  0  0  0  0  0  0  0
   10.8116  -17.0183   28.6960 O   0  0  0  0  0  0  0  0  0  0  0  0
  2  1  1  6
  2  3  1  0
  4  3  1  0
  5  4  1  0
  5  6  2  0
  7  2  1  0
  8  7  2  0
  9  5  1  0
 10  7  1  0
 11 12  1  1
 11 10  1  0
 12 13  1  0
 14 11  1  0
 14 15  2  0
 16 17  1  0
 17 18  2  0
 19 17  1  0
 20 19  1  0
 21 22  1  0
 21 20  1  0
 23 22  1  6
 23 24  1  0
 24 14  1  0
 25 23  1  0
 25 27  1  0
 26 25  2  0
M  END
$$$$
