CRW.pdb
     RDKit          3D

 32 33  0  0  1  0  0  0  0  0999 V2000
   19.5914  -21.0501  -16.5126 N   0  0  0  0  0  0  0  0  0  0  0  0
   19.5597  -20.4539  -15.1974 C   0  0  1  0  0  0  0  0  0  0  0  0
   18.2941  -20.7642  -14.4705 C   0  0  0  0  0  0  0  0  0  0  0  0
   18.1836  -22.4469  -13.8668 S   0  0  0  0  0  0  0  0  0  0  0  0
   20.7843  -20.7906  -14.4261 C   0  0  0  0  0  0  0  0  0  0  0  0
   21.0537  -20.2790  -13.3170 O   0  0  0  0  0  0  0  0  0  0  0  0
   24.8458  -26.2939  -17.2228 N   0  0  0  0  0  0  0  0  0  0  0  0
   23.5120  -26.5790  -16.8071 C   0  0  0  0  0  0  0  0  0  0  0  0
   22.7486  -27.1555  -17.6696 N   0  0  0  0  0  0  0  0  0  0  0  0
   23.0156  -26.2582  -15.5168 N   0  0  0  0  0  0  0  0  0  0  0  0
   23.8497  -25.8491  -14.4344 C   0  0  0  0  0  0  0  0  0  0  0  0
   23.3832  -24.5700  -13.7741 C   0  0  0  0  0  0  0  0  0  0  0  0
   23.3472  -23.4868  -14.8070 C   0  0  0  0  0  0  0  0  0  0  0  0
   22.9158  -22.1466  -14.3138 C   0  0  2  0  0  0  0  0  0  0  0  0
   21.6916  -21.7279  -14.9583 N   0  0  0  0  0  0  0  0  0  0  0  0
   24.0367  -21.1963  -14.6551 C   0  0  0  0  0  0  0  0  0  0  0  0
   24.0657  -20.6033  -15.7613 O   0  0  0  0  0  0  0  0  0  0  0  0
   21.7958  -27.4773  -17.4923 N   0  0  0  0  0  0  0  0  0  0  0  0
   25.0626  -20.9727  -13.7200 C   0  0  2  0  0  0  0  0  0  0  0  0
   26.1793  -20.0688  -14.0060 C   0  0  0  0  0  0  0  0  0  0  0  0
   26.4362  -19.2491  -12.7340 C   0  0  0  0  0  0  0  0  0  0  0  0
   27.5853  -19.8516  -11.9788 C   0  0  0  0  0  0  0  0  0  0  0  0
   28.8774  -20.0684  -12.4046 N   0  0  0  0  0  0  0  0  0  0  0  0
   29.5680  -20.6287  -11.4045 C   0  0  0  0  0  0  0  0  0  0  0  0
   28.7893  -20.7955  -10.3261 C   0  0  0  0  0  0  0  0  0  0  0  0
   29.0270  -21.3186   -9.0711 C   0  0  0  0  0  0  0  0  0  0  0  0
   27.9639  -21.3347   -8.1853 C   0  0  0  0  0  0  0  0  0  0  0  0
   26.7256  -20.8621   -8.5090 C   0  0  0  0  0  0  0  0  0  0  0  0
   26.5115  -20.3483   -9.7573 C   0  0  0  0  0  0  0  0  0  0  0  0
   27.5440  -20.3135  -10.6701 C   0  0  0  0  0  0  0  0  0  0  0  0
   27.3958  -20.8397  -14.3442 O   0  0  0  0  0  0  0  0  0  0  0  0
   27.4950  -22.0767  -14.0871 O   0  0  0  0  0  0  0  0  0  0  0  0
  2  1  1  6
  3  2  1  0
  4  3  1  0
  5  6  2  0
  5  2  1  0
  7  8  1  0
  8  9  2  0
 10 11  1  0
 10  8  1  0
 11 12  1  0
 12 13  1  0
 14 13  1  6
 14 15  1  0
 15  5  1  0
 16 14  1  0
 17 16  2  0
 18 16  1  0
 19 30  1  0
 19 18  1  0
 19 20  1  1
 21 22  2  0
 21 20  1  0
 23 22  1  0
 24 29  2  0
 24 23  1  0
 25 24  1  0
 26 27  1  0
 26 25  2  0
 27 28  2  0
 28 29  1  0
 29 21  1  0
 30 32  1  0
 31 30  2  0
M  END
$$$$
