CRW.pdb
     RDKit          3D

 32 33  0  0  1  0  0  0  0  0999 V2000
   31.8723  -23.6285  -17.4854 N   0  0  0  0  0  0  0  0  0  0  0  0
   30.8459  -23.8573  -16.4951 C   0  0  1  0  0  0  0  0  0  0  0  0
   31.4131  -24.0106  -15.1236 C   0  0  0  0  0  0  0  0  0  0  0  0
   32.5378  -25.3924  -14.9406 S   0  0  0  0  0  0  0  0  0  0  0  0
   29.7769  -22.8291  -16.5832 C   0  0  0  0  0  0  0  0  0  0  0  0
   29.8820  -21.7940  -17.2776 O   0  0  0  0  0  0  0  0  0  0  0  0
   28.2910  -24.2206  -20.7205 N   0  0  0  0  0  0  0  0  0  0  0  0
   27.4147  -25.3114  -20.4455 C   0  0  0  0  0  0  0  0  0  0  0  0
   27.7919  -26.4730  -20.8546 N   0  0  0  0  0  0  0  0  0  0  0  0
   26.1816  -25.1625  -19.7587 N   0  0  0  0  0  0  0  0  0  0  0  0
   25.8033  -23.9693  -19.0748 C   0  0  0  0  0  0  0  0  0  0  0  0
   26.3439  -23.8955  -17.6633 C   0  0  0  0  0  0  0  0  0  0  0  0
   26.7969  -22.4931  -17.3998 C   0  0  0  0  0  0  0  0  0  0  0  0
   27.3744  -22.2511  -16.0458 C   0  0  2  0  0  0  0  0  0  0  0  0
   28.5852  -23.0173  -15.8556 N   0  0  0  0  0  0  0  0  0  0  0  0
   26.3201  -22.6877  -15.0589 C   0  0  0  0  0  0  0  0  0  0  0  0
   26.1513  -23.9023  -14.7901 O   0  0  0  0  0  0  0  0  0  0  0  0
   27.2463  -27.3325  -20.7745 N   0  0  0  0  0  0  0  0  0  0  0  0
   25.5160  -21.7193  -14.4323 C   0  0  1  0  0  0  0  0  0  0  0  0
   25.4034  -21.6410  -12.9739 C   0  0  0  0  0  0  0  0  0  0  0  0
   26.6807  -20.9653  -12.4563 C   0  0  0  0  0  0  0  0  0  0  0  0
   26.5626  -20.7489  -10.9753 C   0  0  0  0  0  0  0  0  0  0  0  0
   25.4576  -20.3695  -10.2452 N   0  0  0  0  0  0  0  0  0  0  0  0
   25.8033  -20.2971   -8.9544 C   0  0  0  0  0  0  0  0  0  0  0  0
   27.0959  -20.6131   -8.7916 C   0  0  0  0  0  0  0  0  0  0  0  0
   27.9097  -20.6844   -7.6789 C   0  0  0  0  0  0  0  0  0  0  0  0
   29.2273  -21.0529   -7.8866 C   0  0  0  0  0  0  0  0  0  0  0  0
   29.7282  -21.3388   -9.1231 C   0  0  0  0  0  0  0  0  0  0  0  0
   28.9053  -21.2620  -10.2117 C   0  0  0  0  0  0  0  0  0  0  0  0
   27.5855  -20.8986  -10.0486 C   0  0  0  0  0  0  0  0  0  0  0  0
   24.2297  -20.8271  -12.5883 O   0  0  0  0  0  0  0  0  0  0  0  0
   24.0345  -19.6693  -13.0656 O   0  0  0  0  0  0  0  0  0  0  0  0
  2  1  1  6
  3  2  1  0
  4  3  1  0
  5  6  2  0
  5  2  1  0
  7  8  1  0
  8  9  2  0
 10 11  1  0
 10  8  1  0
 11 12  1  0
 12 13  1  0
 14 13  1  6
 14 15  1  0
 15  5  1  0
 16 14  1  0
 17 16  2  0
 18 16  1  0
 19 30  1  0
 19 18  1  0
 19 20  1  1
 21 22  2  0
 21 20  1  0
 23 22  1  0
 24 29  2  0
 24 23  1  0
 25 24  1  0
 26 27  1  0
 26 25  2  0
 27 28  2  0
 28 29  1  0
 29 21  1  0
 30 32  1  0
 31 30  2  0
M  END
$$$$
