CRW.pdb
     RDKit          3D

 32 33  0  0  1  0  0  0  0  0999 V2000
   26.2475  -22.9714  -16.0716 N   0  0  0  0  0  0  0  0  0  0  0  0
   26.8932  -21.6794  -16.0694 C   0  0  1  0  0  0  0  0  0  0  0  0
   26.7807  -20.9932  -17.3896 C   0  0  0  0  0  0  0  0  0  0  0  0
   25.5782  -21.7214  -18.4994 S   0  0  0  0  0  0  0  0  0  0  0  0
   26.4283  -20.8494  -14.9281 C   0  0  0  0  0  0  0  0  0  0  0  0
   26.7913  -19.6652  -14.7538 O   0  0  0  0  0  0  0  0  0  0  0  0
   20.6383  -17.8663  -14.5196 N   0  0  0  0  0  0  0  0  0  0  0  0
   20.2733  -18.3700  -13.2366 C   0  0  0  0  0  0  0  0  0  0  0  0
   19.6428  -17.5619  -12.4565 N   0  0  0  0  0  0  0  0  0  0  0  0
   20.5727  -19.6889  -12.8062 N   0  0  0  0  0  0  0  0  0  0  0  0
   21.2485  -20.6455  -13.6204 C   0  0  0  0  0  0  0  0  0  0  0  0
   22.7051  -20.3069  -13.8518 C   0  0  0  0  0  0  0  0  0  0  0  0
   23.5168  -20.9206  -12.7535 C   0  0  0  0  0  0  0  0  0  0  0  0
   24.9902  -20.7099  -12.8526 C   0  0  2  0  0  0  0  0  0  0  0  0
   25.5374  -21.4109  -13.9921 N   0  0  0  0  0  0  0  0  0  0  0  0
   25.5762  -21.2551  -11.5738 C   0  0  0  0  0  0  0  0  0  0  0  0
   25.5930  -22.4897  -11.3466 O   0  0  0  0  0  0  0  0  0  0  0  0
   19.2524  -17.8060  -11.5450 N   0  0  0  0  0  0  0  0  0  0  0  0
   26.1106  -20.3667  -10.6241 C   0  0  2  0  0  0  0  0  0  0  0  0
   26.7538  -20.8474   -9.3989 C   0  0  0  0  0  0  0  0  0  0  0  0
   27.8252  -19.8173   -9.0152 C   0  0  0  0  0  0  0  0  0  0  0  0
   28.5644  -20.2989   -7.8005 C   0  0  0  0  0  0  0  0  0  0  0  0
   29.3539  -21.4191   -7.6599 N   0  0  0  0  0  0  0  0  0  0  0  0
   29.8155  -21.4610   -6.4044 C   0  0  0  0  0  0  0  0  0  0  0  0
   29.3662  -20.4132   -5.6992 C   0  0  0  0  0  0  0  0  0  0  0  0
   29.5542  -20.0148   -4.3910 C   0  0  0  0  0  0  0  0  0  0  0  0
   28.9215  -18.8508   -3.9915 C   0  0  0  0  0  0  0  0  0  0  0  0
   28.1412  -18.1092   -4.8297 C   0  0  0  0  0  0  0  0  0  0  0  0
   27.9681  -18.5214   -6.1213 C   0  0  0  0  0  0  0  0  0  0  0  0
   28.5809  -19.6758   -6.5599 C   0  0  0  0  0  0  0  0  0  0  0  0
   25.7655  -20.9554   -8.3034 O   0  0  0  0  0  0  0  0  0  0  0  0
   24.7791  -20.1646   -8.2141 O   0  0  0  0  0  0  0  0  0  0  0  0
  2  1  1  6
  3  2  1  0
  4  3  1  0
  5  6  2  0
  5  2  1  0
  7  8  1  0
  8  9  2  0
 10 11  1  0
 10  8  1  0
 11 12  1  0
 12 13  1  0
 14 13  1  1
 14 15  1  0
 15  5  1  0
 16 14  1  0
 17 16  2  0
 18 16  1  0
 19 30  1  0
 19 18  1  0
 19 20  1  6
 21 22  2  0
 21 20  1  0
 23 22  1  0
 24 29  2  0
 24 23  1  0
 25 24  1  0
 26 27  1  0
 26 25  2  0
 27 28  2  0
 28 29  1  0
 29 21  1  0
 30 32  1  0
 31 30  2  0
M  END
$$$$
