CRW.pdb
     RDKit          3D

 32 33  0  0  1  0  0  0  0  0999 V2000
   22.9570  -18.7227  -18.9209 N   0  0  0  0  0  0  0  0  0  0  0  0
   23.6700  -18.4091  -17.7045 C   0  0  1  0  0  0  0  0  0  0  0  0
   23.0253  -17.2974  -16.9464 C   0  0  0  0  0  0  0  0  0  0  0  0
   22.8391  -15.7795  -17.8787 S   0  0  0  0  0  0  0  0  0  0  0  0
   23.8995  -19.6289  -16.8877 C   0  0  0  0  0  0  0  0  0  0  0  0
   22.9700  -20.3518  -16.4658 O   0  0  0  0  0  0  0  0  0  0  0  0
   27.1300  -24.5943  -19.1083 N   0  0  0  0  0  0  0  0  0  0  0  0
   26.8740  -25.5016  -18.0384 C   0  0  0  0  0  0  0  0  0  0  0  0
   26.3031  -26.6139  -18.3479 N   0  0  0  0  0  0  0  0  0  0  0  0
   27.2166  -25.2268  -16.6887 N   0  0  0  0  0  0  0  0  0  0  0  0
   27.8978  -24.0431  -16.2774 C   0  0  0  0  0  0  0  0  0  0  0  0
   27.0370  -23.1211  -15.4414 C   0  0  0  0  0  0  0  0  0  0  0  0
   26.5049  -22.0357  -16.3248 C   0  0  0  0  0  0  0  0  0  0  0  0
   25.5800  -21.0693  -15.6645 C   0  0  2  0  0  0  0  0  0  0  0  0
   25.2206  -19.9987  -16.5668 N   0  0  0  0  0  0  0  0  0  0  0  0
   26.3297  -20.5204  -14.4759 C   0  0  0  0  0  0  0  0  0  0  0  0
   27.3752  -19.8426  -14.6293 O   0  0  0  0  0  0  0  0  0  0  0  0
   26.0236  -27.3382  -17.6845 N   0  0  0  0  0  0  0  0  0  0  0  0
   25.8494  -20.7726  -13.1788 C   0  0  2  0  0  0  0  0  0  0  0  0
   26.5852  -20.3379  -11.9891 C   0  0  0  0  0  0  0  0  0  0  0  0
   25.6925  -19.3349  -11.2453 C   0  0  0  0  0  0  0  0  0  0  0  0
   24.4881  -20.0490  -10.7036 C   0  0  0  0  0  0  0  0  0  0  0  0
   24.2820  -20.5537   -9.4385 N   0  0  0  0  0  0  0  0  0  0  0  0
   23.0663  -21.1113   -9.3942 C   0  0  0  0  0  0  0  0  0  0  0  0
   22.4503  -20.9997  -10.5796 C   0  0  0  0  0  0  0  0  0  0  0  0
   21.2116  -21.4057  -11.0333 C   0  0  0  0  0  0  0  0  0  0  0  0
   20.8988  -21.1166  -12.3500 C   0  0  0  0  0  0  0  0  0  0  0  0
   21.7553  -20.4614  -13.1858 C   0  0  0  0  0  0  0  0  0  0  0  0
   22.9772  -20.0681  -12.7165 C   0  0  0  0  0  0  0  0  0  0  0  0
   23.3283  -20.3365  -11.4106 C   0  0  0  0  0  0  0  0  0  0  0  0
   26.8670  -21.4901  -11.1050 O   0  0  0  0  0  0  0  0  0  0  0  0
   26.3467  -22.6282  -11.3055 O   0  0  0  0  0  0  0  0  0  0  0  0
  2  1  1  6
  3  2  1  0
  4  3  1  0
  5  6  2  0
  5  2  1  0
  7  8  1  0
  8  9  2  0
 10 11  1  0
 10  8  1  0
 11 12  1  0
 12 13  1  0
 14 13  1  6
 14 15  1  0
 15  5  1  0
 16 14  1  0
 17 16  2  0
 18 16  1  0
 19 30  1  0
 19 18  1  0
 19 20  1  6
 21 22  2  0
 21 20  1  0
 23 22  1  0
 24 29  2  0
 24 23  1  0
 25 24  1  0
 26 27  1  0
 26 25  2  0
 27 28  2  0
 28 29  1  0
 29 21  1  0
 30 32  1  0
 31 30  2  0
M  END
$$$$
