CRW.pdb
     RDKit          3D

 32 33  0  0  1  0  0  0  0  0999 V2000
   21.4412  -20.2915  -15.0137 N   0  0  0  0  0  0  0  0  0  0  0  0
   22.1451  -19.6982  -13.9007 C   0  0  1  0  0  0  0  0  0  0  0  0
   21.2141  -19.2302  -12.8327 C   0  0  0  0  0  0  0  0  0  0  0  0
   20.2192  -17.8129  -13.2903 S   0  0  0  0  0  0  0  0  0  0  0  0
   23.2155  -20.5995  -13.4011 C   0  0  0  0  0  0  0  0  0  0  0  0
   22.9868  -21.7395  -12.9401 O   0  0  0  0  0  0  0  0  0  0  0  0
   28.4103  -24.6649  -15.9008 N   0  0  0  0  0  0  0  0  0  0  0  0
   27.9626  -23.9268  -17.0357 C   0  0  0  0  0  0  0  0  0  0  0  0
   27.6598  -24.6086  -18.0857 N   0  0  0  0  0  0  0  0  0  0  0  0
   27.8443  -22.5125  -17.0447 N   0  0  0  0  0  0  0  0  0  0  0  0
   27.9178  -21.7113  -15.8668 C   0  0  0  0  0  0  0  0  0  0  0  0
   26.7384  -21.9075  -14.9392 C   0  0  0  0  0  0  0  0  0  0  0  0
   26.8255  -20.8967  -13.8382 C   0  0  0  0  0  0  0  0  0  0  0  0
   25.6753  -20.8847  -12.8883 C   0  0  2  0  0  0  0  0  0  0  0  0
   24.5538  -20.1611  -13.4433 N   0  0  0  0  0  0  0  0  0  0  0  0
   26.1728  -20.1988  -11.6400 C   0  0  0  0  0  0  0  0  0  0  0  0
   26.0371  -18.9602  -11.4867 O   0  0  0  0  0  0  0  0  0  0  0  0
   27.3643  -24.2143  -18.9802 N   0  0  0  0  0  0  0  0  0  0  0  0
   26.7970  -20.9589  -10.6354 C   0  0  2  0  0  0  0  0  0  0  0  0
   27.4809  -20.3251   -9.5056 C   0  0  0  0  0  0  0  0  0  0  0  0
   26.4604  -20.2098   -8.3648 C   0  0  0  0  0  0  0  0  0  0  0  0
   27.0552  -19.4041   -7.2463 C   0  0  0  0  0  0  0  0  0  0  0  0
   27.1341  -18.0347   -7.1179 N   0  0  0  0  0  0  0  0  0  0  0  0
   27.7450  -17.7490   -5.9619 C   0  0  0  0  0  0  0  0  0  0  0  0
   28.0780  -18.8730   -5.3115 C   0  0  0  0  0  0  0  0  0  0  0  0
   28.7107  -19.1056   -4.1070 C   0  0  0  0  0  0  0  0  0  0  0  0
   28.8944  -20.4267   -3.7385 C   0  0  0  0  0  0  0  0  0  0  0  0
   28.4798  -21.4731   -4.5097 C   0  0  0  0  0  0  0  0  0  0  0  0
   27.8553  -21.2207   -5.6989 C   0  0  0  0  0  0  0  0  0  0  0  0
   27.6525  -19.9185   -6.1034 C   0  0  0  0  0  0  0  0  0  0  0  0
   28.6210  -21.1552   -9.0589 O   0  0  0  0  0  0  0  0  0  0  0  0
   28.6107  -22.4178   -9.1683 O   0  0  0  0  0  0  0  0  0  0  0  0
  2  1  1  6
  3  2  1  0
  4  3  1  0
  5  6  2  0
  5  2  1  0
  7  8  1  0
  8  9  2  0
 10 11  1  0
 10  8  1  0
 11 12  1  0
 12 13  1  0
 14 13  1  6
 14 15  1  0
 15  5  1  0
 16 14  1  0
 17 16  2  0
 18 16  1  0
 19 30  1  0
 19 18  1  0
 19 20  1  1
 21 22  2  0
 21 20  1  0
 23 22  1  0
 24 29  2  0
 24 23  1  0
 25 24  1  0
 26 27  1  0
 26 25  2  0
 27 28  2  0
 28 29  1  0
 29 21  1  0
 30 32  1  0
 31 30  2  0
M  END
$$$$
