CRW.pdb
     RDKit          3D

 32 33  0  0  1  0  0  0  0  0999 V2000
   27.6819  -23.4354  -17.5153 N   0  0  0  0  0  0  0  0  0  0  0  0
   26.6344  -22.7042  -16.8412 C   0  0  1  0  0  0  0  0  0  0  0  0
   25.4879  -23.5826  -16.4668 C   0  0  0  0  0  0  0  0  0  0  0  0
   25.7706  -24.5834  -15.0086 S   0  0  0  0  0  0  0  0  0  0  0  0
   27.1762  -21.9186  -15.7022 C   0  0  0  0  0  0  0  0  0  0  0  0
   28.2413  -22.2132  -15.1162 O   0  0  0  0  0  0  0  0  0  0  0  0
   25.3830  -16.1195  -17.6852 N   0  0  0  0  0  0  0  0  0  0  0  0
   24.5662  -16.3001  -16.5305 C   0  0  0  0  0  0  0  0  0  0  0  0
   23.2930  -16.3335  -16.7227 N   0  0  0  0  0  0  0  0  0  0  0  0
   25.0938  -16.4393  -15.2203 N   0  0  0  0  0  0  0  0  0  0  0  0
   26.4679  -16.2279  -14.9011 C   0  0  0  0  0  0  0  0  0  0  0  0
   27.2398  -17.5157  -14.7124 C   0  0  0  0  0  0  0  0  0  0  0  0
   26.2859  -18.5823  -14.2720 C   0  0  0  0  0  0  0  0  0  0  0  0
   26.8690  -19.9496  -14.1456 C   0  0  2  0  0  0  0  0  0  0  0  0
   26.4666  -20.7877  -15.2523 N   0  0  0  0  0  0  0  0  0  0  0  0
   26.3411  -20.5095  -12.8479 C   0  0  0  0  0  0  0  0  0  0  0  0
   25.3104  -21.2259  -12.8262 O   0  0  0  0  0  0  0  0  0  0  0  0
   22.5901  -16.4752  -15.9956 N   0  0  0  0  0  0  0  0  0  0  0  0
   27.0141  -20.2240  -11.6470 C   0  0  2  0  0  0  0  0  0  0  0  0
   26.5337  -20.7285  -10.3584 C   0  0  0  0  0  0  0  0  0  0  0  0
   27.4066  -20.0914   -9.2683 C   0  0  0  0  0  0  0  0  0  0  0  0
   26.8974  -20.5074   -7.9186 C   0  0  0  0  0  0  0  0  0  0  0  0
   25.8652  -21.3676   -7.6144 N   0  0  0  0  0  0  0  0  0  0  0  0
   25.7558  -21.4490   -6.2831 C   0  0  0  0  0  0  0  0  0  0  0  0
   26.6739  -20.6774   -5.6841 C   0  0  0  0  0  0  0  0  0  0  0  0
   26.9639  -20.4243   -4.3585 C   0  0  0  0  0  0  0  0  0  0  0  0
   28.0056  -19.5512   -4.0988 C   0  0  0  0  0  0  0  0  0  0  0  0
   28.7312  -18.9523   -5.0869 C   0  0  0  0  0  0  0  0  0  0  0  0
   28.4275  -19.2165   -6.3930 C   0  0  0  0  0  0  0  0  0  0  0  0
   27.3969  -20.0808   -6.6953 C   0  0  0  0  0  0  0  0  0  0  0  0
   25.1227  -20.3393  -10.1436 O   0  0  0  0  0  0  0  0  0  0  0  0
   24.6886  -19.1947  -10.4717 O   0  0  0  0  0  0  0  0  0  0  0  0
  2  1  1  1
  3  2  1  0
  4  3  1  0
  5  6  2  0
  5  2  1  0
  7  8  1  0
  8  9  2  0
 10 11  1  0
 10  8  1  0
 11 12  1  0
 12 13  1  0
 14 13  1  6
 14 15  1  0
 15  5  1  0
 16 14  1  0
 17 16  2  0
 18 16  1  0
 19 30  1  0
 19 18  1  0
 19 20  1  6
 21 22  2  0
 21 20  1  0
 23 22  1  0
 24 29  2  0
 24 23  1  0
 25 24  1  0
 26 27  1  0
 26 25  2  0
 27 28  2  0
 28 29  1  0
 29 21  1  0
 30 32  1  0
 31 30  2  0
M  END
$$$$
