CRW.pdb
     RDKit          3D

 32 33  0  0  1  0  0  0  0  0999 V2000
   29.0565  -23.6117  -17.7900 N   0  0  0  0  0  0  0  0  0  0  0  0
   27.8392  -22.8956  -17.4871 C   0  0  1  0  0  0  0  0  0  0  0  0
   26.6296  -23.7566  -17.6356 C   0  0  0  0  0  0  0  0  0  0  0  0
   26.0894  -24.5381  -16.1172 S   0  0  0  0  0  0  0  0  0  0  0  0
   27.9283  -22.2208  -16.1663 C   0  0  0  0  0  0  0  0  0  0  0  0
   28.6362  -22.6491  -15.2283 O   0  0  0  0  0  0  0  0  0  0  0  0
   25.5420  -13.9415  -15.3811 N   0  0  0  0  0  0  0  0  0  0  0  0
   26.4457  -14.8730  -15.9716 C   0  0  0  0  0  0  0  0  0  0  0  0
   27.0282  -14.5031  -17.0592 N   0  0  0  0  0  0  0  0  0  0  0  0
   26.7146  -16.1518  -15.4177 N   0  0  0  0  0  0  0  0  0  0  0  0
   26.1056  -16.6323  -14.2206 C   0  0  0  0  0  0  0  0  0  0  0  0
   26.6275  -17.9856  -13.7892 C   0  0  0  0  0  0  0  0  0  0  0  0
   26.6737  -18.8820  -14.9875 C   0  0  0  0  0  0  0  0  0  0  0  0
   27.2565  -20.2349  -14.7523 C   0  0  2  0  0  0  0  0  0  0  0  0
   27.1857  -21.0435  -15.9483 N   0  0  0  0  0  0  0  0  0  0  0  0
   26.4336  -20.8577  -13.6518 C   0  0  0  0  0  0  0  0  0  0  0  0
   25.3257  -21.3938  -13.8991 O   0  0  0  0  0  0  0  0  0  0  0  0
   27.6713  -15.0757  -17.6082 N   0  0  0  0  0  0  0  0  0  0  0  0
   26.9156  -20.8363  -12.3312 C   0  0  2  0  0  0  0  0  0  0  0  0
   26.2126  -21.5239  -11.2455 C   0  0  0  0  0  0  0  0  0  0  0  0
   27.2193  -21.7141  -10.1025 C   0  0  0  0  0  0  0  0  0  0  0  0
   27.0318  -20.6225   -9.0890 C   0  0  0  0  0  0  0  0  0  0  0  0
   25.9814  -19.7411   -8.9560 N   0  0  0  0  0  0  0  0  0  0  0  0
   26.2286  -18.9362   -7.9159 C   0  0  0  0  0  0  0  0  0  0  0  0
   27.4030  -19.2440   -7.3473 C   0  0  0  0  0  0  0  0  0  0  0  0
   28.0884  -18.7189   -6.2703 C   0  0  0  0  0  0  0  0  0  0  0  0
   29.3056  -19.2979   -5.9571 C   0  0  0  0  0  0  0  0  0  0  0  0
   29.8302  -20.3415   -6.6622 C   0  0  0  0  0  0  0  0  0  0  0  0
   29.1353  -20.8466   -7.7252 C   0  0  0  0  0  0  0  0  0  0  0  0
   27.9184  -20.2985   -8.0709 C   0  0  0  0  0  0  0  0  0  0  0  0
   25.0768  -20.7068  -10.7649 O   0  0  0  0  0  0  0  0  0  0  0  0
   25.0478  -19.4490  -10.9175 O   0  0  0  0  0  0  0  0  0  0  0  0
  2  1  1  1
  3  2  1  0
  4  3  1  0
  5  6  2  0
  5  2  1  0
  7  8  1  0
  8  9  2  0
 10 11  1  0
 10  8  1  0
 11 12  1  0
 12 13  1  0
 14 13  1  6
 14 15  1  0
 15  5  1  0
 16 14  1  0
 17 16  2  0
 18 16  1  0
 19 30  1  0
 19 18  1  0
 19 20  1  6
 21 22  2  0
 21 20  1  0
 23 22  1  0
 24 29  2  0
 24 23  1  0
 25 24  1  0
 26 27  1  0
 26 25  2  0
 27 28  2  0
 28 29  1  0
 29 21  1  0
 30 32  1  0
 31 30  2  0
M  END
$$$$
