CRW.pdb
     RDKit          3D

 32 33  0  0  1  0  0  0  0  0999 V2000
   30.7975  -24.1254  -17.0207 N   0  0  0  0  0  0  0  0  0  0  0  0
   29.3720  -23.9113  -17.1138 C   0  0  1  0  0  0  0  0  0  0  0  0
   28.6035  -25.1836  -16.9835 C   0  0  0  0  0  0  0  0  0  0  0  0
   28.4845  -26.1320  -18.4982 S   0  0  0  0  0  0  0  0  0  0  0  0
   28.9265  -22.8504  -16.1737 C   0  0  0  0  0  0  0  0  0  0  0  0
   29.4486  -22.6707  -15.0514 O   0  0  0  0  0  0  0  0  0  0  0  0
   25.3707  -15.6081  -16.4879 N   0  0  0  0  0  0  0  0  0  0  0  0
   26.0769  -15.5090  -15.2532 C   0  0  0  0  0  0  0  0  0  0  0  0
   26.1666  -14.3348  -14.7314 N   0  0  0  0  0  0  0  0  0  0  0  0
   26.6645  -16.6254  -14.6030 N   0  0  0  0  0  0  0  0  0  0  0  0
   27.2793  -17.7064  -15.3017 C   0  0  0  0  0  0  0  0  0  0  0  0
   26.2819  -18.6231  -15.9759 C   0  0  0  0  0  0  0  0  0  0  0  0
   27.0320  -19.7320  -16.6461 C   0  0  0  0  0  0  0  0  0  0  0  0
   27.3864  -20.8858  -15.7695 C   0  0  2  0  0  0  0  0  0  0  0  0
   27.8678  -22.0014  -16.5524 N   0  0  0  0  0  0  0  0  0  0  0  0
   26.1178  -21.2648  -15.0461 C   0  0  0  0  0  0  0  0  0  0  0  0
   25.0953  -21.6220  -15.6807 O   0  0  0  0  0  0  0  0  0  0  0  0
   26.6066  -14.1194  -13.8353 N   0  0  0  0  0  0  0  0  0  0  0  0
   26.0820  -21.2165  -13.6414 C   0  0  2  0  0  0  0  0  0  0  0  0
   24.8998  -21.6412  -12.8880 C   0  0  0  0  0  0  0  0  0  0  0  0
   25.3937  -22.1985  -11.5457 C   0  0  0  0  0  0  0  0  0  0  0  0
   26.0923  -21.1101  -10.7833 C   0  0  0  0  0  0  0  0  0  0  0  0
   25.5439  -20.1158  -10.0032 N   0  0  0  0  0  0  0  0  0  0  0  0
   26.5353  -19.3628   -9.5123 C   0  0  0  0  0  0  0  0  0  0  0  0
   27.7257  -19.8137   -9.9330 C   0  0  0  0  0  0  0  0  0  0  0  0
   29.0201  -19.3896   -9.7095 C   0  0  0  0  0  0  0  0  0  0  0  0
   30.0317  -20.1105  -10.3195 C   0  0  0  0  0  0  0  0  0  0  0  0
   29.7915  -21.1954  -11.1112 C   0  0  0  0  0  0  0  0  0  0  0  0
   28.5024  -21.5986  -11.3195 C   0  0  0  0  0  0  0  0  0  0  0  0
   27.4649  -20.9081  -10.7302 C   0  0  0  0  0  0  0  0  0  0  0  0
   24.0036  -20.4908  -12.6390 O   0  0  0  0  0  0  0  0  0  0  0  0
   22.8143  -20.6474  -12.2303 O   0  0  0  0  0  0  0  0  0  0  0  0
  2  1  1  1
  3  2  1  0
  4  3  1  0
  5  6  2  0
  5  2  1  0
  7  8  1  0
  8  9  2  0
 10 11  1  0
 10  8  1  0
 11 12  1  0
 12 13  1  0
 14 13  1  6
 14 15  1  0
 15  5  1  0
 16 14  1  0
 17 16  2  0
 18 16  1  0
 19 30  1  0
 19 18  1  0
 19 20  1  6
 21 22  2  0
 21 20  1  0
 23 22  1  0
 24 29  2  0
 24 23  1  0
 25 24  1  0
 26 27  1  0
 26 25  2  0
 27 28  2  0
 28 29  1  0
 29 21  1  0
 30 32  1  0
 31 30  2  0
M  END
$$$$
