CRW.pdb
     RDKit          3D

 32 33  0  0  1  0  0  0  0  0999 V2000
   28.9784  -23.1004  -17.0438 N   0  0  0  0  0  0  0  0  0  0  0  0
   27.5978  -22.9236  -16.6578 C   0  0  1  0  0  0  0  0  0  0  0  0
   26.9010  -24.2269  -16.4520 C   0  0  0  0  0  0  0  0  0  0  0  0
   27.6270  -25.2590  -15.1810 S   0  0  0  0  0  0  0  0  0  0  0  0
   27.4785  -21.9983  -15.5014 C   0  0  0  0  0  0  0  0  0  0  0  0
   28.4565  -21.6477  -14.8049 O   0  0  0  0  0  0  0  0  0  0  0  0
   21.7813  -17.9475  -16.9051 N   0  0  0  0  0  0  0  0  0  0  0  0
   21.3943  -18.8187  -15.8447 C   0  0  0  0  0  0  0  0  0  0  0  0
   20.3346  -19.5256  -16.0352 N   0  0  0  0  0  0  0  0  0  0  0  0
   22.1153  -18.9278  -14.6271 N   0  0  0  0  0  0  0  0  0  0  0  0
   23.0434  -17.9440  -14.1739 C   0  0  0  0  0  0  0  0  0  0  0  0
   24.3518  -18.5355  -13.6961 C   0  0  0  0  0  0  0  0  0  0  0  0
   24.7582  -19.6202  -14.6446 C   0  0  0  0  0  0  0  0  0  0  0  0
   25.9830  -20.3803  -14.2603 C   0  0  2  0  0  0  0  0  0  0  0  0
   26.2104  -21.4855  -15.1637 N   0  0  0  0  0  0  0  0  0  0  0  0
   25.7350  -20.8913  -12.8626 C   0  0  0  0  0  0  0  0  0  0  0  0
   24.8961  -21.8000  -12.6472 O   0  0  0  0  0  0  0  0  0  0  0  0
   19.9708  -20.2290  -15.3905 N   0  0  0  0  0  0  0  0  0  0  0  0
   26.4544  -20.3408  -11.7873 C   0  0  2  0  0  0  0  0  0  0  0  0
   26.2088  -20.7582  -10.4048 C   0  0  0  0  0  0  0  0  0  0  0  0
   27.3643  -20.2125   -9.5545 C   0  0  0  0  0  0  0  0  0  0  0  0
   27.0623  -20.4404   -8.1017 C   0  0  0  0  0  0  0  0  0  0  0  0
   26.2128  -21.3637   -7.5325 N   0  0  0  0  0  0  0  0  0  0  0  0
   26.2492  -21.2145   -6.2031 C   0  0  0  0  0  0  0  0  0  0  0  0
   27.0893  -20.2278   -5.8598 C   0  0  0  0  0  0  0  0  0  0  0  0
   27.4652  -19.6993   -4.6414 C   0  0  0  0  0  0  0  0  0  0  0  0
   28.3775  -18.6590   -4.6622 C   0  0  0  0  0  0  0  0  0  0  0  0
   28.8992  -18.1572   -5.8187 C   0  0  0  0  0  0  0  0  0  0  0  0
   28.5136  -18.6949   -7.0146 C   0  0  0  0  0  0  0  0  0  0  0  0
   27.6066  -19.7329   -7.0383 C   0  0  0  0  0  0  0  0  0  0  0  0
   24.9322  -20.1951   -9.9130 O   0  0  0  0  0  0  0  0  0  0  0  0
   24.5820  -19.0058  -10.1761 O   0  0  0  0  0  0  0  0  0  0  0  0
  2  1  1  1
  3  2  1  0
  4  3  1  0
  5  6  2  0
  5  2  1  0
  7  8  1  0
  8  9  2  0
 10 11  1  0
 10  8  1  0
 11 12  1  0
 12 13  1  0
 14 13  1  6
 14 15  1  0
 15  5  1  0
 16 14  1  0
 17 16  2  0
 18 16  1  0
 19 30  1  0
 19 18  1  0
 19 20  1  6
 21 22  2  0
 21 20  1  0
 23 22  1  0
 24 29  2  0
 24 23  1  0
 25 24  1  0
 26 27  1  0
 26 25  2  0
 27 28  2  0
 28 29  1  0
 29 21  1  0
 30 32  1  0
 31 30  2  0
M  END
$$$$
