CRW.pdb
     RDKit          3D

 32 33  0  0  1  0  0  0  0  0999 V2000
   28.1148  -22.8030  -17.4193 N   0  0  0  0  0  0  0  0  0  0  0  0
   26.8087  -22.5279  -16.8672 C   0  0  1  0  0  0  0  0  0  0  0  0
   26.0058  -23.7713  -16.6782 C   0  0  0  0  0  0  0  0  0  0  0  0
   26.1043  -24.4701  -15.0321 S   0  0  0  0  0  0  0  0  0  0  0  0
   26.9094  -21.6949  -15.6409 C   0  0  0  0  0  0  0  0  0  0  0  0
   27.9965  -21.4396  -15.0774 O   0  0  0  0  0  0  0  0  0  0  0  0
   23.1484  -17.5716  -18.0038 N   0  0  0  0  0  0  0  0  0  0  0  0
   22.1085  -18.2011  -17.2585 C   0  0  0  0  0  0  0  0  0  0  0  0
   21.1732  -18.7693  -17.9377 N   0  0  0  0  0  0  0  0  0  0  0  0
   22.0726  -18.2207  -15.8398 N   0  0  0  0  0  0  0  0  0  0  0  0
   23.0693  -17.6116  -15.0211 C   0  0  0  0  0  0  0  0  0  0  0  0
   24.4094  -18.3106  -15.0956 C   0  0  0  0  0  0  0  0  0  0  0  0
   24.4429  -19.3875  -14.0561 C   0  0  0  0  0  0  0  0  0  0  0  0
   25.6990  -20.1909  -14.0076 C   0  0  2  0  0  0  0  0  0  0  0  0
   25.7330  -21.1625  -15.0772 N   0  0  0  0  0  0  0  0  0  0  0  0
   25.6967  -20.8877  -12.6695 C   0  0  0  0  0  0  0  0  0  0  0  0
   25.0925  -21.9765  -12.5100 O   0  0  0  0  0  0  0  0  0  0  0  0
   20.3642  -19.2496  -17.5407 N   0  0  0  0  0  0  0  0  0  0  0  0
   26.3813  -20.3082  -11.5868 C   0  0  2  0  0  0  0  0  0  0  0  0
   26.2647  -20.8440  -10.2285 C   0  0  0  0  0  0  0  0  0  0  0  0
   27.2156  -20.0324   -9.3379 C   0  0  0  0  0  0  0  0  0  0  0  0
   26.9330  -20.3441   -7.8967 C   0  0  0  0  0  0  0  0  0  0  0  0
   25.8900  -21.0662   -7.3596 N   0  0  0  0  0  0  0  0  0  0  0  0
   26.0306  -21.0938   -6.0290 C   0  0  0  0  0  0  0  0  0  0  0  0
   27.1265  -20.4187   -5.6542 C   0  0  0  0  0  0  0  0  0  0  0  0
   27.6925  -20.1619   -4.4218 C   0  0  0  0  0  0  0  0  0  0  0  0
   28.8548  -19.4110   -4.4082 C   0  0  0  0  0  0  0  0  0  0  0  0
   29.4383  -18.9325   -5.5450 C   0  0  0  0  0  0  0  0  0  0  0  0
   28.8614  -19.1982   -6.7552 C   0  0  0  0  0  0  0  0  0  0  0  0
   27.7027  -19.9429   -6.8130 C   0  0  0  0  0  0  0  0  0  0  0  0
   24.8802  -20.6931   -9.7296 O   0  0  0  0  0  0  0  0  0  0  0  0
   24.1647  -19.6936  -10.0382 O   0  0  0  0  0  0  0  0  0  0  0  0
  2  1  1  1
  3  2  1  0
  4  3  1  0
  5  6  2  0
  5  2  1  0
  7  8  1  0
  8  9  2  0
 10 11  1  0
 10  8  1  0
 11 12  1  0
 12 13  1  0
 14 13  1  6
 14 15  1  0
 15  5  1  0
 16 14  1  0
 17 16  2  0
 18 16  1  0
 19 30  1  0
 19 18  1  0
 19 20  1  6
 21 22  2  0
 21 20  1  0
 23 22  1  0
 24 29  2  0
 24 23  1  0
 25 24  1  0
 26 27  1  0
 26 25  2  0
 27 28  2  0
 28 29  1  0
 29 21  1  0
 30 32  1  0
 31 30  2  0
M  END
$$$$
