CRW.pdb
     RDKit          3D

 32 33  0  0  1  0  0  0  0  0999 V2000
   22.8616  -25.5210  -16.4156 N   0  0  0  0  0  0  0  0  0  0  0  0
   21.6688  -26.3268  -16.5360 C   0  0  1  0  0  0  0  0  0  0  0  0
   21.9621  -27.6869  -17.0751 C   0  0  0  0  0  0  0  0  0  0  0  0
   23.0381  -28.6749  -16.0388 S   0  0  0  0  0  0  0  0  0  0  0  0
   20.9037  -26.3460  -15.2624 C   0  0  0  0  0  0  0  0  0  0  0  0
   21.1204  -25.5471  -14.3248 O   0  0  0  0  0  0  0  0  0  0  0  0
   17.3449  -23.1060  -12.2859 N   0  0  0  0  0  0  0  0  0  0  0  0
   16.0469  -23.0882  -12.8758 C   0  0  0  0  0  0  0  0  0  0  0  0
   15.4316  -21.9567  -12.8847 N   0  0  0  0  0  0  0  0  0  0  0  0
   15.4321  -24.2390  -13.4345 N   0  0  0  0  0  0  0  0  0  0  0  0
   16.0341  -25.5321  -13.4269 C   0  0  0  0  0  0  0  0  0  0  0  0
   17.0622  -25.7163  -14.5220 C   0  0  0  0  0  0  0  0  0  0  0  0
   17.5475  -27.1322  -14.4859 C   0  0  0  0  0  0  0  0  0  0  0  0
   18.9436  -27.3176  -13.9940 C   0  0  2  0  0  0  0  0  0  0  0  0
   19.8846  -27.3036  -15.0912 N   0  0  0  0  0  0  0  0  0  0  0  0
   18.9675  -28.6585  -13.3030 C   0  0  0  0  0  0  0  0  0  0  0  0
   18.6295  -29.7037  -13.9108 O   0  0  0  0  0  0  0  0  0  0  0  0
   14.4744  -21.8081  -13.2082 N   0  0  0  0  0  0  0  0  0  0  0  0
   19.3741  -28.7369  -11.9594 C   0  0  2  0  0  0  0  0  0  0  0  0
   19.5443  -30.0245  -11.2821 C   0  0  0  0  0  0  0  0  0  0  0  0
   20.1384  -29.7331   -9.8971 C   0  0  0  0  0  0  0  0  0  0  0  0
   19.1037  -29.0559   -9.0457 C   0  0  0  0  0  0  0  0  0  0  0  0
   18.2005  -29.6221   -8.1731 N   0  0  0  0  0  0  0  0  0  0  0  0
   17.4667  -28.6461   -7.6256 C   0  0  0  0  0  0  0  0  0  0  0  0
   17.8429  -27.4489   -8.0972 C   0  0  0  0  0  0  0  0  0  0  0  0
   17.4036  -26.1642   -7.8488 C   0  0  0  0  0  0  0  0  0  0  0  0
   18.0366  -25.1405   -8.5317 C   0  0  0  0  0  0  0  0  0  0  0  0
   19.0518  -25.3600   -9.4163 C   0  0  0  0  0  0  0  0  0  0  0  0
   19.4717  -26.6399   -9.6478 C   0  0  0  0  0  0  0  0  0  0  0  0
   18.8676  -27.6889   -8.9880 C   0  0  0  0  0  0  0  0  0  0  0  0
   18.2388  -30.7013  -11.1210 O   0  0  0  0  0  0  0  0  0  0  0  0
   18.1561  -31.9396  -10.8637 O   0  0  0  0  0  0  0  0  0  0  0  0
  2  1  1  1
  3  2  1  0
  4  3  1  0
  5  6  2  0
  5  2  1  0
  7  8  1  0
  8  9  2  0
 10 11  1  0
 10  8  1  0
 11 12  1  0
 12 13  1  0
 14 13  1  6
 14 15  1  0
 15  5  1  0
 16 14  1  0
 17 16  2  0
 18 16  1  0
 19 30  1  0
 19 18  1  0
 19 20  1  6
 21 22  2  0
 21 20  1  0
 23 22  1  0
 24 29  2  0
 24 23  1  0
 25 24  1  0
 26 27  1  0
 26 25  2  0
 27 28  2  0
 28 29  1  0
 29 21  1  0
 30 32  1  0
 31 30  2  0
M  END
$$$$
