DEY.pdb
     RDKit          3D

 30 30  0  0  1  0  0  0  0  0999 V2000
    7.0165  -18.3779   21.1216 N   0  0  0  0  0  0  0  0  0  0  0  0
    7.6521  -19.6219   21.4264 C   0  0  1  0  0  0  0  0  0  0  0  0
    7.2730  -20.6469   20.3669 C   0  0  0  0  0  0  0  0  0  0  0  0
    6.0880  -21.3965   20.8601 C   0  0  0  0  0  0  0  0  0  0  0  0
    5.3321  -20.9414   21.7633 O   0  0  0  0  0  0  0  0  0  0  0  0
    9.1513  -19.4998   21.3864 C   0  0  0  0  0  0  0  0  0  0  0  0
    9.8849  -20.4781   21.6770 O   0  0  0  0  0  0  0  0  0  0  0  0
    5.8518  -22.6387   20.2695 O   0  0  0  0  0  0  0  0  0  0  0  0
    9.7533  -18.2580   21.0134 N   0  0  0  0  0  0  0  0  0  0  0  0
   11.1319  -17.9366   21.2827 C   0  0  1  0  0  0  0  0  0  0  0  0
   11.9034  -17.7130   19.9779 C   0  0  0  0  0  0  0  0  0  0  0  0
   11.1023  -18.2983   18.8574 C   0  0  0  0  0  0  0  0  0  0  0  0
   11.7918  -18.1170   17.5488 C   0  0  0  0  0  0  0  0  0  0  0  0
   12.9112  -17.5410   17.5207 O   0  0  0  0  0  0  0  0  0  0  0  0
   11.2758  -16.6912   22.0742 C   0  0  0  0  0  0  0  0  0  0  0  0
   10.3544  -15.8319   22.1442 O   0  0  0  0  0  0  0  0  0  0  0  0
   11.2611  -18.5536   16.3508 O   0  0  0  0  0  0  0  0  0  0  0  0
    9.9796  -13.9136   29.6235 O   0  0  0  0  0  0  0  0  0  0  0  0
   10.3824  -14.5944   28.4810 C   0  0  0  0  0  0  0  0  0  0  0  0
   11.0596  -15.7853   28.6202 C   0  0  0  0  0  0  0  0  0  0  0  0
   11.4738  -16.4867   27.5030 C   0  0  0  0  0  0  0  0  0  0  0  0
   11.2352  -16.0391   26.2105 C   0  0  0  0  0  0  0  0  0  0  0  0
   11.6870  -16.7866   25.0106 C   0  0  0  0  0  0  0  0  0  0  0  0
   12.5703  -15.9463   24.0993 C   0  0  2  0  0  0  0  0  0  0  0  0
   12.4929  -16.4895   22.7582 N   0  0  0  0  0  0  0  0  0  0  0  0
   13.9856  -15.9342   24.5249 C   0  0  0  0  0  0  0  0  0  0  0  0
   14.9194  -16.8501   24.0653 O   0  0  0  0  0  0  0  0  0  0  0  0
   10.5494  -14.8343   26.1019 C   0  0  0  0  0  0  0  0  0  0  0  0
   10.1313  -14.1257   27.2090 C   0  0  0  0  0  0  0  0  0  0  0  0
   14.4029  -15.0684   25.3425 O   0  0  0  0  0  0  0  0  0  0  0  0
  2  1  1  6
  3  2  1  0
  4  3  1  0
  4  8  1  0
  5  4  2  0
  6  7  2  0
  6  2  1  0
  9  6  1  0
 10  9  1  0
 10 11  1  6
 11 12  1  0
 12 13  1  0
 13 17  1  0
 14 13  2  0
 15 10  1  0
 16 15  2  0
 19 18  1  0
 19 20  2  0
 21 20  1  0
 22 21  2  0
 23 22  1  0
 24 23  1  1
 24 25  1  0
 25 15  1  0
 26 27  1  0
 26 24  1  0
 28 29  2  0
 28 22  1  0
 29 19  1  0
 30 26  2  0
M  END
$$$$
