DEY.pdb
     RDKit          3D

 30 30  0  0  1  0  0  0  0  0999 V2000
    9.5452  -13.1219   18.0581 N   0  0  0  0  0  0  0  0  0  0  0  0
    8.3195  -13.5030   18.6878 C   0  0  1  0  0  0  0  0  0  0  0  0
    7.3567  -14.0220   17.6292 C   0  0  0  0  0  0  0  0  0  0  0  0
    8.1167  -14.9223   16.7228 C   0  0  0  0  0  0  0  0  0  0  0  0
    9.3225  -15.2299   16.9361 O   0  0  0  0  0  0  0  0  0  0  0  0
    8.5279  -14.6282   19.6649 C   0  0  0  0  0  0  0  0  0  0  0  0
    7.5571  -15.1293   20.2864 O   0  0  0  0  0  0  0  0  0  0  0  0
    7.4240  -15.4137   15.6154 O   0  0  0  0  0  0  0  0  0  0  0  0
    9.8443  -15.1372   19.8922 N   0  0  0  0  0  0  0  0  0  0  0  0
   10.1541  -16.0914   20.9265 C   0  0  1  0  0  0  0  0  0  0  0  0
   11.4417  -16.8533   20.5959 C   0  0  0  0  0  0  0  0  0  0  0  0
   11.6384  -17.9092   21.6382 C   0  0  0  0  0  0  0  0  0  0  0  0
   12.8974  -18.6713   21.4036 C   0  0  0  0  0  0  0  0  0  0  0  0
   13.4105  -19.3148   22.3565 O   0  0  0  0  0  0  0  0  0  0  0  0
   10.3751  -15.4445   22.2421 C   0  0  0  0  0  0  0  0  0  0  0  0
   11.0024  -14.3555   22.3560 O   0  0  0  0  0  0  0  0  0  0  0  0
   13.5380  -18.7095   20.1807 O   0  0  0  0  0  0  0  0  0  0  0  0
    6.0495  -11.4706   28.4313 O   0  0  0  0  0  0  0  0  0  0  0  0
    6.6232  -12.1773   27.3812 C   0  0  0  0  0  0  0  0  0  0  0  0
    5.7998  -12.7879   26.4618 C   0  0  0  0  0  0  0  0  0  0  0  0
    6.3397  -13.4983   25.4057 C   0  0  0  0  0  0  0  0  0  0  0  0
    7.7092  -13.6317   25.2191 C   0  0  0  0  0  0  0  0  0  0  0  0
    8.2900  -14.4015   24.0910 C   0  0  0  0  0  0  0  0  0  0  0  0
    9.3637  -15.3801   24.5452 C   0  0  2  0  0  0  0  0  0  0  0  0
    9.8563  -16.0917   23.3831 N   0  0  0  0  0  0  0  0  0  0  0  0
    8.8633  -16.3649   25.5271 C   0  0  0  0  0  0  0  0  0  0  0  0
    9.0178  -16.2104   26.8962 O   0  0  0  0  0  0  0  0  0  0  0  0
    8.5147  -13.0043   26.1632 C   0  0  0  0  0  0  0  0  0  0  0  0
    7.9876  -12.2929   27.2209 C   0  0  0  0  0  0  0  0  0  0  0  0
    8.2640  -17.4070   25.1433 O   0  0  0  0  0  0  0  0  0  0  0  0
  2  1  1  6
  3  2  1  0
  4  3  1  0
  4  8  1  0
  5  4  2  0
  6  7  2  0
  6  2  1  0
  9  6  1  0
 10  9  1  0
 10 11  1  6
 11 12  1  0
 12 13  1  0
 13 17  1  0
 14 13  2  0
 15 10  1  0
 16 15  2  0
 19 18  1  0
 19 20  2  0
 21 20  1  0
 22 21  2  0
 23 22  1  0
 24 23  1  6
 24 25  1  0
 25 15  1  0
 26 27  1  0
 26 24  1  0
 28 29  2  0
 28 22  1  0
 29 19  1  0
 30 26  2  0
M  END
$$$$
