DEY.pdb
     RDKit          3D

 30 30  0  0  1  0  0  0  0  0999 V2000
    9.1761  -17.4609   18.4278 N   0  0  0  0  0  0  0  0  0  0  0  0
    8.2889  -17.8892   19.4640 C   0  0  1  0  0  0  0  0  0  0  0  0
    7.7105  -19.2476   19.0937 C   0  0  0  0  0  0  0  0  0  0  0  0
    7.3790  -19.2232   17.6449 C   0  0  0  0  0  0  0  0  0  0  0  0
    7.1194  -18.1502   17.0321 O   0  0  0  0  0  0  0  0  0  0  0  0
    9.0139  -18.0744   20.7694 C   0  0  0  0  0  0  0  0  0  0  0  0
    8.4348  -18.5863   21.7605 O   0  0  0  0  0  0  0  0  0  0  0  0
    7.3692  -20.4564   16.9915 O   0  0  0  0  0  0  0  0  0  0  0  0
   10.3785  -17.6652   20.8885 N   0  0  0  0  0  0  0  0  0  0  0  0
   11.1062  -17.6958   22.1318 C   0  0  1  0  0  0  0  0  0  0  0  0
   12.6156  -17.6144   21.8809 C   0  0  0  0  0  0  0  0  0  0  0  0
   12.9773  -18.6614   20.8745 C   0  0  0  0  0  0  0  0  0  0  0  0
   14.4245  -18.5970   20.5250 C   0  0  0  0  0  0  0  0  0  0  0  0
   14.7715  -18.0335   19.4537 O   0  0  0  0  0  0  0  0  0  0  0  0
   10.7649  -16.5534   23.0128 C   0  0  0  0  0  0  0  0  0  0  0  0
   11.3072  -15.4215   22.8822 O   0  0  0  0  0  0  0  0  0  0  0  0
   15.4170  -19.1290   21.3246 O   0  0  0  0  0  0  0  0  0  0  0  0
    6.4004  -10.5669   27.3458 O   0  0  0  0  0  0  0  0  0  0  0  0
    6.8183  -11.6934   26.6477 C   0  0  0  0  0  0  0  0  0  0  0  0
    5.9260  -12.7238   26.4518 C   0  0  0  0  0  0  0  0  0  0  0  0
    6.3112  -13.8580   25.7613 C   0  0  0  0  0  0  0  0  0  0  0  0
    7.5884  -14.0162   25.2402 C   0  0  0  0  0  0  0  0  0  0  0  0
    8.0058  -15.2370   24.5065 C   0  0  0  0  0  0  0  0  0  0  0  0
    9.3731  -15.7415   24.9455 C   0  0  2  0  0  0  0  0  0  0  0  0
    9.8008  -16.7706   24.0195 N   0  0  0  0  0  0  0  0  0  0  0  0
    9.3642  -16.3067   26.3111 C   0  0  0  0  0  0  0  0  0  0  0  0
    9.1747  -17.6559   26.5679 O   0  0  0  0  0  0  0  0  0  0  0  0
    8.4667  -12.9594   25.4537 C   0  0  0  0  0  0  0  0  0  0  0  0
    8.0940  -11.8231   26.1410 C   0  0  0  0  0  0  0  0  0  0  0  0
    9.5319  -15.5617   27.3156 O   0  0  0  0  0  0  0  0  0  0  0  0
  2  1  1  6
  3  2  1  0
  4  3  1  0
  4  8  1  0
  5  4  2  0
  6  7  2  0
  6  2  1  0
  9  6  1  0
 10  9  1  0
 10 11  1  6
 11 12  1  0
 12 13  1  0
 13 17  1  0
 14 13  2  0
 15 10  1  0
 16 15  2  0
 19 18  1  0
 19 20  2  0
 21 20  1  0
 22 21  2  0
 23 22  1  0
 24 23  1  6
 24 25  1  0
 25 15  1  0
 26 27  1  0
 26 24  1  0
 28 29  2  0
 28 22  1  0
 29 19  1  0
 30 26  2  0
M  END
$$$$
