DEY.pdb
     RDKit          3D

 30 30  0  0  1  0  0  0  0  0999 V2000
    8.6531  -15.0144   20.8769 N   0  0  0  0  0  0  0  0  0  0  0  0
    7.6609  -15.5784   21.7380 C   0  0  1  0  0  0  0  0  0  0  0  0
    6.9402  -16.6979   21.0004 C   0  0  0  0  0  0  0  0  0  0  0  0
    7.4242  -16.7042   19.5950 C   0  0  0  0  0  0  0  0  0  0  0  0
    8.4962  -16.1334   19.2500 O   0  0  0  0  0  0  0  0  0  0  0  0
    8.2804  -16.2007   22.9600 C   0  0  0  0  0  0  0  0  0  0  0  0
    7.5617  -16.6587   23.8838 O   0  0  0  0  0  0  0  0  0  0  0  0
    6.6268  -17.3785   18.6690 O   0  0  0  0  0  0  0  0  0  0  0  0
    9.7033  -16.2746   23.0760 N   0  0  0  0  0  0  0  0  0  0  0  0
   10.3733  -16.9178   24.1776 C   0  0  1  0  0  0  0  0  0  0  0  0
   11.7885  -17.3479   23.7776 C   0  0  0  0  0  0  0  0  0  0  0  0
   11.6802  -18.2726   22.6058 C   0  0  0  0  0  0  0  0  0  0  0  0
   13.0229  -18.5895   22.0424 C   0  0  0  0  0  0  0  0  0  0  0  0
   13.3344  -18.1365   20.9095 O   0  0  0  0  0  0  0  0  0  0  0  0
   10.5224  -16.0201   25.3480 C   0  0  0  0  0  0  0  0  0  0  0  0
   11.0862  -14.8945   25.2612 O   0  0  0  0  0  0  0  0  0  0  0  0
   13.9549  -19.3629   22.7062 O   0  0  0  0  0  0  0  0  0  0  0  0
    6.5875  -11.2993   24.8307 O   0  0  0  0  0  0  0  0  0  0  0  0
    7.1033  -12.2868   25.6611 C   0  0  0  0  0  0  0  0  0  0  0  0
    8.0993  -11.9539   26.5519 C   0  0  0  0  0  0  0  0  0  0  0  0
    8.6332  -12.9137   27.3917 C   0  0  0  0  0  0  0  0  0  0  0  0
    8.2045  -14.2343   27.3829 C   0  0  0  0  0  0  0  0  0  0  0  0
    8.7830  -15.2675   28.2776 C   0  0  0  0  0  0  0  0  0  0  0  0
   10.1597  -15.7289   27.8209 C   0  0  2  0  0  0  0  0  0  0  0  0
   10.0083  -16.4671   26.5833 N   0  0  0  0  0  0  0  0  0  0  0  0
   10.8312  -16.5965   28.8112 C   0  0  0  0  0  0  0  0  0  0  0  0
   11.2078  -17.9024   28.5375 O   0  0  0  0  0  0  0  0  0  0  0  0
    7.1981  -14.5401   26.4733 C   0  0  0  0  0  0  0  0  0  0  0  0
    6.6577  -13.5913   25.6305 C   0  0  0  0  0  0  0  0  0  0  0  0
   11.0904  -16.1680   29.9694 O   0  0  0  0  0  0  0  0  0  0  0  0
  2  1  1  6
  3  2  1  0
  4  3  1  0
  4  8  1  0
  5  4  2  0
  6  7  2  0
  6  2  1  0
  9  6  1  0
 10  9  1  0
 10 11  1  6
 11 12  1  0
 12 13  1  0
 13 17  1  0
 14 13  2  0
 15 10  1  0
 16 15  2  0
 19 18  1  0
 19 20  2  0
 21 20  1  0
 22 21  2  0
 23 22  1  0
 24 23  1  1
 24 25  1  0
 25 15  1  0
 26 27  1  0
 26 24  1  0
 28 29  2  0
 28 22  1  0
 29 19  1  0
 30 26  2  0
M  END
$$$$
