DEY.pdb
     RDKit          3D

 30 30  0  0  1  0  0  0  0  0999 V2000
    8.3014  -17.3580   20.3980 N   0  0  0  0  0  0  0  0  0  0  0  0
    9.0830  -16.4388   21.1650 C   0  0  1  0  0  0  0  0  0  0  0  0
    8.4928  -15.0431   21.0210 C   0  0  0  0  0  0  0  0  0  0  0  0
    8.7417  -14.5835   19.6295 C   0  0  0  0  0  0  0  0  0  0  0  0
    7.8484  -14.0212   18.9367 O   0  0  0  0  0  0  0  0  0  0  0  0
    9.0431  -16.7708   22.6320 C   0  0  0  0  0  0  0  0  0  0  0  0
    7.9916  -16.6072   23.3008 O   0  0  0  0  0  0  0  0  0  0  0  0
   10.0232  -14.8070   19.1239 O   0  0  0  0  0  0  0  0  0  0  0  0
   10.2129  -17.2793   23.2775 N   0  0  0  0  0  0  0  0  0  0  0  0
   10.2170  -17.7695   24.6325 C   0  0  1  0  0  0  0  0  0  0  0  0
   11.1787  -18.9531   24.7800 C   0  0  0  0  0  0  0  0  0  0  0  0
   10.9766  -19.5506   26.1372 C   0  0  0  0  0  0  0  0  0  0  0  0
   11.0370  -21.0387   26.0863 C   0  0  0  0  0  0  0  0  0  0  0  0
   12.0841  -21.6229   26.4708 O   0  0  0  0  0  0  0  0  0  0  0  0
   10.6648  -16.7413   25.6022 C   0  0  0  0  0  0  0  0  0  0  0  0
   11.7283  -16.0827   25.4367 O   0  0  0  0  0  0  0  0  0  0  0  0
    9.9915  -21.8200   25.6346 O   0  0  0  0  0  0  0  0  0  0  0  0
    6.3930  -11.5915   24.5231 O   0  0  0  0  0  0  0  0  0  0  0  0
    6.9956  -12.4382   25.4455 C   0  0  0  0  0  0  0  0  0  0  0  0
    7.9362  -11.9211   26.3081 C   0  0  0  0  0  0  0  0  0  0  0  0
    8.5537  -12.7376   27.2375 C   0  0  0  0  0  0  0  0  0  0  0  0
    8.2660  -14.0913   27.3489 C   0  0  0  0  0  0  0  0  0  0  0  0
    8.9346  -14.9707   28.3400 C   0  0  0  0  0  0  0  0  0  0  0  0
   10.2115  -15.5958   27.7963 C   0  0  2  0  0  0  0  0  0  0  0  0
    9.8553  -16.5162   26.7354 N   0  0  0  0  0  0  0  0  0  0  0  0
   10.9731  -16.3322   28.8268 C   0  0  0  0  0  0  0  0  0  0  0  0
   11.5807  -15.7080   29.9055 O   0  0  0  0  0  0  0  0  0  0  0  0
    7.3125  -14.5844   26.4649 C   0  0  0  0  0  0  0  0  0  0  0  0
    6.6898  -13.7798   25.5336 C   0  0  0  0  0  0  0  0  0  0  0  0
   11.1006  -17.5857   28.7580 O   0  0  0  0  0  0  0  0  0  0  0  0
  2  1  1  6
  3  2  1  0
  4  3  1  0
  4  8  1  0
  5  4  2  0
  6  7  2  0
  6  2  1  0
  9  6  1  0
 10  9  1  0
 10 11  1  6
 11 12  1  0
 12 13  1  0
 13 17  1  0
 14 13  2  0
 15 10  1  0
 16 15  2  0
 19 18  1  0
 19 20  2  0
 21 20  1  0
 22 21  2  0
 23 22  1  0
 24 23  1  1
 24 25  1  0
 25 15  1  0
 26 27  1  0
 26 24  1  0
 28 29  2  0
 28 22  1  0
 29 19  1  0
 30 26  2  0
M  END
$$$$
