DEY.pdb
     RDKit          3D

 30 30  0  0  1  0  0  0  0  0999 V2000
    6.1278  -16.0955   20.4097 N   0  0  0  0  0  0  0  0  0  0  0  0
    7.3721  -15.9568   21.1000 C   0  0  1  0  0  0  0  0  0  0  0  0
    7.9012  -14.5447   20.8929 C   0  0  0  0  0  0  0  0  0  0  0  0
    8.5237  -14.4836   19.5445 C   0  0  0  0  0  0  0  0  0  0  0  0
    8.8722  -15.5222   18.9166 O   0  0  0  0  0  0  0  0  0  0  0  0
    7.2026  -16.1367   22.5843 C   0  0  0  0  0  0  0  0  0  0  0  0
    6.3758  -15.4416   23.2268 O   0  0  0  0  0  0  0  0  0  0  0  0
    8.7047  -13.2099   19.0037 O   0  0  0  0  0  0  0  0  0  0  0  0
    7.9891  -17.1093   23.2766 N   0  0  0  0  0  0  0  0  0  0  0  0
    7.8353  -17.3948   24.6805 C   0  0  1  0  0  0  0  0  0  0  0  0
    7.8859  -18.9045   24.9375 C   0  0  0  0  0  0  0  0  0  0  0  0
    7.5267  -19.1450   26.3703 C   0  0  0  0  0  0  0  0  0  0  0  0
    7.5023  -20.6018   26.6834 C   0  0  0  0  0  0  0  0  0  0  0  0
    6.6299  -21.3304   26.1415 O   0  0  0  0  0  0  0  0  0  0  0  0
    8.9150  -16.7932   25.4993 C   0  0  0  0  0  0  0  0  0  0  0  0
   10.1339  -16.9218   25.1993 O   0  0  0  0  0  0  0  0  0  0  0  0
    8.3978  -21.2017   27.5469 O   0  0  0  0  0  0  0  0  0  0  0  0
    6.2379  -10.6204   24.6744 O   0  0  0  0  0  0  0  0  0  0  0  0
    6.8802  -11.5091   25.5280 C   0  0  0  0  0  0  0  0  0  0  0  0
    6.1639  -12.0788   26.5569 C   0  0  0  0  0  0  0  0  0  0  0  0
    6.7741  -12.9668   27.4233 C   0  0  0  0  0  0  0  0  0  0  0  0
    8.1107  -13.3240   27.3060 C   0  0  0  0  0  0  0  0  0  0  0  0
    8.7691  -14.2703   28.2407 C   0  0  0  0  0  0  0  0  0  0  0  0
    9.4856  -15.4011   27.5162 C   0  0  2  0  0  0  0  0  0  0  0  0
    8.5354  -16.0609   26.6437 N   0  0  0  0  0  0  0  0  0  0  0  0
   10.0558  -16.4035   28.4405 C   0  0  0  0  0  0  0  0  0  0  0  0
    9.7242  -17.7489   28.3921 O   0  0  0  0  0  0  0  0  0  0  0  0
    8.8077  -12.7329   26.2579 C   0  0  0  0  0  0  0  0  0  0  0  0
    8.2098  -11.8457   25.3873 C   0  0  0  0  0  0  0  0  0  0  0  0
   10.8841  -16.0606   29.3285 O   0  0  0  0  0  0  0  0  0  0  0  0
  2  1  1  6
  3  2  1  0
  4  3  1  0
  4  8  1  0
  5  4  2  0
  6  7  2  0
  6  2  1  0
  9  6  1  0
 10  9  1  0
 10 11  1  6
 11 12  1  0
 12 13  1  0
 13 17  1  0
 14 13  2  0
 15 10  1  0
 16 15  2  0
 19 18  1  0
 19 20  2  0
 21 20  1  0
 22 21  2  0
 23 22  1  0
 24 23  1  1
 24 25  1  0
 25 15  1  0
 26 27  1  0
 26 24  1  0
 28 29  2  0
 28 22  1  0
 29 19  1  0
 30 26  2  0
M  END
$$$$
