DEY.pdb
     RDKit          3D

 30 30  0  0  1  0  0  0  0  0999 V2000
   10.6752  -18.4302   18.3398 N   0  0  0  0  0  0  0  0  0  0  0  0
   11.5516  -17.9199   19.3476 C   0  0  1  0  0  0  0  0  0  0  0  0
   12.6379  -17.0842   18.6856 C   0  0  0  0  0  0  0  0  0  0  0  0
   13.8100  -17.9664   18.4456 C   0  0  0  0  0  0  0  0  0  0  0  0
   13.6882  -19.2064   18.2418 O   0  0  0  0  0  0  0  0  0  0  0  0
   10.8269  -17.0047   20.2971 C   0  0  0  0  0  0  0  0  0  0  0  0
   11.4621  -16.2228   21.0486 O   0  0  0  0  0  0  0  0  0  0  0  0
   15.0616  -17.3491   18.4573 O   0  0  0  0  0  0  0  0  0  0  0  0
    9.3983  -17.0208   20.3482 N   0  0  0  0  0  0  0  0  0  0  0  0
    8.6317  -16.2079   21.2580 C   0  0  1  0  0  0  0  0  0  0  0  0
    7.1295  -16.3965   21.0224 C   0  0  0  0  0  0  0  0  0  0  0  0
    6.8826  -16.3681   19.5465 C   0  0  0  0  0  0  0  0  0  0  0  0
    6.5845  -17.7311   19.0228 C   0  0  0  0  0  0  0  0  0  0  0  0
    6.7215  -18.7238   19.7853 O   0  0  0  0  0  0  0  0  0  0  0  0
    8.8817  -16.5604   22.6761 C   0  0  0  0  0  0  0  0  0  0  0  0
    9.1184  -17.7453   23.0400 O   0  0  0  0  0  0  0  0  0  0  0  0
    6.1601  -17.9650   17.7295 O   0  0  0  0  0  0  0  0  0  0  0  0
   10.5356  -14.8269   31.2433 O   0  0  0  0  0  0  0  0  0  0  0  0
   10.2427  -14.6978   29.8911 C   0  0  0  0  0  0  0  0  0  0  0  0
   10.8288  -15.5662   28.9974 C   0  0  0  0  0  0  0  0  0  0  0  0
   10.5577  -15.4637   27.6455 C   0  0  0  0  0  0  0  0  0  0  0  0
    9.7002  -14.5023   27.1276 C   0  0  0  0  0  0  0  0  0  0  0  0
    9.4153  -14.3856   25.6757 C   0  0  0  0  0  0  0  0  0  0  0  0
    9.0607  -15.7234   25.0423 C   0  0  2  0  0  0  0  0  0  0  0  0
    8.8463  -15.5166   23.6243 N   0  0  0  0  0  0  0  0  0  0  0  0
    7.8431  -16.3276   25.6226 C   0  0  0  0  0  0  0  0  0  0  0  0
    6.5625  -15.9244   25.2766 O   0  0  0  0  0  0  0  0  0  0  0  0
    9.1236  -13.6402   28.0540 C   0  0  0  0  0  0  0  0  0  0  0  0
    9.3864  -13.7327   29.4049 C   0  0  0  0  0  0  0  0  0  0  0  0
    7.9294  -17.2538   26.4752 O   0  0  0  0  0  0  0  0  0  0  0  0
  2  1  1  6
  3  2  1  0
  4  3  1  0
  4  8  1  0
  5  4  2  0
  6  7  2  0
  6  2  1  0
  9  6  1  0
 10  9  1  0
 10 11  1  6
 11 12  1  0
 12 13  1  0
 13 17  1  0
 14 13  2  0
 15 10  1  0
 16 15  2  0
 19 18  1  0
 19 20  2  0
 21 20  1  0
 22 21  2  0
 23 22  1  0
 24 23  1  1
 24 25  1  0
 25 15  1  0
 26 27  1  0
 26 24  1  0
 28 29  2  0
 28 22  1  0
 29 19  1  0
 30 26  2  0
M  END
$$$$
