DEY.pdb
     RDKit          3D

 30 30  0  0  1  0  0  0  0  0999 V2000
   10.0358  -16.6896   18.1074 N   0  0  0  0  0  0  0  0  0  0  0  0
    8.9693  -17.1711   18.9289 C   0  0  1  0  0  0  0  0  0  0  0  0
    8.4626  -18.4905   18.3636 C   0  0  0  0  0  0  0  0  0  0  0  0
    7.9873  -18.2408   16.9775 C   0  0  0  0  0  0  0  0  0  0  0  0
    8.7691  -18.2510   15.9861 O   0  0  0  0  0  0  0  0  0  0  0  0
    9.4381  -17.4578   20.3297 C   0  0  0  0  0  0  0  0  0  0  0  0
    8.6393  -17.8843   21.2013 O   0  0  0  0  0  0  0  0  0  0  0  0
    6.6223  -17.9926   16.8268 O   0  0  0  0  0  0  0  0  0  0  0  0
   10.8080  -17.2444   20.6781 N   0  0  0  0  0  0  0  0  0  0  0  0
   11.3218  -17.4307   22.0113 C   0  0  1  0  0  0  0  0  0  0  0  0
   12.8534  -17.4734   22.0032 C   0  0  0  0  0  0  0  0  0  0  0  0
   13.3195  -17.7228   23.4033 C   0  0  0  0  0  0  0  0  0  0  0  0
   14.8073  -17.7657   23.4774 C   0  0  0  0  0  0  0  0  0  0  0  0
   15.3821  -18.8776   23.6145 O   0  0  0  0  0  0  0  0  0  0  0  0
   10.9375  -16.3263   22.9227 C   0  0  0  0  0  0  0  0  0  0  0  0
   11.2052  -15.1206   22.6639 O   0  0  0  0  0  0  0  0  0  0  0  0
   15.5981  -16.6359   23.4018 O   0  0  0  0  0  0  0  0  0  0  0  0
    5.6871  -11.0411   27.0972 O   0  0  0  0  0  0  0  0  0  0  0  0
    6.3777  -12.0081   26.3767 C   0  0  0  0  0  0  0  0  0  0  0  0
    7.5100  -11.6400   25.6848 C   0  0  0  0  0  0  0  0  0  0  0  0
    8.2193  -12.5786   24.9585 C   0  0  0  0  0  0  0  0  0  0  0  0
    7.8377  -13.9118   24.8887 C   0  0  0  0  0  0  0  0  0  0  0  0
    8.5932  -14.9184   24.1023 C   0  0  0  0  0  0  0  0  0  0  0  0
    9.5918  -15.6915   24.9519 C   0  0  2  0  0  0  0  0  0  0  0  0
   10.2531  -16.6665   24.1083 N   0  0  0  0  0  0  0  0  0  0  0  0
    8.9557  -16.3977   26.0837 C   0  0  0  0  0  0  0  0  0  0  0  0
    8.4590  -17.6883   25.9843 O   0  0  0  0  0  0  0  0  0  0  0  0
    6.6910  -14.2532   25.5975 C   0  0  0  0  0  0  0  0  0  0  0  0
    5.9751  -13.3257   26.3255 C   0  0  0  0  0  0  0  0  0  0  0  0
    8.8391  -15.8358   27.2075 O   0  0  0  0  0  0  0  0  0  0  0  0
  2  1  1  6
  3  2  1  0
  4  3  1  0
  4  8  1  0
  5  4  2  0
  6  7  2  0
  6  2  1  0
  9  6  1  0
 10  9  1  0
 10 11  1  6
 11 12  1  0
 12 13  1  0
 13 17  1  0
 14 13  2  0
 15 10  1  0
 16 15  2  0
 19 18  1  0
 19 20  2  0
 21 20  1  0
 22 21  2  0
 23 22  1  0
 24 23  1  6
 24 25  1  0
 25 15  1  0
 26 27  1  0
 26 24  1  0
 28 29  2  0
 28 22  1  0
 29 19  1  0
 30 26  2  0
M  END
$$$$
