DEY.pdb
     RDKit          3D

 30 30  0  0  1  0  0  0  0  0999 V2000
   11.5297  -19.0393   17.7650 N   0  0  0  0  0  0  0  0  0  0  0  0
   12.0029  -18.5976   19.0398 C   0  0  1  0  0  0  0  0  0  0  0  0
   12.7677  -17.2936   18.8621 C   0  0  0  0  0  0  0  0  0  0  0  0
   14.1633  -17.6315   18.4779 C   0  0  0  0  0  0  0  0  0  0  0  0
   14.5782  -18.8230   18.4301 O   0  0  0  0  0  0  0  0  0  0  0  0
   10.8647  -18.3014   19.9784 C   0  0  0  0  0  0  0  0  0  0  0  0
    9.9655  -17.4824   19.6617 O   0  0  0  0  0  0  0  0  0  0  0  0
   14.9980  -16.5561   18.1704 O   0  0  0  0  0  0  0  0  0  0  0  0
   10.8007  -18.9575   21.2469 N   0  0  0  0  0  0  0  0  0  0  0  0
    9.6765  -18.8404   22.1405 C   0  0  1  0  0  0  0  0  0  0  0  0
    9.5972  -20.0507   23.0767 C   0  0  0  0  0  0  0  0  0  0  0  0
    8.2955  -19.9855   23.8125 C   0  0  0  0  0  0  0  0  0  0  0  0
    8.1370  -21.1467   24.7330 C   0  0  0  0  0  0  0  0  0  0  0  0
    7.5282  -20.9855   25.8234 O   0  0  0  0  0  0  0  0  0  0  0  0
    9.7699  -17.6429   23.0096 C   0  0  0  0  0  0  0  0  0  0  0  0
   10.8562  -17.2858   23.5434 O   0  0  0  0  0  0  0  0  0  0  0  0
    8.6284  -22.4058   24.4488 O   0  0  0  0  0  0  0  0  0  0  0  0
    6.6317  -10.3239   26.9968 O   0  0  0  0  0  0  0  0  0  0  0  0
    6.7933  -11.4475   26.1952 C   0  0  0  0  0  0  0  0  0  0  0  0
    6.1369  -12.6087   26.5372 C   0  0  0  0  0  0  0  0  0  0  0  0
    6.2771  -13.7437   25.7601 C   0  0  0  0  0  0  0  0  0  0  0  0
    7.0686  -13.7737   24.6197 C   0  0  0  0  0  0  0  0  0  0  0  0
    7.2270  -14.9938   23.7897 C   0  0  0  0  0  0  0  0  0  0  0  0
    8.5389  -15.7166   24.0608 C   0  0  2  0  0  0  0  0  0  0  0  0
    8.5901  -16.9010   23.2279 N   0  0  0  0  0  0  0  0  0  0  0  0
    8.6875  -16.1239   25.4737 C   0  0  0  0  0  0  0  0  0  0  0  0
    9.4657  -15.4237   26.3828 O   0  0  0  0  0  0  0  0  0  0  0  0
    7.7185  -12.5866   24.2999 C   0  0  0  0  0  0  0  0  0  0  0  0
    7.5863  -11.4481   25.0674 C   0  0  0  0  0  0  0  0  0  0  0  0
    8.0970  -17.1493   25.9121 O   0  0  0  0  0  0  0  0  0  0  0  0
  2  1  1  6
  3  2  1  0
  4  3  1  0
  4  8  1  0
  5  4  2  0
  6  7  2  0
  6  2  1  0
  9  6  1  0
 10  9  1  0
 10 11  1  1
 11 12  1  0
 12 13  1  0
 13 17  1  0
 14 13  2  0
 15 10  1  0
 16 15  2  0
 19 18  1  0
 19 20  2  0
 21 20  1  0
 22 21  2  0
 23 22  1  0
 24 23  1  1
 24 25  1  0
 25 15  1  0
 26 27  1  0
 26 24  1  0
 28 29  2  0
 28 22  1  0
 29 19  1  0
 30 26  2  0
M  END
$$$$
