DEY.pdb
     RDKit          3D

 30 30  0  0  1  0  0  0  0  0999 V2000
   11.5433  -18.2934   18.1664 N   0  0  0  0  0  0  0  0  0  0  0  0
   10.2668  -17.6501   18.1967 C   0  0  1  0  0  0  0  0  0  0  0  0
    9.3237  -18.3711   17.2441 C   0  0  0  0  0  0  0  0  0  0  0  0
    9.9144  -18.3075   15.8815 C   0  0  0  0  0  0  0  0  0  0  0  0
   10.0570  -17.2176   15.2603 O   0  0  0  0  0  0  0  0  0  0  0  0
    9.6402  -17.7316   19.5623 C   0  0  0  0  0  0  0  0  0  0  0  0
    8.5140  -17.2203   19.7854 O   0  0  0  0  0  0  0  0  0  0  0  0
   10.3062  -19.5234   15.3197 O   0  0  0  0  0  0  0  0  0  0  0  0
   10.3304  -18.3981   20.6221 N   0  0  0  0  0  0  0  0  0  0  0  0
    9.7939  -18.5311   21.9527 C   0  0  1  0  0  0  0  0  0  0  0  0
   10.6185  -19.5271   22.7748 C   0  0  0  0  0  0  0  0  0  0  0  0
   10.0040  -20.8826   22.6166 C   0  0  0  0  0  0  0  0  0  0  0  0
   10.7589  -21.9107   23.3871 C   0  0  0  0  0  0  0  0  0  0  0  0
   10.2731  -23.0664   23.5059 O   0  0  0  0  0  0  0  0  0  0  0  0
    9.8158  -17.2507   22.6997 C   0  0  0  0  0  0  0  0  0  0  0  0
   10.8180  -16.4840   22.6854 O   0  0  0  0  0  0  0  0  0  0  0  0
   11.9787  -21.6595   23.9842 O   0  0  0  0  0  0  0  0  0  0  0  0
    6.2855  -10.4288   27.1341 O   0  0  0  0  0  0  0  0  0  0  0  0
    6.5203  -11.5472   26.3435 C   0  0  0  0  0  0  0  0  0  0  0  0
    5.9364  -12.7441   26.6936 C   0  0  0  0  0  0  0  0  0  0  0  0
    6.1504  -13.8749   25.9275 C   0  0  0  0  0  0  0  0  0  0  0  0
    6.9471  -13.8656   24.7903 C   0  0  0  0  0  0  0  0  0  0  0  0
    7.1848  -15.0808   23.9721 C   0  0  0  0  0  0  0  0  0  0  0  0
    8.5566  -15.6915   24.2212 C   0  0  2  0  0  0  0  0  0  0  0  0
    8.6655  -16.9073   23.4405 N   0  0  0  0  0  0  0  0  0  0  0  0
    8.7885  -16.0191   25.6436 C   0  0  0  0  0  0  0  0  0  0  0  0
    9.4886  -15.1880   26.5046 O   0  0  0  0  0  0  0  0  0  0  0  0
    7.5228  -12.6431   24.4620 C   0  0  0  0  0  0  0  0  0  0  0  0
    7.3166  -11.5083   25.2186 C   0  0  0  0  0  0  0  0  0  0  0  0
    8.3469  -17.0940   26.1353 O   0  0  0  0  0  0  0  0  0  0  0  0
  2  1  1  1
  3  2  1  0
  4  3  1  0
  4  8  1  0
  5  4  2  0
  6  7  2  0
  6  2  1  0
  9  6  1  0
 10  9  1  0
 10 11  1  1
 11 12  1  0
 12 13  1  0
 13 17  1  0
 14 13  2  0
 15 10  1  0
 16 15  2  0
 19 18  1  0
 19 20  2  0
 21 20  1  0
 22 21  2  0
 23 22  1  0
 24 23  1  1
 24 25  1  0
 25 15  1  0
 26 27  1  0
 26 24  1  0
 28 29  2  0
 28 22  1  0
 29 19  1  0
 30 26  2  0
M  END
$$$$
