DEY.pdb
     RDKit          3D

 30 30  0  0  1  0  0  0  0  0999 V2000
    9.0073  -14.0933   19.6683 N   0  0  0  0  0  0  0  0  0  0  0  0
    7.7719  -14.3973   20.3208 C   0  0  1  0  0  0  0  0  0  0  0  0
    6.7860  -14.9355   19.2936 C   0  0  0  0  0  0  0  0  0  0  0  0
    7.5217  -15.8673   18.3991 C   0  0  0  0  0  0  0  0  0  0  0  0
    8.5874  -16.4423   18.7566 O   0  0  0  0  0  0  0  0  0  0  0  0
    7.9450  -15.4771   21.3543 C   0  0  0  0  0  0  0  0  0  0  0  0
    6.9674  -15.8816   22.0327 O   0  0  0  0  0  0  0  0  0  0  0  0
    6.9701  -16.0756   17.1342 O   0  0  0  0  0  0  0  0  0  0  0  0
    9.2353  -16.0534   21.5705 N   0  0  0  0  0  0  0  0  0  0  0  0
    9.4969  -17.0474   22.5804 C   0  0  1  0  0  0  0  0  0  0  0  0
   10.7794  -17.8227   22.2614 C   0  0  0  0  0  0  0  0  0  0  0  0
   10.8324  -19.0223   23.1547 C   0  0  0  0  0  0  0  0  0  0  0  0
   12.0928  -19.7911   22.9519 C   0  0  0  0  0  0  0  0  0  0  0  0
   12.9521  -19.3558   22.1410 O   0  0  0  0  0  0  0  0  0  0  0  0
    9.6909  -16.4491   23.9229 C   0  0  0  0  0  0  0  0  0  0  0  0
   10.4004  -15.4210   24.1018 O   0  0  0  0  0  0  0  0  0  0  0  0
   12.3711  -20.9701   23.6153 O   0  0  0  0  0  0  0  0  0  0  0  0
    6.4100  -10.7219   25.9234 O   0  0  0  0  0  0  0  0  0  0  0  0
    6.7462  -12.0507   26.1522 C   0  0  0  0  0  0  0  0  0  0  0  0
    5.9579  -13.0397   25.6074 C   0  0  0  0  0  0  0  0  0  0  0  0
    6.2658  -14.3712   25.8166 C   0  0  0  0  0  0  0  0  0  0  0  0
    7.3605  -14.7742   26.5697 C   0  0  0  0  0  0  0  0  0  0  0  0
    7.6869  -16.2032   26.8025 C   0  0  0  0  0  0  0  0  0  0  0  0
    9.1021  -16.5559   26.3669 C   0  0  2  0  0  0  0  0  0  0  0  0
    9.0500  -17.0723   25.0141 N   0  0  0  0  0  0  0  0  0  0  0  0
    9.7338  -17.5697   27.2373 C   0  0  0  0  0  0  0  0  0  0  0  0
   10.1207  -18.8203   26.7807 O   0  0  0  0  0  0  0  0  0  0  0  0
    8.1374  -13.7535   27.1065 C   0  0  0  0  0  0  0  0  0  0  0  0
    7.8402  -12.4217   26.9047 C   0  0  0  0  0  0  0  0  0  0  0  0
    9.9472  -17.3260   28.4569 O   0  0  0  0  0  0  0  0  0  0  0  0
  2  1  1  6
  3  2  1  0
  4  3  1  0
  4  8  1  0
  5  4  2  0
  6  7  2  0
  6  2  1  0
  9  6  1  0
 10  9  1  0
 10 11  1  6
 11 12  1  0
 12 13  1  0
 13 17  1  0
 14 13  2  0
 15 10  1  0
 16 15  2  0
 19 18  1  0
 19 20  2  0
 21 20  1  0
 22 21  2  0
 23 22  1  0
 24 23  1  1
 24 25  1  0
 25 15  1  0
 26 27  1  0
 26 24  1  0
 28 29  2  0
 28 22  1  0
 29 19  1  0
 30 26  2  0
M  END
$$$$
