DEY.pdb
     RDKit          3D

 30 30  0  0  1  0  0  0  0  0999 V2000
    5.0790  -19.5073   23.5909 N   0  0  0  0  0  0  0  0  0  0  0  0
    6.2564  -20.1673   23.1192 C   0  0  1  0  0  0  0  0  0  0  0  0
    5.8945  -21.0350   21.9221 C   0  0  0  0  0  0  0  0  0  0  0  0
    4.8029  -21.9543   22.3378 C   0  0  0  0  0  0  0  0  0  0  0  0
    3.6192  -21.8268   21.9173 O   0  0  0  0  0  0  0  0  0  0  0  0
    7.2860  -19.1815   22.6374 C   0  0  0  0  0  0  0  0  0  0  0  0
    8.3444  -19.5743   22.0850 O   0  0  0  0  0  0  0  0  0  0  0  0
    5.1559  -22.9734   23.2236 O   0  0  0  0  0  0  0  0  0  0  0  0
    7.0619  -17.7799   22.8073 N   0  0  0  0  0  0  0  0  0  0  0  0
    8.0166  -16.7745   22.4152 C   0  0  1  0  0  0  0  0  0  0  0  0
    7.3236  -15.6243   21.6774 C   0  0  0  0  0  0  0  0  0  0  0  0
    8.3688  -14.6301   21.2787 C   0  0  0  0  0  0  0  0  0  0  0  0
    8.7319  -14.7758   19.8408 C   0  0  0  0  0  0  0  0  0  0  0  0
    9.9139  -14.5346   19.4798 O   0  0  0  0  0  0  0  0  0  0  0  0
    8.7085  -16.1702   23.5790 C   0  0  0  0  0  0  0  0  0  0  0  0
    9.6283  -15.3172   23.4424 O   0  0  0  0  0  0  0  0  0  0  0  0
    7.8288  -15.1670   18.8717 O   0  0  0  0  0  0  0  0  0  0  0  0
    5.8755  -10.4347   25.5929 O   0  0  0  0  0  0  0  0  0  0  0  0
    6.3745  -11.6862   25.9329 C   0  0  0  0  0  0  0  0  0  0  0  0
    5.4891  -12.6906   26.2547 C   0  0  0  0  0  0  0  0  0  0  0  0
    5.9540  -13.9468   26.5973 C   0  0  0  0  0  0  0  0  0  0  0  0
    7.3070  -14.2567   26.6349 C   0  0  0  0  0  0  0  0  0  0  0  0
    7.8076  -15.6022   27.0112 C   0  0  0  0  0  0  0  0  0  0  0  0
    8.9122  -16.0925   26.0857 C   0  0  2  0  0  0  0  0  0  0  0  0
    8.3037  -16.5831   24.8657 N   0  0  0  0  0  0  0  0  0  0  0  0
    9.7200  -17.1771   26.6818 C   0  0  0  0  0  0  0  0  0  0  0  0
   10.4840  -17.0070   27.8262 O   0  0  0  0  0  0  0  0  0  0  0  0
    8.1763  -13.2227   26.3051 C   0  0  0  0  0  0  0  0  0  0  0  0
    7.7244  -11.9655   25.9617 C   0  0  0  0  0  0  0  0  0  0  0  0
    9.7435  -18.3239   26.1559 O   0  0  0  0  0  0  0  0  0  0  0  0
  2  1  1  6
  3  2  1  0
  4  3  1  0
  4  8  1  0
  5  4  2  0
  6  7  2  0
  6  2  1  0
  9  6  1  0
 10  9  1  0
 10 11  1  1
 11 12  1  0
 12 13  1  0
 13 17  1  0
 14 13  2  0
 15 10  1  0
 16 15  2  0
 19 18  1  0
 19 20  2  0
 21 20  1  0
 22 21  2  0
 23 22  1  0
 24 23  1  1
 24 25  1  0
 25 15  1  0
 26 27  1  0
 26 24  1  0
 28 29  2  0
 28 22  1  0
 29 19  1  0
 30 26  2  0
M  END
$$$$
