DEY.pdb
     RDKit          3D

 30 30  0  0  1  0  0  0  0  0999 V2000
    8.2107  -18.9535   20.5245 N   0  0  0  0  0  0  0  0  0  0  0  0
    8.4725  -17.6239   20.9802 C   0  0  1  0  0  0  0  0  0  0  0  0
    7.1513  -16.9365   21.2945 C   0  0  0  0  0  0  0  0  0  0  0  0
    6.3658  -16.8593   20.0349 C   0  0  0  0  0  0  0  0  0  0  0  0
    5.6212  -17.8025   19.6476 O   0  0  0  0  0  0  0  0  0  0  0  0
    9.2685  -17.6251   22.2571 C   0  0  0  0  0  0  0  0  0  0  0  0
    8.9337  -18.3552   23.2238 O   0  0  0  0  0  0  0  0  0  0  0  0
    6.4945  -15.6820   19.2966 O   0  0  0  0  0  0  0  0  0  0  0  0
   10.4208  -16.7875   22.3769 N   0  0  0  0  0  0  0  0  0  0  0  0
   11.2716  -16.7767   23.5397 C   0  0  1  0  0  0  0  0  0  0  0  0
   12.5516  -15.9788   23.2700 C   0  0  0  0  0  0  0  0  0  0  0  0
   13.3633  -16.7283   22.2604 C   0  0  0  0  0  0  0  0  0  0  0  0
   14.6124  -15.9916   21.9176 C   0  0  0  0  0  0  0  0  0  0  0  0
   15.6987  -16.3488   22.4449 O   0  0  0  0  0  0  0  0  0  0  0  0
   10.6191  -16.1409   24.7093 C   0  0  0  0  0  0  0  0  0  0  0  0
    9.8834  -15.1222   24.5941 O   0  0  0  0  0  0  0  0  0  0  0  0
   14.6414  -14.9250   21.0407 O   0  0  0  0  0  0  0  0  0  0  0  0
    6.6365  -11.0529   25.9158 O   0  0  0  0  0  0  0  0  0  0  0  0
    7.1359  -12.3240   26.1726 C   0  0  0  0  0  0  0  0  0  0  0  0
    7.9879  -12.5010   27.2399 C   0  0  0  0  0  0  0  0  0  0  0  0
    8.5017  -13.7533   27.5217 C   0  0  0  0  0  0  0  0  0  0  0  0
    8.1941  -14.8740   26.7619 C   0  0  0  0  0  0  0  0  0  0  0  0
    8.7520  -16.2170   27.0580 C   0  0  0  0  0  0  0  0  0  0  0  0
   10.2674  -16.1998   27.2002 C   0  0  2  0  0  0  0  0  0  0  0  0
   10.8483  -16.7156   25.9770 N   0  0  0  0  0  0  0  0  0  0  0  0
   10.7460  -17.0181   28.3341 C   0  0  0  0  0  0  0  0  0  0  0  0
   11.5861  -18.1095   28.1751 O   0  0  0  0  0  0  0  0  0  0  0  0
    7.3316  -14.6640   25.6914 C   0  0  0  0  0  0  0  0  0  0  0  0
    6.8128  -13.4196   25.4005 C   0  0  0  0  0  0  0  0  0  0  0  0
   10.3969  -16.7451   29.5155 O   0  0  0  0  0  0  0  0  0  0  0  0
  2  1  1  1
  3  2  1  0
  4  3  1  0
  4  8  1  0
  5  4  2  0
  6  7  2  0
  6  2  1  0
  9  6  1  0
 10  9  1  0
 10 11  1  6
 11 12  1  0
 12 13  1  0
 13 17  1  0
 14 13  2  0
 15 10  1  0
 16 15  2  0
 19 18  1  0
 19 20  2  0
 21 20  1  0
 22 21  2  0
 23 22  1  0
 24 23  1  6
 24 25  1  0
 25 15  1  0
 26 27  1  0
 26 24  1  0
 28 29  2  0
 28 22  1  0
 29 19  1  0
 30 26  2  0
M  END
$$$$
