DEY.pdb
     RDKit          3D

 30 30  0  0  1  0  0  0  0  0999 V2000
   13.8138  -16.2607   17.9870 N   0  0  0  0  0  0  0  0  0  0  0  0
   13.9606  -15.3765   19.1009 C   0  0  1  0  0  0  0  0  0  0  0  0
   13.9085  -13.9384   18.6049 C   0  0  0  0  0  0  0  0  0  0  0  0
   15.1545  -13.6744   17.8384 C   0  0  0  0  0  0  0  0  0  0  0  0
   15.2527  -12.7146   17.0240 O   0  0  0  0  0  0  0  0  0  0  0  0
   12.8300  -15.5320   20.0815 C   0  0  0  0  0  0  0  0  0  0  0  0
   12.3118  -14.5276   20.6313 O   0  0  0  0  0  0  0  0  0  0  0  0
   16.2183  -14.5483   18.0667 O   0  0  0  0  0  0  0  0  0  0  0  0
   12.3352  -16.8362   20.3944 N   0  0  0  0  0  0  0  0  0  0  0  0
   11.2985  -17.0752   21.3662 C   0  0  1  0  0  0  0  0  0  0  0  0
   10.8548  -18.5415   21.3391 C   0  0  0  0  0  0  0  0  0  0  0  0
   10.1916  -18.8028   20.0232 C   0  0  0  0  0  0  0  0  0  0  0  0
    9.8080  -20.2364   19.8873 C   0  0  0  0  0  0  0  0  0  0  0  0
   10.2939  -20.9138   18.9435 O   0  0  0  0  0  0  0  0  0  0  0  0
   11.7499  -16.7987   22.7511 C   0  0  0  0  0  0  0  0  0  0  0  0
   12.9403  -16.9972   23.1197 O   0  0  0  0  0  0  0  0  0  0  0  0
    8.9374  -20.8686   20.7533 O   0  0  0  0  0  0  0  0  0  0  0  0
   10.4842  -14.5917   31.2899 O   0  0  0  0  0  0  0  0  0  0  0  0
   10.3438  -14.7438   29.9158 C   0  0  0  0  0  0  0  0  0  0  0  0
    9.9550  -15.9675   29.4181 C   0  0  0  0  0  0  0  0  0  0  0  0
    9.8063  -16.1509   28.0558 C   0  0  0  0  0  0  0  0  0  0  0  0
   10.0356  -15.1353   27.1371 C   0  0  0  0  0  0  0  0  0  0  0  0
    9.8850  -15.3334   25.6740 C   0  0  0  0  0  0  0  0  0  0  0  0
   11.0927  -16.0200   25.0518 C   0  0  2  0  0  0  0  0  0  0  0  0
   10.7949  -16.2997   23.6616 N   0  0  0  0  0  0  0  0  0  0  0  0
   11.4418  -17.2879   25.7262 C   0  0  0  0  0  0  0  0  0  0  0  0
   10.7250  -18.4608   25.5453 O   0  0  0  0  0  0  0  0  0  0  0  0
   10.4267  -13.9116   27.6694 C   0  0  0  0  0  0  0  0  0  0  0  0
   10.5784  -13.7167   29.0265 C   0  0  0  0  0  0  0  0  0  0  0  0
   12.4286  -17.3477   26.5104 O   0  0  0  0  0  0  0  0  0  0  0  0
  2  1  1  6
  3  2  1  0
  4  3  1  0
  4  8  1  0
  5  4  2  0
  6  7  2  0
  6  2  1  0
  9  6  1  0
 10  9  1  0
 10 11  1  1
 11 12  1  0
 12 13  1  0
 13 17  1  0
 14 13  2  0
 15 10  1  0
 16 15  2  0
 19 18  1  0
 19 20  2  0
 21 20  1  0
 22 21  2  0
 23 22  1  0
 24 23  1  1
 24 25  1  0
 25 15  1  0
 26 27  1  0
 26 24  1  0
 28 29  2  0
 28 22  1  0
 29 19  1  0
 30 26  2  0
M  END
$$$$
