YNN.pdb
     RDKit          3D

 29 29  0  0  1  0  0  0  0  0999 V2000
    5.4301  -10.7463   27.9005 O   0  0  0  0  0  0  0  0  0  0  0  0
    6.1512  -11.7252   27.2412 C   0  0  0  0  0  0  0  0  0  0  0  0
    6.2212  -11.6930   25.8704 C   0  0  0  0  0  0  0  0  0  0  0  0
    6.9352  -12.6639   25.2292 C   0  0  0  0  0  0  0  0  0  0  0  0
    7.5937  -13.6815   25.8873 C   0  0  0  0  0  0  0  0  0  0  0  0
    8.3526  -14.7173   25.1617 C   0  0  0  0  0  0  0  0  0  0  0  0
    7.3994  -15.6144   24.3973 C   0  0  2  0  0  0  0  0  0  0  0  0
    6.7063  -16.5265   25.2687 N   0  0  0  0  0  0  0  0  0  0  0  0
    8.0818  -16.3767   23.3412 C   0  0  0  0  0  0  0  0  0  0  0  0
    8.2533  -17.6105   23.5057 O   0  0  0  0  0  0  0  0  0  0  0  0
    7.5153  -13.7014   27.2593 C   0  0  0  0  0  0  0  0  0  0  0  0
    6.7903  -12.7172   27.9320 C   0  0  0  0  0  0  0  0  0  0  0  0
    6.3372  -15.8946   20.1467 N   0  0  0  0  0  0  0  0  0  0  0  0
    7.5694  -15.4410   19.6130 C   0  0  0  0  0  0  0  0  0  0  0  0
    7.5634  -14.3281   18.9803 O   0  0  0  0  0  0  0  0  0  0  0  0
    8.8538  -16.1546   19.7332 C   0  0  0  0  0  0  0  0  0  0  0  0
    9.1128  -16.6627   21.1028 C   0  0  2  0  0  0  0  0  0  0  0  0
    8.5758  -15.8193   22.1205 N   0  0  0  0  0  0  0  0  0  0  0  0
   10.5443  -17.0036   21.3550 C   0  0  0  0  0  0  0  0  0  0  0  0
   11.2670  -17.3068   20.3913 O   0  0  0  0  0  0  0  0  0  0  0  0
   15.6284  -15.4824   23.2631 N   0  0  0  0  0  0  0  0  0  0  0  0
   14.7797  -16.3608   22.5680 C   0  0  0  0  0  0  0  0  0  0  0  0
   15.2436  -17.4728   22.1278 O   0  0  0  0  0  0  0  0  0  0  0  0
   13.3525  -16.0855   22.3001 C   0  0  0  0  0  0  0  0  0  0  0  0
   12.5194  -17.1719   22.9461 C   0  0  2  0  0  0  0  0  0  0  0  0
   11.1147  -16.9949   22.6452 N   0  0  0  0  0  0  0  0  0  0  0  0
   12.7044  -17.1255   24.3996 C   0  0  0  0  0  0  0  0  0  0  0  0
   13.3222  -18.1882   25.0449 O   0  0  0  0  0  0  0  0  0  0  0  0
   12.3294  -16.1575   25.1233 O   0  0  0  0  0  0  0  0  0  0  0  0
  2  1  1  0
  2 12  2  0
  3  2  1  0
  4  3  2  0
  4  5  1  0
  5 11  2  0
  6  5  1  0
  7  8  1  1
  7  6  1  0
  9  7  1  0
 10  9  2  0
 11 12  1  0
 13 14  1  0
 14 15  2  0
 14 16  1  0
 17 16  1  6
 17 19  1  0
 17 18  1  0
 18  9  1  0
 19 20  2  0
 22 21  1  0
 22 24  1  0
 23 22  2  0
 25 24  1  6
 26 25  1  0
 26 19  1  0
 27 28  1  0
 27 25  1  0
 29 27  2  0
M  END
$$$$
