YNN.pdb
     RDKit          3D

 29 29  0  0  1  0  0  0  0  0999 V2000
    7.4980  -12.3245   17.7288 O   0  0  0  0  0  0  0  0  0  0  0  0
    7.6890  -12.9721   18.9359 C   0  0  0  0  0  0  0  0  0  0  0  0
    8.8711  -13.6342   19.1581 C   0  0  0  0  0  0  0  0  0  0  0  0
    9.0496  -14.2704   20.3527 C   0  0  0  0  0  0  0  0  0  0  0  0
    8.1014  -14.2845   21.3543 C   0  0  0  0  0  0  0  0  0  0  0  0
    8.3262  -14.9866   22.6318 C   0  0  0  0  0  0  0  0  0  0  0  0
    8.6801  -16.4367   22.3679 C   0  0  2  0  0  0  0  0  0  0  0  0
    7.5090  -17.2409   22.1370 N   0  0  0  0  0  0  0  0  0  0  0  0
    9.4637  -17.0248   23.4644 C   0  0  0  0  0  0  0  0  0  0  0  0
    9.0121  -18.0419   24.0477 O   0  0  0  0  0  0  0  0  0  0  0  0
    6.9230  -13.6178   21.1183 C   0  0  0  0  0  0  0  0  0  0  0  0
    6.7228  -12.9616   19.9035 C   0  0  0  0  0  0  0  0  0  0  0  0
   15.1341  -18.3965   25.0487 N   0  0  0  0  0  0  0  0  0  0  0  0
   13.7312  -18.5220   24.8905 C   0  0  0  0  0  0  0  0  0  0  0  0
   13.1582  -19.5063   25.4752 O   0  0  0  0  0  0  0  0  0  0  0  0
   12.8860  -17.6044   24.1050 C   0  0  0  0  0  0  0  0  0  0  0  0
   11.5703  -17.3384   24.7368 C   0  0  2  0  0  0  0  0  0  0  0  0
   10.7198  -16.5248   23.9306 N   0  0  0  0  0  0  0  0  0  0  0  0
   11.6695  -16.8299   26.1370 C   0  0  0  0  0  0  0  0  0  0  0  0
   12.7556  -16.9223   26.7327 O   0  0  0  0  0  0  0  0  0  0  0  0
   10.5735  -13.4555   26.5611 N   0  0  0  0  0  0  0  0  0  0  0  0
    9.5047  -13.6628   27.4499 C   0  0  0  0  0  0  0  0  0  0  0  0
    8.5187  -12.8423   27.4559 O   0  0  0  0  0  0  0  0  0  0  0  0
    9.4356  -14.7891   28.4044 C   0  0  0  0  0  0  0  0  0  0  0  0
   10.6144  -15.7064   28.1583 C   0  0  2  0  0  0  0  0  0  0  0  0
   10.5794  -16.2454   26.8154 N   0  0  0  0  0  0  0  0  0  0  0  0
   10.5753  -16.8146   29.1172 C   0  0  0  0  0  0  0  0  0  0  0  0
   10.3927  -18.1115   28.6568 O   0  0  0  0  0  0  0  0  0  0  0  0
   10.7002  -16.6644   30.3675 O   0  0  0  0  0  0  0  0  0  0  0  0
  2  1  1  0
  2 12  2  0
  3  2  1  0
  4  3  2  0
  4  5  1  0
  5 11  2  0
  6  5  1  0
  7  8  1  1
  7  6  1  0
  9  7  1  0
 10  9  2  0
 11 12  1  0
 13 14  1  0
 14 15  2  0
 14 16  1  0
 17 16  1  6
 17 19  1  0
 17 18  1  0
 18  9  1  0
 19 20  2  0
 22 21  1  0
 22 24  1  0
 23 22  2  0
 25 24  1  1
 26 25  1  0
 26 19  1  0
 27 28  1  0
 27 25  1  0
 29 27  2  0
M  END
$$$$
