YNN.pdb
     RDKit          3D

 29 29  0  0  1  0  0  0  0  0999 V2000
    7.8863  -11.0968   22.4851 O   0  0  0  0  0  0  0  0  0  0  0  0
    7.7325  -12.0488   21.4937 C   0  0  0  0  0  0  0  0  0  0  0  0
    7.2137  -13.2766   21.8226 C   0  0  0  0  0  0  0  0  0  0  0  0
    7.0661  -14.2094   20.8367 C   0  0  0  0  0  0  0  0  0  0  0  0
    7.4119  -13.9841   19.5207 C   0  0  0  0  0  0  0  0  0  0  0  0
    7.2430  -15.0172   18.4816 C   0  0  0  0  0  0  0  0  0  0  0  0
    8.5999  -15.4874   17.9966 C   0  0  2  0  0  0  0  0  0  0  0  0
    8.4908  -16.6158   17.1098 N   0  0  0  0  0  0  0  0  0  0  0  0
    9.4984  -15.8299   19.1090 C   0  0  0  0  0  0  0  0  0  0  0  0
    9.3664  -16.9485   19.6657 O   0  0  0  0  0  0  0  0  0  0  0  0
    7.9299  -12.7507   19.2057 C   0  0  0  0  0  0  0  0  0  0  0  0
    8.0878  -11.7846   20.1999 C   0  0  0  0  0  0  0  0  0  0  0  0
   12.7240  -14.5709   18.1264 N   0  0  0  0  0  0  0  0  0  0  0  0
   13.3578  -14.4719   19.3903 C   0  0  0  0  0  0  0  0  0  0  0  0
   14.6122  -14.2166   19.4019 O   0  0  0  0  0  0  0  0  0  0  0  0
   12.6801  -14.6403   20.6887 C   0  0  0  0  0  0  0  0  0  0  0  0
   11.4458  -15.4587   20.6006 C   0  0  2  0  0  0  0  0  0  0  0  0
   10.5284  -14.9790   19.6190 N   0  0  0  0  0  0  0  0  0  0  0  0
   10.7852  -15.6909   21.9192 C   0  0  0  0  0  0  0  0  0  0  0  0
   10.4098  -14.7101   22.5826 O   0  0  0  0  0  0  0  0  0  0  0  0
    7.1615  -17.3821   22.0028 N   0  0  0  0  0  0  0  0  0  0  0  0
    7.6664  -17.4580   23.3122 C   0  0  0  0  0  0  0  0  0  0  0  0
    7.0666  -16.8335   24.2587 O   0  0  0  0  0  0  0  0  0  0  0  0
    8.8727  -18.2262   23.6852 C   0  0  0  0  0  0  0  0  0  0  0  0
   10.0478  -17.2752   23.7651 C   0  0  2  0  0  0  0  0  0  0  0  0
   10.5664  -16.9811   22.4461 N   0  0  0  0  0  0  0  0  0  0  0  0
   11.1111  -17.8844   24.5697 C   0  0  0  0  0  0  0  0  0  0  0  0
   12.3281  -18.1905   23.9761 O   0  0  0  0  0  0  0  0  0  0  0  0
   10.9908  -18.1564   25.7997 O   0  0  0  0  0  0  0  0  0  0  0  0
  2  1  1  0
  2 12  2  0
  3  2  1  0
  4  3  2  0
  4  5  1  0
  5 11  2  0
  6  5  1  0
  7  8  1  6
  7  6  1  0
  9  7  1  0
 10  9  2  0
 11 12  1  0
 13 14  1  0
 14 15  2  0
 14 16  1  0
 17 16  1  1
 17 19  1  0
 17 18  1  0
 18  9  1  0
 19 20  2  0
 22 21  1  0
 22 24  1  0
 23 22  2  0
 25 24  1  6
 26 25  1  0
 26 19  1  0
 27 28  1  0
 27 25  1  0
 29 27  2  0
M  END
$$$$
