YNN.pdb
     RDKit          3D

 29 29  0  0  1  0  0  0  0  0999 V2000
    6.2639  -12.4955   18.3557 O   0  0  0  0  0  0  0  0  0  0  0  0
    6.7951  -13.6462   18.9095 C   0  0  0  0  0  0  0  0  0  0  0  0
    7.5813  -14.4595   18.1314 C   0  0  0  0  0  0  0  0  0  0  0  0
    8.1007  -15.5930   18.6875 C   0  0  0  0  0  0  0  0  0  0  0  0
    7.8771  -15.9678   19.9958 C   0  0  0  0  0  0  0  0  0  0  0  0
    8.4508  -17.2027   20.5627 C   0  0  0  0  0  0  0  0  0  0  0  0
    9.5557  -16.8562   21.5408 C   0  0  2  0  0  0  0  0  0  0  0  0
   10.2855  -15.6848   21.1323 N   0  0  0  0  0  0  0  0  0  0  0  0
   10.4958  -17.9704   21.7331 C   0  0  0  0  0  0  0  0  0  0  0  0
   10.0318  -19.1235   21.9166 O   0  0  0  0  0  0  0  0  0  0  0  0
    7.0883  -15.1444   20.7631 C   0  0  0  0  0  0  0  0  0  0  0  0
    6.5491  -13.9816   20.2121 C   0  0  0  0  0  0  0  0  0  0  0  0
   13.3075  -19.9174   19.1640 N   0  0  0  0  0  0  0  0  0  0  0  0
   14.0262  -18.9498   19.9096 C   0  0  0  0  0  0  0  0  0  0  0  0
   14.6727  -18.0610   19.2529 O   0  0  0  0  0  0  0  0  0  0  0  0
   14.0832  -18.8916   21.3816 C   0  0  0  0  0  0  0  0  0  0  0  0
   12.7468  -18.9731   22.0207 C   0  0  2  0  0  0  0  0  0  0  0  0
   11.9205  -17.8472   21.7291 N   0  0  0  0  0  0  0  0  0  0  0  0
   12.7989  -19.2662   23.4837 C   0  0  0  0  0  0  0  0  0  0  0  0
   13.3437  -18.4455   24.2405 O   0  0  0  0  0  0  0  0  0  0  0  0
    9.1970  -20.8901   27.4268 N   0  0  0  0  0  0  0  0  0  0  0  0
   10.0142  -21.7671   26.6932 C   0  0  0  0  0  0  0  0  0  0  0  0
   10.4128  -22.8606   27.2327 O   0  0  0  0  0  0  0  0  0  0  0  0
   10.4597  -21.5108   25.3075 C   0  0  0  0  0  0  0  0  0  0  0  0
   11.6142  -20.5324   25.3423 C   0  0  2  0  0  0  0  0  0  0  0  0
   12.2528  -20.4388   24.0467 N   0  0  0  0  0  0  0  0  0  0  0  0
   12.6016  -20.9819   26.3283 C   0  0  0  0  0  0  0  0  0  0  0  0
   13.5389  -20.0820   26.8171 O   0  0  0  0  0  0  0  0  0  0  0  0
   12.6580  -22.1647   26.7746 O   0  0  0  0  0  0  0  0  0  0  0  0
  2  1  1  0
  2 12  2  0
  3  2  1  0
  4  3  2  0
  4  5  1  0
  5 11  2  0
  6  5  1  0
  7  8  1  6
  7  6  1  0
  9  7  1  0
 10  9  2  0
 11 12  1  0
 13 14  1  0
 14 15  2  0
 14 16  1  0
 17 16  1  1
 17 19  1  0
 17 18  1  0
 18  9  1  0
 19 20  2  0
 22 21  1  0
 22 24  1  0
 23 22  2  0
 25 24  1  6
 26 25  1  0
 26 19  1  0
 27 28  1  0
 27 25  1  0
 29 27  2  0
M  END
$$$$
