YNN.pdb
     RDKit          3D

 29 29  0  0  1  0  0  0  0  0999 V2000
    7.5439  -14.0021   16.2235 O   0  0  0  0  0  0  0  0  0  0  0  0
    7.9311  -13.9666   17.5508 C   0  0  0  0  0  0  0  0  0  0  0  0
    7.4896  -12.9391   18.3472 C   0  0  0  0  0  0  0  0  0  0  0  0
    7.8776  -12.9131   19.6559 C   0  0  0  0  0  0  0  0  0  0  0  0
    8.6939  -13.8683   20.2246 C   0  0  0  0  0  0  0  0  0  0  0  0
    9.0973  -13.8063   21.6420 C   0  0  0  0  0  0  0  0  0  0  0  0
    8.5206  -14.9891   22.3944 C   0  0  2  0  0  0  0  0  0  0  0  0
    7.1693  -15.2748   21.9897 N   0  0  0  0  0  0  0  0  0  0  0  0
    8.5590  -14.7919   23.8510 C   0  0  0  0  0  0  0  0  0  0  0  0
    9.6774  -14.7374   24.4209 O   0  0  0  0  0  0  0  0  0  0  0  0
    9.1284  -14.8910   19.4159 C   0  0  0  0  0  0  0  0  0  0  0  0
    8.7419  -14.9344   18.0760 C   0  0  0  0  0  0  0  0  0  0  0  0
    5.2322  -11.5627   25.9661 N   0  0  0  0  0  0  0  0  0  0  0  0
    6.4109  -12.2967   26.2505 C   0  0  0  0  0  0  0  0  0  0  0  0
    7.5303  -11.6925   26.1068 O   0  0  0  0  0  0  0  0  0  0  0  0
    6.4420  -13.7008   26.6990 C   0  0  0  0  0  0  0  0  0  0  0  0
    7.5505  -14.4812   26.0964 C   0  0  2  0  0  0  0  0  0  0  0  0
    7.4073  -14.6555   24.6877 N   0  0  0  0  0  0  0  0  0  0  0  0
    7.8246  -15.7714   26.7957 C   0  0  0  0  0  0  0  0  0  0  0  0
    7.9311  -15.7716   28.0334 O   0  0  0  0  0  0  0  0  0  0  0  0
    6.8205  -21.1798   27.7795 N   0  0  0  0  0  0  0  0  0  0  0  0
    7.5176  -20.6434   26.6833 C   0  0  0  0  0  0  0  0  0  0  0  0
    8.4671  -21.3180   26.1459 O   0  0  0  0  0  0  0  0  0  0  0  0
    7.2266  -19.3208   26.0912 C   0  0  0  0  0  0  0  0  0  0  0  0
    8.1372  -18.2931   26.7286 C   0  0  2  0  0  0  0  0  0  0  0  0
    7.9670  -16.9958   26.1096 N   0  0  0  0  0  0  0  0  0  0  0  0
    9.5319  -18.7164   26.5710 C   0  0  0  0  0  0  0  0  0  0  0  0
   10.1275  -19.4907   27.5575 O   0  0  0  0  0  0  0  0  0  0  0  0
   10.2468  -18.4159   25.5710 O   0  0  0  0  0  0  0  0  0  0  0  0
  2  1  1  0
  2 12  2  0
  3  2  1  0
  4  3  2  0
  4  5  1  0
  5 11  2  0
  6  5  1  0
  7  8  1  6
  7  6  1  0
  9  7  1  0
 10  9  2  0
 11 12  1  0
 13 14  1  0
 14 15  2  0
 14 16  1  0
 17 16  1  1
 17 19  1  0
 17 18  1  0
 18  9  1  0
 19 20  2  0
 22 21  1  0
 22 24  1  0
 23 22  2  0
 25 24  1  6
 26 25  1  0
 26 19  1  0
 27 28  1  0
 27 25  1  0
 29 27  2  0
M  END
$$$$
