YNN.pdb
     RDKit          3D

 29 29  0  0  1  0  0  0  0  0999 V2000
    5.9869  -11.4229   28.3371 O   0  0  0  0  0  0  0  0  0  0  0  0
    6.4044  -12.0597   27.1825 C   0  0  0  0  0  0  0  0  0  0  0  0
    7.6560  -12.6229   27.1465 C   0  0  0  0  0  0  0  0  0  0  0  0
    8.0586  -13.2489   26.0021 C   0  0  0  0  0  0  0  0  0  0  0  0
    7.2720  -13.3467   24.8734 C   0  0  0  0  0  0  0  0  0  0  0  0
    7.7413  -14.0269   23.6517 C   0  0  0  0  0  0  0  0  0  0  0  0
    7.4301  -15.5081   23.7344 C   0  0  2  0  0  0  0  0  0  0  0  0
    7.2426  -15.9415   25.0940 N   0  0  0  0  0  0  0  0  0  0  0  0
    8.4730  -16.3300   23.1029 C   0  0  0  0  0  0  0  0  0  0  0  0
    8.1588  -17.4623   22.6580 O   0  0  0  0  0  0  0  0  0  0  0  0
    6.0216  -12.7785   24.9234 C   0  0  0  0  0  0  0  0  0  0  0  0
    5.5927  -12.1347   26.0846 C   0  0  0  0  0  0  0  0  0  0  0  0
    9.4185  -19.3496   20.7279 N   0  0  0  0  0  0  0  0  0  0  0  0
   10.1786  -18.2532   20.2494 C   0  0  0  0  0  0  0  0  0  0  0  0
   11.0526  -18.4922   19.3450 O   0  0  0  0  0  0  0  0  0  0  0  0
   10.0365  -16.8618   20.7152 C   0  0  0  0  0  0  0  0  0  0  0  0
   10.6891  -16.6154   22.0246 C   0  0  2  0  0  0  0  0  0  0  0  0
    9.8405  -15.9400   22.9514 N   0  0  0  0  0  0  0  0  0  0  0  0
   12.0283  -15.9647   21.9138 C   0  0  0  0  0  0  0  0  0  0  0  0
   12.6305  -16.0134   20.8285 O   0  0  0  0  0  0  0  0  0  0  0  0
   13.1240  -17.9114   26.9988 N   0  0  0  0  0  0  0  0  0  0  0  0
   13.5625  -17.6945   25.6813 C   0  0  0  0  0  0  0  0  0  0  0  0
   14.7614  -18.0117   25.3533 O   0  0  0  0  0  0  0  0  0  0  0  0
   12.7173  -17.1100   24.6190 C   0  0  0  0  0  0  0  0  0  0  0  0
   13.4362  -15.9153   24.0296 C   0  0  2  0  0  0  0  0  0  0  0  0
   12.6415  -15.2929   22.9922 N   0  0  0  0  0  0  0  0  0  0  0  0
   14.7120  -16.3519   23.4545 C   0  0  0  0  0  0  0  0  0  0  0  0
   14.7262  -17.3829   22.5249 O   0  0  0  0  0  0  0  0  0  0  0  0
   15.8289  -15.8390   23.7562 O   0  0  0  0  0  0  0  0  0  0  0  0
  2  1  1  0
  2 12  2  0
  3  2  1  0
  4  3  2  0
  4  5  1  0
  5 11  2  0
  6  5  1  0
  7  8  1  1
  7  6  1  0
  9  7  1  0
 10  9  2  0
 11 12  1  0
 13 14  1  0
 14 15  2  0
 14 16  1  0
 17 16  1  6
 17 19  1  0
 17 18  1  0
 18  9  1  0
 19 20  2  0
 22 21  1  0
 22 24  1  0
 23 22  2  0
 25 24  1  6
 26 25  1  0
 26 19  1  0
 27 28  1  0
 27 25  1  0
 29 27  2  0
M  END
$$$$
