YNN.pdb
     RDKit          3D

 29 29  0  0  1  0  0  0  0  0999 V2000
    5.3575  -10.5838   27.1730 O   0  0  0  0  0  0  0  0  0  0  0  0
    6.0836  -11.6086   26.5936 C   0  0  0  0  0  0  0  0  0  0  0  0
    6.4928  -12.6608   27.3749 C   0  0  0  0  0  0  0  0  0  0  0  0
    7.2091  -13.6670   26.7934 C   0  0  0  0  0  0  0  0  0  0  0  0
    7.5462  -13.6841   25.4561 C   0  0  0  0  0  0  0  0  0  0  0  0
    8.3257  -14.7861   24.8619 C   0  0  0  0  0  0  0  0  0  0  0  0
    7.3889  -15.8568   24.3386 C   0  0  2  0  0  0  0  0  0  0  0  0
    6.5089  -16.3480   25.3662 N   0  0  0  0  0  0  0  0  0  0  0  0
    8.1162  -16.9869   23.7421 C   0  0  0  0  0  0  0  0  0  0  0  0
    7.4571  -17.8938   23.1749 O   0  0  0  0  0  0  0  0  0  0  0  0
    7.1300  -12.6246   24.6860 C   0  0  0  0  0  0  0  0  0  0  0  0
    6.3967  -11.5872   25.2627 C   0  0  0  0  0  0  0  0  0  0  0  0
   10.4514  -17.8997   19.3036 N   0  0  0  0  0  0  0  0  0  0  0  0
   10.4387  -16.7605   20.1468 C   0  0  0  0  0  0  0  0  0  0  0  0
   11.1694  -15.7663   19.8050 O   0  0  0  0  0  0  0  0  0  0  0  0
    9.6474  -16.6366   21.3845 C   0  0  0  0  0  0  0  0  0  0  0  0
   10.2572  -17.3402   22.5395 C   0  0  2  0  0  0  0  0  0  0  0  0
    9.5378  -17.1421   23.7554 N   0  0  0  0  0  0  0  0  0  0  0  0
   11.7170  -17.0722   22.7020 C   0  0  0  0  0  0  0  0  0  0  0  0
   12.4579  -17.1665   21.7094 O   0  0  0  0  0  0  0  0  0  0  0  0
   12.8070  -19.3311   27.1901 N   0  0  0  0  0  0  0  0  0  0  0  0
   11.6289  -19.3993   26.4269 C   0  0  0  0  0  0  0  0  0  0  0  0
   10.7465  -20.2884   26.7035 O   0  0  0  0  0  0  0  0  0  0  0  0
   11.3275  -18.4953   25.2971 C   0  0  0  0  0  0  0  0  0  0  0  0
   12.5310  -17.6113   25.0489 C   0  0  2  0  0  0  0  0  0  0  0  0
   12.2938  -16.7136   23.9385 N   0  0  0  0  0  0  0  0  0  0  0  0
   13.6940  -18.4497   24.7430 C   0  0  0  0  0  0  0  0  0  0  0  0
   13.6747  -19.2623   23.6176 O   0  0  0  0  0  0  0  0  0  0  0  0
   14.7404  -18.4830   25.4539 O   0  0  0  0  0  0  0  0  0  0  0  0
  2  1  1  0
  2 12  2  0
  3  2  1  0
  4  3  2  0
  4  5  1  0
  5 11  2  0
  6  5  1  0
  7  8  1  1
  7  6  1  0
  9  7  1  0
 10  9  2  0
 11 12  1  0
 13 14  1  0
 14 15  2  0
 14 16  1  0
 17 16  1  6
 17 19  1  0
 17 18  1  0
 18  9  1  0
 19 20  2  0
 22 21  1  0
 22 24  1  0
 23 22  2  0
 25 24  1  6
 26 25  1  0
 26 19  1  0
 27 28  1  0
 27 25  1  0
 29 27  2  0
M  END
$$$$
