YNN.pdb
     RDKit          3D

 29 29  0  0  1  0  0  0  0  0999 V2000
   10.8748  -15.1146   30.5101 O   0  0  0  0  0  0  0  0  0  0  0  0
   10.1499  -15.0086   29.3370 C   0  0  0  0  0  0  0  0  0  0  0  0
   10.0925  -13.7960   28.6956 C   0  0  0  0  0  0  0  0  0  0  0  0
    9.3742  -13.7018   27.5385 C   0  0  0  0  0  0  0  0  0  0  0  0
    8.6989  -14.7646   26.9757 C   0  0  0  0  0  0  0  0  0  0  0  0
    7.9281  -14.6256   25.7259 C   0  0  0  0  0  0  0  0  0  0  0  0
    8.5716  -15.4504   24.6289 C   0  0  2  0  0  0  0  0  0  0  0  0
   10.0074  -15.4503   24.7301 N   0  0  0  0  0  0  0  0  0  0  0  0
    8.1801  -14.9916   23.2879 C   0  0  0  0  0  0  0  0  0  0  0  0
    6.9713  -15.0710   22.9545 O   0  0  0  0  0  0  0  0  0  0  0  0
    8.7649  -15.9723   27.6284 C   0  0  0  0  0  0  0  0  0  0  0  0
    9.4945  -16.0877   28.8120 C   0  0  0  0  0  0  0  0  0  0  0  0
    6.6519  -12.7510   18.8819 N   0  0  0  0  0  0  0  0  0  0  0  0
    8.0241  -12.6416   19.2191 C   0  0  0  0  0  0  0  0  0  0  0  0
    8.8404  -12.3467   18.2779 O   0  0  0  0  0  0  0  0  0  0  0  0
    8.5786  -12.8413   20.5704 C   0  0  0  0  0  0  0  0  0  0  0  0
    8.6584  -14.2698   20.9629 C   0  0  2  0  0  0  0  0  0  0  0  0
    9.0784  -14.4534   22.3139 N   0  0  0  0  0  0  0  0  0  0  0  0
    9.4457  -15.1096   20.0122 C   0  0  0  0  0  0  0  0  0  0  0  0
    9.1948  -15.0358   18.7978 O   0  0  0  0  0  0  0  0  0  0  0  0
   13.0095  -15.4607   17.4408 N   0  0  0  0  0  0  0  0  0  0  0  0
   13.1638  -14.5990   18.5403 C   0  0  0  0  0  0  0  0  0  0  0  0
   13.8860  -13.5455   18.4219 O   0  0  0  0  0  0  0  0  0  0  0  0
   12.5367  -14.8280   19.8589 C   0  0  0  0  0  0  0  0  0  0  0  0
   11.7652  -16.1295   19.8096 C   0  0  2  0  0  0  0  0  0  0  0  0
   10.4674  -15.9860   20.4344 N   0  0  0  0  0  0  0  0  0  0  0  0
   12.5209  -17.1687   20.5154 C   0  0  0  0  0  0  0  0  0  0  0  0
   12.6607  -18.4238   19.9388 O   0  0  0  0  0  0  0  0  0  0  0  0
   13.0681  -16.9937   21.6429 O   0  0  0  0  0  0  0  0  0  0  0  0
  2  1  1  0
  2 12  2  0
  3  2  1  0
  4  3  2  0
  4  5  1  0
  5 11  2  0
  6  5  1  0
  7  8  1  6
  7  6  1  0
  9  7  1  0
 10  9  2  0
 11 12  1  0
 13 14  1  0
 14 15  2  0
 14 16  1  0
 17 16  1  6
 17 19  1  0
 17 18  1  0
 18  9  1  0
 19 20  2  0
 22 21  1  0
 22 24  1  0
 23 22  2  0
 25 24  1  1
 26 25  1  0
 26 19  1  0
 27 28  1  0
 27 25  1  0
 29 27  2  0
M  END
$$$$
