YNN.pdb
     RDKit          3D

 29 29  0  0  1  0  0  0  0  0999 V2000
    6.7837  -10.5077   26.7371 O   0  0  0  0  0  0  0  0  0  0  0  0
    6.8636  -11.8842   26.6294 C   0  0  0  0  0  0  0  0  0  0  0  0
    8.0783  -12.4626   26.3558 C   0  0  0  0  0  0  0  0  0  0  0  0
    8.1464  -13.8221   26.2514 C   0  0  0  0  0  0  0  0  0  0  0  0
    7.0550  -14.6509   26.4064 C   0  0  0  0  0  0  0  0  0  0  0  0
    7.1642  -16.1165   26.2821 C   0  0  0  0  0  0  0  0  0  0  0  0
    6.3733  -16.5924   25.0798 C   0  0  2  0  0  0  0  0  0  0  0  0
    6.0303  -17.9865   25.1813 N   0  0  0  0  0  0  0  0  0  0  0  0
    7.0900  -16.3602   23.8171 C   0  0  0  0  0  0  0  0  0  0  0  0
    7.9033  -17.2310   23.4186 O   0  0  0  0  0  0  0  0  0  0  0  0
    5.8454  -14.0585   26.6800 C   0  0  0  0  0  0  0  0  0  0  0  0
    5.7565  -12.6705   26.7908 C   0  0  0  0  0  0  0  0  0  0  0  0
    8.3439  -12.7560   18.9783 N   0  0  0  0  0  0  0  0  0  0  0  0
    7.8388  -13.9272   19.5964 C   0  0  0  0  0  0  0  0  0  0  0  0
    7.9622  -15.0302   18.9582 O   0  0  0  0  0  0  0  0  0  0  0  0
    7.1843  -13.9683   20.9167 C   0  0  0  0  0  0  0  0  0  0  0  0
    7.6697  -15.0776   21.7740 C   0  0  2  0  0  0  0  0  0  0  0  0
    6.9354  -15.2034   22.9907 N   0  0  0  0  0  0  0  0  0  0  0  0
    9.1438  -15.0526   22.0091 C   0  0  0  0  0  0  0  0  0  0  0  0
    9.6539  -14.0368   22.5101 O   0  0  0  0  0  0  0  0  0  0  0  0
   13.7521  -18.6744   23.0119 N   0  0  0  0  0  0  0  0  0  0  0  0
   13.0665  -17.4774   23.2808 C   0  0  0  0  0  0  0  0  0  0  0  0
   13.7147  -16.4627   23.7230 O   0  0  0  0  0  0  0  0  0  0  0  0
   11.6120  -17.3012   23.0857 C   0  0  0  0  0  0  0  0  0  0  0  0
   11.3894  -16.2436   22.0259 C   0  0  2  0  0  0  0  0  0  0  0  0
    9.9862  -16.1375   21.6871 N   0  0  0  0  0  0  0  0  0  0  0  0
   12.1446  -16.5981   20.8204 C   0  0  0  0  0  0  0  0  0  0  0  0
   11.5671  -17.4307   19.8714 O   0  0  0  0  0  0  0  0  0  0  0  0
   13.3168  -16.1856   20.5811 O   0  0  0  0  0  0  0  0  0  0  0  0
  2  1  1  0
  2 12  2  0
  3  2  1  0
  4  3  2  0
  4  5  1  0
  5 11  2  0
  6  5  1  0
  7  8  1  1
  7  6  1  0
  9  7  1  0
 10  9  2  0
 11 12  1  0
 13 14  1  0
 14 15  2  0
 14 16  1  0
 17 16  1  1
 17 19  1  0
 17 18  1  0
 18  9  1  0
 19 20  2  0
 22 21  1  0
 22 24  1  0
 23 22  2  0
 25 24  1  1
 26 25  1  0
 26 19  1  0
 27 28  1  0
 27 25  1  0
 29 27  2  0
M  END
$$$$
