YNN.pdb
     RDKit          3D

 29 29  0  0  1  0  0  0  0  0999 V2000
    6.5735  -11.9508   18.2702 O   0  0  0  0  0  0  0  0  0  0  0  0
    7.4599  -12.6640   19.0568 C   0  0  0  0  0  0  0  0  0  0  0  0
    6.9666  -13.4958   20.0313 C   0  0  0  0  0  0  0  0  0  0  0  0
    7.8498  -14.1952   20.8025 C   0  0  0  0  0  0  0  0  0  0  0  0
    9.2185  -14.1108   20.6552 C   0  0  0  0  0  0  0  0  0  0  0  0
   10.1441  -14.8778   21.5098 C   0  0  0  0  0  0  0  0  0  0  0  0
   10.8514  -15.9347   20.6849 C   0  0  2  0  0  0  0  0  0  0  0  0
    9.9225  -16.8498   20.0756 N   0  0  0  0  0  0  0  0  0  0  0  0
   11.8304  -16.6935   21.4774 C   0  0  0  0  0  0  0  0  0  0  0  0
   11.5321  -17.8566   21.8474 O   0  0  0  0  0  0  0  0  0  0  0  0
    9.6983  -13.2744   19.6759 C   0  0  0  0  0  0  0  0  0  0  0  0
    8.8108  -12.5519   18.8777 C   0  0  0  0  0  0  0  0  0  0  0  0
   16.2611  -15.7557   20.0755 N   0  0  0  0  0  0  0  0  0  0  0  0
   15.7708  -16.8302   20.8590 C   0  0  0  0  0  0  0  0  0  0  0  0
   15.6002  -17.9561   20.2740 O   0  0  0  0  0  0  0  0  0  0  0  0
   15.4445  -16.7467   22.2943 C   0  0  0  0  0  0  0  0  0  0  0  0
   14.0212  -17.0457   22.5871 C   0  0  2  0  0  0  0  0  0  0  0  0
   13.1169  -16.2076   21.8694 N   0  0  0  0  0  0  0  0  0  0  0  0
   13.7060  -17.0906   24.0458 C   0  0  0  0  0  0  0  0  0  0  0  0
   13.9239  -16.0821   24.7376 O   0  0  0  0  0  0  0  0  0  0  0  0
    9.4656  -16.9535   25.7336 N   0  0  0  0  0  0  0  0  0  0  0  0
   10.4917  -17.4999   26.5234 C   0  0  0  0  0  0  0  0  0  0  0  0
   10.7887  -16.9499   27.6437 O   0  0  0  0  0  0  0  0  0  0  0  0
   11.2744  -18.6946   26.1434 C   0  0  0  0  0  0  0  0  0  0  0  0
   12.7355  -18.3091   26.0545 C   0  0  2  0  0  0  0  0  0  0  0  0
   13.1677  -18.2327   24.6751 N   0  0  0  0  0  0  0  0  0  0  0  0
   13.5454  -19.3124   26.7521 C   0  0  0  0  0  0  0  0  0  0  0  0
   13.5698  -19.3272   28.1401 O   0  0  0  0  0  0  0  0  0  0  0  0
   14.2408  -20.1876   26.1590 O   0  0  0  0  0  0  0  0  0  0  0  0
  2  1  1  0
  2 12  2  0
  3  2  1  0
  4  3  2  0
  4  5  1  0
  5 11  2  0
  6  5  1  0
  7  8  1  1
  7  6  1  0
  9  7  1  0
 10  9  2  0
 11 12  1  0
 13 14  1  0
 14 15  2  0
 14 16  1  0
 17 16  1  1
 17 19  1  0
 17 18  1  0
 18  9  1  0
 19 20  2  0
 22 21  1  0
 22 24  1  0
 23 22  2  0
 25 24  1  6
 26 25  1  0
 26 19  1  0
 27 28  1  0
 27 25  1  0
 29 27  2  0
M  END
$$$$
