YNN.pdb
     RDKit          3D

 29 29  0  0  1  0  0  0  0  0999 V2000
    6.1919  -12.5205   16.5982 O   0  0  0  0  0  0  0  0  0  0  0  0
    6.9109  -13.1005   17.6276 C   0  0  0  0  0  0  0  0  0  0  0  0
    8.1279  -12.5676   17.9742 C   0  0  0  0  0  0  0  0  0  0  0  0
    8.8297  -13.1476   18.9915 C   0  0  0  0  0  0  0  0  0  0  0  0
    8.3802  -14.2462   19.6938 C   0  0  0  0  0  0  0  0  0  0  0  0
    9.1675  -14.8503   20.7850 C   0  0  0  0  0  0  0  0  0  0  0  0
   10.3566  -15.5953   20.2116 C   0  0  2  0  0  0  0  0  0  0  0  0
    9.9626  -16.5266   19.1873 N   0  0  0  0  0  0  0  0  0  0  0  0
   11.1170  -16.3083   21.2487 C   0  0  0  0  0  0  0  0  0  0  0  0
   11.3984  -15.7011   22.3120 O   0  0  0  0  0  0  0  0  0  0  0  0
    7.1606  -14.7691   19.3363 C   0  0  0  0  0  0  0  0  0  0  0  0
    6.4288  -14.1896   18.2993 C   0  0  0  0  0  0  0  0  0  0  0  0
   10.1867  -20.8301   21.6182 N   0  0  0  0  0  0  0  0  0  0  0  0
   10.9409  -20.0361   22.5179 C   0  0  0  0  0  0  0  0  0  0  0  0
   10.3555  -19.6364   23.5840 O   0  0  0  0  0  0  0  0  0  0  0  0
   12.3462  -19.6385   22.3169 C   0  0  0  0  0  0  0  0  0  0  0  0
   12.5126  -18.1834   22.0801 C   0  0  2  0  0  0  0  0  0  0  0  0
   11.5714  -17.6602   21.1444 N   0  0  0  0  0  0  0  0  0  0  0  0
   13.9130  -17.7864   21.7480 C   0  0  0  0  0  0  0  0  0  0  0  0
   14.6062  -18.5534   21.0594 O   0  0  0  0  0  0  0  0  0  0  0  0
   14.0029  -14.0869   19.6319 N   0  0  0  0  0  0  0  0  0  0  0  0
   15.1787  -14.7804   19.9665 C   0  0  0  0  0  0  0  0  0  0  0  0
   15.7549  -15.5113   19.0837 O   0  0  0  0  0  0  0  0  0  0  0  0
   15.8142  -14.7262   21.2997 C   0  0  0  0  0  0  0  0  0  0  0  0
   15.8285  -16.1212   21.8872 C   0  0  2  0  0  0  0  0  0  0  0  0
   14.4852  -16.5723   22.1826 N   0  0  0  0  0  0  0  0  0  0  0  0
   16.6126  -16.1181   23.1258 C   0  0  0  0  0  0  0  0  0  0  0  0
   17.9705  -15.8335   23.0752 O   0  0  0  0  0  0  0  0  0  0  0  0
   16.1224  -16.3634   24.2664 O   0  0  0  0  0  0  0  0  0  0  0  0
  2  1  1  0
  2 12  2  0
  3  2  1  0
  4  3  2  0
  4  5  1  0
  5 11  2  0
  6  5  1  0
  7  8  1  6
  7  6  1  0
  9  7  1  0
 10  9  2  0
 11 12  1  0
 13 14  1  0
 14 15  2  0
 14 16  1  0
 17 16  1  6
 17 19  1  0
 17 18  1  0
 18  9  1  0
 19 20  2  0
 22 21  1  0
 22 24  1  0
 23 22  2  0
 25 24  1  1
 26 25  1  0
 26 19  1  0
 27 28  1  0
 27 25  1  0
 29 27  2  0
M  END
$$$$
