YNN.pdb
     RDKit          3D

 29 29  0  0  1  0  0  0  0  0999 V2000
    7.7601  -13.0423   16.6227 O   0  0  0  0  0  0  0  0  0  0  0  0
    7.7570  -13.3521   17.9706 C   0  0  0  0  0  0  0  0  0  0  0  0
    7.8546  -14.6671   18.3531 C   0  0  0  0  0  0  0  0  0  0  0  0
    7.8505  -14.9624   19.6860 C   0  0  0  0  0  0  0  0  0  0  0  0
    7.7528  -14.0061   20.6749 C   0  0  0  0  0  0  0  0  0  0  0  0
    7.7467  -14.3616   22.1063 C   0  0  0  0  0  0  0  0  0  0  0  0
    8.1299  -15.8181   22.2775 C   0  0  2  0  0  0  0  0  0  0  0  0
    6.9735  -16.6650   22.4079 N   0  0  0  0  0  0  0  0  0  0  0  0
    9.0162  -16.0265   23.4322 C   0  0  0  0  0  0  0  0  0  0  0  0
    8.6432  -15.6130   24.5585 O   0  0  0  0  0  0  0  0  0  0  0  0
    7.6558  -12.6939   20.2778 C   0  0  0  0  0  0  0  0  0  0  0  0
    7.6587  -12.3729   18.9200 C   0  0  0  0  0  0  0  0  0  0  0  0
   11.2027  -19.4003   23.3957 N   0  0  0  0  0  0  0  0  0  0  0  0
   10.8173  -19.2096   24.7462 C   0  0  0  0  0  0  0  0  0  0  0  0
   10.5216  -20.2524   25.4274 O   0  0  0  0  0  0  0  0  0  0  0  0
   10.7331  -17.9021   25.4221 C   0  0  0  0  0  0  0  0  0  0  0  0
   11.1070  -16.7663   24.5440 C   0  0  2  0  0  0  0  0  0  0  0  0
   10.2910  -16.6721   23.3776 N   0  0  0  0  0  0  0  0  0  0  0  0
   12.5625  -16.7166   24.2154 C   0  0  0  0  0  0  0  0  0  0  0  0
   13.3773  -17.1800   25.0305 O   0  0  0  0  0  0  0  0  0  0  0  0
   16.3168  -18.7637   24.4321 N   0  0  0  0  0  0  0  0  0  0  0  0
   16.0307  -17.5756   23.7380 C   0  0  0  0  0  0  0  0  0  0  0  0
   16.6244  -16.4888   24.0728 O   0  0  0  0  0  0  0  0  0  0  0  0
   15.0675  -17.4877   22.6205 C   0  0  0  0  0  0  0  0  0  0  0  0
   14.4472  -16.1068   22.6225 C   0  0  2  0  0  0  0  0  0  0  0  0
   13.0548  -16.1653   23.0138 N   0  0  0  0  0  0  0  0  0  0  0  0
   14.5398  -15.5314   21.2773 C   0  0  0  0  0  0  0  0  0  0  0  0
   15.4907  -14.5544   21.0151 O   0  0  0  0  0  0  0  0  0  0  0  0
   13.7925  -15.8742   20.3154 O   0  0  0  0  0  0  0  0  0  0  0  0
  2  1  1  0
  2 12  2  0
  3  2  1  0
  4  3  2  0
  4  5  1  0
  5 11  2  0
  6  5  1  0
  7  8  1  1
  7  6  1  0
  9  7  1  0
 10  9  2  0
 11 12  1  0
 13 14  1  0
 14 15  2  0
 14 16  1  0
 17 16  1  6
 17 19  1  0
 17 18  1  0
 18  9  1  0
 19 20  2  0
 22 21  1  0
 22 24  1  0
 23 22  2  0
 25 24  1  6
 26 25  1  0
 26 19  1  0
 27 28  1  0
 27 25  1  0
 29 27  2  0
M  END
$$$$
