YNN.pdb
     RDKit          3D

 29 29  0  0  1  0  0  0  0  0999 V2000
    8.0782  -12.2088   17.6449 O   0  0  0  0  0  0  0  0  0  0  0  0
    7.8935  -12.7336   18.9112 C   0  0  0  0  0  0  0  0  0  0  0  0
    6.7615  -13.4658   19.1712 C   0  0  0  0  0  0  0  0  0  0  0  0
    6.5886  -13.9793   20.4243 C   0  0  0  0  0  0  0  0  0  0  0  0
    7.4942  -13.8014   21.4491 C   0  0  0  0  0  0  0  0  0  0  0  0
    7.2728  -14.3671   22.7931 C   0  0  0  0  0  0  0  0  0  0  0  0
    8.1991  -15.5462   23.0153 C   0  0  2  0  0  0  0  0  0  0  0  0
    8.2806  -16.3905   21.8526 N   0  0  0  0  0  0  0  0  0  0  0  0
    7.7979  -16.3558   24.1753 C   0  0  0  0  0  0  0  0  0  0  0  0
    7.6322  -15.7818   25.2806 O   0  0  0  0  0  0  0  0  0  0  0  0
    8.6227  -13.0665   21.1747 C   0  0  0  0  0  0  0  0  0  0  0  0
    8.8168  -12.5340   19.8998 C   0  0  0  0  0  0  0  0  0  0  0  0
    6.7141  -20.0453   27.6916 N   0  0  0  0  0  0  0  0  0  0  0  0
    6.1124  -20.3346   26.4414 C   0  0  0  0  0  0  0  0  0  0  0  0
    5.2847  -21.3104   26.3976 O   0  0  0  0  0  0  0  0  0  0  0  0
    6.3685  -19.5960   25.1915 C   0  0  0  0  0  0  0  0  0  0  0  0
    7.3422  -18.4890   25.3573 C   0  0  2  0  0  0  0  0  0  0  0  0
    7.5774  -17.7685   24.1487 N   0  0  0  0  0  0  0  0  0  0  0  0
    8.6146  -18.9039   26.0192 C   0  0  0  0  0  0  0  0  0  0  0  0
    8.5582  -19.4850   27.1156 O   0  0  0  0  0  0  0  0  0  0  0  0
   13.6324  -19.8456   26.9449 N   0  0  0  0  0  0  0  0  0  0  0  0
   13.5700  -19.0247   25.8059 C   0  0  0  0  0  0  0  0  0  0  0  0
   14.6550  -18.6772   25.2164 O   0  0  0  0  0  0  0  0  0  0  0  0
   12.3086  -18.5192   25.2247 C   0  0  0  0  0  0  0  0  0  0  0  0
   11.1480  -19.1101   25.9963 C   0  0  2  0  0  0  0  0  0  0  0  0
    9.8834  -18.6651   25.4505 N   0  0  0  0  0  0  0  0  0  0  0  0
   11.2347  -18.6919   27.3987 C   0  0  0  0  0  0  0  0  0  0  0  0
   10.7889  -17.4292   27.7649 O   0  0  0  0  0  0  0  0  0  0  0  0
   11.7001  -19.4233   28.3207 O   0  0  0  0  0  0  0  0  0  0  0  0
  2  1  1  0
  2 12  2  0
  3  2  1  0
  4  3  2  0
  4  5  1  0
  5 11  2  0
  6  5  1  0
  7  8  1  6
  7  6  1  0
  9  7  1  0
 10  9  2  0
 11 12  1  0
 13 14  1  0
 14 15  2  0
 14 16  1  0
 17 16  1  6
 17 19  1  0
 17 18  1  0
 18  9  1  0
 19 20  2  0
 22 21  1  0
 22 24  1  0
 23 22  2  0
 25 24  1  6
 26 25  1  0
 26 19  1  0
 27 28  1  0
 27 25  1  0
 29 27  2  0
M  END
$$$$
