IFD.pdb
     RDKit          3D

 28 28  0  0  1  0  0  0  0  0999 V2000
   19.0446  -14.4776  -17.6270 C   0  0  0  0  0  0  0  0  0  0  0  0
   19.1120  -13.1271  -18.3050 C   0  0  0  0  0  0  0  0  0  0  0  0
   19.2214  -12.0286  -17.2855 C   0  0  2  0  0  0  0  0  0  0  0  0
   18.1968  -12.2053  -16.2033 C   0  0  0  0  0  0  0  0  0  0  0  0
   19.2150  -10.6618  -17.9104 C   0  0  2  0  0  0  0  0  0  0  0  0
   20.3064  -10.6203  -18.8626 N   0  0  0  0  0  0  0  0  0  0  0  0
   19.3690   -9.5671  -16.9499 C   0  0  0  0  0  0  0  0  0  0  0  0
   18.6114   -9.4081  -15.9473 O   0  0  0  0  0  0  0  0  0  0  0  0
   20.4105   -8.6195  -17.1238 N   0  0  0  0  0  0  0  0  0  0  0  0
   20.6964   -7.5653  -16.1588 C   0  0  1  0  0  0  0  0  0  0  0  0
   22.1895   -7.5971  -15.9153 C   0  0  0  0  0  0  0  0  0  0  0  0
   22.6332   -8.7806  -15.1478 C   0  0  0  0  0  0  0  0  0  0  0  0
   22.2696   -8.9715  -13.8149 C   0  0  0  0  0  0  0  0  0  0  0  0
   22.6651  -10.0732  -13.0858 C   0  0  0  0  0  0  0  0  0  0  0  0
   23.4492  -11.0232  -13.6942 C   0  0  0  0  0  0  0  0  0  0  0  0
   23.8286  -10.8692  -15.0102 C   0  0  0  0  0  0  0  0  0  0  0  0
   23.4191   -9.7469  -15.7349 C   0  0  0  0  0  0  0  0  0  0  0  0
   20.2968   -6.2780  -16.7466 C   0  0  0  0  0  0  0  0  0  0  0  0
   20.5833   -6.0042  -17.9370 O   0  0  0  0  0  0  0  0  0  0  0  0
   19.5886   -5.3329  -15.9882 N   0  0  0  0  0  0  0  0  0  0  0  0
   19.2035   -4.0694  -16.5858 C   0  0  1  0  0  0  0  0  0  0  0  0
   18.1648   -4.4112  -17.6314 C   0  0  0  0  0  0  0  0  0  0  0  0
   17.4478   -3.2644  -18.1846 C   0  0  0  0  0  0  0  0  0  0  0  0
   16.2663   -2.9407  -17.9015 O   0  0  0  0  0  0  0  0  0  0  0  0
   18.6455   -3.2258  -15.4909 C   0  0  0  0  0  0  0  0  0  0  0  0
   18.3850   -2.0024  -15.7117 O   0  0  0  0  0  0  0  0  0  0  0  0
   18.1437   -2.4584  -19.1115 O   0  0  0  0  0  0  0  0  0  0  0  0
   18.3800   -3.6874  -14.2104 O   0  0  0  0  0  0  0  0  0  0  0  0
  2  1  1  0
  3  2  1  0
  3  4  1  1
  5  3  1  0
  5  6  1  6
  7  8  2  0
  7  5  1  0
  9  7  1  0
 10  9  1  0
 11 12  1  0
 10 11  1  6
 12 13  2  0
 13 14  1  0
 15 14  2  0
 16 15  1  0
 17 12  1  0
 17 16  2  0
 18 19  2  0
 18 10  1  0
 20 18  1  0
 21 20  1  0
 21 22  1  6
 23 22  1  0
 24 23  2  0
 25 21  1  0
 26 25  2  0
 27 23  1  0
 28 25  1  0
M  END
$$$$
