IFD.pdb
     RDKit          3D

 28 28  0  0  1  0  0  0  0  0999 V2000
   19.1128   -4.6456  -20.2373 C   0  0  0  0  0  0  0  0  0  0  0  0
   20.4364   -4.2785  -19.6037 C   0  0  0  0  0  0  0  0  0  0  0  0
   21.3208   -5.4879  -19.4884 C   0  0  2  0  0  0  0  0  0  0  0  0
   20.6174   -6.5914  -18.7538 C   0  0  0  0  0  0  0  0  0  0  0  0
   22.6774   -5.1569  -18.9327 C   0  0  2  0  0  0  0  0  0  0  0  0
   23.2451   -4.1228  -19.7741 N   0  0  0  0  0  0  0  0  0  0  0  0
   23.5947   -6.2975  -18.8823 C   0  0  0  0  0  0  0  0  0  0  0  0
   24.1311   -6.8062  -19.9108 O   0  0  0  0  0  0  0  0  0  0  0  0
   23.9190   -6.8850  -17.6322 N   0  0  0  0  0  0  0  0  0  0  0  0
   24.7811   -8.0529  -17.5018 C   0  0  1  0  0  0  0  0  0  0  0  0
   25.5311   -7.8915  -16.1975 C   0  0  0  0  0  0  0  0  0  0  0  0
   26.3914   -9.0484  -15.8689 C   0  0  0  0  0  0  0  0  0  0  0  0
   26.0390   -9.9709  -14.8841 C   0  0  0  0  0  0  0  0  0  0  0  0
   26.8230  -11.0612  -14.5705 C   0  0  0  0  0  0  0  0  0  0  0  0
   27.9998  -11.2491  -15.2541 C   0  0  0  0  0  0  0  0  0  0  0  0
   28.3815  -10.3586  -16.2344 C   0  0  0  0  0  0  0  0  0  0  0  0
   27.5753   -9.2590  -16.5399 C   0  0  0  0  0  0  0  0  0  0  0  0
   23.9328   -9.2534  -17.4641 C   0  0  0  0  0  0  0  0  0  0  0  0
   22.8829   -9.2711  -16.7774 O   0  0  0  0  0  0  0  0  0  0  0  0
   24.2812  -10.4004  -18.1943 N   0  0  0  0  0  0  0  0  0  0  0  0
   23.4534  -11.5877  -18.1122 C   0  0  1  0  0  0  0  0  0  0  0  0
   22.8572  -11.7669  -19.4911 C   0  0  0  0  0  0  0  0  0  0  0  0
   22.0319  -12.9617  -19.6543 C   0  0  0  0  0  0  0  0  0  0  0  0
   21.8444  -13.8408  -18.7752 O   0  0  0  0  0  0  0  0  0  0  0  0
   24.3521  -12.7157  -17.7353 C   0  0  0  0  0  0  0  0  0  0  0  0
   25.4973  -12.8135  -18.2758 O   0  0  0  0  0  0  0  0  0  0  0  0
   21.3964  -13.1374  -20.9026 O   0  0  0  0  0  0  0  0  0  0  0  0
   24.0248  -13.6967  -16.8112 O   0  0  0  0  0  0  0  0  0  0  0  0
  2  1  1  0
  3  2  1  0
  3  4  1  1
  5  3  1  0
  5  6  1  6
  7  8  2  0
  7  5  1  0
  9  7  1  0
 10  9  1  0
 11 12  1  0
 10 11  1  1
 12 13  2  0
 13 14  1  0
 15 14  2  0
 16 15  1  0
 17 12  1  0
 17 16  2  0
 18 19  2  0
 18 10  1  0
 20 18  1  0
 21 20  1  0
 21 22  1  6
 23 22  1  0
 24 23  2  0
 25 21  1  0
 26 25  2  0
 27 23  1  0
 28 25  1  0
M  END
$$$$
