IFD.pdb
     RDKit          3D

 28 28  0  0  1  0  0  0  0  0999 V2000
   17.6320  -12.3065  -20.6878 C   0  0  0  0  0  0  0  0  0  0  0  0
   17.8511  -12.8929  -19.3108 C   0  0  0  0  0  0  0  0  0  0  0  0
   17.6006  -11.8586  -18.2498 C   0  0  2  0  0  0  0  0  0  0  0  0
   16.1620  -11.4315  -18.2545 C   0  0  0  0  0  0  0  0  0  0  0  0
   18.5736  -10.7154  -18.3206 C   0  0  2  0  0  0  0  0  0  0  0  0
   19.9055  -11.2859  -18.3348 N   0  0  0  0  0  0  0  0  0  0  0  0
   18.4640   -9.7703  -17.2072 C   0  0  0  0  0  0  0  0  0  0  0  0
   17.3624   -9.2898  -16.8071 O   0  0  0  0  0  0  0  0  0  0  0  0
   19.6334   -9.3521  -16.5213 N   0  0  0  0  0  0  0  0  0  0  0  0
   19.6307   -8.3010  -15.5116 C   0  0  1  0  0  0  0  0  0  0  0  0
   20.8199   -8.5630  -14.6134 C   0  0  0  0  0  0  0  0  0  0  0  0
   20.9762   -7.5583  -13.5398 C   0  0  0  0  0  0  0  0  0  0  0  0
   21.7072   -6.3859  -13.7302 C   0  0  0  0  0  0  0  0  0  0  0  0
   21.8559   -5.4328  -12.7448 C   0  0  0  0  0  0  0  0  0  0  0  0
   21.2610   -5.6438  -11.5245 C   0  0  0  0  0  0  0  0  0  0  0  0
   20.5305   -6.7906  -11.2988 C   0  0  0  0  0  0  0  0  0  0  0  0
   20.3895   -7.7462  -12.3083 C   0  0  0  0  0  0  0  0  0  0  0  0
   19.7731   -7.0049  -16.1914 C   0  0  0  0  0  0  0  0  0  0  0  0
   20.5783   -6.8693  -17.1439 O   0  0  0  0  0  0  0  0  0  0  0  0
   19.0121   -5.8966  -15.7879 N   0  0  0  0  0  0  0  0  0  0  0  0
   19.2627   -4.5956  -16.3766 C   0  0  1  0  0  0  0  0  0  0  0  0
   17.9305   -4.1296  -16.9215 C   0  0  0  0  0  0  0  0  0  0  0  0
   17.7480   -4.3321  -18.3571 C   0  0  0  0  0  0  0  0  0  0  0  0
   18.6746   -4.4100  -19.2035 O   0  0  0  0  0  0  0  0  0  0  0  0
   19.7638   -3.7157  -15.2826 C   0  0  0  0  0  0  0  0  0  0  0  0
   19.3781   -3.9164  -14.0892 O   0  0  0  0  0  0  0  0  0  0  0  0
   16.4213   -4.4489  -18.8255 O   0  0  0  0  0  0  0  0  0  0  0  0
   20.6461   -2.6627  -15.4726 O   0  0  0  0  0  0  0  0  0  0  0  0
  2  1  1  0
  3  2  1  0
  3  4  1  6
  5  3  1  0
  5  6  1  1
  7  8  2  0
  7  5  1  0
  9  7  1  0
 10  9  1  0
 11 12  1  0
 10 11  1  1
 12 13  2  0
 13 14  1  0
 15 14  2  0
 16 15  1  0
 17 12  1  0
 17 16  2  0
 18 19  2  0
 18 10  1  0
 20 18  1  0
 21 20  1  0
 21 22  1  1
 23 22  1  0
 24 23  2  0
 25 21  1  0
 26 25  2  0
 27 23  1  0
 28 25  1  0
M  END
$$$$
