IFD.pdb
     RDKit          3D

 28 28  0  0  1  0  0  0  0  0999 V2000
   21.7162  -12.1472  -22.5855 C   0  0  0  0  0  0  0  0  0  0  0  0
   23.0323  -11.8552  -21.8994 C   0  0  0  0  0  0  0  0  0  0  0  0
   22.7989  -11.2546  -20.5419 C   0  0  2  0  0  0  0  0  0  0  0  0
   21.8178  -10.1221  -20.6243 C   0  0  0  0  0  0  0  0  0  0  0  0
   24.0809  -10.8976  -19.8433 C   0  0  2  0  0  0  0  0  0  0  0  0
   24.8995  -12.0928  -19.8117 N   0  0  0  0  0  0  0  0  0  0  0  0
   23.8967  -10.4010  -18.4779 C   0  0  0  0  0  0  0  0  0  0  0  0
   23.3885  -11.0936  -17.5472 O   0  0  0  0  0  0  0  0  0  0  0  0
   24.2980   -9.0804  -18.1493 N   0  0  0  0  0  0  0  0  0  0  0  0
   24.1616   -8.5168  -16.8121 C   0  0  1  0  0  0  0  0  0  0  0  0
   25.5620   -8.2071  -16.3299 C   0  0  0  0  0  0  0  0  0  0  0  0
   26.3890   -9.4142  -16.1169 C   0  0  0  0  0  0  0  0  0  0  0  0
   26.1142  -10.3233  -15.0955 C   0  0  0  0  0  0  0  0  0  0  0  0
   26.8676  -11.4593  -14.8873 C   0  0  0  0  0  0  0  0  0  0  0  0
   27.9330  -11.7088  -15.7180 C   0  0  0  0  0  0  0  0  0  0  0  0
   28.2355  -10.8334  -16.7387 C   0  0  0  0  0  0  0  0  0  0  0  0
   27.4618   -9.6868  -16.9361 C   0  0  0  0  0  0  0  0  0  0  0  0
   23.3645   -7.2849  -16.9074 C   0  0  0  0  0  0  0  0  0  0  0  0
   23.5668   -6.4644  -17.8348 O   0  0  0  0  0  0  0  0  0  0  0  0
   22.3638   -7.0039  -15.9641 N   0  0  0  0  0  0  0  0  0  0  0  0
   21.5921   -5.7814  -16.0723 C   0  0  1  0  0  0  0  0  0  0  0  0
   20.2870   -6.0568  -15.3584 C   0  0  0  0  0  0  0  0  0  0  0  0
   19.3614   -4.9271  -15.3104 C   0  0  0  0  0  0  0  0  0  0  0  0
   18.4168   -4.7961  -14.4909 O   0  0  0  0  0  0  0  0  0  0  0  0
   22.3849   -4.7097  -15.4050 C   0  0  0  0  0  0  0  0  0  0  0  0
   23.1156   -4.9984  -14.4071 O   0  0  0  0  0  0  0  0  0  0  0  0
   19.5481   -3.9031  -16.2641 O   0  0  0  0  0  0  0  0  0  0  0  0
   22.3869   -3.3809  -15.8020 O   0  0  0  0  0  0  0  0  0  0  0  0
  2  1  1  0
  3  2  1  0
  3  4  1  6
  5  3  1  0
  5  6  1  1
  7  8  2  0
  7  5  1  0
  9  7  1  0
 10  9  1  0
 11 12  1  0
 10 11  1  6
 12 13  2  0
 13 14  1  0
 15 14  2  0
 16 15  1  0
 17 12  1  0
 17 16  2  0
 18 19  2  0
 18 10  1  0
 20 18  1  0
 21 20  1  0
 21 22  1  1
 23 22  1  0
 24 23  2  0
 25 21  1  0
 26 25  2  0
 27 23  1  0
 28 25  1  0
M  END
$$$$
