IFD.pdb
     RDKit          3D

 28 28  0  0  1  0  0  0  0  0999 V2000
   24.5049  -21.9774  -18.8896 C   0  0  0  0  0  0  0  0  0  0  0  0
   25.4459  -22.5852  -17.8731 C   0  0  0  0  0  0  0  0  0  0  0  0
   25.7292  -24.0224  -18.2082 C   0  0  2  0  0  0  0  0  0  0  0  0
   24.4508  -24.7938  -18.3596 C   0  0  0  0  0  0  0  0  0  0  0  0
   26.7091  -24.6516  -17.2581 C   0  0  2  0  0  0  0  0  0  0  0  0
   27.9261  -23.8672  -17.3151 N   0  0  0  0  0  0  0  0  0  0  0  0
   27.0200  -26.0500  -17.5628 C   0  0  0  0  0  0  0  0  0  0  0  0
   27.5463  -26.4253  -18.6520 O   0  0  0  0  0  0  0  0  0  0  0  0
   26.7286  -27.0595  -16.6094 N   0  0  0  0  0  0  0  0  0  0  0  0
   26.9727  -28.4760  -16.8508 C   0  0  1  0  0  0  0  0  0  0  0  0
   27.9740  -28.9245  -15.8087 C   0  0  0  0  0  0  0  0  0  0  0  0
   29.3791  -28.7007  -16.2114 C   0  0  0  0  0  0  0  0  0  0  0  0
   30.1377  -29.6997  -16.8210 C   0  0  0  0  0  0  0  0  0  0  0  0
   31.4458  -29.5069  -17.2125 C   0  0  0  0  0  0  0  0  0  0  0  0
   32.0285  -28.2820  -16.9946 C   0  0  0  0  0  0  0  0  0  0  0  0
   31.3104  -27.2700  -16.3948 C   0  0  0  0  0  0  0  0  0  0  0  0
   29.9856  -27.4819  -16.0042 C   0  0  0  0  0  0  0  0  0  0  0  0
   25.7024  -29.1991  -16.6906 C   0  0  0  0  0  0  0  0  0  0  0  0
   24.8689  -28.8399  -15.8243 O   0  0  0  0  0  0  0  0  0  0  0  0
   25.3989  -30.3033  -17.5023 N   0  0  0  0  0  0  0  0  0  0  0  0
   24.1583  -31.0266  -17.3033 C   0  0  1  0  0  0  0  0  0  0  0  0
   23.3128  -30.7321  -18.5228 C   0  0  0  0  0  0  0  0  0  0  0  0
   22.0926  -31.5286  -18.6326 C   0  0  0  0  0  0  0  0  0  0  0  0
   21.7762  -32.2408  -19.6193 O   0  0  0  0  0  0  0  0  0  0  0  0
   24.5125  -32.4708  -17.1976 C   0  0  0  0  0  0  0  0  0  0  0  0
   23.6263  -33.3104  -16.8469 O   0  0  0  0  0  0  0  0  0  0  0  0
   21.2007  -31.4910  -17.5389 O   0  0  0  0  0  0  0  0  0  0  0  0
   25.7734  -32.9846  -17.4613 O   0  0  0  0  0  0  0  0  0  0  0  0
  2  1  1  0
  3  2  1  0
  3  4  1  1
  5  3  1  0
  5  6  1  6
  7  8  2  0
  7  5  1  0
  9  7  1  0
 10  9  1  0
 11 12  1  0
 10 11  1  1
 12 13  2  0
 13 14  1  0
 15 14  2  0
 16 15  1  0
 17 12  1  0
 17 16  2  0
 18 19  2  0
 18 10  1  0
 20 18  1  0
 21 20  1  0
 21 22  1  6
 23 22  1  0
 24 23  2  0
 25 21  1  0
 26 25  2  0
 27 23  1  0
 28 25  1  0
M  END
$$$$
