IFD.pdb
     RDKit          3D

 28 28  0  0  1  0  0  0  0  0999 V2000
   30.0833  -19.8319  -15.3988 C   0  0  0  0  0  0  0  0  0  0  0  0
   30.4070  -20.0650  -13.9397 C   0  0  0  0  0  0  0  0  0  0  0  0
   29.1755  -20.4788  -13.1847 C   0  0  2  0  0  0  0  0  0  0  0  0
   28.0478  -19.5232  -13.4444 C   0  0  0  0  0  0  0  0  0  0  0  0
   29.4480  -20.7141  -11.7255 C   0  0  2  0  0  0  0  0  0  0  0  0
   30.4000  -21.8029  -11.6370 N   0  0  0  0  0  0  0  0  0  0  0  0
   28.2558  -21.0489  -10.9435 C   0  0  0  0  0  0  0  0  0  0  0  0
   27.7545  -22.2113  -10.9006 O   0  0  0  0  0  0  0  0  0  0  0  0
   27.6062  -20.0415  -10.1845 N   0  0  0  0  0  0  0  0  0  0  0  0
   26.3592  -20.2674   -9.4646 C   0  0  1  0  0  0  0  0  0  0  0  0
   26.2997  -19.2260   -8.3684 C   0  0  0  0  0  0  0  0  0  0  0  0
   27.0747  -19.5967   -7.1649 C   0  0  0  0  0  0  0  0  0  0  0  0
   27.2728  -18.7024   -6.1132 C   0  0  0  0  0  0  0  0  0  0  0  0
   27.9839  -19.0328   -4.9789 C   0  0  0  0  0  0  0  0  0  0  0  0
   28.5204  -20.2935   -4.8774 C   0  0  0  0  0  0  0  0  0  0  0  0
   28.3455  -21.2049   -5.8964 C   0  0  0  0  0  0  0  0  0  0  0  0
   27.6220  -20.8540   -7.0391 C   0  0  0  0  0  0  0  0  0  0  0  0
   25.2426  -20.0912  -10.4049 C   0  0  0  0  0  0  0  0  0  0  0  0
   25.2343  -19.1310  -11.2125 O   0  0  0  0  0  0  0  0  0  0  0  0
   24.1664  -20.9922  -10.4165 N   0  0  0  0  0  0  0  0  0  0  0  0
   23.1419  -20.8803  -11.4361 C   0  0  1  0  0  0  0  0  0  0  0  0
   22.9463  -22.2804  -11.9751 C   0  0  0  0  0  0  0  0  0  0  0  0
   21.8528  -22.4237  -12.9337 C   0  0  0  0  0  0  0  0  0  0  0  0
   21.1174  -21.4891  -13.3421 O   0  0  0  0  0  0  0  0  0  0  0  0
   21.9181  -20.3587  -10.7634 C   0  0  0  0  0  0  0  0  0  0  0  0
   21.7939  -20.4789   -9.5051 O   0  0  0  0  0  0  0  0  0  0  0  0
   21.6071  -23.7190  -13.4384 O   0  0  0  0  0  0  0  0  0  0  0  0
   20.8726  -19.7325  -11.4254 O   0  0  0  0  0  0  0  0  0  0  0  0
  2  1  1  0
  3  2  1  0
  3  4  1  1
  5  3  1  0
  5  6  1  6
  7  8  2  0
  7  5  1  0
  9  7  1  0
 10  9  1  0
 11 12  1  0
 10 11  1  1
 12 13  2  0
 13 14  1  0
 15 14  2  0
 16 15  1  0
 17 12  1  0
 17 16  2  0
 18 19  2  0
 18 10  1  0
 20 18  1  0
 21 20  1  0
 21 22  1  1
 23 22  1  0
 24 23  2  0
 25 21  1  0
 26 25  2  0
 27 23  1  0
 28 25  1  0
M  END
$$$$
