IFD.pdb
     RDKit          3D

 28 28  0  0  1  0  0  0  0  0999 V2000
   28.2273  -30.5975  -16.8499 C   0  0  0  0  0  0  0  0  0  0  0  0
   28.8865  -29.2791  -17.1893 C   0  0  0  0  0  0  0  0  0  0  0  0
   27.9451  -28.1361  -16.9341 C   0  0  2  0  0  0  0  0  0  0  0  0
   26.6375  -28.3590  -17.6360 C   0  0  0  0  0  0  0  0  0  0  0  0
   28.5703  -26.8007  -17.2248 C   0  0  2  0  0  0  0  0  0  0  0  0
   29.7071  -26.6570  -16.3378 N   0  0  0  0  0  0  0  0  0  0  0  0
   27.6641  -25.6655  -17.0378 C   0  0  0  0  0  0  0  0  0  0  0  0
   27.5012  -25.0797  -15.9266 O   0  0  0  0  0  0  0  0  0  0  0  0
   26.9163  -25.1733  -18.1385 N   0  0  0  0  0  0  0  0  0  0  0  0
   25.9910  -24.0520  -18.0340 C   0  0  1  0  0  0  0  0  0  0  0  0
   26.4642  -23.0091  -19.0230 C   0  0  0  0  0  0  0  0  0  0  0  0
   25.5496  -21.8530  -19.1384 C   0  0  0  0  0  0  0  0  0  0  0  0
   25.6248  -20.7659  -18.2680 C   0  0  0  0  0  0  0  0  0  0  0  0
   24.7875  -19.6745  -18.3657 C   0  0  0  0  0  0  0  0  0  0  0  0
   23.8396  -19.6541  -19.3600 C   0  0  0  0  0  0  0  0  0  0  0  0
   23.7351  -20.7103  -20.2394 C   0  0  0  0  0  0  0  0  0  0  0  0
   24.5915  -21.8085  -20.1265 C   0  0  0  0  0  0  0  0  0  0  0  0
   24.6454  -24.5268  -18.3891 C   0  0  0  0  0  0  0  0  0  0  0  0
   24.4810  -25.3191  -19.3479 O   0  0  0  0  0  0  0  0  0  0  0  0
   23.5212  -24.1032  -17.6632 N   0  0  0  0  0  0  0  0  0  0  0  0
   22.2080  -24.6164  -18.0009 C   0  0  1  0  0  0  0  0  0  0  0  0
   21.6167  -25.1147  -16.7006 C   0  0  0  0  0  0  0  0  0  0  0  0
   20.2720  -25.6760  -16.8111 C   0  0  0  0  0  0  0  0  0  0  0  0
   19.5734  -25.6880  -17.8565 O   0  0  0  0  0  0  0  0  0  0  0  0
   21.4336  -23.4787  -18.5736 C   0  0  0  0  0  0  0  0  0  0  0  0
   21.5879  -22.3115  -18.0971 O   0  0  0  0  0  0  0  0  0  0  0  0
   19.7179  -26.2496  -15.6462 O   0  0  0  0  0  0  0  0  0  0  0  0
   20.5302  -23.5995  -19.6189 O   0  0  0  0  0  0  0  0  0  0  0  0
  2  1  1  0
  3  2  1  0
  3  4  1  6
  5  3  1  0
  5  6  1  1
  7  8  2  0
  7  5  1  0
  9  7  1  0
 10  9  1  0
 11 12  1  0
 10 11  1  6
 12 13  2  0
 13 14  1  0
 15 14  2  0
 16 15  1  0
 17 12  1  0
 17 16  2  0
 18 19  2  0
 18 10  1  0
 20 18  1  0
 21 20  1  0
 21 22  1  1
 23 22  1  0
 24 23  2  0
 25 21  1  0
 26 25  2  0
 27 23  1  0
 28 25  1  0
M  END
$$$$
