IFD.pdb
     RDKit          3D

 28 28  0  0  1  0  0  0  0  0999 V2000
   26.9383  -18.7969  -20.2090 C   0  0  0  0  0  0  0  0  0  0  0  0
   27.8058  -19.3497  -19.0999 C   0  0  0  0  0  0  0  0  0  0  0  0
   26.9575  -19.8519  -17.9658 C   0  0  2  0  0  0  0  0  0  0  0  0
   25.9354  -18.8257  -17.5730 C   0  0  0  0  0  0  0  0  0  0  0  0
   27.7794  -20.3617  -16.8154 C   0  0  2  0  0  0  0  0  0  0  0  0
   28.6460  -21.4005  -17.3343 N   0  0  0  0  0  0  0  0  0  0  0  0
   26.9854  -20.9016  -15.7094 C   0  0  0  0  0  0  0  0  0  0  0  0
   26.3050  -21.9665  -15.7951 O   0  0  0  0  0  0  0  0  0  0  0  0
   26.9565  -20.2198  -14.4655 N   0  0  0  0  0  0  0  0  0  0  0  0
   26.1196  -20.6384  -13.3480 C   0  0  1  0  0  0  0  0  0  0  0  0
   26.7531  -20.0681  -12.0978 C   0  0  0  0  0  0  0  0  0  0  0  0
   25.9627  -20.3188  -10.8735 C   0  0  0  0  0  0  0  0  0  0  0  0
   24.8422  -19.5534  -10.5517 C   0  0  0  0  0  0  0  0  0  0  0  0
   24.0869  -19.7782   -9.4201 C   0  0  0  0  0  0  0  0  0  0  0  0
   24.4503  -20.7971   -8.5731 C   0  0  0  0  0  0  0  0  0  0  0  0
   25.5516  -21.5753   -8.8579 C   0  0  0  0  0  0  0  0  0  0  0  0
   26.3061  -21.3341  -10.0089 C   0  0  0  0  0  0  0  0  0  0  0  0
   24.7726  -20.0821  -13.5438 C   0  0  0  0  0  0  0  0  0  0  0  0
   24.6186  -18.8709  -13.8325 O   0  0  0  0  0  0  0  0  0  0  0  0
   23.6355  -20.8944  -13.4115 N   0  0  0  0  0  0  0  0  0  0  0  0
   22.3136  -20.3102  -13.5255 C   0  0  1  0  0  0  0  0  0  0  0  0
   21.8565  -20.6047  -14.9373 C   0  0  0  0  0  0  0  0  0  0  0  0
   20.4971  -20.1679  -15.2479 C   0  0  0  0  0  0  0  0  0  0  0  0
   19.7402  -19.5373  -14.4665 O   0  0  0  0  0  0  0  0  0  0  0  0
   21.4568  -20.9775  -12.5043 C   0  0  0  0  0  0  0  0  0  0  0  0
   20.2441  -20.6232  -12.3739 O   0  0  0  0  0  0  0  0  0  0  0  0
   19.9988  -20.4827  -16.5307 O   0  0  0  0  0  0  0  0  0  0  0  0
   21.8946  -21.9869  -11.6600 O   0  0  0  0  0  0  0  0  0  0  0  0
  2  1  1  0
  3  2  1  0
  3  4  1  1
  5  3  1  0
  5  6  1  6
  7  8  2  0
  7  5  1  0
  9  7  1  0
 10  9  1  0
 11 12  1  0
 10 11  1  1
 12 13  2  0
 13 14  1  0
 15 14  2  0
 16 15  1  0
 17 12  1  0
 17 16  2  0
 18 19  2  0
 18 10  1  0
 20 18  1  0
 21 20  1  0
 21 22  1  6
 23 22  1  0
 24 23  2  0
 25 21  1  0
 26 25  2  0
 27 23  1  0
 28 25  1  0
M  END
$$$$
