IFD.pdb
     RDKit          3D

 28 28  0  0  1  0  0  0  0  0999 V2000
   28.5999  -21.1979  -19.7174 C   0  0  0  0  0  0  0  0  0  0  0  0
   29.2595  -20.8439  -18.4030 C   0  0  0  0  0  0  0  0  0  0  0  0
   28.5829  -21.5532  -17.2641 C   0  0  2  0  0  0  0  0  0  0  0  0
   28.7128  -23.0408  -17.4135 C   0  0  0  0  0  0  0  0  0  0  0  0
   27.1704  -21.0852  -17.0535 C   0  0  2  0  0  0  0  0  0  0  0  0
   27.1903  -19.6365  -17.0782 N   0  0  0  0  0  0  0  0  0  0  0  0
   26.5738  -21.5396  -15.7955 C   0  0  0  0  0  0  0  0  0  0  0  0
   26.3103  -22.7535  -15.5478 O   0  0  0  0  0  0  0  0  0  0  0  0
   26.2633  -20.5958  -14.7826 N   0  0  0  0  0  0  0  0  0  0  0  0
   25.5430  -20.9442  -13.5644 C   0  0  1  0  0  0  0  0  0  0  0  0
   26.0688  -20.0325  -12.4771 C   0  0  0  0  0  0  0  0  0  0  0  0
   25.4366  -20.2648  -11.1608 C   0  0  0  0  0  0  0  0  0  0  0  0
   26.0070  -21.1105  -10.2098 C   0  0  0  0  0  0  0  0  0  0  0  0
   25.4379  -21.3320   -8.9734 C   0  0  0  0  0  0  0  0  0  0  0  0
   24.2609  -20.6950   -8.6626 C   0  0  0  0  0  0  0  0  0  0  0  0
   23.6673  -19.8515   -9.5768 C   0  0  0  0  0  0  0  0  0  0  0  0
   24.2573  -19.6380  -10.8252 C   0  0  0  0  0  0  0  0  0  0  0  0
   24.1096  -20.7059  -13.7892 C   0  0  0  0  0  0  0  0  0  0  0  0
   23.7214  -19.6798  -14.3980 O   0  0  0  0  0  0  0  0  0  0  0  0
   23.1499  -21.6202  -13.3274 N   0  0  0  0  0  0  0  0  0  0  0  0
   21.7411  -21.3657  -13.5560 C   0  0  1  0  0  0  0  0  0  0  0  0
   21.2493  -22.5188  -14.4030 C   0  0  0  0  0  0  0  0  0  0  0  0
   20.7662  -22.1451  -15.7305 C   0  0  0  0  0  0  0  0  0  0  0  0
   20.6072  -20.9673  -16.1409 O   0  0  0  0  0  0  0  0  0  0  0  0
   21.0860  -21.3291  -12.2176 C   0  0  0  0  0  0  0  0  0  0  0  0
   21.6233  -21.9345  -11.2389 O   0  0  0  0  0  0  0  0  0  0  0  0
   20.4544  -23.1964  -16.6197 O   0  0  0  0  0  0  0  0  0  0  0  0
   19.8987  -20.6641  -11.9497 O   0  0  0  0  0  0  0  0  0  0  0  0
  2  1  1  0
  3  2  1  0
  3  4  1  6
  5  3  1  0
  5  6  1  1
  7  8  2  0
  7  5  1  0
  9  7  1  0
 10  9  1  0
 11 12  1  0
 10 11  1  1
 12 13  2  0
 13 14  1  0
 15 14  2  0
 16 15  1  0
 17 12  1  0
 17 16  2  0
 18 19  2  0
 18 10  1  0
 20 18  1  0
 21 20  1  0
 21 22  1  6
 23 22  1  0
 24 23  2  0
 25 21  1  0
 26 25  2  0
 27 23  1  0
 28 25  1  0
M  END
$$$$
