IFD.pdb
     RDKit          3D

 28 28  0  0  1  0  0  0  0  0999 V2000
   18.3831  -23.6251  -10.9075 C   0  0  0  0  0  0  0  0  0  0  0  0
   18.2485  -22.1590  -10.5602 C   0  0  0  0  0  0  0  0  0  0  0  0
   19.3729  -21.3670  -11.1656 C   0  0  2  0  0  0  0  0  0  0  0  0
   19.3493  -21.4712  -12.6625 C   0  0  0  0  0  0  0  0  0  0  0  0
   20.7049  -21.7005  -10.5546 C   0  0  2  0  0  0  0  0  0  0  0  0
   20.5976  -21.4539   -9.1308 N   0  0  0  0  0  0  0  0  0  0  0  0
   21.8207  -20.9228  -11.0977 C   0  0  0  0  0  0  0  0  0  0  0  0
   21.9121  -19.6643  -10.9866 O   0  0  0  0  0  0  0  0  0  0  0  0
   22.8686  -21.5838  -11.7891 N   0  0  0  0  0  0  0  0  0  0  0  0
   23.9837  -20.8774  -12.4070 C   0  0  1  0  0  0  0  0  0  0  0  0
   25.2129  -21.7305  -12.1806 C   0  0  0  0  0  0  0  0  0  0  0  0
   26.4165  -21.2191  -12.8707 C   0  0  0  0  0  0  0  0  0  0  0  0
   26.8812  -21.7866  -14.0568 C   0  0  0  0  0  0  0  0  0  0  0  0
   27.9956  -21.3176  -14.7201 C   0  0  0  0  0  0  0  0  0  0  0  0
   28.6781  -20.2478  -14.1936 C   0  0  0  0  0  0  0  0  0  0  0  0
   28.2489  -19.6604  -13.0229 C   0  0  0  0  0  0  0  0  0  0  0  0
   27.1176  -20.1479  -12.3635 C   0  0  0  0  0  0  0  0  0  0  0  0
   23.7072  -20.7422  -13.8449 C   0  0  0  0  0  0  0  0  0  0  0  0
   23.2354  -21.7048  -14.4969 O   0  0  0  0  0  0  0  0  0  0  0  0
   23.9655  -19.5357  -14.5141 N   0  0  0  0  0  0  0  0  0  0  0  0
   23.6115  -19.3957  -15.9129 C   0  0  1  0  0  0  0  0  0  0  0  0
   23.0238  -18.0083  -16.0493 C   0  0  0  0  0  0  0  0  0  0  0  0
   22.5965  -17.6509  -17.4002 C   0  0  0  0  0  0  0  0  0  0  0  0
   22.6824  -18.3951  -18.4101 O   0  0  0  0  0  0  0  0  0  0  0  0
   24.8705  -19.5545  -16.6952 C   0  0  0  0  0  0  0  0  0  0  0  0
   25.9345  -18.9888  -16.2938 O   0  0  0  0  0  0  0  0  0  0  0  0
   22.0434  -16.3645  -17.5795 O   0  0  0  0  0  0  0  0  0  0  0  0
   24.9733  -20.2953  -17.8631 O   0  0  0  0  0  0  0  0  0  0  0  0
  2  1  1  0
  3  2  1  0
  3  4  1  6
  5  3  1  0
  5  6  1  1
  7  8  2  0
  7  5  1  0
  9  7  1  0
 10  9  1  0
 11 12  1  0
 10 11  1  6
 12 13  2  0
 13 14  1  0
 15 14  2  0
 16 15  1  0
 17 12  1  0
 17 16  2  0
 18 19  2  0
 18 10  1  0
 20 18  1  0
 21 20  1  0
 21 22  1  1
 23 22  1  0
 24 23  2  0
 25 21  1  0
 26 25  2  0
 27 23  1  0
 28 25  1  0
M  END
$$$$
