IFD.pdb
     RDKit          3D

 28 28  0  0  1  0  0  0  0  0999 V2000
   20.9078  -15.0365  -17.8663 C   0  0  0  0  0  0  0  0  0  0  0  0
   20.8180  -13.5896  -18.2982 C   0  0  0  0  0  0  0  0  0  0  0  0
   21.3255  -12.6817  -17.2137 C   0  0  2  0  0  0  0  0  0  0  0  0
   20.7184  -13.0452  -15.8903 C   0  0  0  0  0  0  0  0  0  0  0  0
   21.1837  -11.2280  -17.5680 C   0  0  2  0  0  0  0  0  0  0  0  0
   21.8876  -11.0203  -18.8174 N   0  0  0  0  0  0  0  0  0  0  0  0
   21.7154  -10.3136  -16.5552 C   0  0  0  0  0  0  0  0  0  0  0  0
   21.3849  -10.3590  -15.3332 O   0  0  0  0  0  0  0  0  0  0  0  0
   22.6504   -9.3146  -16.9304 N   0  0  0  0  0  0  0  0  0  0  0  0
   23.2482   -8.3866  -15.9787 C   0  0  1  0  0  0  0  0  0  0  0  0
   24.7004   -8.2368  -16.3769 C   0  0  0  0  0  0  0  0  0  0  0  0
   25.4857   -9.4781  -16.2077 C   0  0  0  0  0  0  0  0  0  0  0  0
   26.0698  -10.1326  -17.2920 C   0  0  0  0  0  0  0  0  0  0  0  0
   26.8138  -11.2853  -17.1531 C   0  0  0  0  0  0  0  0  0  0  0  0
   26.9886  -11.8133  -15.8969 C   0  0  0  0  0  0  0  0  0  0  0  0
   26.4267  -11.1945  -14.8009 C   0  0  0  0  0  0  0  0  0  0  0  0
   25.6757  -10.0269  -14.9591 C   0  0  0  0  0  0  0  0  0  0  0  0
   22.5482   -7.0979  -16.0857 C   0  0  0  0  0  0  0  0  0  0  0  0
   22.3962   -6.5454  -17.2018 O   0  0  0  0  0  0  0  0  0  0  0  0
   22.0378   -6.4625  -14.9429 N   0  0  0  0  0  0  0  0  0  0  0  0
   21.3527   -5.1911  -15.0689 C   0  0  1  0  0  0  0  0  0  0  0  0
   19.9157   -5.4604  -14.6796 C   0  0  0  0  0  0  0  0  0  0  0  0
   19.0434   -4.2882  -14.6969 C   0  0  0  0  0  0  0  0  0  0  0  0
   19.3607   -3.1528  -15.1341 O   0  0  0  0  0  0  0  0  0  0  0  0
   22.0229   -4.2445  -14.1325 C   0  0  0  0  0  0  0  0  0  0  0  0
   22.6744   -4.6980  -13.1410 O   0  0  0  0  0  0  0  0  0  0  0  0
   17.7399   -4.4502  -14.1794 O   0  0  0  0  0  0  0  0  0  0  0  0
   21.9898   -2.8643  -14.2644 O   0  0  0  0  0  0  0  0  0  0  0  0
  2  1  1  0
  3  2  1  0
  3  4  1  1
  5  3  1  0
  5  6  1  6
  7  8  2  0
  7  5  1  0
  9  7  1  0
 10  9  1  0
 11 12  1  0
 10 11  1  6
 12 13  2  0
 13 14  1  0
 15 14  2  0
 16 15  1  0
 17 12  1  0
 17 16  2  0
 18 19  2  0
 18 10  1  0
 20 18  1  0
 21 20  1  0
 21 22  1  1
 23 22  1  0
 24 23  2  0
 25 21  1  0
 26 25  2  0
 27 23  1  0
 28 25  1  0
M  END
$$$$
