IFD.pdb
     RDKit          3D

 28 28  0  0  1  0  0  0  0  0999 V2000
   26.2261  -20.3350  -19.1944 C   0  0  0  0  0  0  0  0  0  0  0  0
   25.5475  -21.6772  -19.0331 C   0  0  0  0  0  0  0  0  0  0  0  0
   25.1573  -21.9034  -17.5997 C   0  0  2  0  0  0  0  0  0  0  0  0
   24.1064  -20.9201  -17.1744 C   0  0  0  0  0  0  0  0  0  0  0  0
   26.3463  -21.9563  -16.6819 C   0  0  2  0  0  0  0  0  0  0  0  0
   27.1717  -23.0666  -17.1127 N   0  0  0  0  0  0  0  0  0  0  0  0
   26.0009  -22.1296  -15.2693 C   0  0  0  0  0  0  0  0  0  0  0  0
   25.3819  -23.1403  -14.8223 O   0  0  0  0  0  0  0  0  0  0  0  0
   26.3644  -21.1318  -14.3284 N   0  0  0  0  0  0  0  0  0  0  0  0
   25.9558  -21.1703  -12.9299 C   0  0  1  0  0  0  0  0  0  0  0  0
   26.9588  -20.3348  -12.1646 C   0  0  0  0  0  0  0  0  0  0  0  0
   26.6631  -20.2424  -10.7188 C   0  0  0  0  0  0  0  0  0  0  0  0
   27.2513  -21.1019   -9.7913 C   0  0  0  0  0  0  0  0  0  0  0  0
   26.9958  -21.0248   -8.4384 C   0  0  0  0  0  0  0  0  0  0  0  0
   26.1268  -20.0634   -7.9823 C   0  0  0  0  0  0  0  0  0  0  0  0
   25.5261  -19.1957   -8.8689 C   0  0  0  0  0  0  0  0  0  0  0  0
   25.7961  -19.2873  -10.2367 C   0  0  0  0  0  0  0  0  0  0  0  0
   24.6103  -20.5866  -12.8239 C   0  0  0  0  0  0  0  0  0  0  0  0
   24.3352  -19.5086  -13.4038 O   0  0  0  0  0  0  0  0  0  0  0  0
   23.6100  -21.2234  -12.0728 N   0  0  0  0  0  0  0  0  0  0  0  0
   22.2815  -20.6471  -12.0041 C   0  0  1  0  0  0  0  0  0  0  0  0
   21.4220  -21.4899  -12.9206 C   0  0  0  0  0  0  0  0  0  0  0  0
   20.6524  -20.7361  -13.9079 C   0  0  0  0  0  0  0  0  0  0  0  0
   20.6481  -19.4841  -14.0241 O   0  0  0  0  0  0  0  0  0  0  0  0
   21.8450  -20.7362  -10.5815 C   0  0  0  0  0  0  0  0  0  0  0  0
   20.8300  -20.0783  -10.1939 O   0  0  0  0  0  0  0  0  0  0  0  0
   19.8507  -21.4796  -14.8009 O   0  0  0  0  0  0  0  0  0  0  0  0
   22.4805  -21.5061   -9.6188 O   0  0  0  0  0  0  0  0  0  0  0  0
  2  1  1  0
  3  2  1  0
  3  4  1  1
  5  3  1  0
  5  6  1  6
  7  8  2  0
  7  5  1  0
  9  7  1  0
 10  9  1  0
 11 12  1  0
 10 11  1  1
 12 13  2  0
 13 14  1  0
 15 14  2  0
 16 15  1  0
 17 12  1  0
 17 16  2  0
 18 19  2  0
 18 10  1  0
 20 18  1  0
 21 20  1  0
 21 22  1  6
 23 22  1  0
 24 23  2  0
 25 21  1  0
 26 25  2  0
 27 23  1  0
 28 25  1  0
M  END
$$$$
