IFD.pdb
     RDKit          3D

 28 28  0  0  1  0  0  0  0  0999 V2000
   17.4153  -15.9726  -16.6855 C   0  0  0  0  0  0  0  0  0  0  0  0
   17.8457  -14.6869  -17.3563 C   0  0  0  0  0  0  0  0  0  0  0  0
   17.6861  -13.5228  -16.4196 C   0  0  2  0  0  0  0  0  0  0  0  0
   16.2855  -13.4605  -15.8845 C   0  0  0  0  0  0  0  0  0  0  0  0
   18.1642  -12.2313  -17.0213 C   0  0  2  0  0  0  0  0  0  0  0  0
   19.4230  -12.5068  -17.6841 N   0  0  0  0  0  0  0  0  0  0  0  0
   18.3559  -11.1551  -16.0467 C   0  0  0  0  0  0  0  0  0  0  0  0
   17.4657  -10.7974  -15.2197 O   0  0  0  0  0  0  0  0  0  0  0  0
   19.5910  -10.4583  -16.0015 N   0  0  0  0  0  0  0  0  0  0  0  0
   19.8015   -9.2638  -15.1934 C   0  0  1  0  0  0  0  0  0  0  0  0
   21.2986   -9.0631  -15.1027 C   0  0  0  0  0  0  0  0  0  0  0  0
   21.6809   -7.7646  -14.5075 C   0  0  0  0  0  0  0  0  0  0  0  0
   21.6215   -7.5397  -13.1324 C   0  0  0  0  0  0  0  0  0  0  0  0
   21.9832   -6.3394  -12.5580 C   0  0  0  0  0  0  0  0  0  0  0  0
   22.4203   -5.3215  -13.3706 C   0  0  0  0  0  0  0  0  0  0  0  0
   22.4928   -5.5063  -14.7345 C   0  0  0  0  0  0  0  0  0  0  0  0
   22.1226   -6.7290  -15.3005 C   0  0  0  0  0  0  0  0  0  0  0  0
   19.1687   -8.1252  -15.8754 C   0  0  0  0  0  0  0  0  0  0  0  0
   19.2568   -7.9984  -17.1206 O   0  0  0  0  0  0  0  0  0  0  0  0
   18.4552   -7.1601  -15.1475 N   0  0  0  0  0  0  0  0  0  0  0  0
   17.9030   -6.0051  -15.8277 C   0  0  1  0  0  0  0  0  0  0  0  0
   16.4079   -6.0769  -15.6078 C   0  0  0  0  0  0  0  0  0  0  0  0
   15.6608   -4.9096  -16.0710 C   0  0  0  0  0  0  0  0  0  0  0  0
   15.8119   -4.3452  -17.1844 O   0  0  0  0  0  0  0  0  0  0  0  0
   18.5092   -4.7997  -15.1939 C   0  0  0  0  0  0  0  0  0  0  0  0
   18.2312   -3.6458  -15.6461 O   0  0  0  0  0  0  0  0  0  0  0  0
   14.6925   -4.3770  -15.1926 O   0  0  0  0  0  0  0  0  0  0  0  0
   19.3796   -4.8418  -14.1151 O   0  0  0  0  0  0  0  0  0  0  0  0
  2  1  1  0
  3  2  1  0
  3  4  1  6
  5  3  1  0
  5  6  1  1
  7  8  2  0
  7  5  1  0
  9  7  1  0
 10  9  1  0
 11 12  1  0
 10 11  1  6
 12 13  2  0
 13 14  1  0
 15 14  2  0
 16 15  1  0
 17 12  1  0
 17 16  2  0
 18 19  2  0
 18 10  1  0
 20 18  1  0
 21 20  1  0
 21 22  1  1
 23 22  1  0
 24 23  2  0
 25 21  1  0
 26 25  2  0
 27 23  1  0
 28 25  1  0
M  END
$$$$
