IFD.pdb
     RDKit          3D

 28 28  0  0  1  0  0  0  0  0999 V2000
   18.1436  -11.1918  -20.6977 C   0  0  0  0  0  0  0  0  0  0  0  0
   18.1103  -12.2121  -19.5815 C   0  0  0  0  0  0  0  0  0  0  0  0
   18.5841  -11.6015  -18.2928 C   0  0  2  0  0  0  0  0  0  0  0  0
   17.8384  -10.3322  -18.0015 C   0  0  0  0  0  0  0  0  0  0  0  0
   20.0788  -11.4527  -18.2428 C   0  0  2  0  0  0  0  0  0  0  0  0
   20.6477  -12.7730  -18.4235 N   0  0  0  0  0  0  0  0  0  0  0  0
   20.5784  -10.8776  -16.9920 C   0  0  0  0  0  0  0  0  0  0  0  0
   20.2235  -11.2859  -15.8467 O   0  0  0  0  0  0  0  0  0  0  0  0
   21.5086   -9.8070  -17.0318 N   0  0  0  0  0  0  0  0  0  0  0  0
   22.0708   -9.1964  -15.8337 C   0  0  1  0  0  0  0  0  0  0  0  0
   23.5635   -9.4389  -15.8861 C   0  0  0  0  0  0  0  0  0  0  0  0
   23.9268  -10.8713  -15.8345 C   0  0  0  0  0  0  0  0  0  0  0  0
   24.4163  -11.5467  -16.9522 C   0  0  0  0  0  0  0  0  0  0  0  0
   24.7698  -12.8792  -16.9212 C   0  0  0  0  0  0  0  0  0  0  0  0
   24.6355  -13.5726  -15.7428 C   0  0  0  0  0  0  0  0  0  0  0  0
   24.1553  -12.9390  -14.6169 C   0  0  0  0  0  0  0  0  0  0  0  0
   23.8018  -11.5881  -14.6654 C   0  0  0  0  0  0  0  0  0  0  0  0
   21.7806   -7.7553  -15.8681 C   0  0  0  0  0  0  0  0  0  0  0  0
   21.9388   -7.0979  -16.9250 O   0  0  0  0  0  0  0  0  0  0  0  0
   21.3220   -7.0889  -14.7210 N   0  0  0  0  0  0  0  0  0  0  0  0
   21.0061   -5.6754  -14.7847 C   0  0  1  0  0  0  0  0  0  0  0  0
   19.7401   -5.5022  -13.9747 C   0  0  0  0  0  0  0  0  0  0  0  0
   18.5316   -6.0349  -14.6002 C   0  0  0  0  0  0  0  0  0  0  0  0
   17.7581   -6.8806  -14.0829 O   0  0  0  0  0  0  0  0  0  0  0  0
   22.1618   -4.9471  -14.1880 C   0  0  0  0  0  0  0  0  0  0  0  0
   23.0284   -5.5880  -13.5161 O   0  0  0  0  0  0  0  0  0  0  0  0
   18.2121   -5.5574  -15.8897 O   0  0  0  0  0  0  0  0  0  0  0  0
   22.3708   -3.5819  -14.3138 O   0  0  0  0  0  0  0  0  0  0  0  0
  2  1  1  0
  3  2  1  0
  3  4  1  6
  5  3  1  0
  5  6  1  1
  7  8  2  0
  7  5  1  0
  9  7  1  0
 10  9  1  0
 11 12  1  0
 10 11  1  6
 12 13  2  0
 13 14  1  0
 15 14  2  0
 16 15  1  0
 17 12  1  0
 17 16  2  0
 18 19  2  0
 18 10  1  0
 20 18  1  0
 21 20  1  0
 21 22  1  1
 23 22  1  0
 24 23  2  0
 25 21  1  0
 26 25  2  0
 27 23  1  0
 28 25  1  0
M  END
$$$$
