IFD.pdb
     RDKit          3D

 28 28  0  0  1  0  0  0  0  0999 V2000
   24.2058  -26.2360  -18.7964 C   0  0  0  0  0  0  0  0  0  0  0  0
   25.0232  -25.4708  -17.7794 C   0  0  0  0  0  0  0  0  0  0  0  0
   24.1378  -24.9130  -16.7011 C   0  0  2  0  0  0  0  0  0  0  0  0
   22.9662  -24.1897  -17.2980 C   0  0  0  0  0  0  0  0  0  0  0  0
   24.9018  -24.1025  -15.6922 C   0  0  2  0  0  0  0  0  0  0  0  0
   25.8589  -24.9909  -15.0641 N   0  0  0  0  0  0  0  0  0  0  0  0
   24.0615  -23.4896  -14.6611 C   0  0  0  0  0  0  0  0  0  0  0  0
   23.4769  -24.1525  -13.7538 O   0  0  0  0  0  0  0  0  0  0  0  0
   23.8729  -22.0834  -14.6511 N   0  0  0  0  0  0  0  0  0  0  0  0
   23.0348  -21.4000  -13.6740 C   0  0  1  0  0  0  0  0  0  0  0  0
   23.8524  -20.2452  -13.1375 C   0  0  0  0  0  0  0  0  0  0  0  0
   24.6224  -20.5869  -11.9223 C   0  0  0  0  0  0  0  0  0  0  0  0
   25.9274  -21.0740  -11.9911 C   0  0  0  0  0  0  0  0  0  0  0  0
   26.6649  -21.3887  -10.8692 C   0  0  0  0  0  0  0  0  0  0  0  0
   26.0937  -21.2164   -9.6316 C   0  0  0  0  0  0  0  0  0  0  0  0
   24.8061  -20.7370   -9.5235 C   0  0  0  0  0  0  0  0  0  0  0  0
   24.0726  -20.4228  -10.6705 C   0  0  0  0  0  0  0  0  0  0  0  0
   21.8318  -20.9056  -14.3601 C   0  0  0  0  0  0  0  0  0  0  0  0
   21.9249  -20.3067  -15.4586 O   0  0  0  0  0  0  0  0  0  0  0  0
   20.5588  -21.0940  -13.7997 N   0  0  0  0  0  0  0  0  0  0  0  0
   19.3832  -20.6173  -14.5015 C   0  0  1  0  0  0  0  0  0  0  0  0
   18.2546  -21.5310  -14.0767 C   0  0  0  0  0  0  0  0  0  0  0  0
   16.9442  -21.1857  -14.6236 C   0  0  0  0  0  0  0  0  0  0  0  0
   16.7043  -20.2022  -15.3693 O   0  0  0  0  0  0  0  0  0  0  0  0
   19.1624  -19.2085  -14.0673 C   0  0  0  0  0  0  0  0  0  0  0  0
   19.4536  -18.8647  -12.8798 O   0  0  0  0  0  0  0  0  0  0  0  0
   15.8641  -22.0287  -14.2832 O   0  0  0  0  0  0  0  0  0  0  0  0
   18.6483  -18.2132  -14.8848 O   0  0  0  0  0  0  0  0  0  0  0  0
  2  1  1  0
  3  2  1  0
  3  4  1  6
  5  3  1  0
  5  6  1  1
  7  8  2  0
  7  5  1  0
  9  7  1  0
 10  9  1  0
 11 12  1  0
 10 11  1  6
 12 13  2  0
 13 14  1  0
 15 14  2  0
 16 15  1  0
 17 12  1  0
 17 16  2  0
 18 19  2  0
 18 10  1  0
 20 18  1  0
 21 20  1  0
 21 22  1  1
 23 22  1  0
 24 23  2  0
 25 21  1  0
 26 25  2  0
 27 23  1  0
 28 25  1  0
M  END
$$$$
