RDR.pdb
     RDKit          3D

 31 30  0  0  1  0  0  0  0  0999 V2000
   19.0074  -26.0189   -7.9915 N   0  0  0  0  0  0  0  0  0  0  0  0
   18.3818  -24.8616   -7.4112 C   0  0  0  0  0  0  0  0  0  0  0  0
   18.5417  -24.6152   -6.1619 N   0  0  0  0  0  0  0  0  0  0  0  0
   17.6033  -24.0212   -8.2406 N   0  0  0  0  0  0  0  0  0  0  0  0
   17.7610  -23.9310   -9.6550 C   0  0  0  0  0  0  0  0  0  0  0  0
   19.1586  -23.9697  -10.1626 C   0  0  0  0  0  0  0  0  0  0  0  0
   19.5976  -22.8312  -11.0061 C   0  0  0  0  0  0  0  0  0  0  0  0
   18.5696  -22.3314  -11.9959 C   0  0  2  0  0  0  0  0  0  0  0  0
   17.8500  -23.4669  -12.5396 N   0  0  0  0  0  0  0  0  0  0  0  0
   19.1995  -21.6081  -13.1181 C   0  0  0  0  0  0  0  0  0  0  0  0
   20.0901  -22.1685  -13.7899 O   0  0  0  0  0  0  0  0  0  0  0  0
   18.0452  -23.8357   -5.7027 N   0  0  0  0  0  0  0  0  0  0  0  0
   18.8488  -20.2629  -13.5030 C   0  0  2  0  0  0  0  0  0  0  0  0
   19.5537  -19.5716  -14.5483 C   0  0  0  0  0  0  0  0  0  0  0  0
   18.9153  -18.2198  -14.8542 C   0  0  0  0  0  0  0  0  0  0  0  0
   19.5952  -17.5109  -15.9374 O   0  0  0  0  0  0  0  0  0  0  0  0
   20.5932  -17.9830  -16.5352 C   0  0  0  0  0  0  0  0  0  0  0  0
   21.0047  -19.4003  -14.2552 O   0  0  0  0  0  0  0  0  0  0  0  0
   21.4079  -19.3114  -13.0438 O   0  0  0  0  0  0  0  0  0  0  0  0
   19.1351  -16.2694  -16.3340 N   0  0  0  0  0  0  0  0  0  0  0  0
   28.6865  -21.3512  -11.1436 C   0  0  0  0  0  0  0  0  0  0  0  0
   27.4447  -21.5093  -11.8620 N   0  0  0  0  0  0  0  0  0  0  0  0
   27.4677  -21.9634  -13.0865 N   0  0  0  0  0  0  0  0  0  0  0  0
   26.2701  -21.1529  -11.1729 C   0  0  0  0  0  0  0  0  0  0  0  0
   24.9830  -21.3608  -11.8795 C   0  0  0  0  0  0  0  0  0  0  0  0
   24.8326  -20.3801  -12.9669 C   0  0  0  0  0  0  0  0  0  0  0  0
   23.7055  -20.3438  -13.8706 C   0  0  2  0  0  0  0  0  0  0  0  0
   23.4604  -19.3933  -14.9451 N   0  0  0  0  0  0  0  0  0  0  0  0
   21.9973  -19.3295  -15.2555 C   0  0  0  0  0  0  0  0  0  0  0  0
   24.2241  -19.4865  -16.1664 O   0  0  0  0  0  0  0  0  0  0  0  0
   23.8734  -19.9942  -17.2386 O   0  0  0  0  0  0  0  0  0  0  0  0
  1  2  1  0
  2  3  2  0
  4  2  1  0
  5  4  1  0
  6  5  1  0
  7  6  1  0
  8  9  1  6
  8 10  1  0
  8  7  1  0
 10 11  2  0
 12 10  1  0
 12 13  1  0
 13 17  1  0
 13 14  1  1
 15 14  1  0
 16 15  2  0
 17 18  2  0
 19 15  1  0
 20 21  1  0
 21 22  2  0
 21 23  1  0
 23 24  1  0
 24 25  1  0
 25 26  1  0
 27 26  1  1
 27 29  1  0
 28 17  1  0
 28 27  1  0
 29 30  2  0
 29 31  1  0
M  END
$$$$
