RDR.pdb
     RDKit          3D

 31 30  0  0  1  0  0  0  0  0999 V2000
   26.2026  -30.2219  -17.6371 N   0  0  0  0  0  0  0  0  0  0  0  0
   24.7834  -30.4477  -17.6832 C   0  0  0  0  0  0  0  0  0  0  0  0
   24.2896  -31.1855  -18.6100 N   0  0  0  0  0  0  0  0  0  0  0  0
   23.9664  -29.8466  -16.6976 N   0  0  0  0  0  0  0  0  0  0  0  0
   24.4505  -28.9478  -15.7020 C   0  0  0  0  0  0  0  0  0  0  0  0
   24.2287  -27.5001  -15.9620 C   0  0  0  0  0  0  0  0  0  0  0  0
   22.8625  -26.9765  -15.7177 C   0  0  0  0  0  0  0  0  0  0  0  0
   22.7819  -25.8204  -14.7465 C   0  0  2  0  0  0  0  0  0  0  0  0
   24.1267  -25.4186  -14.3819 N   0  0  0  0  0  0  0  0  0  0  0  0
   22.0648  -26.1944  -13.5115 C   0  0  0  0  0  0  0  0  0  0  0  0
   22.7142  -26.5335  -12.5006 O   0  0  0  0  0  0  0  0  0  0  0  0
   23.2725  -31.3449  -18.6817 N   0  0  0  0  0  0  0  0  0  0  0  0
   20.6277  -26.1958  -13.3877 C   0  0  2  0  0  0  0  0  0  0  0  0
   19.9807  -26.4895  -12.1376 C   0  0  0  0  0  0  0  0  0  0  0  0
   18.7125  -25.6606  -11.9560 C   0  0  0  0  0  0  0  0  0  0  0  0
   18.9870  -24.3228  -11.4335 O   0  0  0  0  0  0  0  0  0  0  0  0
   18.8908  -23.2873  -12.1370 C   0  0  0  0  0  0  0  0  0  0  0  0
   19.6766  -27.9383  -11.9674 O   0  0  0  0  0  0  0  0  0  0  0  0
   19.3452  -28.6471  -12.9802 O   0  0  0  0  0  0  0  0  0  0  0  0
   19.3690  -24.1713  -10.1140 N   0  0  0  0  0  0  0  0  0  0  0  0
   24.7993  -31.0342   -9.9428 C   0  0  0  0  0  0  0  0  0  0  0  0
   24.3669  -32.2280   -9.2566 N   0  0  0  0  0  0  0  0  0  0  0  0
   25.2436  -33.1516   -8.9659 N   0  0  0  0  0  0  0  0  0  0  0  0
   22.9970  -32.3116   -8.9433 C   0  0  0  0  0  0  0  0  0  0  0  0
   22.1548  -31.1377   -9.2779 C   0  0  0  0  0  0  0  0  0  0  0  0
   20.7558  -31.3859   -8.8931 C   0  0  0  0  0  0  0  0  0  0  0  0
   19.6586  -30.5074   -9.2290 C   0  0  2  0  0  0  0  0  0  0  0  0
   19.2836  -30.0213  -10.5485 N   0  0  0  0  0  0  0  0  0  0  0  0
   19.7335  -28.6044  -10.7248 C   0  0  0  0  0  0  0  0  0  0  0  0
   17.9214  -30.1704  -11.0019 O   0  0  0  0  0  0  0  0  0  0  0  0
   17.0317  -29.3110  -11.0133 O   0  0  0  0  0  0  0  0  0  0  0  0
  1  2  1  0
  2  3  2  0
  4  2  1  0
  5  4  1  0
  6  5  1  0
  7  6  1  0
  8  9  1  1
  8 10  1  0
  8  7  1  0
 10 11  2  0
 12 10  1  0
 12 13  1  0
 13 17  1  0
 13 14  1  6
 15 14  1  0
 16 15  2  0
 17 18  2  0
 19 15  1  0
 20 21  1  0
 21 22  2  0
 21 23  1  0
 23 24  1  0
 24 25  1  0
 25 26  1  0
 27 26  1  6
 27 29  1  0
 28 17  1  0
 28 27  1  0
 29 30  2  0
 29 31  1  0
M  END
$$$$
