RDR.pdb
     RDKit          3D

 31 30  0  0  1  0  0  0  0  0999 V2000
   27.2932  -25.7272  -16.5182 N   0  0  0  0  0  0  0  0  0  0  0  0
   25.9022  -25.4642  -16.7693 C   0  0  0  0  0  0  0  0  0  0  0  0
   25.1649  -26.3855  -17.2741 N   0  0  0  0  0  0  0  0  0  0  0  0
   25.3823  -24.1884  -16.4494 N   0  0  0  0  0  0  0  0  0  0  0  0
   26.0792  -23.2166  -15.6725 C   0  0  0  0  0  0  0  0  0  0  0  0
   26.0140  -23.3879  -14.1964 C   0  0  0  0  0  0  0  0  0  0  0  0
   24.7261  -23.0569  -13.5390 C   0  0  0  0  0  0  0  0  0  0  0  0
   24.5783  -21.6161  -13.1048 C   0  0  2  0  0  0  0  0  0  0  0  0
   24.4331  -21.5725  -11.6626 N   0  0  0  0  0  0  0  0  0  0  0  0
   23.3860  -20.9852  -13.7046 C   0  0  0  0  0  0  0  0  0  0  0  0
   22.2700  -21.1418  -13.1673 O   0  0  0  0  0  0  0  0  0  0  0  0
   24.1758  -26.2096  -17.5100 N   0  0  0  0  0  0  0  0  0  0  0  0
   23.4209  -20.1790  -14.9002 C   0  0  1  0  0  0  0  0  0  0  0  0
   22.2372  -19.5458  -15.4153 C   0  0  0  0  0  0  0  0  0  0  0  0
   22.4920  -18.0818  -15.7623 C   0  0  0  0  0  0  0  0  0  0  0  0
   21.3004  -17.4135  -16.2835 O   0  0  0  0  0  0  0  0  0  0  0  0
   20.1745  -17.5110  -15.7366 C   0  0  0  0  0  0  0  0  0  0  0  0
   21.6609  -20.2595  -16.5895 O   0  0  0  0  0  0  0  0  0  0  0  0
   22.1780  -20.1060  -17.7502 O   0  0  0  0  0  0  0  0  0  0  0  0
   21.3973  -16.6384  -17.4237 N   0  0  0  0  0  0  0  0  0  0  0  0
   17.0579  -16.6683  -16.7046 C   0  0  0  0  0  0  0  0  0  0  0  0
   16.9475  -16.5952  -18.1417 N   0  0  0  0  0  0  0  0  0  0  0  0
   17.2454  -15.4783  -18.7500 N   0  0  0  0  0  0  0  0  0  0  0  0
   16.5155  -17.7626  -18.7992 C   0  0  0  0  0  0  0  0  0  0  0  0
   16.3145  -18.9723  -17.9652 C   0  0  0  0  0  0  0  0  0  0  0  0
   17.3515  -19.9746  -18.2601 C   0  0  0  0  0  0  0  0  0  0  0  0
   18.4471  -20.2876  -17.3712 C   0  0  1  0  0  0  0  0  0  0  0  0
   19.5295  -21.2339  -17.5966 N   0  0  0  0  0  0  0  0  0  0  0  0
   20.5486  -21.1236  -16.5056 C   0  0  0  0  0  0  0  0  0  0  0  0
   20.1817  -21.2766  -18.8836 O   0  0  0  0  0  0  0  0  0  0  0  0
   20.3738  -20.3359  -19.6637 O   0  0  0  0  0  0  0  0  0  0  0  0
  1  2  1  0
  2  3  2  0
  4  2  1  0
  5  4  1  0
  6  5  1  0
  7  6  1  0
  8  9  1  1
  8 10  1  0
  8  7  1  0
 10 11  2  0
 12 10  1  0
 12 13  1  0
 13 17  1  0
 13 14  1  6
 15 14  1  0
 16 15  2  0
 17 18  2  0
 19 15  1  0
 20 21  1  0
 21 22  2  0
 21 23  1  0
 23 24  1  0
 24 25  1  0
 25 26  1  0
 27 26  1  1
 27 29  1  0
 28 17  1  0
 28 27  1  0
 29 30  2  0
 29 31  1  0
M  END
$$$$
