RDR.pdb
     RDKit          3D

 31 30  0  0  1  0  0  0  0  0999 V2000
   24.2663  -28.0309  -17.3011 N   0  0  0  0  0  0  0  0  0  0  0  0
   25.4084  -27.5992  -18.0604 C   0  0  0  0  0  0  0  0  0  0  0  0
   26.5529  -28.1380  -17.8438 N   0  0  0  0  0  0  0  0  0  0  0  0
   25.2361  -26.5861  -19.0321 N   0  0  0  0  0  0  0  0  0  0  0  0
   24.0270  -25.8515  -19.2107 C   0  0  0  0  0  0  0  0  0  0  0  0
   24.0582  -24.4253  -18.7896 C   0  0  0  0  0  0  0  0  0  0  0  0
   25.0637  -24.0500  -17.7657 C   0  0  0  0  0  0  0  0  0  0  0  0
   24.5515  -24.0203  -16.3433 C   0  0  2  0  0  0  0  0  0  0  0  0
   23.1573  -23.6217  -16.3542 N   0  0  0  0  0  0  0  0  0  0  0  0
   25.2981  -23.0531  -15.5148 C   0  0  0  0  0  0  0  0  0  0  0  0
   26.5189  -23.2244  -15.3171 O   0  0  0  0  0  0  0  0  0  0  0  0
   27.4050  -27.7895  -18.3103 N   0  0  0  0  0  0  0  0  0  0  0  0
   24.6999  -21.8930  -14.9009 C   0  0  1  0  0  0  0  0  0  0  0  0
   25.4680  -20.9951  -14.0816 C   0  0  0  0  0  0  0  0  0  0  0  0
   25.3441  -19.5529  -14.5644 C   0  0  0  0  0  0  0  0  0  0  0  0
   26.5122  -19.1144  -15.3269 O   0  0  0  0  0  0  0  0  0  0  0  0
   27.6815  -19.4708  -15.0405 C   0  0  0  0  0  0  0  0  0  0  0  0
   25.1183  -21.0850  -12.6359 O   0  0  0  0  0  0  0  0  0  0  0  0
   23.9015  -21.2612  -12.2804 O   0  0  0  0  0  0  0  0  0  0  0  0
   26.3427  -18.2735  -16.4104 N   0  0  0  0  0  0  0  0  0  0  0  0
   30.5938  -20.2755   -5.9824 C   0  0  0  0  0  0  0  0  0  0  0  0
   30.3143  -21.3144   -6.9445 N   0  0  0  0  0  0  0  0  0  0  0  0
   31.2172  -22.2287   -7.1788 N   0  0  0  0  0  0  0  0  0  0  0  0
   29.0571  -21.2645   -7.5759 C   0  0  0  0  0  0  0  0  0  0  0  0
   28.1239  -20.1978   -7.1395 C   0  0  0  0  0  0  0  0  0  0  0  0
   26.8860  -20.2448   -7.9347 C   0  0  0  0  0  0  0  0  0  0  0  0
   26.8470  -20.5299   -9.3509 C   0  0  1  0  0  0  0  0  0  0  0  0
   25.6805  -20.8537  -10.1586 N   0  0  0  0  0  0  0  0  0  0  0  0
   26.0693  -20.9885  -11.5980 C   0  0  0  0  0  0  0  0  0  0  0  0
   24.4865  -20.0514  -10.0392 O   0  0  0  0  0  0  0  0  0  0  0  0
   23.6838  -20.0288   -9.0982 O   0  0  0  0  0  0  0  0  0  0  0  0
  1  2  1  0
  2  3  2  0
  4  2  1  0
  5  4  1  0
  6  5  1  0
  7  6  1  0
  8  9  1  6
  8 10  1  0
  8  7  1  0
 10 11  2  0
 12 10  1  0
 12 13  1  0
 13 17  1  0
 13 14  1  1
 15 14  1  0
 16 15  2  0
 17 18  2  0
 19 15  1  0
 20 21  1  0
 21 22  2  0
 21 23  1  0
 23 24  1  0
 24 25  1  0
 25 26  1  0
 27 26  1  1
 27 29  1  0
 28 17  1  0
 28 27  1  0
 29 30  2  0
 29 31  1  0
M  END
$$$$
