RDR.pdb
     RDKit          3D

 31 30  0  0  1  0  0  0  0  0999 V2000
   19.0682  -22.9661   -6.8956 N   0  0  0  0  0  0  0  0  0  0  0  0
   19.6455  -23.1798   -8.1950 C   0  0  0  0  0  0  0  0  0  0  0  0
   18.8793  -23.2741   -9.2203 N   0  0  0  0  0  0  0  0  0  0  0  0
   21.0519  -23.2798   -8.3067 N   0  0  0  0  0  0  0  0  0  0  0  0
   21.9304  -22.1568   -8.3308 C   0  0  0  0  0  0  0  0  0  0  0  0
   21.4952  -21.0016   -9.1605 C   0  0  0  0  0  0  0  0  0  0  0  0
   22.5090  -20.4051  -10.0642 C   0  0  0  0  0  0  0  0  0  0  0  0
   23.8640  -21.0757  -10.0410 C   0  0  2  0  0  0  0  0  0  0  0  0
   24.5682  -20.6705   -8.8399 N   0  0  0  0  0  0  0  0  0  0  0  0
   24.6843  -20.6887  -11.2057 C   0  0  0  0  0  0  0  0  0  0  0  0
   24.9444  -19.4837  -11.4030 O   0  0  0  0  0  0  0  0  0  0  0  0
   19.2486  -23.5652  -10.1389 N   0  0  0  0  0  0  0  0  0  0  0  0
   25.2205  -21.6306  -12.1576 C   0  0  2  0  0  0  0  0  0  0  0  0
   25.7916  -21.1976  -13.4041 C   0  0  0  0  0  0  0  0  0  0  0  0
   26.7182  -22.2575  -13.9929 C   0  0  0  0  0  0  0  0  0  0  0  0
   27.4293  -21.7839  -15.1796 O   0  0  0  0  0  0  0  0  0  0  0  0
   27.2773  -20.6277  -15.6446 C   0  0  0  0  0  0  0  0  0  0  0  0
   24.7636  -20.7994  -14.4067 O   0  0  0  0  0  0  0  0  0  0  0  0
   23.8092  -21.6005  -14.6991 O   0  0  0  0  0  0  0  0  0  0  0  0
   28.3090  -22.6287  -15.8296 N   0  0  0  0  0  0  0  0  0  0  0  0
   18.8824  -14.8983  -14.6170 C   0  0  0  0  0  0  0  0  0  0  0  0
   18.5819  -15.5263  -15.8812 N   0  0  0  0  0  0  0  0  0  0  0  0
   17.4891  -15.1957  -16.5157 N   0  0  0  0  0  0  0  0  0  0  0  0
   19.5122  -16.4734  -16.3494 C   0  0  0  0  0  0  0  0  0  0  0  0
   20.6295  -16.8288  -15.4413 C   0  0  0  0  0  0  0  0  0  0  0  0
   21.5777  -17.7243  -16.1237 C   0  0  0  0  0  0  0  0  0  0  0  0
   22.7243  -18.3257  -15.4817 C   0  0  1  0  0  0  0  0  0  0  0  0
   23.7327  -19.1820  -16.0882 N   0  0  0  0  0  0  0  0  0  0  0  0
   24.7696  -19.5572  -15.0758 C   0  0  0  0  0  0  0  0  0  0  0  0
   24.3652  -18.7750  -17.3202 O   0  0  0  0  0  0  0  0  0  0  0  0
   25.4567  -18.2090  -17.4568 O   0  0  0  0  0  0  0  0  0  0  0  0
  1  2  1  0
  2  3  2  0
  4  2  1  0
  5  4  1  0
  6  5  1  0
  7  6  1  0
  8  9  1  1
  8 10  1  0
  8  7  1  0
 10 11  2  0
 12 10  1  0
 12 13  1  0
 13 17  1  0
 13 14  1  6
 15 14  1  0
 16 15  2  0
 17 18  2  0
 19 15  1  0
 20 21  1  0
 21 22  2  0
 21 23  1  0
 23 24  1  0
 24 25  1  0
 25 26  1  0
 27 26  1  1
 27 29  1  0
 28 17  1  0
 28 27  1  0
 29 30  2  0
 29 31  1  0
M  END
$$$$
