RDR.pdb
     RDKit          3D

 31 30  0  0  1  0  0  0  0  0999 V2000
   16.0622  -13.6650  -18.8033 N   0  0  0  0  0  0  0  0  0  0  0  0
   16.3781  -12.3949  -19.3985 C   0  0  0  0  0  0  0  0  0  0  0  0
   16.6753  -12.3368  -20.6456 N   0  0  0  0  0  0  0  0  0  0  0  0
   16.3508  -11.2372  -18.5865 N   0  0  0  0  0  0  0  0  0  0  0  0
   17.1516  -11.0643  -17.4193 C   0  0  0  0  0  0  0  0  0  0  0  0
   16.4250  -11.0542  -16.1214 C   0  0  0  0  0  0  0  0  0  0  0  0
   17.2477  -10.9321  -14.8932 C   0  0  0  0  0  0  0  0  0  0  0  0
   18.6442  -10.3929  -15.1065 C   0  0  2  0  0  0  0  0  0  0  0  0
   19.5793  -11.5012  -15.1169 N   0  0  0  0  0  0  0  0  0  0  0  0
   19.0425   -9.4675  -14.0275 C   0  0  0  0  0  0  0  0  0  0  0  0
   18.6647   -9.6860  -12.8578 O   0  0  0  0  0  0  0  0  0  0  0  0
   16.8555  -11.4334  -21.1109 N   0  0  0  0  0  0  0  0  0  0  0  0
   19.8592   -8.2969  -14.2355 C   0  0  2  0  0  0  0  0  0  0  0  0
   20.2010   -7.4159  -13.1518 C   0  0  0  0  0  0  0  0  0  0  0  0
   21.2462   -6.3878  -13.5751 C   0  0  0  0  0  0  0  0  0  0  0  0
   21.6420   -5.5061  -12.4778 O   0  0  0  0  0  0  0  0  0  0  0  0
   21.1871   -5.6263  -11.3138 C   0  0  0  0  0  0  0  0  0  0  0  0
   19.0151   -6.7311  -12.5641 O   0  0  0  0  0  0  0  0  0  0  0  0
   18.2002   -6.0978  -13.3209 O   0  0  0  0  0  0  0  0  0  0  0  0
   22.5531   -4.4935  -12.7116 N   0  0  0  0  0  0  0  0  0  0  0  0
   12.9911   -9.6723   -7.3029 C   0  0  0  0  0  0  0  0  0  0  0  0
   12.5730   -8.2910   -7.3157 N   0  0  0  0  0  0  0  0  0  0  0  0
   11.4479   -7.9580   -6.7419 N   0  0  0  0  0  0  0  0  0  0  0  0
   13.4304   -7.3808   -7.9625 C   0  0  0  0  0  0  0  0  0  0  0  0
   14.6812   -7.9267   -8.5428 C   0  0  0  0  0  0  0  0  0  0  0  0
   15.4224   -6.8679   -9.2474 C   0  0  0  0  0  0  0  0  0  0  0  0
   16.7155   -7.0612   -9.8631 C   0  0  2  0  0  0  0  0  0  0  0  0
   17.4904   -6.0908  -10.6221 N   0  0  0  0  0  0  0  0  0  0  0  0
   18.7186   -6.7358  -11.1846 C   0  0  0  0  0  0  0  0  0  0  0  0
   17.8257   -4.8213  -10.0225 O   0  0  0  0  0  0  0  0  0  0  0  0
   18.9530   -4.3868   -9.7568 O   0  0  0  0  0  0  0  0  0  0  0  0
  1  2  1  0
  2  3  2  0
  4  2  1  0
  5  4  1  0
  6  5  1  0
  7  6  1  0
  8  9  1  1
  8 10  1  0
  8  7  1  0
 10 11  2  0
 12 10  1  0
 12 13  1  0
 13 17  1  0
 13 14  1  6
 15 14  1  0
 16 15  2  0
 17 18  2  0
 19 15  1  0
 20 21  1  0
 21 22  2  0
 21 23  1  0
 23 24  1  0
 24 25  1  0
 25 26  1  0
 27 26  1  6
 27 29  1  0
 28 17  1  0
 28 27  1  0
 29 30  2  0
 29 31  1  0
M  END
$$$$
