RDR.pdb
     RDKit          3D

 31 30  0  0  1  0  0  0  0  0999 V2000
   23.3156  -20.1550  -20.0026 N   0  0  0  0  0  0  0  0  0  0  0  0
   22.5475  -19.3183  -20.8841 C   0  0  0  0  0  0  0  0  0  0  0  0
   22.7900  -19.3357  -22.1443 N   0  0  0  0  0  0  0  0  0  0  0  0
   21.5384  -18.4947  -20.3330 N   0  0  0  0  0  0  0  0  0  0  0  0
   21.0805  -18.5899  -18.9859 C   0  0  0  0  0  0  0  0  0  0  0  0
   22.0695  -18.2409  -17.9311 C   0  0  0  0  0  0  0  0  0  0  0  0
   21.6391  -18.4191  -16.5228 C   0  0  0  0  0  0  0  0  0  0  0  0
   21.2029  -19.8199  -16.1569 C   0  0  2  0  0  0  0  0  0  0  0  0
   20.6496  -20.4620  -17.3335 N   0  0  0  0  0  0  0  0  0  0  0  0
   20.1638  -19.8113  -15.1083 C   0  0  0  0  0  0  0  0  0  0  0  0
   20.4171  -19.3081  -13.9941 O   0  0  0  0  0  0  0  0  0  0  0  0
   22.2673  -18.7318  -22.7979 N   0  0  0  0  0  0  0  0  0  0  0  0
   18.8410  -20.3585  -15.2854 C   0  0  2  0  0  0  0  0  0  0  0  0
   17.8450  -20.2678  -14.2523 C   0  0  0  0  0  0  0  0  0  0  0  0
   16.6005  -19.5305  -14.7384 C   0  0  0  0  0  0  0  0  0  0  0  0
   16.7926  -18.0820  -14.7933 O   0  0  0  0  0  0  0  0  0  0  0  0
   17.5001  -17.4600  -13.9632 C   0  0  0  0  0  0  0  0  0  0  0  0
   17.4689  -21.5956  -13.6901 O   0  0  0  0  0  0  0  0  0  0  0  0
   17.3296  -22.6041  -14.4658 O   0  0  0  0  0  0  0  0  0  0  0  0
   16.1787  -17.3502  -15.7921 N   0  0  0  0  0  0  0  0  0  0  0  0
   18.2622  -25.0495   -5.5929 C   0  0  0  0  0  0  0  0  0  0  0  0
   17.4364  -26.0582   -6.2122 N   0  0  0  0  0  0  0  0  0  0  0  0
   17.1118  -27.1251   -5.5320 N   0  0  0  0  0  0  0  0  0  0  0  0
   17.0315  -25.8122   -7.5378 C   0  0  0  0  0  0  0  0  0  0  0  0
   17.4694  -24.5353   -8.1518 C   0  0  0  0  0  0  0  0  0  0  0  0
   17.0411  -24.4712   -9.5586 C   0  0  0  0  0  0  0  0  0  0  0  0
   17.2459  -23.3238  -10.4130 C   0  0  2  0  0  0  0  0  0  0  0  0
   16.7848  -23.1434  -11.7815 N   0  0  0  0  0  0  0  0  0  0  0  0
   17.2513  -21.8248  -12.3150 C   0  0  0  0  0  0  0  0  0  0  0  0
   15.3897  -23.3410  -12.0949 O   0  0  0  0  0  0  0  0  0  0  0  0
   14.4797  -22.5044  -12.0463 O   0  0  0  0  0  0  0  0  0  0  0  0
  1  2  1  0
  2  3  2  0
  4  2  1  0
  5  4  1  0
  6  5  1  0
  7  6  1  0
  8  9  1  6
  8 10  1  0
  8  7  1  0
 10 11  2  0
 12 10  1  0
 12 13  1  0
 13 17  1  0
 13 14  1  1
 15 14  1  0
 16 15  2  0
 17 18  2  0
 19 15  1  0
 20 21  1  0
 21 22  2  0
 21 23  1  0
 23 24  1  0
 24 25  1  0
 25 26  1  0
 27 26  1  6
 27 29  1  0
 28 17  1  0
 28 27  1  0
 29 30  2  0
 29 31  1  0
M  END
$$$$
