RDR.pdb
     RDKit          3D

 31 30  0  0  1  0  0  0  0  0999 V2000
   30.4792  -23.6540  -17.5594 N   0  0  0  0  0  0  0  0  0  0  0  0
   30.2564  -23.2369  -18.9173 C   0  0  0  0  0  0  0  0  0  0  0  0
   30.3369  -24.0983  -19.8653 N   0  0  0  0  0  0  0  0  0  0  0  0
   29.9515  -21.8794  -19.1708 N   0  0  0  0  0  0  0  0  0  0  0  0
   29.4026  -20.9917  -18.1991 C   0  0  0  0  0  0  0  0  0  0  0  0
   28.4190  -21.5828  -17.2527 C   0  0  0  0  0  0  0  0  0  0  0  0
   27.7201  -20.6457  -16.3396 C   0  0  0  0  0  0  0  0  0  0  0  0
   26.6939  -21.2817  -15.4292 C   0  0  2  0  0  0  0  0  0  0  0  0
   26.0673  -22.3873  -16.1275 N   0  0  0  0  0  0  0  0  0  0  0  0
   25.6376  -20.3246  -15.0452 C   0  0  0  0  0  0  0  0  0  0  0  0
   25.9489  -19.2624  -14.4677 O   0  0  0  0  0  0  0  0  0  0  0  0
   30.1787  -23.8277  -20.8485 N   0  0  0  0  0  0  0  0  0  0  0  0
   24.2332  -20.5364  -15.2971 C   0  0  2  0  0  0  0  0  0  0  0  0
   23.2414  -19.5845  -14.8756 C   0  0  0  0  0  0  0  0  0  0  0  0
   22.5059  -18.9782  -16.0672 C   0  0  0  0  0  0  0  0  0  0  0  0
   23.4127  -18.3387  -17.0196 O   0  0  0  0  0  0  0  0  0  0  0  0
   24.5559  -17.9311  -16.6983 C   0  0  0  0  0  0  0  0  0  0  0  0
   22.2651  -20.1544  -13.9047 O   0  0  0  0  0  0  0  0  0  0  0  0
   22.1573  -21.4230  -13.7739 O   0  0  0  0  0  0  0  0  0  0  0  0
   23.0132  -18.1671  -18.3314 N   0  0  0  0  0  0  0  0  0  0  0  0
   16.0590  -16.9288  -17.7291 C   0  0  0  0  0  0  0  0  0  0  0  0
   15.2511  -17.7506  -16.8601 N   0  0  0  0  0  0  0  0  0  0  0  0
   13.9758  -17.8836  -17.1094 N   0  0  0  0  0  0  0  0  0  0  0  0
   15.9138  -18.3638  -15.7801 C   0  0  0  0  0  0  0  0  0  0  0  0
   17.3483  -18.0370  -15.5943 C   0  0  0  0  0  0  0  0  0  0  0  0
   17.8999  -18.7867  -14.4540 C   0  0  0  0  0  0  0  0  0  0  0  0
   19.2942  -18.7677  -14.0743 C   0  0  1  0  0  0  0  0  0  0  0  0
   19.9419  -19.5572  -13.0373 N   0  0  0  0  0  0  0  0  0  0  0  0
   21.4255  -19.3644  -13.0913 C   0  0  0  0  0  0  0  0  0  0  0  0
   19.6272  -20.9601  -12.9092 O   0  0  0  0  0  0  0  0  0  0  0  0
   19.8216  -21.8558  -13.7401 O   0  0  0  0  0  0  0  0  0  0  0  0
  1  2  1  0
  2  3  2  0
  4  2  1  0
  5  4  1  0
  6  5  1  0
  7  6  1  0
  8  9  1  6
  8 10  1  0
  8  7  1  0
 10 11  2  0
 12 10  1  0
 12 13  1  0
 13 17  1  0
 13 14  1  1
 15 14  1  0
 16 15  2  0
 17 18  2  0
 19 15  1  0
 20 21  1  0
 21 22  2  0
 21 23  1  0
 23 24  1  0
 24 25  1  0
 25 26  1  0
 27 26  1  1
 27 29  1  0
 28 17  1  0
 28 27  1  0
 29 30  2  0
 29 31  1  0
M  END
$$$$
