RDR.pdb
     RDKit          3D

 31 30  0  0  1  0  0  0  0  0999 V2000
   16.9855  -13.6740  -15.4158 N   0  0  0  0  0  0  0  0  0  0  0  0
   16.4122  -12.8591  -16.4524 C   0  0  0  0  0  0  0  0  0  0  0  0
   15.1589  -12.9544  -16.7120 N   0  0  0  0  0  0  0  0  0  0  0  0
   17.2520  -11.9686  -17.1607 N   0  0  0  0  0  0  0  0  0  0  0  0
   18.5809  -11.6398  -16.7614 C   0  0  0  0  0  0  0  0  0  0  0  0
   18.9182  -11.8924  -15.3349 C   0  0  0  0  0  0  0  0  0  0  0  0
   20.2876  -11.5294  -14.8951 C   0  0  0  0  0  0  0  0  0  0  0  0
   20.8220  -10.2336  -15.4622 C   0  0  2  0  0  0  0  0  0  0  0  0
   22.1004  -10.4904  -16.0968 N   0  0  0  0  0  0  0  0  0  0  0  0
   21.0289   -9.2210  -14.4082 C   0  0  0  0  0  0  0  0  0  0  0  0
   21.6489   -9.5305  -13.3696 O   0  0  0  0  0  0  0  0  0  0  0  0
   14.7073  -12.3348  -17.4027 N   0  0  0  0  0  0  0  0  0  0  0  0
   20.5518   -7.8626  -14.4962 C   0  0  2  0  0  0  0  0  0  0  0  0
   20.7048   -6.9394  -13.4046 C   0  0  0  0  0  0  0  0  0  0  0  0
   21.4661   -5.6881  -13.8328 C   0  0  0  0  0  0  0  0  0  0  0  0
   21.6459   -4.7382  -12.7357 O   0  0  0  0  0  0  0  0  0  0  0  0
   21.3039   -4.9936  -11.5550 C   0  0  0  0  0  0  0  0  0  0  0  0
   19.4071   -6.5619  -12.7770 O   0  0  0  0  0  0  0  0  0  0  0  0
   18.4946   -6.0021  -13.4785 O   0  0  0  0  0  0  0  0  0  0  0  0
   22.2138   -3.5039  -12.9888 N   0  0  0  0  0  0  0  0  0  0  0  0
   13.5740  -11.2100   -9.0585 C   0  0  0  0  0  0  0  0  0  0  0  0
   12.9132   -9.9381   -8.8898 N   0  0  0  0  0  0  0  0  0  0  0  0
   11.6969   -9.9075   -8.4145 N   0  0  0  0  0  0  0  0  0  0  0  0
   13.6465   -8.7948   -9.2595 C   0  0  0  0  0  0  0  0  0  0  0  0
   15.0116   -9.0125   -9.7967 C   0  0  0  0  0  0  0  0  0  0  0  0
   15.5807   -7.7426  -10.2764 C   0  0  0  0  0  0  0  0  0  0  0  0
   16.9000   -7.6162  -10.8525 C   0  0  1  0  0  0  0  0  0  0  0  0
   17.7741   -6.4529  -10.8205 N   0  0  0  0  0  0  0  0  0  0  0  0
   19.1050   -6.7894  -11.4176 C   0  0  0  0  0  0  0  0  0  0  0  0
   17.9524   -5.7298   -9.5840 O   0  0  0  0  0  0  0  0  0  0  0  0
   18.9873   -5.6240   -8.9145 O   0  0  0  0  0  0  0  0  0  0  0  0
  1  2  1  0
  2  3  2  0
  4  2  1  0
  5  4  1  0
  6  5  1  0
  7  6  1  0
  8  9  1  1
  8 10  1  0
  8  7  1  0
 10 11  2  0
 12 10  1  0
 12 13  1  0
 13 17  1  0
 13 14  1  6
 15 14  1  0
 16 15  2  0
 17 18  2  0
 19 15  1  0
 20 21  1  0
 21 22  2  0
 21 23  1  0
 23 24  1  0
 24 25  1  0
 25 26  1  0
 27 26  1  6
 27 29  1  0
 28 17  1  0
 28 27  1  0
 29 30  2  0
 29 31  1  0
M  END
$$$$
