RDR.pdb
     RDKit          3D

 31 30  0  0  1  0  0  0  0  0999 V2000
   30.3584  -24.5291  -18.8634 N   0  0  0  0  0  0  0  0  0  0  0  0
   30.7020  -24.6362  -17.4714 C   0  0  0  0  0  0  0  0  0  0  0  0
   31.7363  -25.3126  -17.1250 N   0  0  0  0  0  0  0  0  0  0  0  0
   29.8848  -23.9872  -16.5168 N   0  0  0  0  0  0  0  0  0  0  0  0
   28.4603  -24.0508  -16.5135 C   0  0  0  0  0  0  0  0  0  0  0  0
   27.7485  -22.8322  -16.9837 C   0  0  0  0  0  0  0  0  0  0  0  0
   26.8837  -22.1384  -15.9983 C   0  0  0  0  0  0  0  0  0  0  0  0
   25.7924  -22.9899  -15.3898 C   0  0  2  0  0  0  0  0  0  0  0  0
   25.4193  -24.0228  -16.3368 N   0  0  0  0  0  0  0  0  0  0  0  0
   24.5878  -22.1943  -15.0813 C   0  0  0  0  0  0  0  0  0  0  0  0
   24.6699  -21.2347  -14.2868 O   0  0  0  0  0  0  0  0  0  0  0  0
   31.9520  -25.4885  -16.1313 N   0  0  0  0  0  0  0  0  0  0  0  0
   23.2874  -22.4549  -15.6486 C   0  0  1  0  0  0  0  0  0  0  0  0
   22.1148  -21.7582  -15.1936 C   0  0  0  0  0  0  0  0  0  0  0  0
   21.5484  -20.8480  -16.2795 C   0  0  0  0  0  0  0  0  0  0  0  0
   20.3635  -20.1154  -15.8353 O   0  0  0  0  0  0  0  0  0  0  0  0
   20.2476  -19.6542  -14.6733 C   0  0  0  0  0  0  0  0  0  0  0  0
   21.0549  -22.6748  -14.6867 O   0  0  0  0  0  0  0  0  0  0  0  0
   20.7945  -23.7613  -15.3111 O   0  0  0  0  0  0  0  0  0  0  0  0
   19.3179  -19.9118  -16.7159 N   0  0  0  0  0  0  0  0  0  0  0  0
   19.3082  -25.0463   -6.5820 C   0  0  0  0  0  0  0  0  0  0  0  0
   18.4117  -25.9282   -7.2903 N   0  0  0  0  0  0  0  0  0  0  0  0
   17.7601  -26.8453   -6.6267 N   0  0  0  0  0  0  0  0  0  0  0  0
   18.3030  -25.7303   -8.6798 C   0  0  0  0  0  0  0  0  0  0  0  0
   18.9796  -24.5390   -9.2474 C   0  0  0  0  0  0  0  0  0  0  0  0
   18.8426  -24.5230  -10.7129 C   0  0  0  0  0  0  0  0  0  0  0  0
   19.3442  -23.4640  -11.5587 C   0  0  2  0  0  0  0  0  0  0  0  0
   19.2653  -23.3748  -13.0092 N   0  0  0  0  0  0  0  0  0  0  0  0
   20.2953  -22.4190  -13.5254 C   0  0  0  0  0  0  0  0  0  0  0  0
   17.9915  -23.1209  -13.6390 O   0  0  0  0  0  0  0  0  0  0  0  0
   17.5846  -22.0541  -14.1150 O   0  0  0  0  0  0  0  0  0  0  0  0
  1  2  1  0
  2  3  2  0
  4  2  1  0
  5  4  1  0
  6  5  1  0
  7  6  1  0
  8  9  1  6
  8 10  1  0
  8  7  1  0
 10 11  2  0
 12 10  1  0
 12 13  1  0
 13 17  1  0
 13 14  1  1
 15 14  1  0
 16 15  2  0
 17 18  2  0
 19 15  1  0
 20 21  1  0
 21 22  2  0
 21 23  1  0
 23 24  1  0
 24 25  1  0
 25 26  1  0
 27 26  1  6
 27 29  1  0
 28 17  1  0
 28 27  1  0
 29 30  2  0
 29 31  1  0
M  END
$$$$
