RDR.pdb
     RDKit          3D

 31 30  0  0  1  0  0  0  0  0999 V2000
   28.3621  -20.4301  -16.2562 N   0  0  0  0  0  0  0  0  0  0  0  0
   26.9794  -20.4361  -15.8620 C   0  0  0  0  0  0  0  0  0  0  0  0
   26.1773  -19.5630  -16.3535 N   0  0  0  0  0  0  0  0  0  0  0  0
   26.5395  -21.4121  -14.9377 N   0  0  0  0  0  0  0  0  0  0  0  0
   25.7376  -21.1220  -13.7948 C   0  0  0  0  0  0  0  0  0  0  0  0
   26.3485  -20.2278  -12.7751 C   0  0  0  0  0  0  0  0  0  0  0  0
   25.4722  -19.7781  -11.6660 C   0  0  0  0  0  0  0  0  0  0  0  0
   25.3588  -20.7414  -10.5061 C   0  0  2  0  0  0  0  0  0  0  0  0
   26.2849  -21.8378  -10.7137 N   0  0  0  0  0  0  0  0  0  0  0  0
   23.9989  -21.3049  -10.3959 C   0  0  0  0  0  0  0  0  0  0  0  0
   23.5822  -22.0856  -11.2766 O   0  0  0  0  0  0  0  0  0  0  0  0
   25.1865  -19.5261  -16.0674 N   0  0  0  0  0  0  0  0  0  0  0  0
   23.0932  -21.0087   -9.3130 C   0  0  1  0  0  0  0  0  0  0  0  0
   21.8234  -21.6721   -9.1915 C   0  0  0  0  0  0  0  0  0  0  0  0
   21.3918  -21.7911   -7.7327 C   0  0  0  0  0  0  0  0  0  0  0  0
   20.1882  -22.6051   -7.5686 O   0  0  0  0  0  0  0  0  0  0  0  0
   19.5837  -23.1247   -8.5386 C   0  0  0  0  0  0  0  0  0  0  0  0
   20.7492  -21.0218   -9.9939 O   0  0  0  0  0  0  0  0  0  0  0  0
   20.6988  -19.7460  -10.0830 O   0  0  0  0  0  0  0  0  0  0  0  0
   19.6799  -22.8229   -6.3020 N   0  0  0  0  0  0  0  0  0  0  0  0
   18.8074  -21.2643  -16.9116 C   0  0  0  0  0  0  0  0  0  0  0  0
   18.4963  -19.8700  -17.1171 N   0  0  0  0  0  0  0  0  0  0  0  0
   17.7137  -19.5283  -18.1055 N   0  0  0  0  0  0  0  0  0  0  0  0
   19.0742  -18.9574  -16.2143 C   0  0  0  0  0  0  0  0  0  0  0  0
   19.9163  -19.5204  -15.1311 C   0  0  0  0  0  0  0  0  0  0  0  0
   19.0728  -19.9938  -14.0215 C   0  0  0  0  0  0  0  0  0  0  0  0
   19.5913  -20.5863  -12.8097 C   0  0  1  0  0  0  0  0  0  0  0  0
   18.8332  -21.0946  -11.6761 N   0  0  0  0  0  0  0  0  0  0  0  0
   19.7525  -21.7408  -10.6870 C   0  0  0  0  0  0  0  0  0  0  0  0
   17.6826  -21.9347  -11.9080 O   0  0  0  0  0  0  0  0  0  0  0  0
   17.5781  -23.1479  -11.6901 O   0  0  0  0  0  0  0  0  0  0  0  0
  1  2  1  0
  2  3  2  0
  4  2  1  0
  5  4  1  0
  6  5  1  0
  7  6  1  0
  8  9  1  6
  8 10  1  0
  8  7  1  0
 10 11  2  0
 12 10  1  0
 12 13  1  0
 13 17  1  0
 13 14  1  1
 15 14  1  0
 16 15  2  0
 17 18  2  0
 19 15  1  0
 20 21  1  0
 21 22  2  0
 21 23  1  0
 23 24  1  0
 24 25  1  0
 25 26  1  0
 27 26  1  1
 27 29  1  0
 28 17  1  0
 28 27  1  0
 29 30  2  0
 29 31  1  0
M  END
$$$$
