RDR.pdb
     RDKit          3D

 31 30  0  0  1  0  0  0  0  0999 V2000
   20.0667  -25.3546  -14.4549 N   0  0  0  0  0  0  0  0  0  0  0  0
   20.8912  -25.8141  -13.3703 C   0  0  0  0  0  0  0  0  0  0  0  0
   21.8347  -25.0635  -12.9306 N   0  0  0  0  0  0  0  0  0  0  0  0
   20.6359  -27.0892  -12.8144 N   0  0  0  0  0  0  0  0  0  0  0  0
   19.3320  -27.5759  -12.5038 C   0  0  0  0  0  0  0  0  0  0  0  0
   19.1877  -28.2781  -11.2005 C   0  0  0  0  0  0  0  0  0  0  0  0
   18.1254  -27.7878  -10.2885 C   0  0  0  0  0  0  0  0  0  0  0  0
   18.5960  -26.8490   -9.2006 C   0  0  2  0  0  0  0  0  0  0  0  0
   19.9960  -27.1102   -8.9277 N   0  0  0  0  0  0  0  0  0  0  0  0
   17.8407  -27.0441   -7.9473 C   0  0  0  0  0  0  0  0  0  0  0  0
   16.5988  -26.9164   -7.9501 O   0  0  0  0  0  0  0  0  0  0  0  0
   22.5096  -25.4079  -12.2300 N   0  0  0  0  0  0  0  0  0  0  0  0
   18.4536  -27.3809   -6.6857 C   0  0  2  0  0  0  0  0  0  0  0  0
   17.6691  -27.5763   -5.4967 C   0  0  0  0  0  0  0  0  0  0  0  0
   18.3801  -28.4882   -4.5010 C   0  0  0  0  0  0  0  0  0  0  0  0
   17.5866  -28.7306   -3.2969 O   0  0  0  0  0  0  0  0  0  0  0  0
   16.3437  -28.5578   -3.2580 C   0  0  0  0  0  0  0  0  0  0  0  0
   17.2846  -26.2963   -4.8376 O   0  0  0  0  0  0  0  0  0  0  0  0
   18.1821  -25.4337   -4.5401 O   0  0  0  0  0  0  0  0  0  0  0  0
   18.2122  -29.1682   -2.1449 N   0  0  0  0  0  0  0  0  0  0  0  0
   10.4800  -20.7485   -5.5543 C   0  0  0  0  0  0  0  0  0  0  0  0
   11.7220  -20.0146   -5.5097 N   0  0  0  0  0  0  0  0  0  0  0  0
   11.7665  -18.8028   -5.9952 N   0  0  0  0  0  0  0  0  0  0  0  0
   12.8223  -20.6758   -4.9318 C   0  0  0  0  0  0  0  0  0  0  0  0
   12.8520  -22.1548   -5.0352 C   0  0  0  0  0  0  0  0  0  0  0  0
   14.0845  -22.6849   -4.4296 C   0  0  0  0  0  0  0  0  0  0  0  0
   14.4195  -24.0898   -4.3798 C   0  0  2  0  0  0  0  0  0  0  0  0
   15.5980  -24.7001   -3.7825 N   0  0  0  0  0  0  0  0  0  0  0  0
   15.9543  -25.9585   -4.5107 C   0  0  0  0  0  0  0  0  0  0  0  0
   15.6400  -24.9218   -2.3567 O   0  0  0  0  0  0  0  0  0  0  0  0
   15.9343  -25.9671   -1.7642 O   0  0  0  0  0  0  0  0  0  0  0  0
  1  2  1  0
  2  3  2  0
  4  2  1  0
  5  4  1  0
  6  5  1  0
  7  6  1  0
  8  9  1  1
  8 10  1  0
  8  7  1  0
 10 11  2  0
 12 10  1  0
 12 13  1  0
 13 17  1  0
 13 14  1  6
 15 14  1  0
 16 15  2  0
 17 18  2  0
 19 15  1  0
 20 21  1  0
 21 22  2  0
 21 23  1  0
 23 24  1  0
 24 25  1  0
 25 26  1  0
 27 26  1  6
 27 29  1  0
 28 17  1  0
 28 27  1  0
 29 30  2  0
 29 31  1  0
M  END
$$$$
