RDR.pdb
     RDKit          3D

 31 30  0  0  1  0  0  0  0  0999 V2000
   20.6302  -25.5262  -13.3509 N   0  0  0  0  0  0  0  0  0  0  0  0
   19.4237  -24.7444  -13.3286 C   0  0  0  0  0  0  0  0  0  0  0  0
   18.9659  -24.2557  -14.4234 N   0  0  0  0  0  0  0  0  0  0  0  0
   18.7708  -24.5358  -12.0915 N   0  0  0  0  0  0  0  0  0  0  0  0
   19.2923  -24.9613  -10.8343 C   0  0  0  0  0  0  0  0  0  0  0  0
   18.9961  -24.0833   -9.6707 C   0  0  0  0  0  0  0  0  0  0  0  0
   17.9590  -24.5554   -8.7210 C   0  0  0  0  0  0  0  0  0  0  0  0
   18.2629  -25.8707   -8.0400 C   0  0  2  0  0  0  0  0  0  0  0  0
   17.9563  -26.9546   -8.9533 N   0  0  0  0  0  0  0  0  0  0  0  0
   17.4501  -26.0547   -6.8214 C   0  0  0  0  0  0  0  0  0  0  0  0
   16.2272  -26.2835   -6.9253 O   0  0  0  0  0  0  0  0  0  0  0  0
   18.1328  -23.6467  -14.4301 N   0  0  0  0  0  0  0  0  0  0  0  0
   17.9841  -25.9865   -5.4832 C   0  0  1  0  0  0  0  0  0  0  0  0
   17.1264  -26.0033   -4.3293 C   0  0  0  0  0  0  0  0  0  0  0  0
   17.8916  -26.3974   -3.0693 C   0  0  0  0  0  0  0  0  0  0  0  0
   18.2600  -27.8125   -3.0565 O   0  0  0  0  0  0  0  0  0  0  0  0
   19.2617  -28.2467   -2.4365 C   0  0  0  0  0  0  0  0  0  0  0  0
   16.4151  -24.7114   -4.1156 O   0  0  0  0  0  0  0  0  0  0  0  0
   17.0508  -23.6052   -4.2170 O   0  0  0  0  0  0  0  0  0  0  0  0
   17.4863  -28.7246   -3.7490 N   0  0  0  0  0  0  0  0  0  0  0  0
   12.3503  -19.3381   -7.9391 C   0  0  0  0  0  0  0  0  0  0  0  0
   11.4134  -19.9418   -7.0221 N   0  0  0  0  0  0  0  0  0  0  0  0
   10.2404  -19.3928   -6.8525 N   0  0  0  0  0  0  0  0  0  0  0  0
   11.8437  -21.1077   -6.3608 C   0  0  0  0  0  0  0  0  0  0  0  0
   13.2490  -21.5283   -6.5790 C   0  0  0  0  0  0  0  0  0  0  0  0
   13.5000  -22.8270   -5.9331 C   0  0  0  0  0  0  0  0  0  0  0  0
   13.3257  -23.0723   -4.5196 C   0  0  2  0  0  0  0  0  0  0  0  0
   14.3619  -23.3169   -3.5274 N   0  0  0  0  0  0  0  0  0  0  0  0
   15.0426  -24.6218   -3.8012 C   0  0  0  0  0  0  0  0  0  0  0  0
   14.0441  -23.2068   -2.1237 O   0  0  0  0  0  0  0  0  0  0  0  0
   13.6604  -24.1050   -1.3644 O   0  0  0  0  0  0  0  0  0  0  0  0
  1  2  1  0
  2  3  2  0
  4  2  1  0
  5  4  1  0
  6  5  1  0
  7  6  1  0
  8  9  1  6
  8 10  1  0
  8  7  1  0
 10 11  2  0
 12 10  1  0
 12 13  1  0
 13 17  1  0
 13 14  1  6
 15 14  1  0
 16 15  2  0
 17 18  2  0
 19 15  1  0
 20 21  1  0
 21 22  2  0
 21 23  1  0
 23 24  1  0
 24 25  1  0
 25 26  1  0
 27 26  1  6
 27 29  1  0
 28 17  1  0
 28 27  1  0
 29 30  2  0
 29 31  1  0
M  END
$$$$
