RDR.pdb
     RDKit          3D

 31 30  0  0  1  0  0  0  0  0999 V2000
   29.2766  -21.7986  -16.3572 N   0  0  0  0  0  0  0  0  0  0  0  0
   28.9643  -23.2017  -16.3889 C   0  0  0  0  0  0  0  0  0  0  0  0
   29.9097  -24.0574  -16.5344 N   0  0  0  0  0  0  0  0  0  0  0  0
   27.6141  -23.6015  -16.2567 N   0  0  0  0  0  0  0  0  0  0  0  0
   26.5020  -22.7657  -16.5697 C   0  0  0  0  0  0  0  0  0  0  0  0
   26.0249  -21.8737  -15.4792 C   0  0  0  0  0  0  0  0  0  0  0  0
   25.1090  -22.4707  -14.4767 C   0  0  0  0  0  0  0  0  0  0  0  0
   23.7028  -22.7324  -14.9671 C   0  0  2  0  0  0  0  0  0  0  0  0
   23.5622  -22.1875  -16.3036 N   0  0  0  0  0  0  0  0  0  0  0  0
   22.6946  -22.0890  -14.1016 C   0  0  0  0  0  0  0  0  0  0  0  0
   22.6033  -22.4295  -12.9040 O   0  0  0  0  0  0  0  0  0  0  0  0
   29.7095  -25.0662  -16.6197 N   0  0  0  0  0  0  0  0  0  0  0  0
   21.7829  -21.0673  -14.5550 C   0  0  1  0  0  0  0  0  0  0  0  0
   20.8315  -20.4593  -13.6648 C   0  0  0  0  0  0  0  0  0  0  0  0
   20.2700  -19.1647  -14.2456 C   0  0  0  0  0  0  0  0  0  0  0  0
   19.3894  -18.4661  -13.3105 O   0  0  0  0  0  0  0  0  0  0  0  0
   19.2649  -18.8113  -12.1098 C   0  0  0  0  0  0  0  0  0  0  0  0
   19.7204  -21.3776  -13.2871 O   0  0  0  0  0  0  0  0  0  0  0  0
   19.1599  -22.1060  -14.1778 O   0  0  0  0  0  0  0  0  0  0  0  0
   18.6560  -17.3791  -13.7472 N   0  0  0  0  0  0  0  0  0  0  0  0
   16.9193  -26.8285   -7.2929 C   0  0  0  0  0  0  0  0  0  0  0  0
   18.1801  -26.9792   -7.9790 N   0  0  0  0  0  0  0  0  0  0  0  0
   18.6786  -28.1749   -8.1455 N   0  0  0  0  0  0  0  0  0  0  0  0
   18.7957  -25.7961   -8.4297 C   0  0  0  0  0  0  0  0  0  0  0  0
   18.0647  -24.5258   -8.2033 C   0  0  0  0  0  0  0  0  0  0  0  0
   17.6502  -23.9387   -9.4879 C   0  0  0  0  0  0  0  0  0  0  0  0
   18.5031  -23.1098  -10.3089 C   0  0  1  0  0  0  0  0  0  0  0  0
   18.1824  -22.5058  -11.5936 N   0  0  0  0  0  0  0  0  0  0  0  0
   19.2296  -21.5046  -11.9703 C   0  0  0  0  0  0  0  0  0  0  0  0
   16.8663  -21.9550  -11.8129 O   0  0  0  0  0  0  0  0  0  0  0  0
   16.5214  -20.7697  -11.7319 O   0  0  0  0  0  0  0  0  0  0  0  0
  1  2  1  0
  2  3  2  0
  4  2  1  0
  5  4  1  0
  6  5  1  0
  7  6  1  0
  8  9  1  6
  8 10  1  0
  8  7  1  0
 10 11  2  0
 12 10  1  0
 12 13  1  0
 13 17  1  0
 13 14  1  1
 15 14  1  0
 16 15  2  0
 17 18  2  0
 19 15  1  0
 20 21  1  0
 21 22  2  0
 21 23  1  0
 23 24  1  0
 24 25  1  0
 25 26  1  0
 27 26  1  6
 27 29  1  0
 28 17  1  0
 28 27  1  0
 29 30  2  0
 29 31  1  0
M  END
$$$$
