RDR.pdb
     RDKit          3D

 31 30  0  0  1  0  0  0  0  0999 V2000
   19.3332  -17.6173  -15.7817 N   0  0  0  0  0  0  0  0  0  0  0  0
   18.8135  -18.9170  -16.1104 C   0  0  0  0  0  0  0  0  0  0  0  0
   17.5497  -19.1293  -16.0416 N   0  0  0  0  0  0  0  0  0  0  0  0
   19.7170  -19.9314  -16.5042 N   0  0  0  0  0  0  0  0  0  0  0  0
   21.0614  -19.6860  -16.9115 C   0  0  0  0  0  0  0  0  0  0  0  0
   21.8836  -20.8874  -17.2164 C   0  0  0  0  0  0  0  0  0  0  0  0
   23.2649  -20.6493  -17.7018 C   0  0  0  0  0  0  0  0  0  0  0  0
   23.3801  -19.6936  -18.8679 C   0  0  2  0  0  0  0  0  0  0  0  0
   22.8488  -20.3348  -20.0551 N   0  0  0  0  0  0  0  0  0  0  0  0
   24.7846  -19.3260  -19.1353 C   0  0  0  0  0  0  0  0  0  0  0  0
   25.4469  -19.9850  -19.9635 O   0  0  0  0  0  0  0  0  0  0  0  0
   17.1457  -20.0420  -16.3038 N   0  0  0  0  0  0  0  0  0  0  0  0
   25.4637  -18.2296  -18.4894 C   0  0  1  0  0  0  0  0  0  0  0  0
   26.8181  -17.8816  -18.8242 C   0  0  0  0  0  0  0  0  0  0  0  0
   27.1833  -16.4936  -18.3061 C   0  0  0  0  0  0  0  0  0  0  0  0
   28.5572  -16.1160  -18.6346 O   0  0  0  0  0  0  0  0  0  0  0  0
   29.3351  -16.8716  -19.2674 C   0  0  0  0  0  0  0  0  0  0  0  0
   27.8105  -18.8858  -18.3474 O   0  0  0  0  0  0  0  0  0  0  0  0
   27.7709  -19.3018  -17.1376 O   0  0  0  0  0  0  0  0  0  0  0  0
   29.0374  -14.8811  -18.2416 N   0  0  0  0  0  0  0  0  0  0  0  0
   27.3630  -26.2252  -16.2692 C   0  0  0  0  0  0  0  0  0  0  0  0
   28.8027  -26.2241  -16.1675 N   0  0  0  0  0  0  0  0  0  0  0  0
   29.4027  -27.2217  -15.5751 N   0  0  0  0  0  0  0  0  0  0  0  0
   29.4716  -25.1196  -16.7282 C   0  0  0  0  0  0  0  0  0  0  0  0
   28.6379  -23.9679  -17.1498 C   0  0  0  0  0  0  0  0  0  0  0  0
   29.4842  -22.9029  -17.7122 C   0  0  0  0  0  0  0  0  0  0  0  0
   28.9842  -21.6163  -18.1402 C   0  0  1  0  0  0  0  0  0  0  0  0
   29.7468  -20.5089  -18.6971 N   0  0  0  0  0  0  0  0  0  0  0  0
   28.8227  -19.4289  -19.1667 C   0  0  0  0  0  0  0  0  0  0  0  0
   30.7550  -20.7699  -19.6966 O   0  0  0  0  0  0  0  0  0  0  0  0
   30.8302  -20.2919  -20.8351 O   0  0  0  0  0  0  0  0  0  0  0  0
  1  2  1  0
  2  3  2  0
  4  2  1  0
  5  4  1  0
  6  5  1  0
  7  6  1  0
  8  9  1  6
  8 10  1  0
  8  7  1  0
 10 11  2  0
 12 10  1  0
 12 13  1  0
 13 17  1  0
 13 14  1  6
 15 14  1  0
 16 15  2  0
 17 18  2  0
 19 15  1  0
 20 21  1  0
 21 22  2  0
 21 23  1  0
 23 24  1  0
 24 25  1  0
 25 26  1  0
 27 26  1  1
 27 29  1  0
 28 17  1  0
 28 27  1  0
 29 30  2  0
 29 31  1  0
M  END
$$$$
