NSP.pdb
     RDKit          3D

 22 22  0  0  1  0  0  0  0  0999 V2000
    8.5438  -18.6116   17.3531 N   0  0  0  0  0  0  0  0  0  0  0  0
    8.5795  -17.3719   18.0074 C   0  0  0  0  0  0  0  0  0  0  0  0
    9.4685  -16.5506   17.5889 O   0  0  0  0  0  0  0  0  0  0  0  0
    7.6929  -16.9539   19.1093 C   0  0  0  0  0  0  0  0  0  0  0  0
    8.3868  -16.3290   20.2531 C   0  0  2  0  0  0  0  0  0  0  0  0
    9.3241  -17.2842   20.8899 N   0  0  0  0  0  0  0  0  0  0  0  0
    7.4805  -15.8364   21.3444 C   0  0  0  0  0  0  0  0  0  0  0  0
    6.3595  -15.3591   21.0522 O   0  0  0  0  0  0  0  0  0  0  0  0
    6.6220  -17.5815   24.8527 O   0  0  0  0  0  0  0  0  0  0  0  0
    6.0705  -16.4380   24.2711 C   0  0  0  0  0  0  0  0  0  0  0  0
    7.0828  -15.4239   23.8394 C   0  0  2  0  0  0  0  0  0  0  0  0
    7.8511  -15.8916   22.7053 N   0  0  0  0  0  0  0  0  0  0  0  0
    7.9545  -15.0012   24.9805 C   0  0  0  0  0  0  0  0  0  0  0  0
    8.8055  -15.8447   25.3295 O   0  0  0  0  0  0  0  0  0  0  0  0
    7.8552  -13.7632   25.6332 N   0  0  0  0  0  0  0  0  0  0  0  0
    7.2396  -12.5211   25.0469 C   0  0  0  0  0  0  0  0  0  0  0  0
    6.2518  -12.2351   26.1365 C   0  0  0  0  0  0  0  0  0  0  0  0
    6.9387  -12.7073   27.4302 C   0  0  0  0  0  0  0  0  0  0  0  0
    8.2767  -13.2360   26.8879 C   0  0  1  0  0  0  0  0  0  0  0  0
    8.9854  -14.0335   27.8477 C   0  0  0  0  0  0  0  0  0  0  0  0
    9.9713  -13.6383   28.4953 O   0  0  0  0  0  0  0  0  0  0  0  0
    8.5553  -15.3678   28.0958 O   0  0  0  0  0  0  0  0  0  0  0  0
  1  2  1  0
  2  3  2  0
  4  5  1  0
  4  2  1  0
  5  6  1  1
  7  5  1  0
  8  7  2  0
 10  9  1  0
 11 10  1  1
 11 13  1  0
 11 12  1  0
 12  7  1  0
 13 15  1  0
 14 13  2  0
 15 19  1  0
 15 16  1  0
 16 17  1  0
 18 17  1  0
 19 18  1  0
 19 20  1  1
 20 22  1  0
 21 20  2  0
M  END
$$$$
