NSP.pdb
     RDKit          3D

 22 22  0  0  1  0  0  0  0  0999 V2000
    7.9378  -14.4979   16.2858 N   0  0  0  0  0  0  0  0  0  0  0  0
    8.7227  -13.9136   17.2902 C   0  0  0  0  0  0  0  0  0  0  0  0
    9.9850  -13.9105   17.0747 O   0  0  0  0  0  0  0  0  0  0  0  0
    8.2170  -13.3169   18.5404 C   0  0  0  0  0  0  0  0  0  0  0  0
    8.7218  -13.9535   19.7734 C   0  0  2  0  0  0  0  0  0  0  0  0
    8.8701  -15.4168   19.5913 N   0  0  0  0  0  0  0  0  0  0  0  0
    7.8484  -13.7650   20.9803 C   0  0  0  0  0  0  0  0  0  0  0  0
    7.2015  -12.7010   21.1183 O   0  0  0  0  0  0  0  0  0  0  0  0
    6.5761  -17.0281   23.5465 O   0  0  0  0  0  0  0  0  0  0  0  0
    6.0014  -15.7691   23.3605 C   0  0  0  0  0  0  0  0  0  0  0  0
    6.9953  -14.6588   23.2223 C   0  0  2  0  0  0  0  0  0  0  0  0
    7.7290  -14.7561   21.9784 N   0  0  0  0  0  0  0  0  0  0  0  0
    7.9012  -14.5846   24.4117 C   0  0  0  0  0  0  0  0  0  0  0  0
    8.7807  -15.4689   24.4558 O   0  0  0  0  0  0  0  0  0  0  0  0
    7.8030  -13.6132   25.4192 N   0  0  0  0  0  0  0  0  0  0  0  0
    7.3265  -12.1998   25.2173 C   0  0  0  0  0  0  0  0  0  0  0  0
    6.2447  -12.1867   26.2537 C   0  0  0  0  0  0  0  0  0  0  0  0
    6.7595  -13.1034   27.3777 C   0  0  0  0  0  0  0  0  0  0  0  0
    8.1158  -13.5500   26.8078 C   0  0  1  0  0  0  0  0  0  0  0  0
    8.6697  -14.6701   27.5137 C   0  0  0  0  0  0  0  0  0  0  0  0
    8.2274  -15.8307   27.4431 O   0  0  0  0  0  0  0  0  0  0  0  0
    9.7989  -14.4704   28.3574 O   0  0  0  0  0  0  0  0  0  0  0  0
  1  2  1  0
  2  3  2  0
  4  5  1  0
  4  2  1  0
  5  6  1  6
  7  5  1  0
  8  7  2  0
 10  9  1  0
 11 10  1  1
 11 13  1  0
 11 12  1  0
 12  7  1  0
 13 15  1  0
 14 13  2  0
 15 19  1  0
 15 16  1  0
 16 17  1  0
 18 17  1  0
 19 18  1  0
 19 20  1  1
 20 22  1  0
 21 20  2  0
M  END
$$$$
