NSP.pdb
     RDKit          3D

 22 22  0  0  1  0  0  0  0  0999 V2000
    7.3916  -13.8304   17.0339 N   0  0  0  0  0  0  0  0  0  0  0  0
    8.3197  -13.6431   18.0681 C   0  0  0  0  0  0  0  0  0  0  0  0
    9.5511  -13.7468   17.7322 O   0  0  0  0  0  0  0  0  0  0  0  0
    7.9930  -13.3418   19.4743 C   0  0  0  0  0  0  0  0  0  0  0  0
    8.5241  -14.3140   20.4506 C   0  0  2  0  0  0  0  0  0  0  0  0
    8.3306  -15.7035   19.9730 N   0  0  0  0  0  0  0  0  0  0  0  0
    7.8944  -14.2444   21.8121 C   0  0  0  0  0  0  0  0  0  0  0  0
    7.7883  -13.1384   22.3912 O   0  0  0  0  0  0  0  0  0  0  0  0
    5.7689  -16.9517   25.3859 O   0  0  0  0  0  0  0  0  0  0  0  0
    6.2611  -16.8048   24.0873 C   0  0  0  0  0  0  0  0  0  0  0  0
    6.8971  -15.4764   23.8223 C   0  0  2  0  0  0  0  0  0  0  0  0
    7.4121  -15.3953   22.4720 N   0  0  0  0  0  0  0  0  0  0  0  0
    7.9391  -15.1545   24.8477 C   0  0  0  0  0  0  0  0  0  0  0  0
    8.8457  -16.0050   24.9575 O   0  0  0  0  0  0  0  0  0  0  0  0
    7.9334  -13.9986   25.6428 N   0  0  0  0  0  0  0  0  0  0  0  0
    7.4022  -12.6562   25.2171 C   0  0  0  0  0  0  0  0  0  0  0  0
    6.4468  -12.4333   26.3494 C   0  0  0  0  0  0  0  0  0  0  0  0
    7.1098  -13.1018   27.5668 C   0  0  0  0  0  0  0  0  0  0  0  0
    8.4022  -13.6540   26.9435 C   0  0  1  0  0  0  0  0  0  0  0  0
    9.0609  -14.6067   27.7908 C   0  0  0  0  0  0  0  0  0  0  0  0
    8.7483  -15.8082   27.8692 O   0  0  0  0  0  0  0  0  0  0  0  0
   10.1463  -14.1777   28.6063 O   0  0  0  0  0  0  0  0  0  0  0  0
  1  2  1  0
  2  3  2  0
  4  5  1  0
  4  2  1  0
  5  6  1  6
  7  5  1  0
  8  7  2  0
 10  9  1  0
 11 10  1  1
 11 13  1  0
 11 12  1  0
 12  7  1  0
 13 15  1  0
 14 13  2  0
 15 19  1  0
 15 16  1  0
 16 17  1  0
 18 17  1  0
 19 18  1  0
 19 20  1  1
 20 22  1  0
 21 20  2  0
M  END
$$$$
