NSP.pdb
     RDKit          3D

 22 22  0  0  1  0  0  0  0  0999 V2000
    9.9940  -16.5154   12.2888 N   0  0  0  0  0  0  0  0  0  0  0  0
    8.7068  -16.1325   12.6920 C   0  0  0  0  0  0  0  0  0  0  0  0
    7.7472  -16.5607   11.9600 O   0  0  0  0  0  0  0  0  0  0  0  0
    8.3842  -15.2986   13.8648 C   0  0  0  0  0  0  0  0  0  0  0  0
    9.0449  -15.7173   15.1172 C   0  0  2  0  0  0  0  0  0  0  0  0
    9.0271  -17.1926   15.2576 N   0  0  0  0  0  0  0  0  0  0  0  0
    8.4244  -15.1669   16.3689 C   0  0  0  0  0  0  0  0  0  0  0  0
    8.2636  -13.9304   16.4902 O   0  0  0  0  0  0  0  0  0  0  0  0
    6.7707  -17.8519   19.2431 O   0  0  0  0  0  0  0  0  0  0  0  0
    6.3906  -16.5101   19.1714 C   0  0  0  0  0  0  0  0  0  0  0  0
    7.4779  -15.5915   18.7093 C   0  0  2  0  0  0  0  0  0  0  0  0
    8.0109  -16.0035   17.4281 N   0  0  0  0  0  0  0  0  0  0  0  0
    8.5461  -15.4427   19.7474 C   0  0  0  0  0  0  0  0  0  0  0  0
    9.4102  -16.3432   19.7421 O   0  0  0  0  0  0  0  0  0  0  0  0
    8.6073  -14.3888   20.6714 N   0  0  0  0  0  0  0  0  0  0  0  0
    8.2189  -12.9627   20.3869 C   0  0  0  0  0  0  0  0  0  0  0  0
    7.2359  -12.7801   21.5026 C   0  0  0  0  0  0  0  0  0  0  0  0
    7.7792  -13.6416   22.6564 C   0  0  0  0  0  0  0  0  0  0  0  0
    9.0443  -14.2394   22.0193 C   0  0  1  0  0  0  0  0  0  0  0  0
    9.5750  -15.3397   22.7724 C   0  0  0  0  0  0  0  0  0  0  0  0
    8.9729  -16.4107   22.9666 O   0  0  0  0  0  0  0  0  0  0  0  0
   10.8729  -15.2269   23.3469 O   0  0  0  0  0  0  0  0  0  0  0  0
  1  2  1  0
  2  3  2  0
  4  5  1  0
  4  2  1  0
  5  6  1  1
  7  5  1  0
  8  7  2  0
 10  9  1  0
 11 10  1  1
 11 13  1  0
 11 12  1  0
 12  7  1  0
 13 15  1  0
 14 13  2  0
 15 19  1  0
 15 16  1  0
 16 17  1  0
 18 17  1  0
 19 18  1  0
 19 20  1  1
 20 22  1  0
 21 20  2  0
M  END
$$$$
