NSP.pdb
     RDKit          3D

 22 22  0  0  1  0  0  0  0  0999 V2000
    8.1782  -12.9609   17.3477 N   0  0  0  0  0  0  0  0  0  0  0  0
    8.6307  -13.4228   18.5920 C   0  0  0  0  0  0  0  0  0  0  0  0
    9.8930  -13.6181   18.6842 O   0  0  0  0  0  0  0  0  0  0  0  0
    7.7855  -13.6907   19.7704 C   0  0  0  0  0  0  0  0  0  0  0  0
    7.8819  -15.0673   20.2958 C   0  0  2  0  0  0  0  0  0  0  0  0
    7.3531  -16.0460   19.3165 N   0  0  0  0  0  0  0  0  0  0  0  0
    7.1334  -15.3048   21.5757 C   0  0  0  0  0  0  0  0  0  0  0  0
    5.9368  -15.6736   21.5358 O   0  0  0  0  0  0  0  0  0  0  0  0
    6.3031  -17.2546   25.4850 O   0  0  0  0  0  0  0  0  0  0  0  0
    6.7465  -16.8663   24.2191 C   0  0  0  0  0  0  0  0  0  0  0  0
    7.1650  -15.4321   24.1323 C   0  0  2  0  0  0  0  0  0  0  0  0
    7.7372  -15.1242   22.8389 N   0  0  0  0  0  0  0  0  0  0  0  0
    8.0764  -15.0591   25.2598 C   0  0  0  0  0  0  0  0  0  0  0  0
    8.9385  -15.9164   25.5414 O   0  0  0  0  0  0  0  0  0  0  0  0
    8.0007  -13.8511   25.9692 N   0  0  0  0  0  0  0  0  0  0  0  0
    7.3961  -12.5754   25.4470 C   0  0  0  0  0  0  0  0  0  0  0  0
    6.4237  -12.3265   26.5591 C   0  0  0  0  0  0  0  0  0  0  0  0
    7.1174  -12.8664   27.8224 C   0  0  0  0  0  0  0  0  0  0  0  0
    8.4423  -13.3874   27.2420 C   0  0  1  0  0  0  0  0  0  0  0  0
    9.1499  -14.2372   28.1567 C   0  0  0  0  0  0  0  0  0  0  0  0
   10.0374  -13.8438   28.9345 O   0  0  0  0  0  0  0  0  0  0  0  0
    8.8374  -15.6256   28.1988 O   0  0  0  0  0  0  0  0  0  0  0  0
  1  2  1  0
  2  3  2  0
  4  5  1  0
  4  2  1  0
  5  6  1  6
  7  5  1  0
  8  7  2  0
 10  9  1  0
 11 10  1  6
 11 13  1  0
 11 12  1  0
 12  7  1  0
 13 15  1  0
 14 13  2  0
 15 19  1  0
 15 16  1  0
 16 17  1  0
 18 17  1  0
 19 18  1  0
 19 20  1  1
 20 22  1  0
 21 20  2  0
M  END
$$$$
