NSP.pdb
     RDKit          3D

 22 22  0  0  1  0  0  0  0  0999 V2000
    9.2061  -14.6505   17.6873 N   0  0  0  0  0  0  0  0  0  0  0  0
    8.2529  -13.7325   18.1507 C   0  0  0  0  0  0  0  0  0  0  0  0
    7.7141  -12.9939   17.2540 O   0  0  0  0  0  0  0  0  0  0  0  0
    7.8344  -13.5602   19.5543 C   0  0  0  0  0  0  0  0  0  0  0  0
    8.5801  -14.3873   20.5240 C   0  0  2  0  0  0  0  0  0  0  0  0
    8.5672  -15.8141   20.1232 N   0  0  0  0  0  0  0  0  0  0  0  0
    8.0510  -14.3388   21.9285 C   0  0  0  0  0  0  0  0  0  0  0  0
    7.9665  -13.2389   22.5223 O   0  0  0  0  0  0  0  0  0  0  0  0
    5.9507  -17.0201   25.5211 O   0  0  0  0  0  0  0  0  0  0  0  0
    6.4250  -16.8718   24.2160 C   0  0  0  0  0  0  0  0  0  0  0  0
    7.1626  -15.5920   23.9763 C   0  0  2  0  0  0  0  0  0  0  0  0
    7.6408  -15.5032   22.6130 N   0  0  0  0  0  0  0  0  0  0  0  0
    8.2591  -15.3971   24.9765 C   0  0  0  0  0  0  0  0  0  0  0  0
    9.0979  -16.3202   25.0202 O   0  0  0  0  0  0  0  0  0  0  0  0
    8.3713  -14.2793   25.8169 N   0  0  0  0  0  0  0  0  0  0  0  0
    7.9961  -12.8709   25.4410 C   0  0  0  0  0  0  0  0  0  0  0  0
    7.0577  -12.5880   26.5741 C   0  0  0  0  0  0  0  0  0  0  0  0
    7.6286  -13.3723   27.7689 C   0  0  0  0  0  0  0  0  0  0  0  0
    8.8597  -14.0393   27.1337 C   0  0  1  0  0  0  0  0  0  0  0  0
    9.3995  -15.0910   27.9473 C   0  0  0  0  0  0  0  0  0  0  0  0
    8.9900  -16.2656   27.9362 O   0  0  0  0  0  0  0  0  0  0  0  0
   10.4742  -14.8009   28.8351 O   0  0  0  0  0  0  0  0  0  0  0  0
  1  2  1  0
  2  3  2  0
  4  5  1  0
  4  2  1  0
  5  6  1  6
  7  5  1  0
  8  7  2  0
 10  9  1  0
 11 10  1  6
 11 13  1  0
 11 12  1  0
 12  7  1  0
 13 15  1  0
 14 13  2  0
 15 19  1  0
 15 16  1  0
 16 17  1  0
 18 17  1  0
 19 18  1  0
 19 20  1  1
 20 22  1  0
 21 20  2  0
M  END
$$$$
