NSP.pdb
     RDKit          3D

 22 22  0  0  1  0  0  0  0  0999 V2000
    7.8984  -12.8858   17.2130 N   0  0  0  0  0  0  0  0  0  0  0  0
    8.4162  -13.3529   18.4295 C   0  0  0  0  0  0  0  0  0  0  0  0
    9.6677  -13.6241   18.4307 O   0  0  0  0  0  0  0  0  0  0  0  0
    7.6490  -13.5477   19.6739 C   0  0  0  0  0  0  0  0  0  0  0  0
    7.8546  -14.8575   20.3241 C   0  0  2  0  0  0  0  0  0  0  0  0
    7.4088  -15.9621   19.4424 N   0  0  0  0  0  0  0  0  0  0  0  0
    7.1245  -15.0346   21.6242 C   0  0  0  0  0  0  0  0  0  0  0  0
    5.9056  -14.7534   21.6950 O   0  0  0  0  0  0  0  0  0  0  0  0
    6.1603  -17.3333   25.5596 O   0  0  0  0  0  0  0  0  0  0  0  0
    6.7930  -17.1135   24.3343 C   0  0  0  0  0  0  0  0  0  0  0  0
    7.1881  -15.6896   24.0982 C   0  0  2  0  0  0  0  0  0  0  0  0
    7.7706  -15.5119   22.7850 N   0  0  0  0  0  0  0  0  0  0  0  0
    8.0794  -15.1813   25.1882 C   0  0  0  0  0  0  0  0  0  0  0  0
    9.0809  -15.8895   25.4184 O   0  0  0  0  0  0  0  0  0  0  0  0
    7.8432  -14.0061   25.9172 N   0  0  0  0  0  0  0  0  0  0  0  0
    7.0345  -12.8329   25.4323 C   0  0  0  0  0  0  0  0  0  0  0  0
    6.0718  -12.7466   26.5771 C   0  0  0  0  0  0  0  0  0  0  0  0
    6.8802  -13.1864   27.8106 C   0  0  0  0  0  0  0  0  0  0  0  0
    8.2497  -13.4928   27.1826 C   0  0  1  0  0  0  0  0  0  0  0  0
    9.1079  -14.2333   28.0628 C   0  0  0  0  0  0  0  0  0  0  0  0
    9.9709  -13.7187   28.7962 O   0  0  0  0  0  0  0  0  0  0  0  0
    8.9867  -15.6506   28.1216 O   0  0  0  0  0  0  0  0  0  0  0  0
  1  2  1  0
  2  3  2  0
  4  5  1  0
  4  2  1  0
  5  6  1  6
  7  5  1  0
  8  7  2  0
 10  9  1  0
 11 10  1  1
 11 13  1  0
 11 12  1  0
 12  7  1  0
 13 15  1  0
 14 13  2  0
 15 19  1  0
 15 16  1  0
 16 17  1  0
 18 17  1  0
 19 18  1  0
 19 20  1  1
 20 22  1  0
 21 20  2  0
M  END
$$$$
