NSP.pdb
     RDKit          3D

 22 22  0  0  1  0  0  0  0  0999 V2000
    8.0110  -12.8937   17.7362 N   0  0  0  0  0  0  0  0  0  0  0  0
    8.5577  -13.4830   18.8851 C   0  0  0  0  0  0  0  0  0  0  0  0
    9.7202  -14.0007   18.7419 O   0  0  0  0  0  0  0  0  0  0  0  0
    7.9130  -13.5472   20.2099 C   0  0  0  0  0  0  0  0  0  0  0  0
    7.7901  -14.9087   20.7683 C   0  0  2  0  0  0  0  0  0  0  0  0
    6.8618  -15.7317   19.9574 N   0  0  0  0  0  0  0  0  0  0  0  0
    7.2805  -14.9649   22.1797 C   0  0  0  0  0  0  0  0  0  0  0  0
    6.1015  -14.6215   22.4281 O   0  0  0  0  0  0  0  0  0  0  0  0
    7.1498  -17.8257   24.6862 O   0  0  0  0  0  0  0  0  0  0  0  0
    6.6934  -16.5221   24.8921 C   0  0  0  0  0  0  0  0  0  0  0  0
    7.7276  -15.4679   24.6496 C   0  0  2  0  0  0  0  0  0  0  0  0
    8.0928  -15.3956   23.2508 N   0  0  0  0  0  0  0  0  0  0  0  0
    8.9176  -15.6545   25.5383 C   0  0  0  0  0  0  0  0  0  0  0  0
    9.5848  -16.6842   25.3103 O   0  0  0  0  0  0  0  0  0  0  0  0
    9.2882  -14.7651   26.5581 N   0  0  0  0  0  0  0  0  0  0  0  0
    9.0586  -13.2777   26.5371 C   0  0  0  0  0  0  0  0  0  0  0  0
    8.3241  -13.1544   27.8370 C   0  0  0  0  0  0  0  0  0  0  0  0
    8.9376  -14.2354   28.7446 C   0  0  0  0  0  0  0  0  0  0  0  0
    9.9736  -14.8704   27.8028 C   0  0  1  0  0  0  0  0  0  0  0  0
   10.4705  -16.1243   28.2929 C   0  0  0  0  0  0  0  0  0  0  0  0
   11.6086  -16.2897   28.7670 O   0  0  0  0  0  0  0  0  0  0  0  0
    9.6286  -17.2716   28.2460 O   0  0  0  0  0  0  0  0  0  0  0  0
  1  2  1  0
  2  3  2  0
  4  5  1  0
  4  2  1  0
  5  6  1  6
  7  5  1  0
  8  7  2  0
 10  9  1  0
 11 10  1  6
 11 13  1  0
 11 12  1  0
 12  7  1  0
 13 15  1  0
 14 13  2  0
 15 19  1  0
 15 16  1  0
 16 17  1  0
 18 17  1  0
 19 18  1  0
 19 20  1  1
 20 22  1  0
 21 20  2  0
M  END
$$$$
