NSP.pdb
     RDKit          3D

 22 22  0  0  1  0  0  0  0  0999 V2000
    8.2813  -12.7558   17.0494 N   0  0  0  0  0  0  0  0  0  0  0  0
    8.5090  -13.6241   18.1267 C   0  0  0  0  0  0  0  0  0  0  0  0
    9.4584  -14.4684   17.9659 O   0  0  0  0  0  0  0  0  0  0  0  0
    7.7594  -13.6359   19.3966 C   0  0  0  0  0  0  0  0  0  0  0  0
    8.2730  -14.5846   20.4048 C   0  0  2  0  0  0  0  0  0  0  0  0
    8.2340  -15.9746   19.8921 N   0  0  0  0  0  0  0  0  0  0  0  0
    7.5172  -14.5922   21.7024 C   0  0  0  0  0  0  0  0  0  0  0  0
    6.6913  -13.6819   21.9450 O   0  0  0  0  0  0  0  0  0  0  0  0
    5.8638  -17.1585   25.4619 O   0  0  0  0  0  0  0  0  0  0  0  0
    6.5296  -17.0414   24.2400 C   0  0  0  0  0  0  0  0  0  0  0  0
    7.0946  -15.6800   23.9808 C   0  0  2  0  0  0  0  0  0  0  0  0
    7.7069  -15.6008   22.6716 N   0  0  0  0  0  0  0  0  0  0  0  0
    8.0296  -15.2592   25.0715 C   0  0  0  0  0  0  0  0  0  0  0  0
    8.9922  -16.0302   25.2621 O   0  0  0  0  0  0  0  0  0  0  0  0
    7.8719  -14.0971   25.8415 N   0  0  0  0  0  0  0  0  0  0  0  0
    7.1258  -12.8640   25.4073 C   0  0  0  0  0  0  0  0  0  0  0  0
    6.1856  -12.7605   26.5692 C   0  0  0  0  0  0  0  0  0  0  0  0
    6.9841  -13.2865   27.7752 C   0  0  0  0  0  0  0  0  0  0  0  0
    8.3248  -13.6500   27.1163 C   0  0  1  0  0  0  0  0  0  0  0  0
    9.1506  -14.4672   27.9587 C   0  0  0  0  0  0  0  0  0  0  0  0
   10.0647  -14.0297   28.6802 O   0  0  0  0  0  0  0  0  0  0  0  0
    8.9331  -15.8739   27.9913 O   0  0  0  0  0  0  0  0  0  0  0  0
  1  2  1  0
  2  3  2  0
  4  5  1  0
  4  2  1  0
  5  6  1  6
  7  5  1  0
  8  7  2  0
 10  9  1  0
 11 10  1  1
 11 13  1  0
 11 12  1  0
 12  7  1  0
 13 15  1  0
 14 13  2  0
 15 19  1  0
 15 16  1  0
 16 17  1  0
 18 17  1  0
 19 18  1  0
 19 20  1  1
 20 22  1  0
 21 20  2  0
M  END
$$$$
