NSP.pdb
     RDKit          3D

 22 22  0  0  1  0  0  0  0  0999 V2000
    9.4114  -14.8776   17.4798 N   0  0  0  0  0  0  0  0  0  0  0  0
    8.2863  -14.0847   17.7478 C   0  0  0  0  0  0  0  0  0  0  0  0
    7.8832  -13.3505   16.7792 O   0  0  0  0  0  0  0  0  0  0  0  0
    7.5516  -14.0363   19.0255 C   0  0  0  0  0  0  0  0  0  0  0  0
    8.0881  -14.9234   20.0771 C   0  0  2  0  0  0  0  0  0  0  0  0
    8.0234  -16.3429   19.6560 N   0  0  0  0  0  0  0  0  0  0  0  0
    7.3713  -14.8410   21.3940 C   0  0  0  0  0  0  0  0  0  0  0  0
    6.1314  -14.6624   21.4158 O   0  0  0  0  0  0  0  0  0  0  0  0
    6.9846  -17.3705   24.1794 O   0  0  0  0  0  0  0  0  0  0  0  0
    6.4436  -16.0890   24.0568 C   0  0  0  0  0  0  0  0  0  0  0  0
    7.4668  -15.0025   23.9471 C   0  0  2  0  0  0  0  0  0  0  0  0
    8.0532  -14.9583   22.6244 N   0  0  0  0  0  0  0  0  0  0  0  0
    8.5012  -15.1146   25.0234 C   0  0  0  0  0  0  0  0  0  0  0  0
    9.1736  -16.1655   24.9956 O   0  0  0  0  0  0  0  0  0  0  0  0
    8.7286  -14.1376   26.0043 N   0  0  0  0  0  0  0  0  0  0  0  0
    8.4717  -12.6641   25.8362 C   0  0  0  0  0  0  0  0  0  0  0  0
    7.5850  -12.4625   27.0268 C   0  0  0  0  0  0  0  0  0  0  0  0
    8.1084  -13.4504   28.0846 C   0  0  0  0  0  0  0  0  0  0  0  0
    9.2627  -14.1247   27.3251 C   0  0  1  0  0  0  0  0  0  0  0  0
    9.7238  -15.3210   27.9700 C   0  0  0  0  0  0  0  0  0  0  0  0
    9.2973  -16.4619   27.7173 O   0  0  0  0  0  0  0  0  0  0  0  0
   10.7346  -15.2269   28.9683 O   0  0  0  0  0  0  0  0  0  0  0  0
  1  2  1  0
  2  3  2  0
  4  5  1  0
  4  2  1  0
  5  6  1  6
  7  5  1  0
  8  7  2  0
 10  9  1  0
 11 10  1  6
 11 13  1  0
 11 12  1  0
 12  7  1  0
 13 15  1  0
 14 13  2  0
 15 19  1  0
 15 16  1  0
 16 17  1  0
 18 17  1  0
 19 18  1  0
 19 20  1  1
 20 22  1  0
 21 20  2  0
M  END
$$$$
