NSP.pdb
     RDKit          3D

 22 22  0  0  1  0  0  0  0  0999 V2000
    7.5735  -12.8598   17.3881 N   0  0  0  0  0  0  0  0  0  0  0  0
    8.2149  -13.3979   18.5129 C   0  0  0  0  0  0  0  0  0  0  0  0
    9.4141  -13.8057   18.3240 O   0  0  0  0  0  0  0  0  0  0  0  0
    7.6290  -13.5236   19.8604 C   0  0  0  0  0  0  0  0  0  0  0  0
    7.7209  -14.8757   20.4469 C   0  0  2  0  0  0  0  0  0  0  0  0
    7.0741  -15.8789   19.5684 N   0  0  0  0  0  0  0  0  0  0  0  0
    7.0781  -15.0198   21.7963 C   0  0  0  0  0  0  0  0  0  0  0  0
    5.8324  -15.1216   21.8829 O   0  0  0  0  0  0  0  0  0  0  0  0
    6.2964  -17.2387   25.5212 O   0  0  0  0  0  0  0  0  0  0  0  0
    6.7318  -16.7893   24.2728 C   0  0  0  0  0  0  0  0  0  0  0  0
    7.3844  -15.4429   24.3024 C   0  0  2  0  0  0  0  0  0  0  0  0
    7.8367  -15.0442   22.9865 N   0  0  0  0  0  0  0  0  0  0  0  0
    8.4807  -15.3887   25.3203 C   0  0  0  0  0  0  0  0  0  0  0  0
    9.2313  -16.3855   25.3347 O   0  0  0  0  0  0  0  0  0  0  0  0
    8.6827  -14.3199   26.2064 N   0  0  0  0  0  0  0  0  0  0  0  0
    8.2685  -12.8949   25.9547 C   0  0  0  0  0  0  0  0  0  0  0  0
    7.4582  -12.6832   27.1969 C   0  0  0  0  0  0  0  0  0  0  0  0
    8.1554  -13.5305   28.2760 C   0  0  0  0  0  0  0  0  0  0  0  0
    9.3107  -14.1521   27.4743 C   0  0  1  0  0  0  0  0  0  0  0  0
    9.9359  -15.2449   28.1631 C   0  0  0  0  0  0  0  0  0  0  0  0
    9.6015  -16.4363   28.0358 O   0  0  0  0  0  0  0  0  0  0  0  0
   11.0115  -14.9786   29.0572 O   0  0  0  0  0  0  0  0  0  0  0  0
  1  2  1  0
  2  3  2  0
  4  5  1  0
  4  2  1  0
  5  6  1  6
  7  5  1  0
  8  7  2  0
 10  9  1  0
 11 10  1  6
 11 13  1  0
 11 12  1  0
 12  7  1  0
 13 15  1  0
 14 13  2  0
 15 19  1  0
 15 16  1  0
 16 17  1  0
 18 17  1  0
 19 18  1  0
 19 20  1  1
 20 22  1  0
 21 20  2  0
M  END
$$$$
