NSP.pdb
     RDKit          3D

 22 22  0  0  1  0  0  0  0  0999 V2000
    8.1168  -13.3712   16.5334 N   0  0  0  0  0  0  0  0  0  0  0  0
    8.6707  -13.7821   17.7542 C   0  0  0  0  0  0  0  0  0  0  0  0
    9.6912  -14.5509   17.6682 O   0  0  0  0  0  0  0  0  0  0  0  0
    8.1808  -13.4039   19.0928 C   0  0  0  0  0  0  0  0  0  0  0  0
    8.6327  -14.2887   20.1853 C   0  0  2  0  0  0  0  0  0  0  0  0
    8.4391  -15.7136   19.8270 N   0  0  0  0  0  0  0  0  0  0  0  0
    7.9249  -14.0827   21.4936 C   0  0  0  0  0  0  0  0  0  0  0  0
    7.7538  -12.9211   21.9306 O   0  0  0  0  0  0  0  0  0  0  0  0
    6.6863  -17.4832   23.9861 O   0  0  0  0  0  0  0  0  0  0  0  0
    5.9438  -16.3162   23.7946 C   0  0  0  0  0  0  0  0  0  0  0  0
    6.7757  -15.0978   23.5435 C   0  0  2  0  0  0  0  0  0  0  0  0
    7.4397  -15.1649   22.2591 N   0  0  0  0  0  0  0  0  0  0  0  0
    7.7343  -14.8491   24.6661 C   0  0  0  0  0  0  0  0  0  0  0  0
    8.6756  -15.6651   24.7409 O   0  0  0  0  0  0  0  0  0  0  0  0
    7.6193  -13.7934   25.5829 N   0  0  0  0  0  0  0  0  0  0  0  0
    6.9849  -12.4594   25.2938 C   0  0  0  0  0  0  0  0  0  0  0  0
    5.9959  -12.4425   26.4191 C   0  0  0  0  0  0  0  0  0  0  0  0
    6.6926  -13.1866   27.5722 C   0  0  0  0  0  0  0  0  0  0  0  0
    8.0365  -13.5592   26.9249 C   0  0  1  0  0  0  0  0  0  0  0  0
    8.7587  -14.5438   27.6789 C   0  0  0  0  0  0  0  0  0  0  0  0
    9.7783  -14.3031   28.3496 O   0  0  0  0  0  0  0  0  0  0  0  0
    8.3021  -15.8923   27.6779 O   0  0  0  0  0  0  0  0  0  0  0  0
  1  2  1  0
  2  3  2  0
  4  5  1  0
  4  2  1  0
  5  6  1  6
  7  5  1  0
  8  7  2  0
 10  9  1  0
 11 10  1  1
 11 13  1  0
 11 12  1  0
 12  7  1  0
 13 15  1  0
 14 13  2  0
 15 19  1  0
 15 16  1  0
 16 17  1  0
 18 17  1  0
 19 18  1  0
 19 20  1  1
 20 22  1  0
 21 20  2  0
M  END
$$$$
