NSP.pdb
     RDKit          3D

 22 22  0  0  1  0  0  0  0  0999 V2000
    9.7704  -14.3679   16.9945 N   0  0  0  0  0  0  0  0  0  0  0  0
    8.4782  -14.0645   17.4465 C   0  0  0  0  0  0  0  0  0  0  0  0
    7.5235  -14.4100   16.6660 O   0  0  0  0  0  0  0  0  0  0  0  0
    8.1455  -13.3979   18.7191 C   0  0  0  0  0  0  0  0  0  0  0  0
    8.7259  -14.0362   19.9175 C   0  0  2  0  0  0  0  0  0  0  0  0
    9.4017  -15.3074   19.5655 N   0  0  0  0  0  0  0  0  0  0  0  0
    7.7336  -14.3700   20.9940 C   0  0  0  0  0  0  0  0  0  0  0  0
    6.5561  -14.6644   20.6833 O   0  0  0  0  0  0  0  0  0  0  0  0
    6.0504  -16.7508   24.3051 O   0  0  0  0  0  0  0  0  0  0  0  0
    6.8203  -16.2393   23.2584 C   0  0  0  0  0  0  0  0  0  0  0  0
    7.2810  -14.8314   23.4710 C   0  0  2  0  0  0  0  0  0  0  0  0
    8.0840  -14.3633   22.3614 N   0  0  0  0  0  0  0  0  0  0  0  0
    7.9828  -14.6780   24.7844 C   0  0  0  0  0  0  0  0  0  0  0  0
    8.8455  -15.5481   25.0216 O   0  0  0  0  0  0  0  0  0  0  0  0
    7.7211  -13.6512   25.7039 N   0  0  0  0  0  0  0  0  0  0  0  0
    7.0261  -12.3555   25.3819 C   0  0  0  0  0  0  0  0  0  0  0  0
    5.9469  -12.4261   26.4186 C   0  0  0  0  0  0  0  0  0  0  0  0
    6.5917  -13.1472   27.6156 C   0  0  0  0  0  0  0  0  0  0  0  0
    8.0071  -13.4184   27.0801 C   0  0  1  0  0  0  0  0  0  0  0  0
    8.7268  -14.3695   27.8781 C   0  0  0  0  0  0  0  0  0  0  0  0
    9.5192  -14.0640   28.7872 O   0  0  0  0  0  0  0  0  0  0  0  0
    8.5425  -15.7604   27.6363 O   0  0  0  0  0  0  0  0  0  0  0  0
  1  2  1  0
  2  3  2  0
  4  5  1  0
  4  2  1  0
  5  6  1  6
  7  5  1  0
  8  7  2  0
 10  9  1  0
 11 10  1  6
 11 13  1  0
 11 12  1  0
 12  7  1  0
 13 15  1  0
 14 13  2  0
 15 19  1  0
 15 16  1  0
 16 17  1  0
 18 17  1  0
 19 18  1  0
 19 20  1  1
 20 22  1  0
 21 20  2  0
M  END
$$$$
