PVH.pdb
     RDKit          3D

 25 26  0  0  1  0  0  0  0  0999 V2000
   19.4939  -27.0457   -1.5560 N   0  0  0  0  0  0  0  0  0  0  0  0
   18.8579  -27.0926   -2.8755 C   0  0  0  0  0  0  0  0  0  0  0  0
   17.4809  -27.6630   -2.6367 C   0  0  0  0  0  0  0  0  0  0  0  0
   17.2983  -27.5838   -1.1319 C   0  0  0  0  0  0  0  0  0  0  0  0
   18.4021  -26.6643   -0.7085 C   0  0  1  0  0  0  0  0  0  0  0  0
   18.7123  -26.7371    0.7228 C   0  0  0  0  0  0  0  0  0  0  0  0
   19.3315  -25.7709    1.2412 O   0  0  0  0  0  0  0  0  0  0  0  0
   16.7025  -29.2874    3.4583 C   0  0  0  0  0  0  0  0  0  0  0  0
   17.5238  -28.1090    3.8579 C   0  0  2  0  0  0  0  0  0  0  0  0
   16.7275  -26.8034    3.8566 C   0  0  0  0  0  0  0  0  0  0  0  0
   18.7410  -27.9084    2.9535 C   0  0  2  0  0  0  0  0  0  0  0  0
   18.3631  -27.8241    1.5710 N   0  0  0  0  0  0  0  0  0  0  0  0
   19.7858  -28.9085    3.2148 C   0  0  0  0  0  0  0  0  0  0  0  0
   20.2121  -29.7272    2.3604 O   0  0  0  0  0  0  0  0  0  0  0  0
   20.3724  -28.9802    4.5071 N   0  0  0  0  0  0  0  0  0  0  0  0
   21.4726  -29.9135    4.8137 C   0  0  1  0  0  0  0  0  0  0  0  0
   22.5753  -29.4976    3.8700 C   0  0  0  0  0  0  0  0  0  0  0  0
   23.8666  -30.1284    4.0727 C   0  0  0  0  0  0  0  0  0  0  0  0
   24.0168  -31.4397    4.4887 C   0  0  0  0  0  0  0  0  0  0  0  0
   25.3233  -31.7196    4.5804 N   0  0  0  0  0  0  0  0  0  0  0  0
   25.9750  -30.5972    4.2262 C   0  0  0  0  0  0  0  0  0  0  0  0
   25.0929  -29.6337    3.9187 N   0  0  0  0  0  0  0  0  0  0  0  0
   21.8588  -29.7965    6.2194 C   0  0  0  0  0  0  0  0  0  0  0  0
   22.4429  -30.8724    6.8685 O   0  0  0  0  0  0  0  0  0  0  0  0
   21.6789  -28.7524    6.8599 O   0  0  0  0  0  0  0  0  0  0  0  0
  1  2  1  0
  3  2  1  0
  4  3  1  0
  4  5  1  0
  5  1  1  0
  5  6  1  1
  6  7  2  0
  9  8  1  6
  9 10  1  0
 11 13  1  0
 11  9  1  0
 12  6  1  0
 11 12  1  6
 13 14  2  0
 15 16  1  0
 15 13  1  0
 16 23  1  0
 17 18  1  0
 16 17  1  6
 18 22  1  0
 19 20  1  0
 19 18  2  0
 20 21  1  0
 21 22  2  0
 23 24  1  0
 25 23  2  0
M  END
$$$$
