PVH.pdb
     RDKit          3D

 25 26  0  0  1  0  0  0  0  0999 V2000
   18.2835  -13.2690  -17.4265 N   0  0  0  0  0  0  0  0  0  0  0  0
   17.9414  -14.6941  -17.4170 C   0  0  0  0  0  0  0  0  0  0  0  0
   19.2321  -15.4181  -17.7148 C   0  0  0  0  0  0  0  0  0  0  0  0
   20.3055  -14.3600  -17.5348 C   0  0  0  0  0  0  0  0  0  0  0  0
   19.5798  -13.2660  -16.8138 C   0  0  1  0  0  0  0  0  0  0  0  0
   20.2596  -11.9683  -16.8763 C   0  0  0  0  0  0  0  0  0  0  0  0
   21.3693  -11.8559  -16.2920 O   0  0  0  0  0  0  0  0  0  0  0  0
   21.6522   -9.9131  -19.8074 C   0  0  0  0  0  0  0  0  0  0  0  0
   20.6297   -9.1122  -19.0753 C   0  0  2  0  0  0  0  0  0  0  0  0
   20.9535   -7.6179  -19.0502 C   0  0  0  0  0  0  0  0  0  0  0  0
   20.4521   -9.5707  -17.6269 C   0  0  2  0  0  0  0  0  0  0  0  0
   19.7542  -10.8231  -17.5516 N   0  0  0  0  0  0  0  0  0  0  0  0
   19.8581   -8.5184  -16.7903 C   0  0  0  0  0  0  0  0  0  0  0  0
   18.6457   -8.1854  -16.8257 O   0  0  0  0  0  0  0  0  0  0  0  0
   20.6810   -7.8131  -15.8712 N   0  0  0  0  0  0  0  0  0  0  0  0
   20.1337   -6.7917  -14.9587 C   0  0  1  0  0  0  0  0  0  0  0  0
   20.4570   -7.3232  -13.5829 C   0  0  0  0  0  0  0  0  0  0  0  0
   19.5264   -8.2917  -13.0332 C   0  0  0  0  0  0  0  0  0  0  0  0
   18.4435   -8.7912  -13.7353 C   0  0  0  0  0  0  0  0  0  0  0  0
   17.7838   -9.6591  -12.9573 N   0  0  0  0  0  0  0  0  0  0  0  0
   18.4484   -9.6977  -11.7881 C   0  0  0  0  0  0  0  0  0  0  0  0
   19.5036   -8.8697  -11.8341 N   0  0  0  0  0  0  0  0  0  0  0  0
   20.7531   -5.4934  -15.2221 C   0  0  0  0  0  0  0  0  0  0  0  0
   20.2821   -4.3590  -14.5808 O   0  0  0  0  0  0  0  0  0  0  0  0
   21.6992   -5.3709  -16.0112 O   0  0  0  0  0  0  0  0  0  0  0  0
  1  2  1  0
  3  2  1  0
  4  3  1  0
  4  5  1  0
  5  1  1  0
  5  6  1  6
  6  7  2  0
  9  8  1  1
  9 10  1  0
 11 13  1  0
 11  9  1  0
 12  6  1  0
 11 12  1  6
 13 14  2  0
 15 16  1  0
 15 13  1  0
 16 23  1  0
 17 18  1  0
 16 17  1  1
 18 22  1  0
 19 20  1  0
 19 18  2  0
 20 21  1  0
 21 22  2  0
 23 24  1  0
 25 23  2  0
M  END
$$$$
