PVH.pdb
     RDKit          3D

 25 26  0  0  1  0  0  0  0  0999 V2000
   19.2670  -11.7903  -18.3220 N   0  0  0  0  0  0  0  0  0  0  0  0
   18.2457  -12.5508  -19.0477 C   0  0  0  0  0  0  0  0  0  0  0  0
   17.4970  -13.3263  -17.9909 C   0  0  0  0  0  0  0  0  0  0  0  0
   17.9254  -12.6865  -16.6827 C   0  0  0  0  0  0  0  0  0  0  0  0
   18.5686  -11.4097  -17.1291 C   0  0  1  0  0  0  0  0  0  0  0  0
   19.4282  -10.7967  -16.1116 C   0  0  0  0  0  0  0  0  0  0  0  0
   18.8857  -10.3850  -15.0525 O   0  0  0  0  0  0  0  0  0  0  0  0
   23.7700  -10.2078  -13.8971 C   0  0  0  0  0  0  0  0  0  0  0  0
   22.9521  -10.7803  -15.0044 C   0  0  2  0  0  0  0  0  0  0  0  0
   23.7056  -10.8290  -16.3342 C   0  0  0  0  0  0  0  0  0  0  0  0
   21.6545  -10.0044  -15.2371 C   0  0  2  0  0  0  0  0  0  0  0  0
   20.8357  -10.6328  -16.2351 N   0  0  0  0  0  0  0  0  0  0  0  0
   21.9094   -8.5811  -15.5004 C   0  0  0  0  0  0  0  0  0  0  0  0
   22.4562   -8.1407  -16.5440 O   0  0  0  0  0  0  0  0  0  0  0  0
   21.5243   -7.6148  -14.5322 N   0  0  0  0  0  0  0  0  0  0  0  0
   21.7807   -6.1748  -14.7225 C   0  0  1  0  0  0  0  0  0  0  0  0
   20.4273   -5.6092  -15.0806 C   0  0  0  0  0  0  0  0  0  0  0  0
   19.9422   -5.9009  -16.4169 C   0  0  0  0  0  0  0  0  0  0  0  0
   20.2889   -5.1584  -17.5321 C   0  0  0  0  0  0  0  0  0  0  0  0
   19.6812   -5.6782  -18.6065 N   0  0  0  0  0  0  0  0  0  0  0  0
   18.9669   -6.7289  -18.1640 C   0  0  0  0  0  0  0  0  0  0  0  0
   19.1250   -6.8638  -16.8381 N   0  0  0  0  0  0  0  0  0  0  0  0
   22.3299   -5.5923  -13.4986 C   0  0  0  0  0  0  0  0  0  0  0  0
   22.7419   -4.2694  -13.4860 O   0  0  0  0  0  0  0  0  0  0  0  0
   22.4412   -6.2512  -12.4563 O   0  0  0  0  0  0  0  0  0  0  0  0
  1  2  1  0
  3  2  1  0
  4  3  1  0
  4  5  1  0
  5  1  1  0
  5  6  1  1
  6  7  2  0
  9  8  1  1
  9 10  1  0
 11 13  1  0
 11  9  1  0
 12  6  1  0
 11 12  1  6
 13 14  2  0
 15 16  1  0
 15 13  1  0
 16 23  1  0
 17 18  1  0
 16 17  1  1
 18 22  1  0
 19 20  1  0
 19 18  2  0
 20 21  1  0
 21 22  2  0
 23 24  1  0
 25 23  2  0
M  END
$$$$
