PVH.pdb
     RDKit          3D

 25 26  0  0  1  0  0  0  0  0999 V2000
   19.4848  -11.7904  -18.1071 N   0  0  0  0  0  0  0  0  0  0  0  0
   18.5427  -12.7487  -18.6920 C   0  0  0  0  0  0  0  0  0  0  0  0
   18.3116  -13.7878  -17.6218 C   0  0  0  0  0  0  0  0  0  0  0  0
   18.8797  -13.1606  -16.3616 C   0  0  0  0  0  0  0  0  0  0  0  0
   19.0391  -11.7219  -16.7461 C   0  0  1  0  0  0  0  0  0  0  0  0
   19.9425  -10.9741  -15.8658 C   0  0  0  0  0  0  0  0  0  0  0  0
   19.5788  -10.7805  -14.6760 O   0  0  0  0  0  0  0  0  0  0  0  0
   24.1176  -10.1809  -16.7368 C   0  0  0  0  0  0  0  0  0  0  0  0
   23.4850  -10.2221  -15.3874 C   0  0  2  0  0  0  0  0  0  0  0  0
   23.4445  -11.6311  -14.7943 C   0  0  0  0  0  0  0  0  0  0  0  0
   22.0537   -9.6824  -15.3936 C   0  0  2  0  0  0  0  0  0  0  0  0
   21.2043  -10.4496  -16.2604 N   0  0  0  0  0  0  0  0  0  0  0  0
   22.0161   -8.2385  -15.6652 C   0  0  0  0  0  0  0  0  0  0  0  0
   21.8618   -7.7366  -16.8082 O   0  0  0  0  0  0  0  0  0  0  0  0
   22.1604   -7.3240  -14.5872 N   0  0  0  0  0  0  0  0  0  0  0  0
   22.0349   -5.8668  -14.7782 C   0  0  1  0  0  0  0  0  0  0  0  0
   20.6309   -5.6892  -15.3045 C   0  0  0  0  0  0  0  0  0  0  0  0
   20.1713   -4.3214  -15.4600 C   0  0  0  0  0  0  0  0  0  0  0  0
   21.0001   -3.2767  -15.8302 C   0  0  0  0  0  0  0  0  0  0  0  0
   20.2797   -2.1490  -15.8854 N   0  0  0  0  0  0  0  0  0  0  0  0
   19.0209   -2.4893  -15.5540 C   0  0  0  0  0  0  0  0  0  0  0  0
   18.9553   -3.8047  -15.2964 N   0  0  0  0  0  0  0  0  0  0  0  0
   22.2552   -5.1695  -13.5118 C   0  0  0  0  0  0  0  0  0  0  0  0
   22.4317   -3.7952  -13.5000 O   0  0  0  0  0  0  0  0  0  0  0  0
   22.2902   -5.7745  -12.4321 O   0  0  0  0  0  0  0  0  0  0  0  0
  1  2  1  0
  3  2  1  0
  4  3  1  0
  4  5  1  0
  5  1  1  0
  5  6  1  1
  6  7  2  0
  9  8  1  6
  9 10  1  0
 11 13  1  0
 11  9  1  0
 12  6  1  0
 11 12  1  6
 13 14  2  0
 15 16  1  0
 15 13  1  0
 16 23  1  0
 17 18  1  0
 16 17  1  1
 18 22  1  0
 19 20  1  0
 19 18  2  0
 20 21  1  0
 21 22  2  0
 23 24  1  0
 25 23  2  0
M  END
$$$$
