PVH.pdb
     RDKit          3D

 25 26  0  0  1  0  0  0  0  0999 V2000
   27.8503  -23.9874  -17.1532 N   0  0  0  0  0  0  0  0  0  0  0  0
   29.0493  -24.7675  -17.4723 C   0  0  0  0  0  0  0  0  0  0  0  0
   30.1531  -23.7527  -17.6470 C   0  0  0  0  0  0  0  0  0  0  0  0
   29.5775  -22.4706  -17.0734 C   0  0  0  0  0  0  0  0  0  0  0  0
   28.3791  -22.9514  -16.3147 C   0  0  1  0  0  0  0  0  0  0  0  0
   27.4139  -21.8916  -16.0058 C   0  0  0  0  0  0  0  0  0  0  0  0
   27.7805  -20.9686  -15.2317 O   0  0  0  0  0  0  0  0  0  0  0  0
   23.7908  -19.0152  -17.5485 C   0  0  0  0  0  0  0  0  0  0  0  0
   24.7078  -20.1814  -17.6971 C   0  0  2  0  0  0  0  0  0  0  0  0
   24.0575  -21.3579  -18.4261 C   0  0  0  0  0  0  0  0  0  0  0  0
   25.2219  -20.6985  -16.3524 C   0  0  2  0  0  0  0  0  0  0  0  0
   26.0889  -21.8307  -16.5191 N   0  0  0  0  0  0  0  0  0  0  0  0
   24.1250  -20.9360  -15.4035 C   0  0  0  0  0  0  0  0  0  0  0  0
   23.4169  -21.9754  -15.3850 O   0  0  0  0  0  0  0  0  0  0  0  0
   23.8200  -19.9457  -14.4310 N   0  0  0  0  0  0  0  0  0  0  0  0
   22.7638  -20.1438  -13.4206 C   0  0  1  0  0  0  0  0  0  0  0  0
   23.2267  -19.3176  -12.2447 C   0  0  0  0  0  0  0  0  0  0  0  0
   23.3344  -20.0116  -10.9745 C   0  0  0  0  0  0  0  0  0  0  0  0
   22.9767  -21.3367  -10.7978 C   0  0  0  0  0  0  0  0  0  0  0  0
   23.1926  -21.6786   -9.5210 N   0  0  0  0  0  0  0  0  0  0  0  0
   23.6776  -20.5805   -8.9136 C   0  0  0  0  0  0  0  0  0  0  0  0
   23.7634  -19.5711   -9.7938 N   0  0  0  0  0  0  0  0  0  0  0  0
   21.4719  -19.7036  -13.9458 C   0  0  0  0  0  0  0  0  0  0  0  0
   20.3109  -20.3567  -13.5643 O   0  0  0  0  0  0  0  0  0  0  0  0
   21.3781  -18.7521  -14.7324 O   0  0  0  0  0  0  0  0  0  0  0  0
  1  2  1  0
  3  2  1  0
  4  3  1  0
  4  5  1  0
  5  1  1  0
  5  6  1  6
  6  7  2  0
  9  8  1  1
  9 10  1  0
 11 13  1  0
 11  9  1  0
 12  6  1  0
 11 12  1  6
 13 14  2  0
 15 16  1  0
 15 13  1  0
 16 23  1  0
 17 18  1  0
 16 17  1  1
 18 22  1  0
 19 20  1  0
 19 18  2  0
 20 21  1  0
 21 22  2  0
 23 24  1  0
 25 23  2  0
M  END
$$$$
