PVH.pdb
     RDKit          3D

 25 26  0  0  1  0  0  0  0  0999 V2000
   28.0386  -19.1824  -15.0815 N   0  0  0  0  0  0  0  0  0  0  0  0
   29.2284  -18.9450  -15.9037 C   0  0  0  0  0  0  0  0  0  0  0  0
   30.0299  -20.2219  -15.8271 C   0  0  0  0  0  0  0  0  0  0  0  0
   29.0658  -21.2346  -15.2363 C   0  0  0  0  0  0  0  0  0  0  0  0
   27.7389  -20.5538  -15.3739 C   0  0  1  0  0  0  0  0  0  0  0  0
   26.6930  -21.1248  -14.5195 C   0  0  0  0  0  0  0  0  0  0  0  0
   26.2026  -22.2360  -14.8516 O   0  0  0  0  0  0  0  0  0  0  0  0
   24.4046  -21.5878  -10.1890 C   0  0  0  0  0  0  0  0  0  0  0  0
   25.4992  -21.0528  -11.0482 C   0  0  2  0  0  0  0  0  0  0  0  0
   25.8897  -19.6191  -10.6868 C   0  0  0  0  0  0  0  0  0  0  0  0
   25.1410  -21.0730  -12.5352 C   0  0  2  0  0  0  0  0  0  0  0  0
   26.1905  -20.5120  -13.3384 N   0  0  0  0  0  0  0  0  0  0  0  0
   23.8247  -20.4700  -12.7877 C   0  0  0  0  0  0  0  0  0  0  0  0
   23.6180  -19.2326  -12.8778 O   0  0  0  0  0  0  0  0  0  0  0  0
   22.6919  -21.3135  -12.9452 N   0  0  0  0  0  0  0  0  0  0  0  0
   21.3568  -20.7749  -13.2662 C   0  0  1  0  0  0  0  0  0  0  0  0
   21.0535  -21.3457  -14.6307 C   0  0  0  0  0  0  0  0  0  0  0  0
   19.7531  -21.0219  -15.1880 C   0  0  0  0  0  0  0  0  0  0  0  0
   18.7908  -20.2982  -14.5059 C   0  0  0  0  0  0  0  0  0  0  0  0
   17.7097  -20.1692  -15.2859 N   0  0  0  0  0  0  0  0  0  0  0  0
   17.9973  -20.8044  -16.4366 C   0  0  0  0  0  0  0  0  0  0  0  0
   19.2347  -21.3206  -16.3773 N   0  0  0  0  0  0  0  0  0  0  0  0
   20.3870  -21.1889  -12.2530 C   0  0  0  0  0  0  0  0  0  0  0  0
   19.2561  -20.4218  -12.0231 O   0  0  0  0  0  0  0  0  0  0  0  0
   20.5440  -22.2178  -11.5825 O   0  0  0  0  0  0  0  0  0  0  0  0
  1  2  1  0
  3  2  1  0
  4  3  1  0
  4  5  1  0
  5  1  1  0
  5  6  1  1
  6  7  2  0
  9  8  1  1
  9 10  1  0
 11 13  1  0
 11  9  1  0
 12  6  1  0
 11 12  1  6
 13 14  2  0
 15 16  1  0
 15 13  1  0
 16 23  1  0
 17 18  1  0
 16 17  1  6
 18 22  1  0
 19 20  1  0
 19 18  2  0
 20 21  1  0
 21 22  2  0
 23 24  1  0
 25 23  2  0
M  END
$$$$
