PVH.pdb
     RDKit          3D

 25 26  0  0  1  0  0  0  0  0999 V2000
   28.3412  -20.5928   -5.7479 N   0  0  0  0  0  0  0  0  0  0  0  0
   28.7599  -20.2135   -4.3956 C   0  0  0  0  0  0  0  0  0  0  0  0
   29.0359  -18.7309   -4.4624 C   0  0  0  0  0  0  0  0  0  0  0  0
   28.4209  -18.2943   -5.7798 C   0  0  0  0  0  0  0  0  0  0  0  0
   27.5577  -19.4611   -6.1494 C   0  0  1  0  0  0  0  0  0  0  0  0
   27.1711  -19.4824   -7.5637 C   0  0  0  0  0  0  0  0  0  0  0  0
   26.4682  -18.5315   -7.9965 O   0  0  0  0  0  0  0  0  0  0  0  0
   28.4364  -22.5740  -10.4906 C   0  0  0  0  0  0  0  0  0  0  0  0
   28.3310  -21.1054  -10.7252 C   0  0  2  0  0  0  0  0  0  0  0  0
   29.6346  -20.3626  -10.4296 C   0  0  0  0  0  0  0  0  0  0  0  0
   27.2287  -20.4551   -9.8873 C   0  0  2  0  0  0  0  0  0  0  0  0
   27.5338  -20.5033   -8.4852 N   0  0  0  0  0  0  0  0  0  0  0  0
   25.9022  -20.9955  -10.2166 C   0  0  0  0  0  0  0  0  0  0  0  0
   25.2153  -21.7085   -9.4408 O   0  0  0  0  0  0  0  0  0  0  0  0
   25.3311  -20.7116  -11.4865 N   0  0  0  0  0  0  0  0  0  0  0  0
   23.9450  -21.0893  -11.8205 C   0  0  1  0  0  0  0  0  0  0  0  0
   23.1051  -20.0600  -11.1030 C   0  0  0  0  0  0  0  0  0  0  0  0
   21.6797  -20.0915  -11.3743 C   0  0  0  0  0  0  0  0  0  0  0  0
   21.0738  -21.0618  -12.1531 C   0  0  0  0  0  0  0  0  0  0  0  0
   19.7589  -20.8138  -12.2114 N   0  0  0  0  0  0  0  0  0  0  0  0
   19.5518  -19.7046  -11.4787 C   0  0  0  0  0  0  0  0  0  0  0  0
   20.7148  -19.2673  -10.9718 N   0  0  0  0  0  0  0  0  0  0  0  0
   23.7494  -21.0666  -13.2696 C   0  0  0  0  0  0  0  0  0  0  0  0
   24.7424  -20.5628  -14.0943 O   0  0  0  0  0  0  0  0  0  0  0  0
   22.7102  -21.4890  -13.7936 O   0  0  0  0  0  0  0  0  0  0  0  0
  1  2  1  0
  3  2  1  0
  4  3  1  0
  4  5  1  0
  5  1  1  0
  5  6  1  6
  6  7  2  0
  9  8  1  1
  9 10  1  0
 11 13  1  0
 11  9  1  0
 12  6  1  0
 11 12  1  1
 13 14  2  0
 15 16  1  0
 15 13  1  0
 16 23  1  0
 17 18  1  0
 16 17  1  1
 18 22  1  0
 19 20  1  0
 19 18  2  0
 20 21  1  0
 21 22  2  0
 23 24  1  0
 25 23  2  0
M  END
$$$$
