PVH.pdb
     RDKit          3D

 25 26  0  0  1  0  0  0  0  0999 V2000
   27.0982  -19.4074  -16.2074 N   0  0  0  0  0  0  0  0  0  0  0  0
   28.3310  -18.8678  -16.7879 C   0  0  0  0  0  0  0  0  0  0  0  0
   29.3192  -18.8107  -15.6482 C   0  0  0  0  0  0  0  0  0  0  0  0
   28.6812  -19.6509  -14.5567 C   0  0  0  0  0  0  0  0  0  0  0  0
   27.6009  -20.3863  -15.2883 C   0  0  1  0  0  0  0  0  0  0  0  0
   26.5739  -20.9520  -14.4079 C   0  0  0  0  0  0  0  0  0  0  0  0
   26.1226  -22.0939  -14.6871 O   0  0  0  0  0  0  0  0  0  0  0  0
   24.2580  -21.3620  -10.1052 C   0  0  0  0  0  0  0  0  0  0  0  0
   25.3646  -20.8597  -10.9688 C   0  0  2  0  0  0  0  0  0  0  0  0
   25.8189  -19.4494  -10.5901 C   0  0  0  0  0  0  0  0  0  0  0  0
   24.9896  -20.8414  -12.4517 C   0  0  2  0  0  0  0  0  0  0  0  0
   26.0485  -20.3018  -13.2571 N   0  0  0  0  0  0  0  0  0  0  0  0
   23.6917  -20.1902  -12.6784 C   0  0  0  0  0  0  0  0  0  0  0  0
   23.4686  -18.9680  -12.4822 O   0  0  0  0  0  0  0  0  0  0  0  0
   22.5978  -20.9649  -13.1502 N   0  0  0  0  0  0  0  0  0  0  0  0
   21.2734  -20.3689  -13.4079 C   0  0  1  0  0  0  0  0  0  0  0  0
   20.8639  -20.9552  -14.7377 C   0  0  0  0  0  0  0  0  0  0  0  0
   21.5029  -20.3915  -15.9125 C   0  0  0  0  0  0  0  0  0  0  0  0
   22.4216  -19.3580  -15.8580 C   0  0  0  0  0  0  0  0  0  0  0  0
   22.8237  -19.0677  -17.1021 N   0  0  0  0  0  0  0  0  0  0  0  0
   22.1633  -19.9097  -17.9177 C   0  0  0  0  0  0  0  0  0  0  0  0
   21.3636  -20.7113  -17.1973 N   0  0  0  0  0  0  0  0  0  0  0  0
   20.3458  -20.7114  -12.3304 C   0  0  0  0  0  0  0  0  0  0  0  0
   19.2514  -19.9006  -12.0755 O   0  0  0  0  0  0  0  0  0  0  0  0
   20.5072  -21.7171  -11.6267 O   0  0  0  0  0  0  0  0  0  0  0  0
  1  2  1  0
  3  2  1  0
  4  3  1  0
  4  5  1  0
  5  1  1  0
  5  6  1  1
  6  7  2  0
  9  8  1  1
  9 10  1  0
 11 13  1  0
 11  9  1  0
 12  6  1  0
 11 12  1  6
 13 14  2  0
 15 16  1  0
 15 13  1  0
 16 23  1  0
 17 18  1  0
 16 17  1  6
 18 22  1  0
 19 20  1  0
 19 18  2  0
 20 21  1  0
 21 22  2  0
 23 24  1  0
 25 23  2  0
M  END
$$$$
