PVH.pdb
     RDKit          3D

 25 26  0  0  1  0  0  0  0  0999 V2000
   27.9960  -20.3126  -16.3191 N   0  0  0  0  0  0  0  0  0  0  0  0
   28.8125  -19.2253  -16.8660 C   0  0  0  0  0  0  0  0  0  0  0  0
   28.2991  -17.9679  -16.2072 C   0  0  0  0  0  0  0  0  0  0  0  0
   27.4415  -18.4697  -15.0595 C   0  0  0  0  0  0  0  0  0  0  0  0
   27.8353  -19.9107  -14.9522 C   0  0  1  0  0  0  0  0  0  0  0  0
   26.8750  -20.7291  -14.2051 C   0  0  0  0  0  0  0  0  0  0  0  0
   26.2206  -21.5969  -14.8408 O   0  0  0  0  0  0  0  0  0  0  0  0
   24.3162  -21.5200   -9.9636 C   0  0  0  0  0  0  0  0  0  0  0  0
   25.5683  -21.0906  -10.6496 C   0  0  2  0  0  0  0  0  0  0  0  0
   26.0385  -19.7030  -10.2115 C   0  0  0  0  0  0  0  0  0  0  0  0
   25.4256  -21.0704  -12.1725 C   0  0  2  0  0  0  0  0  0  0  0  0
   26.6284  -20.6131  -12.8091 N   0  0  0  0  0  0  0  0  0  0  0  0
   24.2237  -20.3396  -12.5984 C   0  0  0  0  0  0  0  0  0  0  0  0
   24.1277  -19.0856  -12.6200 O   0  0  0  0  0  0  0  0  0  0  0  0
   23.0789  -21.0687  -13.0192 N   0  0  0  0  0  0  0  0  0  0  0  0
   21.8709  -20.3961  -13.5329 C   0  0  1  0  0  0  0  0  0  0  0  0
   21.6217  -21.0639  -14.8639 C   0  0  0  0  0  0  0  0  0  0  0  0
   22.4560  -20.6269  -15.9682 C   0  0  0  0  0  0  0  0  0  0  0  0
   23.3986  -19.6196  -15.8586 C   0  0  0  0  0  0  0  0  0  0  0  0
   23.9978  -19.4541  -17.0449 N   0  0  0  0  0  0  0  0  0  0  0  0
   23.4347  -20.3467  -17.8793 C   0  0  0  0  0  0  0  0  0  0  0  0
   22.5011  -21.0568  -17.2273 N   0  0  0  0  0  0  0  0  0  0  0  0
   20.7594  -20.5684  -12.5982 C   0  0  0  0  0  0  0  0  0  0  0  0
   19.6680  -19.7166  -12.6561 O   0  0  0  0  0  0  0  0  0  0  0  0
   20.7599  -21.4636  -11.7429 O   0  0  0  0  0  0  0  0  0  0  0  0
  1  2  1  0
  3  2  1  0
  4  3  1  0
  4  5  1  0
  5  1  1  0
  5  6  1  6
  6  7  2  0
  9  8  1  1
  9 10  1  0
 11 13  1  0
 11  9  1  0
 12  6  1  0
 11 12  1  6
 13 14  2  0
 15 16  1  0
 15 13  1  0
 16 23  1  0
 17 18  1  0
 16 17  1  6
 18 22  1  0
 19 20  1  0
 19 18  2  0
 20 21  1  0
 21 22  2  0
 23 24  1  0
 25 23  2  0
M  END
$$$$
