VQA.pdb
     RDKit          3D

 22 21  0  0  1  0  0  0  0  0999 V2000
   15.3731  -13.0796  -17.6008 C   0  0  0  0  0  0  0  0  0  0  0  0
   15.6889  -11.9268  -16.6468 C   0  0  2  0  0  0  0  0  0  0  0  0
   15.4952  -10.6493  -17.4398 C   0  0  0  0  0  0  0  0  0  0  0  0
   17.1534  -12.0675  -16.2913 C   0  0  2  0  0  0  0  0  0  0  0  0
   17.3278  -13.2797  -15.5534 N   0  0  0  0  0  0  0  0  0  0  0  0
   17.6393  -10.8711  -15.5317 C   0  0  0  0  0  0  0  0  0  0  0  0
   17.2852  -10.7464  -14.3316 O   0  0  0  0  0  0  0  0  0  0  0  0
   23.2134   -8.7133  -15.4952 N   0  0  0  0  0  0  0  0  0  0  0  0
   22.5938   -9.6283  -14.5887 C   0  0  0  0  0  0  0  0  0  0  0  0
   23.3931  -10.3316  -13.8929 O   0  0  0  0  0  0  0  0  0  0  0  0
   21.1182   -9.7453  -14.4715 C   0  0  0  0  0  0  0  0  0  0  0  0
   20.5133   -8.7292  -15.4088 C   0  0  0  0  0  0  0  0  0  0  0  0
   18.9886   -8.7513  -15.3373 C   0  0  2  0  0  0  0  0  0  0  0  0
   18.4700   -9.8819  -16.0920 N   0  0  0  0  0  0  0  0  0  0  0  0
   18.4338   -7.5183  -15.9474 C   0  0  0  0  0  0  0  0  0  0  0  0
   18.4931   -7.3031  -17.2016 O   0  0  0  0  0  0  0  0  0  0  0  0
   15.9902   -4.9405  -15.1266 C   0  0  0  0  0  0  0  0  0  0  0  0
   17.3473   -5.2421  -15.7501 C   0  0  2  0  0  0  0  0  0  0  0  0
   17.8025   -6.4991  -15.1831 N   0  0  0  0  0  0  0  0  0  0  0  0
   18.2840   -4.1370  -15.4900 C   0  0  0  0  0  0  0  0  0  0  0  0
   19.2331   -4.1852  -14.6676 O   0  0  0  0  0  0  0  0  0  0  0  0
   18.1090   -2.9602  -16.2005 O   0  0  0  0  0  0  0  0  0  0  0  0
  2  1  1  6
  2  3  1  0
  4  2  1  0
  4  6  1  0
  4  5  1  1
  6  7  2  0
  6 14  1  0
  9  8  1  0
  9 11  1  0
 10  9  2  0
 12 11  1  0
 13 12  1  6
 14 13  1  0
 15 19  1  0
 15 13  1  0
 16 15  2  0
 18 17  1  1
 18 19  1  0
 18 20  1  0
 20 22  1  0
 21 20  2  0
M  END
$$$$
