VQA.pdb
     RDKit          3D

 22 21  0  0  1  0  0  0  0  0999 V2000
   19.6406  -10.8335  -18.7717 C   0  0  0  0  0  0  0  0  0  0  0  0
   19.9659  -11.1341  -17.3080 C   0  0  2  0  0  0  0  0  0  0  0  0
   18.6389  -11.3709  -16.6142 C   0  0  0  0  0  0  0  0  0  0  0  0
   20.5933   -9.8740  -16.7518 C   0  0  2  0  0  0  0  0  0  0  0  0
   21.1274  -10.1649  -15.4577 N   0  0  0  0  0  0  0  0  0  0  0  0
   19.6012   -8.7521  -16.7122 C   0  0  0  0  0  0  0  0  0  0  0  0
   19.2308   -8.2490  -17.8035 O   0  0  0  0  0  0  0  0  0  0  0  0
   14.3029   -6.6907  -14.9644 N   0  0  0  0  0  0  0  0  0  0  0  0
   14.6819   -7.9265  -15.5741 C   0  0  0  0  0  0  0  0  0  0  0  0
   13.7445   -8.5554  -16.1600 O   0  0  0  0  0  0  0  0  0  0  0  0
   16.0757   -8.4362  -15.5238 C   0  0  0  0  0  0  0  0  0  0  0  0
   16.8896   -7.4358  -14.7406 C   0  0  0  0  0  0  0  0  0  0  0  0
   18.1802   -7.0791  -15.4738 C   0  0  2  0  0  0  0  0  0  0  0  0
   19.0641   -8.2339  -15.5183 N   0  0  0  0  0  0  0  0  0  0  0  0
   18.8949   -6.0006  -14.7483 C   0  0  0  0  0  0  0  0  0  0  0  0
   18.3598   -4.8645  -14.5351 O   0  0  0  0  0  0  0  0  0  0  0  0
   21.9213   -5.7196  -12.6274 C   0  0  0  0  0  0  0  0  0  0  0  0
   20.9673   -5.0787  -13.6276 C   0  0  2  0  0  0  0  0  0  0  0  0
   20.2152   -6.1570  -14.2444 N   0  0  0  0  0  0  0  0  0  0  0  0
   21.7198   -4.2845  -14.6121 C   0  0  0  0  0  0  0  0  0  0  0  0
   21.8238   -4.5722  -15.8311 O   0  0  0  0  0  0  0  0  0  0  0  0
   22.3592   -3.1389  -14.1659 O   0  0  0  0  0  0  0  0  0  0  0  0
  2  1  1  6
  2  3  1  0
  4  2  1  0
  4  6  1  0
  4  5  1  1
  6  7  2  0
  6 14  1  0
  9  8  1  0
  9 11  1  0
 10  9  2  0
 12 11  1  0
 13 12  1  1
 14 13  1  0
 15 19  1  0
 15 13  1  0
 16 15  2  0
 18 17  1  1
 18 19  1  0
 18 20  1  0
 20 22  1  0
 21 20  2  0
M  END
$$$$
