VQA.pdb
     RDKit          3D

 22 21  0  0  1  0  0  0  0  0999 V2000
   15.5421   -7.9903  -20.0781 C   0  0  0  0  0  0  0  0  0  0  0  0
   15.7006   -7.1617  -18.8026 C   0  0  2  0  0  0  0  0  0  0  0  0
   15.9610   -5.7361  -19.2476 C   0  0  0  0  0  0  0  0  0  0  0  0
   16.9364   -7.6938  -18.1093 C   0  0  2  0  0  0  0  0  0  0  0  0
   16.6950   -9.0504  -17.7274 N   0  0  0  0  0  0  0  0  0  0  0  0
   17.3064   -6.8364  -16.9378 C   0  0  0  0  0  0  0  0  0  0  0  0
   16.6323   -6.9510  -15.8824 O   0  0  0  0  0  0  0  0  0  0  0  0
   22.5874   -6.0271  -14.4075 N   0  0  0  0  0  0  0  0  0  0  0  0
   21.8854   -4.9694  -13.7509 C   0  0  0  0  0  0  0  0  0  0  0  0
   22.4893   -4.4462  -12.7614 O   0  0  0  0  0  0  0  0  0  0  0  0
   20.5435   -4.5167  -14.1976 C   0  0  0  0  0  0  0  0  0  0  0  0
   20.1394   -5.3930  -15.3576 C   0  0  0  0  0  0  0  0  0  0  0  0
   18.7209   -5.0735  -15.8227 C   0  0  2  0  0  0  0  0  0  0  0  0
   18.3677   -5.9113  -16.9585 N   0  0  0  0  0  0  0  0  0  0  0  0
   18.6391   -3.6616  -16.2700 C   0  0  0  0  0  0  0  0  0  0  0  0
   19.2233   -3.2561  -17.3269 O   0  0  0  0  0  0  0  0  0  0  0  0
   16.7568   -0.6150  -15.1548 C   0  0  0  0  0  0  0  0  0  0  0  0
   17.8906   -1.2682  -15.9351 C   0  0  2  0  0  0  0  0  0  0  0  0
   17.9099   -2.6704  -15.5578 N   0  0  0  0  0  0  0  0  0  0  0  0
   19.1648   -0.5912  -15.6447 C   0  0  0  0  0  0  0  0  0  0  0  0
   19.9232   -0.8797  -14.6850 O   0  0  0  0  0  0  0  0  0  0  0  0
   19.5576    0.4366  -16.4870 O   0  0  0  0  0  0  0  0  0  0  0  0
  2  1  1  6
  2  3  1  0
  4  2  1  0
  4  6  1  0
  4  5  1  1
  6  7  2  0
  6 14  1  0
  9  8  1  0
  9 11  1  0
 10  9  2  0
 12 11  1  0
 13 12  1  6
 14 13  1  0
 15 19  1  0
 15 13  1  0
 16 15  2  0
 18 17  1  1
 18 19  1  0
 18 20  1  0
 20 22  1  0
 21 20  2  0
M  END
$$$$
