VQA.pdb
     RDKit          3D

 22 21  0  0  1  0  0  0  0  0999 V2000
   19.4599  -12.2342  -18.1042 C   0  0  0  0  0  0  0  0  0  0  0  0
   19.2335  -13.0829  -16.8523 C   0  0  2  0  0  0  0  0  0  0  0  0
   18.3139  -14.2158  -17.2634 C   0  0  0  0  0  0  0  0  0  0  0  0
   18.5060  -12.1916  -15.8688 C   0  0  2  0  0  0  0  0  0  0  0  0
   17.2471  -11.8208  -16.4363 N   0  0  0  0  0  0  0  0  0  0  0  0
   19.3360  -10.9968  -15.5108 C   0  0  0  0  0  0  0  0  0  0  0  0
   20.4153  -11.1874  -14.8943 O   0  0  0  0  0  0  0  0  0  0  0  0
   22.0909   -7.5245  -18.5279 N   0  0  0  0  0  0  0  0  0  0  0  0
   22.4817   -6.9270  -17.2898 C   0  0  0  0  0  0  0  0  0  0  0  0
   23.2380   -5.9094  -17.3903 O   0  0  0  0  0  0  0  0  0  0  0  0
   22.0326   -7.4617  -15.9793 C   0  0  0  0  0  0  0  0  0  0  0  0
   21.1445   -8.6485  -16.2613 C   0  0  0  0  0  0  0  0  0  0  0  0
   19.8065   -8.5210  -15.5375 C   0  0  2  0  0  0  0  0  0  0  0  0
   18.9697   -9.6750  -15.8288 N   0  0  0  0  0  0  0  0  0  0  0  0
   19.0837   -7.3167  -16.0147 C   0  0  0  0  0  0  0  0  0  0  0  0
   18.7320   -7.1817  -17.2316 O   0  0  0  0  0  0  0  0  0  0  0  0
   16.7803   -4.8900  -14.8812 C   0  0  0  0  0  0  0  0  0  0  0  0
   18.1046   -5.0170  -15.6239 C   0  0  2  0  0  0  0  0  0  0  0  0
   18.7356   -6.2383  -15.1561 N   0  0  0  0  0  0  0  0  0  0  0  0
   18.9381   -3.8276  -15.3856 C   0  0  0  0  0  0  0  0  0  0  0  0
   20.0216   -3.8319  -14.7489 O   0  0  0  0  0  0  0  0  0  0  0  0
   18.4993   -2.6172  -15.8982 O   0  0  0  0  0  0  0  0  0  0  0  0
  2  1  1  6
  2  3  1  0
  4  2  1  0
  4  6  1  0
  4  5  1  6
  6  7  2  0
  6 14  1  0
  9  8  1  0
  9 11  1  0
 10  9  2  0
 12 11  1  0
 13 12  1  6
 14 13  1  0
 15 19  1  0
 15 13  1  0
 16 15  2  0
 18 17  1  1
 18 19  1  0
 18 20  1  0
 20 22  1  0
 21 20  2  0
M  END
$$$$
