VQA.pdb
     RDKit          3D

 22 21  0  0  1  0  0  0  0  0999 V2000
   23.3161  -19.9469  -18.2089 C   0  0  0  0  0  0  0  0  0  0  0  0
   24.1620  -18.7586  -17.7497 C   0  0  2  0  0  0  0  0  0  0  0  0
   24.6557  -18.0725  -19.0082 C   0  0  0  0  0  0  0  0  0  0  0  0
   25.3464  -19.3478  -17.0143 C   0  0  2  0  0  0  0  0  0  0  0  0
   26.1389  -20.0872  -17.9470 N   0  0  0  0  0  0  0  0  0  0  0  0
   24.8969  -20.1939  -15.8625 C   0  0  0  0  0  0  0  0  0  0  0  0
   24.9081  -21.4433  -16.0042 O   0  0  0  0  0  0  0  0  0  0  0  0
   26.4558  -21.3634  -11.1073 N   0  0  0  0  0  0  0  0  0  0  0  0
   25.1587  -21.4511  -10.5136 C   0  0  0  0  0  0  0  0  0  0  0  0
   25.0619  -22.2530   -9.5312 O   0  0  0  0  0  0  0  0  0  0  0  0
   24.0071  -20.6581  -11.0135 C   0  0  0  0  0  0  0  0  0  0  0  0
   24.4944  -19.8596  -12.1974 C   0  0  0  0  0  0  0  0  0  0  0  0
   24.0354  -20.4853  -13.5120 C   0  0  2  0  0  0  0  0  0  0  0  0
   24.4638  -19.6623  -14.6327 N   0  0  0  0  0  0  0  0  0  0  0  0
   22.5542  -20.5536  -13.5519 C   0  0  0  0  0  0  0  0  0  0  0  0
   21.8350  -19.5064  -13.6464 O   0  0  0  0  0  0  0  0  0  0  0  0
   20.0387  -23.2570  -14.0329 C   0  0  0  0  0  0  0  0  0  0  0  0
   20.3897  -21.8632  -13.5273 C   0  0  2  0  0  0  0  0  0  0  0  0
   21.8391  -21.7807  -13.4883 N   0  0  0  0  0  0  0  0  0  0  0  0
   19.7785  -21.6310  -12.2087 C   0  0  0  0  0  0  0  0  0  0  0  0
   20.4111  -21.6111  -11.1229 O   0  0  0  0  0  0  0  0  0  0  0  0
   18.4100  -21.4192  -12.1585 O   0  0  0  0  0  0  0  0  0  0  0  0
  2  1  1  6
  2  3  1  0
  4  2  1  0
  4  6  1  0
  4  5  1  6
  6  7  2  0
  6 14  1  0
  9  8  1  0
  9 11  1  0
 10  9  2  0
 12 11  1  0
 13 12  1  1
 14 13  1  0
 15 19  1  0
 15 13  1  0
 16 15  2  0
 18 17  1  1
 18 19  1  0
 18 20  1  0
 20 22  1  0
 21 20  2  0
M  END
$$$$
