VQA.pdb
     RDKit          3D

 22 21  0  0  1  0  0  0  0  0999 V2000
   17.2871  -11.5612  -16.0684 C   0  0  0  0  0  0  0  0  0  0  0  0
   18.1879  -12.3758  -16.9978 C   0  0  2  0  0  0  0  0  0  0  0  0
   18.2000  -13.7899  -16.4514 C   0  0  0  0  0  0  0  0  0  0  0  0
   19.5742  -11.7840  -16.8608 C   0  0  2  0  0  0  0  0  0  0  0  0
   20.0215  -11.9797  -15.5169 N   0  0  0  0  0  0  0  0  0  0  0  0
   19.5821  -10.3378  -17.2518 C   0  0  0  0  0  0  0  0  0  0  0  0
   19.3844  -10.0486  -18.4595 O   0  0  0  0  0  0  0  0  0  0  0  0
   15.9354   -6.1775  -16.1865 N   0  0  0  0  0  0  0  0  0  0  0  0
   16.5329   -6.8259  -15.0616 C   0  0  0  0  0  0  0  0  0  0  0  0
   15.8801   -6.7411  -13.9734 O   0  0  0  0  0  0  0  0  0  0  0  0
   17.8268   -7.5474  -15.1625 C   0  0  0  0  0  0  0  0  0  0  0  0
   18.3494   -7.3347  -16.5619 C   0  0  0  0  0  0  0  0  0  0  0  0
   19.7662   -7.8830  -16.7113 C   0  0  2  0  0  0  0  0  0  0  0  0
   19.7992   -9.2888  -16.3379 N   0  0  0  0  0  0  0  0  0  0  0  0
   20.6889   -7.1604  -15.8020 C   0  0  0  0  0  0  0  0  0  0  0  0
   20.9465   -7.5851  -14.6289 O   0  0  0  0  0  0  0  0  0  0  0  0
   22.8532   -4.0998  -16.1254 C   0  0  0  0  0  0  0  0  0  0  0  0
   22.3295   -5.2921  -15.3346 C   0  0  2  0  0  0  0  0  0  0  0  0
   21.3446   -5.9543  -16.1715 N   0  0  0  0  0  0  0  0  0  0  0  0
   21.7652   -4.8438  -14.0513 C   0  0  0  0  0  0  0  0  0  0  0  0
   22.4413   -4.6067  -13.0188 O   0  0  0  0  0  0  0  0  0  0  0  0
   20.3925   -4.6702  -13.9739 O   0  0  0  0  0  0  0  0  0  0  0  0
  2  1  1  1
  2  3  1  0
  4  2  1  0
  4  6  1  0
  4  5  1  1
  6  7  2  0
  6 14  1  0
  9  8  1  0
  9 11  1  0
 10  9  2  0
 12 11  1  0
 13 12  1  1
 14 13  1  0
 15 19  1  0
 15 13  1  0
 16 15  2  0
 18 17  1  6
 18 19  1  0
 18 20  1  0
 20 22  1  0
 21 20  2  0
M  END
$$$$
