VQA.pdb
     RDKit          3D

 22 21  0  0  1  0  0  0  0  0999 V2000
   27.9011  -20.2003  -10.5642 C   0  0  0  0  0  0  0  0  0  0  0  0
   28.2417  -21.2268  -11.6455 C   0  0  2  0  0  0  0  0  0  0  0  0
   29.6446  -21.7162  -11.3448 C   0  0  0  0  0  0  0  0  0  0  0  0
   28.2563  -20.4663  -12.9541 C   0  0  2  0  0  0  0  0  0  0  0  0
   29.3368  -19.5303  -12.9241 N   0  0  0  0  0  0  0  0  0  0  0  0
   26.9387  -19.7975  -13.2015 C   0  0  0  0  0  0  0  0  0  0  0  0
   26.6640  -18.7647  -12.5389 O   0  0  0  0  0  0  0  0  0  0  0  0
   24.2310  -18.7521  -18.4918 N   0  0  0  0  0  0  0  0  0  0  0  0
   23.2440  -18.2508  -17.5879 C   0  0  0  0  0  0  0  0  0  0  0  0
   22.3338  -17.5365  -18.1161 O   0  0  0  0  0  0  0  0  0  0  0  0
   23.2834  -18.5467  -16.1333 C   0  0  0  0  0  0  0  0  0  0  0  0
   24.5665  -19.2934  -15.8637 C   0  0  0  0  0  0  0  0  0  0  0  0
   24.7178  -19.6125  -14.3785 C   0  0  2  0  0  0  0  0  0  0  0  0
   25.9952  -20.2654  -14.1360 N   0  0  0  0  0  0  0  0  0  0  0  0
   23.6514  -20.5501  -13.9494 C   0  0  0  0  0  0  0  0  0  0  0  0
   23.7472  -21.8070  -14.1330 O   0  0  0  0  0  0  0  0  0  0  0  0
   20.5352  -20.2163  -11.8919 C   0  0  0  0  0  0  0  0  0  0  0  0
   21.4471  -21.0279  -12.8035 C   0  0  2  0  0  0  0  0  0  0  0  0
   22.4584  -20.1165  -13.3090 N   0  0  0  0  0  0  0  0  0  0  0  0
   20.6641  -21.6518  -13.8823 C   0  0  0  0  0  0  0  0  0  0  0  0
   20.6930  -21.2901  -15.0856 O   0  0  0  0  0  0  0  0  0  0  0  0
   19.8363  -22.7124  -13.5504 O   0  0  0  0  0  0  0  0  0  0  0  0
  2  1  1  1
  2  3  1  0
  4  2  1  0
  4  6  1  0
  4  5  1  1
  6  7  2  0
  6 14  1  0
  9  8  1  0
  9 11  1  0
 10  9  2  0
 12 11  1  0
 13 12  1  6
 14 13  1  0
 15 19  1  0
 15 13  1  0
 16 15  2  0
 18 17  1  1
 18 19  1  0
 18 20  1  0
 20 22  1  0
 21 20  2  0
M  END
$$$$
