VQA.pdb
     RDKit          3D

 22 21  0  0  1  0  0  0  0  0999 V2000
   16.1358  -10.9892  -17.3112 C   0  0  0  0  0  0  0  0  0  0  0  0
   16.9481  -11.9968  -16.4965 C   0  0  2  0  0  0  0  0  0  0  0  0
   15.9491  -12.9637  -15.8922 C   0  0  0  0  0  0  0  0  0  0  0  0
   17.6010  -11.2053  -15.3838 C   0  0  2  0  0  0  0  0  0  0  0  0
   16.5873  -10.7940  -14.4630 N   0  0  0  0  0  0  0  0  0  0  0  0
   18.3697  -10.0418  -15.9315 C   0  0  0  0  0  0  0  0  0  0  0  0
   19.3140  -10.2767  -16.7279 O   0  0  0  0  0  0  0  0  0  0  0  0
   15.2624   -6.6263  -17.5729 N   0  0  0  0  0  0  0  0  0  0  0  0
   16.2227   -6.9611  -18.5771 C   0  0  0  0  0  0  0  0  0  0  0  0
   15.7411   -7.2362  -19.7217 O   0  0  0  0  0  0  0  0  0  0  0  0
   17.6809   -6.9846  -18.2977 C   0  0  0  0  0  0  0  0  0  0  0  0
   17.8641   -6.6126  -16.8469 C   0  0  0  0  0  0  0  0  0  0  0  0
   18.8239   -7.5722  -16.1480 C   0  0  2  0  0  0  0  0  0  0  0  0
   18.0889   -8.7023  -15.6006 N   0  0  0  0  0  0  0  0  0  0  0  0
   19.4922   -6.8865  -15.0151 C   0  0  0  0  0  0  0  0  0  0  0  0
   18.8613   -6.5679  -13.9553 O   0  0  0  0  0  0  0  0  0  0  0  0
   22.9951   -6.1695  -13.9985 C   0  0  0  0  0  0  0  0  0  0  0  0
   21.5191   -5.7930  -13.9681 C   0  0  2  0  0  0  0  0  0  0  0  0
   20.8708   -6.5396  -15.0316 N   0  0  0  0  0  0  0  0  0  0  0  0
   21.3613   -4.3383  -14.1266 C   0  0  0  0  0  0  0  0  0  0  0  0
   21.6461   -3.4896  -13.2445 O   0  0  0  0  0  0  0  0  0  0  0  0
   20.8641   -3.8693  -15.3321 O   0  0  0  0  0  0  0  0  0  0  0  0
  2  1  1  6
  2  3  1  0
  4  2  1  0
  4  6  1  0
  4  5  1  1
  6  7  2  0
  6 14  1  0
  9  8  1  0
  9 11  1  0
 10  9  2  0
 12 11  1  0
 13 12  1  1
 14 13  1  0
 15 19  1  0
 15 13  1  0
 16 15  2  0
 18 17  1  6
 18 19  1  0
 18 20  1  0
 20 22  1  0
 21 20  2  0
M  END
$$$$
