VQA.pdb
     RDKit          3D

 22 21  0  0  1  0  0  0  0  0999 V2000
   18.1449  -13.9187  -16.2642 C   0  0  0  0  0  0  0  0  0  0  0  0
   18.6649  -13.7799  -17.6957 C   0  0  2  0  0  0  0  0  0  0  0  0
   19.3860  -15.0741  -18.0169 C   0  0  0  0  0  0  0  0  0  0  0  0
   19.6718  -12.6502  -17.6670 C   0  0  2  0  0  0  0  0  0  0  0  0
   20.7709  -13.0416  -16.8403 N   0  0  0  0  0  0  0  0  0  0  0  0
   19.0380  -11.3773  -17.1953 C   0  0  0  0  0  0  0  0  0  0  0  0
   18.0786  -10.9102  -17.8607 O   0  0  0  0  0  0  0  0  0  0  0  0
   17.0284   -9.2645  -11.9269 N   0  0  0  0  0  0  0  0  0  0  0  0
   16.2034   -9.2549  -13.0939 C   0  0  0  0  0  0  0  0  0  0  0  0
   14.9507   -9.2317  -12.8758 O   0  0  0  0  0  0  0  0  0  0  0  0
   16.7751   -9.2711  -14.4643 C   0  0  0  0  0  0  0  0  0  0  0  0
   18.2697   -9.4234  -14.3235 C   0  0  0  0  0  0  0  0  0  0  0  0
   18.9613   -9.3626  -15.6830 C   0  0  2  0  0  0  0  0  0  0  0  0
   19.4610  -10.6794  -16.0479 N   0  0  0  0  0  0  0  0  0  0  0  0
   20.1269   -8.4473  -15.6194 C   0  0  0  0  0  0  0  0  0  0  0  0
   21.1567   -8.7176  -14.9200 O   0  0  0  0  0  0  0  0  0  0  0  0
   21.0894   -5.2487  -17.3353 C   0  0  0  0  0  0  0  0  0  0  0  0
   21.2924   -6.2898  -16.2416 C   0  0  2  0  0  0  0  0  0  0  0  0
   20.1767   -7.2155  -16.3275 N   0  0  0  0  0  0  0  0  0  0  0  0
   21.3793   -5.6359  -14.9259 C   0  0  0  0  0  0  0  0  0  0  0  0
   20.4747   -5.6649  -14.0539 O   0  0  0  0  0  0  0  0  0  0  0  0
   22.5387   -4.9389  -14.6255 O   0  0  0  0  0  0  0  0  0  0  0  0
  2  1  1  1
  2  3  1  0
  4  2  1  0
  4  6  1  0
  4  5  1  1
  6  7  2  0
  6 14  1  0
  9  8  1  0
  9 11  1  0
 10  9  2  0
 12 11  1  0
 13 12  1  1
 14 13  1  0
 15 19  1  0
 15 13  1  0
 16 15  2  0
 18 17  1  6
 18 19  1  0
 18 20  1  0
 20 22  1  0
 21 20  2  0
M  END
$$$$
