VQA.pdb
     RDKit          3D

 22 21  0  0  1  0  0  0  0  0999 V2000
   17.6186  -12.1499  -16.9329 C   0  0  0  0  0  0  0  0  0  0  0  0
   18.8449  -12.7843  -17.5906 C   0  0  2  0  0  0  0  0  0  0  0  0
   18.9024  -14.2167  -17.0975 C   0  0  0  0  0  0  0  0  0  0  0  0
   20.0434  -12.0313  -17.0545 C   0  0  2  0  0  0  0  0  0  0  0  0
   20.1430  -12.2762  -15.6493 N   0  0  0  0  0  0  0  0  0  0  0  0
   19.9425  -10.5692  -17.3654 C   0  0  0  0  0  0  0  0  0  0  0  0
   19.7910  -10.2270  -18.5659 O   0  0  0  0  0  0  0  0  0  0  0  0
   16.1633   -6.5252  -16.4166 N   0  0  0  0  0  0  0  0  0  0  0  0
   16.6910   -7.1839  -15.2633 C   0  0  0  0  0  0  0  0  0  0  0  0
   15.9315   -7.1889  -14.2431 O   0  0  0  0  0  0  0  0  0  0  0  0
   18.0342   -7.8171  -15.2619 C   0  0  0  0  0  0  0  0  0  0  0  0
   18.6635   -7.5334  -16.6035 C   0  0  0  0  0  0  0  0  0  0  0  0
   20.0605   -8.1418  -16.6977 C   0  0  2  0  0  0  0  0  0  0  0  0
   20.0084   -9.5616  -16.3841 N   0  0  0  0  0  0  0  0  0  0  0  0
   20.9610   -7.5013  -15.7082 C   0  0  0  0  0  0  0  0  0  0  0  0
   21.1157   -7.9734  -14.5352 O   0  0  0  0  0  0  0  0  0  0  0  0
   23.3181   -4.5713  -15.7857 C   0  0  0  0  0  0  0  0  0  0  0  0
   22.6209   -5.7090  -15.0503 C   0  0  2  0  0  0  0  0  0  0  0  0
   21.7082   -6.3265  -15.9961 N   0  0  0  0  0  0  0  0  0  0  0  0
   21.9297   -5.1957  -13.8566 C   0  0  0  0  0  0  0  0  0  0  0  0
   20.7245   -4.8404  -13.8277 O   0  0  0  0  0  0  0  0  0  0  0  0
   22.6568   -5.0962  -12.6811 O   0  0  0  0  0  0  0  0  0  0  0  0
  2  1  1  1
  2  3  1  0
  4  2  1  0
  4  6  1  0
  4  5  1  1
  6  7  2  0
  6 14  1  0
  9  8  1  0
  9 11  1  0
 10  9  2  0
 12 11  1  0
 13 12  1  1
 14 13  1  0
 15 19  1  0
 15 13  1  0
 16 15  2  0
 18 17  1  6
 18 19  1  0
 18 20  1  0
 20 22  1  0
 21 20  2  0
M  END
$$$$
