VQA.pdb
     RDKit          3D

 22 21  0  0  1  0  0  0  0  0999 V2000
   17.3280  -13.7408  -16.2804 C   0  0  0  0  0  0  0  0  0  0  0  0
   18.3492  -14.0363  -17.3798 C   0  0  2  0  0  0  0  0  0  0  0  0
   18.7699  -15.4811  -17.1965 C   0  0  0  0  0  0  0  0  0  0  0  0
   19.5359  -13.1395  -17.1001 C   0  0  2  0  0  0  0  0  0  0  0  0
   20.0868  -13.4971  -15.8300 N   0  0  0  0  0  0  0  0  0  0  0  0
   19.1429  -11.6949  -17.1567 C   0  0  0  0  0  0  0  0  0  0  0  0
   18.7313  -11.2345  -18.2521 O   0  0  0  0  0  0  0  0  0  0  0  0
   15.3263   -8.9692  -13.7654 N   0  0  0  0  0  0  0  0  0  0  0  0
   15.1702   -9.4707  -15.0946 C   0  0  0  0  0  0  0  0  0  0  0  0
   13.9743   -9.7258  -15.4441 O   0  0  0  0  0  0  0  0  0  0  0  0
   16.3283   -9.6777  -16.0008 C   0  0  0  0  0  0  0  0  0  0  0  0
   17.5597   -9.2060  -15.2674 C   0  0  0  0  0  0  0  0  0  0  0  0
   18.8185   -9.4290  -16.1019 C   0  0  2  0  0  0  0  0  0  0  0  0
   19.2109  -10.8290  -16.0484 N   0  0  0  0  0  0  0  0  0  0  0  0
   19.9412   -8.6318  -15.5503 C   0  0  0  0  0  0  0  0  0  0  0  0
   20.5494   -8.9744  -14.4847 O   0  0  0  0  0  0  0  0  0  0  0  0
   21.8895   -5.6399  -16.7102 C   0  0  0  0  0  0  0  0  0  0  0  0
   21.5024   -6.6427  -15.6304 C   0  0  2  0  0  0  0  0  0  0  0  0
   20.4134   -7.4404  -16.1658 N   0  0  0  0  0  0  0  0  0  0  0  0
   21.1275   -5.9394  -14.3931 C   0  0  0  0  0  0  0  0  0  0  0  0
   19.9455   -5.7069  -14.0350 O   0  0  0  0  0  0  0  0  0  0  0  0
   22.1476   -5.5020  -13.5634 O   0  0  0  0  0  0  0  0  0  0  0  0
  2  1  1  1
  2  3  1  0
  4  2  1  0
  4  6  1  0
  4  5  1  1
  6  7  2  0
  6 14  1  0
  9  8  1  0
  9 11  1  0
 10  9  2  0
 12 11  1  0
 13 12  1  1
 14 13  1  0
 15 19  1  0
 15 13  1  0
 16 15  2  0
 18 17  1  6
 18 19  1  0
 18 20  1  0
 20 22  1  0
 21 20  2  0
M  END
$$$$
