VQA.pdb
     RDKit          3D

 22 21  0  0  1  0  0  0  0  0999 V2000
   21.9339  -10.5642  -15.8096 C   0  0  0  0  0  0  0  0  0  0  0  0
   21.0599  -11.0583  -16.9632 C   0  0  2  0  0  0  0  0  0  0  0  0
   21.9344  -11.9670  -17.8043 C   0  0  0  0  0  0  0  0  0  0  0  0
   20.7041   -9.8305  -17.7737 C   0  0  2  0  0  0  0  0  0  0  0  0
   21.8939   -9.3325  -18.3908 N   0  0  0  0  0  0  0  0  0  0  0  0
   20.0383   -8.7963  -16.9183 C   0  0  0  0  0  0  0  0  0  0  0  0
   18.9445   -9.0921  -16.3731 O   0  0  0  0  0  0  0  0  0  0  0  0
   22.1011   -5.6657  -12.3207 N   0  0  0  0  0  0  0  0  0  0  0  0
   21.1721   -6.7510  -12.2784 C   0  0  0  0  0  0  0  0  0  0  0  0
   21.0954   -7.3599  -11.1644 O   0  0  0  0  0  0  0  0  0  0  0  0
   20.3554   -7.1367  -13.4571 C   0  0  0  0  0  0  0  0  0  0  0  0
   20.7892   -6.2617  -14.6072 C   0  0  0  0  0  0  0  0  0  0  0  0
   19.9364   -6.5172  -15.8474 C   0  0  2  0  0  0  0  0  0  0  0  0
   20.5738   -7.5135  -16.6946 N   0  0  0  0  0  0  0  0  0  0  0  0
   19.8119   -5.2717  -16.6433 C   0  0  0  0  0  0  0  0  0  0  0  0
   20.7572   -4.8511  -17.3864 O   0  0  0  0  0  0  0  0  0  0  0  0
   17.0477   -2.8749  -17.4380 C   0  0  0  0  0  0  0  0  0  0  0  0
   18.5322   -3.2046  -17.3433 C   0  0  2  0  0  0  0  0  0  0  0  0
   18.6399   -4.4668  -16.6333 N   0  0  0  0  0  0  0  0  0  0  0  0
   19.2533   -2.1156  -16.6649 C   0  0  0  0  0  0  0  0  0  0  0  0
   19.4401   -0.9721  -17.1517 O   0  0  0  0  0  0  0  0  0  0  0  0
   19.7629   -2.3665  -15.4009 O   0  0  0  0  0  0  0  0  0  0  0  0
  2  1  1  1
  2  3  1  0
  4  2  1  0
  4  6  1  0
  4  5  1  1
  6  7  2  0
  6 14  1  0
  9  8  1  0
  9 11  1  0
 10  9  2  0
 12 11  1  0
 13 12  1  1
 14 13  1  0
 15 19  1  0
 15 13  1  0
 16 15  2  0
 18 17  1  1
 18 19  1  0
 18 20  1  0
 20 22  1  0
 21 20  2  0
M  END
$$$$
