VQA.pdb
     RDKit          3D

 22 21  0  0  1  0  0  0  0  0999 V2000
   17.0977  -10.6178  -19.8607 C   0  0  0  0  0  0  0  0  0  0  0  0
   16.9404   -9.6464  -18.6900 C   0  0  2  0  0  0  0  0  0  0  0  0
   16.9941   -8.2513  -19.2808 C   0  0  0  0  0  0  0  0  0  0  0  0
   18.1533   -9.8539  -17.8087 C   0  0  2  0  0  0  0  0  0  0  0  0
   18.0802  -11.1616  -17.2350 N   0  0  0  0  0  0  0  0  0  0  0  0
   18.2470   -8.7850  -16.7631 C   0  0  0  0  0  0  0  0  0  0  0  0
   17.4259   -8.8126  -15.8112 O   0  0  0  0  0  0  0  0  0  0  0  0
   23.1407   -6.1487  -14.2853 N   0  0  0  0  0  0  0  0  0  0  0  0
   22.1325   -5.2313  -13.8556 C   0  0  0  0  0  0  0  0  0  0  0  0
   22.5290   -4.3154  -13.0672 O   0  0  0  0  0  0  0  0  0  0  0  0
   20.7207   -5.3447  -14.3020 C   0  0  0  0  0  0  0  0  0  0  0  0
   20.6573   -6.4730  -15.3017 C   0  0  0  0  0  0  0  0  0  0  0  0
   19.2374   -6.6640  -15.8291 C   0  0  2  0  0  0  0  0  0  0  0  0
   19.2054   -7.7538  -16.7924 N   0  0  0  0  0  0  0  0  0  0  0  0
   18.7873   -5.4374  -16.5313 C   0  0  0  0  0  0  0  0  0  0  0  0
   18.7353   -5.3709  -17.8024 O   0  0  0  0  0  0  0  0  0  0  0  0
   16.7560   -3.4986  -17.4170 C   0  0  0  0  0  0  0  0  0  0  0  0
   17.9049   -3.0664  -16.5145 C   0  0  2  0  0  0  0  0  0  0  0  0
   18.3859   -4.2604  -15.8422 N   0  0  0  0  0  0  0  0  0  0  0  0
   17.4492   -2.0348  -15.5688 C   0  0  0  0  0  0  0  0  0  0  0  0
   17.1228   -2.2554  -14.3754 O   0  0  0  0  0  0  0  0  0  0  0  0
   17.3740   -0.7281  -16.0241 O   0  0  0  0  0  0  0  0  0  0  0  0
  2  1  1  6
  2  3  1  0
  4  2  1  0
  4  6  1  0
  4  5  1  1
  6  7  2  0
  6 14  1  0
  9  8  1  0
  9 11  1  0
 10  9  2  0
 12 11  1  0
 13 12  1  6
 14 13  1  0
 15 19  1  0
 15 13  1  0
 16 15  2  0
 18 17  1  6
 18 19  1  0
 18 20  1  0
 20 22  1  0
 21 20  2  0
M  END
$$$$
