DGM.pdb
     RDKit          3D

 21 20  0  0  1  0  0  0  0  0999 V2000
    9.0646  -18.3776   18.6881 N   0  0  0  0  0  0  0  0  0  0  0  0
    8.6816  -17.0243   18.4864 C   0  0  1  0  0  0  0  0  0  0  0  0
    7.6056  -17.0118   17.3879 C   0  0  0  0  0  0  0  0  0  0  0  0
    8.2978  -17.2297   16.0841 C   0  0  0  0  0  0  0  0  0  0  0  0
    8.5255  -18.3917   15.6557 O   0  0  0  0  0  0  0  0  0  0  0  0
    8.1198  -16.4636   19.7469 C   0  0  0  0  0  0  0  0  0  0  0  0
    8.1068  -15.2183   19.9142 O   0  0  0  0  0  0  0  0  0  0  0  0
    8.6840  -16.1390   15.3560 O   0  0  0  0  0  0  0  0  0  0  0  0
    7.6104  -17.3464   20.7323 N   0  0  0  0  0  0  0  0  0  0  0  0
    7.0327  -16.7714   21.9277 C   0  0  0  0  0  0  0  0  0  0  0  0
    8.1404  -16.4456   22.8872 C   0  0  0  0  0  0  0  0  0  0  0  0
    9.2589  -16.8870   22.6629 O   0  0  0  0  0  0  0  0  0  0  0  0
    6.1527  -10.6162   26.5141 C   0  0  0  0  0  0  0  0  0  0  0  0
    6.3543  -12.3715   26.9364 S   0  0  0  0  0  0  0  0  0  0  0  0
    7.6215  -13.0644   25.8756 C   0  0  0  0  0  0  0  0  0  0  0  0
    7.8701  -14.4975   26.1388 C   0  0  0  0  0  0  0  0  0  0  0  0
    8.6224  -15.2237   25.0754 C   0  0  2  0  0  0  0  0  0  0  0  0
    7.8359  -15.6468   24.0007 N   0  0  0  0  0  0  0  0  0  0  0  0
    9.5563  -16.2206   25.6888 C   0  0  0  0  0  0  0  0  0  0  0  0
   10.7260  -16.0729   26.0035 O   0  0  0  0  0  0  0  0  0  0  0  0
    9.0130  -17.5097   25.9382 O   0  0  0  0  0  0  0  0  0  0  0  0
  2  3  1  0
  2  1  1  1
  3  4  1  0
  4  5  2  0
  4  8  1  0
  6  2  1  0
  7  6  2  0
  9  6  1  0
 10 11  1  0
 10  9  1  0
 11 18  1  0
 12 11  2  0
 13 14  1  0
 14 15  1  0
 15 16  1  0
 17 16  1  1
 18 17  1  0
 19 17  1  0
 20 19  2  0
 21 19  1  0
M  END
$$$$
