DGM.pdb
     RDKit          3D

 21 20  0  0  1  0  0  0  0  0999 V2000
    9.3924  -16.9112   19.2031 N   0  0  0  0  0  0  0  0  0  0  0  0
    8.0813  -16.3641   19.2286 C   0  0  1  0  0  0  0  0  0  0  0  0
    7.1789  -17.2990   18.4064 C   0  0  0  0  0  0  0  0  0  0  0  0
    8.0679  -18.1312   17.5440 C   0  0  0  0  0  0  0  0  0  0  0  0
    9.2903  -18.2689   17.8129 O   0  0  0  0  0  0  0  0  0  0  0  0
    7.5883  -16.2959   20.6326 C   0  0  0  0  0  0  0  0  0  0  0  0
    6.4969  -15.7219   20.8741 O   0  0  0  0  0  0  0  0  0  0  0  0
    7.5299  -18.7467   16.4483 O   0  0  0  0  0  0  0  0  0  0  0  0
    8.3600  -16.8806   21.6680 N   0  0  0  0  0  0  0  0  0  0  0  0
    7.8174  -16.8713   23.0092 C   0  0  0  0  0  0  0  0  0  0  0  0
    8.7702  -16.1368   23.9074 C   0  0  0  0  0  0  0  0  0  0  0  0
    9.8788  -15.8508   23.4771 O   0  0  0  0  0  0  0  0  0  0  0  0
    5.9589  -10.6704   25.7170 C   0  0  0  0  0  0  0  0  0  0  0  0
    6.4326  -11.9962   26.8650 S   0  0  0  0  0  0  0  0  0  0  0  0
    7.6381  -13.0426   26.0507 C   0  0  0  0  0  0  0  0  0  0  0  0
    8.1533  -14.1149   26.9281 C   0  0  0  0  0  0  0  0  0  0  0  0
    8.9845  -15.1525   26.2523 C   0  0  2  0  0  0  0  0  0  0  0  0
    8.3394  -15.8137   25.2039 N   0  0  0  0  0  0  0  0  0  0  0  0
    9.6975  -15.9896   27.2688 C   0  0  0  0  0  0  0  0  0  0  0  0
   10.5104  -15.6378   28.1080 O   0  0  0  0  0  0  0  0  0  0  0  0
    9.3901  -17.3769   27.2574 O   0  0  0  0  0  0  0  0  0  0  0  0
  2  3  1  0
  2  1  1  1
  3  4  1  0
  4  5  2  0
  4  8  1  0
  6  2  1  0
  7  6  2  0
  9  6  1  0
 10 11  1  0
 10  9  1  0
 11 18  1  0
 12 11  2  0
 13 14  1  0
 14 15  1  0
 15 16  1  0
 17 16  1  1
 18 17  1  0
 19 17  1  0
 20 19  2  0
 21 19  1  0
M  END
$$$$
