DGM.pdb
     RDKit          3D

 21 20  0  0  1  0  0  0  0  0999 V2000
    7.7393  -17.3905   20.0990 N   0  0  0  0  0  0  0  0  0  0  0  0
    8.8528  -17.7846   19.3092 C   0  0  1  0  0  0  0  0  0  0  0  0
    8.6442  -17.2030   17.9011 C   0  0  0  0  0  0  0  0  0  0  0  0
    7.6756  -18.0895   17.1922 C   0  0  0  0  0  0  0  0  0  0  0  0
    7.5797  -19.3109   17.4831 O   0  0  0  0  0  0  0  0  0  0  0  0
   10.1086  -17.2404   19.8971 C   0  0  0  0  0  0  0  0  0  0  0  0
   11.1715  -17.2870   19.2284 O   0  0  0  0  0  0  0  0  0  0  0  0
    6.8877  -17.5503   16.2137 O   0  0  0  0  0  0  0  0  0  0  0  0
   10.0792  -16.6800   21.1989 N   0  0  0  0  0  0  0  0  0  0  0  0
   11.3211  -16.1909   21.7574 C   0  0  0  0  0  0  0  0  0  0  0  0
   11.0556  -15.6801   23.1439 C   0  0  0  0  0  0  0  0  0  0  0  0
   11.9970  -15.2661   23.8062 O   0  0  0  0  0  0  0  0  0  0  0  0
    5.5445  -11.8348   26.8801 C   0  0  0  0  0  0  0  0  0  0  0  0
    6.9824  -11.9583   25.7768 S   0  0  0  0  0  0  0  0  0  0  0  0
    7.6899  -13.5952   25.9544 C   0  0  0  0  0  0  0  0  0  0  0  0
    8.2275  -14.1290   24.6851 C   0  0  0  0  0  0  0  0  0  0  0  0
    9.1754  -15.2723   24.8207 C   0  0  2  0  0  0  0  0  0  0  0  0
    9.7332  -15.7038   23.6144 N   0  0  0  0  0  0  0  0  0  0  0  0
    8.6066  -16.3125   25.7355 C   0  0  0  0  0  0  0  0  0  0  0  0
    7.9913  -17.3254   25.4453 O   0  0  0  0  0  0  0  0  0  0  0  0
    8.8071  -16.0945   27.1253 O   0  0  0  0  0  0  0  0  0  0  0  0
  2  3  1  0
  2  1  1  1
  3  4  1  0
  4  5  2  0
  4  8  1  0
  6  2  1  0
  7  6  2  0
  9  6  1  0
 10 11  1  0
 10  9  1  0
 11 18  1  0
 12 11  2  0
 13 14  1  0
 14 15  1  0
 15 16  1  0
 17 16  1  6
 18 17  1  0
 19 17  1  0
 20 19  2  0
 21 19  1  0
M  END
$$$$
