DGM.pdb
     RDKit          3D

 21 20  0  0  1  0  0  0  0  0999 V2000
   10.3389  -17.6511   18.9716 N   0  0  0  0  0  0  0  0  0  0  0  0
    9.0698  -18.1933   18.6336 C   0  0  1  0  0  0  0  0  0  0  0  0
    9.1542  -19.7156   18.8334 C   0  0  0  0  0  0  0  0  0  0  0  0
   10.0719  -20.2520   17.7862 C   0  0  0  0  0  0  0  0  0  0  0  0
   10.2021  -19.6707   16.6769 O   0  0  0  0  0  0  0  0  0  0  0  0
    8.0223  -17.6261   19.5280 C   0  0  0  0  0  0  0  0  0  0  0  0
    6.8218  -17.9542   19.3547 O   0  0  0  0  0  0  0  0  0  0  0  0
   10.7749  -21.3939   18.0524 O   0  0  0  0  0  0  0  0  0  0  0  0
    8.4011  -16.7280   20.5574 N   0  0  0  0  0  0  0  0  0  0  0  0
    7.3848  -16.2978   21.4930 C   0  0  0  0  0  0  0  0  0  0  0  0
    7.9981  -15.3178   22.4508 C   0  0  0  0  0  0  0  0  0  0  0  0
    8.2562  -14.1909   22.0512 O   0  0  0  0  0  0  0  0  0  0  0  0
    6.7119  -10.7205   27.5764 C   0  0  0  0  0  0  0  0  0  0  0  0
    6.4139  -11.7692   26.1233 S   0  0  0  0  0  0  0  0  0  0  0  0
    7.0984  -13.3927   26.4501 C   0  0  0  0  0  0  0  0  0  0  0  0
    7.0283  -14.2917   25.2788 C   0  0  0  0  0  0  0  0  0  0  0  0
    8.2786  -15.0448   24.9727 C   0  0  2  0  0  0  0  0  0  0  0  0
    8.2471  -15.7458   23.7644 N   0  0  0  0  0  0  0  0  0  0  0  0
    8.7547  -15.7766   26.1893 C   0  0  0  0  0  0  0  0  0  0  0  0
    8.5971  -16.9512   26.4799 O   0  0  0  0  0  0  0  0  0  0  0  0
    9.4860  -15.0050   27.1322 O   0  0  0  0  0  0  0  0  0  0  0  0
  2  3  1  0
  2  1  1  1
  3  4  1  0
  4  5  2  0
  4  8  1  0
  6  2  1  0
  7  6  2  0
  9  6  1  0
 10 11  1  0
 10  9  1  0
 11 18  1  0
 12 11  2  0
 13 14  1  0
 14 15  1  0
 15 16  1  0
 17 16  1  1
 18 17  1  0
 19 17  1  0
 20 19  2  0
 21 19  1  0
M  END
$$$$
