DGM.pdb
     RDKit          3D

 21 20  0  0  1  0  0  0  0  0999 V2000
   10.9058  -18.8539   19.6630 N   0  0  0  0  0  0  0  0  0  0  0  0
   10.3292  -17.7637   18.9575 C   0  0  1  0  0  0  0  0  0  0  0  0
    9.6820  -18.3332   17.6842 C   0  0  0  0  0  0  0  0  0  0  0  0
   10.7595  -18.4739   16.6616 C   0  0  0  0  0  0  0  0  0  0  0  0
   11.6567  -19.3495   16.7796 O   0  0  0  0  0  0  0  0  0  0  0  0
    9.2900  -17.1082   19.7997 C   0  0  0  0  0  0  0  0  0  0  0  0
    8.7389  -16.0562   19.3891 O   0  0  0  0  0  0  0  0  0  0  0  0
   10.7573  -17.6302   15.5860 O   0  0  0  0  0  0  0  0  0  0  0  0
    8.9432  -17.6848   21.0475 N   0  0  0  0  0  0  0  0  0  0  0  0
    7.9257  -17.0297   21.8405 C   0  0  0  0  0  0  0  0  0  0  0  0
    8.5893  -16.3374   22.9957 C   0  0  0  0  0  0  0  0  0  0  0  0
    9.7768  -16.5467   23.2006 O   0  0  0  0  0  0  0  0  0  0  0  0
    6.6879  -10.3954   25.8825 C   0  0  0  0  0  0  0  0  0  0  0  0
    6.1678  -11.7815   26.9352 S   0  0  0  0  0  0  0  0  0  0  0  0
    7.3077  -13.1406   26.6811 C   0  0  0  0  0  0  0  0  0  0  0  0
    6.9961  -13.9330   25.4727 C   0  0  0  0  0  0  0  0  0  0  0  0
    8.0950  -14.8143   24.9829 C   0  0  2  0  0  0  0  0  0  0  0  0
    7.8094  -15.4804   23.7882 N   0  0  0  0  0  0  0  0  0  0  0  0
    8.6556  -15.6216   26.1126 C   0  0  0  0  0  0  0  0  0  0  0  0
    8.3023  -16.7196   26.5108 O   0  0  0  0  0  0  0  0  0  0  0  0
    9.7418  -15.0350   26.8166 O   0  0  0  0  0  0  0  0  0  0  0  0
  2  3  1  0
  2  1  1  1
  3  4  1  0
  4  5  2  0
  4  8  1  0
  6  2  1  0
  7  6  2  0
  9  6  1  0
 10 11  1  0
 10  9  1  0
 11 18  1  0
 12 11  2  0
 13 14  1  0
 14 15  1  0
 15 16  1  0
 17 16  1  1
 18 17  1  0
 19 17  1  0
 20 19  2  0
 21 19  1  0
M  END
$$$$
