DGM.pdb
     RDKit          3D

 21 20  0  0  1  0  0  0  0  0999 V2000
    7.0896  -19.5141   22.3736 N   0  0  0  0  0  0  0  0  0  0  0  0
    6.7844  -18.7380   21.2232 C   0  0  1  0  0  0  0  0  0  0  0  0
    5.3677  -18.1720   21.4153 C   0  0  0  0  0  0  0  0  0  0  0  0
    4.4334  -19.3318   21.5069 C   0  0  0  0  0  0  0  0  0  0  0  0
    4.8495  -20.4779   21.8212 O   0  0  0  0  0  0  0  0  0  0  0  0
    7.7595  -17.6193   21.0938 C   0  0  0  0  0  0  0  0  0  0  0  0
    7.6151  -16.7812   20.1687 O   0  0  0  0  0  0  0  0  0  0  0  0
    3.1077  -19.1288   21.2419 O   0  0  0  0  0  0  0  0  0  0  0  0
    8.8306  -17.5223   22.0174 N   0  0  0  0  0  0  0  0  0  0  0  0
    9.7351  -16.3997   21.8950 C   0  0  0  0  0  0  0  0  0  0  0  0
    9.8060  -15.6939   23.2181 C   0  0  0  0  0  0  0  0  0  0  0  0
   10.6688  -14.8427   23.3828 O   0  0  0  0  0  0  0  0  0  0  0  0
    6.6805  -10.9418   26.2525 C   0  0  0  0  0  0  0  0  0  0  0  0
    6.5802  -12.6759   26.7844 S   0  0  0  0  0  0  0  0  0  0  0  0
    7.5420  -13.6710   25.6460 C   0  0  0  0  0  0  0  0  0  0  0  0
    7.6432  -15.0852   26.0641 C   0  0  0  0  0  0  0  0  0  0  0  0
    8.8542  -15.8109   25.5832 C   0  0  2  0  0  0  0  0  0  0  0  0
    8.8741  -16.0483   24.2063 N   0  0  0  0  0  0  0  0  0  0  0  0
    9.1659  -16.9596   26.4918 C   0  0  0  0  0  0  0  0  0  0  0  0
    9.5411  -16.9304   27.6526 O   0  0  0  0  0  0  0  0  0  0  0  0
    9.0056  -18.2559   25.9322 O   0  0  0  0  0  0  0  0  0  0  0  0
  2  3  1  0
  2  1  1  1
  3  4  1  0
  4  5  2  0
  4  8  1  0
  6  2  1  0
  7  6  2  0
  9  6  1  0
 10 11  1  0
 10  9  1  0
 11 18  1  0
 12 11  2  0
 13 14  1  0
 14 15  1  0
 15 16  1  0
 17 16  1  1
 18 17  1  0
 19 17  1  0
 20 19  2  0
 21 19  1  0
M  END
$$$$
