DGM.pdb
     RDKit          3D

 21 20  0  0  1  0  0  0  0  0999 V2000
   10.1565  -18.6387   19.4765 N   0  0  0  0  0  0  0  0  0  0  0  0
    9.8659  -17.2630   19.2718 C   0  0  1  0  0  0  0  0  0  0  0  0
    8.9258  -17.1691   18.0586 C   0  0  0  0  0  0  0  0  0  0  0  0
    9.7091  -17.5767   16.8557 C   0  0  0  0  0  0  0  0  0  0  0  0
   10.6632  -16.8723   16.4325 O   0  0  0  0  0  0  0  0  0  0  0  0
    9.1905  -16.7035   20.4758 C   0  0  0  0  0  0  0  0  0  0  0  0
    9.0223  -15.4615   20.5654 O   0  0  0  0  0  0  0  0  0  0  0  0
    9.3717  -18.7362   16.2151 O   0  0  0  0  0  0  0  0  0  0  0  0
    8.7502  -17.5838   21.4961 N   0  0  0  0  0  0  0  0  0  0  0  0
    7.9719  -17.0305   22.5831 C   0  0  0  0  0  0  0  0  0  0  0  0
    8.9128  -16.4946   23.6230 C   0  0  0  0  0  0  0  0  0  0  0  0
   10.1145  -16.6623   23.4682 O   0  0  0  0  0  0  0  0  0  0  0  0
    5.9049  -10.7956   25.4081 C   0  0  0  0  0  0  0  0  0  0  0  0
    6.3441  -12.1768   26.5032 S   0  0  0  0  0  0  0  0  0  0  0  0
    7.6269  -13.1417   25.7064 C   0  0  0  0  0  0  0  0  0  0  0  0
    8.1268  -14.2440   26.5550 C   0  0  0  0  0  0  0  0  0  0  0  0
    8.9643  -15.2615   25.8568 C   0  0  2  0  0  0  0  0  0  0  0  0
    8.3638  -15.8249   24.7279 N   0  0  0  0  0  0  0  0  0  0  0  0
    9.5869  -16.1921   26.8512 C   0  0  0  0  0  0  0  0  0  0  0  0
   10.3245  -15.9235   27.7854 O   0  0  0  0  0  0  0  0  0  0  0  0
    9.2816  -17.5704   26.6883 O   0  0  0  0  0  0  0  0  0  0  0  0
  2  3  1  0
  2  1  1  1
  3  4  1  0
  4  5  2  0
  4  8  1  0
  6  2  1  0
  7  6  2  0
  9  6  1  0
 10 11  1  0
 10  9  1  0
 11 18  1  0
 12 11  2  0
 13 14  1  0
 14 15  1  0
 15 16  1  0
 17 16  1  1
 18 17  1  0
 19 17  1  0
 20 19  2  0
 21 19  1  0
M  END
$$$$
