DGM.pdb
     RDKit          3D

 21 20  0  0  1  0  0  0  0  0999 V2000
    9.1778  -19.0209   20.1776 N   0  0  0  0  0  0  0  0  0  0  0  0
   10.2431  -18.3554   19.5135 C   0  0  1  0  0  0  0  0  0  0  0  0
    9.9412  -18.3982   18.0064 C   0  0  0  0  0  0  0  0  0  0  0  0
   10.7654  -19.4942   17.4181 C   0  0  0  0  0  0  0  0  0  0  0  0
   11.5420  -20.1792   18.1345 O   0  0  0  0  0  0  0  0  0  0  0  0
   10.3195  -16.9398   19.9710 C   0  0  0  0  0  0  0  0  0  0  0  0
   11.2664  -16.2153   19.5744 O   0  0  0  0  0  0  0  0  0  0  0  0
   10.6634  -19.7447   16.0781 O   0  0  0  0  0  0  0  0  0  0  0  0
    9.3216  -16.4382   20.8441 N   0  0  0  0  0  0  0  0  0  0  0  0
    9.5493  -15.1545   21.4716 C   0  0  0  0  0  0  0  0  0  0  0  0
    9.3291  -15.2970   22.9498 C   0  0  0  0  0  0  0  0  0  0  0  0
    9.9889  -16.1241   23.5636 O   0  0  0  0  0  0  0  0  0  0  0  0
    7.4524  -11.9694   28.5994 C   0  0  0  0  0  0  0  0  0  0  0  0
    6.4127  -11.8403   27.1153 S   0  0  0  0  0  0  0  0  0  0  0  0
    6.1809  -13.4860   26.4449 C   0  0  0  0  0  0  0  0  0  0  0  0
    6.6621  -13.6118   25.0529 C   0  0  0  0  0  0  0  0  0  0  0  0
    7.9142  -14.4025   24.8763 C   0  0  2  0  0  0  0  0  0  0  0  0
    8.3711  -14.4701   23.5575 N   0  0  0  0  0  0  0  0  0  0  0  0
    7.8342  -15.6813   25.6513 C   0  0  0  0  0  0  0  0  0  0  0  0
    7.1335  -16.6570   25.4374 O   0  0  0  0  0  0  0  0  0  0  0  0
    8.6843  -15.7744   26.7862 O   0  0  0  0  0  0  0  0  0  0  0  0
  2  3  1  0
  2  1  1  1
  3  4  1  0
  4  5  2  0
  4  8  1  0
  6  2  1  0
  7  6  2  0
  9  6  1  0
 10 11  1  0
 10  9  1  0
 11 18  1  0
 12 11  2  0
 13 14  1  0
 14 15  1  0
 15 16  1  0
 17 16  1  6
 18 17  1  0
 19 17  1  0
 20 19  2  0
 21 19  1  0
M  END
$$$$
