DGM.pdb
     RDKit          3D

 21 20  0  0  1  0  0  0  0  0999 V2000
    6.7284  -17.7233   20.3962 N   0  0  0  0  0  0  0  0  0  0  0  0
    7.9101  -17.3665   19.6925 C   0  0  1  0  0  0  0  0  0  0  0  0
    7.6254  -17.5565   18.1934 C   0  0  0  0  0  0  0  0  0  0  0  0
    7.6247  -19.0239   17.9227 C   0  0  0  0  0  0  0  0  0  0  0  0
    8.1969  -19.8289   18.7038 O   0  0  0  0  0  0  0  0  0  0  0  0
    8.2500  -15.9417   19.9632 C   0  0  0  0  0  0  0  0  0  0  0  0
    9.3535  -15.4871   19.5699 O   0  0  0  0  0  0  0  0  0  0  0  0
    6.9877  -19.4843   16.8042 O   0  0  0  0  0  0  0  0  0  0  0  0
    7.3213  -15.1270   20.6584 N   0  0  0  0  0  0  0  0  0  0  0  0
    7.6304  -13.7220   20.8123 C   0  0  0  0  0  0  0  0  0  0  0  0
    8.1641  -13.4968   22.1974 C   0  0  0  0  0  0  0  0  0  0  0  0
    8.7038  -12.4289   22.4511 O   0  0  0  0  0  0  0  0  0  0  0  0
    5.4733  -11.0199   26.7291 C   0  0  0  0  0  0  0  0  0  0  0  0
    6.6484  -12.3938   26.9062 S   0  0  0  0  0  0  0  0  0  0  0  0
    6.5553  -13.4085   25.4321 C   0  0  0  0  0  0  0  0  0  0  0  0
    7.4371  -14.5933   25.4940 C   0  0  0  0  0  0  0  0  0  0  0  0
    8.4942  -14.6614   24.4442 C   0  0  2  0  0  0  0  0  0  0  0  0
    8.0171  -14.5289   23.1375 N   0  0  0  0  0  0  0  0  0  0  0  0
    9.4372  -15.7890   24.7295 C   0  0  0  0  0  0  0  0  0  0  0  0
    9.6814  -16.7678   24.0430 O   0  0  0  0  0  0  0  0  0  0  0  0
   10.1420  -15.7133   25.9611 O   0  0  0  0  0  0  0  0  0  0  0  0
  2  3  1  0
  2  1  1  1
  3  4  1  0
  4  5  2  0
  4  8  1  0
  6  2  1  0
  7  6  2  0
  9  6  1  0
 10 11  1  0
 10  9  1  0
 11 18  1  0
 12 11  2  0
 13 14  1  0
 14 15  1  0
 15 16  1  0
 17 16  1  1
 18 17  1  0
 19 17  1  0
 20 19  2  0
 21 19  1  0
M  END
$$$$
