DGM.pdb
     RDKit          3D

 21 20  0  0  1  0  0  0  0  0999 V2000
    9.7662  -19.0517   19.7186 N   0  0  0  0  0  0  0  0  0  0  0  0
   10.0591  -17.7598   19.2048 C   0  0  1  0  0  0  0  0  0  0  0  0
    9.5574  -17.7203   17.7518 C   0  0  0  0  0  0  0  0  0  0  0  0
   10.6194  -18.3273   16.8972 C   0  0  0  0  0  0  0  0  0  0  0  0
   11.8048  -17.9044   16.9357 O   0  0  0  0  0  0  0  0  0  0  0  0
    9.3537  -16.7231   20.0087 C   0  0  0  0  0  0  0  0  0  0  0  0
    9.5336  -15.5087   19.7405 O   0  0  0  0  0  0  0  0  0  0  0  0
   10.2823  -19.3582   16.0651 O   0  0  0  0  0  0  0  0  0  0  0  0
    8.4927  -17.1274   21.0599 N   0  0  0  0  0  0  0  0  0  0  0  0
    7.8159  -16.0983   21.8190 C   0  0  0  0  0  0  0  0  0  0  0  0
    8.8138  -15.4337   22.7227 C   0  0  0  0  0  0  0  0  0  0  0  0
    9.5691  -14.5974   22.2473 O   0  0  0  0  0  0  0  0  0  0  0  0
    6.0712  -11.1545   27.9379 C   0  0  0  0  0  0  0  0  0  0  0  0
    6.0750  -12.1496   26.4181 S   0  0  0  0  0  0  0  0  0  0  0  0
    7.4386  -13.3089   26.5071 C   0  0  0  0  0  0  0  0  0  0  0  0
    7.5165  -14.1953   25.3267 C   0  0  0  0  0  0  0  0  0  0  0  0
    8.7376  -15.0475   25.2443 C   0  0  2  0  0  0  0  0  0  0  0  0
    8.8311  -15.8078   24.0757 N   0  0  0  0  0  0  0  0  0  0  0  0
    8.9732  -15.7445   26.5485 C   0  0  0  0  0  0  0  0  0  0  0  0
    8.2952  -16.6071   27.0826 O   0  0  0  0  0  0  0  0  0  0  0  0
   10.1383  -15.3523   27.2612 O   0  0  0  0  0  0  0  0  0  0  0  0
  2  3  1  0
  2  1  1  1
  3  4  1  0
  4  5  2  0
  4  8  1  0
  6  2  1  0
  7  6  2  0
  9  6  1  0
 10 11  1  0
 10  9  1  0
 11 18  1  0
 12 11  2  0
 13 14  1  0
 14 15  1  0
 15 16  1  0
 17 16  1  1
 18 17  1  0
 19 17  1  0
 20 19  2  0
 21 19  1  0
M  END
$$$$
