DGM.pdb
     RDKit          3D

 21 20  0  0  1  0  0  0  0  0999 V2000
    7.1335  -16.4627   19.2353 N   0  0  0  0  0  0  0  0  0  0  0  0
    8.0880  -17.4086   18.7736 C   0  0  1  0  0  0  0  0  0  0  0  0
    8.6393  -16.8874   17.4362 C   0  0  0  0  0  0  0  0  0  0  0  0
    8.0969  -17.7653   16.3584 C   0  0  0  0  0  0  0  0  0  0  0  0
    6.8678  -18.0312   16.2942 O   0  0  0  0  0  0  0  0  0  0  0  0
    9.1967  -17.5323   19.7607 C   0  0  0  0  0  0  0  0  0  0  0  0
   10.0737  -18.4164   19.5932 O   0  0  0  0  0  0  0  0  0  0  0  0
    8.9625  -18.2807   15.4344 O   0  0  0  0  0  0  0  0  0  0  0  0
    9.2406  -16.6493   20.8689 N   0  0  0  0  0  0  0  0  0  0  0  0
   10.2372  -16.8883   21.8902 C   0  0  0  0  0  0  0  0  0  0  0  0
   10.1073  -15.8279   22.9450 C   0  0  0  0  0  0  0  0  0  0  0  0
   10.9373  -14.9301   22.9787 O   0  0  0  0  0  0  0  0  0  0  0  0
    6.7343  -10.9513   27.0479 C   0  0  0  0  0  0  0  0  0  0  0  0
    7.4018  -11.9443   25.6810 S   0  0  0  0  0  0  0  0  0  0  0  0
    6.8766  -13.6423   25.9092 C   0  0  0  0  0  0  0  0  0  0  0  0
    7.2909  -14.5255   24.7987 C   0  0  0  0  0  0  0  0  0  0  0  0
    8.6584  -15.1083   24.9189 C   0  0  2  0  0  0  0  0  0  0  0  0
    9.0345  -15.9203   23.8457 N   0  0  0  0  0  0  0  0  0  0  0  0
    8.8771  -15.6383   26.3022 C   0  0  0  0  0  0  0  0  0  0  0  0
    9.1228  -15.0178   27.3238 O   0  0  0  0  0  0  0  0  0  0  0  0
    8.7881  -17.0489   26.4486 O   0  0  0  0  0  0  0  0  0  0  0  0
  2  3  1  0
  2  1  1  1
  3  4  1  0
  4  5  2  0
  4  8  1  0
  6  2  1  0
  7  6  2  0
  9  6  1  0
 10 11  1  0
 10  9  1  0
 11 18  1  0
 12 11  2  0
 13 14  1  0
 14 15  1  0
 15 16  1  0
 17 16  1  6
 18 17  1  0
 19 17  1  0
 20 19  2  0
 21 19  1  0
M  END
$$$$
