DGM.pdb
     RDKit          3D

 21 20  0  0  1  0  0  0  0  0999 V2000
   10.1678  -17.7342   21.2000 N   0  0  0  0  0  0  0  0  0  0  0  0
    9.3007  -17.7875   20.0757 C   0  0  1  0  0  0  0  0  0  0  0  0
    8.5463  -19.1257   20.1423 C   0  0  0  0  0  0  0  0  0  0  0  0
    9.3858  -20.1452   19.4478 C   0  0  0  0  0  0  0  0  0  0  0  0
    9.7465  -19.9846   18.2522 O   0  0  0  0  0  0  0  0  0  0  0  0
    8.3295  -16.6594   20.1312 C   0  0  0  0  0  0  0  0  0  0  0  0
    7.5465  -16.4737   19.1661 O   0  0  0  0  0  0  0  0  0  0  0  0
    9.7601  -21.2657   20.1358 O   0  0  0  0  0  0  0  0  0  0  0  0
    8.3077  -15.8183   21.2721 N   0  0  0  0  0  0  0  0  0  0  0  0
    7.2405  -14.8475   21.3815 C   0  0  0  0  0  0  0  0  0  0  0  0
    7.4662  -14.0230   22.6157 C   0  0  0  0  0  0  0  0  0  0  0  0
    6.6636  -13.1404   22.8857 O   0  0  0  0  0  0  0  0  0  0  0  0
    6.5257  -11.3191   27.4414 C   0  0  0  0  0  0  0  0  0  0  0  0
    6.6075  -12.4204   25.9991 S   0  0  0  0  0  0  0  0  0  0  0  0
    7.2358  -14.0096   26.5384 C   0  0  0  0  0  0  0  0  0  0  0  0
    7.4195  -14.9627   25.4236 C   0  0  0  0  0  0  0  0  0  0  0  0
    8.7106  -14.8459   24.6863 C   0  0  2  0  0  0  0  0  0  0  0  0
    8.5936  -14.3070   23.4024 N   0  0  0  0  0  0  0  0  0  0  0  0
    9.5136  -16.1000   24.8439 C   0  0  0  0  0  0  0  0  0  0  0  0
    9.7471  -16.9624   24.0128 O   0  0  0  0  0  0  0  0  0  0  0  0
   10.0793  -16.3184   26.1290 O   0  0  0  0  0  0  0  0  0  0  0  0
  2  3  1  0
  2  1  1  1
  3  4  1  0
  4  5  2  0
  4  8  1  0
  6  2  1  0
  7  6  2  0
  9  6  1  0
 10 11  1  0
 10  9  1  0
 11 18  1  0
 12 11  2  0
 13 14  1  0
 14 15  1  0
 15 16  1  0
 17 16  1  6
 18 17  1  0
 19 17  1  0
 20 19  2  0
 21 19  1  0
M  END
$$$$
