DGM.pdb
     RDKit          3D

 21 20  0  0  1  0  0  0  0  0999 V2000
   10.1956  -18.7153   18.8466 N   0  0  0  0  0  0  0  0  0  0  0  0
    9.4929  -17.4864   18.7243 C   0  0  1  0  0  0  0  0  0  0  0  0
    8.6145  -17.5844   17.4660 C   0  0  0  0  0  0  0  0  0  0  0  0
    9.5267  -17.7652   16.2990 C   0  0  0  0  0  0  0  0  0  0  0  0
   10.5882  -17.0961   16.1946 O   0  0  0  0  0  0  0  0  0  0  0  0
    8.6335  -17.2731   19.9221 C   0  0  0  0  0  0  0  0  0  0  0  0
    8.2714  -18.2645   20.6039 O   0  0  0  0  0  0  0  0  0  0  0  0
    9.1888  -18.6760   15.3372 O   0  0  0  0  0  0  0  0  0  0  0  0
    8.2420  -15.9555   20.2692 N   0  0  0  0  0  0  0  0  0  0  0  0
    7.3517  -15.7850   21.3969 C   0  0  0  0  0  0  0  0  0  0  0  0
    8.1661  -15.7995   22.6580 C   0  0  0  0  0  0  0  0  0  0  0  0
    9.3738  -15.9741   22.5737 O   0  0  0  0  0  0  0  0  0  0  0  0
    6.8503  -10.4146   26.2431 C   0  0  0  0  0  0  0  0  0  0  0  0
    6.5266  -12.1190   26.7820 S   0  0  0  0  0  0  0  0  0  0  0  0
    7.4033  -13.2328   25.6856 C   0  0  0  0  0  0  0  0  0  0  0  0
    7.2927  -14.6483   26.0969 C   0  0  0  0  0  0  0  0  0  0  0  0
    7.9605  -15.6317   25.1962 C   0  0  2  0  0  0  0  0  0  0  0  0
    7.4975  -15.6117   23.8780 N   0  0  0  0  0  0  0  0  0  0  0  0
    8.0739  -16.9623   25.8736 C   0  0  0  0  0  0  0  0  0  0  0  0
    7.3931  -17.9610   25.7061 O   0  0  0  0  0  0  0  0  0  0  0  0
    9.1090  -17.0816   26.8399 O   0  0  0  0  0  0  0  0  0  0  0  0
  2  3  1  0
  2  1  1  1
  3  4  1  0
  4  5  2  0
  4  8  1  0
  6  2  1  0
  7  6  2  0
  9  6  1  0
 10 11  1  0
 10  9  1  0
 11 18  1  0
 12 11  2  0
 13 14  1  0
 14 15  1  0
 15 16  1  0
 17 16  1  1
 18 17  1  0
 19 17  1  0
 20 19  2  0
 21 19  1  0
M  END
$$$$
