DGM.pdb
     RDKit          3D

 21 20  0  0  1  0  0  0  0  0999 V2000
    9.8456  -13.0247   18.7180 N   0  0  0  0  0  0  0  0  0  0  0  0
    8.4351  -13.0069   18.8883 C   0  0  1  0  0  0  0  0  0  0  0  0
    7.8041  -13.2689   17.5108 C   0  0  0  0  0  0  0  0  0  0  0  0
    8.6217  -14.3213   16.8394 C   0  0  0  0  0  0  0  0  0  0  0  0
    9.5824  -14.8761   17.4349 O   0  0  0  0  0  0  0  0  0  0  0  0
    8.0265  -14.0772   19.8404 C   0  0  0  0  0  0  0  0  0  0  0  0
    6.8215  -14.1666   20.1852 O   0  0  0  0  0  0  0  0  0  0  0  0
    8.3086  -14.6764   15.5569 O   0  0  0  0  0  0  0  0  0  0  0  0
    9.0054  -14.9740   20.3376 N   0  0  0  0  0  0  0  0  0  0  0  0
    8.5835  -15.9876   21.2801 C   0  0  0  0  0  0  0  0  0  0  0  0
    8.9484  -15.5370   22.6649 C   0  0  0  0  0  0  0  0  0  0  0  0
   10.1049  -15.6720   23.0394 O   0  0  0  0  0  0  0  0  0  0  0  0
    6.7773  -11.3275   28.5736 C   0  0  0  0  0  0  0  0  0  0  0  0
    6.6950  -11.7670   26.8129 S   0  0  0  0  0  0  0  0  0  0  0  0
    6.6249  -13.5527   26.6806 C   0  0  0  0  0  0  0  0  0  0  0  0
    6.6387  -14.0256   25.2802 C   0  0  0  0  0  0  0  0  0  0  0  0
    7.9308  -14.6043   24.8115 C   0  0  2  0  0  0  0  0  0  0  0  0
    7.9385  -14.9808   23.4659 N   0  0  0  0  0  0  0  0  0  0  0  0
    8.4521  -15.5886   25.8123 C   0  0  0  0  0  0  0  0  0  0  0  0
    8.0430  -16.7117   26.0580 O   0  0  0  0  0  0  0  0  0  0  0  0
    9.5697  -15.1623   26.5794 O   0  0  0  0  0  0  0  0  0  0  0  0
  2  3  1  0
  2  1  1  6
  3  4  1  0
  4  5  2  0
  4  8  1  0
  6  2  1  0
  7  6  2  0
  9  6  1  0
 10 11  1  0
 10  9  1  0
 11 18  1  0
 12 11  2  0
 13 14  1  0
 14 15  1  0
 15 16  1  0
 17 16  1  1
 18 17  1  0
 19 17  1  0
 20 19  2  0
 21 19  1  0
M  END
$$$$
