DGM.pdb
     RDKit          3D

 21 20  0  0  1  0  0  0  0  0999 V2000
    6.1872  -18.8897   22.3870 N   0  0  0  0  0  0  0  0  0  0  0  0
    6.0230  -18.5962   21.0065 C   0  0  1  0  0  0  0  0  0  0  0  0
    4.5552  -18.1890   20.7963 C   0  0  0  0  0  0  0  0  0  0  0  0
    3.7580  -19.4444   20.6737 C   0  0  0  0  0  0  0  0  0  0  0  0
    4.3049  -20.5739   20.7763 O   0  0  0  0  0  0  0  0  0  0  0  0
    6.9177  -17.4704   20.6181 C   0  0  0  0  0  0  0  0  0  0  0  0
    7.1329  -17.2475   19.4003 O   0  0  0  0  0  0  0  0  0  0  0  0
    2.4134  -19.3480   20.4463 O   0  0  0  0  0  0  0  0  0  0  0  0
    7.5079  -16.6725   21.6303 N   0  0  0  0  0  0  0  0  0  0  0  0
    8.2657  -15.5088   21.2241 C   0  0  0  0  0  0  0  0  0  0  0  0
    8.8161  -14.8419   22.4514 C   0  0  0  0  0  0  0  0  0  0  0  0
    9.6602  -13.9674   22.3146 O   0  0  0  0  0  0  0  0  0  0  0  0
    6.4257  -10.5958   26.3885 C   0  0  0  0  0  0  0  0  0  0  0  0
    6.6729  -12.3325   26.8603 S   0  0  0  0  0  0  0  0  0  0  0  0
    7.7542  -13.0961   25.6524 C   0  0  0  0  0  0  0  0  0  0  0  0
    8.1015  -14.4918   25.9939 C   0  0  0  0  0  0  0  0  0  0  0  0
    8.9104  -15.2192   24.9737 C   0  0  2  0  0  0  0  0  0  0  0  0
    8.3327  -15.2581   23.7020 N   0  0  0  0  0  0  0  0  0  0  0  0
    9.4286  -16.5041   25.5420 C   0  0  0  0  0  0  0  0  0  0  0  0
    9.2299  -17.6428   25.1511 O   0  0  0  0  0  0  0  0  0  0  0  0
   10.2612  -16.3860   26.6875 O   0  0  0  0  0  0  0  0  0  0  0  0
  2  3  1  0
  2  1  1  1
  3  4  1  0
  4  5  2  0
  4  8  1  0
  6  2  1  0
  7  6  2  0
  9  6  1  0
 10 11  1  0
 10  9  1  0
 11 18  1  0
 12 11  2  0
 13 14  1  0
 14 15  1  0
 15 16  1  0
 17 16  1  1
 18 17  1  0
 19 17  1  0
 20 19  2  0
 21 19  1  0
M  END
$$$$
