EEK.pdb
     RDKit          3D

 28 27  0  0  1  0  0  0  0  0999 V2000
   11.8259  -18.2815   18.6808 N   0  0  0  0  0  0  0  0  0  0  0  0
   11.7408  -19.7397   18.9107 C   0  0  1  0  0  0  0  0  0  0  0  0
   11.9525  -20.3602   17.5699 C   0  0  0  0  0  0  0  0  0  0  0  0
   12.8905  -19.6145   16.6878 C   0  0  0  0  0  0  0  0  0  0  0  0
   12.9970  -20.3890   15.3975 C   0  0  0  0  0  0  0  0  0  0  0  0
   12.0253  -20.4716   14.6577 O   0  0  0  0  0  0  0  0  0  0  0  0
   12.8012  -20.0940   19.8663 C   0  0  0  0  0  0  0  0  0  0  0  0
   12.9666  -21.3203   20.1784 O   0  0  0  0  0  0  0  0  0  0  0  0
   14.1966  -20.9861   15.0852 O   0  0  0  0  0  0  0  0  0  0  0  0
   13.6737  -19.1885   20.4818 N   0  0  0  0  0  0  0  0  0  0  0  0
   14.7694  -19.5986   21.3945 C   0  0  1  0  0  0  0  0  0  0  0  0
   15.9605  -18.8533   20.8981 C   0  0  0  0  0  0  0  0  0  0  0  0
   17.2491  -19.0748   21.5889 C   0  0  0  0  0  0  0  0  0  0  0  0
   18.3304  -18.1975   20.9884 C   0  0  0  0  0  0  0  0  0  0  0  0
   18.8226  -18.5368   19.8652 O   0  0  0  0  0  0  0  0  0  0  0  0
   14.3720  -19.3426   22.7767 C   0  0  0  0  0  0  0  0  0  0  0  0
   14.1232  -18.1694   23.1443 O   0  0  0  0  0  0  0  0  0  0  0  0
   18.8037  -17.0677   21.5861 O   0  0  0  0  0  0  0  0  0  0  0  0
   14.2403  -20.3465   23.7626 N   0  0  0  0  0  0  0  0  0  0  0  0
   13.8161  -20.0215   25.1413 C   0  0  1  0  0  0  0  0  0  0  0  0
   13.1963  -21.2695   25.7008 C   0  0  0  0  0  0  0  0  0  0  0  0
   11.7891  -21.5282   25.2644 C   0  0  0  0  0  0  0  0  0  0  0  0
   11.2331  -22.8375   25.7635 C   0  0  0  0  0  0  0  0  0  0  0  0
    9.7852  -23.0268   25.3657 C   0  0  0  0  0  0  0  0  0  0  0  0
    9.2524  -24.2809   25.7971 N   0  0  0  0  0  0  0  0  0  0  0  0
   14.9620  -19.5494   25.9243 C   0  0  0  0  0  0  0  0  0  0  0  0
   14.8170  -18.8772   27.1168 O   0  0  0  0  0  0  0  0  0  0  0  0
   16.1247  -19.7732   25.4742 O   0  0  0  0  0  0  0  0  0  0  0  0
  2  7  1  0
  2  1  1  6
  3  2  1  0
  4  3  1  0
  5  4  1  0
  6  5  2  0
  7  8  2  0
  9  5  1  0
 10  7  1  0
 10 11  1  0
 11 12  1  6
 12 13  1  0
 13 14  1  0
 14 18  1  0
 15 14  2  0
 16 17  2  0
 16 11  1  0
 19 16  1  0
 20 19  1  0
 20 21  1  1
 22 21  1  0
 23 22  1  0
 24 23  1  0
 25 24  1  0
 26 27  1  0
 26 20  1  0
 28 26  2  0
M  END
$$$$
