EEK.pdb
     RDKit          3D

 28 27  0  0  1  0  0  0  0  0999 V2000
    9.4875  -13.4584   17.8433 N   0  0  0  0  0  0  0  0  0  0  0  0
   10.0320  -14.6300   18.5625 C   0  0  1  0  0  0  0  0  0  0  0  0
   11.3495  -14.1809   19.1012 C   0  0  0  0  0  0  0  0  0  0  0  0
   12.5281  -14.8236   18.4596 C   0  0  0  0  0  0  0  0  0  0  0  0
   13.7521  -14.3486   19.2028 C   0  0  0  0  0  0  0  0  0  0  0  0
   14.5877  -13.6677   18.6227 O   0  0  0  0  0  0  0  0  0  0  0  0
    9.0773  -14.9712   19.6279 C   0  0  0  0  0  0  0  0  0  0  0  0
    8.3765  -14.0411   20.1501 O   0  0  0  0  0  0  0  0  0  0  0  0
   13.8954  -14.6971   20.5261 O   0  0  0  0  0  0  0  0  0  0  0  0
    8.8552  -16.2564   20.1367 N   0  0  0  0  0  0  0  0  0  0  0  0
    7.8402  -16.5620   21.1750 C   0  0  1  0  0  0  0  0  0  0  0  0
    7.6231  -18.0315   21.0566 C   0  0  0  0  0  0  0  0  0  0  0  0
    6.9779  -18.5358   19.8253 C   0  0  0  0  0  0  0  0  0  0  0  0
    6.8823  -20.0488   19.8582 C   0  0  0  0  0  0  0  0  0  0  0  0
    6.3009  -20.5913   20.8515 O   0  0  0  0  0  0  0  0  0  0  0  0
    8.3089  -16.0765   22.4706 C   0  0  0  0  0  0  0  0  0  0  0  0
    9.5332  -16.1123   22.7414 O   0  0  0  0  0  0  0  0  0  0  0  0
    7.3856  -20.8579   18.8837 O   0  0  0  0  0  0  0  0  0  0  0  0
    7.4632  -15.5512   23.4737 N   0  0  0  0  0  0  0  0  0  0  0  0
    8.0052  -14.7770   24.6108 C   0  0  1  0  0  0  0  0  0  0  0  0
    6.9759  -13.7362   24.9456 C   0  0  0  0  0  0  0  0  0  0  0  0
    7.3199  -12.8551   26.1045 C   0  0  0  0  0  0  0  0  0  0  0  0
    6.2331  -11.8728   26.4597 C   0  0  0  0  0  0  0  0  0  0  0  0
    6.6126  -11.0118   27.6451 C   0  0  0  0  0  0  0  0  0  0  0  0
    5.6229  -10.0279   27.9536 N   0  0  0  0  0  0  0  0  0  0  0  0
    8.3037  -15.6707   25.7338 C   0  0  0  0  0  0  0  0  0  0  0  0
    9.2532  -15.3725   26.6849 O   0  0  0  0  0  0  0  0  0  0  0  0
    7.6577  -16.7569   25.8195 O   0  0  0  0  0  0  0  0  0  0  0  0
  2  7  1  0
  2  1  1  1
  3  2  1  0
  4  3  1  0
  5  4  1  0
  6  5  2  0
  7  8  2  0
  9  5  1  0
 10  7  1  0
 10 11  1  0
 11 12  1  1
 12 13  1  0
 13 14  1  0
 14 18  1  0
 15 14  2  0
 16 17  2  0
 16 11  1  0
 19 16  1  0
 20 19  1  0
 20 21  1  1
 22 21  1  0
 23 22  1  0
 24 23  1  0
 25 24  1  0
 26 27  1  0
 26 20  1  0
 28 26  2  0
M  END
$$$$
