EEK.pdb
     RDKit          3D

 28 27  0  0  1  0  0  0  0  0999 V2000
   15.6659  -12.7866   15.5219 N   0  0  0  0  0  0  0  0  0  0  0  0
   16.2868  -13.6030   16.5869 C   0  0  1  0  0  0  0  0  0  0  0  0
   17.0915  -12.6422   17.3976 C   0  0  0  0  0  0  0  0  0  0  0  0
   18.4696  -12.4097   16.8870 C   0  0  0  0  0  0  0  0  0  0  0  0
   19.1743  -11.5350   17.8941 C   0  0  0  0  0  0  0  0  0  0  0  0
   19.9847  -12.0306   18.6662 O   0  0  0  0  0  0  0  0  0  0  0  0
   15.1959  -14.2139   17.3613 C   0  0  0  0  0  0  0  0  0  0  0  0
   14.1323  -13.5394   17.5679 O   0  0  0  0  0  0  0  0  0  0  0  0
   18.8837  -10.1903   17.9158 O   0  0  0  0  0  0  0  0  0  0  0  0
   15.2118  -15.5032   17.9067 N   0  0  0  0  0  0  0  0  0  0  0  0
   14.0665  -16.0963   18.6404 C   0  0  1  0  0  0  0  0  0  0  0  0
   14.0253  -17.5118   18.1766 C   0  0  0  0  0  0  0  0  0  0  0  0
   13.0359  -18.4140   18.8042 C   0  0  0  0  0  0  0  0  0  0  0  0
   13.1084  -19.7952   18.1825 C   0  0  0  0  0  0  0  0  0  0  0  0
   13.0896  -20.8036   18.9583 O   0  0  0  0  0  0  0  0  0  0  0  0
   14.2475  -15.8872   20.0747 C   0  0  0  0  0  0  0  0  0  0  0  0
   15.4059  -15.8152   20.5506 O   0  0  0  0  0  0  0  0  0  0  0  0
   13.1938  -20.0148   16.8401 O   0  0  0  0  0  0  0  0  0  0  0  0
   13.1848  -15.7538   20.9968 N   0  0  0  0  0  0  0  0  0  0  0  0
   13.4311  -15.6996   22.4538 C   0  0  1  0  0  0  0  0  0  0  0  0
   12.1360  -16.0691   23.1179 C   0  0  0  0  0  0  0  0  0  0  0  0
   12.2063  -16.2168   24.6048 C   0  0  0  0  0  0  0  0  0  0  0  0
   10.9068  -16.6555   25.2302 C   0  0  0  0  0  0  0  0  0  0  0  0
   11.0301  -16.8328   26.7281 C   0  0  0  0  0  0  0  0  0  0  0  0
    9.7974  -17.2129   27.3435 N   0  0  0  0  0  0  0  0  0  0  0  0
   14.5356  -16.5941   22.8130 C   0  0  0  0  0  0  0  0  0  0  0  0
   14.5813  -17.9108   22.4140 O   0  0  0  0  0  0  0  0  0  0  0  0
   15.4766  -16.1256   23.5197 O   0  0  0  0  0  0  0  0  0  0  0  0
  2  7  1  0
  2  1  1  6
  3  2  1  0
  4  3  1  0
  5  4  1  0
  6  5  2  0
  7  8  2  0
  9  5  1  0
 10  7  1  0
 10 11  1  0
 11 12  1  1
 12 13  1  0
 13 14  1  0
 14 18  1  0
 15 14  2  0
 16 17  2  0
 16 11  1  0
 19 16  1  0
 20 19  1  0
 20 21  1  1
 22 21  1  0
 23 22  1  0
 24 23  1  0
 25 24  1  0
 26 27  1  0
 26 20  1  0
 28 26  2  0
M  END
$$$$
