EEK.pdb
     RDKit          3D

 28 27  0  0  1  0  0  0  0  0999 V2000
   17.9686  -20.7282   17.6483 N   0  0  0  0  0  0  0  0  0  0  0  0
   19.1179  -20.3725   18.5080 C   0  0  1  0  0  0  0  0  0  0  0  0
   19.7836  -19.2288   17.8178 C   0  0  0  0  0  0  0  0  0  0  0  0
   18.8520  -18.1705   17.3421 C   0  0  0  0  0  0  0  0  0  0  0  0
   19.6941  -17.0865   16.7163 C   0  0  0  0  0  0  0  0  0  0  0  0
   20.4786  -16.4517   17.4092 O   0  0  0  0  0  0  0  0  0  0  0  0
   18.5793  -19.9967   19.8240 C   0  0  0  0  0  0  0  0  0  0  0  0
   19.3734  -19.5239   20.7041 O   0  0  0  0  0  0  0  0  0  0  0  0
   19.5557  -16.8401   15.3697 O   0  0  0  0  0  0  0  0  0  0  0  0
   17.2392  -20.1085   20.2136 N   0  0  0  0  0  0  0  0  0  0  0  0
   16.7502  -19.7667   21.5722 C   0  0  1  0  0  0  0  0  0  0  0  0
   15.2671  -19.7329   21.4321 C   0  0  0  0  0  0  0  0  0  0  0  0
   14.4626  -19.5596   22.6608 C   0  0  0  0  0  0  0  0  0  0  0  0
   12.9825  -19.6409   22.3414 C   0  0  0  0  0  0  0  0  0  0  0  0
   12.1582  -19.6237   23.3105 O   0  0  0  0  0  0  0  0  0  0  0  0
   17.2905  -20.7208   22.5375 C   0  0  0  0  0  0  0  0  0  0  0  0
   17.3525  -21.9378   22.2399 O   0  0  0  0  0  0  0  0  0  0  0  0
   12.4880  -19.7325   21.0746 O   0  0  0  0  0  0  0  0  0  0  0  0
   17.7653  -20.3674   23.8209 N   0  0  0  0  0  0  0  0  0  0  0  0
   18.1729  -21.3960   24.8017 C   0  0  1  0  0  0  0  0  0  0  0  0
   19.5756  -21.0561   25.2161 C   0  0  0  0  0  0  0  0  0  0  0  0
   20.2437  -22.0743   26.0847 C   0  0  0  0  0  0  0  0  0  0  0  0
   21.6603  -21.7159   26.4552 C   0  0  0  0  0  0  0  0  0  0  0  0
   22.3521  -22.8369   27.2004 C   0  0  0  0  0  0  0  0  0  0  0  0
   23.7467  -22.5930   27.3961 N   0  0  0  0  0  0  0  0  0  0  0  0
   17.2330  -21.4222   25.9264 C   0  0  0  0  0  0  0  0  0  0  0  0
   16.6378  -20.2833   26.4201 O   0  0  0  0  0  0  0  0  0  0  0  0
   16.9685  -22.5417   26.4566 O   0  0  0  0  0  0  0  0  0  0  0  0
  2  7  1  0
  2  1  1  6
  3  2  1  0
  4  3  1  0
  5  4  1  0
  6  5  2  0
  7  8  2  0
  9  5  1  0
 10  7  1  0
 10 11  1  0
 11 12  1  6
 12 13  1  0
 13 14  1  0
 14 18  1  0
 15 14  2  0
 16 17  2  0
 16 11  1  0
 19 16  1  0
 20 19  1  0
 20 21  1  1
 22 21  1  0
 23 22  1  0
 24 23  1  0
 25 24  1  0
 26 27  1  0
 26 20  1  0
 28 26  2  0
M  END
$$$$
