EEK.pdb
     RDKit          3D

 28 27  0  0  1  0  0  0  0  0999 V2000
   10.1686  -16.2125   17.7608 N   0  0  0  0  0  0  0  0  0  0  0  0
   10.8497  -16.9254   18.8628 C   0  0  1  0  0  0  0  0  0  0  0  0
   12.1544  -16.2217   19.0368 C   0  0  0  0  0  0  0  0  0  0  0  0
   12.0347  -14.7711   19.3461 C   0  0  0  0  0  0  0  0  0  0  0  0
   13.4362  -14.2241   19.4585 C   0  0  0  0  0  0  0  0  0  0  0  0
   14.1282  -14.5223   20.4232 O   0  0  0  0  0  0  0  0  0  0  0  0
    9.9904  -16.8155   20.0513 C   0  0  0  0  0  0  0  0  0  0  0  0
    9.1059  -15.8964   20.0909 O   0  0  0  0  0  0  0  0  0  0  0  0
   13.9022  -13.3976   18.4621 O   0  0  0  0  0  0  0  0  0  0  0  0
   10.0497  -17.6490   21.1746 N   0  0  0  0  0  0  0  0  0  0  0  0
    9.0307  -17.6432   22.2532 C   0  0  1  0  0  0  0  0  0  0  0  0
    9.1529  -18.9885   22.8824 C   0  0  0  0  0  0  0  0  0  0  0  0
    8.3864  -19.2419   24.1214 C   0  0  0  0  0  0  0  0  0  0  0  0
    8.6549  -20.6437   24.6337 C   0  0  0  0  0  0  0  0  0  0  0  0
    7.6565  -21.3813   24.9132 O   0  0  0  0  0  0  0  0  0  0  0  0
    9.2546  -16.4942   23.1271 C   0  0  0  0  0  0  0  0  0  0  0  0
   10.4252  -16.1734   23.4438 O   0  0  0  0  0  0  0  0  0  0  0  0
    9.9056  -21.1552   24.8118 O   0  0  0  0  0  0  0  0  0  0  0  0
    8.2217  -15.6894   23.6589 N   0  0  0  0  0  0  0  0  0  0  0  0
    8.5055  -14.6209   24.6406 C   0  0  1  0  0  0  0  0  0  0  0  0
    7.2213  -13.8663   24.8309 C   0  0  0  0  0  0  0  0  0  0  0  0
    7.2762  -12.7683   25.8452 C   0  0  0  0  0  0  0  0  0  0  0  0
    5.9824  -12.0066   25.9814 C   0  0  0  0  0  0  0  0  0  0  0  0
    6.0935  -10.8748   26.9799 C   0  0  0  0  0  0  0  0  0  0  0  0
    4.8972  -10.0981   27.0710 N   0  0  0  0  0  0  0  0  0  0  0  0
    9.0194  -15.2014   25.8848 C   0  0  0  0  0  0  0  0  0  0  0  0
    8.5675  -16.4025   26.3830 O   0  0  0  0  0  0  0  0  0  0  0  0
    9.9118  -14.5623   26.5170 O   0  0  0  0  0  0  0  0  0  0  0  0
  2  7  1  0
  2  1  1  6
  3  2  1  0
  4  3  1  0
  5  4  1  0
  6  5  2  0
  7  8  2  0
  9  5  1  0
 10  7  1  0
 10 11  1  0
 11 12  1  1
 12 13  1  0
 13 14  1  0
 14 18  1  0
 15 14  2  0
 16 17  2  0
 16 11  1  0
 19 16  1  0
 20 19  1  0
 20 21  1  1
 22 21  1  0
 23 22  1  0
 24 23  1  0
 25 24  1  0
 26 27  1  0
 26 20  1  0
 28 26  2  0
M  END
$$$$
