EEK.pdb
     RDKit          3D

 28 27  0  0  1  0  0  0  0  0999 V2000
    9.3815  -13.1168   18.2742 N   0  0  0  0  0  0  0  0  0  0  0  0
    8.1546  -13.9290   18.4208 C   0  0  1  0  0  0  0  0  0  0  0  0
    8.0192  -14.6696   17.1321 C   0  0  0  0  0  0  0  0  0  0  0  0
    8.1800  -13.8253   15.9174 C   0  0  0  0  0  0  0  0  0  0  0  0
    7.8466  -14.6912   14.7278 C   0  0  0  0  0  0  0  0  0  0  0  0
    6.6960  -15.0736   14.5593 O   0  0  0  0  0  0  0  0  0  0  0  0
    8.3607  -14.8289   19.5658 C   0  0  0  0  0  0  0  0  0  0  0  0
    7.3464  -15.3870   20.1029 O   0  0  0  0  0  0  0  0  0  0  0  0
    8.8560  -15.0294   13.8560 O   0  0  0  0  0  0  0  0  0  0  0  0
    9.5994  -15.1433   20.1373 N   0  0  0  0  0  0  0  0  0  0  0  0
    9.7612  -16.0773   21.2789 C   0  0  1  0  0  0  0  0  0  0  0  0
   11.0441  -16.7819   20.9993 C   0  0  0  0  0  0  0  0  0  0  0  0
   11.1110  -17.6406   19.7972 C   0  0  0  0  0  0  0  0  0  0  0  0
   12.4884  -18.2608   19.6645 C   0  0  0  0  0  0  0  0  0  0  0  0
   13.0492  -18.2367   18.5227 O   0  0  0  0  0  0  0  0  0  0  0  0
    9.6897  -15.3301   22.5321 C   0  0  0  0  0  0  0  0  0  0  0  0
   10.5743  -14.4825   22.8013 O   0  0  0  0  0  0  0  0  0  0  0  0
   13.1566  -18.8429   20.7000 O   0  0  0  0  0  0  0  0  0  0  0  0
    8.6675  -15.4921   23.4945 N   0  0  0  0  0  0  0  0  0  0  0  0
    8.6425  -14.6876   24.7348 C   0  0  1  0  0  0  0  0  0  0  0  0
    7.3521  -13.9198   24.7176 C   0  0  0  0  0  0  0  0  0  0  0  0
    7.1110  -13.0594   25.9172 C   0  0  0  0  0  0  0  0  0  0  0  0
    5.8095  -12.3007   25.8645 C   0  0  0  0  0  0  0  0  0  0  0  0
    5.6431  -11.3776   27.0522 C   0  0  0  0  0  0  0  0  0  0  0  0
    4.4441  -10.6023   26.9866 N   0  0  0  0  0  0  0  0  0  0  0  0
    8.7754  -15.5598   25.9055 C   0  0  0  0  0  0  0  0  0  0  0  0
    8.8102  -16.9323   25.8057 O   0  0  0  0  0  0  0  0  0  0  0  0
    8.8584  -15.0172   27.0470 O   0  0  0  0  0  0  0  0  0  0  0  0
  2  7  1  0
  2  1  1  6
  3  2  1  0
  4  3  1  0
  5  4  1  0
  6  5  2  0
  7  8  2  0
  9  5  1  0
 10  7  1  0
 10 11  1  0
 11 12  1  6
 12 13  1  0
 13 14  1  0
 14 18  1  0
 15 14  2  0
 16 17  2  0
 16 11  1  0
 19 16  1  0
 20 19  1  0
 20 21  1  1
 22 21  1  0
 23 22  1  0
 24 23  1  0
 25 24  1  0
 26 27  1  0
 26 20  1  0
 28 26  2  0
M  END
$$$$
