EEK.pdb
     RDKit          3D

 28 27  0  0  1  0  0  0  0  0999 V2000
    8.6253  -16.2292   18.0578 N   0  0  0  0  0  0  0  0  0  0  0  0
    9.8103  -16.6798   18.8188 C   0  0  1  0  0  0  0  0  0  0  0  0
   10.8364  -15.6160   18.6112 C   0  0  0  0  0  0  0  0  0  0  0  0
   10.4773  -14.2932   19.1901 C   0  0  0  0  0  0  0  0  0  0  0  0
   11.5945  -13.3397   18.8454 C   0  0  0  0  0  0  0  0  0  0  0  0
   11.5547  -12.1860   19.2526 O   0  0  0  0  0  0  0  0  0  0  0  0
    9.4048  -16.8007   20.2274 C   0  0  0  0  0  0  0  0  0  0  0  0
    8.3657  -16.1765   20.6266 O   0  0  0  0  0  0  0  0  0  0  0  0
   12.6382  -13.7993   18.0757 O   0  0  0  0  0  0  0  0  0  0  0  0
   10.0674  -17.5595   21.1996 N   0  0  0  0  0  0  0  0  0  0  0  0
    9.5517  -17.7558   22.5770 C   0  0  1  0  0  0  0  0  0  0  0  0
   10.3204  -18.9225   23.0952 C   0  0  0  0  0  0  0  0  0  0  0  0
   10.1251  -19.3025   24.5109 C   0  0  0  0  0  0  0  0  0  0  0  0
   11.0047  -20.4848   24.8688 C   0  0  0  0  0  0  0  0  0  0  0  0
   10.4390  -21.5881   25.1547 O   0  0  0  0  0  0  0  0  0  0  0  0
    9.6798  -16.5084   23.3263 C   0  0  0  0  0  0  0  0  0  0  0  0
   10.7545  -15.8631   23.2793 O   0  0  0  0  0  0  0  0  0  0  0  0
   12.3661  -20.4296   24.9018 O   0  0  0  0  0  0  0  0  0  0  0  0
    8.6535  -15.9538   24.1240 N   0  0  0  0  0  0  0  0  0  0  0  0
    8.9048  -14.7941   25.0061 C   0  0  1  0  0  0  0  0  0  0  0  0
    7.5820  -14.1089   25.1950 C   0  0  0  0  0  0  0  0  0  0  0  0
    7.6047  -12.9312   26.1169 C   0  0  0  0  0  0  0  0  0  0  0  0
    6.2441  -12.3309   26.3633 C   0  0  0  0  0  0  0  0  0  0  0  0
    6.3111  -11.1365   27.2904 C   0  0  0  0  0  0  0  0  0  0  0  0
    5.0194  -10.6334   27.6386 N   0  0  0  0  0  0  0  0  0  0  0  0
    9.5055  -15.2393   26.2671 C   0  0  0  0  0  0  0  0  0  0  0  0
   10.2678  -14.4092   27.0574 O   0  0  0  0  0  0  0  0  0  0  0  0
    9.3096  -16.4368   26.6307 O   0  0  0  0  0  0  0  0  0  0  0  0
  2  7  1  0
  2  1  1  6
  3  2  1  0
  4  3  1  0
  5  4  1  0
  6  5  2  0
  7  8  2  0
  9  5  1  0
 10  7  1  0
 10 11  1  0
 11 12  1  1
 12 13  1  0
 13 14  1  0
 14 18  1  0
 15 14  2  0
 16 17  2  0
 16 11  1  0
 19 16  1  0
 20 19  1  0
 20 21  1  1
 22 21  1  0
 23 22  1  0
 24 23  1  0
 25 24  1  0
 26 27  1  0
 26 20  1  0
 28 26  2  0
M  END
$$$$
