EEK.pdb
     RDKit          3D

 28 27  0  0  1  0  0  0  0  0999 V2000
   14.8947  -17.2502   17.9872 N   0  0  0  0  0  0  0  0  0  0  0  0
   15.2309  -16.6084   19.2762 C   0  0  1  0  0  0  0  0  0  0  0  0
   15.6624  -15.2239   18.9232 C   0  0  0  0  0  0  0  0  0  0  0  0
   16.3765  -15.1147   17.6224 C   0  0  0  0  0  0  0  0  0  0  0  0
   16.7731  -13.6689   17.4538 C   0  0  0  0  0  0  0  0  0  0  0  0
   15.9576  -12.8620   17.0267 O   0  0  0  0  0  0  0  0  0  0  0  0
   14.0140  -16.6232   20.1021 C   0  0  0  0  0  0  0  0  0  0  0  0
   13.5770  -15.5224   20.5774 O   0  0  0  0  0  0  0  0  0  0  0  0
   18.0537  -13.2940   17.7894 O   0  0  0  0  0  0  0  0  0  0  0  0
   13.2659  -17.7621   20.4234 N   0  0  0  0  0  0  0  0  0  0  0  0
   12.0312  -17.7257   21.2454 C   0  0  1  0  0  0  0  0  0  0  0  0
   11.4228  -19.0728   21.0560 C   0  0  0  0  0  0  0  0  0  0  0  0
   10.1726  -19.3732   21.7864 C   0  0  0  0  0  0  0  0  0  0  0  0
    8.9659  -18.9825   20.9552 C   0  0  0  0  0  0  0  0  0  0  0  0
    8.1699  -18.1095   21.4275 O   0  0  0  0  0  0  0  0  0  0  0  0
   12.3709  -17.3529   22.6164 C   0  0  0  0  0  0  0  0  0  0  0  0
   13.4502  -17.7484   23.1184 O   0  0  0  0  0  0  0  0  0  0  0  0
    8.6876  -19.5157   19.7321 O   0  0  0  0  0  0  0  0  0  0  0  0
   11.5524  -16.5542   23.4468 N   0  0  0  0  0  0  0  0  0  0  0  0
   11.9100  -16.2906   24.8570 C   0  0  1  0  0  0  0  0  0  0  0  0
   10.8560  -15.3676   25.3975 C   0  0  0  0  0  0  0  0  0  0  0  0
   10.9798  -15.0486   26.8537 C   0  0  0  0  0  0  0  0  0  0  0  0
    9.8792  -14.1589   27.3727 C   0  0  0  0  0  0  0  0  0  0  0  0
   10.0096  -13.9042   28.8588 C   0  0  0  0  0  0  0  0  0  0  0  0
    9.0236  -12.9952   29.3530 N   0  0  0  0  0  0  0  0  0  0  0  0
   12.0032  -17.5516   25.5987 C   0  0  0  0  0  0  0  0  0  0  0  0
   12.9808  -17.7866   26.5390 O   0  0  0  0  0  0  0  0  0  0  0  0
   11.1467  -18.4521   25.3540 O   0  0  0  0  0  0  0  0  0  0  0  0
  2  7  1  0
  2  1  1  6
  3  2  1  0
  4  3  1  0
  5  4  1  0
  6  5  2  0
  7  8  2  0
  9  5  1  0
 10  7  1  0
 10 11  1  0
 11 12  1  1
 12 13  1  0
 13 14  1  0
 14 18  1  0
 15 14  2  0
 16 17  2  0
 16 11  1  0
 19 16  1  0
 20 19  1  0
 20 21  1  1
 22 21  1  0
 23 22  1  0
 24 23  1  0
 25 24  1  0
 26 27  1  0
 26 20  1  0
 28 26  2  0
M  END
$$$$
