EEK.pdb
     RDKit          3D

 28 27  0  0  1  0  0  0  0  0999 V2000
   10.5543  -15.4400   17.8506 N   0  0  0  0  0  0  0  0  0  0  0  0
    9.1719  -15.0096   18.1509 C   0  0  1  0  0  0  0  0  0  0  0  0
    8.3429  -15.5479   17.0326 C   0  0  0  0  0  0  0  0  0  0  0  0
    9.1190  -15.9430   15.8261 C   0  0  0  0  0  0  0  0  0  0  0  0
    8.1291  -16.4569   14.8102 C   0  0  0  0  0  0  0  0  0  0  0  0
    7.1428  -17.0777   15.1845 O   0  0  0  0  0  0  0  0  0  0  0  0
    8.8058  -15.5916   19.4510 C   0  0  0  0  0  0  0  0  0  0  0  0
    7.6101  -15.4527   19.8749 O   0  0  0  0  0  0  0  0  0  0  0  0
    8.3651  -16.2095   13.4774 O   0  0  0  0  0  0  0  0  0  0  0  0
    9.6678  -16.3068   20.2908 N   0  0  0  0  0  0  0  0  0  0  0  0
    9.2340  -16.9436   21.5589 C   0  0  1  0  0  0  0  0  0  0  0  0
    9.9721  -18.2377   21.5925 C   0  0  0  0  0  0  0  0  0  0  0  0
    9.6883  -19.2208   20.5249 C   0  0  0  0  0  0  0  0  0  0  0  0
   10.5429  -20.4604   20.7047 C   0  0  0  0  0  0  0  0  0  0  0  0
   11.7362  -20.3108   21.1203 O   0  0  0  0  0  0  0  0  0  0  0  0
    9.4769  -16.0277   22.6706 C   0  0  0  0  0  0  0  0  0  0  0  0
   10.6087  -15.5045   22.8084 O   0  0  0  0  0  0  0  0  0  0  0  0
   10.1033  -21.7241   20.4447 O   0  0  0  0  0  0  0  0  0  0  0  0
    8.5043  -15.6727   23.6325 N   0  0  0  0  0  0  0  0  0  0  0  0
    8.8404  -14.8122   24.7869 C   0  0  1  0  0  0  0  0  0  0  0  0
    7.6600  -13.9094   25.0023 C   0  0  0  0  0  0  0  0  0  0  0  0
    7.7467  -13.0305   26.2096 C   0  0  0  0  0  0  0  0  0  0  0  0
    6.5215  -12.1796   26.4264 C   0  0  0  0  0  0  0  0  0  0  0  0
    6.6593  -11.2865   27.6405 C   0  0  0  0  0  0  0  0  0  0  0  0
    5.4581  -10.5730   27.9416 N   0  0  0  0  0  0  0  0  0  0  0  0
    9.1528  -15.6371   25.9578 C   0  0  0  0  0  0  0  0  0  0  0  0
    9.9969  -15.2119   26.9587 O   0  0  0  0  0  0  0  0  0  0  0  0
    8.6209  -16.7838   26.0384 O   0  0  0  0  0  0  0  0  0  0  0  0
  2  7  1  0
  2  1  1  6
  3  2  1  0
  4  3  1  0
  5  4  1  0
  6  5  2  0
  7  8  2  0
  9  5  1  0
 10  7  1  0
 10 11  1  0
 11 12  1  1
 12 13  1  0
 13 14  1  0
 14 18  1  0
 15 14  2  0
 16 17  2  0
 16 11  1  0
 19 16  1  0
 20 19  1  0
 20 21  1  1
 22 21  1  0
 23 22  1  0
 24 23  1  0
 25 24  1  0
 26 27  1  0
 26 20  1  0
 28 26  2  0
M  END
$$$$
