EEK.pdb
     RDKit          3D

 28 27  0  0  1  0  0  0  0  0999 V2000
   11.4268  -16.8672   18.7303 N   0  0  0  0  0  0  0  0  0  0  0  0
    9.9671  -16.9430   18.5065 C   0  0  1  0  0  0  0  0  0  0  0  0
    9.7820  -18.0247   17.4949 C   0  0  0  0  0  0  0  0  0  0  0  0
   11.0196  -18.7865   17.1750 C   0  0  0  0  0  0  0  0  0  0  0  0
   10.6597  -19.7896   16.1072 C   0  0  0  0  0  0  0  0  0  0  0  0
   10.5059  -20.9663   16.4075 O   0  0  0  0  0  0  0  0  0  0  0  0
    9.3435  -17.2701   19.7977 C   0  0  0  0  0  0  0  0  0  0  0  0
    8.0822  -17.4587   19.8441 O   0  0  0  0  0  0  0  0  0  0  0  0
   10.5121  -19.3485   14.8123 O   0  0  0  0  0  0  0  0  0  0  0  0
   10.0215  -17.4011   21.0155 N   0  0  0  0  0  0  0  0  0  0  0  0
    9.3389  -17.6385   22.3114 C   0  0  1  0  0  0  0  0  0  0  0  0
    9.8605  -18.9582   22.7661 C   0  0  0  0  0  0  0  0  0  0  0  0
   11.3071  -19.0654   23.0537 C   0  0  0  0  0  0  0  0  0  0  0  0
   11.6025  -20.3405   23.8196 C   0  0  0  0  0  0  0  0  0  0  0  0
   11.1549  -20.4444   25.0061 O   0  0  0  0  0  0  0  0  0  0  0  0
    9.5764  -16.5042   23.2008 C   0  0  0  0  0  0  0  0  0  0  0  0
   10.7014  -15.9494   23.2130 O   0  0  0  0  0  0  0  0  0  0  0  0
   12.3212  -21.3790   23.3072 O   0  0  0  0  0  0  0  0  0  0  0  0
    8.6056  -15.9653   24.0751 N   0  0  0  0  0  0  0  0  0  0  0  0
    8.9324  -14.8617   25.0032 C   0  0  1  0  0  0  0  0  0  0  0  0
    7.6584  -14.0969   25.2197 C   0  0  0  0  0  0  0  0  0  0  0  0
    7.7575  -12.9631   26.1904 C   0  0  0  0  0  0  0  0  0  0  0  0
    6.4411  -12.2782   26.4555 C   0  0  0  0  0  0  0  0  0  0  0  0
    6.5786  -11.1558   27.4613 C   0  0  0  0  0  0  0  0  0  0  0  0
    5.3230  -10.5690   27.8106 N   0  0  0  0  0  0  0  0  0  0  0  0
    9.4982  -15.3970   26.2451 C   0  0  0  0  0  0  0  0  0  0  0  0
    9.4776  -16.7393   26.5496 O   0  0  0  0  0  0  0  0  0  0  0  0
   10.0213  -14.5822   27.0618 O   0  0  0  0  0  0  0  0  0  0  0  0
  2  7  1  0
  2  1  1  1
  3  2  1  0
  4  3  1  0
  5  4  1  0
  6  5  2  0
  7  8  2  0
  9  5  1  0
 10  7  1  0
 10 11  1  0
 11 12  1  1
 12 13  1  0
 13 14  1  0
 14 18  1  0
 15 14  2  0
 16 17  2  0
 16 11  1  0
 19 16  1  0
 20 19  1  0
 20 21  1  1
 22 21  1  0
 23 22  1  0
 24 23  1  0
 25 24  1  0
 26 27  1  0
 26 20  1  0
 28 26  2  0
M  END
$$$$
