EEK.pdb
     RDKit          3D

 28 27  0  0  1  0  0  0  0  0999 V2000
   11.4081  -17.4392   18.0213 N   0  0  0  0  0  0  0  0  0  0  0  0
   12.1137  -17.4823   19.3201 C   0  0  1  0  0  0  0  0  0  0  0  0
   13.0662  -16.3337   19.2862 C   0  0  0  0  0  0  0  0  0  0  0  0
   13.8367  -16.1359   20.5437 C   0  0  0  0  0  0  0  0  0  0  0  0
   14.8063  -15.0067   20.2971 C   0  0  0  0  0  0  0  0  0  0  0  0
   14.8554  -14.0674   21.0804 O   0  0  0  0  0  0  0  0  0  0  0  0
   11.0981  -17.3377   20.3740 C   0  0  0  0  0  0  0  0  0  0  0  0
   10.1300  -16.5264   20.1916 O   0  0  0  0  0  0  0  0  0  0  0  0
   15.6175  -15.0660   19.1873 O   0  0  0  0  0  0  0  0  0  0  0  0
   11.0900  -18.0274   21.5923 N   0  0  0  0  0  0  0  0  0  0  0  0
    9.9395  -18.0209   22.5294 C   0  0  1  0  0  0  0  0  0  0  0  0
    9.9408  -19.3875   23.1236 C   0  0  0  0  0  0  0  0  0  0  0  0
    9.3542  -20.4861   22.3262 C   0  0  0  0  0  0  0  0  0  0  0  0
    9.4803  -21.8039   23.0658 C   0  0  0  0  0  0  0  0  0  0  0  0
    8.5207  -22.1617   23.8209 O   0  0  0  0  0  0  0  0  0  0  0  0
   10.0795  -16.9061   23.4629 C   0  0  0  0  0  0  0  0  0  0  0  0
   11.2200  -16.5704   23.8630 O   0  0  0  0  0  0  0  0  0  0  0  0
   10.5643  -22.6241   22.9665 O   0  0  0  0  0  0  0  0  0  0  0  0
    8.9952  -16.1514   23.9649 N   0  0  0  0  0  0  0  0  0  0  0  0
    9.1935  -15.1074   24.9930 C   0  0  1  0  0  0  0  0  0  0  0  0
    7.9332  -14.2913   25.0189 C   0  0  0  0  0  0  0  0  0  0  0  0
    7.8917  -13.2233   26.0653 C   0  0  0  0  0  0  0  0  0  0  0  0
    6.6095  -12.4306   26.0687 C   0  0  0  0  0  0  0  0  0  0  0  0
    6.6303  -11.3235   27.1003 C   0  0  0  0  0  0  0  0  0  0  0  0
    5.3815  -10.6352   27.1984 N   0  0  0  0  0  0  0  0  0  0  0  0
    9.5041  -15.7242   26.2860 C   0  0  0  0  0  0  0  0  0  0  0  0
   10.3053  -15.1133   27.2240 O   0  0  0  0  0  0  0  0  0  0  0  0
    9.0120  -16.8642   26.5365 O   0  0  0  0  0  0  0  0  0  0  0  0
  2  7  1  0
  2  1  1  6
  3  2  1  0
  4  3  1  0
  5  4  1  0
  6  5  2  0
  7  8  2  0
  9  5  1  0
 10  7  1  0
 10 11  1  0
 11 12  1  1
 12 13  1  0
 13 14  1  0
 14 18  1  0
 15 14  2  0
 16 17  2  0
 16 11  1  0
 19 16  1  0
 20 19  1  0
 20 21  1  1
 22 21  1  0
 23 22  1  0
 24 23  1  0
 25 24  1  0
 26 27  1  0
 26 20  1  0
 28 26  2  0
M  END
$$$$
