EEK.pdb
     RDKit          3D

 28 27  0  0  1  0  0  0  0  0999 V2000
    9.8678  -18.3395   19.6698 N   0  0  0  0  0  0  0  0  0  0  0  0
   10.3106  -17.0672   20.2793 C   0  0  1  0  0  0  0  0  0  0  0  0
    9.2219  -16.0907   19.9812 C   0  0  0  0  0  0  0  0  0  0  0  0
    7.9086  -16.4271   20.5946 C   0  0  0  0  0  0  0  0  0  0  0  0
    6.9464  -15.3296   20.2129 C   0  0  0  0  0  0  0  0  0  0  0  0
    7.3196  -14.4237   19.4792 O   0  0  0  0  0  0  0  0  0  0  0  0
   10.4704  -17.3060   21.7217 C   0  0  0  0  0  0  0  0  0  0  0  0
    9.5083  -17.8380   22.3698 O   0  0  0  0  0  0  0  0  0  0  0  0
    5.6624  -15.3792   20.7049 O   0  0  0  0  0  0  0  0  0  0  0  0
   11.6113  -16.9993   22.4729 N   0  0  0  0  0  0  0  0  0  0  0  0
   11.7385  -17.2865   23.9231 C   0  0  1  0  0  0  0  0  0  0  0  0
   13.1627  -17.6898   24.0950 C   0  0  0  0  0  0  0  0  0  0  0  0
   14.2043  -16.6798   23.8092 C   0  0  0  0  0  0  0  0  0  0  0  0
   15.5695  -17.3347   23.7260 C   0  0  0  0  0  0  0  0  0  0  0  0
   16.0775  -17.5174   22.5739 O   0  0  0  0  0  0  0  0  0  0  0  0
   11.2950  -16.1245   24.6893 C   0  0  0  0  0  0  0  0  0  0  0  0
   11.7611  -14.9906   24.4238 O   0  0  0  0  0  0  0  0  0  0  0  0
   16.2801  -17.7388   24.8166 O   0  0  0  0  0  0  0  0  0  0  0  0
   10.3501  -16.1806   25.7388 N   0  0  0  0  0  0  0  0  0  0  0  0
   10.0865  -15.0092   26.6016 C   0  0  1  0  0  0  0  0  0  0  0  0
    8.6984  -14.5414   26.2713 C   0  0  0  0  0  0  0  0  0  0  0  0
    8.2124  -13.3801   27.0792 C   0  0  0  0  0  0  0  0  0  0  0  0
    6.8093  -12.9499   26.7348 C   0  0  0  0  0  0  0  0  0  0  0  0
    6.3964  -11.7055   27.4907 C   0  0  0  0  0  0  0  0  0  0  0  0
    5.0728  -11.2748   27.1664 N   0  0  0  0  0  0  0  0  0  0  0  0
   10.2484  -15.3742   28.0122 C   0  0  0  0  0  0  0  0  0  0  0  0
   10.3371  -16.6819   28.4327 O   0  0  0  0  0  0  0  0  0  0  0  0
   10.3052  -14.4410   28.8668 O   0  0  0  0  0  0  0  0  0  0  0  0
  2  7  1  0
  2  1  1  6
  3  2  1  0
  4  3  1  0
  5  4  1  0
  6  5  2  0
  7  8  2  0
  9  5  1  0
 10  7  1  0
 10 11  1  0
 11 12  1  6
 12 13  1  0
 13 14  1  0
 14 18  1  0
 15 14  2  0
 16 17  2  0
 16 11  1  0
 19 16  1  0
 20 19  1  0
 20 21  1  1
 22 21  1  0
 23 22  1  0
 24 23  1  0
 25 24  1  0
 26 27  1  0
 26 20  1  0
 28 26  2  0
M  END
$$$$
