EEK.pdb
     RDKit          3D

 28 27  0  0  1  0  0  0  0  0999 V2000
   11.9026  -16.9851   17.8865 N   0  0  0  0  0  0  0  0  0  0  0  0
   12.4114  -16.8434   19.2676 C   0  0  1  0  0  0  0  0  0  0  0  0
   13.0820  -15.5105   19.3028 C   0  0  0  0  0  0  0  0  0  0  0  0
   14.0656  -15.2874   18.2088 C   0  0  0  0  0  0  0  0  0  0  0  0
   14.7482  -13.9712   18.4873 C   0  0  0  0  0  0  0  0  0  0  0  0
   14.1117  -12.9287   18.4066 O   0  0  0  0  0  0  0  0  0  0  0  0
   11.2517  -16.9118   20.1696 C   0  0  0  0  0  0  0  0  0  0  0  0
   10.1596  -16.3550   19.8145 O   0  0  0  0  0  0  0  0  0  0  0  0
   16.0811  -13.9800   18.8288 O   0  0  0  0  0  0  0  0  0  0  0  0
   11.2298  -17.5505   21.4152 N   0  0  0  0  0  0  0  0  0  0  0  0
   10.0271  -17.6138   22.2820 C   0  0  1  0  0  0  0  0  0  0  0  0
    9.9842  -19.0281   22.7495 C   0  0  0  0  0  0  0  0  0  0  0  0
   10.3555  -20.0847   21.7837 C   0  0  0  0  0  0  0  0  0  0  0  0
    9.1236  -20.6086   21.0712 C   0  0  0  0  0  0  0  0  0  0  0  0
    8.9454  -20.2732   19.8569 O   0  0  0  0  0  0  0  0  0  0  0  0
   10.1209  -16.5891   23.3188 C   0  0  0  0  0  0  0  0  0  0  0  0
   11.2378  -16.3092   23.8164 O   0  0  0  0  0  0  0  0  0  0  0  0
    8.1979  -21.4169   21.6605 O   0  0  0  0  0  0  0  0  0  0  0  0
    9.0157  -15.8643   23.8195 N   0  0  0  0  0  0  0  0  0  0  0  0
    9.1685  -14.8893   24.9205 C   0  0  1  0  0  0  0  0  0  0  0  0
    7.8389  -14.2085   25.0732 C   0  0  0  0  0  0  0  0  0  0  0  0
    7.7706  -13.1902   26.1667 C   0  0  0  0  0  0  0  0  0  0  0  0
    6.4171  -12.5408   26.3035 C   0  0  0  0  0  0  0  0  0  0  0  0
    6.4176  -11.4439   27.3462 C   0  0  0  0  0  0  0  0  0  0  0  0
    5.1805  -10.7300   27.3987 N   0  0  0  0  0  0  0  0  0  0  0  0
    9.6075  -15.5712   26.1417 C   0  0  0  0  0  0  0  0  0  0  0  0
    9.4391  -16.9236   26.3356 O   0  0  0  0  0  0  0  0  0  0  0  0
   10.1595  -14.8774   27.0464 O   0  0  0  0  0  0  0  0  0  0  0  0
  2  7  1  0
  2  1  1  6
  3  2  1  0
  4  3  1  0
  5  4  1  0
  6  5  2  0
  7  8  2  0
  9  5  1  0
 10  7  1  0
 10 11  1  0
 11 12  1  1
 12 13  1  0
 13 14  1  0
 14 18  1  0
 15 14  2  0
 16 17  2  0
 16 11  1  0
 19 16  1  0
 20 19  1  0
 20 21  1  1
 22 21  1  0
 23 22  1  0
 24 23  1  0
 25 24  1  0
 26 27  1  0
 26 20  1  0
 28 26  2  0
M  END
$$$$
