EEK.pdb
     RDKit          3D

 28 27  0  0  1  0  0  0  0  0999 V2000
    8.1165  -14.0652   17.5362 N   0  0  0  0  0  0  0  0  0  0  0  0
    9.1217  -13.2918   18.2964 C   0  0  1  0  0  0  0  0  0  0  0  0
    8.4074  -12.8149   19.5170 C   0  0  0  0  0  0  0  0  0  0  0  0
    8.1094  -13.8808   20.5116 C   0  0  0  0  0  0  0  0  0  0  0  0
    7.4852  -13.2083   21.7092 C   0  0  0  0  0  0  0  0  0  0  0  0
    7.3662  -11.9902   21.7273 O   0  0  0  0  0  0  0  0  0  0  0  0
   10.2275  -14.2075   18.6156 C   0  0  0  0  0  0  0  0  0  0  0  0
    9.9784  -15.4513   18.7557 O   0  0  0  0  0  0  0  0  0  0  0  0
    7.0620  -13.9920   22.7580 O   0  0  0  0  0  0  0  0  0  0  0  0
   11.5666  -13.8346   18.7823 N   0  0  0  0  0  0  0  0  0  0  0  0
   12.6626  -14.8048   19.0257 C   0  0  1  0  0  0  0  0  0  0  0  0
   13.7706  -14.3371   18.1458 C   0  0  0  0  0  0  0  0  0  0  0  0
   15.0413  -15.0928   18.1773 C   0  0  0  0  0  0  0  0  0  0  0  0
   16.0719  -14.4349   17.2802 C   0  0  0  0  0  0  0  0  0  0  0  0
   17.0371  -13.8148   17.8304 O   0  0  0  0  0  0  0  0  0  0  0  0
   12.9499  -14.8645   20.4567 C   0  0  0  0  0  0  0  0  0  0  0  0
   13.1409  -13.8027   21.0967 O   0  0  0  0  0  0  0  0  0  0  0  0
   16.0197  -14.4708   15.9187 O   0  0  0  0  0  0  0  0  0  0  0  0
   13.0303  -16.0639   21.1999 N   0  0  0  0  0  0  0  0  0  0  0  0
   13.2989  -16.0529   22.6538 C   0  0  1  0  0  0  0  0  0  0  0  0
   12.5829  -17.2417   23.2275 C   0  0  0  0  0  0  0  0  0  0  0  0
   12.8258  -17.4855   24.6831 C   0  0  0  0  0  0  0  0  0  0  0  0
   12.0350  -18.6407   25.2422 C   0  0  0  0  0  0  0  0  0  0  0  0
   12.1469  -18.7277   26.7489 C   0  0  0  0  0  0  0  0  0  0  0  0
   11.2960  -19.7297   27.3099 N   0  0  0  0  0  0  0  0  0  0  0  0
   14.7437  -16.0793   22.9008 C   0  0  0  0  0  0  0  0  0  0  0  0
   15.6487  -16.5036   21.9543 O   0  0  0  0  0  0  0  0  0  0  0  0
   15.1621  -15.6964   24.0334 O   0  0  0  0  0  0  0  0  0  0  0  0
  2  7  1  0
  2  1  1  6
  3  2  1  0
  4  3  1  0
  5  4  1  0
  6  5  2  0
  7  8  2  0
  9  5  1  0
 10  7  1  0
 10 11  1  0
 11 12  1  6
 12 13  1  0
 13 14  1  0
 14 18  1  0
 15 14  2  0
 16 17  2  0
 16 11  1  0
 19 16  1  0
 20 19  1  0
 20 21  1  1
 22 21  1  0
 23 22  1  0
 24 23  1  0
 25 24  1  0
 26 27  1  0
 26 20  1  0
 28 26  2  0
M  END
$$$$
