EEK.pdb
     RDKit          3D

 28 27  0  0  1  0  0  0  0  0999 V2000
   11.8837  -13.7310   18.0473 N   0  0  0  0  0  0  0  0  0  0  0  0
   12.2076  -15.1240   18.4229 C   0  0  1  0  0  0  0  0  0  0  0  0
   13.6727  -15.1219   18.7077 C   0  0  0  0  0  0  0  0  0  0  0  0
   14.0662  -14.3264   19.9020 C   0  0  0  0  0  0  0  0  0  0  0  0
   15.5666  -14.4241   20.0256 C   0  0  0  0  0  0  0  0  0  0  0  0
   16.2014  -15.0772   19.2077 O   0  0  0  0  0  0  0  0  0  0  0  0
   11.4058  -15.4539   19.6109 C   0  0  0  0  0  0  0  0  0  0  0  0
   10.8522  -14.5078   20.2644 O   0  0  0  0  0  0  0  0  0  0  0  0
   16.1857  -13.7685   21.0648 O   0  0  0  0  0  0  0  0  0  0  0  0
   11.1828  -16.7444   20.1058 N   0  0  0  0  0  0  0  0  0  0  0  0
   10.2363  -17.0465   21.2079 C   0  0  1  0  0  0  0  0  0  0  0  0
    9.7618  -18.4289   20.9172 C   0  0  0  0  0  0  0  0  0  0  0  0
    8.6491  -18.5877   19.9562 C   0  0  0  0  0  0  0  0  0  0  0  0
    8.3563  -20.0571   19.7221 C   0  0  0  0  0  0  0  0  0  0  0  0
    7.6153  -20.3710   18.7366 O   0  0  0  0  0  0  0  0  0  0  0  0
   10.9044  -16.8450   22.4912 C   0  0  0  0  0  0  0  0  0  0  0  0
   12.1396  -17.0421   22.5862 O   0  0  0  0  0  0  0  0  0  0  0  0
    8.8422  -21.0579   20.5094 O   0  0  0  0  0  0  0  0  0  0  0  0
   10.2464  -16.4304   23.6712 N   0  0  0  0  0  0  0  0  0  0  0  0
   10.9909  -16.1966   24.9271 C   0  0  1  0  0  0  0  0  0  0  0  0
   10.0718  -15.4237   25.8287 C   0  0  0  0  0  0  0  0  0  0  0  0
   10.6079  -15.1541   27.1988 C   0  0  0  0  0  0  0  0  0  0  0  0
    9.6733  -14.3490   28.0653 C   0  0  0  0  0  0  0  0  0  0  0  0
   10.2261  -14.1466   29.4596 C   0  0  0  0  0  0  0  0  0  0  0  0
    9.3138  -13.4646   30.3228 N   0  0  0  0  0  0  0  0  0  0  0  0
   11.4207  -17.4737   25.5047 C   0  0  0  0  0  0  0  0  0  0  0  0
   10.7587  -18.6559   25.2618 O   0  0  0  0  0  0  0  0  0  0  0  0
   12.4405  -17.4751   26.2560 O   0  0  0  0  0  0  0  0  0  0  0  0
  2  7  1  0
  2  1  1  1
  3  2  1  0
  4  3  1  0
  5  4  1  0
  6  5  2  0
  7  8  2  0
  9  5  1  0
 10  7  1  0
 10 11  1  0
 11 12  1  6
 12 13  1  0
 13 14  1  0
 14 18  1  0
 15 14  2  0
 16 17  2  0
 16 11  1  0
 19 16  1  0
 20 19  1  0
 20 21  1  1
 22 21  1  0
 23 22  1  0
 24 23  1  0
 25 24  1  0
 26 27  1  0
 26 20  1  0
 28 26  2  0
M  END
$$$$
