NVW.pdb
     RDKit          3D

 30 31  0  0  1  0  0  0  0  0999 V2000
    9.1520  -21.4559   18.1390 N   0  0  0  0  0  0  0  0  0  0  0  0
    8.4763  -20.2946   18.5377 C   0  0  0  0  0  0  0  0  0  0  0  0
    7.3156  -20.0731   18.1563 O   0  0  0  0  0  0  0  0  0  0  0  0
    9.1280  -19.3060   19.4205 C   0  0  0  0  0  0  0  0  0  0  0  0
    9.0041  -17.9560   18.7421 C   0  0  2  0  0  0  0  0  0  0  0  0
    9.7504  -17.8985   17.5155 N   0  0  0  0  0  0  0  0  0  0  0  0
    9.4012  -16.8494   19.6363 C   0  0  0  0  0  0  0  0  0  0  0  0
   10.6161  -16.5725   19.8725 O   0  0  0  0  0  0  0  0  0  0  0  0
    8.0582  -12.8964   20.0789 C   0  0  0  0  0  0  0  0  0  0  0  0
    7.9904  -13.7830   21.3032 C   0  0  1  0  0  0  0  0  0  0  0  0
    6.5702  -14.0886   21.7097 C   0  0  0  0  0  0  0  0  0  0  0  0
    8.8565  -14.9862   21.2149 C   0  0  2  0  0  0  0  0  0  0  0  0
    8.4888  -16.0038   20.3049 N   0  0  0  0  0  0  0  0  0  0  0  0
    8.9297  -15.5845   22.5887 C   0  0  0  0  0  0  0  0  0  0  0  0
    8.2956  -16.6439   22.8662 O   0  0  0  0  0  0  0  0  0  0  0  0
    9.7144  -14.9598   23.5831 N   0  0  0  0  0  0  0  0  0  0  0  0
    9.8206  -15.5662   24.9096 C   0  0  1  0  0  0  0  0  0  0  0  0
    8.5408  -16.2395   25.2822 C   0  0  0  0  0  0  0  0  0  0  0  0
    7.4681  -15.2788   25.5475 C   0  0  0  0  0  0  0  0  0  0  0  0
    6.1227  -15.4496   25.2282 C   0  0  0  0  0  0  0  0  0  0  0  0
    5.4319  -14.3566   25.5771 N   0  0  0  0  0  0  0  0  0  0  0  0
    6.2589  -13.4551   26.1204 C   0  0  0  0  0  0  0  0  0  0  0  0
    6.0286  -12.2003   26.6449 C   0  0  0  0  0  0  0  0  0  0  0  0
    7.0411  -11.4423   27.1830 C   0  0  0  0  0  0  0  0  0  0  0  0
    8.3026  -12.0129   27.1669 C   0  0  0  0  0  0  0  0  0  0  0  0
    8.5531  -13.2635   26.6474 C   0  0  0  0  0  0  0  0  0  0  0  0
    7.5210  -14.0074   26.1109 C   0  0  0  0  0  0  0  0  0  0  0  0
   11.0230  -16.3755   25.0472 C   0  0  0  0  0  0  0  0  0  0  0  0
   11.3873  -16.9938   26.0675 O   0  0  0  0  0  0  0  0  0  0  0  0
   11.8777  -16.4892   23.9341 O   0  0  0  0  0  0  0  0  0  0  0  0
  2  4  1  0
  2  1  1  0
  3  2  2  0
  5  4  1  0
  5  6  1  6
  7  5  1  0
  8  7  2  0
 10  9  1  6
 11 10  1  0
 12 10  1  0
 12 13  1  6
 13  7  1  0
 14 12  1  0
 15 14  2  0
 16 14  1  0
 17 16  1  0
 17 18  1  6
 19 18  1  0
 20 19  2  0
 21 22  1  0
 21 20  1  0
 22 27  2  0
 23 22  1  0
 23 24  2  0
 24 25  1  0
 25 26  2  0
 27 19  1  0
 27 26  1  0
 28 17  1  0
 28 30  1  0
 29 28  2  0
M  END
$$$$
