NVW.pdb
     RDKit          3D

 30 31  0  0  1  0  0  0  0  0999 V2000
   15.0031  -16.7803   17.0814 N   0  0  0  0  0  0  0  0  0  0  0  0
   13.9486  -16.9999   17.9781 C   0  0  0  0  0  0  0  0  0  0  0  0
   13.3332  -18.0783   17.9821 O   0  0  0  0  0  0  0  0  0  0  0  0
   13.5435  -15.9546   18.9396 C   0  0  0  0  0  0  0  0  0  0  0  0
   12.2093  -15.4110   18.4677 C   0  0  2  0  0  0  0  0  0  0  0  0
   12.3587  -14.4886   17.3761 N   0  0  0  0  0  0  0  0  0  0  0  0
   11.4472  -14.7852   19.5674 C   0  0  0  0  0  0  0  0  0  0  0  0
   11.7720  -13.6644   20.0640 O   0  0  0  0  0  0  0  0  0  0  0  0
    7.8832  -13.3749   20.0230 C   0  0  0  0  0  0  0  0  0  0  0  0
    8.1373  -14.4861   21.0181 C   0  0  1  0  0  0  0  0  0  0  0  0
    7.3097  -15.7136   20.7279 C   0  0  0  0  0  0  0  0  0  0  0  0
    9.5781  -14.7761   21.2307 C   0  0  2  0  0  0  0  0  0  0  0  0
   10.3029  -15.3576   20.1652 N   0  0  0  0  0  0  0  0  0  0  0  0
    9.6793  -15.6830   22.4215 C   0  0  0  0  0  0  0  0  0  0  0  0
   10.1145  -16.8648   22.2980 O   0  0  0  0  0  0  0  0  0  0  0  0
    9.2854  -15.2136   23.6941 N   0  0  0  0  0  0  0  0  0  0  0  0
    9.5269  -16.0383   24.8774 C   0  0  1  0  0  0  0  0  0  0  0  0
    9.3816  -15.2253   26.1216 C   0  0  0  0  0  0  0  0  0  0  0  0
    8.0592  -14.6053   26.2249 C   0  0  0  0  0  0  0  0  0  0  0  0
    6.8376  -15.2627   26.0962 C   0  0  0  0  0  0  0  0  0  0  0  0
    5.8349  -14.3819   26.2070 N   0  0  0  0  0  0  0  0  0  0  0  0
    6.3327  -13.1554   26.4065 C   0  0  0  0  0  0  0  0  0  0  0  0
    5.7154  -11.9366   26.5974 C   0  0  0  0  0  0  0  0  0  0  0  0
    6.4348  -10.7852   26.8120 C   0  0  0  0  0  0  0  0  0  0  0  0
    7.8126  -10.9223   26.8250 C   0  0  0  0  0  0  0  0  0  0  0  0
    8.4475  -12.1296   26.6358 C   0  0  0  0  0  0  0  0  0  0  0  0
    7.7051  -13.2737   26.4209 C   0  0  0  0  0  0  0  0  0  0  0  0
    8.7688  -17.2808   24.8430 C   0  0  0  0  0  0  0  0  0  0  0  0
    8.9421  -18.2750   25.5761 O   0  0  0  0  0  0  0  0  0  0  0  0
    7.7312  -17.3995   23.8986 O   0  0  0  0  0  0  0  0  0  0  0  0
  2  4  1  0
  2  1  1  0
  3  2  2  0
  5  4  1  0
  5  6  1  6
  7  5  1  0
  8  7  2  0
 10  9  1  6
 11 10  1  0
 12 10  1  0
 12 13  1  6
 13  7  1  0
 14 12  1  0
 15 14  2  0
 16 14  1  0
 17 16  1  0
 17 18  1  1
 19 18  1  0
 20 19  2  0
 21 22  1  0
 21 20  1  0
 22 27  2  0
 23 22  1  0
 23 24  2  0
 24 25  1  0
 25 26  2  0
 27 19  1  0
 27 26  1  0
 28 17  1  0
 28 30  1  0
 29 28  2  0
M  END
$$$$
