NVW.pdb
     RDKit          3D

 30 31  0  0  1  0  0  0  0  0999 V2000
   10.2640  -20.6920   17.6554 N   0  0  0  0  0  0  0  0  0  0  0  0
    9.2557  -19.7256   17.7717 C   0  0  0  0  0  0  0  0  0  0  0  0
    8.0584  -20.0452   17.6946 O   0  0  0  0  0  0  0  0  0  0  0  0
    9.5923  -18.3040   17.9884 C   0  0  0  0  0  0  0  0  0  0  0  0
    9.4678  -18.0405   19.4761 C   0  0  2  0  0  0  0  0  0  0  0  0
    8.2512  -18.5790   20.0190 N   0  0  0  0  0  0  0  0  0  0  0  0
    9.5788  -16.6023   19.7940 C   0  0  0  0  0  0  0  0  0  0  0  0
   10.5545  -15.8949   19.3991 O   0  0  0  0  0  0  0  0  0  0  0  0
    7.8578  -12.1862   21.0641 C   0  0  0  0  0  0  0  0  0  0  0  0
    7.6754  -13.5881   20.5245 C   0  0  1  0  0  0  0  0  0  0  0  0
    7.3773  -13.5972   19.0457 C   0  0  0  0  0  0  0  0  0  0  0  0
    8.7596  -14.5230   20.9191 C   0  0  2  0  0  0  0  0  0  0  0  0
    8.6301  -15.8825   20.5533 N   0  0  0  0  0  0  0  0  0  0  0  0
    8.8935  -14.4459   22.4114 C   0  0  0  0  0  0  0  0  0  0  0  0
    8.0666  -13.7804   23.1003 O   0  0  0  0  0  0  0  0  0  0  0  0
    9.9528  -15.1232   23.0548 N   0  0  0  0  0  0  0  0  0  0  0  0
    9.7768  -15.6107   24.4223 C   0  0  1  0  0  0  0  0  0  0  0  0
    8.4772  -16.3337   24.5580 C   0  0  0  0  0  0  0  0  0  0  0  0
    7.4557  -15.5152   25.2142 C   0  0  0  0  0  0  0  0  0  0  0  0
    6.1295  -15.8838   25.4296 C   0  0  0  0  0  0  0  0  0  0  0  0
    5.4695  -14.8781   26.0184 N   0  0  0  0  0  0  0  0  0  0  0  0
    6.2993  -13.8454   26.2095 C   0  0  0  0  0  0  0  0  0  0  0  0
    6.1032  -12.6077   26.7862 C   0  0  0  0  0  0  0  0  0  0  0  0
    7.1217  -11.6919   26.9016 C   0  0  0  0  0  0  0  0  0  0  0  0
    8.3529  -12.0858   26.4055 C   0  0  0  0  0  0  0  0  0  0  0  0
    8.5687  -13.3162   25.8257 C   0  0  0  0  0  0  0  0  0  0  0  0
    7.5309  -14.2206   25.7193 C   0  0  0  0  0  0  0  0  0  0  0  0
   10.9501  -16.3254   24.9044 C   0  0  0  0  0  0  0  0  0  0  0  0
   11.5203  -16.1589   26.0012 O   0  0  0  0  0  0  0  0  0  0  0  0
   11.5182  -17.3074   24.0704 O   0  0  0  0  0  0  0  0  0  0  0  0
  2  4  1  0
  2  1  1  0
  3  2  2  0
  5  4  1  0
  5  6  1  6
  7  5  1  0
  8  7  2  0
 10  9  1  6
 11 10  1  0
 12 10  1  0
 12 13  1  1
 13  7  1  0
 14 12  1  0
 15 14  2  0
 16 14  1  0
 17 16  1  0
 17 18  1  6
 19 18  1  0
 20 19  2  0
 21 22  1  0
 21 20  1  0
 22 27  2  0
 23 22  1  0
 23 24  2  0
 24 25  1  0
 25 26  2  0
 27 19  1  0
 27 26  1  0
 28 17  1  0
 28 30  1  0
 29 28  2  0
M  END
$$$$
