NVW.pdb
     RDKit          3D

 30 31  0  0  1  0  0  0  0  0999 V2000
   14.3617  -17.8146   17.0010 N   0  0  0  0  0  0  0  0  0  0  0  0
   13.2590  -17.9774   17.8505 C   0  0  0  0  0  0  0  0  0  0  0  0
   12.4863  -18.9391   17.7102 O   0  0  0  0  0  0  0  0  0  0  0  0
   12.9889  -17.0095   18.9329 C   0  0  0  0  0  0  0  0  0  0  0  0
   11.7546  -16.2270   18.5302 C   0  0  2  0  0  0  0  0  0  0  0  0
   12.0194  -15.3234   17.4448 N   0  0  0  0  0  0  0  0  0  0  0  0
   11.1650  -15.4984   19.6719 C   0  0  0  0  0  0  0  0  0  0  0  0
   11.7072  -14.4649   20.1682 O   0  0  0  0  0  0  0  0  0  0  0  0
    7.6666  -13.7461   20.1649 C   0  0  0  0  0  0  0  0  0  0  0  0
    7.9297  -14.7794   21.2385 C   0  0  1  0  0  0  0  0  0  0  0  0
    7.0072  -15.9678   21.1263 C   0  0  0  0  0  0  0  0  0  0  0  0
    9.3621  -15.1481   21.3710 C   0  0  2  0  0  0  0  0  0  0  0  0
    9.9629  -15.8691   20.3137 N   0  0  0  0  0  0  0  0  0  0  0  0
    9.5009  -15.9520   22.6300 C   0  0  0  0  0  0  0  0  0  0  0  0
    9.7433  -17.1930   22.5802 O   0  0  0  0  0  0  0  0  0  0  0  0
    9.3602  -15.3179   23.8842 N   0  0  0  0  0  0  0  0  0  0  0  0
    9.4723  -16.1057   25.1112 C   0  0  1  0  0  0  0  0  0  0  0  0
    9.2923  -15.2355   26.3113 C   0  0  0  0  0  0  0  0  0  0  0  0
    7.9862  -14.5738   26.3229 C   0  0  0  0  0  0  0  0  0  0  0  0
    6.7515  -15.2032   26.1789 C   0  0  0  0  0  0  0  0  0  0  0  0
    5.7724  -14.2898   26.1971 N   0  0  0  0  0  0  0  0  0  0  0  0
    6.2984  -13.0683   26.3487 C   0  0  0  0  0  0  0  0  0  0  0  0
    5.7110  -11.8238   26.4443 C   0  0  0  0  0  0  0  0  0  0  0  0
    6.4555  -10.6825   26.6248 C   0  0  0  0  0  0  0  0  0  0  0  0
    7.8268  -10.8571   26.7046 C   0  0  0  0  0  0  0  0  0  0  0  0
    8.4321  -12.0905   26.6107 C   0  0  0  0  0  0  0  0  0  0  0  0
    7.6649  -13.2239   26.4286 C   0  0  0  0  0  0  0  0  0  0  0  0
    8.6458  -17.3037   25.0704 C   0  0  0  0  0  0  0  0  0  0  0  0
    7.6343  -17.4823   24.3628 O   0  0  0  0  0  0  0  0  0  0  0  0
    9.0005  -18.3834   25.9017 O   0  0  0  0  0  0  0  0  0  0  0  0
  2  4  1  0
  2  1  1  0
  3  2  2  0
  5  4  1  0
  5  6  1  6
  7  5  1  0
  8  7  2  0
 10  9  1  6
 11 10  1  0
 12 10  1  0
 12 13  1  6
 13  7  1  0
 14 12  1  0
 15 14  2  0
 16 14  1  0
 17 16  1  0
 17 18  1  1
 19 18  1  0
 20 19  2  0
 21 22  1  0
 21 20  1  0
 22 27  2  0
 23 22  1  0
 23 24  2  0
 24 25  1  0
 25 26  2  0
 27 19  1  0
 27 26  1  0
 28 17  1  0
 28 30  1  0
 29 28  2  0
M  END
$$$$
