NVW.pdb
     RDKit          3D

 30 31  0  0  1  0  0  0  0  0999 V2000
    8.0785  -12.1997   16.9336 N   0  0  0  0  0  0  0  0  0  0  0  0
    8.0052  -13.5915   16.7870 C   0  0  0  0  0  0  0  0  0  0  0  0
    8.2800  -14.1308   15.7029 O   0  0  0  0  0  0  0  0  0  0  0  0
    7.5991  -14.4506   17.9176 C   0  0  0  0  0  0  0  0  0  0  0  0
    8.8657  -14.8494   18.6490 C   0  0  2  0  0  0  0  0  0  0  0  0
    9.7951  -15.5267   17.7874 N   0  0  0  0  0  0  0  0  0  0  0  0
    8.5796  -15.6716   19.8422 C   0  0  0  0  0  0  0  0  0  0  0  0
    7.7419  -15.3150   20.7252 O   0  0  0  0  0  0  0  0  0  0  0  0
    9.0726  -19.8639   22.5224 C   0  0  0  0  0  0  0  0  0  0  0  0
    9.2414  -19.1490   21.1995 C   0  0  1  0  0  0  0  0  0  0  0  0
    8.5323  -19.8577   20.0722 C   0  0  0  0  0  0  0  0  0  0  0  0
    8.9469  -17.6950   21.2674 C   0  0  2  0  0  0  0  0  0  0  0  0
    9.1953  -16.9126   20.1163 N   0  0  0  0  0  0  0  0  0  0  0  0
    9.7471  -17.1308   22.4040 C   0  0  0  0  0  0  0  0  0  0  0  0
   10.9804  -16.8837   22.2654 O   0  0  0  0  0  0  0  0  0  0  0  0
    9.1181  -16.8718   23.6418 N   0  0  0  0  0  0  0  0  0  0  0  0
    9.9072  -16.3641   24.7635 C   0  0  1  0  0  0  0  0  0  0  0  0
    9.6726  -14.9012   24.9500 C   0  0  0  0  0  0  0  0  0  0  0  0
    8.3015  -14.6114   25.3744 C   0  0  0  0  0  0  0  0  0  0  0  0
    7.2563  -15.5303   25.4398 C   0  0  0  0  0  0  0  0  0  0  0  0
    6.1336  -14.9128   25.8293 N   0  0  0  0  0  0  0  0  0  0  0  0
    6.3808  -13.6127   26.0301 C   0  0  0  0  0  0  0  0  0  0  0  0
    5.5678  -12.5800   26.4488 C   0  0  0  0  0  0  0  0  0  0  0  0
    6.0456  -11.3017   26.6127 C   0  0  0  0  0  0  0  0  0  0  0  0
    7.3886  -11.1138   26.3330 C   0  0  0  0  0  0  0  0  0  0  0  0
    8.2163  -12.1313   25.9132 C   0  0  0  0  0  0  0  0  0  0  0  0
    7.7150  -13.4079   25.7544 C   0  0  0  0  0  0  0  0  0  0  0  0
    9.7550  -17.1849   25.9563 C   0  0  0  0  0  0  0  0  0  0  0  0
    8.8672  -18.0367   26.1612 O   0  0  0  0  0  0  0  0  0  0  0  0
   10.6885  -17.0221   26.9978 O   0  0  0  0  0  0  0  0  0  0  0  0
  2  4  1  0
  2  1  1  0
  3  2  2  0
  5  4  1  0
  5  6  1  6
  7  5  1  0
  8  7  2  0
 10  9  1  1
 11 10  1  0
 12 10  1  0
 12 13  1  6
 13  7  1  0
 14 12  1  0
 15 14  2  0
 16 14  1  0
 17 16  1  0
 17 18  1  1
 19 18  1  0
 20 19  2  0
 21 22  1  0
 21 20  1  0
 22 27  2  0
 23 22  1  0
 23 24  2  0
 24 25  1  0
 25 26  2  0
 27 19  1  0
 27 26  1  0
 28 17  1  0
 28 30  1  0
 29 28  2  0
M  END
$$$$
