NVW.pdb
     RDKit          3D

 30 31  0  0  1  0  0  0  0  0999 V2000
    8.6575  -21.0130   18.8605 N   0  0  0  0  0  0  0  0  0  0  0  0
    9.8442  -20.3110   18.6097 C   0  0  0  0  0  0  0  0  0  0  0  0
   10.6111  -20.6655   17.6998 O   0  0  0  0  0  0  0  0  0  0  0  0
   10.2120  -19.1331   19.4213 C   0  0  0  0  0  0  0  0  0  0  0  0
    9.5604  -17.9273   18.7737 C   0  0  2  0  0  0  0  0  0  0  0  0
   10.1391  -17.6243   17.4937 N   0  0  0  0  0  0  0  0  0  0  0  0
    9.6026  -16.7388   19.6498 C   0  0  0  0  0  0  0  0  0  0  0  0
   10.6466  -16.0306   19.7802 O   0  0  0  0  0  0  0  0  0  0  0  0
    7.5198  -13.1040   22.2773 C   0  0  0  0  0  0  0  0  0  0  0  0
    7.4218  -14.2013   21.2401 C   0  0  1  0  0  0  0  0  0  0  0  0
    7.1451  -13.6599   19.8595 C   0  0  0  0  0  0  0  0  0  0  0  0
    8.5500  -15.1659   21.2863 C   0  0  2  0  0  0  0  0  0  0  0  0
    8.5086  -16.2786   20.4151 N   0  0  0  0  0  0  0  0  0  0  0  0
    8.6462  -15.6721   22.6952 C   0  0  0  0  0  0  0  0  0  0  0  0
    7.9825  -16.6843   23.0644 O   0  0  0  0  0  0  0  0  0  0  0  0
    9.4864  -15.0131   23.6197 N   0  0  0  0  0  0  0  0  0  0  0  0
    9.8283  -15.6670   24.8823 C   0  0  1  0  0  0  0  0  0  0  0  0
    8.6072  -16.2382   25.5245 C   0  0  0  0  0  0  0  0  0  0  0  0
    7.6048  -15.2115   25.8160 C   0  0  0  0  0  0  0  0  0  0  0  0
    6.2346  -15.3211   25.5885 C   0  0  0  0  0  0  0  0  0  0  0  0
    5.6250  -14.1799   25.9341 N   0  0  0  0  0  0  0  0  0  0  0  0
    6.5307  -13.3046   26.3871 C   0  0  0  0  0  0  0  0  0  0  0  0
    6.3997  -12.0200   26.8725 C   0  0  0  0  0  0  0  0  0  0  0  0
    7.4825  -11.2980   27.3148 C   0  0  0  0  0  0  0  0  0  0  0  0
    8.7092  -11.9363   27.2438 C   0  0  0  0  0  0  0  0  0  0  0  0
    8.8608  -13.2174   26.7619 C   0  0  0  0  0  0  0  0  0  0  0  0
    7.7594  -13.9243   26.3219 C   0  0  0  0  0  0  0  0  0  0  0  0
   10.9524  -16.5812   24.7388 C   0  0  0  0  0  0  0  0  0  0  0  0
   11.5707  -16.8357   23.6859 O   0  0  0  0  0  0  0  0  0  0  0  0
   11.4077  -17.2586   25.8862 O   0  0  0  0  0  0  0  0  0  0  0  0
  2  4  1  0
  2  1  1  0
  3  2  2  0
  5  4  1  0
  5  6  1  6
  7  5  1  0
  8  7  2  0
 10  9  1  1
 11 10  1  0
 12 10  1  0
 12 13  1  6
 13  7  1  0
 14 12  1  0
 15 14  2  0
 16 14  1  0
 17 16  1  0
 17 18  1  6
 19 18  1  0
 20 19  2  0
 21 22  1  0
 21 20  1  0
 22 27  2  0
 23 22  1  0
 23 24  2  0
 24 25  1  0
 25 26  2  0
 27 19  1  0
 27 26  1  0
 28 17  1  0
 28 30  1  0
 29 28  2  0
M  END
$$$$
