NVW.pdb
     RDKit          3D

 30 31  0  0  1  0  0  0  0  0999 V2000
    8.8925  -21.5161   20.0879 N   0  0  0  0  0  0  0  0  0  0  0  0
    9.0790  -20.4957   19.1455 C   0  0  0  0  0  0  0  0  0  0  0  0
    8.7053  -20.6411   17.9703 O   0  0  0  0  0  0  0  0  0  0  0  0
    9.7247  -19.2232   19.5265 C   0  0  0  0  0  0  0  0  0  0  0  0
    8.8867  -18.1065   18.9359 C   0  0  2  0  0  0  0  0  0  0  0  0
    8.9783  -18.0639   17.5026 N   0  0  0  0  0  0  0  0  0  0  0  0
    9.2339  -16.7911   19.5113 C   0  0  0  0  0  0  0  0  0  0  0  0
   10.4344  -16.3998   19.6303 O   0  0  0  0  0  0  0  0  0  0  0  0
    8.1821  -12.1928   21.0340 C   0  0  0  0  0  0  0  0  0  0  0  0
    7.7580  -13.4471   20.3016 C   0  0  1  0  0  0  0  0  0  0  0  0
    7.5540  -13.2063   18.8264 C   0  0  0  0  0  0  0  0  0  0  0  0
    8.6091  -14.6269   20.6003 C   0  0  2  0  0  0  0  0  0  0  0  0
    8.2856  -15.8540   19.9771 N   0  0  0  0  0  0  0  0  0  0  0  0
    8.5833  -14.8303   22.0864 C   0  0  0  0  0  0  0  0  0  0  0  0
    7.5779  -14.4777   22.7691 O   0  0  0  0  0  0  0  0  0  0  0  0
    9.6921  -15.4219   22.7310 N   0  0  0  0  0  0  0  0  0  0  0  0
    9.6451  -15.6709   24.1713 C   0  0  1  0  0  0  0  0  0  0  0  0
    8.3914  -16.3950   24.5375 C   0  0  0  0  0  0  0  0  0  0  0  0
    7.4948  -15.5706   25.3502 C   0  0  0  0  0  0  0  0  0  0  0  0
    6.3359  -16.0097   25.9868 C   0  0  0  0  0  0  0  0  0  0  0  0
    5.7419  -14.9817   26.6065 N   0  0  0  0  0  0  0  0  0  0  0  0
    6.4557  -13.8659   26.4134 C   0  0  0  0  0  0  0  0  0  0  0  0
    6.2715  -12.5728   26.8571 C   0  0  0  0  0  0  0  0  0  0  0  0
    7.1590  -11.5684   26.5527 C   0  0  0  0  0  0  0  0  0  0  0  0
    8.2461  -11.9320   25.7761 C   0  0  0  0  0  0  0  0  0  0  0  0
    8.4474  -13.2168   25.3228 C   0  0  0  0  0  0  0  0  0  0  0  0
    7.5424  -14.2102   25.6399 C   0  0  0  0  0  0  0  0  0  0  0  0
   10.8815  -16.2595   24.6660 C   0  0  0  0  0  0  0  0  0  0  0  0
   11.2240  -16.3687   25.8604 O   0  0  0  0  0  0  0  0  0  0  0  0
   11.7998  -16.7633   23.7251 O   0  0  0  0  0  0  0  0  0  0  0  0
  2  4  1  0
  2  1  1  0
  3  2  2  0
  5  4  1  0
  5  6  1  6
  7  5  1  0
  8  7  2  0
 10  9  1  6
 11 10  1  0
 12 10  1  0
 12 13  1  6
 13  7  1  0
 14 12  1  0
 15 14  2  0
 16 14  1  0
 17 16  1  0
 17 18  1  6
 19 18  1  0
 20 19  2  0
 21 22  1  0
 21 20  1  0
 22 27  2  0
 23 22  1  0
 23 24  2  0
 24 25  1  0
 25 26  2  0
 27 19  1  0
 27 26  1  0
 28 17  1  0
 28 30  1  0
 29 28  2  0
M  END
$$$$
