NVW.pdb
     RDKit          3D

 30 31  0  0  1  0  0  0  0  0999 V2000
    8.3872  -20.7250   18.1543 N   0  0  0  0  0  0  0  0  0  0  0  0
    9.3302  -19.8780   17.5564 C   0  0  0  0  0  0  0  0  0  0  0  0
   10.2215  -20.3373   16.8240 O   0  0  0  0  0  0  0  0  0  0  0  0
    9.2872  -18.4192   17.7827 C   0  0  0  0  0  0  0  0  0  0  0  0
    8.7261  -18.2026   19.1743 C   0  0  2  0  0  0  0  0  0  0  0  0
    7.2977  -18.3546   19.2093 N   0  0  0  0  0  0  0  0  0  0  0  0
    9.1161  -16.8906   19.7296 C   0  0  0  0  0  0  0  0  0  0  0  0
   10.3210  -16.4954   19.7507 O   0  0  0  0  0  0  0  0  0  0  0  0
    8.1900  -12.2641   21.2104 C   0  0  0  0  0  0  0  0  0  0  0  0
    7.7087  -13.5423   20.5591 C   0  0  1  0  0  0  0  0  0  0  0  0
    7.4012  -13.3566   19.0939 C   0  0  0  0  0  0  0  0  0  0  0  0
    8.5734  -14.7161   20.8419 C   0  0  2  0  0  0  0  0  0  0  0  0
    8.2070  -15.9612   20.2814 N   0  0  0  0  0  0  0  0  0  0  0  0
    8.6417  -14.8706   22.3326 C   0  0  0  0  0  0  0  0  0  0  0  0
    7.6527  -14.5629   23.0596 O   0  0  0  0  0  0  0  0  0  0  0  0
    9.8214  -15.3649   22.9315 N   0  0  0  0  0  0  0  0  0  0  0  0
    9.9249  -15.4224   24.3891 C   0  0  1  0  0  0  0  0  0  0  0  0
    8.8238  -16.2536   24.9605 C   0  0  0  0  0  0  0  0  0  0  0  0
    7.6906  -15.4396   25.4044 C   0  0  0  0  0  0  0  0  0  0  0  0
    6.3445  -15.7732   25.2707 C   0  0  0  0  0  0  0  0  0  0  0  0
    5.5821  -14.7812   25.7484 N   0  0  0  0  0  0  0  0  0  0  0  0
    6.3616  -13.7912   26.2001 C   0  0  0  0  0  0  0  0  0  0  0  0
    6.0568  -12.5834   26.7926 C   0  0  0  0  0  0  0  0  0  0  0  0
    7.0353  -11.7124   27.2087 C   0  0  0  0  0  0  0  0  0  0  0  0
    8.3418  -12.1196   26.9979 C   0  0  0  0  0  0  0  0  0  0  0  0
    8.6666  -13.3207   26.4077 C   0  0  0  0  0  0  0  0  0  0  0  0
    7.6674  -14.1802   25.9964 C   0  0  0  0  0  0  0  0  0  0  0  0
   11.2693  -15.7665   24.8296 C   0  0  0  0  0  0  0  0  0  0  0  0
   11.6568  -15.8764   26.0101 O   0  0  0  0  0  0  0  0  0  0  0  0
   12.2494  -16.0041   23.8469 O   0  0  0  0  0  0  0  0  0  0  0  0
  2  4  1  0
  2  1  1  0
  3  2  2  0
  5  4  1  0
  5  6  1  6
  7  5  1  0
  8  7  2  0
 10  9  1  6
 11 10  1  0
 12 10  1  0
 12 13  1  6
 13  7  1  0
 14 12  1  0
 15 14  2  0
 16 14  1  0
 17 16  1  0
 17 18  1  6
 19 18  1  0
 20 19  2  0
 21 22  1  0
 21 20  1  0
 22 27  2  0
 23 22  1  0
 23 24  2  0
 24 25  1  0
 25 26  2  0
 27 19  1  0
 27 26  1  0
 28 17  1  0
 28 30  1  0
 29 28  2  0
M  END
$$$$
