NVW.pdb
     RDKit          3D

 30 31  0  0  1  0  0  0  0  0999 V2000
   13.3311  -17.8417   15.8999 N   0  0  0  0  0  0  0  0  0  0  0  0
   12.6274  -17.9980   17.1017 C   0  0  0  0  0  0  0  0  0  0  0  0
   12.2087  -19.1133   17.4516 O   0  0  0  0  0  0  0  0  0  0  0  0
   12.3664  -16.8405   17.9811 C   0  0  0  0  0  0  0  0  0  0  0  0
   10.8612  -16.6965   18.0896 C   0  0  2  0  0  0  0  0  0  0  0  0
   10.2802  -16.1827   16.8799 N   0  0  0  0  0  0  0  0  0  0  0  0
   10.4674  -15.8614   19.2426 C   0  0  0  0  0  0  0  0  0  0  0  0
   10.9949  -14.7310   19.4715 O   0  0  0  0  0  0  0  0  0  0  0  0
    7.2807  -13.9860   20.3079 C   0  0  0  0  0  0  0  0  0  0  0  0
    7.6662  -15.0031   21.3599 C   0  0  1  0  0  0  0  0  0  0  0  0
    6.6936  -16.1543   21.4255 C   0  0  0  0  0  0  0  0  0  0  0  0
    9.0872  -15.4278   21.2840 C   0  0  2  0  0  0  0  0  0  0  0  0
    9.4838  -16.2274   20.1876 N   0  0  0  0  0  0  0  0  0  0  0  0
    9.3980  -16.1723   22.5488 C   0  0  0  0  0  0  0  0  0  0  0  0
    9.7689  -17.3816   22.5117 O   0  0  0  0  0  0  0  0  0  0  0  0
    9.2762  -15.5174   23.7943 N   0  0  0  0  0  0  0  0  0  0  0  0
    9.6307  -16.2260   25.0234 C   0  0  1  0  0  0  0  0  0  0  0  0
    9.6054  -15.2954   26.1910 C   0  0  0  0  0  0  0  0  0  0  0  0
    8.2901  -14.6798   26.3784 C   0  0  0  0  0  0  0  0  0  0  0  0
    7.0647  -15.3401   26.3205 C   0  0  0  0  0  0  0  0  0  0  0  0
    6.0683  -14.4629   26.4974 N   0  0  0  0  0  0  0  0  0  0  0  0
    6.5741  -13.2361   26.6732 C   0  0  0  0  0  0  0  0  0  0  0  0
    5.9664  -12.0202   26.9084 C   0  0  0  0  0  0  0  0  0  0  0  0
    6.6945  -10.8679   27.0854 C   0  0  0  0  0  0  0  0  0  0  0  0
    8.0709  -11.0010   27.0137 C   0  0  0  0  0  0  0  0  0  0  0  0
    8.6963  -12.2053   26.7791 C   0  0  0  0  0  0  0  0  0  0  0  0
    7.9452  -13.3504   26.6033 C   0  0  0  0  0  0  0  0  0  0  0  0
    8.8732  -17.4592   25.1826 C   0  0  0  0  0  0  0  0  0  0  0  0
    9.1390  -18.3967   25.9611 O   0  0  0  0  0  0  0  0  0  0  0  0
    7.7219  -17.6378   24.3920 O   0  0  0  0  0  0  0  0  0  0  0  0
  2  4  1  0
  2  1  1  0
  3  2  2  0
  5  4  1  0
  5  6  1  6
  7  5  1  0
  8  7  2  0
 10  9  1  6
 11 10  1  0
 12 10  1  0
 12 13  1  6
 13  7  1  0
 14 12  1  0
 15 14  2  0
 16 14  1  0
 17 16  1  0
 17 18  1  1
 19 18  1  0
 20 19  2  0
 21 22  1  0
 21 20  1  0
 22 27  2  0
 23 22  1  0
 23 24  2  0
 24 25  1  0
 25 26  2  0
 27 19  1  0
 27 26  1  0
 28 17  1  0
 28 30  1  0
 29 28  2  0
M  END
$$$$
