NVW.pdb
     RDKit          3D

 30 31  0  0  1  0  0  0  0  0999 V2000
    8.1289  -20.3168   16.2001 N   0  0  0  0  0  0  0  0  0  0  0  0
    8.3804  -19.9946   17.5406 C   0  0  0  0  0  0  0  0  0  0  0  0
    8.1857  -20.8275   18.4407 O   0  0  0  0  0  0  0  0  0  0  0  0
    8.8825  -18.6572   17.9156 C   0  0  0  0  0  0  0  0  0  0  0  0
    8.9520  -18.6180   19.4294 C   0  0  2  0  0  0  0  0  0  0  0  0
    7.7255  -19.0555   20.0369 N   0  0  0  0  0  0  0  0  0  0  0  0
    9.3239  -17.2794   19.9313 C   0  0  0  0  0  0  0  0  0  0  0  0
   10.3637  -16.6720   19.5333 O   0  0  0  0  0  0  0  0  0  0  0  0
    8.1788  -12.9345   22.0125 C   0  0  0  0  0  0  0  0  0  0  0  0
    7.7482  -14.2963   21.5126 C   0  0  1  0  0  0  0  0  0  0  0  0
    6.8176  -14.2026   20.3290 C   0  0  0  0  0  0  0  0  0  0  0  0
    8.8770  -15.2396   21.3094 C   0  0  2  0  0  0  0  0  0  0  0  0
    8.5759  -16.5539   20.8844 N   0  0  0  0  0  0  0  0  0  0  0  0
    9.6276  -15.3224   22.6057 C   0  0  0  0  0  0  0  0  0  0  0  0
   10.4863  -14.4448   22.9118 O   0  0  0  0  0  0  0  0  0  0  0  0
    9.3734  -16.3903   23.4945 N   0  0  0  0  0  0  0  0  0  0  0  0
   10.0665  -16.4430   24.7811 C   0  0  1  0  0  0  0  0  0  0  0  0
    9.9028  -15.1545   25.5181 C   0  0  0  0  0  0  0  0  0  0  0  0
    8.4948  -14.7900   25.6872 C   0  0  0  0  0  0  0  0  0  0  0  0
    7.4062  -15.6452   25.5302 C   0  0  0  0  0  0  0  0  0  0  0  0
    6.2666  -14.9680   25.7207 N   0  0  0  0  0  0  0  0  0  0  0  0
    6.5441  -13.6889   26.0012 C   0  0  0  0  0  0  0  0  0  0  0  0
    5.7260  -12.6166   26.2902 C   0  0  0  0  0  0  0  0  0  0  0  0
    6.2353  -11.3725   26.5768 C   0  0  0  0  0  0  0  0  0  0  0  0
    7.6153  -11.2611   26.5581 C   0  0  0  0  0  0  0  0  0  0  0  0
    8.4489  -12.3191   26.2713 C   0  0  0  0  0  0  0  0  0  0  0  0
    7.9156  -13.5602   25.9853 C   0  0  0  0  0  0  0  0  0  0  0  0
    9.7369  -17.6460   25.5320 C   0  0  0  0  0  0  0  0  0  0  0  0
    8.8892  -18.5058   25.2190 O   0  0  0  0  0  0  0  0  0  0  0  0
   10.4282  -17.8882   26.7345 O   0  0  0  0  0  0  0  0  0  0  0  0
  2  4  1  0
  2  1  1  0
  3  2  2  0
  5  4  1  0
  5  6  1  1
  7  5  1  0
  8  7  2  0
 10  9  1  6
 11 10  1  0
 12 10  1  0
 12 13  1  1
 13  7  1  0
 14 12  1  0
 15 14  2  0
 16 14  1  0
 17 16  1  0
 17 18  1  1
 19 18  1  0
 20 19  2  0
 21 22  1  0
 21 20  1  0
 22 27  2  0
 23 22  1  0
 23 24  2  0
 24 25  1  0
 25 26  2  0
 27 19  1  0
 27 26  1  0
 28 17  1  0
 28 30  1  0
 29 28  2  0
M  END
$$$$
