DMI.pdb
     RDKit          3D

 25 24  0  0  1  0  0  0  0  0999 V2000
   17.6610  -12.3579  -16.2952 N   0  0  0  0  0  0  0  0  0  0  0  0
   18.0436  -11.0117  -16.5775 C   0  0  1  0  0  0  0  0  0  0  0  0
   16.8978  -10.0306  -16.4624 C   0  0  0  0  0  0  0  0  0  0  0  0
   15.7423  -10.3846  -17.2961 C   0  0  0  0  0  0  0  0  0  0  0  0
   15.8916  -10.5917  -18.5170 O   0  0  0  0  0  0  0  0  0  0  0  0
   19.1827  -10.5202  -15.7783 C   0  0  0  0  0  0  0  0  0  0  0  0
   19.1530  -10.5466  -14.5199 O   0  0  0  0  0  0  0  0  0  0  0  0
   14.4835  -10.4924  -16.7455 O   0  0  0  0  0  0  0  0  0  0  0  0
   26.8746  -10.5936  -14.8620 C   0  0  0  0  0  0  0  0  0  0  0  0
   25.3430  -10.9574  -15.7404 S   0  0  0  0  0  0  0  0  0  0  0  0
   23.9911   -9.8510  -15.1742 C   0  0  0  0  0  0  0  0  0  0  0  0
   22.7748  -10.2328  -15.9532 C   0  0  0  0  0  0  0  0  0  0  0  0
   21.5113   -9.5493  -15.5445 C   0  0  2  0  0  0  0  0  0  0  0  0
   20.3860   -9.9840  -16.3456 N   0  0  0  0  0  0  0  0  0  0  0  0
   21.7419   -8.0767  -15.8105 C   0  0  0  0  0  0  0  0  0  0  0  0
   22.0105   -7.7083  -16.9993 O   0  0  0  0  0  0  0  0  0  0  0  0
   19.1420   -3.1796  -16.4059 C   0  0  0  0  0  0  0  0  0  0  0  0
   20.4256   -3.6924  -15.8504 C   0  0  0  0  0  0  0  0  0  0  0  0
   20.4950   -5.1261  -15.5288 C   0  0  2  0  0  0  0  0  0  0  0  0
   19.3751   -5.4987  -14.5536 C   0  0  0  0  0  0  0  0  0  0  0  0
   21.7801   -5.7160  -15.0913 C   0  0  2  0  0  0  0  0  0  0  0  0
   21.6607   -7.1302  -14.7599 N   0  0  0  0  0  0  0  0  0  0  0  0
   22.3387   -5.0648  -13.8987 C   0  0  0  0  0  0  0  0  0  0  0  0
   22.8471   -3.7712  -14.0246 O   0  0  0  0  0  0  0  0  0  0  0  0
   22.3975   -5.5907  -12.7612 O   0  0  0  0  0  0  0  0  0  0  0  0
  2  1  1  1
  2  3  1  0
  4  3  1  0
  4  8  1  0
  5  4  2  0
  6  2  1  0
  7  6  2  0
  9 10  1  0
 10 11  1  0
 12 11  1  0
 13 12  1  6
 13 14  1  0
 14  6  1  0
 15 22  1  0
 15 13  1  0
 16 15  2  0
 18 17  1  0
 18 19  1  0
 19 20  1  1
 21 19  1  0
 21 23  1  0
 21 22  1  1
 23 24  1  0
 25 23  2  0
M  END
$$$$
