DMI.pdb
     RDKit          3D

 25 24  0  0  1  0  0  0  0  0999 V2000
   26.6307  -23.1371  -16.6007 N   0  0  0  0  0  0  0  0  0  0  0  0
   26.6994  -21.9583  -15.7983 C   0  0  1  0  0  0  0  0  0  0  0  0
   26.3741  -20.6959  -16.5659 C   0  0  0  0  0  0  0  0  0  0  0  0
   27.4891  -20.2116  -17.3893 C   0  0  0  0  0  0  0  0  0  0  0  0
   27.2894  -19.3494  -18.2682 O   0  0  0  0  0  0  0  0  0  0  0  0
   25.8771  -22.0043  -14.5736 C   0  0  0  0  0  0  0  0  0  0  0  0
   24.7663  -22.5967  -14.5587 O   0  0  0  0  0  0  0  0  0  0  0  0
   28.7646  -20.6995  -17.2042 O   0  0  0  0  0  0  0  0  0  0  0  0
   25.6589  -20.2781   -6.7709 C   0  0  0  0  0  0  0  0  0  0  0  0
   26.4316  -20.1637   -8.3956 S   0  0  0  0  0  0  0  0  0  0  0  0
   25.3506  -20.9037   -9.6824 C   0  0  0  0  0  0  0  0  0  0  0  0
   26.1205  -20.8582  -10.9620 C   0  0  0  0  0  0  0  0  0  0  0  0
   25.4091  -21.4016  -12.1576 C   0  0  2  0  0  0  0  0  0  0  0  0
   26.2572  -21.3965  -13.3313 N   0  0  0  0  0  0  0  0  0  0  0  0
   24.2515  -20.4576  -12.4050 C   0  0  0  0  0  0  0  0  0  0  0  0
   24.5074  -19.2502  -12.7176 O   0  0  0  0  0  0  0  0  0  0  0  0
   20.1330  -19.3289  -16.0884 C   0  0  0  0  0  0  0  0  0  0  0  0
   20.4152  -19.2292  -14.6292 C   0  0  0  0  0  0  0  0  0  0  0  0
   21.5364  -20.0238  -14.1044 C   0  0  2  0  0  0  0  0  0  0  0  0
   21.4293  -21.4694  -14.5971 C   0  0  0  0  0  0  0  0  0  0  0  0
   21.8408  -19.9915  -12.6563 C   0  0  2  0  0  0  0  0  0  0  0  0
   22.9134  -20.9080  -12.2911 N   0  0  0  0  0  0  0  0  0  0  0  0
   20.6919  -20.3548  -11.8158 C   0  0  0  0  0  0  0  0  0  0  0  0
   20.6487  -21.6377  -11.2680 O   0  0  0  0  0  0  0  0  0  0  0  0
   19.7321  -19.5912  -11.5521 O   0  0  0  0  0  0  0  0  0  0  0  0
  2  1  1  6
  2  3  1  0
  4  3  1  0
  4  8  1  0
  5  4  2  0
  6  2  1  0
  7  6  2  0
  9 10  1  0
 10 11  1  0
 12 11  1  0
 13 12  1  1
 13 14  1  0
 14  6  1  0
 15 22  1  0
 15 13  1  0
 16 15  2  0
 18 17  1  0
 18 19  1  0
 19 20  1  1
 21 19  1  0
 21 23  1  0
 21 22  1  6
 23 24  1  0
 25 23  2  0
M  END
$$$$
