DMI.pdb
     RDKit          3D

 25 24  0  0  1  0  0  0  0  0999 V2000
   16.1613  -11.8997  -14.8488 N   0  0  0  0  0  0  0  0  0  0  0  0
   16.0179  -10.4897  -14.6764 C   0  0  1  0  0  0  0  0  0  0  0  0
   14.6004  -10.0052  -14.8876 C   0  0  0  0  0  0  0  0  0  0  0  0
   14.1435  -10.1301  -16.2774 C   0  0  0  0  0  0  0  0  0  0  0  0
   14.8738  -10.6743  -17.1296 O   0  0  0  0  0  0  0  0  0  0  0  0
   16.5156   -9.9787  -13.3844 C   0  0  0  0  0  0  0  0  0  0  0  0
   16.2957  -10.6001  -12.3117 O   0  0  0  0  0  0  0  0  0  0  0  0
   12.9089   -9.6507  -16.6582 O   0  0  0  0  0  0  0  0  0  0  0  0
   23.1691   -9.0944  -12.8736 C   0  0  0  0  0  0  0  0  0  0  0  0
   21.8394   -7.9586  -12.4360 S   0  0  0  0  0  0  0  0  0  0  0  0
   20.2189   -8.8223  -12.4431 C   0  0  0  0  0  0  0  0  0  0  0  0
   19.1884   -7.7957  -12.1022 C   0  0  0  0  0  0  0  0  0  0  0  0
   17.7920   -8.3087  -11.9697 C   0  0  2  0  0  0  0  0  0  0  0  0
   17.2688   -8.7666  -13.2400 N   0  0  0  0  0  0  0  0  0  0  0  0
   16.9656   -7.1239  -11.5160 C   0  0  0  0  0  0  0  0  0  0  0  0
   16.5255   -6.3164  -12.3966 O   0  0  0  0  0  0  0  0  0  0  0  0
   12.4739   -5.7765   -7.7771 C   0  0  0  0  0  0  0  0  0  0  0  0
   13.6925   -5.2657   -8.4651 C   0  0  0  0  0  0  0  0  0  0  0  0
   14.6193   -6.2632   -9.0218 C   0  0  2  0  0  0  0  0  0  0  0  0
   15.0128   -7.2732   -7.9406 C   0  0  0  0  0  0  0  0  0  0  0  0
   15.8148   -5.8132   -9.7698 C   0  0  2  0  0  0  0  0  0  0  0  0
   16.6885   -6.9185  -10.1422 N   0  0  0  0  0  0  0  0  0  0  0  0
   16.6504   -4.8721   -9.0119 C   0  0  0  0  0  0  0  0  0  0  0  0
   16.1845   -3.5695   -8.8278 O   0  0  0  0  0  0  0  0  0  0  0  0
   17.7671   -5.1524   -8.5136 O   0  0  0  0  0  0  0  0  0  0  0  0
  2  1  1  1
  2  3  1  0
  4  3  1  0
  4  8  1  0
  5  4  2  0
  6  2  1  0
  7  6  2  0
  9 10  1  0
 10 11  1  0
 12 11  1  0
 13 12  1  6
 13 14  1  0
 14  6  1  0
 15 22  1  0
 15 13  1  0
 16 15  2  0
 18 17  1  0
 18 19  1  0
 19 20  1  1
 21 19  1  0
 21 23  1  0
 21 22  1  1
 23 24  1  0
 25 23  2  0
M  END
$$$$
