DMI.pdb
     RDKit          3D

 25 24  0  0  1  0  0  0  0  0999 V2000
   28.7039  -22.8815  -17.3190 N   0  0  0  0  0  0  0  0  0  0  0  0
   27.2851  -22.8421  -17.1656 C   0  0  1  0  0  0  0  0  0  0  0  0
   26.6818  -24.1949  -16.8577 C   0  0  0  0  0  0  0  0  0  0  0  0
   25.9714  -24.7885  -17.9973 C   0  0  0  0  0  0  0  0  0  0  0  0
   25.9067  -24.1762  -19.0820 O   0  0  0  0  0  0  0  0  0  0  0  0
   26.8052  -21.8618  -16.1722 C   0  0  0  0  0  0  0  0  0  0  0  0
   27.5553  -21.4541  -15.2469 O   0  0  0  0  0  0  0  0  0  0  0  0
   25.3694  -26.0232  -17.8857 O   0  0  0  0  0  0  0  0  0  0  0  0
   28.3563  -17.1329  -15.8090 C   0  0  0  0  0  0  0  0  0  0  0  0
   26.7536  -16.4444  -15.3544 S   0  0  0  0  0  0  0  0  0  0  0  0
   25.6103  -17.7708  -14.8013 C   0  0  0  0  0  0  0  0  0  0  0  0
   25.9048  -18.9662  -15.6477 C   0  0  0  0  0  0  0  0  0  0  0  0
   25.0988  -20.1849  -15.3382 C   0  0  2  0  0  0  0  0  0  0  0  0
   25.4834  -21.3050  -16.1715 N   0  0  0  0  0  0  0  0  0  0  0  0
   23.6669  -19.8190  -15.6670 C   0  0  0  0  0  0  0  0  0  0  0  0
   23.3801  -19.5028  -16.8665 O   0  0  0  0  0  0  0  0  0  0  0  0
   18.4422  -22.3983  -14.2313 C   0  0  0  0  0  0  0  0  0  0  0  0
   19.1171  -21.2048  -14.8137 C   0  0  0  0  0  0  0  0  0  0  0  0
   20.5541  -21.0451  -14.5434 C   0  0  2  0  0  0  0  0  0  0  0  0
   20.8264  -21.2081  -13.0456 C   0  0  0  0  0  0  0  0  0  0  0  0
   21.2714  -19.8642  -15.0745 C   0  0  2  0  0  0  0  0  0  0  0  0
   22.6687  -19.8281  -14.6621 N   0  0  0  0  0  0  0  0  0  0  0  0
   20.6861  -18.5888  -14.6398 C   0  0  0  0  0  0  0  0  0  0  0  0
   21.4909  -17.6957  -13.9310 O   0  0  0  0  0  0  0  0  0  0  0  0
   19.5015  -18.2375  -14.8570 O   0  0  0  0  0  0  0  0  0  0  0  0
  2  1  1  1
  2  3  1  0
  4  3  1  0
  4  8  1  0
  5  4  2  0
  6  2  1  0
  7  6  2  0
  9 10  1  0
 10 11  1  0
 12 11  1  0
 13 12  1  6
 13 14  1  0
 14  6  1  0
 15 22  1  0
 15 13  1  0
 16 15  2  0
 18 17  1  0
 18 19  1  0
 19 20  1  1
 21 19  1  0
 21 23  1  0
 21 22  1  1
 23 24  1  0
 25 23  2  0
M  END
$$$$
