DMI.pdb
     RDKit          3D

 25 24  0  0  1  0  0  0  0  0999 V2000
   21.8239  -15.2968  -18.7605 N   0  0  0  0  0  0  0  0  0  0  0  0
   21.8519  -13.9144  -19.1162 C   0  0  1  0  0  0  0  0  0  0  0  0
   20.6477  -13.4831  -19.9240 C   0  0  0  0  0  0  0  0  0  0  0  0
   20.4861  -14.2347  -21.1748 C   0  0  0  0  0  0  0  0  0  0  0  0
   21.4750  -14.4625  -21.9001 O   0  0  0  0  0  0  0  0  0  0  0  0
   22.0235  -12.9937  -17.9756 C   0  0  0  0  0  0  0  0  0  0  0  0
   21.2972  -13.0858  -16.9514 O   0  0  0  0  0  0  0  0  0  0  0  0
   19.2473  -14.6967  -21.5635 O   0  0  0  0  0  0  0  0  0  0  0  0
   27.4836  -11.5217  -14.2930 C   0  0  0  0  0  0  0  0  0  0  0  0
   27.2198  -11.8457  -16.0466 S   0  0  0  0  0  0  0  0  0  0  0  0
   25.4683  -12.2940  -16.3680 C   0  0  0  0  0  0  0  0  0  0  0  0
   24.7145  -11.0092  -16.4817 C   0  0  0  0  0  0  0  0  0  0  0  0
   23.2521  -11.1459  -16.7528 C   0  0  2  0  0  0  0  0  0  0  0  0
   23.0006  -11.9445  -17.9342 N   0  0  0  0  0  0  0  0  0  0  0  0
   22.7549   -9.7402  -17.0161 C   0  0  0  0  0  0  0  0  0  0  0  0
   23.0190   -9.2021  -18.1393 O   0  0  0  0  0  0  0  0  0  0  0  0
   18.1202   -6.5690  -17.8814 C   0  0  0  0  0  0  0  0  0  0  0  0
   19.4443   -6.4797  -17.2049 C   0  0  0  0  0  0  0  0  0  0  0  0
   20.1495   -7.7422  -16.9358 C   0  0  2  0  0  0  0  0  0  0  0  0
   19.2504   -8.6823  -16.1284 C   0  0  0  0  0  0  0  0  0  0  0  0
   21.5133   -7.7100  -16.3615 C   0  0  2  0  0  0  0  0  0  0  0  0
   22.0124   -9.0395  -16.0342 N   0  0  0  0  0  0  0  0  0  0  0  0
   21.6000   -6.9267  -15.1216 C   0  0  0  0  0  0  0  0  0  0  0  0
   21.8659   -7.5992  -13.9280 O   0  0  0  0  0  0  0  0  0  0  0  0
   21.4480   -5.6833  -15.0521 O   0  0  0  0  0  0  0  0  0  0  0  0
  2  1  1  1
  2  3  1  0
  4  3  1  0
  4  8  1  0
  5  4  2  0
  6  2  1  0
  7  6  2  0
  9 10  1  0
 10 11  1  0
 12 11  1  0
 13 12  1  6
 13 14  1  0
 14  6  1  0
 15 22  1  0
 15 13  1  0
 16 15  2  0
 18 17  1  0
 18 19  1  0
 19 20  1  1
 21 19  1  0
 21 23  1  0
 21 22  1  1
 23 24  1  0
 25 23  2  0
M  END
$$$$
