DMI.pdb
     RDKit          3D

 25 24  0  0  1  0  0  0  0  0999 V2000
   19.4025  -14.3989  -18.4249 N   0  0  0  0  0  0  0  0  0  0  0  0
   19.9648  -13.1764  -18.9020 C   0  0  1  0  0  0  0  0  0  0  0  0
   19.0369  -12.4131  -19.8213 C   0  0  0  0  0  0  0  0  0  0  0  0
   18.6190  -13.1849  -20.9984 C   0  0  0  0  0  0  0  0  0  0  0  0
   17.4198  -13.2035  -21.3409 O   0  0  0  0  0  0  0  0  0  0  0  0
   20.4464  -12.2707  -17.8411 C   0  0  0  0  0  0  0  0  0  0  0  0
   19.7810  -12.0925  -16.7873 O   0  0  0  0  0  0  0  0  0  0  0  0
   19.5399  -13.8955  -21.7374 O   0  0  0  0  0  0  0  0  0  0  0  0
   26.7987  -11.4861  -15.1856 C   0  0  0  0  0  0  0  0  0  0  0  0
   26.1208  -10.0070  -15.9617 S   0  0  0  0  0  0  0  0  0  0  0  0
   24.3040   -9.9164  -15.7106 C   0  0  0  0  0  0  0  0  0  0  0  0
   23.6807  -10.6712  -16.8393 C   0  0  0  0  0  0  0  0  0  0  0  0
   22.1891  -10.7442  -16.8151 C   0  0  2  0  0  0  0  0  0  0  0  0
   21.6755  -11.5348  -17.9142 N   0  0  0  0  0  0  0  0  0  0  0  0
   21.7099   -9.3188  -16.9918 C   0  0  0  0  0  0  0  0  0  0  0  0
   21.8639   -8.7617  -18.1262 O   0  0  0  0  0  0  0  0  0  0  0  0
   16.8824   -7.7658  -17.1697 C   0  0  0  0  0  0  0  0  0  0  0  0
   18.3678   -7.7649  -17.2817 C   0  0  0  0  0  0  0  0  0  0  0  0
   19.1277   -7.2047  -16.1536 C   0  0  2  0  0  0  0  0  0  0  0  0
   18.6593   -5.7761  -15.8647 C   0  0  0  0  0  0  0  0  0  0  0  0
   20.6063   -7.2730  -16.1623 C   0  0  2  0  0  0  0  0  0  0  0  0
   21.1041   -8.6208  -15.9185 N   0  0  0  0  0  0  0  0  0  0  0  0
   21.2303   -6.4186  -15.1429 C   0  0  0  0  0  0  0  0  0  0  0  0
   21.6382   -7.0047  -13.9438 O   0  0  0  0  0  0  0  0  0  0  0  0
   21.4243   -5.1855  -15.2681 O   0  0  0  0  0  0  0  0  0  0  0  0
  2  1  1  1
  2  3  1  0
  4  3  1  0
  4  8  1  0
  5  4  2  0
  6  2  1  0
  7  6  2  0
  9 10  1  0
 10 11  1  0
 12 11  1  0
 13 12  1  6
 13 14  1  0
 14  6  1  0
 15 22  1  0
 15 13  1  0
 16 15  2  0
 18 17  1  0
 18 19  1  0
 19 20  1  6
 21 19  1  0
 21 23  1  0
 21 22  1  1
 23 24  1  0
 25 23  2  0
M  END
$$$$
