DMI.pdb
     RDKit          3D

 25 24  0  0  1  0  0  0  0  0999 V2000
   23.4099  -20.0106  -12.9158 N   0  0  0  0  0  0  0  0  0  0  0  0
   23.0338  -20.1071  -11.5420 C   0  0  1  0  0  0  0  0  0  0  0  0
   21.7875  -20.9361  -11.3227 C   0  0  0  0  0  0  0  0  0  0  0  0
   20.6078  -20.4093  -12.0203 C   0  0  0  0  0  0  0  0  0  0  0  0
   20.4759  -20.5863  -13.2479 O   0  0  0  0  0  0  0  0  0  0  0  0
   24.1024  -20.5961  -10.6492 C   0  0  0  0  0  0  0  0  0  0  0  0
   23.8296  -21.2203   -9.5904 O   0  0  0  0  0  0  0  0  0  0  0  0
   19.6350  -19.7159  -11.3331 O   0  0  0  0  0  0  0  0  0  0  0  0
   30.0241  -21.8697  -12.7045 C   0  0  0  0  0  0  0  0  0  0  0  0
   30.4883  -21.4314  -11.0187 S   0  0  0  0  0  0  0  0  0  0  0  0
   29.0180  -21.4346   -9.9185 C   0  0  0  0  0  0  0  0  0  0  0  0
   27.8677  -20.9587  -10.7447 C   0  0  0  0  0  0  0  0  0  0  0  0
   26.5374  -20.9841  -10.0662 C   0  0  2  0  0  0  0  0  0  0  0  0
   25.5023  -20.4084  -10.8992 N   0  0  0  0  0  0  0  0  0  0  0  0
   26.6928  -20.1163   -8.8353 C   0  0  0  0  0  0  0  0  0  0  0  0
   26.3616  -18.8892   -8.9105 O   0  0  0  0  0  0  0  0  0  0  0  0
   28.5902  -19.3795   -3.4313 C   0  0  0  0  0  0  0  0  0  0  0  0
   27.2216  -19.6622   -3.9469 C   0  0  0  0  0  0  0  0  0  0  0  0
   27.1183  -20.4322   -5.1960 C   0  0  2  0  0  0  0  0  0  0  0  0
   27.9360  -21.7218   -5.0851 C   0  0  0  0  0  0  0  0  0  0  0  0
   27.3786  -19.7637   -6.4907 C   0  0  2  0  0  0  0  0  0  0  0  0
   27.1957  -20.6578   -7.6269 N   0  0  0  0  0  0  0  0  0  0  0  0
   28.7451  -19.2362   -6.6045 C   0  0  0  0  0  0  0  0  0  0  0  0
   29.0092  -17.9614   -6.1017 O   0  0  0  0  0  0  0  0  0  0  0  0
   29.7049  -19.8508   -7.1289 O   0  0  0  0  0  0  0  0  0  0  0  0
  2  1  1  6
  2  3  1  0
  4  3  1  0
  4  8  1  0
  5  4  2  0
  6  2  1  0
  7  6  2  0
  9 10  1  0
 10 11  1  0
 12 11  1  0
 13 12  1  6
 13 14  1  0
 14  6  1  0
 15 22  1  0
 15 13  1  0
 16 15  2  0
 18 17  1  0
 18 19  1  0
 19 20  1  1
 21 19  1  0
 21 23  1  0
 21 22  1  6
 23 24  1  0
 25 23  2  0
M  END
$$$$
