DMI.pdb
     RDKit          3D

 25 24  0  0  1  0  0  0  0  0999 V2000
   24.1943  -21.3534  -13.1865 N   0  0  0  0  0  0  0  0  0  0  0  0
   24.1473  -20.5731  -11.9919 C   0  0  1  0  0  0  0  0  0  0  0  0
   22.7435  -20.3793  -11.4623 C   0  0  0  0  0  0  0  0  0  0  0  0
   21.9431  -19.4443  -12.2629 C   0  0  0  0  0  0  0  0  0  0  0  0
   22.4009  -18.9806  -13.3264 O   0  0  0  0  0  0  0  0  0  0  0  0
   25.0100  -21.0709  -10.9029 C   0  0  0  0  0  0  0  0  0  0  0  0
   24.7281  -22.1299  -10.2831 O   0  0  0  0  0  0  0  0  0  0  0  0
   20.6823  -19.0676  -11.8535 O   0  0  0  0  0  0  0  0  0  0  0  0
   31.4708  -21.8852   -9.7297 C   0  0  0  0  0  0  0  0  0  0  0  0
   30.6049  -21.9296  -11.3102 S   0  0  0  0  0  0  0  0  0  0  0  0
   28.7866  -21.9451  -11.0542 C   0  0  0  0  0  0  0  0  0  0  0  0
   28.5073  -21.0008   -9.9306 C   0  0  0  0  0  0  0  0  0  0  0  0
   27.0902  -20.9655   -9.4602 C   0  0  2  0  0  0  0  0  0  0  0  0
   26.2074  -20.4129  -10.4663 N   0  0  0  0  0  0  0  0  0  0  0  0
   27.0829  -20.0391   -8.2626 C   0  0  0  0  0  0  0  0  0  0  0  0
   26.6367  -18.8560   -8.4116 O   0  0  0  0  0  0  0  0  0  0  0  0
   28.1289  -20.0473   -2.0937 C   0  0  0  0  0  0  0  0  0  0  0  0
   27.6922  -19.3857   -3.3549 C   0  0  0  0  0  0  0  0  0  0  0  0
   27.7199  -20.1938   -4.5837 C   0  0  2  0  0  0  0  0  0  0  0  0
   28.9432  -21.1144   -4.5774 C   0  0  0  0  0  0  0  0  0  0  0  0
   27.5783  -19.5298   -5.8990 C   0  0  2  0  0  0  0  0  0  0  0  0
   27.5621  -20.4793   -7.0044 N   0  0  0  0  0  0  0  0  0  0  0  0
   28.6657  -18.5857   -6.1899 C   0  0  0  0  0  0  0  0  0  0  0  0
   29.6567  -18.9717   -7.0935 O   0  0  0  0  0  0  0  0  0  0  0  0
   28.7750  -17.4451   -5.6790 O   0  0  0  0  0  0  0  0  0  0  0  0
  2  1  1  6
  2  3  1  0
  4  3  1  0
  4  8  1  0
  5  4  2  0
  6  2  1  0
  7  6  2  0
  9 10  1  0
 10 11  1  0
 12 11  1  0
 13 12  1  6
 13 14  1  0
 14  6  1  0
 15 22  1  0
 15 13  1  0
 16 15  2  0
 18 17  1  0
 18 19  1  0
 19 20  1  6
 21 19  1  0
 21 23  1  0
 21 22  1  6
 23 24  1  0
 25 23  2  0
M  END
$$$$
