DMI.pdb
     RDKit          3D

 25 24  0  0  1  0  0  0  0  0999 V2000
   19.3638  -14.7869  -16.0566 N   0  0  0  0  0  0  0  0  0  0  0  0
   18.9487  -13.4896  -16.4841 C   0  0  1  0  0  0  0  0  0  0  0  0
   17.4532  -13.2819  -16.3900 C   0  0  0  0  0  0  0  0  0  0  0  0
   16.6822  -14.2182  -17.2174 C   0  0  0  0  0  0  0  0  0  0  0  0
   17.2709  -15.0082  -17.9823 O   0  0  0  0  0  0  0  0  0  0  0  0
   19.6351  -12.3739  -15.8043 C   0  0  0  0  0  0  0  0  0  0  0  0
   19.3467  -12.0586  -14.6201 O   0  0  0  0  0  0  0  0  0  0  0  0
   15.3053  -14.2378  -17.1613 O   0  0  0  0  0  0  0  0  0  0  0  0
   25.8412  -11.0651  -14.3209 C   0  0  0  0  0  0  0  0  0  0  0  0
   25.3552   -9.8217  -15.5322 S   0  0  0  0  0  0  0  0  0  0  0  0
   23.5773   -9.3992  -15.3516 C   0  0  0  0  0  0  0  0  0  0  0  0
   22.8081  -10.5341  -15.9454 C   0  0  0  0  0  0  0  0  0  0  0  0
   21.3318  -10.4940  -15.7225 C   0  0  2  0  0  0  0  0  0  0  0  0
   20.6582  -11.5739  -16.4131 N   0  0  0  0  0  0  0  0  0  0  0  0
   20.8661   -9.1841  -16.3223 C   0  0  0  0  0  0  0  0  0  0  0  0
   20.9265   -9.0382  -17.5857 O   0  0  0  0  0  0  0  0  0  0  0  0
   16.1288   -7.2617  -16.5758 C   0  0  0  0  0  0  0  0  0  0  0  0
   17.5854   -7.4757  -16.8028 C   0  0  0  0  0  0  0  0  0  0  0  0
   18.5173   -6.6473  -16.0224 C   0  0  2  0  0  0  0  0  0  0  0  0
   18.2066   -5.1639  -16.2394 C   0  0  0  0  0  0  0  0  0  0  0  0
   19.9737   -6.8915  -16.1238 C   0  0  2  0  0  0  0  0  0  0  0  0
   20.3744   -8.1441  -15.4959 N   0  0  0  0  0  0  0  0  0  0  0  0
   20.7814   -5.8416  -15.4885 C   0  0  0  0  0  0  0  0  0  0  0  0
   21.1177   -4.7153  -16.2409 O   0  0  0  0  0  0  0  0  0  0  0  0
   21.2005   -5.8820  -14.3067 O   0  0  0  0  0  0  0  0  0  0  0  0
  2  1  1  1
  2  3  1  0
  4  3  1  0
  4  8  1  0
  5  4  2  0
  6  2  1  0
  7  6  2  0
  9 10  1  0
 10 11  1  0
 12 11  1  0
 13 12  1  6
 13 14  1  0
 14  6  1  0
 15 22  1  0
 15 13  1  0
 16 15  2  0
 18 17  1  0
 18 19  1  0
 19 20  1  6
 21 19  1  0
 21 23  1  0
 21 22  1  1
 23 24  1  0
 25 23  2  0
M  END
$$$$
