DMI.pdb
     RDKit          3D

 25 24  0  0  1  0  0  0  0  0999 V2000
   21.5084  -14.3665  -18.9465 N   0  0  0  0  0  0  0  0  0  0  0  0
   21.5190  -12.9529  -19.1458 C   0  0  1  0  0  0  0  0  0  0  0  0
   20.2675  -12.4375  -19.8216 C   0  0  0  0  0  0  0  0  0  0  0  0
   20.1496  -12.8543  -21.2245 C   0  0  0  0  0  0  0  0  0  0  0  0
   21.1543  -12.8544  -21.9637 O   0  0  0  0  0  0  0  0  0  0  0  0
   21.7666  -12.1655  -17.9225 C   0  0  0  0  0  0  0  0  0  0  0  0
   21.1259  -12.3926  -16.8628 O   0  0  0  0  0  0  0  0  0  0  0  0
   18.9348  -13.2489  -21.7419 O   0  0  0  0  0  0  0  0  0  0  0  0
   27.8385  -12.5784  -15.1558 C   0  0  0  0  0  0  0  0  0  0  0  0
   26.9295  -11.1579  -15.7925 S   0  0  0  0  0  0  0  0  0  0  0  0
   25.1342  -11.5294  -15.8967 C   0  0  0  0  0  0  0  0  0  0  0  0
   24.4653  -10.2721  -16.3483 C   0  0  0  0  0  0  0  0  0  0  0  0
   22.9988  -10.3839  -16.6081 C   0  0  2  0  0  0  0  0  0  0  0  0
   22.7275  -11.1042  -17.8348 N   0  0  0  0  0  0  0  0  0  0  0  0
   22.5063   -8.9618  -16.7745 C   0  0  0  0  0  0  0  0  0  0  0  0
   22.8984   -8.2971  -17.7871 O   0  0  0  0  0  0  0  0  0  0  0  0
   17.8823   -5.7227  -17.7051 C   0  0  0  0  0  0  0  0  0  0  0  0
   19.1752   -5.6987  -16.9657 C   0  0  0  0  0  0  0  0  0  0  0  0
   19.8173   -6.9931  -16.6901 C   0  0  2  0  0  0  0  0  0  0  0  0
   18.8469   -7.9100  -15.9407 C   0  0  0  0  0  0  0  0  0  0  0  0
   21.1545   -7.0258  -16.0562 C   0  0  2  0  0  0  0  0  0  0  0  0
   21.6290   -8.3841  -15.8244 N   0  0  0  0  0  0  0  0  0  0  0  0
   21.1917   -6.3538  -14.7503 C   0  0  0  0  0  0  0  0  0  0  0  0
   21.4631   -7.1203  -13.6161 O   0  0  0  0  0  0  0  0  0  0  0  0
   20.9924   -5.1278  -14.5738 O   0  0  0  0  0  0  0  0  0  0  0  0
  2  1  1  1
  2  3  1  0
  4  3  1  0
  4  8  1  0
  5  4  2  0
  6  2  1  0
  7  6  2  0
  9 10  1  0
 10 11  1  0
 12 11  1  0
 13 12  1  6
 13 14  1  0
 14  6  1  0
 15 22  1  0
 15 13  1  0
 16 15  2  0
 18 17  1  0
 18 19  1  0
 19 20  1  1
 21 19  1  0
 21 23  1  0
 21 22  1  1
 23 24  1  0
 25 23  2  0
M  END
$$$$
