DMI.pdb
     RDKit          3D

 25 24  0  0  1  0  0  0  0  0999 V2000
   15.1399  -10.6930  -15.2656 N   0  0  0  0  0  0  0  0  0  0  0  0
   15.7780  -11.6400  -14.4088 C   0  0  1  0  0  0  0  0  0  0  0  0
   16.6827  -12.5991  -15.1506 C   0  0  0  0  0  0  0  0  0  0  0  0
   15.9633  -13.4718  -16.0869 C   0  0  0  0  0  0  0  0  0  0  0  0
   15.8359  -13.1374  -17.2818 O   0  0  0  0  0  0  0  0  0  0  0  0
   16.5256  -11.0411  -13.2861 C   0  0  0  0  0  0  0  0  0  0  0  0
   17.1945  -11.7570  -12.4955 O   0  0  0  0  0  0  0  0  0  0  0  0
   15.4217  -14.6656  -15.6620 O   0  0  0  0  0  0  0  0  0  0  0  0
   21.8205   -8.6297  -13.2557 C   0  0  0  0  0  0  0  0  0  0  0  0
   21.0116   -7.2413  -12.4386 S   0  0  0  0  0  0  0  0  0  0  0  0
   19.5258   -7.8052  -11.5185 C   0  0  0  0  0  0  0  0  0  0  0  0
   18.6431   -8.4866  -12.5129 C   0  0  0  0  0  0  0  0  0  0  0  0
   17.3769   -9.0558  -11.9619 C   0  0  2  0  0  0  0  0  0  0  0  0
   16.5545   -9.6352  -13.0035 N   0  0  0  0  0  0  0  0  0  0  0  0
   16.6296   -7.8816  -11.3658 C   0  0  0  0  0  0  0  0  0  0  0  0
   16.2445   -6.9486  -12.1418 O   0  0  0  0  0  0  0  0  0  0  0  0
   12.5421   -8.6972   -7.9768 C   0  0  0  0  0  0  0  0  0  0  0  0
   13.4053   -8.0516   -9.0050 C   0  0  0  0  0  0  0  0  0  0  0  0
   14.5028   -7.1986   -8.5235 C   0  0  2  0  0  0  0  0  0  0  0  0
   13.9385   -6.0197   -7.7262 C   0  0  0  0  0  0  0  0  0  0  0  0
   15.5379   -6.7330   -9.4736 C   0  0  2  0  0  0  0  0  0  0  0  0
   16.3652   -7.8227   -9.9755 N   0  0  0  0  0  0  0  0  0  0  0  0
   16.4648   -5.7565   -8.8857 C   0  0  0  0  0  0  0  0  0  0  0  0
   16.1036   -4.4084   -8.8952 O   0  0  0  0  0  0  0  0  0  0  0  0
   17.5723   -6.0449   -8.3718 O   0  0  0  0  0  0  0  0  0  0  0  0
  2  1  1  6
  2  3  1  0
  4  3  1  0
  4  8  1  0
  5  4  2  0
  6  2  1  0
  7  6  2  0
  9 10  1  0
 10 11  1  0
 12 11  1  0
 13 12  1  6
 13 14  1  0
 14  6  1  0
 15 22  1  0
 15 13  1  0
 16 15  2  0
 18 17  1  0
 18 19  1  0
 19 20  1  6
 21 19  1  0
 21 23  1  0
 21 22  1  1
 23 24  1  0
 25 23  2  0
M  END
$$$$
