DMI.pdb
     RDKit          3D

 25 24  0  0  1  0  0  0  0  0999 V2000
   15.9139  -11.2377  -14.8889 N   0  0  0  0  0  0  0  0  0  0  0  0
   15.4290  -11.3775  -13.5534 C   0  0  1  0  0  0  0  0  0  0  0  0
   15.5011  -12.7986  -13.0396 C   0  0  0  0  0  0  0  0  0  0  0  0
   14.6407  -13.7298  -13.7802 C   0  0  0  0  0  0  0  0  0  0  0  0
   13.6560  -13.3017  -14.4150 O   0  0  0  0  0  0  0  0  0  0  0  0
   16.0678  -10.4769  -12.5743 C   0  0  0  0  0  0  0  0  0  0  0  0
   15.8881  -10.6292  -11.3376 O   0  0  0  0  0  0  0  0  0  0  0  0
   14.9069  -15.0820  -13.7848 O   0  0  0  0  0  0  0  0  0  0  0  0
   22.6916   -9.0857  -13.9752 C   0  0  0  0  0  0  0  0  0  0  0  0
   21.3222   -7.9949  -13.5457 S   0  0  0  0  0  0  0  0  0  0  0  0
   19.8917   -8.9630  -12.9225 C   0  0  0  0  0  0  0  0  0  0  0  0
   18.8570   -7.9703  -12.5027 C   0  0  0  0  0  0  0  0  0  0  0  0
   17.5952   -8.5524  -11.9553 C   0  0  2  0  0  0  0  0  0  0  0  0
   16.9218   -9.3817  -12.9330 N   0  0  0  0  0  0  0  0  0  0  0  0
   16.7040   -7.3688  -11.6432 C   0  0  0  0  0  0  0  0  0  0  0  0
   16.0097   -6.8654  -12.5842 O   0  0  0  0  0  0  0  0  0  0  0  0
   13.5573   -7.3607   -7.2467 C   0  0  0  0  0  0  0  0  0  0  0  0
   14.2038   -7.1851   -8.5772 C   0  0  0  0  0  0  0  0  0  0  0  0
   14.9650   -5.9459   -8.7975 C   0  0  2  0  0  0  0  0  0  0  0  0
   14.0829   -4.7300   -8.5018 C   0  0  0  0  0  0  0  0  0  0  0  0
   15.7003   -5.7554  -10.0680 C   0  0  2  0  0  0  0  0  0  0  0  0
   16.6445   -6.8334  -10.3332 N   0  0  0  0  0  0  0  0  0  0  0  0
   16.4826   -4.5123  -10.1023 C   0  0  0  0  0  0  0  0  0  0  0  0
   15.8278   -3.3241  -10.4295 O   0  0  0  0  0  0  0  0  0  0  0  0
   17.7112   -4.4365   -9.8600 O   0  0  0  0  0  0  0  0  0  0  0  0
  2  1  1  6
  2  3  1  0
  4  3  1  0
  4  8  1  0
  5  4  2  0
  6  2  1  0
  7  6  2  0
  9 10  1  0
 10 11  1  0
 12 11  1  0
 13 12  1  6
 13 14  1  0
 14  6  1  0
 15 22  1  0
 15 13  1  0
 16 15  2  0
 18 17  1  0
 18 19  1  0
 19 20  1  6
 21 19  1  0
 21 23  1  0
 21 22  1  1
 23 24  1  0
 25 23  2  0
M  END
$$$$
