DMI.pdb
     RDKit          3D

 25 24  0  0  1  0  0  0  0  0999 V2000
   20.2758  -19.9250  -11.1234 N   0  0  0  0  0  0  0  0  0  0  0  0
   21.3534  -20.8614  -11.1179 C   0  0  1  0  0  0  0  0  0  0  0  0
   21.4024  -21.7200  -12.3625 C   0  0  0  0  0  0  0  0  0  0  0  0
   20.2606  -22.6351  -12.4838 C   0  0  0  0  0  0  0  0  0  0  0  0
   19.3341  -22.5936  -11.6497 O   0  0  0  0  0  0  0  0  0  0  0  0
   22.6827  -20.2614  -10.8923 C   0  0  0  0  0  0  0  0  0  0  0  0
   22.9997  -19.1654  -11.4246 O   0  0  0  0  0  0  0  0  0  0  0  0
   20.1963  -23.5476  -13.5145 O   0  0  0  0  0  0  0  0  0  0  0  0
   27.0184  -19.4346   -5.6298 C   0  0  0  0  0  0  0  0  0  0  0  0
   27.5979  -20.6587   -6.8195 S   0  0  0  0  0  0  0  0  0  0  0  0
   27.0973  -20.1950   -8.5244 C   0  0  0  0  0  0  0  0  0  0  0  0
   25.7286  -20.7563   -8.7331 C   0  0  0  0  0  0  0  0  0  0  0  0
   25.0522  -20.3423   -9.9988 C   0  0  2  0  0  0  0  0  0  0  0  0
   23.7001  -20.8552  -10.0739 N   0  0  0  0  0  0  0  0  0  0  0  0
   25.8602  -20.9701  -11.1149 C   0  0  0  0  0  0  0  0  0  0  0  0
   25.7157  -22.2140  -11.3449 O   0  0  0  0  0  0  0  0  0  0  0  0
   27.1776  -18.8349  -16.6449 C   0  0  0  0  0  0  0  0  0  0  0  0
   27.2912  -19.9400  -15.6525 C   0  0  0  0  0  0  0  0  0  0  0  0
   26.9865  -19.6192  -14.2497 C   0  0  2  0  0  0  0  0  0  0  0  0
   27.7316  -18.3495  -13.8292 C   0  0  0  0  0  0  0  0  0  0  0  0
   27.1236  -20.6671  -13.2134 C   0  0  2  0  0  0  0  0  0  0  0  0
   26.7569  -20.1905  -11.8859 N   0  0  0  0  0  0  0  0  0  0  0  0
   28.4925  -21.1871  -13.0948 C   0  0  0  0  0  0  0  0  0  0  0  0
   29.0016  -21.9621  -14.1379 O   0  0  0  0  0  0  0  0  0  0  0  0
   29.2479  -20.9880  -12.1132 O   0  0  0  0  0  0  0  0  0  0  0  0
  2  1  1  6
  2  3  1  0
  4  3  1  0
  4  8  1  0
  5  4  2  0
  6  2  1  0
  7  6  2  0
  9 10  1  0
 10 11  1  0
 12 11  1  0
 13 12  1  1
 13 14  1  0
 14  6  1  0
 15 22  1  0
 15 13  1  0
 16 15  2  0
 18 17  1  0
 18 19  1  0
 19 20  1  1
 21 19  1  0
 21 23  1  0
 21 22  1  1
 23 24  1  0
 25 23  2  0
M  END
$$$$
