DMI.pdb
     RDKit          3D

 25 24  0  0  1  0  0  0  0  0999 V2000
   19.0850  -13.1210  -15.9593 N   0  0  0  0  0  0  0  0  0  0  0  0
   19.0472  -11.9300  -16.7456 C   0  0  1  0  0  0  0  0  0  0  0  0
   17.7013  -11.6856  -17.3917 C   0  0  0  0  0  0  0  0  0  0  0  0
   17.2746  -12.7754  -18.2783 C   0  0  0  0  0  0  0  0  0  0  0  0
   16.2060  -13.3797  -18.0575 O   0  0  0  0  0  0  0  0  0  0  0  0
   19.4670  -10.7107  -16.0278 C   0  0  0  0  0  0  0  0  0  0  0  0
   18.9966  -10.4296  -14.8944 O   0  0  0  0  0  0  0  0  0  0  0  0
   18.0438  -13.1444  -19.3606 O   0  0  0  0  0  0  0  0  0  0  0  0
   25.7938  -10.5344  -14.1901 C   0  0  0  0  0  0  0  0  0  0  0  0
   24.8518   -9.2602  -15.0497 S   0  0  0  0  0  0  0  0  0  0  0  0
   23.0551   -9.6363  -15.0002 C   0  0  0  0  0  0  0  0  0  0  0  0
   22.3715   -8.5463  -15.7595 C   0  0  0  0  0  0  0  0  0  0  0  0
   20.8800   -8.6216  -15.7860 C   0  0  2  0  0  0  0  0  0  0  0  0
   20.4168   -9.7667  -16.5417 N   0  0  0  0  0  0  0  0  0  0  0  0
   20.4227   -7.3665  -16.4988 C   0  0  0  0  0  0  0  0  0  0  0  0
   20.4948   -7.3283  -17.7694 O   0  0  0  0  0  0  0  0  0  0  0  0
   15.6106   -5.5172  -16.7161 C   0  0  0  0  0  0  0  0  0  0  0  0
   17.0549   -5.7417  -17.0036 C   0  0  0  0  0  0  0  0  0  0  0  0
   18.0193   -4.8464  -16.3463 C   0  0  2  0  0  0  0  0  0  0  0  0
   17.6818   -3.3877  -16.6663 C   0  0  0  0  0  0  0  0  0  0  0  0
   19.4705   -5.0896  -16.5079 C   0  0  2  0  0  0  0  0  0  0  0  0
   19.9259   -6.2596  -15.7680 N   0  0  0  0  0  0  0  0  0  0  0  0
   20.2994   -3.9682  -16.0456 C   0  0  0  0  0  0  0  0  0  0  0  0
   20.5479   -2.9170  -16.9294 O   0  0  0  0  0  0  0  0  0  0  0  0
   20.8106   -3.8834  -14.9031 O   0  0  0  0  0  0  0  0  0  0  0  0
  2  1  1  1
  2  3  1  0
  4  3  1  0
  4  8  1  0
  5  4  2  0
  6  2  1  0
  7  6  2  0
  9 10  1  0
 10 11  1  0
 12 11  1  0
 13 12  1  6
 13 14  1  0
 14  6  1  0
 15 22  1  0
 15 13  1  0
 16 15  2  0
 18 17  1  0
 18 19  1  0
 19 20  1  6
 21 19  1  0
 21 23  1  0
 21 22  1  1
 23 24  1  0
 25 23  2  0
M  END
$$$$
