VDS.pdb
     RDKit          3D

 22 21  0  0  1  0  0  0  0  0999 V2000
    7.5418  -13.3669   20.8910 C   0  0  0  0  0  0  0  0  0  0  0  0
    8.4228  -13.3937   19.6930 C   0  0  2  0  0  0  0  0  0  0  0  0
    7.8432  -12.5106   18.6137 C   0  0  0  0  0  0  0  0  0  0  0  0
    8.8127  -14.7452   19.1854 C   0  0  2  0  0  0  0  0  0  0  0  0
    7.5699  -15.3175   18.6220 N   0  0  0  0  0  0  0  0  0  0  0  0
    9.2903  -15.6940   20.2038 C   0  0  0  0  0  0  0  0  0  0  0  0
    8.4166  -16.3771   20.8415 O   0  0  0  0  0  0  0  0  0  0  0  0
   10.6188  -15.9496   20.5686 N   0  0  0  0  0  0  0  0  0  0  0  0
   11.0069  -16.8931   21.6412 C   0  0  1  0  0  0  0  0  0  0  0  0
   12.4052  -17.3154   21.2422 C   0  0  0  0  0  0  0  0  0  0  0  0
   12.5069  -18.2470   20.1407 C   0  0  0  0  0  0  0  0  0  0  0  0
   11.6290  -19.0936   19.8986 O   0  0  0  0  0  0  0  0  0  0  0  0
   10.9312  -16.2265   22.9520 C   0  0  0  0  0  0  0  0  0  0  0  0
   11.5307  -15.1505   23.1729 O   0  0  0  0  0  0  0  0  0  0  0  0
   13.6235  -18.1986   19.3206 O   0  0  0  0  0  0  0  0  0  0  0  0
    7.7114  -16.2658   25.2197 O   0  0  0  0  0  0  0  0  0  0  0  0
    8.7430  -15.4182   25.5325 C   0  0  0  0  0  0  0  0  0  0  0  0
   10.0855  -16.0848   25.3369 C   0  0  2  0  0  0  0  0  0  0  0  0
   10.1855  -16.7384   24.0558 N   0  0  0  0  0  0  0  0  0  0  0  0
   10.2440  -17.1269   26.3990 C   0  0  0  0  0  0  0  0  0  0  0  0
   10.3044  -16.8065   27.7506 O   0  0  0  0  0  0  0  0  0  0  0  0
   10.3301  -18.3473   26.1117 O   0  0  0  0  0  0  0  0  0  0  0  0
  2  3  1  6
  2  4  1  0
  2  1  1  0
  4  6  1  0
  4  5  1  1
  6  8  1  0
  6  7  2  0
  8  9  1  0
  9 13  1  0
  9 10  1  6
 11 15  1  0
 11 10  1  0
 12 11  2  0
 13 14  2  0
 17 16  1  0
 18 17  1  6
 19 18  1  0
 19 13  1  0
 20 21  1  0
 20 18  1  0
 22 20  2  0
M  END
$$$$
