VDS.pdb
     RDKit          3D

 22 21  0  0  1  0  0  0  0  0999 V2000
    8.3387  -14.1383   18.1153 C   0  0  0  0  0  0  0  0  0  0  0  0
    8.1387  -13.6377   19.5014 C   0  0  2  0  0  0  0  0  0  0  0  0
    7.6105  -12.2234   19.4618 C   0  0  0  0  0  0  0  0  0  0  0  0
    9.2936  -13.7964   20.4381 C   0  0  2  0  0  0  0  0  0  0  0  0
   10.3613  -12.9366   19.8811 N   0  0  0  0  0  0  0  0  0  0  0  0
    9.8527  -15.1542   20.5346 C   0  0  0  0  0  0  0  0  0  0  0  0
    9.0855  -16.0887   20.9525 O   0  0  0  0  0  0  0  0  0  0  0  0
   11.1550  -15.5602   20.2145 N   0  0  0  0  0  0  0  0  0  0  0  0
   11.6242  -16.9607   20.3137 C   0  0  1  0  0  0  0  0  0  0  0  0
   12.5444  -17.1033   19.1196 C   0  0  0  0  0  0  0  0  0  0  0  0
   11.9074  -17.2717   17.8322 C   0  0  0  0  0  0  0  0  0  0  0  0
   12.1943  -16.5682   16.8479 O   0  0  0  0  0  0  0  0  0  0  0  0
   12.2845  -17.1814   21.6112 C   0  0  0  0  0  0  0  0  0  0  0  0
   13.2601  -16.4868   21.9739 O   0  0  0  0  0  0  0  0  0  0  0  0
   10.9396  -18.2531   17.6845 O   0  0  0  0  0  0  0  0  0  0  0  0
   10.3211  -18.9912   24.5761 O   0  0  0  0  0  0  0  0  0  0  0  0
   11.5004  -18.4026   24.9546 C   0  0  0  0  0  0  0  0  0  0  0  0
   12.5039  -18.3970   23.8242 C   0  0  2  0  0  0  0  0  0  0  0  0
   11.8776  -18.1823   22.5435 N   0  0  0  0  0  0  0  0  0  0  0  0
   13.1717  -19.7356   23.7915 C   0  0  0  0  0  0  0  0  0  0  0  0
   13.9722  -20.1919   24.8328 O   0  0  0  0  0  0  0  0  0  0  0  0
   13.0361  -20.5116   22.8123 O   0  0  0  0  0  0  0  0  0  0  0  0
  2  3  1  6
  2  4  1  0
  2  1  1  0
  4  6  1  0
  4  5  1  6
  6  8  1  0
  6  7  2  0
  8  9  1  0
  9 13  1  0
  9 10  1  6
 11 15  1  0
 11 10  1  0
 12 11  2  0
 13 14  2  0
 17 16  1  0
 18 17  1  1
 19 18  1  0
 19 13  1  0
 20 21  1  0
 20 18  1  0
 22 20  2  0
M  END
$$$$
