VDS.pdb
     RDKit          3D

 22 21  0  0  1  0  0  0  0  0999 V2000
    9.2478  -12.1099   19.5665 C   0  0  0  0  0  0  0  0  0  0  0  0
    8.1476  -13.0546   19.2364 C   0  0  2  0  0  0  0  0  0  0  0  0
    7.3715  -13.3911   20.4875 C   0  0  0  0  0  0  0  0  0  0  0  0
    8.5278  -14.2680   18.4493 C   0  0  2  0  0  0  0  0  0  0  0  0
    7.2540  -14.9776   18.1974 N   0  0  0  0  0  0  0  0  0  0  0  0
    9.4129  -15.2212   19.1373 C   0  0  0  0  0  0  0  0  0  0  0  0
    8.8722  -16.1071   19.8851 O   0  0  0  0  0  0  0  0  0  0  0  0
   10.8113  -15.2808   19.0703 N   0  0  0  0  0  0  0  0  0  0  0  0
   11.6225  -16.2990   19.7749 C   0  0  1  0  0  0  0  0  0  0  0  0
   12.9346  -16.2804   19.0192 C   0  0  0  0  0  0  0  0  0  0  0  0
   13.8899  -17.3105   19.3622 C   0  0  0  0  0  0  0  0  0  0  0  0
   13.6531  -18.1841   20.2147 O   0  0  0  0  0  0  0  0  0  0  0  0
   11.7447  -15.9495   21.2002 C   0  0  0  0  0  0  0  0  0  0  0  0
   12.0776  -14.7995   21.5643 O   0  0  0  0  0  0  0  0  0  0  0  0
   15.1178  -17.3293   18.7191 O   0  0  0  0  0  0  0  0  0  0  0  0
    9.9821  -16.2932   25.5344 O   0  0  0  0  0  0  0  0  0  0  0  0
   10.0180  -16.5368   24.1853 C   0  0  0  0  0  0  0  0  0  0  0  0
   11.4327  -16.5008   23.6541 C   0  0  2  0  0  0  0  0  0  0  0  0
   11.4995  -16.8706   22.2622 N   0  0  0  0  0  0  0  0  0  0  0  0
   12.2445  -17.4879   24.4322 C   0  0  0  0  0  0  0  0  0  0  0  0
   12.5066  -17.3291   25.7884 O   0  0  0  0  0  0  0  0  0  0  0  0
   12.7284  -18.5120   23.8878 O   0  0  0  0  0  0  0  0  0  0  0  0
  2  3  1  1
  2  4  1  0
  2  1  1  0
  4  6  1  0
  4  5  1  1
  6  8  1  0
  6  7  2  0
  8  9  1  0
  9 13  1  0
  9 10  1  6
 11 15  1  0
 11 10  1  0
 12 11  2  0
 13 14  2  0
 17 16  1  0
 18 17  1  1
 19 18  1  0
 19 13  1  0
 20 21  1  0
 20 18  1  0
 22 20  2  0
M  END
$$$$
