VDS.pdb
     RDKit          3D

 22 21  0  0  1  0  0  0  0  0999 V2000
    7.5821  -13.5278   20.9216 C   0  0  0  0  0  0  0  0  0  0  0  0
    8.4482  -13.2682   19.7407 C   0  0  2  0  0  0  0  0  0  0  0  0
    7.7460  -12.3285   18.7896 C   0  0  0  0  0  0  0  0  0  0  0  0
    9.0115  -14.4708   19.0530 C   0  0  2  0  0  0  0  0  0  0  0  0
    7.8573  -15.1023   18.3760 N   0  0  0  0  0  0  0  0  0  0  0  0
    9.5944  -15.4938   19.9357 C   0  0  0  0  0  0  0  0  0  0  0  0
    8.8407  -16.4541   20.3178 O   0  0  0  0  0  0  0  0  0  0  0  0
   10.9084  -15.5480   20.4195 N   0  0  0  0  0  0  0  0  0  0  0  0
   11.3749  -16.5404   21.4139 C   0  0  1  0  0  0  0  0  0  0  0  0
   12.8487  -16.6822   21.0968 C   0  0  0  0  0  0  0  0  0  0  0  0
   13.6142  -17.5477   21.9666 C   0  0  0  0  0  0  0  0  0  0  0  0
   14.7744  -17.2785   22.3239 O   0  0  0  0  0  0  0  0  0  0  0  0
   11.0970  -16.0583   22.7772 C   0  0  0  0  0  0  0  0  0  0  0  0
   11.6811  -15.0563   23.2472 O   0  0  0  0  0  0  0  0  0  0  0  0
   13.0376  -18.7231   22.4219 O   0  0  0  0  0  0  0  0  0  0  0  0
    7.6554  -16.9169   24.7063 O   0  0  0  0  0  0  0  0  0  0  0  0
    8.4636  -15.9670   25.2766 C   0  0  0  0  0  0  0  0  0  0  0  0
    9.9244  -16.2544   25.0154 C   0  0  2  0  0  0  0  0  0  0  0  0
   10.1601  -16.6777   23.6576 N   0  0  0  0  0  0  0  0  0  0  0  0
   10.3471  -17.3656   25.9240 C   0  0  0  0  0  0  0  0  0  0  0  0
   10.2507  -17.2709   27.3078 O   0  0  0  0  0  0  0  0  0  0  0  0
   10.8117  -18.4417   25.4706 O   0  0  0  0  0  0  0  0  0  0  0  0
  2  3  1  6
  2  4  1  0
  2  1  1  0
  4  6  1  0
  4  5  1  1
  6  8  1  0
  6  7  2  0
  8  9  1  0
  9 13  1  0
  9 10  1  1
 11 15  1  0
 11 10  1  0
 12 11  2  0
 13 14  2  0
 17 16  1  0
 18 17  1  6
 19 18  1  0
 19 13  1  0
 20 21  1  0
 20 18  1  0
 22 20  2  0
M  END
$$$$
