VDS.pdb
     RDKit          3D

 22 21  0  0  1  0  0  0  0  0999 V2000
    7.3172  -12.5443   18.8106 C   0  0  0  0  0  0  0  0  0  0  0  0
    8.3363  -13.4481   19.4077 C   0  0  2  0  0  0  0  0  0  0  0  0
    9.1687  -12.6861   20.4112 C   0  0  0  0  0  0  0  0  0  0  0  0
    9.1685  -14.2369   18.4477 C   0  0  2  0  0  0  0  0  0  0  0  0
    8.1964  -14.9938   17.6281 N   0  0  0  0  0  0  0  0  0  0  0  0
   10.0715  -15.2282   19.0538 C   0  0  0  0  0  0  0  0  0  0  0  0
    9.5541  -16.2982   19.5272 O   0  0  0  0  0  0  0  0  0  0  0  0
   11.4647  -15.1431   19.1771 N   0  0  0  0  0  0  0  0  0  0  0  0
   12.2830  -16.1275   19.9205 C   0  0  1  0  0  0  0  0  0  0  0  0
   13.6509  -15.9911   19.2856 C   0  0  0  0  0  0  0  0  0  0  0  0
   13.7875  -16.4931   17.9363 C   0  0  0  0  0  0  0  0  0  0  0  0
   13.4660  -17.6515   17.6188 O   0  0  0  0  0  0  0  0  0  0  0  0
   12.2555  -15.8222   21.3608 C   0  0  0  0  0  0  0  0  0  0  0  0
   12.8397  -14.8184   21.8267 O   0  0  0  0  0  0  0  0  0  0  0  0
   14.2959  -15.6553   16.9559 O   0  0  0  0  0  0  0  0  0  0  0  0
    9.2940  -17.1557   23.7567 O   0  0  0  0  0  0  0  0  0  0  0  0
   10.1138  -16.1667   24.2367 C   0  0  0  0  0  0  0  0  0  0  0  0
   11.5304  -16.3306   23.7354 C   0  0  2  0  0  0  0  0  0  0  0  0
   11.5764  -16.6257   22.3250 N   0  0  0  0  0  0  0  0  0  0  0  0
   12.1501  -17.4796   24.4666 C   0  0  0  0  0  0  0  0  0  0  0  0
   12.4054  -17.4397   25.8327 O   0  0  0  0  0  0  0  0  0  0  0  0
   12.4693  -18.5394   23.8713 O   0  0  0  0  0  0  0  0  0  0  0  0
  2  3  1  6
  2  4  1  0
  2  1  1  0
  4  6  1  0
  4  5  1  6
  6  8  1  0
  6  7  2  0
  8  9  1  0
  9 13  1  0
  9 10  1  6
 11 15  1  0
 11 10  1  0
 12 11  2  0
 13 14  2  0
 17 16  1  0
 18 17  1  1
 19 18  1  0
 19 13  1  0
 20 21  1  0
 20 18  1  0
 22 20  2  0
M  END
$$$$
