VDS.pdb
     RDKit          3D

 22 21  0  0  1  0  0  0  0  0999 V2000
    9.5197  -13.5053   19.4518 C   0  0  0  0  0  0  0  0  0  0  0  0
    8.1420  -14.0634   19.4019 C   0  0  2  0  0  0  0  0  0  0  0  0
    7.2038  -13.0521   18.7875 C   0  0  0  0  0  0  0  0  0  0  0  0
    7.6133  -14.6420   20.6755 C   0  0  2  0  0  0  0  0  0  0  0  0
    7.3695  -13.4772   21.5549 N   0  0  0  0  0  0  0  0  0  0  0  0
    8.5337  -15.5325   21.4003 C   0  0  0  0  0  0  0  0  0  0  0  0
    8.5215  -16.7764   21.1020 O   0  0  0  0  0  0  0  0  0  0  0  0
    9.4472  -15.1757   22.4011 N   0  0  0  0  0  0  0  0  0  0  0  0
   10.2369  -16.1581   23.1774 C   0  0  1  0  0  0  0  0  0  0  0  0
   11.6663  -15.7179   22.9411 C   0  0  0  0  0  0  0  0  0  0  0  0
   12.3675  -16.3632   21.8533 C   0  0  0  0  0  0  0  0  0  0  0  0
   12.3379  -17.5936   21.6762 O   0  0  0  0  0  0  0  0  0  0  0  0
    9.8259  -16.1323   24.5912 C   0  0  0  0  0  0  0  0  0  0  0  0
    9.9442  -15.0989   25.2869 O   0  0  0  0  0  0  0  0  0  0  0  0
   13.1019  -15.5854   20.9718 O   0  0  0  0  0  0  0  0  0  0  0  0
    6.7570  -18.1488   26.0217 O   0  0  0  0  0  0  0  0  0  0  0  0
    7.3672  -17.2110   26.8145 C   0  0  0  0  0  0  0  0  0  0  0  0
    8.8701  -17.2467   26.6570 C   0  0  2  0  0  0  0  0  0  0  0  0
    9.2707  -17.2569   25.2721 N   0  0  0  0  0  0  0  0  0  0  0  0
    9.3720  -18.5059   27.2906 C   0  0  0  0  0  0  0  0  0  0  0  0
   10.0314  -19.4912   26.5643 O   0  0  0  0  0  0  0  0  0  0  0  0
    9.2174  -18.7284   28.5178 O   0  0  0  0  0  0  0  0  0  0  0  0
  2  3  1  1
  2  4  1  0
  2  1  1  0
  4  6  1  0
  4  5  1  1
  6  8  1  0
  6  7  2  0
  8  9  1  0
  9 13  1  0
  9 10  1  1
 11 15  1  0
 11 10  1  0
 12 11  2  0
 13 14  2  0
 17 16  1  0
 18 17  1  6
 19 18  1  0
 19 13  1  0
 20 21  1  0
 20 18  1  0
 22 20  2  0
M  END
$$$$
