VDS.pdb
     RDKit          3D

 22 21  0  0  1  0  0  0  0  0999 V2000
    7.4893  -12.5923   19.8779 C   0  0  0  0  0  0  0  0  0  0  0  0
    8.5521  -13.1747   19.0158 C   0  0  2  0  0  0  0  0  0  0  0  0
    8.0209  -14.3979   18.3071 C   0  0  0  0  0  0  0  0  0  0  0  0
    9.8774  -13.4142   19.6659 C   0  0  2  0  0  0  0  0  0  0  0  0
   10.8155  -13.6581   18.5478 N   0  0  0  0  0  0  0  0  0  0  0  0
    9.9518  -14.5929   20.5437 C   0  0  0  0  0  0  0  0  0  0  0  0
    9.1768  -14.6312   21.5608 O   0  0  0  0  0  0  0  0  0  0  0  0
   10.7871  -15.7084   20.3973 N   0  0  0  0  0  0  0  0  0  0  0  0
   10.6935  -16.9187   21.2446 C   0  0  1  0  0  0  0  0  0  0  0  0
   11.6377  -17.8897   20.5674 C   0  0  0  0  0  0  0  0  0  0  0  0
   11.6551  -19.2393   21.0867 C   0  0  0  0  0  0  0  0  0  0  0  0
   12.5424  -20.0580   20.7893 O   0  0  0  0  0  0  0  0  0  0  0  0
   11.0603  -16.5929   22.6330 C   0  0  0  0  0  0  0  0  0  0  0  0
   12.0837  -15.9233   22.8980 O   0  0  0  0  0  0  0  0  0  0  0  0
   10.6466  -19.6406   21.9489 O   0  0  0  0  0  0  0  0  0  0  0  0
    8.8379  -15.1372   25.1056 O   0  0  0  0  0  0  0  0  0  0  0  0
    9.4967  -16.0565   25.8810 C   0  0  0  0  0  0  0  0  0  0  0  0
   10.6459  -16.6907   25.1313 C   0  0  2  0  0  0  0  0  0  0  0  0
   10.2980  -17.0029   23.7675 N   0  0  0  0  0  0  0  0  0  0  0  0
   10.9983  -17.9709   25.8212 C   0  0  0  0  0  0  0  0  0  0  0  0
   11.3906  -18.0125   27.1544 O   0  0  0  0  0  0  0  0  0  0  0  0
   10.9541  -19.0731   25.2192 O   0  0  0  0  0  0  0  0  0  0  0  0
  2  3  1  1
  2  4  1  0
  2  1  1  0
  4  6  1  0
  4  5  1  6
  6  8  1  0
  6  7  2  0
  8  9  1  0
  9 13  1  0
  9 10  1  6
 11 15  1  0
 11 10  1  0
 12 11  2  0
 13 14  2  0
 17 16  1  0
 18 17  1  1
 19 18  1  0
 19 13  1  0
 20 21  1  0
 20 18  1  0
 22 20  2  0
M  END
$$$$
