VDS.pdb
     RDKit          3D

 22 21  0  0  1  0  0  0  0  0999 V2000
    8.0445  -14.6288   18.3672 C   0  0  0  0  0  0  0  0  0  0  0  0
    8.2055  -13.5257   19.3516 C   0  0  2  0  0  0  0  0  0  0  0  0
    7.9349  -12.1999   18.6809 C   0  0  0  0  0  0  0  0  0  0  0  0
    9.4732  -13.5231   20.1448 C   0  0  2  0  0  0  0  0  0  0  0  0
   10.5469  -13.2933   19.1529 N   0  0  0  0  0  0  0  0  0  0  0  0
    9.7964  -14.7835   20.8321 C   0  0  0  0  0  0  0  0  0  0  0  0
    8.9405  -15.2495   21.6608 O   0  0  0  0  0  0  0  0  0  0  0  0
   10.9553  -15.5573   20.6846 N   0  0  0  0  0  0  0  0  0  0  0  0
   11.1881  -16.8293   21.4051 C   0  0  1  0  0  0  0  0  0  0  0  0
   12.3106  -17.4727   20.6183 C   0  0  0  0  0  0  0  0  0  0  0  0
   11.9543  -18.0454   19.3390 C   0  0  0  0  0  0  0  0  0  0  0  0
   10.8492  -18.5749   19.1287 O   0  0  0  0  0  0  0  0  0  0  0  0
   11.5200  -16.5584   22.8139 C   0  0  0  0  0  0  0  0  0  0  0  0
   12.4413  -15.7720   23.1282 O   0  0  0  0  0  0  0  0  0  0  0  0
   12.8763  -18.0053   18.3047 O   0  0  0  0  0  0  0  0  0  0  0  0
    8.7863  -16.5341   25.6255 O   0  0  0  0  0  0  0  0  0  0  0  0
   10.0296  -16.0554   25.9508 C   0  0  0  0  0  0  0  0  0  0  0  0
   11.1238  -16.8685   25.2978 C   0  0  2  0  0  0  0  0  0  0  0  0
   10.8353  -17.1551   23.9147 N   0  0  0  0  0  0  0  0  0  0  0  0
   11.2291  -18.1716   26.0258 C   0  0  0  0  0  0  0  0  0  0  0  0
   11.6374  -18.2503   27.3525 O   0  0  0  0  0  0  0  0  0  0  0  0
   10.9505  -19.2605   25.4635 O   0  0  0  0  0  0  0  0  0  0  0  0
  2  3  1  6
  2  4  1  0
  2  1  1  0
  4  6  1  0
  4  5  1  6
  6  8  1  0
  6  7  2  0
  8  9  1  0
  9 13  1  0
  9 10  1  6
 11 15  1  0
 11 10  1  0
 12 11  2  0
 13 14  2  0
 17 16  1  0
 18 17  1  1
 19 18  1  0
 19 13  1  0
 20 21  1  0
 20 18  1  0
 22 20  2  0
M  END
$$$$
