VDS.pdb
     RDKit          3D

 22 21  0  0  1  0  0  0  0  0999 V2000
    7.6791  -13.3614   21.2339 C   0  0  0  0  0  0  0  0  0  0  0  0
    8.4179  -13.3850   19.9433 C   0  0  2  0  0  0  0  0  0  0  0  0
    7.8058  -12.3894   18.9868 C   0  0  0  0  0  0  0  0  0  0  0  0
    8.6267  -14.7291   19.3220 C   0  0  2  0  0  0  0  0  0  0  0  0
    7.2737  -15.1900   18.9392 N   0  0  0  0  0  0  0  0  0  0  0  0
    9.1883  -15.7600   20.2093 C   0  0  0  0  0  0  0  0  0  0  0  0
    8.3715  -16.4997   20.8590 O   0  0  0  0  0  0  0  0  0  0  0  0
   10.5428  -16.0398   20.4338 N   0  0  0  0  0  0  0  0  0  0  0  0
   11.0226  -17.0070   21.4466 C   0  0  1  0  0  0  0  0  0  0  0  0
   12.3592  -17.4541   20.8930 C   0  0  0  0  0  0  0  0  0  0  0  0
   13.0845  -18.4324   21.6729 C   0  0  0  0  0  0  0  0  0  0  0  0
   13.8601  -18.1130   22.5907 O   0  0  0  0  0  0  0  0  0  0  0  0
   11.1051  -16.3578   22.7657 C   0  0  0  0  0  0  0  0  0  0  0  0
   11.7435  -15.2944   22.9313 O   0  0  0  0  0  0  0  0  0  0  0  0
   12.9123  -19.7786   21.3905 O   0  0  0  0  0  0  0  0  0  0  0  0
    8.1348  -16.3112   25.3650 O   0  0  0  0  0  0  0  0  0  0  0  0
    9.2245  -15.4952   25.5305 C   0  0  0  0  0  0  0  0  0  0  0  0
   10.5131  -16.2245   25.2263 C   0  0  2  0  0  0  0  0  0  0  0  0
   10.4787  -16.8737   23.9396 N   0  0  0  0  0  0  0  0  0  0  0  0
   10.7050  -17.2799   26.2695 C   0  0  0  0  0  0  0  0  0  0  0  0
   10.8339  -18.6265   25.9487 O   0  0  0  0  0  0  0  0  0  0  0  0
   10.7582  -16.9911   27.4915 O   0  0  0  0  0  0  0  0  0  0  0  0
  2  3  1  6
  2  4  1  0
  2  1  1  0
  4  6  1  0
  4  5  1  1
  6  8  1  0
  6  7  2  0
  8  9  1  0
  9 13  1  0
  9 10  1  6
 11 15  1  0
 11 10  1  0
 12 11  2  0
 13 14  2  0
 17 16  1  0
 18 17  1  1
 19 18  1  0
 19 13  1  0
 20 21  1  0
 20 18  1  0
 22 20  2  0
M  END
$$$$
