VDS.pdb
     RDKit          3D

 22 21  0  0  1  0  0  0  0  0999 V2000
    9.2746  -11.8877   19.2269 C   0  0  0  0  0  0  0  0  0  0  0  0
    8.2213  -12.8095   18.7241 C   0  0  2  0  0  0  0  0  0  0  0  0
    7.3183  -13.2215   19.8623 C   0  0  0  0  0  0  0  0  0  0  0  0
    8.6902  -13.9725   17.9094 C   0  0  2  0  0  0  0  0  0  0  0  0
    7.4545  -14.6608   17.4751 N   0  0  0  0  0  0  0  0  0  0  0  0
    9.4978  -14.9697   18.6296 C   0  0  0  0  0  0  0  0  0  0  0  0
    8.8810  -15.8681   19.2996 O   0  0  0  0  0  0  0  0  0  0  0  0
   10.8955  -15.0599   18.6708 N   0  0  0  0  0  0  0  0  0  0  0  0
   11.6266  -16.1323   19.3828 C   0  0  1  0  0  0  0  0  0  0  0  0
   12.8597  -16.3374   18.5283 C   0  0  0  0  0  0  0  0  0  0  0  0
   12.6608  -17.0031   17.2600 C   0  0  0  0  0  0  0  0  0  0  0  0
   11.9262  -17.9987   17.1361 O   0  0  0  0  0  0  0  0  0  0  0  0
   11.9157  -15.7146   20.7650 C   0  0  0  0  0  0  0  0  0  0  0  0
   12.6712  -14.7476   21.0104 O   0  0  0  0  0  0  0  0  0  0  0  0
   13.3114  -16.5171   16.1366 O   0  0  0  0  0  0  0  0  0  0  0  0
    9.5932  -17.0081   23.9099 O   0  0  0  0  0  0  0  0  0  0  0  0
   10.3713  -15.8954   24.1026 C   0  0  0  0  0  0  0  0  0  0  0  0
   11.6331  -15.9521   23.2723 C   0  0  2  0  0  0  0  0  0  0  0  0
   11.3718  -16.3614   21.9149 N   0  0  0  0  0  0  0  0  0  0  0  0
   12.5484  -16.9621   23.8896 C   0  0  0  0  0  0  0  0  0  0  0  0
   13.1607  -16.7551   25.1206 O   0  0  0  0  0  0  0  0  0  0  0  0
   12.8050  -18.0505   23.3161 O   0  0  0  0  0  0  0  0  0  0  0  0
  2  3  1  1
  2  4  1  0
  2  1  1  0
  4  6  1  0
  4  5  1  1
  6  8  1  0
  6  7  2  0
  8  9  1  0
  9 13  1  0
  9 10  1  6
 11 15  1  0
 11 10  1  0
 12 11  2  0
 13 14  2  0
 17 16  1  0
 18 17  1  1
 19 18  1  0
 19 13  1  0
 20 21  1  0
 20 18  1  0
 22 20  2  0
M  END
$$$$
