CWM.pdb
     RDKit          3D

 29 30  0  0  1  0  0  0  0  0999 V2000
   10.8197  -16.0812   18.7795 N   0  0  0  0  0  0  0  0  0  0  0  0
   10.0441  -16.9684   19.5961 C   0  0  1  0  0  0  0  0  0  0  0  0
   10.6453  -18.3353   19.6433 C   0  0  0  0  0  0  0  0  0  0  0  0
   12.2497  -18.2681   20.4395 S   0  0  0  0  0  0  0  0  0  0  0  0
    9.8857  -16.3728   20.9686 C   0  0  0  0  0  0  0  0  0  0  0  0
   10.5903  -15.3942   21.2572 O   0  0  0  0  0  0  0  0  0  0  0  0
    8.9684  -16.9048   21.9002 N   0  0  0  0  0  0  0  0  0  0  0  0
    8.7487  -16.4275   23.2317 C   0  0  1  0  0  0  0  0  0  0  0  0
    7.4856  -16.9344   23.9075 C   0  0  0  0  0  0  0  0  0  0  0  0
    6.7897  -15.9152   24.7060 C   0  0  0  0  0  0  0  0  0  0  0  0
    5.6435  -15.9250   25.4513 C   0  0  0  0  0  0  0  0  0  0  0  0
    5.4278  -14.7022   26.0228 N   0  0  0  0  0  0  0  0  0  0  0  0
    6.4265  -13.8844   25.6588 C   0  0  0  0  0  0  0  0  0  0  0  0
    6.6726  -12.5595   25.9672 C   0  0  0  0  0  0  0  0  0  0  0  0
    7.7858  -11.9581   25.4548 C   0  0  0  0  0  0  0  0  0  0  0  0
    8.6592  -12.6493   24.6415 C   0  0  0  0  0  0  0  0  0  0  0  0
    8.3869  -13.9807   24.3479 C   0  0  0  0  0  0  0  0  0  0  0  0
    7.2736  -14.6081   24.8509 C   0  0  0  0  0  0  0  0  0  0  0  0
    9.9367  -16.6846   24.0716 C   0  0  0  0  0  0  0  0  0  0  0  0
   10.8499  -17.4558   23.6276 O   0  0  0  0  0  0  0  0  0  0  0  0
   10.7801  -14.1166   30.0502 C   0  0  0  0  0  0  0  0  0  0  0  0
   10.2093  -13.3017   28.5270 S   0  0  0  0  0  0  0  0  0  0  0  0
   10.8029  -14.1424   27.0707 C   0  0  0  0  0  0  0  0  0  0  0  0
   11.4157  -15.4671   27.2457 C   0  0  0  0  0  0  0  0  0  0  0  0
   11.3625  -16.3896   26.0859 C   0  0  2  0  0  0  0  0  0  0  0  0
   10.1123  -16.1165   25.3476 N   0  0  0  0  0  0  0  0  0  0  0  0
   11.3531  -17.8137   26.3743 C   0  0  0  0  0  0  0  0  0  0  0  0
   12.4684  -18.4313   26.4809 O   0  0  0  0  0  0  0  0  0  0  0  0
   10.2418  -18.6091   26.5601 O   0  0  0  0  0  0  0  0  0  0  0  0
  2  1  1  6
  2  5  1  0
  3  2  1  0
  4  3  1  0
  5  6  2  0
  5  7  1  0
  7  8  1  0
  8 19  1  0
  8  9  1  1
 10  9  1  0
 10 18  1  0
 11 10  2  0
 12 11  1  0
 12 13  1  0
 13 14  1  0
 13 18  2  0
 14 15  2  0
 15 16  1  0
 17 16  2  0
 18 17  1  0
 19 20  2  0
 22 21  1  0
 23 24  1  0
 23 22  1  0
 25 24  1  1
 25 27  1  0
 26 25  1  0
 26 19  1  0
 27 28  2  0
 27 29  1  0
M  END
$$$$
