CWM.pdb
     RDKit          3D

 29 30  0  0  1  0  0  0  0  0999 V2000
    7.0864  -14.8685   19.7141 N   0  0  0  0  0  0  0  0  0  0  0  0
    7.3106  -16.0004   20.5653 C   0  0  1  0  0  0  0  0  0  0  0  0
    7.6578  -17.2197   19.7748 C   0  0  0  0  0  0  0  0  0  0  0  0
    7.6003  -18.6670   20.8304 S   0  0  0  0  0  0  0  0  0  0  0  0
    8.3713  -15.6614   21.5769 C   0  0  0  0  0  0  0  0  0  0  0  0
    9.2556  -14.8607   21.2388 O   0  0  0  0  0  0  0  0  0  0  0  0
    8.3657  -16.2317   22.8681 N   0  0  0  0  0  0  0  0  0  0  0  0
    9.3012  -15.9533   23.9152 C   0  0  1  0  0  0  0  0  0  0  0  0
    8.7559  -16.0757   25.3282 C   0  0  0  0  0  0  0  0  0  0  0  0
    7.5908  -15.2190   25.5912 C   0  0  0  0  0  0  0  0  0  0  0  0
    6.2481  -15.4594   25.6840 C   0  0  0  0  0  0  0  0  0  0  0  0
    5.5686  -14.3069   25.9638 N   0  0  0  0  0  0  0  0  0  0  0  0
    6.4563  -13.3059   26.0567 C   0  0  0  0  0  0  0  0  0  0  0  0
    6.2823  -11.9604   26.3223 C   0  0  0  0  0  0  0  0  0  0  0  0
    7.3786  -11.1480   26.3616 C   0  0  0  0  0  0  0  0  0  0  0  0
    8.6448  -11.6481   26.1417 C   0  0  0  0  0  0  0  0  0  0  0  0
    8.7904  -13.0052   25.8768 C   0  0  0  0  0  0  0  0  0  0  0  0
    7.7032  -13.8431   25.8317 C   0  0  0  0  0  0  0  0  0  0  0  0
   10.5192  -16.7724   23.7462 C   0  0  0  0  0  0  0  0  0  0  0  0
   10.3963  -18.0011   23.4282 O   0  0  0  0  0  0  0  0  0  0  0  0
   16.8514  -14.4090   23.2272 C   0  0  0  0  0  0  0  0  0  0  0  0
   16.7295  -15.9914   22.3377 S   0  0  0  0  0  0  0  0  0  0  0  0
   15.3745  -16.9811   22.9411 C   0  0  0  0  0  0  0  0  0  0  0  0
   14.0701  -16.3255   23.1133 C   0  0  0  0  0  0  0  0  0  0  0  0
   12.9752  -17.1485   23.6814 C   0  0  2  0  0  0  0  0  0  0  0  0
   11.8189  -16.2604   23.9203 N   0  0  0  0  0  0  0  0  0  0  0  0
   13.2365  -17.8132   24.9468 C   0  0  0  0  0  0  0  0  0  0  0  0
   12.6994  -17.3505   26.0118 O   0  0  0  0  0  0  0  0  0  0  0  0
   14.0204  -18.9307   25.1436 O   0  0  0  0  0  0  0  0  0  0  0  0
  2  1  1  6
  2  5  1  0
  3  2  1  0
  4  3  1  0
  5  6  2  0
  5  7  1  0
  7  8  1  0
  8 19  1  0
  8  9  1  1
 10  9  1  0
 10 18  1  0
 11 10  2  0
 12 11  1  0
 12 13  1  0
 13 14  1  0
 13 18  2  0
 14 15  2  0
 15 16  1  0
 17 16  2  0
 18 17  1  0
 19 20  2  0
 22 21  1  0
 23 24  1  0
 23 22  1  0
 25 24  1  1
 25 27  1  0
 26 25  1  0
 26 19  1  0
 27 28  2  0
 27 29  1  0
M  END
$$$$
