CWM.pdb
     RDKit          3D

 29 30  0  0  1  0  0  0  0  0999 V2000
    7.4593  -19.4101   22.0540 N   0  0  0  0  0  0  0  0  0  0  0  0
    8.3677  -19.2326   20.9591 C   0  0  1  0  0  0  0  0  0  0  0  0
    7.6833  -19.4188   19.6441 C   0  0  0  0  0  0  0  0  0  0  0  0
    6.6240  -20.8631   19.7078 S   0  0  0  0  0  0  0  0  0  0  0  0
    9.0235  -17.8830   21.0689 C   0  0  0  0  0  0  0  0  0  0  0  0
    9.9576  -17.6311   20.2934 O   0  0  0  0  0  0  0  0  0  0  0  0
    8.5948  -16.9318   22.0196 N   0  0  0  0  0  0  0  0  0  0  0  0
    9.1180  -15.6093   22.1819 C   0  0  1  0  0  0  0  0  0  0  0  0
    8.0816  -14.5171   22.3867 C   0  0  0  0  0  0  0  0  0  0  0  0
    7.2962  -14.6676   23.6200 C   0  0  0  0  0  0  0  0  0  0  0  0
    6.6745  -15.7296   24.2157 C   0  0  0  0  0  0  0  0  0  0  0  0
    6.0766  -15.3471   25.3839 N   0  0  0  0  0  0  0  0  0  0  0  0
    6.3007  -14.0370   25.5630 C   0  0  0  0  0  0  0  0  0  0  0  0
    5.9157  -13.1809   26.5779 C   0  0  0  0  0  0  0  0  0  0  0  0
    6.2882  -11.8693   26.5122 C   0  0  0  0  0  0  0  0  0  0  0  0
    7.0364  -11.3926   25.4564 C   0  0  0  0  0  0  0  0  0  0  0  0
    7.4097  -12.2759   24.4497 C   0  0  0  0  0  0  0  0  0  0  0  0
    7.0473  -13.5998   24.4927 C   0  0  0  0  0  0  0  0  0  0  0  0
   10.1295  -15.5862   23.2586 C   0  0  0  0  0  0  0  0  0  0  0  0
   11.0402  -14.6943   23.2294 O   0  0  0  0  0  0  0  0  0  0  0  0
   10.8629  -12.9726   28.8888 C   0  0  0  0  0  0  0  0  0  0  0  0
   10.7332  -14.7671   29.1589 S   0  0  0  0  0  0  0  0  0  0  0  0
   11.3769  -15.6876   27.7739 C   0  0  0  0  0  0  0  0  0  0  0  0
   10.5647  -15.7421   26.5499 C   0  0  0  0  0  0  0  0  0  0  0  0
   11.1799  -16.3862   25.3643 C   0  0  2  0  0  0  0  0  0  0  0  0
   10.1384  -16.5069   24.3235 N   0  0  0  0  0  0  0  0  0  0  0  0
   11.7209  -17.7227   25.5448 C   0  0  0  0  0  0  0  0  0  0  0  0
   11.0739  -18.7213   25.0750 O   0  0  0  0  0  0  0  0  0  0  0  0
   12.8979  -18.0556   26.1820 O   0  0  0  0  0  0  0  0  0  0  0  0
  2  1  1  1
  2  5  1  0
  3  2  1  0
  4  3  1  0
  5  6  2  0
  5  7  1  0
  7  8  1  0
  8 19  1  0
  8  9  1  1
 10  9  1  0
 10 18  1  0
 11 10  2  0
 12 11  1  0
 12 13  1  0
 13 14  1  0
 13 18  2  0
 14 15  2  0
 15 16  1  0
 17 16  2  0
 18 17  1  0
 19 20  2  0
 22 21  1  0
 23 24  1  0
 23 22  1  0
 25 24  1  1
 25 27  1  0
 26 25  1  0
 26 19  1  0
 27 28  2  0
 27 29  1  0
M  END
$$$$
