CWM.pdb
     RDKit          3D

 29 30  0  0  1  0  0  0  0  0999 V2000
    7.0589  -18.6358   20.1053 N   0  0  0  0  0  0  0  0  0  0  0  0
    7.1157  -18.2491   21.4848 C   0  0  1  0  0  0  0  0  0  0  0  0
    7.0219  -19.4340   22.3899 C   0  0  0  0  0  0  0  0  0  0  0  0
    5.4185  -19.4639   23.1902 S   0  0  0  0  0  0  0  0  0  0  0  0
    8.3669  -17.4499   21.7276 C   0  0  0  0  0  0  0  0  0  0  0  0
    9.3646  -17.7182   21.0420 O   0  0  0  0  0  0  0  0  0  0  0  0
    8.4102  -16.4283   22.7007 N   0  0  0  0  0  0  0  0  0  0  0  0
    9.5194  -15.5622   22.9630 C   0  0  1  0  0  0  0  0  0  0  0  0
    9.1788  -14.2591   23.6665 C   0  0  0  0  0  0  0  0  0  0  0  0
    7.9676  -14.3313   24.4962 C   0  0  0  0  0  0  0  0  0  0  0  0
    7.2473  -15.3680   25.0212 C   0  0  0  0  0  0  0  0  0  0  0  0
    6.1875  -14.9016   25.7477 N   0  0  0  0  0  0  0  0  0  0  0  0
    6.2044  -13.5613   25.7053 C   0  0  0  0  0  0  0  0  0  0  0  0
    5.3608  -12.6247   26.2730 C   0  0  0  0  0  0  0  0  0  0  0  0
    5.6136  -11.2989   26.0694 C   0  0  0  0  0  0  0  0  0  0  0  0
    6.6897  -10.8864   25.3118 C   0  0  0  0  0  0  0  0  0  0  0  0
    7.5216  -11.8499   24.7529 C   0  0  0  0  0  0  0  0  0  0  0  0
    7.2883  -13.1899   24.9429 C   0  0  0  0  0  0  0  0  0  0  0  0
   10.5801  -16.2921   23.6876 C   0  0  0  0  0  0  0  0  0  0  0  0
   11.7919  -15.9229   23.5420 O   0  0  0  0  0  0  0  0  0  0  0  0
    9.6930  -13.5701   27.9833 C   0  0  0  0  0  0  0  0  0  0  0  0
   10.3905  -14.8836   29.0312 S   0  0  0  0  0  0  0  0  0  0  0  0
   10.4559  -16.4443   28.1712 C   0  0  0  0  0  0  0  0  0  0  0  0
   10.1525  -16.4477   26.7329 C   0  0  0  0  0  0  0  0  0  0  0  0
   10.9161  -17.3977   25.8882 C   0  0  2  0  0  0  0  0  0  0  0  0
   10.3180  -17.3835   24.5373 N   0  0  0  0  0  0  0  0  0  0  0  0
   10.9284  -18.7896   26.3049 C   0  0  0  0  0  0  0  0  0  0  0  0
   10.0017  -19.5683   25.8907 O   0  0  0  0  0  0  0  0  0  0  0  0
   11.8600  -19.3968   27.1207 O   0  0  0  0  0  0  0  0  0  0  0  0
  2  1  1  6
  2  5  1  0
  3  2  1  0
  4  3  1  0
  5  6  2  0
  5  7  1  0
  7  8  1  0
  8 19  1  0
  8  9  1  1
 10  9  1  0
 10 18  1  0
 11 10  2  0
 12 11  1  0
 12 13  1  0
 13 14  1  0
 13 18  2  0
 14 15  2  0
 15 16  1  0
 17 16  2  0
 18 17  1  0
 19 20  2  0
 22 21  1  0
 23 24  1  0
 23 22  1  0
 25 24  1  1
 25 27  1  0
 26 25  1  0
 26 19  1  0
 27 28  2  0
 27 29  1  0
M  END
$$$$
