CWM.pdb
     RDKit          3D

 29 30  0  0  1  0  0  0  0  0999 V2000
    8.9128  -13.6694   17.8159 N   0  0  0  0  0  0  0  0  0  0  0  0
    8.8708  -14.9114   18.5311 C   0  0  1  0  0  0  0  0  0  0  0  0
    9.9602  -15.8340   18.0906 C   0  0  0  0  0  0  0  0  0  0  0  0
   11.4977  -15.3907   18.8981 S   0  0  0  0  0  0  0  0  0  0  0  0
    8.9251  -14.6377   20.0094 C   0  0  0  0  0  0  0  0  0  0  0  0
    9.3726  -13.5413   20.3768 O   0  0  0  0  0  0  0  0  0  0  0  0
    8.4832  -15.5919   20.9510 N   0  0  0  0  0  0  0  0  0  0  0  0
    8.3315  -15.3780   22.3583 C   0  0  1  0  0  0  0  0  0  0  0  0
    6.9572  -15.6963   22.9232 C   0  0  0  0  0  0  0  0  0  0  0  0
    6.8132  -15.3755   24.3504 C   0  0  0  0  0  0  0  0  0  0  0  0
    6.6423  -16.1366   25.4732 C   0  0  0  0  0  0  0  0  0  0  0  0
    6.5750  -15.3472   26.5871 N   0  0  0  0  0  0  0  0  0  0  0  0
    6.7008  -14.0676   26.2054 C   0  0  0  0  0  0  0  0  0  0  0  0
    6.7013  -12.8971   26.9409 C   0  0  0  0  0  0  0  0  0  0  0  0
    6.8524  -11.7076   26.2886 C   0  0  0  0  0  0  0  0  0  0  0  0
    7.0030  -11.6597   24.9186 C   0  0  0  0  0  0  0  0  0  0  0  0
    6.9988  -12.8524   24.2041 C   0  0  0  0  0  0  0  0  0  0  0  0
    6.8482  -14.0618   24.8371 C   0  0  0  0  0  0  0  0  0  0  0  0
    9.3875  -16.0942   23.1030 C   0  0  0  0  0  0  0  0  0  0  0  0
    9.2476  -17.3422   23.3236 O   0  0  0  0  0  0  0  0  0  0  0  0
    9.1780  -13.9663   28.9495 C   0  0  0  0  0  0  0  0  0  0  0  0
   10.7841  -14.7775   28.6794 S   0  0  0  0  0  0  0  0  0  0  0  0
   10.7232  -15.9131   27.3060 C   0  0  0  0  0  0  0  0  0  0  0  0
   10.4396  -15.3623   25.9729 C   0  0  0  0  0  0  0  0  0  0  0  0
   11.1701  -15.9612   24.8300 C   0  0  2  0  0  0  0  0  0  0  0  0
   10.5497  -15.4628   23.5852 N   0  0  0  0  0  0  0  0  0  0  0  0
   11.1625  -17.4107   24.7274 C   0  0  0  0  0  0  0  0  0  0  0  0
   12.2551  -18.0180   24.4555 O   0  0  0  0  0  0  0  0  0  0  0  0
   10.0765  -18.2428   24.9009 O   0  0  0  0  0  0  0  0  0  0  0  0
  2  1  1  6
  2  5  1  0
  3  2  1  0
  4  3  1  0
  5  6  2  0
  5  7  1  0
  7  8  1  0
  8 19  1  0
  8  9  1  1
 10  9  1  0
 10 18  1  0
 11 10  2  0
 12 11  1  0
 12 13  1  0
 13 14  1  0
 13 18  2  0
 14 15  2  0
 15 16  1  0
 17 16  2  0
 18 17  1  0
 19 20  2  0
 22 21  1  0
 23 24  1  0
 23 22  1  0
 25 24  1  1
 25 27  1  0
 26 25  1  0
 26 19  1  0
 27 28  2  0
 27 29  1  0
M  END
$$$$
