CWM.pdb
     RDKit          3D

 29 30  0  0  1  0  0  0  0  0999 V2000
    9.9385  -16.0657   18.3685 N   0  0  0  0  0  0  0  0  0  0  0  0
    9.9567  -17.0926   19.3689 C   0  0  1  0  0  0  0  0  0  0  0  0
   11.1816  -17.9411   19.2604 C   0  0  0  0  0  0  0  0  0  0  0  0
   11.1295  -19.2461   20.4878 S   0  0  0  0  0  0  0  0  0  0  0  0
    9.8221  -16.4656   20.7298 C   0  0  0  0  0  0  0  0  0  0  0  0
   10.4754  -15.4366   20.9578 O   0  0  0  0  0  0  0  0  0  0  0  0
    8.9826  -17.0242   21.7175 N   0  0  0  0  0  0  0  0  0  0  0  0
    8.8261  -16.5462   23.0577 C   0  0  1  0  0  0  0  0  0  0  0  0
    7.6585  -17.1370   23.8301 C   0  0  0  0  0  0  0  0  0  0  0  0
    6.9676  -16.1691   24.6940 C   0  0  0  0  0  0  0  0  0  0  0  0
    5.9265  -16.2694   25.5745 C   0  0  0  0  0  0  0  0  0  0  0  0
    5.6625  -15.0587   26.1514 N   0  0  0  0  0  0  0  0  0  0  0  0
    6.5247  -14.1586   25.6563 C   0  0  0  0  0  0  0  0  0  0  0  0
    6.6752  -12.8088   25.9139 C   0  0  0  0  0  0  0  0  0  0  0  0
    7.6538  -12.1170   25.2605 C   0  0  0  0  0  0  0  0  0  0  0  0
    8.4859  -12.7419   24.3556 C   0  0  0  0  0  0  0  0  0  0  0  0
    8.3121  -14.1003   24.1160 C   0  0  0  0  0  0  0  0  0  0  0  0
    7.3348  -14.8184   24.7604 C   0  0  0  0  0  0  0  0  0  0  0  0
   10.0889  -16.7016   23.8087 C   0  0  0  0  0  0  0  0  0  0  0  0
   10.9206  -17.5940   23.4377 O   0  0  0  0  0  0  0  0  0  0  0  0
   10.4921  -12.4401   28.1939 C   0  0  0  0  0  0  0  0  0  0  0  0
    9.8517  -14.1307   28.3979 S   0  0  0  0  0  0  0  0  0  0  0  0
   11.0806  -15.3533   27.9799 C   0  0  0  0  0  0  0  0  0  0  0  0
   11.8207  -15.1792   26.7217 C   0  0  0  0  0  0  0  0  0  0  0  0
   11.6443  -16.2282   25.6887 C   0  0  2  0  0  0  0  0  0  0  0  0
   10.4226  -15.9076   24.9223 N   0  0  0  0  0  0  0  0  0  0  0  0
   11.4758  -17.5938   26.1558 C   0  0  0  0  0  0  0  0  0  0  0  0
   10.2936  -18.0345   26.3673 O   0  0  0  0  0  0  0  0  0  0  0  0
   12.4774  -18.5093   26.4023 O   0  0  0  0  0  0  0  0  0  0  0  0
  2  1  1  6
  2  5  1  0
  3  2  1  0
  4  3  1  0
  5  6  2  0
  5  7  1  0
  7  8  1  0
  8 19  1  0
  8  9  1  1
 10  9  1  0
 10 18  1  0
 11 10  2  0
 12 11  1  0
 12 13  1  0
 13 14  1  0
 13 18  2  0
 14 15  2  0
 15 16  1  0
 17 16  2  0
 18 17  1  0
 19 20  2  0
 22 21  1  0
 23 24  1  0
 23 22  1  0
 25 24  1  1
 25 27  1  0
 26 25  1  0
 26 19  1  0
 27 28  2  0
 27 29  1  0
M  END
$$$$
