CWM.pdb
     RDKit          3D

 29 30  0  0  1  0  0  0  0  0999 V2000
    9.1306  -19.5181   19.8572 N   0  0  0  0  0  0  0  0  0  0  0  0
    9.9101  -18.3586   19.5355 C   0  0  1  0  0  0  0  0  0  0  0  0
    9.3256  -17.6084   18.3832 C   0  0  0  0  0  0  0  0  0  0  0  0
   10.4768  -16.3523   17.8270 S   0  0  0  0  0  0  0  0  0  0  0  0
   10.0490  -17.4955   20.7598 C   0  0  0  0  0  0  0  0  0  0  0  0
   11.0614  -16.7857   20.8530 O   0  0  0  0  0  0  0  0  0  0  0  0
    9.0644  -17.4891   21.7712 N   0  0  0  0  0  0  0  0  0  0  0  0
    9.0233  -16.6103   22.9004 C   0  0  1  0  0  0  0  0  0  0  0  0
    7.6509  -16.0595   23.2502 C   0  0  0  0  0  0  0  0  0  0  0  0
    7.5920  -14.5912   23.2861 C   0  0  0  0  0  0  0  0  0  0  0  0
    7.8777  -13.6156   22.3719 C   0  0  0  0  0  0  0  0  0  0  0  0
    7.6413  -12.3761   22.8975 N   0  0  0  0  0  0  0  0  0  0  0  0
    7.2004  -12.5283   24.1549 C   0  0  0  0  0  0  0  0  0  0  0  0
    6.8238  -11.5959   25.1036 C   0  0  0  0  0  0  0  0  0  0  0  0
    6.4041  -12.0316   26.3273 C   0  0  0  0  0  0  0  0  0  0  0  0
    6.3515  -13.3770   26.6256 C   0  0  0  0  0  0  0  0  0  0  0  0
    6.7361  -14.2925   25.6525 C   0  0  0  0  0  0  0  0  0  0  0  0
    7.1623  -13.8794   24.4141 C   0  0  0  0  0  0  0  0  0  0  0  0
    9.6493  -17.2533   24.0740 C   0  0  0  0  0  0  0  0  0  0  0  0
    9.0395  -18.2148   24.6481 O   0  0  0  0  0  0  0  0  0  0  0  0
   11.5739  -13.3397   28.9508 C   0  0  0  0  0  0  0  0  0  0  0  0
    9.9118  -14.0320   28.6894 S   0  0  0  0  0  0  0  0  0  0  0  0
    9.9864  -15.6972   28.0557 C   0  0  0  0  0  0  0  0  0  0  0  0
   10.0268  -15.8745   26.5971 C   0  0  0  0  0  0  0  0  0  0  0  0
   11.0679  -16.7838   26.0602 C   0  0  2  0  0  0  0  0  0  0  0  0
   10.8949  -16.8544   24.5946 N   0  0  0  0  0  0  0  0  0  0  0  0
   11.0512  -18.1584   26.5310 C   0  0  0  0  0  0  0  0  0  0  0  0
   12.0931  -18.6290   27.1051 O   0  0  0  0  0  0  0  0  0  0  0  0
   10.0029  -19.0493   26.4343 O   0  0  0  0  0  0  0  0  0  0  0  0
  2  1  1  1
  2  5  1  0
  3  2  1  0
  4  3  1  0
  5  6  2  0
  5  7  1  0
  7  8  1  0
  8 19  1  0
  8  9  1  1
 10  9  1  0
 10 18  1  0
 11 10  2  0
 12 11  1  0
 12 13  1  0
 13 14  1  0
 13 18  2  0
 14 15  2  0
 15 16  1  0
 17 16  2  0
 18 17  1  0
 19 20  2  0
 22 21  1  0
 23 24  1  0
 23 22  1  0
 25 24  1  1
 25 27  1  0
 26 25  1  0
 26 19  1  0
 27 28  2  0
 27 29  1  0
M  END
$$$$
