CWM.pdb
     RDKit          3D

 29 30  0  0  1  0  0  0  0  0999 V2000
    9.5665  -20.0482   19.1615 N   0  0  0  0  0  0  0  0  0  0  0  0
    8.8061  -19.8475   20.3603 C   0  0  1  0  0  0  0  0  0  0  0  0
    8.9789  -20.9837   21.3150 C   0  0  0  0  0  0  0  0  0  0  0  0
   10.5790  -20.8699   22.1143 S   0  0  0  0  0  0  0  0  0  0  0  0
    9.1857  -18.5286   20.9767 C   0  0  0  0  0  0  0  0  0  0  0  0
   10.1861  -17.9493   20.5284 O   0  0  0  0  0  0  0  0  0  0  0  0
    8.4330  -17.9646   22.0292 N   0  0  0  0  0  0  0  0  0  0  0  0
    8.6330  -16.6705   22.6075 C   0  0  1  0  0  0  0  0  0  0  0  0
    7.3711  -15.8561   22.8390 C   0  0  0  0  0  0  0  0  0  0  0  0
    7.6271  -14.4544   23.1998 C   0  0  0  0  0  0  0  0  0  0  0  0
    8.2760  -13.4257   22.5755 C   0  0  0  0  0  0  0  0  0  0  0  0
    8.2247  -12.2899   23.3343 N   0  0  0  0  0  0  0  0  0  0  0  0
    7.5444  -12.5634   24.4573 C   0  0  0  0  0  0  0  0  0  0  0  0
    7.2164  -11.7646   25.5369 C   0  0  0  0  0  0  0  0  0  0  0  0
    6.5008  -12.3061   26.5655 C   0  0  0  0  0  0  0  0  0  0  0  0
    6.1050  -13.6269   26.5411 C   0  0  0  0  0  0  0  0  0  0  0  0
    6.4487  -14.4070   25.4428 C   0  0  0  0  0  0  0  0  0  0  0  0
    7.1682  -13.8858   24.3956 C   0  0  0  0  0  0  0  0  0  0  0  0
    9.4260  -16.7803   23.8492 C   0  0  0  0  0  0  0  0  0  0  0  0
    8.9786  -17.4963   24.8048 O   0  0  0  0  0  0  0  0  0  0  0  0
    9.9374  -13.0205   28.5287 C   0  0  0  0  0  0  0  0  0  0  0  0
    9.9946  -14.7823   28.9795 S   0  0  0  0  0  0  0  0  0  0  0  0
   10.8802  -15.7421   27.7653 C   0  0  0  0  0  0  0  0  0  0  0  0
   10.4392  -15.6526   26.3659 C   0  0  0  0  0  0  0  0  0  0  0  0
   11.3381  -16.2349   25.3404 C   0  0  2  0  0  0  0  0  0  0  0  0
   10.6605  -16.1288   24.0319 N   0  0  0  0  0  0  0  0  0  0  0  0
   11.6951  -17.6351   25.4930 C   0  0  0  0  0  0  0  0  0  0  0  0
   10.7881  -18.5251   25.3447 O   0  0  0  0  0  0  0  0  0  0  0  0
   12.9453  -18.1393   25.7841 O   0  0  0  0  0  0  0  0  0  0  0  0
  2  1  1  6
  2  5  1  0
  3  2  1  0
  4  3  1  0
  5  6  2  0
  5  7  1  0
  7  8  1  0
  8 19  1  0
  8  9  1  1
 10  9  1  0
 10 18  1  0
 11 10  2  0
 12 11  1  0
 12 13  1  0
 13 14  1  0
 13 18  2  0
 14 15  2  0
 15 16  1  0
 17 16  2  0
 18 17  1  0
 19 20  2  0
 22 21  1  0
 23 24  1  0
 23 22  1  0
 25 24  1  1
 25 27  1  0
 26 25  1  0
 26 19  1  0
 27 28  2  0
 27 29  1  0
M  END
$$$$
