CWM.pdb
     RDKit          3D

 29 30  0  0  1  0  0  0  0  0999 V2000
    8.0799  -18.4773   19.8992 N   0  0  0  0  0  0  0  0  0  0  0  0
    7.6374  -18.3041   21.2520 C   0  0  1  0  0  0  0  0  0  0  0  0
    6.9822  -19.5402   21.7762 C   0  0  0  0  0  0  0  0  0  0  0  0
    5.2194  -19.2679   21.9517 S   0  0  0  0  0  0  0  0  0  0  0  0
    8.7993  -17.8746   22.1057 C   0  0  0  0  0  0  0  0  0  0  0  0
    9.9264  -18.2882   21.7959 O   0  0  0  0  0  0  0  0  0  0  0  0
    8.6194  -17.0299   23.2222 N   0  0  0  0  0  0  0  0  0  0  0  0
    9.6513  -16.5550   24.0932 C   0  0  1  0  0  0  0  0  0  0  0  0
    9.4650  -15.1405   24.6165 C   0  0  0  0  0  0  0  0  0  0  0  0
    8.1386  -14.8932   25.1996 C   0  0  0  0  0  0  0  0  0  0  0  0
    7.0977  -15.7078   25.5488 C   0  0  0  0  0  0  0  0  0  0  0  0
    6.0681  -14.9786   26.0749 N   0  0  0  0  0  0  0  0  0  0  0  0
    6.4242  -13.6856   26.0751 C   0  0  0  0  0  0  0  0  0  0  0  0
    5.7467  -12.5579   26.4997 C   0  0  0  0  0  0  0  0  0  0  0  0
    6.3541  -11.3407   26.3858 C   0  0  0  0  0  0  0  0  0  0  0  0
    7.6226  -11.2235   25.8578 C   0  0  0  0  0  0  0  0  0  0  0  0
    8.2807  -12.3743   25.4387 C   0  0  0  0  0  0  0  0  0  0  0  0
    7.6910  -13.6103   25.5425 C   0  0  0  0  0  0  0  0  0  0  0  0
    9.8629  -17.5056   25.2042 C   0  0  0  0  0  0  0  0  0  0  0  0
    8.8598  -18.1369   25.6745 O   0  0  0  0  0  0  0  0  0  0  0  0
   15.1455  -21.0737   25.6809 C   0  0  0  0  0  0  0  0  0  0  0  0
   14.4117  -21.4405   27.3048 S   0  0  0  0  0  0  0  0  0  0  0  0
   12.8646  -20.5839   27.5346 C   0  0  0  0  0  0  0  0  0  0  0  0
   12.5512  -19.4771   26.6195 C   0  0  0  0  0  0  0  0  0  0  0  0
   11.2509  -18.7918   26.8156 C   0  0  2  0  0  0  0  0  0  0  0  0
   11.1264  -17.7511   25.7744 N   0  0  0  0  0  0  0  0  0  0  0  0
   11.0461  -18.1139   28.0844 C   0  0  0  0  0  0  0  0  0  0  0  0
   11.1526  -16.8399   28.1300 O   0  0  0  0  0  0  0  0  0  0  0  0
   10.7323  -18.7026   29.2914 O   0  0  0  0  0  0  0  0  0  0  0  0
  2  1  1  6
  2  5  1  0
  3  2  1  0
  4  3  1  0
  5  6  2  0
  5  7  1  0
  7  8  1  0
  8 19  1  0
  8  9  1  1
 10  9  1  0
 10 18  1  0
 11 10  2  0
 12 11  1  0
 12 13  1  0
 13 14  1  0
 13 18  2  0
 14 15  2  0
 15 16  1  0
 17 16  2  0
 18 17  1  0
 19 20  2  0
 22 21  1  0
 23 24  1  0
 23 22  1  0
 25 24  1  1
 25 27  1  0
 26 25  1  0
 26 19  1  0
 27 28  2  0
 27 29  1  0
M  END
$$$$
