CWM.pdb
     RDKit          3D

 29 30  0  0  1  0  0  0  0  0999 V2000
   11.1134  -16.0904   19.5379 N   0  0  0  0  0  0  0  0  0  0  0  0
   10.4593  -17.0188   20.4131 C   0  0  1  0  0  0  0  0  0  0  0  0
   11.1185  -18.3591   20.3811 C   0  0  0  0  0  0  0  0  0  0  0  0
   12.7727  -18.2410   21.0606 S   0  0  0  0  0  0  0  0  0  0  0  0
   10.4119  -16.4452   21.8032 C   0  0  0  0  0  0  0  0  0  0  0  0
   11.0089  -15.3778   22.0071 O   0  0  0  0  0  0  0  0  0  0  0  0
    9.7136  -17.0948   22.8437 N   0  0  0  0  0  0  0  0  0  0  0  0
    9.6063  -16.6406   24.1970 C   0  0  1  0  0  0  0  0  0  0  0  0
    8.2110  -16.6968   24.7964 C   0  0  0  0  0  0  0  0  0  0  0  0
    7.3446  -15.5815   24.3891 C   0  0  0  0  0  0  0  0  0  0  0  0
    6.3706  -15.4451   23.4394 C   0  0  0  0  0  0  0  0  0  0  0  0
    5.8412  -14.1852   23.4668 N   0  0  0  0  0  0  0  0  0  0  0  0
    6.4609  -13.4883   24.4307 C   0  0  0  0  0  0  0  0  0  0  0  0
    6.2939  -12.1842   24.8579 C   0  0  0  0  0  0  0  0  0  0  0  0
    7.0697  -11.7199   25.8806 C   0  0  0  0  0  0  0  0  0  0  0  0
    8.0087  -12.5279   26.4867 C   0  0  0  0  0  0  0  0  0  0  0  0
    8.1553  -13.8352   26.0368 C   0  0  0  0  0  0  0  0  0  0  0  0
    7.3871  -14.3257   25.0095 C   0  0  0  0  0  0  0  0  0  0  0  0
   10.5785  -17.3490   25.0546 C   0  0  0  0  0  0  0  0  0  0  0  0
   11.0656  -18.4557   24.6499 O   0  0  0  0  0  0  0  0  0  0  0  0
    9.5266  -14.2529   29.7730 C   0  0  0  0  0  0  0  0  0  0  0  0
   11.1904  -14.5335   29.0924 S   0  0  0  0  0  0  0  0  0  0  0  0
   11.6515  -16.2541   29.1741 C   0  0  0  0  0  0  0  0  0  0  0  0
   12.5446  -16.7749   28.1291 C   0  0  0  0  0  0  0  0  0  0  0  0
   11.9382  -17.6662   27.1109 C   0  0  2  0  0  0  0  0  0  0  0  0
   10.9974  -16.8597   26.3064 N   0  0  0  0  0  0  0  0  0  0  0  0
   11.1747  -18.8025   27.5981 C   0  0  0  0  0  0  0  0  0  0  0  0
    9.8981  -18.7243   27.6267 O   0  0  0  0  0  0  0  0  0  0  0  0
   11.6817  -20.0046   28.0451 O   0  0  0  0  0  0  0  0  0  0  0  0
  2  1  1  6
  2  5  1  0
  3  2  1  0
  4  3  1  0
  5  6  2  0
  5  7  1  0
  7  8  1  0
  8 19  1  0
  8  9  1  1
 10  9  1  0
 10 18  1  0
 11 10  2  0
 12 11  1  0
 12 13  1  0
 13 14  1  0
 13 18  2  0
 14 15  2  0
 15 16  1  0
 17 16  2  0
 18 17  1  0
 19 20  2  0
 22 21  1  0
 23 24  1  0
 23 22  1  0
 25 24  1  1
 25 27  1  0
 26 25  1  0
 26 19  1  0
 27 28  2  0
 27 29  1  0
M  END
$$$$
