CWM.pdb
     RDKit          3D

 29 30  0  0  1  0  0  0  0  0999 V2000
    8.2459  -17.4235   18.8909 N   0  0  0  0  0  0  0  0  0  0  0  0
    9.3501  -17.6090   19.7866 C   0  0  1  0  0  0  0  0  0  0  0  0
   10.5200  -18.2271   19.0928 C   0  0  0  0  0  0  0  0  0  0  0  0
   10.1027  -19.8848   18.5541 S   0  0  0  0  0  0  0  0  0  0  0  0
    9.7018  -16.2924   20.4240 C   0  0  0  0  0  0  0  0  0  0  0  0
    9.6727  -15.2797   19.7092 O   0  0  0  0  0  0  0  0  0  0  0  0
   10.0536  -16.2061   21.7883 N   0  0  0  0  0  0  0  0  0  0  0  0
    9.3044  -15.5402   22.8102 C   0  0  1  0  0  0  0  0  0  0  0  0
    7.8293  -15.8990   22.8779 C   0  0  0  0  0  0  0  0  0  0  0  0
    7.1411  -15.3609   24.0600 C   0  0  0  0  0  0  0  0  0  0  0  0
    6.3997  -15.9307   25.0575 C   0  0  0  0  0  0  0  0  0  0  0  0
    5.9819  -14.9840   25.9507 N   0  0  0  0  0  0  0  0  0  0  0  0
    6.4442  -13.7912   25.5481 C   0  0  0  0  0  0  0  0  0  0  0  0
    6.3038  -12.5307   26.0982 C   0  0  0  0  0  0  0  0  0  0  0  0
    6.8904  -11.4684   25.4733 C   0  0  0  0  0  0  0  0  0  0  0  0
    7.6143  -11.6355   24.3114 C   0  0  0  0  0  0  0  0  0  0  0  0
    7.7392  -12.9143   23.7803 C   0  0  0  0  0  0  0  0  0  0  0  0
    7.1583  -13.9991   24.3901 C   0  0  0  0  0  0  0  0  0  0  0  0
    9.9535  -15.7238   24.1246 C   0  0  0  0  0  0  0  0  0  0  0  0
    9.6551  -14.9285   25.0757 O   0  0  0  0  0  0  0  0  0  0  0  0
    9.8271  -13.3405   28.3396 C   0  0  0  0  0  0  0  0  0  0  0  0
   10.1766  -14.9212   29.1699 S   0  0  0  0  0  0  0  0  0  0  0  0
   10.9994  -16.0675   28.0796 C   0  0  0  0  0  0  0  0  0  0  0  0
   10.6470  -16.0300   26.6529 C   0  0  0  0  0  0  0  0  0  0  0  0
   11.4727  -16.8522   25.7359 C   0  0  2  0  0  0  0  0  0  0  0  0
   10.8925  -16.7406   24.3818 N   0  0  0  0  0  0  0  0  0  0  0  0
   11.5563  -18.2751   26.0185 C   0  0  0  0  0  0  0  0  0  0  0  0
   12.2966  -18.6723   26.9832 O   0  0  0  0  0  0  0  0  0  0  0  0
   10.9023  -19.2876   25.3483 O   0  0  0  0  0  0  0  0  0  0  0  0
  2  1  1  6
  2  5  1  0
  3  2  1  0
  4  3  1  0
  5  6  2  0
  5  7  1  0
  7  8  1  0
  8 19  1  0
  8  9  1  1
 10  9  1  0
 10 18  1  0
 11 10  2  0
 12 11  1  0
 12 13  1  0
 13 14  1  0
 13 18  2  0
 14 15  2  0
 15 16  1  0
 17 16  2  0
 18 17  1  0
 19 20  2  0
 22 21  1  0
 23 24  1  0
 23 22  1  0
 25 24  1  1
 25 27  1  0
 26 25  1  0
 26 19  1  0
 27 28  2  0
 27 29  1  0
M  END
$$$$
