CWM.pdb
     RDKit          3D

 29 30  0  0  1  0  0  0  0  0999 V2000
   12.2474  -16.3595   18.8299 N   0  0  0  0  0  0  0  0  0  0  0  0
   11.1162  -17.0248   19.4074 C   0  0  1  0  0  0  0  0  0  0  0  0
   11.3817  -18.4811   19.6091 C   0  0  0  0  0  0  0  0  0  0  0  0
   12.7311  -18.6996   20.7683 S   0  0  0  0  0  0  0  0  0  0  0  0
   10.7341  -16.3369   20.6896 C   0  0  0  0  0  0  0  0  0  0  0  0
   11.5697  -15.5838   21.2111 O   0  0  0  0  0  0  0  0  0  0  0  0
    9.4695  -16.5375   21.2837 N   0  0  0  0  0  0  0  0  0  0  0  0
    8.9729  -15.8738   22.4507 C   0  0  1  0  0  0  0  0  0  0  0  0
    7.4596  -15.7919   22.5617 C   0  0  0  0  0  0  0  0  0  0  0  0
    6.9821  -15.4151   23.8999 C   0  0  0  0  0  0  0  0  0  0  0  0
    6.5359  -16.1311   24.9757 C   0  0  0  0  0  0  0  0  0  0  0  0
    6.2148  -15.2987   26.0113 N   0  0  0  0  0  0  0  0  0  0  0  0
    6.4471  -14.0357   25.6247 C   0  0  0  0  0  0  0  0  0  0  0  0
    6.2881  -12.8375   26.2956 C   0  0  0  0  0  0  0  0  0  0  0  0
    6.6085  -11.6750   25.6559 C   0  0  0  0  0  0  0  0  0  0  0  0
    7.0841  -11.6811   24.3614 C   0  0  0  0  0  0  0  0  0  0  0  0
    7.2340  -12.9006   23.7107 C   0  0  0  0  0  0  0  0  0  0  0  0
    6.9185  -14.0837   24.3326 C   0  0  0  0  0  0  0  0  0  0  0  0
    9.5604  -16.4690   23.6686 C   0  0  0  0  0  0  0  0  0  0  0  0
   10.0048  -17.6631   23.6182 O   0  0  0  0  0  0  0  0  0  0  0  0
   10.4587  -13.8066   30.2899 C   0  0  0  0  0  0  0  0  0  0  0  0
   11.9098  -14.2717   29.2959 S   0  0  0  0  0  0  0  0  0  0  0  0
   11.5257  -15.5784   28.1449 C   0  0  0  0  0  0  0  0  0  0  0  0
   10.7792  -15.2237   26.9293 C   0  0  0  0  0  0  0  0  0  0  0  0
   10.5464  -16.3075   25.9444 C   0  0  2  0  0  0  0  0  0  0  0  0
    9.6548  -15.7786   24.8918 N   0  0  0  0  0  0  0  0  0  0  0  0
    9.9116  -17.5196   26.4336 C   0  0  0  0  0  0  0  0  0  0  0  0
    8.6396  -17.6289   26.3514 O   0  0  0  0  0  0  0  0  0  0  0  0
   10.5420  -18.6116   26.9924 O   0  0  0  0  0  0  0  0  0  0  0  0
  2  1  1  1
  2  5  1  0
  3  2  1  0
  4  3  1  0
  5  6  2  0
  5  7  1  0
  7  8  1  0
  8 19  1  0
  8  9  1  1
 10  9  1  0
 10 18  1  0
 11 10  2  0
 12 11  1  0
 12 13  1  0
 13 14  1  0
 13 18  2  0
 14 15  2  0
 15 16  1  0
 17 16  2  0
 18 17  1  0
 19 20  2  0
 22 21  1  0
 23 24  1  0
 23 22  1  0
 25 24  1  1
 25 27  1  0
 26 25  1  0
 26 19  1  0
 27 28  2  0
 27 29  1  0
M  END
$$$$
