CWM.pdb
     RDKit          3D

 29 30  0  0  1  0  0  0  0  0999 V2000
   10.7708  -17.7698   18.2390 N   0  0  0  0  0  0  0  0  0  0  0  0
    9.7120  -17.9264   19.1930 C   0  0  1  0  0  0  0  0  0  0  0  0
    9.5717  -19.3492   19.6267 C   0  0  0  0  0  0  0  0  0  0  0  0
    8.1893  -19.5083   20.7563 S   0  0  0  0  0  0  0  0  0  0  0  0
    9.9476  -17.0015   20.3559 C   0  0  0  0  0  0  0  0  0  0  0  0
   11.1210  -16.7935   20.6986 O   0  0  0  0  0  0  0  0  0  0  0  0
    8.8744  -16.3884   21.0376 N   0  0  0  0  0  0  0  0  0  0  0  0
    8.9854  -15.4843   22.1419 C   0  0  1  0  0  0  0  0  0  0  0  0
    7.8296  -14.5121   22.3091 C   0  0  0  0  0  0  0  0  0  0  0  0
    7.0710  -14.7001   23.5539 C   0  0  0  0  0  0  0  0  0  0  0  0
    6.5084  -15.7904   24.1572 C   0  0  0  0  0  0  0  0  0  0  0  0
    5.9112  -15.4372   25.3350 N   0  0  0  0  0  0  0  0  0  0  0  0
    6.0768  -14.1182   25.5128 C   0  0  0  0  0  0  0  0  0  0  0  0
    5.6679  -13.2819   26.5347 C   0  0  0  0  0  0  0  0  0  0  0  0
    5.9779  -11.9544   26.4656 C   0  0  0  0  0  0  0  0  0  0  0  0
    6.6870  -11.4424   25.3993 C   0  0  0  0  0  0  0  0  0  0  0  0
    7.0856  -12.3064   24.3856 C   0  0  0  0  0  0  0  0  0  0  0  0
    6.7859  -13.6458   24.4320 C   0  0  0  0  0  0  0  0  0  0  0  0
    9.2333  -16.2302   23.3928 C   0  0  0  0  0  0  0  0  0  0  0  0
    9.0855  -17.4968   23.3947 O   0  0  0  0  0  0  0  0  0  0  0  0
   10.9570  -13.7295   29.4795 C   0  0  0  0  0  0  0  0  0  0  0  0
   12.2604  -14.8979   28.9834 S   0  0  0  0  0  0  0  0  0  0  0  0
   11.6961  -16.0078   27.7069 C   0  0  0  0  0  0  0  0  0  0  0  0
   10.9454  -15.4331   26.5814 C   0  0  0  0  0  0  0  0  0  0  0  0
   10.4104  -16.3833   25.5765 C   0  0  2  0  0  0  0  0  0  0  0  0
    9.6273  -15.6079   24.5925 N   0  0  0  0  0  0  0  0  0  0  0  0
    9.5223  -17.4265   26.0608 C   0  0  0  0  0  0  0  0  0  0  0  0
    8.2583  -17.2354   26.0126 O   0  0  0  0  0  0  0  0  0  0  0  0
    9.8940  -18.6484   26.5811 O   0  0  0  0  0  0  0  0  0  0  0  0
  2  1  1  6
  2  5  1  0
  3  2  1  0
  4  3  1  0
  5  6  2  0
  5  7  1  0
  7  8  1  0
  8 19  1  0
  8  9  1  1
 10  9  1  0
 10 18  1  0
 11 10  2  0
 12 11  1  0
 12 13  1  0
 13 14  1  0
 13 18  2  0
 14 15  2  0
 15 16  1  0
 17 16  2  0
 18 17  1  0
 19 20  2  0
 22 21  1  0
 23 24  1  0
 23 22  1  0
 25 24  1  1
 25 27  1  0
 26 25  1  0
 26 19  1  0
 27 28  2  0
 27 29  1  0
M  END
$$$$
