AES.pdb
     RDKit          3D

 21 20  0  0  1  0  0  0  0  0999 V2000
    5.6774  -18.3883   19.4927 C   0  0  0  0  0  0  0  0  0  0  0  0
    5.2128  -19.4333   20.5074 C   0  0  2  0  0  0  0  0  0  0  0  0
    3.8455  -19.7709   20.1597 N   0  0  0  0  0  0  0  0  0  0  0  0
    5.2640  -18.8449   21.8537 C   0  0  0  0  0  0  0  0  0  0  0  0
    4.3550  -18.0213   22.1971 O   0  0  0  0  0  0  0  0  0  0  0  0
    6.2622  -19.1303   22.8076 N   0  0  0  0  0  0  0  0  0  0  0  0
    6.3835  -18.4635   24.1083 C   0  0  1  0  0  0  0  0  0  0  0  0
    6.8611  -19.4876   25.0850 C   0  0  0  0  0  0  0  0  0  0  0  0
    7.1565  -18.9889   26.4592 C   0  0  0  0  0  0  0  0  0  0  0  0
    7.6941  -20.1366   27.2388 C   0  0  0  0  0  0  0  0  0  0  0  0
    7.3265  -20.3654   28.4370 O   0  0  0  0  0  0  0  0  0  0  0  0
    7.2389  -17.2609   24.0033 C   0  0  0  0  0  0  0  0  0  0  0  0
    8.2561  -17.2906   23.3062 O   0  0  0  0  0  0  0  0  0  0  0  0
    8.6204  -21.0014   26.6819 O   0  0  0  0  0  0  0  0  0  0  0  0
    6.0745  -13.7247   25.9224 O   0  0  0  0  0  0  0  0  0  0  0  0
    6.9297  -13.6081   24.8300 C   0  0  0  0  0  0  0  0  0  0  0  0
    7.7039  -14.8884   24.7291 C   0  0  2  0  0  0  0  0  0  0  0  0
    6.9163  -16.0726   24.6877 N   0  0  0  0  0  0  0  0  0  0  0  0
    8.7206  -14.9606   25.7845 C   0  0  0  0  0  0  0  0  0  0  0  0
    8.8115  -15.9046   26.6093 O   0  0  0  0  0  0  0  0  0  0  0  0
    9.6461  -13.9337   25.8950 O   0  0  0  0  0  0  0  0  0  0  0  0
  2  1  1  6
  3  2  1  0
  4  2  1  0
  5  4  2  0
  6  4  1  0
  7 12  1  0
  7  6  1  0
  7  8  1  1
  9  8  1  0
 10  9  1  0
 10 11  2  0
 12 18  1  0
 13 12  2  0
 14 10  1  0
 16 15  1  0
 17 16  1  1
 18 17  1  0
 19 21  1  0
 19 17  1  0
 20 19  2  0
M  END
$$$$
