AES.pdb
     RDKit          3D

 21 20  0  0  1  0  0  0  0  0999 V2000
    7.6447  -12.3616   20.3002 C   0  0  0  0  0  0  0  0  0  0  0  0
    8.1841  -13.5551   19.5113 C   0  0  2  0  0  0  0  0  0  0  0  0
    7.1812  -13.8824   18.5155 N   0  0  0  0  0  0  0  0  0  0  0  0
    8.3747  -14.6863   20.4308 C   0  0  0  0  0  0  0  0  0  0  0  0
    7.3816  -15.4417   20.6869 O   0  0  0  0  0  0  0  0  0  0  0  0
    9.5966  -15.0007   21.0603 N   0  0  0  0  0  0  0  0  0  0  0  0
    9.8233  -16.1908   21.8869 C   0  0  1  0  0  0  0  0  0  0  0  0
   11.2050  -16.6751   21.5914 C   0  0  0  0  0  0  0  0  0  0  0  0
   11.6513  -17.8760   22.3550 C   0  0  0  0  0  0  0  0  0  0  0  0
   13.0475  -18.1720   21.9349 C   0  0  0  0  0  0  0  0  0  0  0  0
   13.3427  -19.2230   21.2779 O   0  0  0  0  0  0  0  0  0  0  0  0
    9.5616  -15.8963   23.3130 C   0  0  0  0  0  0  0  0  0  0  0  0
   10.0016  -14.8594   23.8161 O   0  0  0  0  0  0  0  0  0  0  0  0
   14.0816  -17.3066   22.2475 O   0  0  0  0  0  0  0  0  0  0  0  0
    6.4408  -17.6757   25.2458 O   0  0  0  0  0  0  0  0  0  0  0  0
    7.0254  -16.5397   25.7993 C   0  0  0  0  0  0  0  0  0  0  0  0
    8.4916  -16.5950   25.4898 C   0  0  2  0  0  0  0  0  0  0  0  0
    8.8159  -16.7806   24.1169 N   0  0  0  0  0  0  0  0  0  0  0  0
    9.1597  -17.5909   26.3352 C   0  0  0  0  0  0  0  0  0  0  0  0
    9.8327  -18.5538   25.8885 O   0  0  0  0  0  0  0  0  0  0  0  0
    9.0532  -17.4799   27.7134 O   0  0  0  0  0  0  0  0  0  0  0  0
  2  1  1  1
  3  2  1  0
  4  2  1  0
  5  4  2  0
  6  4  1  0
  7 12  1  0
  7  6  1  0
  7  8  1  1
  9  8  1  0
 10  9  1  0
 10 11  2  0
 12 18  1  0
 13 12  2  0
 14 10  1  0
 16 15  1  0
 17 16  1  6
 18 17  1  0
 19 21  1  0
 19 17  1  0
 20 19  2  0
M  END
$$$$
