AES.pdb
     RDKit          3D

 21 20  0  0  1  0  0  0  0  0999 V2000
    8.1280  -12.4724   19.8424 C   0  0  0  0  0  0  0  0  0  0  0  0
    8.3046  -13.8019   19.1083 C   0  0  2  0  0  0  0  0  0  0  0  0
    7.0081  -14.1475   18.5570 N   0  0  0  0  0  0  0  0  0  0  0  0
    8.7352  -14.8244   20.0730 C   0  0  0  0  0  0  0  0  0  0  0  0
    7.8587  -15.3711   20.8183 O   0  0  0  0  0  0  0  0  0  0  0  0
   10.0693  -15.2506   20.2360 N   0  0  0  0  0  0  0  0  0  0  0  0
   10.4835  -16.3834   21.0704 C   0  0  1  0  0  0  0  0  0  0  0  0
   11.7598  -16.9077   20.4985 C   0  0  0  0  0  0  0  0  0  0  0  0
   12.3650  -18.0687   21.2127 C   0  0  0  0  0  0  0  0  0  0  0  0
   13.6000  -18.4461   20.4738 C   0  0  0  0  0  0  0  0  0  0  0  0
   13.7734  -19.6205   20.0112 O   0  0  0  0  0  0  0  0  0  0  0  0
   10.5593  -15.9862   22.4937 C   0  0  0  0  0  0  0  0  0  0  0  0
   11.1895  -14.9760   22.8159 O   0  0  0  0  0  0  0  0  0  0  0  0
   14.6109  -17.5244   20.2629 O   0  0  0  0  0  0  0  0  0  0  0  0
    7.7338  -15.6895   24.4975 O   0  0  0  0  0  0  0  0  0  0  0  0
    8.5423  -16.2483   25.4837 C   0  0  0  0  0  0  0  0  0  0  0  0
    9.9051  -16.4416   24.8888 C   0  0  2  0  0  0  0  0  0  0  0  0
    9.9235  -16.7421   23.4981 N   0  0  0  0  0  0  0  0  0  0  0  0
   10.6681  -17.4307   25.6584 C   0  0  0  0  0  0  0  0  0  0  0  0
   11.1665  -18.4732   25.1641 O   0  0  0  0  0  0  0  0  0  0  0  0
   10.8610  -17.2201   27.0155 O   0  0  0  0  0  0  0  0  0  0  0  0
  2  1  1  1
  3  2  1  0
  4  2  1  0
  5  4  2  0
  6  4  1  0
  7 12  1  0
  7  6  1  0
  7  8  1  6
  9  8  1  0
 10  9  1  0
 10 11  2  0
 12 18  1  0
 13 12  2  0
 14 10  1  0
 16 15  1  0
 17 16  1  1
 18 17  1  0
 19 21  1  0
 19 17  1  0
 20 19  2  0
M  END
$$$$
