AES.pdb
     RDKit          3D

 21 20  0  0  1  0  0  0  0  0999 V2000
    7.8070  -12.4841   20.0561 C   0  0  0  0  0  0  0  0  0  0  0  0
    8.0566  -13.9565   19.7284 C   0  0  2  0  0  0  0  0  0  0  0  0
    6.8659  -14.4401   19.0555 N   0  0  0  0  0  0  0  0  0  0  0  0
    8.2660  -14.6942   20.9828 C   0  0  0  0  0  0  0  0  0  0  0  0
    7.2492  -15.0354   21.6698 O   0  0  0  0  0  0  0  0  0  0  0  0
    9.5310  -15.0571   21.4889 N   0  0  0  0  0  0  0  0  0  0  0  0
    9.7447  -15.8134   22.7271 C   0  0  1  0  0  0  0  0  0  0  0  0
   10.8184  -16.8145   22.4516 C   0  0  0  0  0  0  0  0  0  0  0  0
   10.4242  -17.9750   21.6017 C   0  0  0  0  0  0  0  0  0  0  0  0
   11.6468  -18.7925   21.3769 C   0  0  0  0  0  0  0  0  0  0  0  0
   11.9267  -19.2819   20.2343 O   0  0  0  0  0  0  0  0  0  0  0  0
   10.0240  -14.9006   23.8576 C   0  0  0  0  0  0  0  0  0  0  0  0
   10.9045  -14.0433   23.7507 O   0  0  0  0  0  0  0  0  0  0  0  0
   12.5286  -19.0506   22.4121 O   0  0  0  0  0  0  0  0  0  0  0  0
    7.2485  -13.5571   26.2470 O   0  0  0  0  0  0  0  0  0  0  0  0
    8.5346  -13.0372   26.3661 C   0  0  0  0  0  0  0  0  0  0  0  0
    9.4946  -14.1796   26.2180 C   0  0  2  0  0  0  0  0  0  0  0  0
    9.3019  -14.9891   25.0638 N   0  0  0  0  0  0  0  0  0  0  0  0
    9.5228  -14.9910   27.4401 C   0  0  0  0  0  0  0  0  0  0  0  0
    9.7157  -14.5226   28.5903 O   0  0  0  0  0  0  0  0  0  0  0  0
    9.3274  -16.3603   27.3401 O   0  0  0  0  0  0  0  0  0  0  0  0
  2  1  1  1
  3  2  1  0
  4  2  1  0
  5  4  2  0
  6  4  1  0
  7 12  1  0
  7  6  1  0
  7  8  1  6
  9  8  1  0
 10  9  1  0
 10 11  2  0
 12 18  1  0
 13 12  2  0
 14 10  1  0
 16 15  1  0
 17 16  1  1
 18 17  1  0
 19 21  1  0
 19 17  1  0
 20 19  2  0
M  END
$$$$
