AES.pdb
     RDKit          3D

 21 20  0  0  1  0  0  0  0  0999 V2000
   -2.7118  -20.6410   24.7189 C   0  0  0  0  0  0  0  0  0  0  0  0
   -2.2891  -22.0699   25.0614 C   0  0  2  0  0  0  0  0  0  0  0  0
   -2.0499  -22.7460   23.8004 N   0  0  0  0  0  0  0  0  0  0  0  0
   -3.3830  -22.7277   25.7907 C   0  0  0  0  0  0  0  0  0  0  0  0
   -4.3783  -23.1722   25.1318 O   0  0  0  0  0  0  0  0  0  0  0  0
   -3.4112  -22.9050   27.1893 N   0  0  0  0  0  0  0  0  0  0  0  0
   -4.4620  -23.6269   27.9143 C   0  0  1  0  0  0  0  0  0  0  0  0
   -3.7836  -24.5013   28.9173 C   0  0  0  0  0  0  0  0  0  0  0  0
   -4.6797  -25.3584   29.7459 C   0  0  0  0  0  0  0  0  0  0  0  0
   -3.8091  -26.2020   30.6087 C   0  0  0  0  0  0  0  0  0  0  0  0
   -3.6437  -27.4452   30.3844 O   0  0  0  0  0  0  0  0  0  0  0  0
   -5.4500  -22.6834   28.4824 C   0  0  0  0  0  0  0  0  0  0  0  0
   -5.0725  -21.6018   28.9402 O   0  0  0  0  0  0  0  0  0  0  0  0
   -3.1442  -25.6580   31.6940 O   0  0  0  0  0  0  0  0  0  0  0  0
   -9.5217  -23.7831   28.7813 O   0  0  0  0  0  0  0  0  0  0  0  0
   -9.2314  -22.4502   28.5026 C   0  0  0  0  0  0  0  0  0  0  0  0
   -7.8585  -22.1700   29.0367 C   0  0  2  0  0  0  0  0  0  0  0  0
   -6.8235  -22.9945   28.5137 N   0  0  0  0  0  0  0  0  0  0  0  0
   -7.8630  -22.1857   30.5039 C   0  0  0  0  0  0  0  0  0  0  0  0
   -7.1615  -22.9619   31.2005 O   0  0  0  0  0  0  0  0  0  0  0  0
   -8.6853  -21.2979   31.1811 O   0  0  0  0  0  0  0  0  0  0  0  0
  2  1  1  6
  3  2  1  0
  4  2  1  0
  5  4  2  0
  6  4  1  0
  7 12  1  0
  7  6  1  0
  7  8  1  1
  9  8  1  0
 10  9  1  0
 10 11  2  0
 12 18  1  0
 13 12  2  0
 14 10  1  0
 16 15  1  0
 17 16  1  6
 18 17  1  0
 19 21  1  0
 19 17  1  0
 20 19  2  0
M  END
$$$$
