AES.pdb
     RDKit          3D

 21 20  0  0  1  0  0  0  0  0999 V2000
    8.2532  -12.2829   19.8569 C   0  0  0  0  0  0  0  0  0  0  0  0
    8.7454  -13.3164   18.8434 C   0  0  2  0  0  0  0  0  0  0  0  0
    7.6086  -13.6528   18.0075 N   0  0  0  0  0  0  0  0  0  0  0  0
    9.2134  -14.5073   19.5674 C   0  0  0  0  0  0  0  0  0  0  0  0
    8.3701  -15.4148   19.8636 O   0  0  0  0  0  0  0  0  0  0  0  0
   10.5493  -14.7212   19.9645 N   0  0  0  0  0  0  0  0  0  0  0  0
   11.0268  -15.9192   20.6630 C   0  0  1  0  0  0  0  0  0  0  0  0
   12.3203  -16.3125   20.0283 C   0  0  0  0  0  0  0  0  0  0  0  0
   12.2181  -16.9594   18.6883 C   0  0  0  0  0  0  0  0  0  0  0  0
   13.5977  -17.3264   18.2693 C   0  0  0  0  0  0  0  0  0  0  0  0
   13.8152  -18.1663   17.3363 O   0  0  0  0  0  0  0  0  0  0  0  0
   11.0992  -15.6818   22.1216 C   0  0  0  0  0  0  0  0  0  0  0  0
   11.7990  -14.7654   22.5600 O   0  0  0  0  0  0  0  0  0  0  0  0
   14.7009  -16.7617   18.8859 O   0  0  0  0  0  0  0  0  0  0  0  0
    8.1404  -17.0057   24.5860 O   0  0  0  0  0  0  0  0  0  0  0  0
    9.0336  -16.0435   25.0494 C   0  0  0  0  0  0  0  0  0  0  0  0
   10.3721  -16.3475   24.4454 C   0  0  2  0  0  0  0  0  0  0  0  0
   10.3819  -16.4855   23.0293 N   0  0  0  0  0  0  0  0  0  0  0  0
   10.9803  -17.5116   25.0991 C   0  0  0  0  0  0  0  0  0  0  0  0
   11.2892  -18.5724   24.4999 O   0  0  0  0  0  0  0  0  0  0  0  0
   11.2372  -17.4574   26.4608 O   0  0  0  0  0  0  0  0  0  0  0  0
  2  1  1  1
  3  2  1  0
  4  2  1  0
  5  4  2  0
  6  4  1  0
  7 12  1  0
  7  6  1  0
  7  8  1  6
  9  8  1  0
 10  9  1  0
 10 11  2  0
 12 18  1  0
 13 12  2  0
 14 10  1  0
 16 15  1  0
 17 16  1  1
 18 17  1  0
 19 21  1  0
 19 17  1  0
 20 19  2  0
M  END
$$$$
