AES.pdb
     RDKit          3D

 21 20  0  0  1  0  0  0  0  0999 V2000
    8.0981  -13.0689   21.1623 C   0  0  0  0  0  0  0  0  0  0  0  0
    8.3286  -14.5679   20.9684 C   0  0  2  0  0  0  0  0  0  0  0  0
    7.1435  -15.0891   20.3139 N   0  0  0  0  0  0  0  0  0  0  0  0
    8.4993  -15.1973   22.2860 C   0  0  0  0  0  0  0  0  0  0  0  0
    7.4696  -15.3922   23.0098 O   0  0  0  0  0  0  0  0  0  0  0  0
    9.7402  -15.6074   22.8153 N   0  0  0  0  0  0  0  0  0  0  0  0
    9.9099  -16.2884   24.1031 C   0  0  1  0  0  0  0  0  0  0  0  0
   10.8982  -17.3883   23.8923 C   0  0  0  0  0  0  0  0  0  0  0  0
   11.2649  -18.1754   25.1049 C   0  0  0  0  0  0  0  0  0  0  0  0
   12.2443  -19.2113   24.6788 C   0  0  0  0  0  0  0  0  0  0  0  0
   13.3668  -18.9019   24.1616 O   0  0  0  0  0  0  0  0  0  0  0  0
   10.2744  -15.3225   25.1630 C   0  0  0  0  0  0  0  0  0  0  0  0
   11.1503  -14.4804   24.9507 O   0  0  0  0  0  0  0  0  0  0  0  0
   11.9647  -20.5583   24.8318 O   0  0  0  0  0  0  0  0  0  0  0  0
    8.3262  -12.9843   26.8397 O   0  0  0  0  0  0  0  0  0  0  0  0
    8.8422  -13.6005   27.9765 C   0  0  0  0  0  0  0  0  0  0  0  0
    9.9490  -14.5085   27.5301 C   0  0  2  0  0  0  0  0  0  0  0  0
    9.6393  -15.3432   26.4202 N   0  0  0  0  0  0  0  0  0  0  0  0
   10.4609  -15.2917   28.6602 C   0  0  0  0  0  0  0  0  0  0  0  0
   10.6014  -16.5406   28.6433 O   0  0  0  0  0  0  0  0  0  0  0  0
   10.8160  -14.6317   29.8270 O   0  0  0  0  0  0  0  0  0  0  0  0
  2  1  1  1
  3  2  1  0
  4  2  1  0
  5  4  2  0
  6  4  1  0
  7 12  1  0
  7  6  1  0
  7  8  1  6
  9  8  1  0
 10  9  1  0
 10 11  2  0
 12 18  1  0
 13 12  2  0
 14 10  1  0
 16 15  1  0
 17 16  1  1
 18 17  1  0
 19 21  1  0
 19 17  1  0
 20 19  2  0
M  END
$$$$
