AES.pdb
     RDKit          3D

 21 20  0  0  1  0  0  0  0  0999 V2000
    7.8925  -12.3715   19.2788 C   0  0  0  0  0  0  0  0  0  0  0  0
    8.5414  -13.3510   18.3005 C   0  0  2  0  0  0  0  0  0  0  0  0
    7.4594  -14.0479   17.6311 N   0  0  0  0  0  0  0  0  0  0  0  0
    9.3669  -14.3031   19.0578 C   0  0  0  0  0  0  0  0  0  0  0  0
    8.8172  -15.3514   19.5283 O   0  0  0  0  0  0  0  0  0  0  0  0
   10.7451  -14.1375   19.3053 N   0  0  0  0  0  0  0  0  0  0  0  0
   11.5877  -15.1157   20.0010 C   0  0  1  0  0  0  0  0  0  0  0  0
   12.9974  -14.8629   19.5768 C   0  0  0  0  0  0  0  0  0  0  0  0
   13.2951  -15.0963   18.1342 C   0  0  0  0  0  0  0  0  0  0  0  0
   14.7338  -14.7804   17.9240 C   0  0  0  0  0  0  0  0  0  0  0  0
   15.1501  -13.5804   17.8231 O   0  0  0  0  0  0  0  0  0  0  0  0
   11.3605  -15.0587   21.4619 C   0  0  0  0  0  0  0  0  0  0  0  0
   10.9134  -14.0291   21.9734 O   0  0  0  0  0  0  0  0  0  0  0  0
   15.6761  -15.7900   17.8303 O   0  0  0  0  0  0  0  0  0  0  0  0
    9.1432  -17.3958   23.0946 O   0  0  0  0  0  0  0  0  0  0  0  0
    9.6774  -16.3031   23.7721 C   0  0  0  0  0  0  0  0  0  0  0  0
   11.1674  -16.3633   23.6142 C   0  0  2  0  0  0  0  0  0  0  0  0
   11.6463  -16.1622   22.2895 N   0  0  0  0  0  0  0  0  0  0  0  0
   11.6971  -17.6044   24.1903 C   0  0  0  0  0  0  0  0  0  0  0  0
   12.2890  -18.4914   23.5249 O   0  0  0  0  0  0  0  0  0  0  0  0
   11.5446  -17.8307   25.5499 O   0  0  0  0  0  0  0  0  0  0  0  0
  2  1  1  1
  3  2  1  0
  4  2  1  0
  5  4  2  0
  6  4  1  0
  7 12  1  0
  7  6  1  0
  7  8  1  1
  9  8  1  0
 10  9  1  0
 10 11  2  0
 12 18  1  0
 13 12  2  0
 14 10  1  0
 16 15  1  0
 17 16  1  6
 18 17  1  0
 19 21  1  0
 19 17  1  0
 20 19  2  0
M  END
$$$$
