AES.pdb
     RDKit          3D

 21 20  0  0  1  0  0  0  0  0999 V2000
    8.0038  -12.4110   19.8940 C   0  0  0  0  0  0  0  0  0  0  0  0
    8.4247  -13.1673   18.6337 C   0  0  2  0  0  0  0  0  0  0  0  0
    7.2356  -13.8266   18.1281 N   0  0  0  0  0  0  0  0  0  0  0  0
    9.4432  -14.1641   18.9950 C   0  0  0  0  0  0  0  0  0  0  0  0
    9.0641  -15.3310   19.3369 O   0  0  0  0  0  0  0  0  0  0  0  0
   10.8316  -13.9182   18.9907 N   0  0  0  0  0  0  0  0  0  0  0  0
   11.8565  -14.9366   19.2426 C   0  0  1  0  0  0  0  0  0  0  0  0
   12.9869  -14.6647   18.3050 C   0  0  0  0  0  0  0  0  0  0  0  0
   14.1834  -15.5423   18.4556 C   0  0  0  0  0  0  0  0  0  0  0  0
   15.1365  -15.1782   17.3727 C   0  0  0  0  0  0  0  0  0  0  0  0
   15.2315  -15.8640   16.3031 O   0  0  0  0  0  0  0  0  0  0  0  0
   12.2308  -14.9610   20.6739 C   0  0  0  0  0  0  0  0  0  0  0  0
   12.5798  -13.9190   21.2345 O   0  0  0  0  0  0  0  0  0  0  0  0
   15.9593  -14.0717   17.4934 O   0  0  0  0  0  0  0  0  0  0  0  0
   11.6278  -17.0051   24.9042 O   0  0  0  0  0  0  0  0  0  0  0  0
   11.2950  -17.0057   23.5523 C   0  0  0  0  0  0  0  0  0  0  0  0
   12.3834  -16.2759   22.8232 C   0  0  2  0  0  0  0  0  0  0  0  0
   12.1985  -16.1570   21.4174 N   0  0  0  0  0  0  0  0  0  0  0  0
   13.6942  -16.8528   23.1420 C   0  0  0  0  0  0  0  0  0  0  0  0
   14.4560  -17.3787   22.2918 O   0  0  0  0  0  0  0  0  0  0  0  0
   14.1365  -16.8262   24.4560 O   0  0  0  0  0  0  0  0  0  0  0  0
  2  1  1  1
  3  2  1  0
  4  2  1  0
  5  4  2  0
  6  4  1  0
  7 12  1  0
  7  6  1  0
  7  8  1  6
  9  8  1  0
 10  9  1  0
 10 11  2  0
 12 18  1  0
 13 12  2  0
 14 10  1  0
 16 15  1  0
 17 16  1  6
 18 17  1  0
 19 21  1  0
 19 17  1  0
 20 19  2  0
M  END
$$$$
