AES.pdb
     RDKit          3D

 21 20  0  0  1  0  0  0  0  0999 V2000
    7.6933  -12.5874   20.1490 C   0  0  0  0  0  0  0  0  0  0  0  0
    8.2454  -13.8120   19.4188 C   0  0  2  0  0  0  0  0  0  0  0  0
    7.2290  -14.2224   18.4686 N   0  0  0  0  0  0  0  0  0  0  0  0
    8.4863  -14.8815   20.3984 C   0  0  0  0  0  0  0  0  0  0  0  0
    7.5036  -15.5979   20.7772 O   0  0  0  0  0  0  0  0  0  0  0  0
    9.7463  -15.1766   20.9583 N   0  0  0  0  0  0  0  0  0  0  0  0
   10.0076  -16.2909   21.8752 C   0  0  1  0  0  0  0  0  0  0  0  0
   11.3951  -16.7708   21.6005 C   0  0  0  0  0  0  0  0  0  0  0  0
   11.5129  -17.9104   20.6456 C   0  0  0  0  0  0  0  0  0  0  0  0
   12.9589  -18.0826   20.3405 C   0  0  0  0  0  0  0  0  0  0  0  0
   13.7955  -18.4405   21.2324 O   0  0  0  0  0  0  0  0  0  0  0  0
    9.7579  -15.8866   23.2764 C   0  0  0  0  0  0  0  0  0  0  0  0
   10.2243  -14.8266   23.7014 O   0  0  0  0  0  0  0  0  0  0  0  0
   13.4472  -17.8570   19.0651 O   0  0  0  0  0  0  0  0  0  0  0  0
    6.5164  -17.2899   25.2944 O   0  0  0  0  0  0  0  0  0  0  0  0
    7.1952  -16.1630   25.7502 C   0  0  0  0  0  0  0  0  0  0  0  0
    8.6555  -16.3852   25.4918 C   0  0  2  0  0  0  0  0  0  0  0  0
    8.9940  -16.6915   24.1441 N   0  0  0  0  0  0  0  0  0  0  0  0
    9.1966  -17.3859   26.4184 C   0  0  0  0  0  0  0  0  0  0  0  0
    9.8292  -18.4096   26.0560 O   0  0  0  0  0  0  0  0  0  0  0  0
    9.0080  -17.2090   27.7808 O   0  0  0  0  0  0  0  0  0  0  0  0
  2  1  1  1
  3  2  1  0
  4  2  1  0
  5  4  2  0
  6  4  1  0
  7 12  1  0
  7  6  1  0
  7  8  1  1
  9  8  1  0
 10  9  1  0
 10 11  2  0
 12 18  1  0
 13 12  2  0
 14 10  1  0
 16 15  1  0
 17 16  1  6
 18 17  1  0
 19 21  1  0
 19 17  1  0
 20 19  2  0
M  END
$$$$
