AES.pdb
     RDKit          3D

 21 20  0  0  1  0  0  0  0  0999 V2000
    7.9565  -12.4821   19.6775 C   0  0  0  0  0  0  0  0  0  0  0  0
    8.4728  -13.5071   18.6673 C   0  0  2  0  0  0  0  0  0  0  0  0
    7.3426  -13.8775   17.8366 N   0  0  0  0  0  0  0  0  0  0  0  0
    8.9744  -14.6817   19.3954 C   0  0  0  0  0  0  0  0  0  0  0  0
    8.1385  -15.5497   19.8079 O   0  0  0  0  0  0  0  0  0  0  0  0
   10.3355  -14.9210   19.6750 N   0  0  0  0  0  0  0  0  0  0  0  0
   10.8338  -16.0402   20.4812 C   0  0  1  0  0  0  0  0  0  0  0  0
   12.1011  -16.5104   19.8457 C   0  0  0  0  0  0  0  0  0  0  0  0
   11.9449  -17.3252   18.6064 C   0  0  0  0  0  0  0  0  0  0  0  0
   13.3103  -17.7020   18.1512 C   0  0  0  0  0  0  0  0  0  0  0  0
   13.5764  -17.9047   16.9218 O   0  0  0  0  0  0  0  0  0  0  0  0
   10.9617  -15.6471   21.9019 C   0  0  0  0  0  0  0  0  0  0  0  0
   11.4958  -14.5747   22.1959 O   0  0  0  0  0  0  0  0  0  0  0  0
   14.3463  -17.8464   19.0578 O   0  0  0  0  0  0  0  0  0  0  0  0
    8.2726  -16.8360   24.6460 O   0  0  0  0  0  0  0  0  0  0  0  0
    9.1498  -15.7835   24.8931 C   0  0  0  0  0  0  0  0  0  0  0  0
   10.4828  -16.1689   24.3246 C   0  0  2  0  0  0  0  0  0  0  0  0
   10.4844  -16.4766   22.9354 N   0  0  0  0  0  0  0  0  0  0  0  0
   11.0854  -17.2508   25.1114 C   0  0  0  0  0  0  0  0  0  0  0  0
   11.3344  -18.3958   24.6567 O   0  0  0  0  0  0  0  0  0  0  0  0
   11.4064  -17.0150   26.4397 O   0  0  0  0  0  0  0  0  0  0  0  0
  2  1  1  1
  3  2  1  0
  4  2  1  0
  5  4  2  0
  6  4  1  0
  7 12  1  0
  7  6  1  0
  7  8  1  6
  9  8  1  0
 10  9  1  0
 10 11  2  0
 12 18  1  0
 13 12  2  0
 14 10  1  0
 16 15  1  0
 17 16  1  1
 18 17  1  0
 19 21  1  0
 19 17  1  0
 20 19  2  0
M  END
$$$$
