AES.pdb
     RDKit          3D

 21 20  0  0  1  0  0  0  0  0999 V2000
    7.8828  -12.3737   19.7589 C   0  0  0  0  0  0  0  0  0  0  0  0
    8.2507  -13.6197   18.9529 C   0  0  2  0  0  0  0  0  0  0  0  0
    7.0348  -14.0659   18.2996 N   0  0  0  0  0  0  0  0  0  0  0  0
    8.7413  -14.6548   19.8745 C   0  0  0  0  0  0  0  0  0  0  0  0
    7.8939  -15.3316   20.5426 O   0  0  0  0  0  0  0  0  0  0  0  0
   10.1035  -14.9575   20.0761 N   0  0  0  0  0  0  0  0  0  0  0  0
   10.5978  -16.0007   20.9807 C   0  0  1  0  0  0  0  0  0  0  0  0
   11.9533  -16.3981   20.4953 C   0  0  0  0  0  0  0  0  0  0  0  0
   12.6211  -17.4947   21.2542 C   0  0  0  0  0  0  0  0  0  0  0  0
   13.9433  -17.7322   20.6144 C   0  0  0  0  0  0  0  0  0  0  0  0
   14.8942  -16.8891   20.7049 O   0  0  0  0  0  0  0  0  0  0  0  0
   10.5533  -15.5403   22.3861 C   0  0  0  0  0  0  0  0  0  0  0  0
   10.2998  -14.3594   22.6370 O   0  0  0  0  0  0  0  0  0  0  0  0
   14.1854  -18.8883   19.8928 O   0  0  0  0  0  0  0  0  0  0  0  0
    8.1384  -16.3587   25.9286 O   0  0  0  0  0  0  0  0  0  0  0  0
    8.6241  -16.4356   24.6260 C   0  0  0  0  0  0  0  0  0  0  0  0
   10.1216  -16.4364   24.7061 C   0  0  2  0  0  0  0  0  0  0  0  0
   10.7966  -16.4267   23.4536 N   0  0  0  0  0  0  0  0  0  0  0  0
   10.5917  -17.5354   25.5569 C   0  0  0  0  0  0  0  0  0  0  0  0
   11.0403  -18.6234   25.1156 O   0  0  0  0  0  0  0  0  0  0  0  0
   10.5456  -17.3833   26.9346 O   0  0  0  0  0  0  0  0  0  0  0  0
  2  1  1  1
  3  2  1  0
  4  2  1  0
  5  4  2  0
  6  4  1  0
  7 12  1  0
  7  6  1  0
  7  8  1  6
  9  8  1  0
 10  9  1  0
 10 11  2  0
 12 18  1  0
 13 12  2  0
 14 10  1  0
 16 15  1  0
 17 16  1  6
 18 17  1  0
 19 21  1  0
 19 17  1  0
 20 19  2  0
M  END
$$$$
