AES.pdb
     RDKit          3D

 21 20  0  0  1  0  0  0  0  0999 V2000
    7.7139  -12.3651   19.4981 C   0  0  0  0  0  0  0  0  0  0  0  0
    8.4489  -13.3494   18.5879 C   0  0  2  0  0  0  0  0  0  0  0  0
    7.4321  -14.0499   17.8264 N   0  0  0  0  0  0  0  0  0  0  0  0
    9.2017  -14.2975   19.4222 C   0  0  0  0  0  0  0  0  0  0  0  0
    8.6029  -15.3285   19.8705 O   0  0  0  0  0  0  0  0  0  0  0  0
   10.5602  -14.1460   19.7679 N   0  0  0  0  0  0  0  0  0  0  0  0
   11.3379  -15.1278   20.5309 C   0  0  1  0  0  0  0  0  0  0  0  0
   12.7767  -14.9040   20.1984 C   0  0  0  0  0  0  0  0  0  0  0  0
   13.2197  -15.3933   18.8610 C   0  0  0  0  0  0  0  0  0  0  0  0
   14.6685  -15.0790   18.7341 C   0  0  0  0  0  0  0  0  0  0  0  0
   15.5592  -15.7621   19.3368 O   0  0  0  0  0  0  0  0  0  0  0  0
   11.0151  -15.0464   21.9726 C   0  0  0  0  0  0  0  0  0  0  0  0
   10.5825  -13.9926   22.4457 O   0  0  0  0  0  0  0  0  0  0  0  0
   15.0999  -14.0235   17.9493 O   0  0  0  0  0  0  0  0  0  0  0  0
    8.5215  -17.0843   23.6396 O   0  0  0  0  0  0  0  0  0  0  0  0
    9.1882  -16.0315   24.2604 C   0  0  0  0  0  0  0  0  0  0  0  0
   10.6587  -16.2973   24.1358 C   0  0  2  0  0  0  0  0  0  0  0  0
   11.1928  -16.1538   22.8249 N   0  0  0  0  0  0  0  0  0  0  0  0
   10.9966  -17.6048   24.7094 C   0  0  0  0  0  0  0  0  0  0  0  0
   11.4432  -18.5711   24.0411 O   0  0  0  0  0  0  0  0  0  0  0  0
   10.8186  -17.8061   26.0699 O   0  0  0  0  0  0  0  0  0  0  0  0
  2  1  1  1
  3  2  1  0
  4  2  1  0
  5  4  2  0
  6  4  1  0
  7 12  1  0
  7  6  1  0
  7  8  1  1
  9  8  1  0
 10  9  1  0
 10 11  2  0
 12 18  1  0
 13 12  2  0
 14 10  1  0
 16 15  1  0
 17 16  1  6
 18 17  1  0
 19 21  1  0
 19 17  1  0
 20 19  2  0
M  END
$$$$
